MODEL 1
USER: ADFR SOLUTION from run 80
USER: SCORE 13.446653 LL:  -3.657 LR: -10.744 RR:   0.000 FEB:  -7.463
USER: RMSD 0.978426
USER: SEED 79
USER: STATUS no improvement in best in 1 clusters for 5 generations
USER: GENES 13
USER: genes 0 Translation |==|  0.58418 0.52642 0.45817
USER: genes 1 Rotation |==|  0.54947 0.50983 0.54852 0.99508
USER: genes 2 Torsion [C]-N--CA-[CB] |==|  0.46751
USER: genes 3 Torsion [N]-CA--CB-[CG] |==|  0.19592
USER: genes 4 Torsion [CA]-CB--CG-[CD] |==|  0.81540
USER: genes 5 Torsion [CB]-CG--CD-[OE1] |==|  0.29864
USER: genes 6 Torsion [N]-CA--C-[N] |==|  0.46356
USER: genes 7 Torsion [N]-CA--C-[OXT] |==|  0.23115
USER: genes 8 Torsion [N]-C--CA-[N] |==|  0.01856
USER: genes 9 Torsion [C]-CA--N-[C] |==|  0.68891
USER: genes 10 Torsion [N]-C--CA-[N] |==|  0.69811
USER: genes 11 Torsion [C]-CA--CB-[CG] |==|  0.76044
USER: genes 12 Torsion [CA]-CB--CG-[CD2] |==|  0.23898
ROOT
ATOM      1  C   PHE B 724      42.269  37.882  84.906  1.00 20.38 LIG 0.24  C 
ATOM      2 O    PHE B 724      42.669  37.898  83.743  1.00 19.94 LIG-0.27  OA
ATOM      3  N   GLU B 725      41.169  37.244  85.281  1.00 20.55 LIG-0.35  N 
ATOM      4 H    GLU B 725      40.918  37.158  86.099  1.00 20.55 LIG 0.16  HD
ENDROOT
BRANCH 3 5
ATOM      5  CA  GLU B 725      40.281  36.625  84.310  1.00 20.80 LIG 0.18  C 
BRANCH 5 6
ATOM      6  CB  GLU B 725      39.267  35.725  85.030  1.00 21.18 LIG 0.04  C 
BRANCH 6 7
ATOM      7  CG  GLU B 725      38.209  36.459  85.846  1.00 23.39 LIG 0.12  C 
BRANCH 7 8
ATOM      8  CD  GLU B 725      38.771  37.202  87.050  1.00 26.43 LIG 0.17  C 
ATOM      9 OE1  GLU B 725      38.834  38.454  87.032  1.00 27.49 LIG-0.65  OA
ATOM     10 OE2  GLU B 725      39.165  36.521  88.026  1.00 27.53 LIG-0.65  OA
ENDBRANCH 7 8
ENDBRANCH 6 7
ENDBRANCH 5 6
BRANCH 5 11
ATOM     11  C   GLU B 725      39.598  37.742  83.502  1.00 20.17 LIG 0.24  C 
ATOM     12  N   PRO B 726      38.950  37.396  82.387  1.00 19.83 LIG-0.34  N 
ATOM     13  CD  PRO B 726      38.850  36.060  81.768  1.00 19.46 LIG 0.13  C 
ATOM     14  CA  PRO B 726      38.192  38.392  81.636  1.00 19.64 LIG 0.19  C 
ATOM     15  CG  PRO B 726      38.045  36.291  80.517  1.00 19.20 LIG 0.02  C 
ATOM     16  CB  PRO B 726      38.045  37.750  80.255  1.00 19.97 LIG 0.04  C 
ATOM     17 O    GLU B 725      39.662  38.919  83.899  1.00 19.41 LIG-0.27  OA
BRANCH 14 18
ATOM     18  C   PRO B 726      36.846  38.543  82.336  1.00 19.81 LIG 0.20  C 
ATOM     19 OXT  PRO B 726      36.792  39.305  83.320  1.00 20.16 LIG-0.65  OA
ATOM     20 O    PRO B 726      35.879  37.880  81.940  1.00 18.50 LIG-0.65  OA
ENDBRANCH 14 18
ENDBRANCH 5 11
ENDBRANCH 3 5
BRANCH 1 21
ATOM     21  CA  PHE B 724      43.029  38.607  86.018  1.00 20.36 LIG 0.18  C 
BRANCH 21 22
ATOM     22  N   PHE B 724      42.462  38.322  87.341  1.00 20.75 LIG-0.35  N 
ATOM     23  C   GLY B 723      41.841  39.255  88.055  1.00 21.06 LIG 0.25  C 
ATOM     24 O    GLY B 723      41.686  40.411  87.657  1.00 21.29 LIG-0.27  OA
ATOM     25 H    PHE B 724      42.569  37.511  87.603  1.00 20.75 LIG 0.16  HD
BRANCH 23 26
ATOM     26  CA  GLY B 723      41.313  38.824  89.416  1.00 21.22 LIG 0.47  C 
ATOM     27  N   GLY B 723      39.824  38.728  89.460  1.00 21.24 LIG 0.61  N 
ENDBRANCH 23 26
ENDBRANCH 21 22
BRANCH 21 28
ATOM     28  CB  PHE B 724      44.517  38.254  85.972  1.00 20.22 LIG 0.07  C 
BRANCH 28 29
ATOM     29  CG  PHE B 724      44.868  37.007  86.724  1.00 20.05 LIG-0.06  A 
ATOM     30  CD1 PHE B 724      45.309  37.075  88.036  1.00 20.54 LIG 0.01  A 
ATOM     31  CE1 PHE B 724      45.643  35.916  88.734  1.00 21.50 LIG 0.00  A 
ATOM     32  CZ  PHE B 724      45.542  34.675  88.108  1.00 21.54 LIG 0.00  A 
ATOM     33  CE2 PHE B 724      45.102  34.599  86.796  1.00 21.44 LIG 0.00  A 
ATOM     34  CD2 PHE B 724      44.769  35.763  86.110  1.00 20.20 LIG 0.01  A 
ENDBRANCH 28 29
ENDBRANCH 21 28
ENDBRANCH 1 21
TORSDOF 11
ENDMDL
MODEL 2
USER: ADFR SOLUTION from run 44
USER: SCORE 11.559761 LL:  -2.582 LR: -10.524 RR:   0.000 FEB:  -7.242
USER: RMSD 4.699132
USER: SEED 43
USER: STATUS no improvement in best in 3 clusters for 5 generations
USER: GENES 13
USER: genes 0 Translation |==|  0.54399 0.45050 0.44773
USER: genes 1 Rotation |==|  0.79920 0.46334 0.52249 0.89829
USER: genes 2 Torsion [C]-N--CA-[CB] |==|  0.45561
USER: genes 3 Torsion [N]-CA--CB-[CG] |==|  0.56953
USER: genes 4 Torsion [CA]-CB--CG-[CD] |==|  0.82321
USER: genes 5 Torsion [CB]-CG--CD-[OE1] |==|  0.32658
USER: genes 6 Torsion [N]-CA--C-[N] |==|  0.81220
USER: genes 7 Torsion [N]-CA--C-[OXT] |==|  0.43321
USER: genes 8 Torsion [N]-C--CA-[N] |==|  0.44508
USER: genes 9 Torsion [C]-CA--N-[C] |==|  0.55648
USER: genes 10 Torsion [N]-C--CA-[N] |==|  0.11493
USER: genes 11 Torsion [C]-CA--CB-[CG] |==|  0.29096
USER: genes 12 Torsion [CA]-CB--CG-[CD2] |==|  0.77686
ROOT
ATOM      1  C   PHE B 724      41.546  36.800  84.710  1.00 20.38 LIG 0.24  C 
ATOM      2 O    PHE B 724      42.075  37.785  84.199  1.00 19.94 LIG-0.27  OA
ATOM      3  N   GLU B 725      40.379  36.317  84.306  1.00 20.55 LIG-0.35  N 
ATOM      4 H    GLU B 725      40.033  35.587  84.599  1.00 20.55 LIG 0.16  HD
ENDROOT
BRANCH 3 5
ATOM      5  CA  GLU B 725      39.575  37.008  83.310  1.00 20.80 LIG 0.18  C 
BRANCH 5 6
ATOM      6  CB  GLU B 725      38.507  36.057  82.751  1.00 21.18 LIG 0.04  C 
BRANCH 6 7
ATOM      7  CG  GLU B 725      38.004  36.392  81.352  1.00 23.39 LIG 0.12  C 
BRANCH 7 8
ATOM      8  CD  GLU B 725      37.285  37.732  81.265  1.00 26.43 LIG 0.17  C 
ATOM      9 OE1  GLU B 725      37.754  38.641  80.540  1.00 27.49 LIG-0.65  OA
ATOM     10 OE2  GLU B 725      36.240  37.880  81.940  1.00 27.53 LIG-0.65  OA
ENDBRANCH 7 8
ENDBRANCH 6 7
ENDBRANCH 5 6
BRANCH 5 11
ATOM     11  C   GLU B 725      38.958  38.253  83.969  1.00 20.17 LIG 0.24  C 
ATOM     12  N   PRO B 726      38.039  38.064  84.919  1.00 19.83 LIG-0.34  N 
ATOM     13  CD  PRO B 726      37.469  36.789  85.394  1.00 19.46 LIG 0.13  C 
ATOM     14  CA  PRO B 726      37.496  39.201  85.656  1.00 19.64 LIG 0.19  C 
ATOM     15  CG  PRO B 726      36.455  37.200  86.429  1.00 19.20 LIG 0.02  C 
ATOM     16  CB  PRO B 726      36.197  38.648  86.244  1.00 19.97 LIG 0.04  C 
ATOM     17 O    GLU B 725      39.323  39.387  83.609  1.00 19.41 LIG-0.27  OA
BRANCH 14 18
ATOM     18  C   PRO B 726      38.508  39.547  86.743  1.00 19.81 LIG 0.20  C 
ATOM     19 OXT  PRO B 726      38.502  40.711  87.185  1.00 20.16 LIG-0.65  OA
ATOM     20 O    PRO B 726      39.318  38.687  87.112  1.00 18.50 LIG-0.65  OA
ENDBRANCH 14 18
ENDBRANCH 5 11
ENDBRANCH 3 5
BRANCH 1 21
ATOM     21  CA  PHE B 724      42.212  36.049  85.865  1.00 20.36 LIG 0.18  C 
BRANCH 21 22
ATOM     22  N   PHE B 724      43.649  36.330  85.941  1.00 20.75 LIG-0.35  N 
ATOM     23  C   GLY B 723      44.492  35.523  86.577  1.00 21.06 LIG 0.25  C 
ATOM     24 O    GLY B 723      44.131  34.483  87.132  1.00 21.29 LIG-0.27  OA
ATOM     25 H    PHE B 724      43.890  37.053  85.542  1.00 20.75 LIG 0.16  HD
BRANCH 23 26
ATOM     26  CA  GLY B 723      45.954  35.943  86.587  1.00 21.22 LIG 0.47  C 
ATOM     27  N   GLY B 723      46.138  37.407  86.814  1.00 21.24 LIG 0.61  N 
ENDBRANCH 23 26
ENDBRANCH 21 22
BRANCH 21 28
ATOM     28  CB  PHE B 724      41.519  36.376  87.190  1.00 20.22 LIG 0.07  C 
BRANCH 28 29
ATOM     29  CG  PHE B 724      40.636  35.278  87.700  1.00 20.05 LIG-0.06  A 
ATOM     30  CD1 PHE B 724      41.088  34.406  88.678  1.00 20.54 LIG 0.01  A 
ATOM     31  CE1 PHE B 724      40.271  33.380  89.147  1.00 21.50 LIG 0.00  A 
ATOM     32  CZ  PHE B 724      38.989  33.219  88.625  1.00 21.54 LIG 0.00  A 
ATOM     33  CE2 PHE B 724      38.529  34.087  87.647  1.00 21.44 LIG 0.00  A 
ATOM     34  CD2 PHE B 724      39.354  35.110  87.188  1.00 20.20 LIG 0.01  A 
ENDBRANCH 28 29
ENDBRANCH 21 28
ENDBRANCH 1 21
TORSDOF 11
ENDMDL
MODEL 3
USER: ADFR SOLUTION from run 135
USER: SCORE 11.680096 LL:  -2.077 LR: -10.496 RR:   0.000 FEB:  -7.215
USER: RMSD 7.247622
USER: SEED 134
USER: STATUS no improvement in best in 15 clusters for 5 generations
USER: GENES 13
USER: genes 0 Translation |==|  0.46809 0.50168 0.49025
USER: genes 1 Rotation |==|  0.61285 0.75688 0.09447 0.58259
USER: genes 2 Torsion [C]-N--CA-[CB] |==|  0.85553
USER: genes 3 Torsion [N]-CA--CB-[CG] |==|  0.81318
USER: genes 4 Torsion [CA]-CB--CG-[CD] |==|  0.24590
USER: genes 5 Torsion [CB]-CG--CD-[OE1] |==|  0.12247
USER: genes 6 Torsion [N]-CA--C-[N] |==|  0.48078
USER: genes 7 Torsion [N]-CA--C-[OXT] |==|  0.23555
USER: genes 8 Torsion [N]-C--CA-[N] |==|  0.06878
USER: genes 9 Torsion [C]-CA--N-[C] |==|  0.17621
USER: genes 10 Torsion [N]-C--CA-[N] |==|  0.53139
USER: genes 11 Torsion [C]-CA--CB-[CG] |==|  0.25966
USER: genes 12 Torsion [CA]-CB--CG-[CD2] |==|  0.27389
ROOT
ATOM      1  C   PHE B 724      40.180  37.529  85.507  1.00 20.38 LIG 0.24  C 
ATOM      2 O    PHE B 724      39.901  38.652  85.090  1.00 19.94 LIG-0.27  OA
ATOM      3  N   GLU B 725      40.952  37.324  86.565  1.00 20.55 LIG-0.35  N 
ATOM      4 H    GLU B 725      41.094  36.551  86.915  1.00 20.55 LIG 0.16  HD
ENDROOT
BRANCH 3 5
ATOM      5  CA  GLU B 725      41.635  38.421  87.231  1.00 20.80 LIG 0.18  C 
BRANCH 5 6
ATOM      6  CB  GLU B 725      42.427  39.243  86.204  1.00 21.18 LIG 0.04  C 
BRANCH 6 7
ATOM      7  CG  GLU B 725      43.610  38.522  85.566  1.00 23.39 LIG 0.12  C 
BRANCH 7 8
ATOM      8  CD  GLU B 725      43.244  37.737  84.313  1.00 26.43 LIG 0.17  C 
ATOM      9 OE1  GLU B 725      42.493  38.255  83.454  1.00 27.49 LIG-0.65  OA
ATOM     10 OE2  GLU B 725      43.709  36.579  84.193  1.00 27.53 LIG-0.65  OA
ENDBRANCH 7 8
ENDBRANCH 6 7
ENDBRANCH 5 6
BRANCH 5 11
ATOM     11  C   GLU B 725      40.583  39.268  87.967  1.00 20.17 LIG 0.24  C 
ATOM     12  N   PRO B 726      41.018  40.249  88.762  1.00 19.83 LIG-0.34  N 
ATOM     13  CD  PRO B 726      42.412  40.603  89.093  1.00 19.46 LIG 0.13  C 
ATOM     14  CA  PRO B 726      40.069  41.154  89.402  1.00 19.64 LIG 0.19  C 
ATOM     15  CG  PRO B 726      42.282  41.747  90.063  1.00 19.20 LIG 0.02  C 
ATOM     16  CB  PRO B 726      40.882  41.758  90.549  1.00 19.97 LIG 0.04  C 
ATOM     17 O    GLU B 725      39.373  39.024  87.807  1.00 19.41 LIG-0.27  OA
BRANCH 14 18
ATOM     18  C   PRO B 726      39.690  42.203  88.363  1.00 19.81 LIG 0.20  C 
ATOM     19 OXT  PRO B 726      38.775  41.921  87.568  1.00 20.16 LIG-0.65  OA
ATOM     20 O    PRO B 726      40.324  43.265  88.315  1.00 18.50 LIG-0.65  OA
ENDBRANCH 14 18
ENDBRANCH 5 11
ENDBRANCH 3 5
BRANCH 1 21
ATOM     21  CA  PHE B 724      39.643  36.271  84.822  1.00 20.36 LIG 0.18  C 
BRANCH 21 22
ATOM     22  N   PHE B 724      39.583  35.131  85.744  1.00 20.75 LIG-0.35  N 
ATOM     23  C   GLY B 723      38.797  35.134  86.816  1.00 21.06 LIG 0.25  C 
ATOM     24 O    GLY B 723      38.060  36.080  87.102  1.00 21.29 LIG-0.27  OA
ATOM     25 H    PHE B 724      40.095  34.475  85.529  1.00 20.75 LIG 0.16  HD
BRANCH 23 26
ATOM     26  CA  GLY B 723      38.844  33.891  87.692  1.00 21.22 LIG 0.47  C 
ATOM     27  N   GLY B 723      37.754  33.854  88.711  1.00 21.24 LIG 0.61  N 
ENDBRANCH 23 26
ENDBRANCH 21 22
BRANCH 21 28
ATOM     28  CB  PHE B 724      38.273  36.541  84.196  1.00 20.22 LIG 0.07  C 
BRANCH 28 29
ATOM     29  CG  PHE B 724      38.333  36.946  82.755  1.00 20.05 LIG-0.06  A 
ATOM     30  CD1 PHE B 724      38.603  38.259  82.402  1.00 20.54 LIG 0.01  A 
ATOM     31  CE1 PHE B 724      38.652  38.638  81.062  1.00 21.50 LIG 0.00  A 
ATOM     32  CZ  PHE B 724      38.420  37.693  80.064  1.00 21.54 LIG 0.00  A 
ATOM     33  CE2 PHE B 724      38.150  36.378  80.409  1.00 21.44 LIG 0.00  A 
ATOM     34  CD2 PHE B 724      38.106  36.011  81.751  1.00 20.20 LIG 0.01  A 
ENDBRANCH 28 29
ENDBRANCH 21 28
ENDBRANCH 1 21
TORSDOF 11
ENDMDL
MODEL 4
USER: ADFR SOLUTION from run 59
USER: SCORE 11.237020 LL:  -2.182 LR: -10.384 RR:   0.000 FEB:  -7.103
USER: RMSD 6.734869
USER: SEED 58
USER: STATUS no improvement in best in 4 clusters for 5 generations
USER: GENES 13
USER: genes 0 Translation |==|  0.44105 0.55129 0.48806
USER: genes 1 Rotation |==|  0.71583 0.59841 0.06399 0.56024
USER: genes 2 Torsion [C]-N--CA-[CB] |==|  0.48452
USER: genes 3 Torsion [N]-CA--CB-[CG] |==|  0.74118
USER: genes 4 Torsion [CA]-CB--CG-[CD] |==|  0.93004
USER: genes 5 Torsion [CB]-CG--CD-[OE1] |==|  0.72052
USER: genes 6 Torsion [N]-CA--C-[N] |==|  0.86618
USER: genes 7 Torsion [N]-CA--C-[OXT] |==|  0.61996
USER: genes 8 Torsion [N]-C--CA-[N] |==|  0.01488
USER: genes 9 Torsion [C]-CA--N-[C] |==|  0.70556
USER: genes 10 Torsion [N]-C--CA-[N] |==|  0.46839
USER: genes 11 Torsion [C]-CA--CB-[CG] |==|  0.24526
USER: genes 12 Torsion [CA]-CB--CG-[CD2] |==|  0.26428
ROOT
ATOM      1  C   PHE B 724      39.693  38.236  85.466  1.00 20.38 LIG 0.24  C 
ATOM      2 O    PHE B 724      40.121  38.980  84.586  1.00 19.94 LIG-0.27  OA
ATOM      3  N   GLU B 725      39.991  38.390  86.749  1.00 20.55 LIG-0.35  N 
ATOM      4 H    GLU B 725      39.640  37.927  87.383  1.00 20.55 LIG 0.16  HD
ENDROOT
BRANCH 3 5
ATOM      5  CA  GLU B 725      40.961  39.380  87.190  1.00 20.80 LIG 0.18  C 
BRANCH 5 6
ATOM      6  CB  GLU B 725      40.998  39.426  88.724  1.00 21.18 LIG 0.04  C 
BRANCH 6 7
ATOM      7  CG  GLU B 725      40.084  40.464  89.367  1.00 23.39 LIG 0.12  C 
BRANCH 7 8
ATOM      8  CD  GLU B 725      39.765  41.644  88.459  1.00 26.43 LIG 0.17  C 
ATOM      9 OE1  GLU B 725      40.379  42.726  88.611  1.00 27.49 LIG-0.65  OA
ATOM     10 OE2  GLU B 725      38.879  41.488  87.587  1.00 27.53 LIG-0.65  OA
ENDBRANCH 7 8
ENDBRANCH 6 7
ENDBRANCH 5 6
BRANCH 5 11
ATOM     11  C   GLU B 725      42.327  39.018  86.585  1.00 20.17 LIG 0.24  C 
ATOM     12  N   PRO B 726      42.740  37.752  86.693  1.00 19.83 LIG-0.34  N 
ATOM     13  CD  PRO B 726      42.076  36.633  87.390  1.00 19.46 LIG 0.13  C 
ATOM     14  CA  PRO B 726      43.976  37.322  86.046  1.00 19.64 LIG 0.19  C 
ATOM     15  CG  PRO B 726      43.023  35.476  87.216  1.00 19.20 LIG 0.02  C 
ATOM     16  CB  PRO B 726      44.329  36.033  86.790  1.00 19.97 LIG 0.04  C 
ATOM     17 O    GLU B 725      43.004  39.895  86.019  1.00 19.41 LIG-0.27  OA
BRANCH 14 18
ATOM     18  C   PRO B 726      43.641  37.058  84.583  1.00 19.81 LIG 0.20  C 
ATOM     19 OXT  PRO B 726      44.117  36.034  84.059  1.00 20.16 LIG-0.65  OA
ATOM     20 O    PRO B 726      42.955  37.880  83.961  1.00 18.50 LIG-0.65  OA
ENDBRANCH 14 18
ENDBRANCH 5 11
ENDBRANCH 3 5
BRANCH 1 21
ATOM     21  CA  PHE B 724      38.770  37.062  85.135  1.00 20.36 LIG 0.18  C 
BRANCH 21 22
ATOM     22  N   PHE B 724      38.283  36.392  86.346  1.00 20.75 LIG-0.35  N 
ATOM     23  C   GLY B 723      38.744  35.206  86.727  1.00 21.06 LIG 0.25  C 
ATOM     24 O    GLY B 723      39.614  34.594  86.103  1.00 21.29 LIG-0.27  OA
ATOM     25 H    PHE B 724      37.683  36.833  86.776  1.00 20.75 LIG 0.16  HD
BRANCH 23 26
ATOM     26  CA  GLY B 723      38.142  34.622  87.996  1.00 21.22 LIG 0.47  C 
ATOM     27  N   GLY B 723      38.504  33.190  88.209  1.00 21.24 LIG 0.61  N 
ENDBRANCH 23 26
ENDBRANCH 21 22
BRANCH 21 28
ATOM     28  CB  PHE B 724      37.603  37.526  84.259  1.00 20.22 LIG 0.07  C 
BRANCH 28 29
ATOM     29  CG  PHE B 724      37.893  37.484  82.790  1.00 20.05 LIG-0.06  A 
ATOM     30  CD1 PHE B 724      38.522  38.549  82.164  1.00 20.54 LIG 0.01  A 
ATOM     31  CE1 PHE B 724      38.786  38.514  80.797  1.00 21.50 LIG 0.00  A 
ATOM     32  CZ  PHE B 724      38.407  37.403  80.044  1.00 21.54 LIG 0.00  A 
ATOM     33  CE2 PHE B 724      37.778  36.334  80.663  1.00 21.44 LIG 0.00  A 
ATOM     34  CD2 PHE B 724      37.522  36.380  82.030  1.00 20.20 LIG 0.01  A 
ENDBRANCH 28 29
ENDBRANCH 21 28
ENDBRANCH 1 21
TORSDOF 11
ENDMDL
MODEL 5
USER: ADFR SOLUTION from run 47
USER: SCORE 11.090842 LL:  -1.934 LR: -10.369 RR:   0.000 FEB:  -7.088
USER: RMSD 6.560921
USER: SEED 46
USER: STATUS no improvement in best in 15 clusters for 5 generations
USER: GENES 13
USER: genes 0 Translation |==|  0.34406 0.49680 0.52042
USER: genes 1 Rotation |==|  0.59696 0.26201 0.88771 0.68341
USER: genes 2 Torsion [C]-N--CA-[CB] |==|  0.51342
USER: genes 3 Torsion [N]-CA--CB-[CG] |==|  0.63901
USER: genes 4 Torsion [CA]-CB--CG-[CD] |==|  0.86552
USER: genes 5 Torsion [CB]-CG--CD-[OE1] |==|  0.38007
USER: genes 6 Torsion [N]-CA--C-[N] |==|  0.81463
USER: genes 7 Torsion [N]-CA--C-[OXT] |==|  0.74846
USER: genes 8 Torsion [N]-C--CA-[N] |==|  0.09505
USER: genes 9 Torsion [C]-CA--N-[C] |==|  0.15780
USER: genes 10 Torsion [N]-C--CA-[N] |==|  0.13782
USER: genes 11 Torsion [C]-CA--CB-[CG] |==|  0.23735
USER: genes 12 Torsion [CA]-CB--CG-[CD2] |==|  0.88005
ROOT
ATOM      1  C   PHE B 724      37.947  37.459  86.073  1.00 20.38 LIG 0.24  C 
ATOM      2 O    PHE B 724      37.947  38.686  85.991  1.00 19.94 LIG-0.27  OA
ATOM      3  N   GLU B 725      38.970  36.711  85.684  1.00 20.55 LIG-0.35  N 
ATOM      4 H    GLU B 725      39.017  35.861  85.805  1.00 20.55 LIG 0.16  HD
ENDROOT
BRANCH 3 5
ATOM      5  CA  GLU B 725      40.119  37.288  85.005  1.00 20.80 LIG 0.18  C 
BRANCH 5 6
ATOM      6  CB  GLU B 725      41.082  36.174  84.571  1.00 21.18 LIG 0.04  C 
BRANCH 6 7
ATOM      7  CG  GLU B 725      42.541  36.385  84.962  1.00 23.39 LIG 0.12  C 
BRANCH 7 8
ATOM      8  CD  GLU B 725      43.072  37.770  84.620  1.00 26.43 LIG 0.17  C 
ATOM      9 OE1  GLU B 725      43.782  38.385  85.450  1.00 27.49 LIG-0.65  OA
ATOM     10 OE2  GLU B 725      42.766  38.255  83.505  1.00 27.53 LIG-0.65  OA
ENDBRANCH 7 8
ENDBRANCH 6 7
ENDBRANCH 5 6
BRANCH 5 11
ATOM     11  C   GLU B 725      39.609  38.114  83.813  1.00 20.17 LIG 0.24  C 
ATOM     12  N   PRO B 726      39.028  37.458  82.804  1.00 19.83 LIG-0.34  N 
ATOM     13  CD  PRO B 726      38.861  36.001  82.641  1.00 19.46 LIG 0.13  C 
ATOM     14  CA  PRO B 726      38.427  38.193  81.695  1.00 19.64 LIG 0.19  C 
ATOM     15  CG  PRO B 726      38.187  35.854  81.303  1.00 19.20 LIG 0.02  C 
ATOM     16  CB  PRO B 726      38.339  37.143  80.587  1.00 19.97 LIG 0.04  C 
ATOM     17 O    GLU B 725      39.745  39.351  83.814  1.00 19.41 LIG-0.27  OA
BRANCH 14 18
ATOM     18  C   PRO B 726      37.047  38.643  82.160  1.00 19.81 LIG 0.20  C 
ATOM     19 OXT  PRO B 726      36.088  37.880  81.940  1.00 20.16 LIG-0.65  OA
ATOM     20 O    PRO B 726      36.919  39.755  82.690  1.00 18.50 LIG-0.65  OA
ENDBRANCH 14 18
ENDBRANCH 5 11
ENDBRANCH 3 5
BRANCH 1 21
ATOM     21  CA  PHE B 724      36.746  36.701  86.641  1.00 20.36 LIG 0.18  C 
BRANCH 21 22
ATOM     22  N   PHE B 724      37.159  35.503  87.380  1.00 20.75 LIG-0.35  N 
ATOM     23  C   GLY B 723      38.002  35.565  88.406  1.00 21.06 LIG 0.25  C 
ATOM     24 O    GLY B 723      38.483  36.624  88.813  1.00 21.29 LIG-0.27  OA
ATOM     25 H    PHE B 724      36.810  34.772  87.092  1.00 20.75 LIG 0.16  HD
BRANCH 23 26
ATOM     26  CA  GLY B 723      38.352  34.243  89.073  1.00 21.22 LIG 0.47  C 
ATOM     27  N   GLY B 723      38.765  33.189  88.100  1.00 21.24 LIG 0.61  N 
ENDBRANCH 23 26
ENDBRANCH 21 22
BRANCH 21 28
ATOM     28  CB  PHE B 724      35.895  37.621  87.519  1.00 20.22 LIG 0.07  C 
BRANCH 28 29
ATOM     29  CG  PHE B 724      34.885  38.423  86.757  1.00 20.05 LIG-0.06  A 
ATOM     30  CD1 PHE B 724      33.589  38.557  87.228  1.00 20.54 LIG 0.01  A 
ATOM     31  CE1 PHE B 724      32.647  39.297  86.517  1.00 21.50 LIG 0.00  A 
ATOM     32  CZ  PHE B 724      33.005  39.903  85.313  1.00 21.54 LIG 0.00  A 
ATOM     33  CE2 PHE B 724      34.300  39.774  84.836  1.00 21.44 LIG 0.00  A 
ATOM     34  CD2 PHE B 724      35.232  39.034  85.557  1.00 20.20 LIG 0.01  A 
ENDBRANCH 28 29
ENDBRANCH 21 28
ENDBRANCH 1 21
TORSDOF 11
ENDMDL
MODEL 6
USER: ADFR SOLUTION from run 192
USER: SCORE 12.566508 LL:  -2.992 LR: -10.249 RR:   0.000 FEB:  -6.967
USER: RMSD 4.994367
USER: SEED 191
USER: STATUS no improvement in best in 4 clusters for 5 generations
USER: GENES 13
USER: genes 0 Translation |==|  0.42105 0.40589 0.56968
USER: genes 1 Rotation |==|  0.73118 0.15047 0.48071 0.77205
USER: genes 2 Torsion [C]-N--CA-[CB] |==|  0.21416
USER: genes 3 Torsion [N]-CA--CB-[CG] |==|  0.66906
USER: genes 4 Torsion [CA]-CB--CG-[CD] |==|  0.80514
USER: genes 5 Torsion [CB]-CG--CD-[OE1] |==|  0.43233
USER: genes 6 Torsion [N]-CA--C-[N] |==|  0.81825
USER: genes 7 Torsion [N]-CA--C-[OXT] |==|  0.18952
USER: genes 8 Torsion [N]-C--CA-[N] |==|  0.93205
USER: genes 9 Torsion [C]-CA--N-[C] |==|  0.82438
USER: genes 10 Torsion [N]-C--CA-[N] |==|  0.67630
USER: genes 11 Torsion [C]-CA--CB-[CG] |==|  0.24478
USER: genes 12 Torsion [CA]-CB--CG-[CD2] |==|  0.81633
ROOT
ATOM      1  C   PHE B 724      39.333  36.164  86.996  1.00 20.38 LIG 0.24  C 
ATOM      2 O    PHE B 724      40.409  36.213  87.590  1.00 19.94 LIG-0.27  OA
ATOM      3  N   GLU B 725      39.170  36.618  85.762  1.00 20.55 LIG-0.35  N 
ATOM      4 H    GLU B 725      38.448  36.522  85.305  1.00 20.55 LIG 0.16  HD
ENDROOT
BRANCH 3 5
ATOM      5  CA  GLU B 725      40.231  37.330  85.068  1.00 20.80 LIG 0.18  C 
BRANCH 5 6
ATOM      6  CB  GLU B 725      41.286  36.335  84.565  1.00 21.18 LIG 0.04  C 
BRANCH 6 7
ATOM      7  CG  GLU B 725      42.689  36.534  85.127  1.00 23.39 LIG 0.12  C 
BRANCH 7 8
ATOM      8  CD  GLU B 725      43.383  37.787  84.611  1.00 26.43 LIG 0.17  C 
ATOM      9 OE1  GLU B 725      44.294  38.316  85.291  1.00 27.49 LIG-0.65  OA
ATOM     10 OE2  GLU B 725      43.004  38.255  83.512  1.00 27.53 LIG-0.65  OA
ENDBRANCH 7 8
ENDBRANCH 6 7
ENDBRANCH 5 6
BRANCH 5 11
ATOM     11  C   GLU B 725      39.598  38.137  83.921  1.00 20.17 LIG 0.24  C 
ATOM     12  N   PRO B 726      39.028  37.456  82.922  1.00 19.83 LIG-0.34  N 
ATOM     13  CD  PRO B 726      38.977  35.995  82.728  1.00 19.46 LIG 0.13  C 
ATOM     14  CA  PRO B 726      38.318  38.163  81.861  1.00 19.64 LIG 0.19  C 
ATOM     15  CG  PRO B 726      38.257  35.821  81.417  1.00 19.20 LIG 0.02  C 
ATOM     16  CB  PRO B 726      38.267  37.134  80.730  1.00 19.97 LIG 0.04  C 
ATOM     17 O    GLU B 725      39.630  39.380  83.949  1.00 19.41 LIG-0.27  OA
BRANCH 14 18
ATOM     18  C   PRO B 726      36.927  38.483  82.398  1.00 19.81 LIG 0.20  C 
ATOM     19 OXT  PRO B 726      36.844  39.317  83.318  1.00 20.16 LIG-0.65  OA
ATOM     20 O    PRO B 726      35.947  37.880  81.940  1.00 18.50 LIG-0.65  OA
ENDBRANCH 14 18
ENDBRANCH 5 11
ENDBRANCH 3 5
BRANCH 1 21
ATOM     21  CA  PHE B 724      38.089  35.564  87.654  1.00 20.36 LIG 0.18  C 
BRANCH 21 22
ATOM     22  N   PHE B 724      36.853  36.095  87.068  1.00 20.75 LIG-0.35  N 
ATOM     23  C   GLY B 723      36.533  37.382  87.147  1.00 21.06 LIG 0.25  C 
ATOM     24 O    GLY B 723      37.250  38.217  87.702  1.00 21.29 LIG-0.27  OA
ATOM     25 H    PHE B 724      36.366  35.505  86.676  1.00 20.75 LIG 0.16  HD
BRANCH 23 26
ATOM     26  CA  GLY B 723      35.216  37.793  86.505  1.00 21.22 LIG 0.47  C 
ATOM     27  N   GLY B 723      35.392  38.742  85.367  1.00 21.24 LIG 0.61  N 
ENDBRANCH 23 26
ENDBRANCH 21 22
BRANCH 21 28
ATOM     28  CB  PHE B 724      38.121  34.036  87.574  1.00 20.22 LIG 0.07  C 
BRANCH 28 29
ATOM     29  CG  PHE B 724      38.830  33.383  88.720  1.00 20.05 LIG-0.06  A 
ATOM     30  CD1 PHE B 724      38.133  32.605  89.630  1.00 20.54 LIG 0.01  A 
ATOM     31  CE1 PHE B 724      38.791  32.003  90.701  1.00 21.50 LIG 0.00  A 
ATOM     32  CZ  PHE B 724      40.162  32.191  90.868  1.00 21.54 LIG 0.00  A 
ATOM     33  CE2 PHE B 724      40.867  32.968  89.961  1.00 21.44 LIG 0.00  A 
ATOM     34  CD2 PHE B 724      40.198  33.562  88.895  1.00 20.20 LIG 0.01  A 
ENDBRANCH 28 29
ENDBRANCH 21 28
ENDBRANCH 1 21
TORSDOF 11
ENDMDL
MODEL 7
USER: ADFR SOLUTION from run 32
USER: SCORE 11.594884 LL:  -1.925 LR: -10.200 RR:   0.000 FEB:  -6.918
USER: RMSD 8.217374
USER: SEED 31
USER: STATUS no improvement in best in 11 clusters for 5 generations
USER: GENES 13
USER: genes 0 Translation |==|  0.31473 0.59078 0.39473
USER: genes 1 Rotation |==|  0.42070 0.34057 0.87048 0.78467
USER: genes 2 Torsion [C]-N--CA-[CB] |==|  0.83508
USER: genes 3 Torsion [N]-CA--CB-[CG] |==|  0.85098
USER: genes 4 Torsion [CA]-CB--CG-[CD] |==|  0.27937
USER: genes 5 Torsion [CB]-CG--CD-[OE1] |==|  0.24266
USER: genes 6 Torsion [N]-CA--C-[N] |==|  0.30140
USER: genes 7 Torsion [N]-CA--C-[OXT] |==|  0.58802
USER: genes 8 Torsion [N]-C--CA-[N] |==|  0.10000
USER: genes 9 Torsion [C]-CA--N-[C] |==|  0.16401
USER: genes 10 Torsion [N]-C--CA-[N] |==|  0.40042
USER: genes 11 Torsion [C]-CA--CB-[CG] |==|  0.42292
USER: genes 12 Torsion [CA]-CB--CG-[CD2] |==|  0.59768
ROOT
ATOM      1  C   PHE B 724      37.419  38.799  83.716  1.00 20.38 LIG 0.24  C 
ATOM      2 O    PHE B 724      38.179  39.564  83.125  1.00 19.94 LIG-0.27  OA
ATOM      3  N   GLU B 725      37.775  37.579  84.095  1.00 20.55 LIG-0.35  N 
ATOM      4 H    GLU B 725      37.284  37.062  84.575  1.00 20.55 LIG 0.16  HD
ENDROOT
BRANCH 3 5
ATOM      5  CA  GLU B 725      39.059  37.010  83.717  1.00 20.80 LIG 0.18  C 
BRANCH 5 6
ATOM      6  CB  GLU B 725      39.174  36.954  82.187  1.00 21.18 LIG 0.04  C 
BRANCH 6 7
ATOM      7  CG  GLU B 725      38.029  36.243  81.473  1.00 23.39 LIG 0.12  C 
BRANCH 7 8
ATOM      8  CD  GLU B 725      37.004  37.192  80.867  1.00 26.43 LIG 0.17  C 
ATOM      9 OE1  GLU B 725      37.180  37.637  79.708  1.00 27.49 LIG-0.65  OA
ATOM     10 OE2  GLU B 725      36.011  37.505  81.565  1.00 27.53 LIG-0.65  OA
ENDBRANCH 7 8
ENDBRANCH 6 7
ENDBRANCH 5 6
BRANCH 5 11
ATOM     11  C   GLU B 725      40.169  37.863  84.354  1.00 20.17 LIG 0.24  C 
ATOM     12  N   PRO B 726      40.857  37.332  85.369  1.00 19.83 LIG-0.34  N 
ATOM     13  CD  PRO B 726      40.650  36.027  86.026  1.00 19.46 LIG 0.13  C 
ATOM     14  CA  PRO B 726      41.992  38.048  85.944  1.00 19.64 LIG 0.19  C 
ATOM     15  CG  PRO B 726      41.681  35.999  87.123  1.00 19.20 LIG 0.02  C 
ATOM     16  CB  PRO B 726      42.163  37.387  87.312  1.00 19.97 LIG 0.04  C 
ATOM     17 O    GLU B 725      40.398  39.005  83.917  1.00 19.41 LIG-0.27  OA
BRANCH 14 18
ATOM     18  C   PRO B 726      43.187  37.784  85.034  1.00 19.81 LIG 0.20  C 
ATOM     19 OXT  PRO B 726      44.314  37.747  85.561  1.00 20.16 LIG-0.65  OA
ATOM     20 O    PRO B 726      43.005  37.665  83.815  1.00 18.50 LIG-0.65  OA
ENDBRANCH 14 18
ENDBRANCH 5 11
ENDBRANCH 3 5
BRANCH 1 21
ATOM     21  CA  PHE B 724      35.987  39.210  84.061  1.00 20.36 LIG 0.18  C 
BRANCH 21 22
ATOM     22  N   PHE B 724      35.560  38.667  85.355  1.00 20.75 LIG-0.35  N 
ATOM     23  C   GLY B 723      36.207  38.943  86.482  1.00 21.06 LIG 0.25  C 
ATOM     24 O    GLY B 723      37.195  39.680  86.523  1.00 21.29 LIG-0.27  OA
ATOM     25 H    PHE B 724      34.866  38.162  85.315  1.00 20.75 LIG 0.16  HD
BRANCH 23 26
ATOM     26  CA  GLY B 723      35.663  38.302  87.750  1.00 21.22 LIG 0.47  C 
ATOM     27  N   GLY B 723      36.734  37.910  88.713  1.00 21.24 LIG 0.61  N 
ENDBRANCH 23 26
ENDBRANCH 21 22
BRANCH 21 28
ATOM     28  CB  PHE B 724      35.843  40.734  84.033  1.00 20.22 LIG 0.07  C 
BRANCH 28 29
ATOM     29  CG  PHE B 724      34.460  41.207  83.705  1.00 20.05 LIG-0.06  A 
ATOM     30  CD1 PHE B 724      33.351  40.494  84.131  1.00 20.54 LIG 0.01  A 
ATOM     31  CE1 PHE B 724      32.064  40.928  83.820  1.00 21.50 LIG 0.00  A 
ATOM     32  CZ  PHE B 724      31.886  42.087  83.065  1.00 21.54 LIG 0.00  A 
ATOM     33  CE2 PHE B 724      32.990  42.806  82.635  1.00 21.44 LIG 0.00  A 
ATOM     34  CD2 PHE B 724      34.271  42.362  82.954  1.00 20.20 LIG 0.01  A 
ENDBRANCH 28 29
ENDBRANCH 21 28
ENDBRANCH 1 21
TORSDOF 11
ENDMDL
MODEL 8
USER: ADFR SOLUTION from run 171
USER: SCORE 10.172229 LL:  -2.608 LR: -10.180 RR:   0.000 FEB:  -6.898
USER: RMSD 6.958240
USER: SEED 170
USER: STATUS no improvement in best in 32 clusters for 5 generations
USER: GENES 13
USER: genes 0 Translation |==|  0.36494 0.35621 0.51327
USER: genes 1 Rotation |==|  0.61038 0.13996 0.28341 0.74754
USER: genes 2 Torsion [C]-N--CA-[CB] |==|  0.36820
USER: genes 3 Torsion [N]-CA--CB-[CG] |==|  0.15955
USER: genes 4 Torsion [CA]-CB--CG-[CD] |==|  0.63513
USER: genes 5 Torsion [CB]-CG--CD-[OE1] |==|  0.37793
USER: genes 6 Torsion [N]-CA--C-[N] |==|  0.21603
USER: genes 7 Torsion [N]-CA--C-[OXT] |==|  0.58489
USER: genes 8 Torsion [N]-C--CA-[N] |==|  0.50339
USER: genes 9 Torsion [C]-CA--N-[C] |==|  0.17780
USER: genes 10 Torsion [N]-C--CA-[N] |==|  0.18083
USER: genes 11 Torsion [C]-CA--CB-[CG] |==|  0.22870
USER: genes 12 Torsion [CA]-CB--CG-[CD2] |==|  0.71342
ROOT
ATOM      1  C   PHE B 724      38.323  35.456  85.939  1.00 20.38 LIG 0.24  C 
ATOM      2 O    PHE B 724      39.130  34.536  86.061  1.00 19.94 LIG-0.27  OA
ATOM      3  N   GLU B 725      38.400  36.359  84.971  1.00 20.55 LIG-0.35  N 
ATOM      4 H    GLU B 725      37.803  36.960  84.825  1.00 20.55 LIG 0.16  HD
ENDROOT
BRANCH 3 5
ATOM      5  CA  GLU B 725      39.532  36.399  84.058  1.00 20.80 LIG 0.18  C 
BRANCH 5 6
ATOM      6  CB  GLU B 725      39.031  36.514  82.611  1.00 21.18 LIG 0.04  C 
BRANCH 6 7
ATOM      7  CG  GLU B 725      38.143  37.719  82.323  1.00 23.39 LIG 0.12  C 
BRANCH 7 8
ATOM      8  CD  GLU B 725      36.861  37.370  81.578  1.00 26.43 LIG 0.17  C 
ATOM      9 OE1  GLU B 725      35.775  37.880  81.940  1.00 27.49 LIG-0.65  OA
ATOM     10 OE2  GLU B 725      36.942  36.566  80.620  1.00 27.53 LIG-0.65  OA
ENDBRANCH 7 8
ENDBRANCH 6 7
ENDBRANCH 5 6
BRANCH 5 11
ATOM     11  C   GLU B 725      40.431  37.581  84.459  1.00 20.17 LIG 0.24  C 
ATOM     12  N   PRO B 726      41.233  37.423  85.515  1.00 19.83 LIG-0.34  N 
ATOM     13  CD  PRO B 726      41.332  36.259  86.418  1.00 19.46 LIG 0.13  C 
ATOM     14  CA  PRO B 726      42.186  38.467  85.880  1.00 19.64 LIG 0.19  C 
ATOM     15  CG  PRO B 726      42.357  36.672  87.440  1.00 19.20 LIG 0.02  C 
ATOM     16  CB  PRO B 726      42.518  38.141  87.337  1.00 19.97 LIG 0.04  C 
ATOM     17 O    GLU B 725      40.392  38.637  83.802  1.00 19.41 LIG-0.27  OA
BRANCH 14 18
ATOM     18  C   PRO B 726      43.397  38.296  84.971  1.00 19.81 LIG 0.20  C 
ATOM     19 OXT  PRO B 726      44.508  38.629  85.423  1.00 20.16 LIG-0.65  OA
ATOM     20 O    PRO B 726      43.234  37.882  83.815  1.00 18.50 LIG-0.65  OA
ENDBRANCH 14 18
ENDBRANCH 5 11
ENDBRANCH 3 5
BRANCH 1 21
ATOM     21  CA  PHE B 724      37.154  35.622  86.911  1.00 20.36 LIG 0.18  C 
BRANCH 21 22
ATOM     22  N   PHE B 724      37.167  34.598  87.961  1.00 20.75 LIG-0.35  N 
ATOM     23  C   GLY B 723      38.152  34.514  88.849  1.00 21.06 LIG 0.25  C 
ATOM     24 O    GLY B 723      39.109  35.291  88.863  1.00 21.29 LIG-0.27  OA
ATOM     25 H    PHE B 724      36.491  34.067  87.946  1.00 20.75 LIG 0.16  HD
BRANCH 23 26
ATOM     26  CA  GLY B 723      38.045  33.395  89.874  1.00 21.22 LIG 0.47  C 
ATOM     27  N   GLY B 723      38.129  32.035  89.265  1.00 21.24 LIG 0.61  N 
ENDBRANCH 23 26
ENDBRANCH 21 22
BRANCH 21 28
ATOM     28  CB  PHE B 724      37.154  37.028  87.518  1.00 20.22 LIG 0.07  C 
BRANCH 28 29
ATOM     29  CG  PHE B 724      36.519  38.066  86.643  1.00 20.05 LIG-0.06  A 
ATOM     30  CD1 PHE B 724      35.141  38.143  86.526  1.00 20.54 LIG 0.01  A 
ATOM     31  CE1 PHE B 724      34.550  39.103  85.708  1.00 21.50 LIG 0.00  A 
ATOM     32  CZ  PHE B 724      35.349  39.991  84.990  1.00 21.54 LIG 0.00  A 
ATOM     33  CE2 PHE B 724      36.729  39.921  85.102  1.00 21.44 LIG 0.00  A 
ATOM     34  CD2 PHE B 724      37.307  38.958  85.925  1.00 20.20 LIG 0.01  A 
ENDBRANCH 28 29
ENDBRANCH 21 28
ENDBRANCH 1 21
TORSDOF 11
ENDMDL
MODEL 9
USER: ADFR SOLUTION from run 171
USER: SCORE 11.191953 LL:  -2.467 LR: -10.160 RR:   0.000 FEB:  -6.879
USER: RMSD 3.807649
USER: SEED 170
USER: STATUS no improvement in best in 32 clusters for 5 generations
USER: GENES 13
USER: genes 0 Translation |==|  0.56723 0.50265 0.43988
USER: genes 1 Rotation |==|  0.74983 0.44722 0.46653 0.92858
USER: genes 2 Torsion [C]-N--CA-[CB] |==|  0.35564
USER: genes 3 Torsion [N]-CA--CB-[CG] |==|  0.50638
USER: genes 4 Torsion [CA]-CB--CG-[CD] |==|  0.65294
USER: genes 5 Torsion [CB]-CG--CD-[OE1] |==|  0.70884
USER: genes 6 Torsion [N]-CA--C-[N] |==|  0.84952
USER: genes 7 Torsion [N]-CA--C-[OXT] |==|  0.86137
USER: genes 8 Torsion [N]-C--CA-[N] |==|  0.00633
USER: genes 9 Torsion [C]-CA--N-[C] |==|  0.73055
USER: genes 10 Torsion [N]-C--CA-[N] |==|  0.22167
USER: genes 11 Torsion [C]-CA--CB-[CG] |==|  0.47113
USER: genes 12 Torsion [CA]-CB--CG-[CD2] |==|  0.85869
ROOT
ATOM      1  C   PHE B 724      41.964  37.543  84.563  1.00 20.38 LIG 0.24  C 
ATOM      2 O    PHE B 724      42.644  38.250  83.821  1.00 19.94 LIG-0.27  OA
ATOM      3  N   GLU B 725      40.682  37.288  84.340  1.00 20.55 LIG-0.35  N 
ATOM      4 H    GLU B 725      40.214  36.736  84.804  1.00 20.55 LIG 0.16  HD
ENDROOT
BRANCH 3 5
ATOM      5  CA  GLU B 725      39.953  37.941  83.265  1.00 20.80 LIG 0.18  C 
BRANCH 5 6
ATOM      6  CB  GLU B 725      39.246  36.888  82.399  1.00 21.18 LIG 0.04  C 
BRANCH 6 7
ATOM      7  CG  GLU B 725      38.486  37.437  81.197  1.00 23.39 LIG 0.12  C 
BRANCH 7 8
ATOM      8  CD  GLU B 725      37.022  37.019  81.156  1.00 26.43 LIG 0.17  C 
ATOM      9 OE1  GLU B 725      36.652  36.135  80.348  1.00 27.49 LIG-0.65  OA
ATOM     10 OE2  GLU B 725      36.228  37.591  81.940  1.00 27.53 LIG-0.65  OA
ENDBRANCH 7 8
ENDBRANCH 6 7
ENDBRANCH 5 6
BRANCH 5 11
ATOM     11  C   GLU B 725      38.965  38.939  83.891  1.00 20.17 LIG 0.24  C 
ATOM     12  N   PRO B 726      38.115  38.478  84.813  1.00 19.83 LIG-0.34  N 
ATOM     13  CD  PRO B 726      37.944  37.089  85.281  1.00 19.46 LIG 0.13  C 
ATOM     14  CA  PRO B 726      37.226  39.395  85.521  1.00 19.64 LIG 0.19  C 
ATOM     15  CG  PRO B 726      36.819  37.171  86.278  1.00 19.20 LIG 0.02  C 
ATOM     16  CB  PRO B 726      36.139  38.471  86.071  1.00 19.97 LIG 0.04  C 
ATOM     17 O    GLU B 725      38.979  40.130  83.533  1.00 19.41 LIG-0.27  OA
BRANCH 14 18
ATOM     18  C   PRO B 726      38.047  40.031  86.637  1.00 19.81 LIG 0.20  C 
ATOM     19 OXT  PRO B 726      38.698  39.271  87.378  1.00 20.16 LIG-0.65  OA
ATOM     20 O    PRO B 726      38.004  41.258  86.797  1.00 18.50 LIG-0.65  OA
ENDBRANCH 14 18
ENDBRANCH 5 11
ENDBRANCH 3 5
BRANCH 1 21
ATOM     21  CA  PHE B 724      42.563  36.897  85.814  1.00 20.36 LIG 0.18  C 
BRANCH 21 22
ATOM     22  N   PHE B 724      41.586  36.055  86.513  1.00 20.75 LIG-0.35  N 
ATOM     23  C   GLY B 723      40.890  36.502  87.553  1.00 21.06 LIG 0.25  C 
ATOM     24 O    GLY B 723      41.004  37.649  87.992  1.00 21.29 LIG-0.27  OA
ATOM     25 H    PHE B 724      41.509  35.262  86.193  1.00 20.75 LIG 0.16  HD
BRANCH 23 26
ATOM     26  CA  GLY B 723      39.920  35.518  88.191  1.00 21.22 LIG 0.47  C 
ATOM     27  N   GLY B 723      40.591  34.550  89.109  1.00 21.24 LIG 0.61  N 
ENDBRANCH 23 26
ENDBRANCH 21 22
BRANCH 21 28
ATOM     28  CB  PHE B 724      43.819  36.098  85.458  1.00 20.22 LIG 0.07  C 
BRANCH 28 29
ATOM     29  CG  PHE B 724      44.603  35.639  86.649  1.00 20.05 LIG-0.06  A 
ATOM     30  CD1 PHE B 724      44.969  34.309  86.783  1.00 20.54 LIG 0.01  A 
ATOM     31  CE1 PHE B 724      45.692  33.880  87.894  1.00 21.50 LIG 0.00  A 
ATOM     32  CZ  PHE B 724      46.045  34.792  88.888  1.00 21.54 LIG 0.00  A 
ATOM     33  CE2 PHE B 724      45.683  36.124  88.761  1.00 21.44 LIG 0.00  A 
ATOM     34  CD2 PHE B 724      44.963  36.540  87.645  1.00 20.20 LIG 0.01  A 
ENDBRANCH 28 29
ENDBRANCH 21 28
ENDBRANCH 1 21
TORSDOF 11
ENDMDL
MODEL 10
USER: ADFR SOLUTION from run 17
USER: SCORE 11.634613 LL:  -2.491 LR: -10.140 RR:   0.000 FEB:  -6.859
USER: RMSD 5.662660
USER: SEED 16
USER: STATUS no improvement in best in 4 clusters for 5 generations
USER: GENES 13
USER: genes 0 Translation |==|  0.42115 0.38844 0.54763
USER: genes 1 Rotation |==|  0.78858 0.16000 0.52758 0.72442
USER: genes 2 Torsion [C]-N--CA-[CB] |==|  0.22343
USER: genes 3 Torsion [N]-CA--CB-[CG] |==|  0.55734
USER: genes 4 Torsion [CA]-CB--CG-[CD] |==|  0.15186
USER: genes 5 Torsion [CB]-CG--CD-[OE1] |==|  0.30561
USER: genes 6 Torsion [N]-CA--C-[N] |==|  0.87127
USER: genes 7 Torsion [N]-CA--C-[OXT] |==|  0.21258
USER: genes 8 Torsion [N]-C--CA-[N] |==|  0.48889
USER: genes 9 Torsion [C]-CA--N-[C] |==|  0.66653
USER: genes 10 Torsion [N]-C--CA-[N] |==|  0.41822
USER: genes 11 Torsion [C]-CA--CB-[CG] |==|  0.93871
USER: genes 12 Torsion [CA]-CB--CG-[CD2] |==|  0.81391
ROOT
ATOM      1  C   PHE B 724      39.335  35.915  86.583  1.00 20.38 LIG 0.24  C 
ATOM      2 O    PHE B 724      40.219  36.176  87.397  1.00 19.94 LIG-0.27  OA
ATOM      3  N   GLU B 725      39.294  36.445  85.368  1.00 20.55 LIG-0.35  N 
ATOM      4 H    GLU B 725      38.729  36.216  84.762  1.00 20.55 LIG 0.16  HD
ENDROOT
BRANCH 3 5
ATOM      5  CA  GLU B 725      40.229  37.481  84.959  1.00 20.80 LIG 0.18  C 
BRANCH 5 6
ATOM      6  CB  GLU B 725      41.570  36.846  84.564  1.00 21.18 LIG 0.04  C 
BRANCH 6 7
ATOM      7  CG  GLU B 725      42.769  37.788  84.589  1.00 23.39 LIG 0.12  C 
BRANCH 7 8
ATOM      8  CD  GLU B 725      42.962  38.497  85.923  1.00 26.43 LIG 0.17  C 
ATOM      9 OE1  GLU B 725      43.936  38.194  86.651  1.00 27.49 LIG-0.65  OA
ATOM     10 OE2  GLU B 725      42.120  39.365  86.252  1.00 27.53 LIG-0.65  OA
ENDBRANCH 7 8
ENDBRANCH 6 7
ENDBRANCH 5 6
BRANCH 5 11
ATOM     11  C   GLU B 725      39.595  38.271  83.802  1.00 20.17 LIG 0.24  C 
ATOM     12  N   PRO B 726      39.028  37.577  82.812  1.00 19.83 LIG-0.34  N 
ATOM     13  CD  PRO B 726      38.981  36.112  82.636  1.00 19.46 LIG 0.13  C 
ATOM     14  CA  PRO B 726      38.316  38.268  81.741  1.00 19.64 LIG 0.19  C 
ATOM     15  CG  PRO B 726      38.262  35.920  81.327  1.00 19.20 LIG 0.02  C 
ATOM     16  CB  PRO B 726      38.269  37.225  80.623  1.00 19.97 LIG 0.04  C 
ATOM     17 O    GLU B 725      39.624  39.515  83.815  1.00 19.41 LIG-0.27  OA
BRANCH 14 18
ATOM     18  C   PRO B 726      36.925  38.591  82.273  1.00 19.81 LIG 0.20  C 
ATOM     19 OXT  PRO B 726      36.819  39.545  83.067  1.00 20.16 LIG-0.65  OA
ATOM     20 O    PRO B 726      35.968  37.879  81.940  1.00 18.50 LIG-0.65  OA
ENDBRANCH 14 18
ENDBRANCH 5 11
ENDBRANCH 3 5
BRANCH 1 21
ATOM     21  CA  PHE B 724      38.203  34.944  86.923  1.00 20.36 LIG 0.18  C 
BRANCH 21 22
ATOM     22  N   PHE B 724      38.383  34.340  88.247  1.00 20.75 LIG-0.35  N 
ATOM     23  C   GLY B 723      38.497  33.026  88.411  1.00 21.06 LIG 0.25  C 
ATOM     24 O    GLY B 723      38.474  32.230  87.471  1.00 21.29 LIG-0.27  OA
ATOM     25 H    PHE B 724      38.406  34.906  88.894  1.00 20.75 LIG 0.16  HD
BRANCH 23 26
ATOM     26  CA  GLY B 723      38.667  32.535  89.842  1.00 21.22 LIG 0.47  C 
ATOM     27  N   GLY B 723      38.110  31.167  90.059  1.00 21.24 LIG 0.61  N 
ENDBRANCH 23 26
ENDBRANCH 21 22
BRANCH 21 28
ATOM     28  CB  PHE B 724      36.845  35.643  86.820  1.00 20.22 LIG 0.07  C 
BRANCH 28 29
ATOM     29  CG  PHE B 724      36.919  37.134  86.940  1.00 20.05 LIG-0.06  A 
ATOM     30  CD1 PHE B 724      36.630  37.945  85.855  1.00 20.54 LIG 0.01  A 
ATOM     31  CE1 PHE B 724      36.707  39.332  85.964  1.00 21.50 LIG 0.00  A 
ATOM     32  CZ  PHE B 724      37.085  39.914  87.173  1.00 21.54 LIG 0.00  A 
ATOM     33  CE2 PHE B 724      37.376  39.110  88.263  1.00 21.44 LIG 0.00  A 
ATOM     34  CD2 PHE B 724      37.294  37.725  88.142  1.00 20.20 LIG 0.01  A 
ENDBRANCH 28 29
ENDBRANCH 21 28
ENDBRANCH 1 21
TORSDOF 11
ENDMDL
MODEL 11
USER: ADFR SOLUTION from run 31
USER: SCORE 10.592552 LL:  -1.895 LR: -10.000 RR:   0.000 FEB:  -6.719
USER: RMSD 6.625900
USER: SEED 30
USER: STATUS no improvement in best in 13 clusters for 5 generations
USER: GENES 13
USER: genes 0 Translation |==|  0.34561 0.54925 0.46277
USER: genes 1 Rotation |==|  0.88914 0.59479 0.37854 0.77355
USER: genes 2 Torsion [C]-N--CA-[CB] |==|  0.87222
USER: genes 3 Torsion [N]-CA--CB-[CG] |==|  0.31595
USER: genes 4 Torsion [CA]-CB--CG-[CD] |==|  0.59430
USER: genes 5 Torsion [CB]-CG--CD-[OE1] |==|  0.46956
USER: genes 6 Torsion [N]-CA--C-[N] |==|  0.43278
USER: genes 7 Torsion [N]-CA--C-[OXT] |==|  0.93028
USER: genes 8 Torsion [N]-C--CA-[N] |==|  0.81602
USER: genes 9 Torsion [C]-CA--N-[C] |==|  0.18672
USER: genes 10 Torsion [N]-C--CA-[N] |==|  0.67741
USER: genes 11 Torsion [C]-CA--CB-[CG] |==|  0.17247
USER: genes 12 Torsion [CA]-CB--CG-[CD2] |==|  0.05009
ROOT
ATOM      1  C   PHE B 724      37.975  38.207  84.992  1.00 20.38 LIG 0.24  C 
ATOM      2 O    PHE B 724      38.341  39.371  84.843  1.00 19.94 LIG-0.27  OA
ATOM      3  N   GLU B 725      36.736  37.878  85.329  1.00 20.55 LIG-0.35  N 
ATOM      4 H    GLU B 725      36.444  37.070  85.362  1.00 20.55 LIG 0.16  HD
ENDROOT
BRANCH 3 5
ATOM      5  CA  GLU B 725      35.749  38.889  85.677  1.00 20.80 LIG 0.18  C 
BRANCH 5 6
ATOM      6  CB  GLU B 725      36.366  39.908  86.646  1.00 21.18 LIG 0.04  C 
BRANCH 6 7
ATOM      7  CG  GLU B 725      36.522  41.320  86.093  1.00 23.39 LIG 0.12  C 
BRANCH 7 8
ATOM      8  CD  GLU B 725      37.754  42.049  86.615  1.00 26.43 LIG 0.17  C 
ATOM      9 OE1  GLU B 725      38.107  43.128  86.085  1.00 27.49 LIG-0.65  OA
ATOM     10 OE2  GLU B 725      38.383  41.526  87.565  1.00 27.53 LIG-0.65  OA
ENDBRANCH 7 8
ENDBRANCH 6 7
ENDBRANCH 5 6
BRANCH 5 11
ATOM     11  C   GLU B 725      35.255  39.546  84.377  1.00 20.17 LIG 0.24  C 
ATOM     12  N   PRO B 726      34.048  40.118  84.389  1.00 19.83 LIG-0.34  N 
ATOM     13  CD  PRO B 726      33.066  40.151  85.489  1.00 19.46 LIG 0.13  C 
ATOM     14  CA  PRO B 726      33.568  40.851  83.221  1.00 19.64 LIG 0.19  C 
ATOM     15  CG  PRO B 726      31.885  40.883  84.909  1.00 19.20 LIG 0.02  C 
ATOM     16  CB  PRO B 726      32.055  40.900  83.437  1.00 19.97 LIG 0.04  C 
ATOM     17 O    GLU B 725      35.978  39.532  83.365  1.00 19.41 LIG-0.27  OA
BRANCH 14 18
ATOM     18  C   PRO B 726      34.195  42.239  83.283  1.00 19.81 LIG 0.20  C 
ATOM     19 OXT  PRO B 726      34.532  42.669  84.402  1.00 20.16 LIG-0.65  OA
ATOM     20 O    PRO B 726      34.303  42.902  82.243  1.00 18.50 LIG-0.65  OA
ENDBRANCH 14 18
ENDBRANCH 5 11
ENDBRANCH 3 5
BRANCH 1 21
ATOM     21  CA  PHE B 724      38.942  37.038  84.794  1.00 20.36 LIG 0.18  C 
BRANCH 21 22
ATOM     22  N   PHE B 724      39.197  36.323  86.049  1.00 20.75 LIG-0.35  N 
ATOM     23  C   GLY B 723      38.250  35.624  86.666  1.00 21.06 LIG 0.25  C 
ATOM     24 O    GLY B 723      37.104  35.516  86.225  1.00 21.29 LIG-0.27  OA
ATOM     25 H    PHE B 724      40.002  36.399  86.342  1.00 20.75 LIG 0.16  HD
BRANCH 23 26
ATOM     26  CA  GLY B 723      38.651  34.943  87.966  1.00 21.22 LIG 0.47  C 
ATOM     27  N   GLY B 723      38.578  33.454  87.892  1.00 21.24 LIG 0.61  N 
ENDBRANCH 23 26
ENDBRANCH 21 22
BRANCH 21 28
ATOM     28  CB  PHE B 724      38.420  36.084  83.717  1.00 20.22 LIG 0.07  C 
BRANCH 28 29
ATOM     29  CG  PHE B 724      38.289  36.712  82.363  1.00 20.05 LIG-0.06  A 
ATOM     30  CD1 PHE B 724      37.513  36.116  81.382  1.00 20.54 LIG 0.01  A 
ATOM     31  CE1 PHE B 724      37.396  36.694  80.119  1.00 21.50 LIG 0.00  A 
ATOM     32  CZ  PHE B 724      38.072  37.880  79.834  1.00 21.54 LIG 0.00  A 
ATOM     33  CE2 PHE B 724      38.850  38.482  80.810  1.00 21.44 LIG 0.00  A 
ATOM     34  CD2 PHE B 724      38.957  37.895  82.068  1.00 20.20 LIG 0.01  A 
ENDBRANCH 28 29
ENDBRANCH 21 28
ENDBRANCH 1 21
TORSDOF 11
ENDMDL
MODEL 12
USER: ADFR SOLUTION from run 85
USER: SCORE 10.938859 LL:  -2.426 LR:  -9.910 RR:   0.000 FEB:  -6.628
USER: RMSD 4.635505
USER: SEED 84
USER: STATUS no improvement in best in 16 clusters for 5 generations
USER: GENES 13
USER: genes 0 Translation |==|  0.56451 0.45674 0.44785
USER: genes 1 Rotation |==|  0.79346 0.43365 0.47487 0.89856
USER: genes 2 Torsion [C]-N--CA-[CB] |==|  0.37863
USER: genes 3 Torsion [N]-CA--CB-[CG] |==|  0.28075
USER: genes 4 Torsion [CA]-CB--CG-[CD] |==|  0.29737
USER: genes 5 Torsion [CB]-CG--CD-[OE1] |==|  0.08093
USER: genes 6 Torsion [N]-CA--C-[N] |==|  0.87779
USER: genes 7 Torsion [N]-CA--C-[OXT] |==|  0.86475
USER: genes 8 Torsion [N]-C--CA-[N] |==|  0.45120
USER: genes 9 Torsion [C]-CA--N-[C] |==|  0.54661
USER: genes 10 Torsion [N]-C--CA-[N] |==|  0.61919
USER: genes 11 Torsion [C]-CA--CB-[CG] |==|  0.79871
USER: genes 12 Torsion [CA]-CB--CG-[CD2] |==|  0.68505
ROOT
ATOM      1  C   PHE B 724      41.915  36.889  84.712  1.00 20.38 LIG 0.24  C 
ATOM      2 O    PHE B 724      42.641  37.733  84.190  1.00 19.94 LIG-0.27  OA
ATOM      3  N   GLU B 725      40.663  36.680  84.331  1.00 20.55 LIG-0.35  N 
ATOM      4 H    GLU B 725      40.168  36.044  84.631  1.00 20.55 LIG 0.16  HD
ENDROOT
BRANCH 3 5
ATOM      5  CA  GLU B 725      40.015  37.535  83.348  1.00 20.80 LIG 0.18  C 
BRANCH 5 6
ATOM      6  CB  GLU B 725      39.233  36.675  82.345  1.00 21.18 LIG 0.04  C 
BRANCH 6 7
ATOM      7  CG  GLU B 725      37.728  36.606  82.580  1.00 23.39 LIG 0.12  C 
BRANCH 7 8
ATOM      8  CD  GLU B 725      36.913  37.401  81.569  1.00 26.43 LIG 0.17  C 
ATOM      9 OE1  GLU B 725      37.355  37.563  80.406  1.00 27.49 LIG-0.65  OA
ATOM     10 OE2  GLU B 725      35.819  37.880  81.947  1.00 27.53 LIG-0.65  OA
ENDBRANCH 7 8
ENDBRANCH 6 7
ENDBRANCH 5 6
BRANCH 5 11
ATOM     11  C   GLU B 725      39.109  38.526  84.097  1.00 20.17 LIG 0.24  C 
ATOM     12  N   PRO B 726      38.352  38.050  85.089  1.00 19.83 LIG-0.34  N 
ATOM     13  CD  PRO B 726      38.212  36.652  85.539  1.00 19.46 LIG 0.13  C 
ATOM     14  CA  PRO B 726      37.552  38.958  85.907  1.00 19.64 LIG 0.19  C 
ATOM     15  CG  PRO B 726      37.196  36.720  86.648  1.00 19.20 LIG 0.02  C 
ATOM     16  CB  PRO B 726      36.515  38.032  86.543  1.00 19.97 LIG 0.04  C 
ATOM     17 O    GLU B 725      39.102  39.726  83.768  1.00 19.41 LIG-0.27  OA
BRANCH 14 18
ATOM     18  C   PRO B 726      38.491  39.557  86.948  1.00 19.81 LIG 0.20  C 
ATOM     19 OXT  PRO B 726      39.221  38.774  87.583  1.00 20.16 LIG-0.65  OA
ATOM     20 O    PRO B 726      38.464  40.777  87.157  1.00 18.50 LIG-0.65  OA
ENDBRANCH 14 18
ENDBRANCH 5 11
ENDBRANCH 3 5
BRANCH 1 21
ATOM     21  CA  PHE B 724      42.418  36.005  85.856  1.00 20.36 LIG 0.18  C 
BRANCH 21 22
ATOM     22  N   PHE B 724      43.882  36.000  85.937  1.00 20.75 LIG-0.35  N 
ATOM     23  C   GLY B 723      44.546  35.073  86.619  1.00 21.06 LIG 0.25  C 
ATOM     24 O    GLY B 723      43.984  34.152  87.217  1.00 21.29 LIG-0.27  OA
ATOM     25 H    PHE B 724      44.263  36.642  85.509  1.00 20.75 LIG 0.16  HD
BRANCH 23 26
ATOM     26  CA  GLY B 723      46.062  35.196  86.629  1.00 21.22 LIG 0.47  C 
ATOM     27  N   GLY B 723      46.755  33.887  86.438  1.00 21.24 LIG 0.61  N 
ENDBRANCH 23 26
ENDBRANCH 21 22
BRANCH 21 28
ATOM     28  CB  PHE B 724      41.797  36.441  87.185  1.00 20.22 LIG 0.07  C 
BRANCH 28 29
ATOM     29  CG  PHE B 724      42.340  37.734  87.713  1.00 20.05 LIG-0.06  A 
ATOM     30  CD1 PHE B 724      42.117  38.922  87.036  1.00 20.54 LIG 0.01  A 
ATOM     31  CE1 PHE B 724      42.627  40.123  87.523  1.00 21.50 LIG 0.00  A 
ATOM     32  CZ  PHE B 724      43.379  40.134  88.697  1.00 21.54 LIG 0.00  A 
ATOM     33  CE2 PHE B 724      43.607  38.950  89.380  1.00 21.44 LIG 0.00  A 
ATOM     34  CD2 PHE B 724      43.089  37.756  88.885  1.00 20.20 LIG 0.01  A 
ENDBRANCH 28 29
ENDBRANCH 21 28
ENDBRANCH 1 21
TORSDOF 11
ENDMDL
MODEL 13
USER: ADFR SOLUTION from run 186
USER: SCORE 10.557151 LL:  -2.394 LR:  -9.853 RR:   0.000 FEB:  -6.572
USER: RMSD 7.099238
USER: SEED 185
USER: STATUS no improvement in best in 16 clusters for 5 generations
USER: GENES 13
USER: genes 0 Translation |==|  0.55741 0.54213 0.45590
USER: genes 1 Rotation |==|  0.80522 0.40174 0.11636 0.50202
USER: genes 2 Torsion [C]-N--CA-[CB] |==|  0.48893
USER: genes 3 Torsion [N]-CA--CB-[CG] |==|  0.04378
USER: genes 4 Torsion [CA]-CB--CG-[CD] |==|  0.66481
USER: genes 5 Torsion [CB]-CG--CD-[OE1] |==|  0.37617
USER: genes 6 Torsion [N]-CA--C-[N] |==|  0.86135
USER: genes 7 Torsion [N]-CA--C-[OXT] |==|  0.03471
USER: genes 8 Torsion [N]-C--CA-[N] |==|  0.88831
USER: genes 9 Torsion [C]-CA--N-[C] |==|  0.66111
USER: genes 10 Torsion [N]-C--CA-[N] |==|  0.56450
USER: genes 11 Torsion [C]-CA--CB-[CG] |==|  0.36913
USER: genes 12 Torsion [CA]-CB--CG-[CD2] |==|  0.58017
ROOT
ATOM      1  C   PHE B 724      41.787  38.105  84.863  1.00 20.38 LIG 0.24  C 
ATOM      2 O    PHE B 724      42.799  37.940  84.184  1.00 19.94 LIG-0.27  OA
ATOM      3  N   GLU B 725      41.773  38.835  85.970  1.00 20.55 LIG-0.35  N 
ATOM      4 H    GLU B 725      41.061  39.024  86.412  1.00 20.55 LIG 0.16  HD
ENDROOT
BRANCH 3 5
ATOM      5  CA  GLU B 725      42.996  39.386  86.532  1.00 20.80 LIG 0.18  C 
BRANCH 5 6
ATOM      6  CB  GLU B 725      42.662  40.263  87.748  1.00 21.18 LIG 0.04  C 
BRANCH 6 7
ATOM      7  CG  GLU B 725      41.262  40.075  88.321  1.00 23.39 LIG 0.12  C 
BRANCH 7 8
ATOM      8  CD  GLU B 725      40.424  41.346  88.317  1.00 26.43 LIG 0.17  C 
ATOM      9 OE1  GLU B 725      39.229  41.300  87.938  1.00 27.49 LIG-0.65  OA
ATOM     10 OE2  GLU B 725      40.972  42.410  88.690  1.00 27.53 LIG-0.65  OA
ENDBRANCH 7 8
ENDBRANCH 6 7
ENDBRANCH 5 6
BRANCH 5 11
ATOM     11  C   GLU B 725      43.928  38.218  86.895  1.00 20.17 LIG 0.24  C 
ATOM     12  N   PRO B 726      43.418  37.216  87.618  1.00 19.83 LIG-0.34  N 
ATOM     13  CD  PRO B 726      42.062  37.103  88.189  1.00 19.46 LIG 0.13  C 
ATOM     14  CA  PRO B 726      44.220  36.030  87.902  1.00 19.64 LIG 0.19  C 
ATOM     15  CG  PRO B 726      42.084  35.796  88.935  1.00 19.20 LIG 0.02  C 
ATOM     16  CB  PRO B 726      43.504  35.404  89.100  1.00 19.97 LIG 0.04  C 
ATOM     17 O    GLU B 725      45.112  38.231  86.514  1.00 19.41 LIG-0.27  OA
BRANCH 14 18
ATOM     18  C   PRO B 726      44.144  35.140  86.667  1.00 19.81 LIG 0.20  C 
ATOM     19 OXT  PRO B 726      43.674  35.636  85.628  1.00 20.16 LIG-0.65  OA
ATOM     20 O    PRO B 726      44.504  33.958  86.750  1.00 18.50 LIG-0.65  OA
ENDBRANCH 14 18
ENDBRANCH 5 11
ENDBRANCH 3 5
BRANCH 1 21
ATOM     21  CA  PHE B 724      40.453  37.470  84.469  1.00 20.36 LIG 0.18  C 
BRANCH 21 22
ATOM     22  N   PHE B 724      39.727  36.958  85.636  1.00 20.75 LIG-0.35  N 
ATOM     23  C   GLY B 723      39.369  35.682  85.737  1.00 21.06 LIG 0.25  C 
ATOM     24 O    GLY B 723      39.629  34.843  84.872  1.00 21.29 LIG-0.27  OA
ATOM     25 H    PHE B 724      39.559  37.550  86.236  1.00 20.75 LIG 0.16  HD
BRANCH 23 26
ATOM     26  CA  GLY B 723      38.610  35.291  86.997  1.00 21.22 LIG 0.47  C 
ATOM     27  N   GLY B 723      38.720  33.837  87.317  1.00 21.24 LIG 0.61  N 
ENDBRANCH 23 26
ENDBRANCH 21 22
BRANCH 21 28
ATOM     28  CB  PHE B 724      39.595  38.465  83.684  1.00 20.22 LIG 0.07  C 
BRANCH 28 29
ATOM     29  CG  PHE B 724      38.990  37.893  82.438  1.00 20.05 LIG-0.06  A 
ATOM     30  CD1 PHE B 724      38.709  36.539  82.347  1.00 20.54 LIG 0.01  A 
ATOM     31  CE1 PHE B 724      38.153  36.005  81.187  1.00 21.50 LIG 0.00  A 
ATOM     32  CZ  PHE B 724      37.885  36.835  80.100  1.00 21.54 LIG 0.00  A 
ATOM     33  CE2 PHE B 724      38.163  38.191  80.182  1.00 21.44 LIG 0.00  A 
ATOM     34  CD2 PHE B 724      38.715  38.712  81.348  1.00 20.20 LIG 0.01  A 
ENDBRANCH 28 29
ENDBRANCH 21 28
ENDBRANCH 1 21
TORSDOF 11
ENDMDL
MODEL 14
USER: ADFR SOLUTION from run 77
USER: SCORE 11.683276 LL:  -2.484 LR:  -9.855 RR:   0.000 FEB:  -6.573
USER: RMSD 4.910157
USER: SEED 76
USER: STATUS no improvement in best in 4 clusters for 5 generations
USER: GENES 13
USER: genes 0 Translation |==|  0.43784 0.40389 0.51928
USER: genes 1 Rotation |==|  0.50367 0.32699 0.20939 0.86824
USER: genes 2 Torsion [C]-N--CA-[CB] |==|  0.19447
USER: genes 3 Torsion [N]-CA--CB-[CG] |==|  0.54613
USER: genes 4 Torsion [CA]-CB--CG-[CD] |==|  0.75615
USER: genes 5 Torsion [CB]-CG--CD-[OE1] |==|  0.91042
USER: genes 6 Torsion [N]-CA--C-[N] |==|  0.83063
USER: genes 7 Torsion [N]-CA--C-[OXT] |==|  0.43658
USER: genes 8 Torsion [N]-C--CA-[N] |==|  0.39975
USER: genes 9 Torsion [C]-CA--N-[C] |==|  0.80120
USER: genes 10 Torsion [N]-C--CA-[N] |==|  0.31796
USER: genes 11 Torsion [C]-CA--CB-[CG] |==|  0.98130
USER: genes 12 Torsion [CA]-CB--CG-[CD2] |==|  0.25509
ROOT
ATOM      1  C   PHE B 724      39.635  36.135  86.051  1.00 20.38 LIG 0.24  C 
ATOM      2 O    PHE B 724      40.002  35.243  85.289  1.00 19.94 LIG-0.27  OA
ATOM      3  N   GLU B 725      39.030  37.238  85.632  1.00 20.55 LIG-0.35  N 
ATOM      4 H    GLU B 725      38.699  37.834  86.155  1.00 20.55 LIG 0.16  HD
ENDROOT
BRANCH 3 5
ATOM      5  CA  GLU B 725      38.876  37.528  84.215  1.00 20.80 LIG 0.18  C 
BRANCH 5 6
ATOM      6  CB  GLU B 725      37.864  36.557  83.591  1.00 21.18 LIG 0.04  C 
BRANCH 6 7
ATOM      7  CG  GLU B 725      37.893  36.476  82.068  1.00 23.39 LIG 0.12  C 
BRANCH 7 8
ATOM      8  CD  GLU B 725      37.004  37.506  81.384  1.00 26.43 LIG 0.17  C 
ATOM      9 OE1  GLU B 725      35.943  37.876  81.940  1.00 27.49 LIG-0.65  OA
ATOM     10 OE2  GLU B 725      37.369  37.944  80.268  1.00 27.53 LIG-0.65  OA
ENDBRANCH 7 8
ENDBRANCH 6 7
ENDBRANCH 5 6
BRANCH 5 11
ATOM     11  C   GLU B 725      38.440  38.996  84.070  1.00 20.17 LIG 0.24  C 
ATOM     12  N   PRO B 726      37.283  39.360  84.629  1.00 19.83 LIG-0.34  N 
ATOM     13  CD  PRO B 726      36.304  38.509  85.334  1.00 19.46 LIG 0.13  C 
ATOM     14  CA  PRO B 726      36.867  40.759  84.619  1.00 19.64 LIG 0.19  C 
ATOM     15  CG  PRO B 726      35.188  39.453  85.696  1.00 19.20 LIG 0.02  C 
ATOM     16  CB  PRO B 726      35.363  40.678  84.880  1.00 19.97 LIG 0.04  C 
ATOM     17 O    GLU B 725      39.161  39.795  83.447  1.00 19.41 LIG-0.27  OA
BRANCH 14 18
ATOM     18  C   PRO B 726      37.604  41.447  85.762  1.00 19.81 LIG 0.20  C 
ATOM     19 OXT  PRO B 726      37.754  42.681  85.690  1.00 20.16 LIG-0.65  OA
ATOM     20 O    PRO B 726      38.062  40.763  86.687  1.00 18.50 LIG-0.65  OA
ENDBRANCH 14 18
ENDBRANCH 5 11
ENDBRANCH 3 5
BRANCH 1 21
ATOM     21  CA  PHE B 724      39.855  36.032  87.562  1.00 20.36 LIG 0.18  C 
BRANCH 21 22
ATOM     22  N   PHE B 724      39.702  34.653  88.041  1.00 20.75 LIG-0.35  N 
ATOM     23  C   GLY B 723      38.517  34.057  88.102  1.00 21.06 LIG 0.25  C 
ATOM     24 O    GLY B 723      37.471  34.608  87.752  1.00 21.29 LIG-0.27  OA
ATOM     25 H    PHE B 724      40.439  34.277  88.274  1.00 20.75 LIG 0.16  HD
BRANCH 23 26
ATOM     26  CA  GLY B 723      38.504  32.630  88.631  1.00 21.22 LIG 0.47  C 
ATOM     27  N   GLY B 723      37.777  32.495  89.927  1.00 21.24 LIG 0.61  N 
ENDBRANCH 23 26
ENDBRANCH 21 22
BRANCH 21 28
ATOM     28  CB  PHE B 724      41.224  36.597  87.947  1.00 20.22 LIG 0.07  C 
BRANCH 28 29
ATOM     29  CG  PHE B 724      42.080  36.964  86.774  1.00 20.05 LIG-0.06  A 
ATOM     30  CD1 PHE B 724      42.924  36.028  86.197  1.00 20.54 LIG 0.01  A 
ATOM     31  CE1 PHE B 724      43.727  36.370  85.111  1.00 21.50 LIG 0.00  A 
ATOM     32  CZ  PHE B 724      43.691  37.667  84.601  1.00 21.54 LIG 0.00  A 
ATOM     33  CE2 PHE B 724      42.849  38.609  85.173  1.00 21.44 LIG 0.00  A 
ATOM     34  CD2 PHE B 724      42.051  38.254  86.256  1.00 20.20 LIG 0.01  A 
ENDBRANCH 28 29
ENDBRANCH 21 28
ENDBRANCH 1 21
TORSDOF 11
ENDMDL
MODEL 15
USER: ADFR SOLUTION from run 135
USER: SCORE 10.699870 LL:  -2.270 LR:  -9.745 RR:   0.000 FEB:  -6.464
USER: RMSD 6.754096
USER: SEED 134
USER: STATUS no improvement in best in 15 clusters for 5 generations
USER: GENES 13
USER: genes 0 Translation |==|  0.41876 0.54455 0.51209
USER: genes 1 Rotation |==|  0.60731 0.67574 0.04819 0.55888
USER: genes 2 Torsion [C]-N--CA-[CB] |==|  0.40404
USER: genes 3 Torsion [N]-CA--CB-[CG] |==|  0.75279
USER: genes 4 Torsion [CA]-CB--CG-[CD] |==|  0.89889
USER: genes 5 Torsion [CB]-CG--CD-[OE1] |==|  0.23756
USER: genes 6 Torsion [N]-CA--C-[N] |==|  0.88337
USER: genes 7 Torsion [N]-CA--C-[OXT] |==|  0.62049
USER: genes 8 Torsion [N]-C--CA-[N] |==|  0.34567
USER: genes 9 Torsion [C]-CA--N-[C] |==|  0.84793
USER: genes 10 Torsion [N]-C--CA-[N] |==|  0.69546
USER: genes 11 Torsion [C]-CA--CB-[CG] |==|  0.81207
USER: genes 12 Torsion [CA]-CB--CG-[CD2] |==|  0.23893
ROOT
ATOM      1  C   PHE B 724      39.292  38.140  85.917  1.00 20.38 LIG 0.24  C 
ATOM      2 O    PHE B 724      39.159  39.093  85.151  1.00 19.94 LIG-0.27  OA
ATOM      3  N   GLU B 725      40.107  38.163  86.962  1.00 20.55 LIG-0.35  N 
ATOM      4 H    GLU B 725      40.154  37.536  87.549  1.00 20.55 LIG 0.16  HD
ENDROOT
BRANCH 3 5
ATOM      5  CA  GLU B 725      41.007  39.280  87.199  1.00 20.80 LIG 0.18  C 
BRANCH 5 6
ATOM      6  CB  GLU B 725      41.158  39.517  88.709  1.00 21.18 LIG 0.04  C 
BRANCH 6 7
ATOM      7  CG  GLU B 725      40.136  40.467  89.324  1.00 23.39 LIG 0.12  C 
BRANCH 7 8
ATOM      8  CD  GLU B 725      39.753  41.626  88.414  1.00 26.43 LIG 0.17  C 
ATOM      9 OE1  GLU B 725      38.844  41.474  87.565  1.00 27.49 LIG-0.65  OA
ATOM     10 OE2  GLU B 725      40.379  42.704  88.545  1.00 27.53 LIG-0.65  OA
ENDBRANCH 7 8
ENDBRANCH 6 7
ENDBRANCH 5 6
BRANCH 5 11
ATOM     11  C   GLU B 725      42.352  38.967  86.522  1.00 20.17 LIG 0.24  C 
ATOM     12  N   PRO B 726      42.830  37.725  86.633  1.00 19.83 LIG-0.34  N 
ATOM     13  CD  PRO B 726      42.263  36.595  87.394  1.00 19.46 LIG 0.13  C 
ATOM     14  CA  PRO B 726      44.046  37.337  85.924  1.00 19.64 LIG 0.19  C 
ATOM     15  CG  PRO B 726      43.253  35.479  87.190  1.00 19.20 LIG 0.02  C 
ATOM     16  CB  PRO B 726      44.503  36.085  86.674  1.00 19.97 LIG 0.04  C 
ATOM     17 O    GLU B 725      42.951  39.860  85.896  1.00 19.41 LIG-0.27  OA
BRANCH 14 18
ATOM     18  C   PRO B 726      43.638  37.020  84.489  1.00 19.81 LIG 0.20  C 
ATOM     19 OXT  PRO B 726      44.129  36.005  83.962  1.00 20.16 LIG-0.65  OA
ATOM     20 O    PRO B 726      42.881  37.795  83.890  1.00 18.50 LIG-0.65  OA
ENDBRANCH 14 18
ENDBRANCH 5 11
ENDBRANCH 3 5
BRANCH 1 21
ATOM     21  CA  PHE B 724      38.510  36.841  85.712  1.00 20.36 LIG 0.18  C 
BRANCH 21 22
ATOM     22  N   PHE B 724      37.063  37.079  85.655  1.00 20.75 LIG-0.35  N 
ATOM     23  C   GLY B 723      36.417  37.719  86.624  1.00 21.06 LIG 0.25  C 
ATOM     24 O    GLY B 723      36.983  38.166  87.624  1.00 21.29 LIG-0.27  OA
ATOM     25 H    PHE B 724      36.682  36.771  84.949  1.00 20.75 LIG 0.16  HD
BRANCH 23 26
ATOM     26  CA  GLY B 723      34.916  37.885  86.440  1.00 21.22 LIG 0.47  C 
ATOM     27  N   GLY B 723      34.514  39.296  86.162  1.00 21.24 LIG 0.61  N 
ENDBRANCH 23 26
ENDBRANCH 21 22
BRANCH 21 28
ATOM     28  CB  PHE B 724      38.995  36.113  84.457  1.00 20.22 LIG 0.07  C 
BRANCH 28 29
ATOM     29  CG  PHE B 724      38.677  36.828  83.179  1.00 20.05 LIG-0.06  A 
ATOM     30  CD1 PHE B 724      37.533  36.516  82.462  1.00 20.54 LIG 0.01  A 
ATOM     31  CE1 PHE B 724      37.240  37.176  81.270  1.00 21.50 LIG 0.00  A 
ATOM     32  CZ  PHE B 724      38.108  38.154  80.786  1.00 21.54 LIG 0.00  A 
ATOM     33  CE2 PHE B 724      39.254  38.471  81.498  1.00 21.44 LIG 0.00  A 
ATOM     34  CD2 PHE B 724      39.534  37.807  82.688  1.00 20.20 LIG 0.01  A 
ENDBRANCH 28 29
ENDBRANCH 21 28
ENDBRANCH 1 21
TORSDOF 11
ENDMDL
MODEL 16
USER: ADFR SOLUTION from run 31
USER: SCORE 10.621891 LL:  -1.715 LR:  -9.752 RR:   0.000 FEB:  -6.470
USER: RMSD 6.275632
USER: SEED 30
USER: STATUS no improvement in best in 13 clusters for 5 generations
USER: GENES 13
USER: genes 0 Translation |==|  0.39576 0.60474 0.42219
USER: genes 1 Rotation |==|  0.83034 0.66398 0.36100 0.80767
USER: genes 2 Torsion [C]-N--CA-[CB] |==|  0.83889
USER: genes 3 Torsion [N]-CA--CB-[CG] |==|  0.33625
USER: genes 4 Torsion [CA]-CB--CG-[CD] |==|  0.55272
USER: genes 5 Torsion [CB]-CG--CD-[OE1] |==|  0.48788
USER: genes 6 Torsion [N]-CA--C-[N] |==|  0.43754
USER: genes 7 Torsion [N]-CA--C-[OXT] |==|  0.93616
USER: genes 8 Torsion [N]-C--CA-[N] |==|  0.79800
USER: genes 9 Torsion [C]-CA--N-[C] |==|  0.59949
USER: genes 10 Torsion [N]-C--CA-[N] |==|  0.53981
USER: genes 11 Torsion [C]-CA--CB-[CG] |==|  0.16129
USER: genes 12 Torsion [CA]-CB--CG-[CD2] |==|  0.54354
ROOT
ATOM      1  C   PHE B 724      38.878  38.998  84.231  1.00 20.38 LIG 0.24  C 
ATOM      2 O    PHE B 724      38.874  40.158  83.823  1.00 19.94 LIG-0.27  OA
ATOM      3  N   GLU B 725      37.873  38.472  84.918  1.00 20.55 LIG-0.35  N 
ATOM      4 H    GLU B 725      37.826  37.644  85.143  1.00 20.55 LIG 0.16  HD
ENDROOT
BRANCH 3 5
ATOM      5  CA  GLU B 725      36.745  39.281  85.354  1.00 20.80 LIG 0.18  C 
BRANCH 5 6
ATOM      6  CB  GLU B 725      37.242  40.438  86.232  1.00 21.18 LIG 0.04  C 
BRANCH 6 7
ATOM      7  CG  GLU B 725      36.899  41.834  85.724  1.00 23.39 LIG 0.12  C 
BRANCH 7 8
ATOM      8  CD  GLU B 725      37.761  42.934  86.328  1.00 26.43 LIG 0.17  C 
ATOM      9 OE1  GLU B 725      37.630  44.115  85.928  1.00 27.49 LIG-0.65  OA
ATOM     10 OE2  GLU B 725      38.590  42.609  87.210  1.00 27.53 LIG-0.65  OA
ENDBRANCH 7 8
ENDBRANCH 6 7
ENDBRANCH 5 6
BRANCH 5 11
ATOM     11  C   GLU B 725      35.998  39.776  84.105  1.00 20.17 LIG 0.24  C 
ATOM     12  N   PRO B 726      34.717  40.131  84.246  1.00 19.83 LIG-0.34  N 
ATOM     13  CD  PRO B 726      33.877  40.049  85.456  1.00 19.46 LIG 0.13  C 
ATOM     14  CA  PRO B 726      33.985  40.710  83.123  1.00 19.64 LIG 0.19  C 
ATOM     15  CG  PRO B 726      32.527  40.537  85.002  1.00 19.20 LIG 0.02  C 
ATOM     16  CB  PRO B 726      32.522  40.508  83.520  1.00 19.97 LIG 0.04  C 
ATOM     17 O    GLU B 725      36.591  39.835  83.013  1.00 19.41 LIG-0.27  OA
BRANCH 14 18
ATOM     18  C   PRO B 726      34.359  42.187  83.067  1.00 19.81 LIG 0.20  C 
ATOM     19 OXT  PRO B 726      34.778  42.714  84.114  1.00 20.16 LIG-0.65  OA
ATOM     20 O    PRO B 726      34.191  42.815  82.013  1.00 18.50 LIG-0.65  OA
ENDBRANCH 14 18
ENDBRANCH 5 11
ENDBRANCH 3 5
BRANCH 1 21
ATOM     21  CA  PHE B 724      40.062  38.066  83.967  1.00 20.36 LIG 0.18  C 
BRANCH 21 22
ATOM     22  N   PHE B 724      40.849  37.827  85.181  1.00 20.75 LIG-0.35  N 
ATOM     23  C   GLY B 723      42.171  37.693  85.147  1.00 21.06 LIG 0.25  C 
ATOM     24 O    GLY B 723      42.825  37.772  84.106  1.00 21.29 LIG-0.27  OA
ATOM     25 H    PHE B 724      40.383  37.783  85.902  1.00 20.75 LIG 0.16  HD
BRANCH 23 26
ATOM     26  CA  GLY B 723      42.858  37.437  86.480  1.00 21.22 LIG 0.47  C 
ATOM     27  N   GLY B 723      44.337  37.635  86.422  1.00 21.24 LIG 0.61  N 
ENDBRANCH 23 26
ENDBRANCH 21 22
BRANCH 21 28
ATOM     28  CB  PHE B 724      39.582  36.746  83.357  1.00 20.22 LIG 0.07  C 
BRANCH 28 29
ATOM     29  CG  PHE B 724      38.824  36.911  82.074  1.00 20.05 LIG-0.06  A 
ATOM     30  CD1 PHE B 724      38.868  38.108  81.378  1.00 20.54 LIG 0.01  A 
ATOM     31  CE1 PHE B 724      38.158  38.264  80.190  1.00 21.50 LIG 0.00  A 
ATOM     32  CZ  PHE B 724      37.387  37.212  79.697  1.00 21.54 LIG 0.00  A 
ATOM     33  CE2 PHE B 724      37.339  36.011  80.388  1.00 21.44 LIG 0.00  A 
ATOM     34  CD2 PHE B 724      38.055  35.867  81.573  1.00 20.20 LIG 0.01  A 
ENDBRANCH 28 29
ENDBRANCH 21 28
ENDBRANCH 1 21
TORSDOF 11
ENDMDL
MODEL 17
USER: ADFR SOLUTION from run 23
USER: SCORE 10.124095 LL:  -2.172 LR:  -9.716 RR:   0.000 FEB:  -6.435
USER: RMSD 7.254352
USER: SEED 22
USER: STATUS no improvement in best in 9 clusters for 5 generations
USER: GENES 13
USER: genes 0 Translation |==|  0.43201 0.53082 0.49632
USER: genes 1 Rotation |==|  0.76288 0.58190 0.08456 0.54002
USER: genes 2 Torsion [C]-N--CA-[CB] |==|  0.38889
USER: genes 3 Torsion [N]-CA--CB-[CG] |==|  0.59464
USER: genes 4 Torsion [CA]-CB--CG-[CD] |==|  0.25234
USER: genes 5 Torsion [CB]-CG--CD-[OE1] |==|  0.00131
USER: genes 6 Torsion [N]-CA--C-[N] |==|  0.27203
USER: genes 7 Torsion [N]-CA--C-[OXT] |==|  0.53304
USER: genes 8 Torsion [N]-C--CA-[N] |==|  0.99109
USER: genes 9 Torsion [C]-CA--N-[C] |==|  0.78885
USER: genes 10 Torsion [N]-C--CA-[N] |==|  0.44916
USER: genes 11 Torsion [C]-CA--CB-[CG] |==|  0.26809
USER: genes 12 Torsion [CA]-CB--CG-[CD2] |==|  0.74852
ROOT
ATOM      1  C   PHE B 724      39.530  37.944  85.621  1.00 20.38 LIG 0.24  C 
ATOM      2 O    PHE B 724      40.208  38.632  84.859  1.00 19.94 LIG-0.27  OA
ATOM      3  N   GLU B 725      39.594  38.054  86.941  1.00 20.55 LIG-0.35  N 
ATOM      4 H    GLU B 725      39.074  37.637  87.484  1.00 20.55 LIG 0.16  HD
ENDROOT
BRANCH 3 5
ATOM      5  CA  GLU B 725      40.576  38.911  87.585  1.00 20.80 LIG 0.18  C 
BRANCH 5 6
ATOM      6  CB  GLU B 725      39.934  39.635  88.777  1.00 21.18 LIG 0.04  C 
BRANCH 6 7
ATOM      7  CG  GLU B 725      40.449  41.046  89.037  1.00 23.39 LIG 0.12  C 
BRANCH 7 8
ATOM      8  CD  GLU B 725      39.659  42.129  88.315  1.00 26.43 LIG 0.17  C 
ATOM      9 OE1  GLU B 725      38.681  41.809  87.598  1.00 27.49 LIG-0.65  OA
ATOM     10 OE2  GLU B 725      40.028  43.318  88.460  1.00 27.53 LIG-0.65  OA
ENDBRANCH 7 8
ENDBRANCH 6 7
ENDBRANCH 5 6
BRANCH 5 11
ATOM     11  C   GLU B 725      41.772  38.041  88.007  1.00 20.17 LIG 0.24  C 
ATOM     12  N   PRO B 726      42.838  38.016  87.203  1.00 19.83 LIG-0.34  N 
ATOM     13  CD  PRO B 726      43.009  38.677  85.895  1.00 19.46 LIG 0.13  C 
ATOM     14  CA  PRO B 726      44.044  37.296  87.601  1.00 19.64 LIG 0.19  C 
ATOM     15  CG  PRO B 726      44.381  38.254  85.443  1.00 19.20 LIG 0.02  C 
ATOM     16  CB  PRO B 726      44.783  37.096  86.277  1.00 19.97 LIG 0.04  C 
ATOM     17 O    GLU B 725      41.720  37.392  89.068  1.00 19.41 LIG-0.27  OA
BRANCH 14 18
ATOM     18  C   PRO B 726      44.814  38.211  88.547  1.00 19.81 LIG 0.20  C 
ATOM     19 OXT  PRO B 726      45.983  37.892  88.831  1.00 20.16 LIG-0.65  OA
ATOM     20 O    PRO B 726      44.245  39.199  89.030  1.00 18.50 LIG-0.65  OA
ENDBRANCH 14 18
ENDBRANCH 5 11
ENDBRANCH 3 5
BRANCH 1 21
ATOM     21  CA  PHE B 724      38.549  36.899  85.088  1.00 20.36 LIG 0.18  C 
BRANCH 21 22
ATOM     22  N   PHE B 724      37.907  36.150  86.173  1.00 20.75 LIG-0.35  N 
ATOM     23  C   GLY B 723      38.545  35.197  86.844  1.00 21.06 LIG 0.25  C 
ATOM     24 O    GLY B 723      39.715  34.885  86.613  1.00 21.29 LIG-0.27  OA
ATOM     25 H    PHE B 724      37.094  36.382  86.331  1.00 20.75 LIG 0.16  HD
BRANCH 23 26
ATOM     26  CA  GLY B 723      37.754  34.493  87.937  1.00 21.22 LIG 0.47  C 
ATOM     27  N   GLY B 723      38.351  33.186  88.340  1.00 21.24 LIG 0.61  N 
ENDBRANCH 23 26
ENDBRANCH 21 22
BRANCH 21 28
ATOM     28  CB  PHE B 724      37.504  37.553  84.181  1.00 20.22 LIG 0.07  C 
BRANCH 28 29
ATOM     29  CG  PHE B 724      37.829  37.469  82.721  1.00 20.05 LIG-0.06  A 
ATOM     30  CD1 PHE B 724      37.416  36.381  81.969  1.00 20.54 LIG 0.01  A 
ATOM     31  CE1 PHE B 724      37.724  36.297  80.612  1.00 21.50 LIG 0.00  A 
ATOM     32  CZ  PHE B 724      38.462  37.311  80.004  1.00 21.54 LIG 0.00  A 
ATOM     33  CE2 PHE B 724      38.879  38.403  80.750  1.00 21.44 LIG 0.00  A 
ATOM     34  CD2 PHE B 724      38.563  38.475  82.104  1.00 20.20 LIG 0.01  A 
ENDBRANCH 28 29
ENDBRANCH 21 28
ENDBRANCH 1 21
TORSDOF 11
ENDMDL
MODEL 18
USER: ADFR SOLUTION from run 123
USER: SCORE 10.434007 LL:  -2.833 LR:  -9.613 RR:   0.000 FEB:  -6.332
USER: RMSD 5.572426
USER: SEED 122
USER: STATUS no improvement in best in 22 clusters for 5 generations
USER: GENES 13
USER: genes 0 Translation |==|  0.45171 0.52542 0.38973
USER: genes 1 Rotation |==|  0.91783 0.44190 0.58617 0.75421
USER: genes 2 Torsion [C]-N--CA-[CB] |==|  0.37824
USER: genes 3 Torsion [N]-CA--CB-[CG] |==|  0.01103
USER: genes 4 Torsion [CA]-CB--CG-[CD] |==|  0.20961
USER: genes 5 Torsion [CB]-CG--CD-[OE1] |==|  0.53739
USER: genes 6 Torsion [N]-CA--C-[N] |==|  0.25374
USER: genes 7 Torsion [N]-CA--C-[OXT] |==|  0.43505
USER: genes 8 Torsion [N]-C--CA-[N] |==|  0.51667
USER: genes 9 Torsion [C]-CA--N-[C] |==|  0.76932
USER: genes 10 Torsion [N]-C--CA-[N] |==|  0.52039
USER: genes 11 Torsion [C]-CA--CB-[CG] |==|  0.81923
USER: genes 12 Torsion [CA]-CB--CG-[CD2] |==|  0.77439
ROOT
ATOM      1  C   PHE B 724      39.885  37.867  83.622  1.00 20.38 LIG 0.24  C 
ATOM      2 O    PHE B 724      40.185  38.988  84.030  1.00 19.94 LIG-0.27  OA
ATOM      3  N   GLU B 725      38.973  37.662  82.682  1.00 20.55 LIG-0.35  N 
ATOM      4 H    GLU B 725      38.807  36.895  82.332  1.00 20.55 LIG 0.16  HD
ENDROOT
BRANCH 3 5
ATOM      5  CA  GLU B 725      38.164  38.751  82.158  1.00 20.80 LIG 0.18  C 
BRANCH 5 6
ATOM      6  CB  GLU B 725      38.077  38.646  80.629  1.00 21.18 LIG 0.04  C 
BRANCH 6 7
ATOM      7  CG  GLU B 725      38.747  37.420  80.020  1.00 23.39 LIG 0.12  C 
BRANCH 7 8
ATOM      8  CD  GLU B 725      37.955  36.133  80.209  1.00 26.43 LIG 0.17  C 
ATOM      9 OE1  GLU B 725      38.504  35.028  79.985  1.00 27.49 LIG-0.65  OA
ATOM     10 OE2  GLU B 725      36.761  36.230  80.577  1.00 27.53 LIG-0.65  OA
ENDBRANCH 7 8
ENDBRANCH 6 7
ENDBRANCH 5 6
BRANCH 5 11
ATOM     11  C   GLU B 725      36.780  38.686  82.826  1.00 20.17 LIG 0.24  C 
ATOM     12  N   PRO B 726      36.598  39.386  83.949  1.00 19.83 LIG-0.34  N 
ATOM     13  CD  PRO B 726      37.588  40.186  84.695  1.00 19.46 LIG 0.13  C 
ATOM     14  CA  PRO B 726      35.278  39.452  84.570  1.00 19.64 LIG 0.19  C 
ATOM     15  CG  PRO B 726      36.827  40.696  85.889  1.00 19.20 LIG 0.02  C 
ATOM     16  CB  PRO B 726      35.589  39.888  86.003  1.00 19.97 LIG 0.04  C 
ATOM     17 O    GLU B 725      35.879  37.997  82.315  1.00 19.41 LIG-0.27  OA
BRANCH 14 18
ATOM     18  C   PRO B 726      34.486  40.512  83.814  1.00 19.81 LIG 0.20  C 
ATOM     19 OXT  PRO B 726      33.244  40.440  83.854  1.00 20.16 LIG-0.65  OA
ATOM     20 O    PRO B 726      35.093  41.369  83.157  1.00 18.50 LIG-0.65  OA
ENDBRANCH 14 18
ENDBRANCH 5 11
ENDBRANCH 3 5
BRANCH 1 21
ATOM     21  CA  PHE B 724      40.557  36.612  84.182  1.00 20.36 LIG 0.18  C 
BRANCH 21 22
ATOM     22  N   PHE B 724      41.443  36.924  85.309  1.00 20.75 LIG-0.35  N 
ATOM     23  C   GLY B 723      42.689  37.347  85.128  1.00 21.06 LIG 0.25  C 
ATOM     24 O    GLY B 723      43.182  37.518  84.011  1.00 21.29 LIG-0.27  OA
ATOM     25 H    PHE B 724      41.085  36.810  86.082  1.00 20.75 LIG 0.16  HD
BRANCH 23 26
ATOM     26  CA  GLY B 723      43.500  37.622  86.386  1.00 21.22 LIG 0.47  C 
ATOM     27  N   GLY B 723      44.821  38.255  86.102  1.00 21.24 LIG 0.61  N 
ENDBRANCH 23 26
ENDBRANCH 21 22
BRANCH 21 28
ATOM     28  CB  PHE B 724      39.508  35.572  84.582  1.00 20.22 LIG 0.07  C 
BRANCH 28 29
ATOM     29  CG  PHE B 724      38.627  36.004  85.714  1.00 20.05 LIG-0.06  A 
ATOM     30  CD1 PHE B 724      37.370  36.532  85.468  1.00 20.54 LIG 0.01  A 
ATOM     31  CE1 PHE B 724      36.553  36.941  86.521  1.00 21.50 LIG 0.00  A 
ATOM     32  CZ  PHE B 724      37.004  36.827  87.835  1.00 21.54 LIG 0.00  A 
ATOM     33  CE2 PHE B 724      38.260  36.300  88.089  1.00 21.44 LIG 0.00  A 
ATOM     34  CD2 PHE B 724      39.066  35.893  87.029  1.00 20.20 LIG 0.01  A 
ENDBRANCH 28 29
ENDBRANCH 21 28
ENDBRANCH 1 21
TORSDOF 11
ENDMDL
MODEL 19
USER: ADFR SOLUTION from run 189
USER: SCORE 10.998400 LL:  -2.162 LR:  -9.610 RR:   0.000 FEB:  -6.329
USER: RMSD 3.959963
USER: SEED 188
USER: STATUS no improvement in best in 18 clusters for 5 generations
USER: GENES 13
USER: genes 0 Translation |==|  0.39797 0.54951 0.54330
USER: genes 1 Rotation |==|  0.76637 0.49917 0.43839 0.91863
USER: genes 2 Torsion [C]-N--CA-[CB] |==|  0.77633
USER: genes 3 Torsion [N]-CA--CB-[CG] |==|  0.00195
USER: genes 4 Torsion [CA]-CB--CG-[CD] |==|  0.28264
USER: genes 5 Torsion [CB]-CG--CD-[OE1] |==|  0.13423
USER: genes 6 Torsion [N]-CA--C-[N] |==|  0.13826
USER: genes 7 Torsion [N]-CA--C-[OXT] |==|  0.52351
USER: genes 8 Torsion [N]-C--CA-[N] |==|  0.18762
USER: genes 9 Torsion [C]-CA--N-[C] |==|  0.78333
USER: genes 10 Torsion [N]-C--CA-[N] |==|  0.38528
USER: genes 11 Torsion [C]-CA--CB-[CG] |==|  0.77797
USER: genes 12 Torsion [CA]-CB--CG-[CD2] |==|  0.24767
ROOT
ATOM      1  C   PHE B 724      38.918  38.211  86.502  1.00 20.38 LIG 0.24  C 
ATOM      2 O    PHE B 724      39.413  39.004  85.704  1.00 19.94 LIG-0.27  OA
ATOM      3  N   GLU B 725      37.618  37.950  86.546  1.00 20.55 LIG-0.35  N 
ATOM      4 H    GLU B 725      37.266  37.343  87.044  1.00 20.55 LIG 0.16  HD
ENDROOT
BRANCH 3 5
ATOM      5  CA  GLU B 725      36.666  38.690  85.734  1.00 20.80 LIG 0.18  C 
BRANCH 5 6
ATOM      6  CB  GLU B 725      36.348  40.036  86.401  1.00 21.18 LIG 0.04  C 
BRANCH 6 7
ATOM      7  CG  GLU B 725      37.081  40.304  87.710  1.00 23.39 LIG 0.12  C 
BRANCH 7 8
ATOM      8  CD  GLU B 725      38.268  41.248  87.565  1.00 26.43 LIG 0.17  C 
ATOM      9 OE1  GLU B 725      38.129  42.326  86.939  1.00 27.49 LIG-0.65  OA
ATOM     10 OE2  GLU B 725      39.357  40.901  88.077  1.00 27.53 LIG-0.65  OA
ENDBRANCH 7 8
ENDBRANCH 6 7
ENDBRANCH 5 6
BRANCH 5 11
ATOM     11  C   GLU B 725      37.266  38.864  84.329  1.00 20.17 LIG 0.24  C 
ATOM     12  N   PRO B 726      37.751  37.778  83.720  1.00 19.83 LIG-0.34  N 
ATOM     13  CD  PRO B 726      37.853  36.405  84.251  1.00 19.46 LIG 0.13  C 
ATOM     14  CA  PRO B 726      38.235  37.858  82.345  1.00 19.64 LIG 0.19  C 
ATOM     15  CG  PRO B 726      38.519  35.630  83.146  1.00 19.20 LIG 0.02  C 
ATOM     16  CB  PRO B 726      39.116  36.615  82.213  1.00 19.97 LIG 0.04  C 
ATOM     17 O    GLU B 725      37.285  39.990  83.800  1.00 19.41 LIG-0.27  OA
BRANCH 14 18
ATOM     18  C   PRO B 726      37.010  37.783  81.441  1.00 19.81 LIG 0.20  C 
ATOM     19 OXT  PRO B 726      37.204  37.671  80.216  1.00 20.16 LIG-0.65  OA
ATOM     20 O    PRO B 726      35.881  37.880  81.941  1.00 18.50 LIG-0.65  OA
ENDBRANCH 14 18
ENDBRANCH 5 11
ENDBRANCH 3 5
BRANCH 1 21
ATOM     21  CA  PHE B 724      39.782  37.457  87.514  1.00 20.36 LIG 0.18  C 
BRANCH 21 22
ATOM     22  N   PHE B 724      39.825  36.018  87.230  1.00 20.75 LIG-0.35  N 
ATOM     23  C   GLY B 723      38.821  35.208  87.549  1.00 21.06 LIG 0.25  C 
ATOM     24 O    GLY B 723      37.787  35.604  88.091  1.00 21.29 LIG-0.27  OA
ATOM     25 H    PHE B 724      40.547  35.755  86.844  1.00 20.75 LIG 0.16  HD
BRANCH 23 26
ATOM     26  CA  GLY B 723      39.005  33.736  87.207  1.00 21.22 LIG 0.47  C 
ATOM     27  N   GLY B 723      38.517  32.822  88.282  1.00 21.24 LIG 0.61  N 
ENDBRANCH 23 26
ENDBRANCH 21 22
BRANCH 21 28
ATOM     28  CB  PHE B 724      41.193  38.047  87.563  1.00 20.22 LIG 0.07  C 
BRANCH 28 29
ATOM     29  CG  PHE B 724      42.081  37.589  86.446  1.00 20.05 LIG-0.06  A 
ATOM     30  CD1 PHE B 724      42.885  36.471  86.599  1.00 20.54 LIG 0.01  A 
ATOM     31  CE1 PHE B 724      43.717  36.048  85.564  1.00 21.50 LIG 0.00  A 
ATOM     32  CZ  PHE B 724      43.751  36.759  84.365  1.00 21.54 LIG 0.00  A 
ATOM     33  CE2 PHE B 724      42.949  37.879  84.205  1.00 21.44 LIG 0.00  A 
ATOM     34  CD2 PHE B 724      42.121  38.290  85.246  1.00 20.20 LIG 0.01  A 
ENDBRANCH 28 29
ENDBRANCH 21 28
ENDBRANCH 1 21
TORSDOF 11
ENDMDL
MODEL 20
USER: ADFR SOLUTION from run 196
USER: SCORE 11.192640 LL:  -2.408 LR:  -9.567 RR:   0.000 FEB:  -6.286
USER: RMSD 3.591120
USER: SEED 195
USER: STATUS no improvement in best in 15 clusters for 5 generations
USER: GENES 13
USER: genes 0 Translation |==|  0.58790 0.47890 0.46312
USER: genes 1 Rotation |==|  0.61767 0.52454 0.54261 0.98346
USER: genes 2 Torsion [C]-N--CA-[CB] |==|  0.48945
USER: genes 3 Torsion [N]-CA--CB-[CG] |==|  0.19614
USER: genes 4 Torsion [CA]-CB--CG-[CD] |==|  0.77159
USER: genes 5 Torsion [CB]-CG--CD-[OE1] |==|  0.00109
USER: genes 6 Torsion [N]-CA--C-[N] |==|  0.45830
USER: genes 7 Torsion [N]-CA--C-[OXT] |==|  0.23456
USER: genes 8 Torsion [N]-C--CA-[N] |==|  0.31667
USER: genes 9 Torsion [C]-CA--N-[C] |==|  0.78179
USER: genes 10 Torsion [N]-C--CA-[N] |==|  0.50170
USER: genes 11 Torsion [C]-CA--CB-[CG] |==|  0.28192
USER: genes 12 Torsion [CA]-CB--CG-[CD2] |==|  0.89864
ROOT
ATOM      1  C   PHE B 724      42.336  37.204  84.998  1.00 20.38 LIG 0.24  C 
ATOM      2 O    PHE B 724      42.636  37.527  83.851  1.00 19.94 LIG-0.27  OA
ATOM      3  N   GLU B 725      41.253  36.497  85.288  1.00 20.55 LIG-0.35  N 
ATOM      4 H    GLU B 725      41.070  36.198  86.073  1.00 20.55 LIG 0.16  HD
ENDROOT
BRANCH 3 5
ATOM      5  CA  GLU B 725      40.268  36.165  84.271  1.00 20.80 LIG 0.18  C 
BRANCH 5 6
ATOM      6  CB  GLU B 725      39.179  35.265  84.874  1.00 21.18 LIG 0.04  C 
BRANCH 6 7
ATOM      7  CG  GLU B 725      38.240  35.950  85.860  1.00 23.39 LIG 0.12  C 
BRANCH 7 8
ATOM      8  CD  GLU B 725      38.805  36.056  87.270  1.00 26.43 LIG 0.17  C 
ATOM      9 OE1  GLU B 725      39.948  35.605  87.516  1.00 27.49 LIG-0.65  OA
ATOM     10 OE2  GLU B 725      38.088  36.592  88.148  1.00 27.53 LIG-0.65  OA
ENDBRANCH 7 8
ENDBRANCH 6 7
ENDBRANCH 5 6
BRANCH 5 11
ATOM     11  C   GLU B 725      39.694  37.477  83.711  1.00 20.17 LIG 0.24  C 
ATOM     12  N   PRO B 726      39.007  37.418  82.567  1.00 19.83 LIG-0.34  N 
ATOM     13  CD  PRO B 726      38.770  36.242  81.707  1.00 19.46 LIG 0.13  C 
ATOM     14  CA  PRO B 726      38.347  38.609  82.041  1.00 19.64 LIG 0.19  C 
ATOM     15  CG  PRO B 726      37.983  36.788  80.544  1.00 19.20 LIG 0.02  C 
ATOM     16  CB  PRO B 726      38.127  38.263  80.567  1.00 19.97 LIG 0.04  C 
ATOM     17 O    GLU B 725      39.878  38.544  84.324  1.00 19.41 LIG-0.27  OA
BRANCH 14 18
ATOM     18  C   PRO B 726      37.028  38.751  82.792  1.00 19.81 LIG 0.20  C 
ATOM     19 OXT  PRO B 726      37.053  39.330  83.894  1.00 20.16 LIG-0.65  OA
ATOM     20 O    PRO B 726      36.001  38.254  82.313  1.00 18.50 LIG-0.65  OA
ENDBRANCH 14 18
ENDBRANCH 5 11
ENDBRANCH 3 5
BRANCH 1 21
ATOM     21  CA  PHE B 724      43.209  37.602  86.190  1.00 20.36 LIG 0.18  C 
BRANCH 21 22
ATOM     22  N   PHE B 724      44.522  36.951  86.146  1.00 20.75 LIG-0.35  N 
ATOM     23  C   GLY B 723      44.693  35.686  86.512  1.00 21.06 LIG 0.25  C 
ATOM     24 O    GLY B 723      43.767  34.971  86.901  1.00 21.29 LIG-0.27  OA
ATOM     25 H    PHE B 724      45.158  37.457  85.865  1.00 20.75 LIG 0.16  HD
BRANCH 23 26
ATOM     26  CA  GLY B 723      46.112  35.142  86.427  1.00 21.22 LIG 0.47  C 
ATOM     27  N   GLY B 723      46.215  33.712  86.842  1.00 21.24 LIG 0.61  N 
ENDBRANCH 23 26
ENDBRANCH 21 22
BRANCH 21 28
ATOM     28  CB  PHE B 724      43.354  39.124  86.267  1.00 20.22 LIG 0.07  C 
BRANCH 28 29
ATOM     29  CG  PHE B 724      42.476  39.766  87.297  1.00 20.05 LIG-0.06  A 
ATOM     30  CD1 PHE B 724      42.929  40.847  88.036  1.00 20.54 LIG 0.01  A 
ATOM     31  CE1 PHE B 724      42.116  41.440  88.999  1.00 21.50 LIG 0.00  A 
ATOM     32  CZ  PHE B 724      40.836  40.939  89.232  1.00 21.54 LIG 0.00  A 
ATOM     33  CE2 PHE B 724      40.375  39.859  88.496  1.00 21.44 LIG 0.00  A 
ATOM     34  CD2 PHE B 724      41.196  39.276  87.535  1.00 20.20 LIG 0.01  A 
ENDBRANCH 28 29
ENDBRANCH 21 28
ENDBRANCH 1 21
TORSDOF 11
ENDMDL
MODEL 21
USER: ADFR SOLUTION from run 196
USER: SCORE 10.312445 LL:  -2.650 LR:  -9.415 RR:   0.000 FEB:  -6.133
USER: RMSD 7.084781
USER: SEED 195
USER: STATUS no improvement in best in 15 clusters for 5 generations
USER: GENES 13
USER: genes 0 Translation |==|  0.52049 0.51756 0.47054
USER: genes 1 Rotation |==|  0.75040 0.44631 0.07478 0.56010
USER: genes 2 Torsion [C]-N--CA-[CB] |==|  0.48956
USER: genes 3 Torsion [N]-CA--CB-[CG] |==|  0.96949
USER: genes 4 Torsion [CA]-CB--CG-[CD] |==|  0.70019
USER: genes 5 Torsion [CB]-CG--CD-[OE1] |==|  0.35557
USER: genes 6 Torsion [N]-CA--C-[N] |==|  0.82158
USER: genes 7 Torsion [N]-CA--C-[OXT] |==|  0.15496
USER: genes 8 Torsion [N]-C--CA-[N] |==|  0.15905
USER: genes 9 Torsion [C]-CA--N-[C] |==|  0.10003
USER: genes 10 Torsion [N]-C--CA-[N] |==|  0.30216
USER: genes 11 Torsion [C]-CA--CB-[CG] |==|  0.74708
USER: genes 12 Torsion [CA]-CB--CG-[CD2] |==|  0.22345
ROOT
ATOM      1  C   PHE B 724      41.123  37.755  85.138  1.00 20.38 LIG 0.24  C 
ATOM      2 O    PHE B 724      41.880  37.832  84.172  1.00 19.94 LIG-0.27  OA
ATOM      3  N   GLU B 725      41.285  38.473  86.240  1.00 20.55 LIG-0.35  N 
ATOM      4 H    GLU B 725      40.724  38.489  86.891  1.00 20.55 LIG 0.16  HD
ENDROOT
BRANCH 3 5
ATOM      5  CA  GLU B 725      42.458  39.312  86.435  1.00 20.80 LIG 0.18  C 
BRANCH 5 6
ATOM      6  CB  GLU B 725      42.328  40.091  87.751  1.00 21.18 LIG 0.04  C 
BRANCH 6 7
ATOM      7  CG  GLU B 725      40.954  40.037  88.408  1.00 23.39 LIG 0.12  C 
BRANCH 7 8
ATOM      8  CD  GLU B 725      40.179  41.345  88.315  1.00 26.43 LIG 0.17  C 
ATOM      9 OE1  GLU B 725      39.008  41.342  87.868  1.00 27.49 LIG-0.65  OA
ATOM     10 OE2  GLU B 725      40.756  42.394  88.687  1.00 27.53 LIG-0.65  OA
ENDBRANCH 7 8
ENDBRANCH 6 7
ENDBRANCH 5 6
BRANCH 5 11
ATOM     11  C   GLU B 725      43.703  38.409  86.412  1.00 20.17 LIG 0.24  C 
ATOM     12  N   PRO B 726      43.829  37.498  87.381  1.00 19.83 LIG-0.34  N 
ATOM     13  CD  PRO B 726      42.946  37.274  88.542  1.00 19.46 LIG 0.13  C 
ATOM     14  CA  PRO B 726      44.932  36.542  87.355  1.00 19.64 LIG 0.19  C 
ATOM     15  CG  PRO B 726      43.613  36.160  89.304  1.00 19.20 LIG 0.02  C 
ATOM     16  CB  PRO B 726      45.003  36.052  88.802  1.00 19.97 LIG 0.04  C 
ATOM     17 O    GLU B 725      44.548  38.545  85.510  1.00 19.41 LIG-0.27  OA
BRANCH 14 18
ATOM     18  C   PRO B 726      44.526  35.427  86.398  1.00 19.81 LIG 0.20  C 
ATOM     19 OXT  PRO B 726      44.212  35.750  85.238  1.00 20.16 LIG-0.65  OA
ATOM     20 O    PRO B 726      44.477  34.261  86.812  1.00 18.50 LIG-0.65  OA
ENDBRANCH 14 18
ENDBRANCH 5 11
ENDBRANCH 3 5
BRANCH 1 21
ATOM     21  CA  PHE B 724      39.920  36.811  85.131  1.00 20.36 LIG 0.18  C 
BRANCH 21 22
ATOM     22  N   PHE B 724      38.661  37.529  85.362  1.00 20.75 LIG-0.35  N 
ATOM     23  C   GLY B 723      38.450  38.750  84.881  1.00 21.06 LIG 0.25  C 
ATOM     24 O    GLY B 723      39.282  39.355  84.203  1.00 21.29 LIG-0.27  OA
ATOM     25 H    PHE B 724      38.086  37.093  85.829  1.00 20.75 LIG 0.16  HD
BRANCH 23 26
ATOM     26  CA  GLY B 723      37.105  39.381  85.208  1.00 21.22 LIG 0.47  C 
ATOM     27  N   GLY B 723      37.208  40.500  86.190  1.00 21.24 LIG 0.61  N 
ENDBRANCH 23 26
ENDBRANCH 21 22
BRANCH 21 28
ATOM     28  CB  PHE B 724      39.865  36.017  83.824  1.00 20.22 LIG 0.07  C 
BRANCH 28 29
ATOM     29  CG  PHE B 724      39.054  36.674  82.749  1.00 20.05 LIG-0.06  A 
ATOM     30  CD1 PHE B 724      37.757  36.261  82.492  1.00 20.54 LIG 0.01  A 
ATOM     31  CE1 PHE B 724      37.004  36.866  81.488  1.00 21.50 LIG 0.00  A 
ATOM     32  CZ  PHE B 724      37.561  37.891  80.725  1.00 21.54 LIG 0.00  A 
ATOM     33  CE2 PHE B 724      38.858  38.310  80.976  1.00 21.44 LIG 0.00  A 
ATOM     34  CD2 PHE B 724      39.599  37.699  81.983  1.00 20.20 LIG 0.01  A 
ENDBRANCH 28 29
ENDBRANCH 21 28
ENDBRANCH 1 21
TORSDOF 11
ENDMDL
MODEL 22
USER: ADFR SOLUTION from run 140
USER: SCORE 11.760002 LL:  -3.286 LR:  -9.403 RR:   0.000 FEB:  -6.122
USER: RMSD 6.262589
USER: SEED 139
USER: STATUS no improvement in best in 8 clusters for 5 generations
USER: GENES 13
USER: genes 0 Translation |==|  0.33863 0.51284 0.49556
USER: genes 1 Rotation |==|  0.62152 0.27049 0.81117 0.79280
USER: genes 2 Torsion [C]-N--CA-[CB] |==|  0.77138
USER: genes 3 Torsion [N]-CA--CB-[CG] |==|  0.17893
USER: genes 4 Torsion [CA]-CB--CG-[CD] |==|  0.71040
USER: genes 5 Torsion [CB]-CG--CD-[OE1] |==|  0.36753
USER: genes 6 Torsion [N]-CA--C-[N] |==|  0.18672
USER: genes 7 Torsion [N]-CA--C-[OXT] |==|  0.03007
USER: genes 8 Torsion [N]-C--CA-[N] |==|  0.70602
USER: genes 9 Torsion [C]-CA--N-[C] |==|  0.67837
USER: genes 10 Torsion [N]-C--CA-[N] |==|  0.81396
USER: genes 11 Torsion [C]-CA--CB-[CG] |==|  0.19736
USER: genes 12 Torsion [CA]-CB--CG-[CD2] |==|  0.65015
ROOT
ATOM      1  C   PHE B 724      37.849  37.688  85.607  1.00 20.38 LIG 0.24  C 
ATOM      2 O    PHE B 724      38.309  38.826  85.526  1.00 19.94 LIG-0.27  OA
ATOM      3  N   GLU B 725      38.302  36.675  84.880  1.00 20.55 LIG-0.35  N 
ATOM      4 H    GLU B 725      38.046  35.861  84.979  1.00 20.55 LIG 0.16  HD
ENDROOT
BRANCH 3 5
ATOM      5  CA  GLU B 725      39.292  36.873  83.834  1.00 20.80 LIG 0.18  C 
BRANCH 5 6
ATOM      6  CB  GLU B 725      38.604  37.348  82.547  1.00 21.18 LIG 0.04  C 
BRANCH 6 7
ATOM      7  CG  GLU B 725      37.927  38.712  82.635  1.00 23.39 LIG 0.12  C 
BRANCH 7 8
ATOM      8  CD  GLU B 725      36.409  38.636  82.737  1.00 26.43 LIG 0.17  C 
ATOM      9 OE1  GLU B 725      35.812  39.313  83.607  1.00 27.49 LIG-0.65  OA
ATOM     10 OE2  GLU B 725      35.807  37.880  81.940  1.00 27.53 LIG-0.65  OA
ENDBRANCH 7 8
ENDBRANCH 6 7
ENDBRANCH 5 6
BRANCH 5 11
ATOM     11  C   GLU B 725      40.335  37.883  84.344  1.00 20.17 LIG 0.24  C 
ATOM     12  N   PRO B 726      41.124  37.506  85.354  1.00 19.83 LIG-0.34  N 
ATOM     13  CD  PRO B 726      41.090  36.242  86.114  1.00 19.46 LIG 0.13  C 
ATOM     14  CA  PRO B 726      42.202  38.378  85.811  1.00 19.64 LIG 0.19  C 
ATOM     15  CG  PRO B 726      42.170  36.405  87.150  1.00 19.20 LIG 0.02  C 
ATOM     16  CB  PRO B 726      42.510  37.847  87.212  1.00 19.97 LIG 0.04  C 
ATOM     17 O    GLU B 725      40.418  39.005  83.814  1.00 19.41 LIG-0.27  OA
BRANCH 14 18
ATOM     18  C   PRO B 726      43.373  38.169  84.856  1.00 19.81 LIG 0.20  C 
ATOM     19 OXT  PRO B 726      43.157  37.521  83.815  1.00 20.16 LIG-0.65  OA
ATOM     20 O    PRO B 726      44.491  38.603  85.164  1.00 18.50 LIG-0.65  OA
ENDBRANCH 14 18
ENDBRANCH 5 11
ENDBRANCH 3 5
BRANCH 1 21
ATOM     21  CA  PHE B 724      36.706  37.358  86.568  1.00 20.36 LIG 0.18  C 
BRANCH 21 22
ATOM     22  N   PHE B 724      35.422  37.878  86.087  1.00 20.75 LIG-0.35  N 
ATOM     23  C   GLY B 723      34.749  38.813  86.748  1.00 21.06 LIG 0.25  C 
ATOM     24 O    GLY B 723      35.158  39.316  87.797  1.00 21.29 LIG-0.27  OA
ATOM     25 H    PHE B 724      35.152  37.526  85.351  1.00 20.75 LIG 0.16  HD
BRANCH 23 26
ATOM     26  CA  GLY B 723      33.424  39.251  86.141  1.00 21.22 LIG 0.47  C 
ATOM     27  N   GLY B 723      33.587  39.970  84.843  1.00 21.24 LIG 0.61  N 
ENDBRANCH 23 26
ENDBRANCH 21 22
BRANCH 21 28
ATOM     28  CB  PHE B 724      36.629  35.850  86.815  1.00 20.22 LIG 0.07  C 
BRANCH 28 29
ATOM     29  CG  PHE B 724      37.755  35.312  87.645  1.00 20.05 LIG-0.06  A 
ATOM     30  CD1 PHE B 724      38.049  35.869  88.879  1.00 20.54 LIG 0.01  A 
ATOM     31  CE1 PHE B 724      39.100  35.375  89.649  1.00 21.50 LIG 0.00  A 
ATOM     32  CZ  PHE B 724      39.872  34.316  89.173  1.00 21.54 LIG 0.00  A 
ATOM     33  CE2 PHE B 724      39.583  33.753  87.940  1.00 21.44 LIG 0.00  A 
ATOM     34  CD2 PHE B 724      38.529  34.254  87.181  1.00 20.20 LIG 0.01  A 
ENDBRANCH 28 29
ENDBRANCH 21 28
ENDBRANCH 1 21
TORSDOF 11
ENDMDL
MODEL 23
USER: ADFR SOLUTION from run 197
USER: SCORE 10.885237 LL:  -1.794 LR:  -9.382 RR:   0.000 FEB:  -6.101
USER: RMSD 8.149104
USER: SEED 196
USER: STATUS no improvement in best in 16 clusters for 5 generations
USER: GENES 13
USER: genes 0 Translation |==|  0.34954 0.61358 0.42514
USER: genes 1 Rotation |==|  0.42312 0.35669 0.83911 0.82948
USER: genes 2 Torsion [C]-N--CA-[CB] |==|  0.77222
USER: genes 3 Torsion [N]-CA--CB-[CG] |==|  0.12805
USER: genes 4 Torsion [CA]-CB--CG-[CD] |==|  0.66223
USER: genes 5 Torsion [CB]-CG--CD-[OE1] |==|  0.23229
USER: genes 6 Torsion [N]-CA--C-[N] |==|  0.20565
USER: genes 7 Torsion [N]-CA--C-[OXT] |==|  0.63018
USER: genes 8 Torsion [N]-C--CA-[N] |==|  0.44665
USER: genes 9 Torsion [C]-CA--N-[C] |==|  0.75628
USER: genes 10 Torsion [N]-C--CA-[N] |==|  0.16660
USER: genes 11 Torsion [C]-CA--CB-[CG] |==|  0.55083
USER: genes 12 Torsion [CA]-CB--CG-[CD2] |==|  0.76224
ROOT
ATOM      1  C   PHE B 724      38.046  39.124  84.286  1.00 20.38 LIG 0.24  C 
ATOM      2 O    PHE B 724      38.902  39.733  83.647  1.00 19.94 LIG-0.27  OA
ATOM      3  N   GLU B 725      38.165  37.844  84.613  1.00 20.55 LIG-0.35  N 
ATOM      4 H    GLU B 725      37.614  37.425  85.123  1.00 20.55 LIG 0.16  HD
ENDROOT
BRANCH 3 5
ATOM      5  CA  GLU B 725      39.266  37.033  84.119  1.00 20.80 LIG 0.18  C 
BRANCH 5 6
ATOM      6  CB  GLU B 725      38.953  36.537  82.701  1.00 21.18 LIG 0.04  C 
BRANCH 6 7
ATOM      7  CG  GLU B 725      38.409  37.593  81.746  1.00 23.39 LIG 0.12  C 
BRANCH 7 8
ATOM      8  CD  GLU B 725      37.041  37.251  81.170  1.00 26.43 LIG 0.17  C 
ATOM      9 OE1  GLU B 725      36.008  37.513  81.829  1.00 27.49 LIG-0.65  OA
ATOM     10 OE2  GLU B 725      37.002  36.703  80.044  1.00 27.53 LIG-0.65  OA
ENDBRANCH 7 8
ENDBRANCH 6 7
ENDBRANCH 5 6
BRANCH 5 11
ATOM     11  C   GLU B 725      40.548  37.881  84.170  1.00 20.17 LIG 0.24  C 
ATOM     12  N   PRO B 726      41.099  38.105  85.367  1.00 19.83 LIG-0.34  N 
ATOM     13  CD  PRO B 726      40.597  37.695  86.692  1.00 19.46 LIG 0.13  C 
ATOM     14  CA  PRO B 726      42.373  38.810  85.471  1.00 19.64 LIG 0.19  C 
ATOM     15  CG  PRO B 726      41.599  38.266  87.660  1.00 19.20 LIG 0.02  C 
ATOM     16  CB  PRO B 726      42.393  39.280  86.926  1.00 19.97 LIG 0.04  C 
ATOM     17 O    GLU B 725      41.035  38.329  83.117  1.00 19.41 LIG-0.27  OA
BRANCH 14 18
ATOM     18  C   PRO B 726      43.468  37.787  85.191  1.00 19.81 LIG 0.20  C 
ATOM     19 OXT  PRO B 726      44.440  37.757  85.968  1.00 20.16 LIG-0.65  OA
ATOM     20 O    PRO B 726      43.379  37.064  84.190  1.00 18.50 LIG-0.65  OA
ENDBRANCH 14 18
ENDBRANCH 5 11
ENDBRANCH 3 5
BRANCH 1 21
ATOM     21  CA  PHE B 724      36.764  39.813  84.757  1.00 20.36 LIG 0.18  C 
BRANCH 21 22
ATOM     22  N   PHE B 724      36.902  41.274  84.764  1.00 20.75 LIG-0.35  N 
ATOM     23  C   GLY B 723      37.379  41.930  85.816  1.00 21.06 LIG 0.25  C 
ATOM     24 O    GLY B 723      37.748  41.364  86.847  1.00 21.29 LIG-0.27  OA
ATOM     25 H    PHE B 724      36.650  41.656  84.036  1.00 20.75 LIG 0.16  HD
BRANCH 23 26
ATOM     26  CA  GLY B 723      37.456  43.445  85.690  1.00 21.22 LIG 0.47  C 
ATOM     27  N   GLY B 723      36.126  44.078  85.447  1.00 21.24 LIG 0.61  N 
ENDBRANCH 23 26
ENDBRANCH 21 22
BRANCH 21 28
ATOM     28  CB  PHE B 724      35.573  39.380  83.899  1.00 20.22 LIG 0.07  C 
BRANCH 28 29
ATOM     29  CG  PHE B 724      34.393  40.299  83.990  1.00 20.05 LIG-0.06  A 
ATOM     30  CD1 PHE B 724      34.225  41.323  83.071  1.00 20.54 LIG 0.01  A 
ATOM     31  CE1 PHE B 724      33.132  42.183  83.160  1.00 21.50 LIG 0.00  A 
ATOM     32  CZ  PHE B 724      32.202  42.021  84.185  1.00 21.54 LIG 0.00  A 
ATOM     33  CE2 PHE B 724      32.363  40.999  85.107  1.00 21.44 LIG 0.00  A 
ATOM     34  CD2 PHE B 724      33.458  40.145  85.007  1.00 20.20 LIG 0.01  A 
ENDBRANCH 28 29
ENDBRANCH 21 28
ENDBRANCH 1 21
TORSDOF 11
ENDMDL
MODEL 24
USER: ADFR SOLUTION from run 9
USER: SCORE 10.166370 LL:  -2.140 LR:  -9.358 RR:   0.000 FEB:  -6.077
USER: RMSD 4.625122
USER: SEED 102460
USER: STATUS no improvement in best in 10 clusters for 5 generations
USER: GENES 13
USER: genes 0 Translation |==|  0.35130 0.44336 0.51053
USER: genes 1 Rotation |==|  0.27600 0.60527 0.16982 0.78235
USER: genes 2 Torsion [C]-N--CA-[CB] |==|  0.45388
USER: genes 3 Torsion [N]-CA--CB-[CG] |==|  0.37623
USER: genes 4 Torsion [CA]-CB--CG-[CD] |==|  0.51211
USER: genes 5 Torsion [CB]-CG--CD-[OE1] |==|  0.57564
USER: genes 6 Torsion [N]-CA--C-[N] |==|  0.90364
USER: genes 7 Torsion [N]-CA--C-[OXT] |==|  0.25403
USER: genes 8 Torsion [N]-C--CA-[N] |==|  0.45161
USER: genes 9 Torsion [C]-CA--N-[C] |==|  0.78179
USER: genes 10 Torsion [N]-C--CA-[N] |==|  0.49206
USER: genes 11 Torsion [C]-CA--CB-[CG] |==|  0.31351
USER: genes 12 Torsion [CA]-CB--CG-[CD2] |==|  0.88450
ROOT
ATOM      1  C   PHE B 724      38.077  36.698  85.887  1.00 20.38 LIG 0.24  C 
ATOM      2 O    PHE B 724      37.003  36.132  85.694  1.00 19.94 LIG-0.27  OA
ATOM      3  N   GLU B 725      38.199  38.017  85.936  1.00 20.55 LIG-0.35  N 
ATOM      4 H    GLU B 725      38.925  38.426  86.146  1.00 20.55 LIG 0.16  HD
ENDROOT
BRANCH 3 5
ATOM      5  CA  GLU B 725      37.081  38.895  85.628  1.00 20.80 LIG 0.18  C 
BRANCH 5 6
ATOM      6  CB  GLU B 725      37.368  40.309  86.153  1.00 21.18 LIG 0.04  C 
BRANCH 6 7
ATOM      7  CG  GLU B 725      37.034  41.442  85.190  1.00 23.39 LIG 0.12  C 
BRANCH 7 8
ATOM      8  CD  GLU B 725      37.429  42.820  85.704  1.00 26.43 LIG 0.17  C 
ATOM      9 OE1  GLU B 725      36.800  43.831  85.315  1.00 27.49 LIG-0.65  OA
ATOM     10 OE2  GLU B 725      38.392  42.891  86.504  1.00 27.53 LIG-0.65  OA
ENDBRANCH 7 8
ENDBRANCH 6 7
ENDBRANCH 5 6
BRANCH 5 11
ATOM     11  C   GLU B 725      36.857  38.873  84.107  1.00 20.17 LIG 0.24  C 
ATOM     12  N   PRO B 726      37.931  38.759  83.321  1.00 19.83 LIG-0.34  N 
ATOM     13  CD  PRO B 726      39.351  38.714  83.720  1.00 19.46 LIG 0.13  C 
ATOM     14  CA  PRO B 726      37.776  38.624  81.876  1.00 19.64 LIG 0.19  C 
ATOM     15  CG  PRO B 726      40.099  38.630  82.416  1.00 19.20 LIG 0.02  C 
ATOM     16  CB  PRO B 726      39.154  39.014  81.339  1.00 19.97 LIG 0.04  C 
ATOM     17 O    GLU B 725      35.702  38.960  83.651  1.00 19.41 LIG-0.27  OA
BRANCH 14 18
ATOM     18  C   PRO B 726      37.454  37.159  81.601  1.00 19.81 LIG 0.20  C 
ATOM     19 OXT  PRO B 726      36.254  36.831  81.565  1.00 20.16 LIG-0.65  OA
ATOM     20 O    PRO B 726      38.382  36.350  81.471  1.00 18.50 LIG-0.65  OA
ENDBRANCH 14 18
ENDBRANCH 5 11
ENDBRANCH 3 5
BRANCH 1 21
ATOM     21  CA  PHE B 724      39.369  35.903  86.091  1.00 20.36 LIG 0.18  C 
BRANCH 21 22
ATOM     22  N   PHE B 724      39.099  34.502  86.430  1.00 20.75 LIG-0.35  N 
ATOM     23  C   GLY B 723      38.740  34.130  87.654  1.00 21.06 LIG 0.25  C 
ATOM     24 O    GLY B 723      38.598  34.930  88.582  1.00 21.29 LIG-0.27  OA
ATOM     25 H    PHE B 724      39.193  33.955  85.773  1.00 20.75 LIG 0.16  HD
BRANCH 23 26
ATOM     26  CA  GLY B 723      38.504  32.642  87.867  1.00 21.22 LIG 0.47  C 
ATOM     27  N   GLY B 723      38.172  32.301  89.282  1.00 21.24 LIG 0.61  N 
ENDBRANCH 23 26
ENDBRANCH 21 22
BRANCH 21 28
ATOM     28  CB  PHE B 724      40.264  36.005  84.854  1.00 20.22 LIG 0.07  C 
BRANCH 28 29
ATOM     29  CG  PHE B 724      41.536  36.762  85.087  1.00 20.05 LIG-0.06  A 
ATOM     30  CD1 PHE B 724      42.735  36.304  84.566  1.00 20.54 LIG 0.01  A 
ATOM     31  CE1 PHE B 724      43.920  37.003  84.788  1.00 21.50 LIG 0.00  A 
ATOM     32  CZ  PHE B 724      43.905  38.171  85.549  1.00 21.54 LIG 0.00  A 
ATOM     33  CE2 PHE B 724      42.709  38.636  86.074  1.00 21.44 LIG 0.00  A 
ATOM     34  CD2 PHE B 724      41.532  37.930  85.843  1.00 20.20 LIG 0.01  A 
ENDBRANCH 28 29
ENDBRANCH 21 28
ENDBRANCH 1 21
TORSDOF 11
ENDMDL
MODEL 25
USER: ADFR SOLUTION from run 193
USER: SCORE 11.418949 LL:  -2.275 LR:  -9.335 RR:   0.000 FEB:  -6.053
USER: RMSD 7.643966
USER: SEED 192
USER: STATUS no improvement in best in 10 clusters for 5 generations
USER: GENES 13
USER: genes 0 Translation |==|  0.31455 0.52837 0.47679
USER: genes 1 Rotation |==|  0.28503 0.15723 0.72095 0.69361
USER: genes 2 Torsion [C]-N--CA-[CB] |==|  0.86106
USER: genes 3 Torsion [N]-CA--CB-[CG] |==|  0.89617
USER: genes 4 Torsion [CA]-CB--CG-[CD] |==|  0.37084
USER: genes 5 Torsion [CB]-CG--CD-[OE1] |==|  0.73339
USER: genes 6 Torsion [N]-CA--C-[N] |==|  0.39433
USER: genes 7 Torsion [N]-CA--C-[OXT] |==|  0.44079
USER: genes 8 Torsion [N]-C--CA-[N] |==|  0.34445
USER: genes 9 Torsion [C]-CA--N-[C] |==|  0.82807
USER: genes 10 Torsion [N]-C--CA-[N] |==|  0.46657
USER: genes 11 Torsion [C]-CA--CB-[CG] |==|  0.21401
USER: genes 12 Torsion [CA]-CB--CG-[CD2] |==|  0.04616
ROOT
ATOM      1  C   PHE B 724      37.416  37.909  85.255  1.00 20.38 LIG 0.24  C 
ATOM      2 O    PHE B 724      38.225  38.534  85.939  1.00 19.94 LIG-0.27  OA
ATOM      3  N   GLU B 725      37.346  36.585  85.251  1.00 20.55 LIG-0.35  N 
ATOM      4 H    GLU B 725      36.739  36.137  84.840  1.00 20.55 LIG 0.16  HD
ENDROOT
BRANCH 3 5
ATOM      5  CA  GLU B 725      38.319  35.771  85.962  1.00 20.80 LIG 0.18  C 
BRANCH 5 6
ATOM      6  CB  GLU B 725      39.741  36.216  85.593  1.00 21.18 LIG 0.04  C 
BRANCH 6 7
ATOM      7  CG  GLU B 725      39.938  36.626  84.137  1.00 23.39 LIG 0.12  C 
BRANCH 7 8
ATOM      8  CD  GLU B 725      40.705  37.932  83.968  1.00 26.43 LIG 0.17  C 
ATOM      9 OE1  GLU B 725      40.075  39.005  83.815  1.00 27.49 LIG-0.65  OA
ATOM     10 OE2  GLU B 725      41.957  37.880  83.978  1.00 27.53 LIG-0.65  OA
ENDBRANCH 7 8
ENDBRANCH 6 7
ENDBRANCH 5 6
BRANCH 5 11
ATOM     11  C   GLU B 725      38.042  35.897  87.469  1.00 20.17 LIG 0.24  C 
ATOM     12  N   PRO B 726      38.189  34.804  88.223  1.00 19.83 LIG-0.34  N 
ATOM     13  CD  PRO B 726      38.528  33.435  87.786  1.00 19.46 LIG 0.13  C 
ATOM     14  CA  PRO B 726      38.046  34.883  89.673  1.00 19.64 LIG 0.19  C 
ATOM     15  CG  PRO B 726      38.504  32.626  89.056  1.00 19.20 LIG 0.02  C 
ATOM     16  CB  PRO B 726      37.795  33.430  90.079  1.00 19.97 LIG 0.04  C 
ATOM     17 O    GLU B 725      37.695  36.993  87.944  1.00 19.41 LIG-0.27  OA
BRANCH 14 18
ATOM     18  C   PRO B 726      39.371  35.403  90.220  1.00 19.81 LIG 0.20  C 
ATOM     19 OXT  PRO B 726      39.361  35.929  91.348  1.00 20.16 LIG-0.65  OA
ATOM     20 O    PRO B 726      40.387  35.329  89.516  1.00 18.50 LIG-0.65  OA
ENDBRANCH 14 18
ENDBRANCH 5 11
ENDBRANCH 3 5
BRANCH 1 21
ATOM     21  CA  PHE B 724      36.417  38.630  84.348  1.00 20.36 LIG 0.18  C 
BRANCH 21 22
ATOM     22  N   PHE B 724      35.601  39.595  85.094  1.00 20.75 LIG-0.35  N 
ATOM     23  C   GLY B 723      34.792  39.219  86.079  1.00 21.06 LIG 0.25  C 
ATOM     24 O    GLY B 723      34.678  38.046  86.441  1.00 21.29 LIG-0.27  OA
ATOM     25 H    PHE B 724      35.696  40.410  84.838  1.00 20.75 LIG 0.16  HD
BRANCH 23 26
ATOM     26  CA  GLY B 723      33.996  40.324  86.758  1.00 21.22 LIG 0.47  C 
ATOM     27  N   GLY B 723      32.913  39.802  87.644  1.00 21.24 LIG 0.61  N 
ENDBRANCH 23 26
ENDBRANCH 21 22
BRANCH 21 28
ATOM     28  CB  PHE B 724      37.140  39.310  83.183  1.00 20.22 LIG 0.07  C 
BRANCH 28 29
ATOM     29  CG  PHE B 724      37.559  38.367  82.097  1.00 20.05 LIG-0.06  A 
ATOM     30  CD1 PHE B 724      38.494  38.753  81.150  1.00 20.54 LIG 0.01  A 
ATOM     31  CE1 PHE B 724      38.879  37.880  80.134  1.00 21.50 LIG 0.00  A 
ATOM     32  CZ  PHE B 724      38.314  36.607  80.062  1.00 21.54 LIG 0.00  A 
ATOM     33  CE2 PHE B 724      37.379  36.214  81.006  1.00 21.44 LIG 0.00  A 
ATOM     34  CD2 PHE B 724      37.004  37.095  82.016  1.00 20.20 LIG 0.01  A 
ENDBRANCH 28 29
ENDBRANCH 21 28
ENDBRANCH 1 21
TORSDOF 11
ENDMDL
MODEL 26
USER: ADFR SOLUTION from run 58
USER: SCORE 10.689512 LL:  -2.448 LR:  -9.298 RR:   0.000 FEB:  -6.017
USER: RMSD 7.961702
USER: SEED 57
USER: STATUS no improvement in best in 13 clusters for 5 generations
USER: GENES 13
USER: genes 0 Translation |==|  0.56772 0.45693 0.45947
USER: genes 1 Rotation |==|  0.27918 0.45295 0.92220 0.64412
USER: genes 2 Torsion [C]-N--CA-[CB] |==|  0.19721
USER: genes 3 Torsion [N]-CA--CB-[CG] |==|  0.17962
USER: genes 4 Torsion [CA]-CB--CG-[CD] |==|  0.74700
USER: genes 5 Torsion [CB]-CG--CD-[OE1] |==|  0.95950
USER: genes 6 Torsion [N]-CA--C-[N] |==|  0.40907
USER: genes 7 Torsion [N]-CA--C-[OXT] |==|  0.94571
USER: genes 8 Torsion [N]-C--CA-[N] |==|  0.05000
USER: genes 9 Torsion [C]-CA--N-[C] |==|  0.71973
USER: genes 10 Torsion [N]-C--CA-[N] |==|  0.59113
USER: genes 11 Torsion [C]-CA--CB-[CG] |==|  0.36742
USER: genes 12 Torsion [CA]-CB--CG-[CD2] |==|  0.52149
ROOT
ATOM      1  C   PHE B 724      41.973  36.891  84.930  1.00 20.38 LIG 0.24  C 
ATOM      2 O    PHE B 724      42.801  37.261  84.099  1.00 19.94 LIG-0.27  OA
ATOM      3  N   GLU B 725      42.303  36.512  86.157  1.00 20.55 LIG-0.35  N 
ATOM      4 H    GLU B 725      41.733  36.325  86.772  1.00 20.55 LIG 0.16  HD
ENDROOT
BRANCH 3 5
ATOM      5  CA  GLU B 725      43.693  36.381  86.563  1.00 20.80 LIG 0.18  C 
BRANCH 5 6
ATOM      6  CB  GLU B 725      44.336  37.770  86.681  1.00 21.18 LIG 0.04  C 
BRANCH 6 7
ATOM      7  CG  GLU B 725      43.754  38.667  87.768  1.00 23.39 LIG 0.12  C 
BRANCH 7 8
ATOM      8  CD  GLU B 725      42.611  39.551  87.285  1.00 26.43 LIG 0.17  C 
ATOM      9 OE1  GLU B 725      42.419  39.699  86.055  1.00 27.49 LIG-0.65  OA
ATOM     10 OE2  GLU B 725      41.902  40.114  88.151  1.00 27.53 LIG-0.65  OA
ENDBRANCH 7 8
ENDBRANCH 6 7
ENDBRANCH 5 6
BRANCH 5 11
ATOM     11  C   GLU B 725      43.735  35.605  87.891  1.00 20.17 LIG 0.24  C 
ATOM     12  N   PRO B 726      44.786  34.812  88.116  1.00 19.83 LIG-0.34  N 
ATOM     13  CD  PRO B 726      45.914  34.517  87.212  1.00 19.46 LIG 0.13  C 
ATOM     14  CA  PRO B 726      44.936  34.134  89.400  1.00 19.64 LIG 0.19  C 
ATOM     15  CG  PRO B 726      46.754  33.530  87.979  1.00 19.20 LIG 0.02  C 
ATOM     16  CB  PRO B 726      45.918  33.004  89.085  1.00 19.97 LIG 0.04  C 
ATOM     17 O    GLU B 725      42.807  35.733  88.710  1.00 19.41 LIG-0.27  OA
BRANCH 14 18
ATOM     18  C   PRO B 726      45.532  35.149  90.368  1.00 19.81 LIG 0.20  C 
ATOM     19 OXT  PRO B 726      46.108  36.139  89.880  1.00 20.16 LIG-0.65  OA
ATOM     20 O    PRO B 726      45.466  34.936  91.586  1.00 18.50 LIG-0.65  OA
ENDBRANCH 14 18
ENDBRANCH 5 11
ENDBRANCH 3 5
BRANCH 1 21
ATOM     21  CA  PHE B 724      40.480  36.845  84.599  1.00 20.36 LIG 0.18  C 
BRANCH 21 22
ATOM     22  N   PHE B 724      39.655  36.795  85.811  1.00 20.75 LIG-0.35  N 
ATOM     23  C   GLY B 723      39.121  35.661  86.253  1.00 21.06 LIG 0.25  C 
ATOM     24 O    GLY B 723      39.290  34.578  85.689  1.00 21.29 LIG-0.27  OA
ATOM     25 H    PHE B 724      39.551  37.555  86.200  1.00 20.75 LIG 0.16  HD
BRANCH 23 26
ATOM     26  CA  GLY B 723      38.277  35.757  87.515  1.00 21.22 LIG 0.47  C 
ATOM     27  N   GLY B 723      38.359  34.535  88.366  1.00 21.24 LIG 0.61  N 
ENDBRANCH 23 26
ENDBRANCH 21 22
BRANCH 21 28
ATOM     28  CB  PHE B 724      40.087  38.033  83.718  1.00 20.22 LIG 0.07  C 
BRANCH 28 29
ATOM     29  CG  PHE B 724      39.260  37.656  82.526  1.00 20.05 LIG-0.06  A 
ATOM     30  CD1 PHE B 724      38.792  36.361  82.373  1.00 20.54 LIG 0.01  A 
ATOM     31  CE1 PHE B 724      38.029  36.008  81.262  1.00 21.50 LIG 0.00  A 
ATOM     32  CZ  PHE B 724      37.739  36.962  80.287  1.00 21.54 LIG 0.00  A 
ATOM     33  CE2 PHE B 724      38.204  38.260  80.433  1.00 21.44 LIG 0.00  A 
ATOM     34  CD2 PHE B 724      38.963  38.600  81.549  1.00 20.20 LIG 0.01  A 
ENDBRANCH 28 29
ENDBRANCH 21 28
ENDBRANCH 1 21
TORSDOF 11
ENDMDL
MODEL 27
USER: ADFR SOLUTION from run 99
USER: SCORE 10.428289 LL:  -2.279 LR:  -9.278 RR:   0.000 FEB:  -5.996
USER: RMSD 2.216306
USER: SEED 98
USER: STATUS no improvement in best in 20 clusters for 5 generations
USER: GENES 13
USER: genes 0 Translation |==|  0.48131 0.54388 0.52092
USER: genes 1 Rotation |==|  0.77501 0.68743 0.83956 0.65470
USER: genes 2 Torsion [C]-N--CA-[CB] |==|  0.80692
USER: genes 3 Torsion [N]-CA--CB-[CG] |==|  0.21892
USER: genes 4 Torsion [CA]-CB--CG-[CD] |==|  0.67138
USER: genes 5 Torsion [CB]-CG--CD-[OE1] |==|  0.03147
USER: genes 6 Torsion [N]-CA--C-[N] |==|  0.50556
USER: genes 7 Torsion [N]-CA--C-[OXT] |==|  0.73469
USER: genes 8 Torsion [N]-C--CA-[N] |==|  0.78992
USER: genes 9 Torsion [C]-CA--N-[C] |==|  0.77145
USER: genes 10 Torsion [N]-C--CA-[N] |==|  0.73726
USER: genes 11 Torsion [C]-CA--CB-[CG] |==|  0.72629
USER: genes 12 Torsion [CA]-CB--CG-[CD2] |==|  0.25966
ROOT
ATOM      1  C   PHE B 724      40.418  38.130  86.082  1.00 20.38 LIG 0.24  C 
ATOM      2 O    PHE B 724      39.239  38.444  85.922  1.00 19.94 LIG-0.27  OA
ATOM      3  N   GLU B 725      41.084  37.369  85.226  1.00 20.55 LIG-0.35  N 
ATOM      4 H    GLU B 725      41.926  37.204  85.282  1.00 20.55 LIG 0.16  HD
ENDROOT
BRANCH 3 5
ATOM      5  CA  GLU B 725      40.421  36.737  84.096  1.00 20.80 LIG 0.18  C 
BRANCH 5 6
ATOM      6  CB  GLU B 725      39.481  35.631  84.594  1.00 21.18 LIG 0.04  C 
BRANCH 6 7
ATOM      7  CG  GLU B 725      38.144  36.112  85.148  1.00 23.39 LIG 0.12  C 
BRANCH 7 8
ATOM      8  CD  GLU B 725      37.929  35.763  86.614  1.00 26.43 LIG 0.17  C 
ATOM      9 OE1  GLU B 725      38.888  35.331  87.297  1.00 27.49 LIG-0.65  OA
ATOM     10 OE2  GLU B 725      36.779  35.916  87.089  1.00 27.53 LIG-0.65  OA
ENDBRANCH 7 8
ENDBRANCH 6 7
ENDBRANCH 5 6
BRANCH 5 11
ATOM     11  C   GLU B 725      39.673  37.826  83.307  1.00 20.17 LIG 0.24  C 
ATOM     12  N   PRO B 726      38.959  37.445  82.244  1.00 19.83 LIG-0.34  N 
ATOM     13  CD  PRO B 726      38.838  36.093  81.665  1.00 19.46 LIG 0.13  C 
ATOM     14  CA  PRO B 726      38.142  38.413  81.520  1.00 19.64 LIG 0.19  C 
ATOM     15  CG  PRO B 726      37.951  36.284  80.463  1.00 19.20 LIG 0.02  C 
ATOM     16  CB  PRO B 726      37.915  37.736  80.167  1.00 19.97 LIG 0.04  C 
ATOM     17 O    GLU B 725      39.747  39.013  83.671  1.00 19.41 LIG-0.27  OA
BRANCH 14 18
ATOM     18  C   PRO B 726      36.842  38.567  82.302  1.00 19.81 LIG 0.20  C 
ATOM     19 OXT  PRO B 726      35.869  37.879  81.940  1.00 20.16 LIG-0.65  OA
ATOM     20 O    PRO B 726      36.784  39.390  83.225  1.00 18.50 LIG-0.65  OA
ENDBRANCH 14 18
ENDBRANCH 5 11
ENDBRANCH 3 5
BRANCH 1 21
ATOM     21  CA  PHE B 724      41.209  38.608  87.301  1.00 20.36 LIG 0.18  C 
BRANCH 21 22
ATOM     22  N   PHE B 724      41.388  37.538  88.288  1.00 20.75 LIG-0.35  N 
ATOM     23  C   GLY B 723      40.445  37.231  89.172  1.00 21.06 LIG 0.25  C 
ATOM     24 O    GLY B 723      39.357  37.809  89.218  1.00 21.29 LIG-0.27  OA
ATOM     25 H    PHE B 724      42.147  37.137  88.241  1.00 20.75 LIG 0.16  HD
BRANCH 23 26
ATOM     26  CA  GLY B 723      40.771  36.108  90.146  1.00 21.22 LIG 0.47  C 
ATOM     27  N   GLY B 723      40.272  34.777  89.689  1.00 21.24 LIG 0.61  N 
ENDBRANCH 23 26
ENDBRANCH 21 22
BRANCH 21 28
ATOM     28  CB  PHE B 724      42.558  39.191  86.873  1.00 20.22 LIG 0.07  C 
BRANCH 28 29
ATOM     29  CG  PHE B 724      43.703  38.235  87.012  1.00 20.05 LIG-0.06  A 
ATOM     30  CD1 PHE B 724      44.392  38.129  88.209  1.00 20.54 LIG 0.01  A 
ATOM     31  CE1 PHE B 724      45.462  37.245  88.337  1.00 21.50 LIG 0.00  A 
ATOM     32  CZ  PHE B 724      45.852  36.465  87.249  1.00 21.54 LIG 0.00  A 
ATOM     33  CE2 PHE B 724      45.167  36.564  86.049  1.00 21.44 LIG 0.00  A 
ATOM     34  CD2 PHE B 724      44.098  37.449  85.934  1.00 20.20 LIG 0.01  A 
ENDBRANCH 28 29
ENDBRANCH 21 28
ENDBRANCH 1 21
TORSDOF 11
ENDMDL
MODEL 28
USER: ADFR SOLUTION from run 171
USER: SCORE 10.548988 LL:  -2.569 LR:  -9.278 RR:   0.000 FEB:  -5.996
USER: RMSD 7.779088
USER: SEED 170
USER: STATUS no improvement in best in 32 clusters for 5 generations
USER: GENES 13
USER: genes 0 Translation |==|  0.45387 0.40293 0.47661
USER: genes 1 Rotation |==|  0.30876 0.55289 0.95250 0.57662
USER: genes 2 Torsion [C]-N--CA-[CB] |==|  0.29444
USER: genes 3 Torsion [N]-CA--CB-[CG] |==|  0.67811
USER: genes 4 Torsion [CA]-CB--CG-[CD] |==|  0.06467
USER: genes 5 Torsion [CB]-CG--CD-[OE1] |==|  0.24567
USER: genes 6 Torsion [N]-CA--C-[N] |==|  0.44392
USER: genes 7 Torsion [N]-CA--C-[OXT] |==|  0.92706
USER: genes 8 Torsion [N]-C--CA-[N] |==|  0.96723
USER: genes 9 Torsion [C]-CA--N-[C] |==|  0.79589
USER: genes 10 Torsion [N]-C--CA-[N] |==|  0.51634
USER: genes 11 Torsion [C]-CA--CB-[CG] |==|  0.16266
USER: genes 12 Torsion [CA]-CB--CG-[CD2] |==|  0.19540
ROOT
ATOM      1  C   PHE B 724      39.924  36.122  85.251  1.00 20.38 LIG 0.24  C 
ATOM      2 O    PHE B 724      40.491  36.130  84.160  1.00 19.94 LIG-0.27  OA
ATOM      3  N   GLU B 725      40.561  36.323  86.396  1.00 20.55 LIG-0.35  N 
ATOM      4 H    GLU B 725      40.169  36.397  87.158  1.00 20.55 LIG 0.16  HD
ENDROOT
BRANCH 3 5
ATOM      5  CA  GLU B 725      42.010  36.438  86.450  1.00 20.80 LIG 0.18  C 
BRANCH 5 6
ATOM      6  CB  GLU B 725      42.409  37.903  86.678  1.00 21.18 LIG 0.04  C 
BRANCH 6 7
ATOM      7  CG  GLU B 725      43.189  38.551  85.540  1.00 23.39 LIG 0.12  C 
BRANCH 7 8
ATOM      8  CD  GLU B 725      42.972  37.880  84.190  1.00 26.43 LIG 0.17  C 
ATOM      9 OE1  GLU B 725      42.026  38.255  83.457  1.00 27.49 LIG-0.65  OA
ATOM     10 OE2  GLU B 725      43.754  36.958  83.862  1.00 27.53 LIG-0.65  OA
ENDBRANCH 7 8
ENDBRANCH 6 7
ENDBRANCH 5 6
BRANCH 5 11
ATOM     11  C   GLU B 725      42.525  35.513  87.566  1.00 20.17 LIG 0.24  C 
ATOM     12  N   PRO B 726      43.808  35.146  87.526  1.00 19.83 LIG-0.34  N 
ATOM     13  CD  PRO B 726      44.815  35.461  86.495  1.00 19.46 LIG 0.13  C 
ATOM     14  CA  PRO B 726      44.383  34.358  88.613  1.00 19.64 LIG 0.19  C 
ATOM     15  CG  PRO B 726      46.055  34.743  86.957  1.00 19.20 LIG 0.02  C 
ATOM     16  CB  PRO B 726      45.638  33.755  87.980  1.00 19.97 LIG 0.04  C 
ATOM     17 O    GLU B 725      41.749  35.137  88.463  1.00 19.41 LIG-0.27  OA
BRANCH 14 18
ATOM     18  C   PRO B 726      44.726  35.335  89.732  1.00 19.81 LIG 0.20  C 
ATOM     19 OXT  PRO B 726      44.962  36.515  89.414  1.00 20.16 LIG-0.65  OA
ATOM     20 O    PRO B 726      44.804  34.920  90.896  1.00 18.50 LIG-0.65  OA
ENDBRANCH 14 18
ENDBRANCH 5 11
ENDBRANCH 3 5
BRANCH 1 21
ATOM     21  CA  PHE B 724      38.418  35.875  85.363  1.00 20.36 LIG 0.18  C 
BRANCH 21 22
ATOM     22  N   PHE B 724      38.006  35.636  86.751  1.00 20.75 LIG-0.35  N 
ATOM     23  C   GLY B 723      38.276  34.495  87.378  1.00 21.06 LIG 0.25  C 
ATOM     24 O    GLY B 723      38.897  33.571  86.848  1.00 21.29 LIG-0.27  OA
ATOM     25 H    PHE B 724      37.582  36.290  87.112  1.00 20.75 LIG 0.16  HD
BRANCH 23 26
ATOM     26  CA  GLY B 723      37.779  34.378  88.811  1.00 21.22 LIG 0.47  C 
ATOM     27  N   GLY B 723      38.241  33.130  89.488  1.00 21.24 LIG 0.61  N 
ENDBRANCH 23 26
ENDBRANCH 21 22
BRANCH 21 28
ATOM     28  CB  PHE B 724      37.635  37.041  84.753  1.00 20.22 LIG 0.07  C 
BRANCH 28 29
ATOM     29  CG  PHE B 724      37.950  37.294  83.310  1.00 20.05 LIG-0.06  A 
ATOM     30  CD1 PHE B 724      38.641  38.432  82.928  1.00 20.54 LIG 0.01  A 
ATOM     31  CE1 PHE B 724      38.928  38.672  81.586  1.00 21.50 LIG 0.00  A 
ATOM     32  CZ  PHE B 724      38.508  37.765  80.614  1.00 21.54 LIG 0.00  A 
ATOM     33  CE2 PHE B 724      37.816  36.624  80.988  1.00 21.44 LIG 0.00  A 
ATOM     34  CD2 PHE B 724      37.538  36.395  82.332  1.00 20.20 LIG 0.01  A 
ENDBRANCH 28 29
ENDBRANCH 21 28
ENDBRANCH 1 21
TORSDOF 11
ENDMDL
MODEL 29
USER: ADFR SOLUTION from run 129
USER: SCORE 10.663269 LL:  -2.964 LR:  -9.258 RR:   0.000 FEB:  -5.977
USER: RMSD 7.520845
USER: SEED 128
USER: STATUS no improvement in best in 14 clusters for 5 generations
USER: GENES 13
USER: genes 0 Translation |==|  0.54880 0.52160 0.44931
USER: genes 1 Rotation |==|  0.17569 0.59297 0.86470 0.55633
USER: genes 2 Torsion [C]-N--CA-[CB] |==|  0.41792
USER: genes 3 Torsion [N]-CA--CB-[CG] |==|  0.16305
USER: genes 4 Torsion [CA]-CB--CG-[CD] |==|  0.76706
USER: genes 5 Torsion [CB]-CG--CD-[OE1] |==|  0.75505
USER: genes 6 Torsion [N]-CA--C-[N] |==|  0.32031
USER: genes 7 Torsion [N]-CA--C-[OXT] |==|  0.43432
USER: genes 8 Torsion [N]-C--CA-[N] |==|  0.95280
USER: genes 9 Torsion [C]-CA--N-[C] |==|  0.76667
USER: genes 10 Torsion [N]-C--CA-[N] |==|  0.25909
USER: genes 11 Torsion [C]-CA--CB-[CG] |==|  0.43419
USER: genes 12 Torsion [CA]-CB--CG-[CD2] |==|  0.47908
ROOT
ATOM      1  C   PHE B 724      41.632  37.813  84.740  1.00 20.38 LIG 0.24  C 
ATOM      2 O    PHE B 724      42.707  37.578  84.190  1.00 19.94 LIG-0.27  OA
ATOM      3  N   GLU B 725      41.543  38.383  85.933  1.00 20.55 LIG-0.35  N 
ATOM      4 H    GLU B 725      40.802  38.624  86.296  1.00 20.55 LIG 0.16  HD
ENDROOT
BRANCH 3 5
ATOM      5  CA  GLU B 725      42.724  38.652  86.737  1.00 20.80 LIG 0.18  C 
BRANCH 5 6
ATOM      6  CB  GLU B 725      42.482  39.883  87.624  1.00 21.18 LIG 0.04  C 
BRANCH 6 7
ATOM      7  CG  GLU B 725      41.299  39.775  88.579  1.00 23.39 LIG 0.12  C 
BRANCH 7 8
ATOM      8  CD  GLU B 725      39.963  40.130  87.941  1.00 26.43 LIG 0.17  C 
ATOM      9 OE1  GLU B 725      39.573  41.321  87.940  1.00 27.49 LIG-0.65  OA
ATOM     10 OE2  GLU B 725      39.288  39.200  87.441  1.00 27.53 LIG-0.65  OA
ENDBRANCH 7 8
ENDBRANCH 6 7
ENDBRANCH 5 6
BRANCH 5 11
ATOM     11  C   GLU B 725      43.041  37.393  87.562  1.00 20.17 LIG 0.24  C 
ATOM     12  N   PRO B 726      44.188  36.757  87.310  1.00 19.83 LIG-0.34  N 
ATOM     13  CD  PRO B 726      45.193  37.066  86.275  1.00 19.46 LIG 0.13  C 
ATOM     14  CA  PRO B 726      44.596  35.621  88.131  1.00 19.64 LIG 0.19  C 
ATOM     15  CG  PRO B 726      46.233  35.989  86.436  1.00 19.20 LIG 0.02  C 
ATOM     16  CB  PRO B 726      45.629  34.911  87.254  1.00 19.97 LIG 0.04  C 
ATOM     17 O    GLU B 725      42.238  37.005  88.429  1.00 19.41 LIG-0.27  OA
BRANCH 14 18
ATOM     18  C   PRO B 726      45.225  36.193  89.396  1.00 19.81 LIG 0.20  C 
ATOM     19 OXT  PRO B 726      45.235  35.472  90.411  1.00 20.16 LIG-0.65  OA
ATOM     20 O    PRO B 726      45.656  37.354  89.387  1.00 18.50 LIG-0.65  OA
ENDBRANCH 14 18
ENDBRANCH 5 11
ENDBRANCH 3 5
BRANCH 1 21
ATOM     21  CA  PHE B 724      40.303  37.458  84.071  1.00 20.36 LIG 0.18  C 
BRANCH 21 22
ATOM     22  N   PHE B 724      39.195  37.449  85.032  1.00 20.75 LIG-0.35  N 
ATOM     23  C   GLY B 723      38.925  36.388  85.785  1.00 21.06 LIG 0.25  C 
ATOM     24 O    GLY B 723      39.587  35.349  85.740  1.00 21.29 LIG-0.27  OA
ATOM     25 H    PHE B 724      38.746  38.182  85.061  1.00 20.75 LIG 0.16  HD
BRANCH 23 26
ATOM     26  CA  GLY B 723      37.739  36.513  86.730  1.00 21.22 LIG 0.47  C 
ATOM     27  N   GLY B 723      36.466  36.005  86.139  1.00 21.24 LIG 0.61  N 
ENDBRANCH 23 26
ENDBRANCH 21 22
BRANCH 21 28
ATOM     28  CB  PHE B 724      40.013  38.411  82.909  1.00 20.22 LIG 0.07  C 
BRANCH 28 29
ATOM     29  CG  PHE B 724      39.087  37.845  81.877  1.00 20.05 LIG-0.06  A 
ATOM     30  CD1 PHE B 724      38.706  36.514  81.925  1.00 20.54 LIG 0.01  A 
ATOM     31  CE1 PHE B 724      37.850  35.984  80.961  1.00 21.50 LIG 0.00  A 
ATOM     32  CZ  PHE B 724      37.378  36.796  79.931  1.00 21.54 LIG 0.00  A 
ATOM     33  CE2 PHE B 724      37.754  38.129  79.876  1.00 21.44 LIG 0.00  A 
ATOM     34  CD2 PHE B 724      38.608  38.646  80.846  1.00 20.20 LIG 0.01  A 
ENDBRANCH 28 29
ENDBRANCH 21 28
ENDBRANCH 1 21
TORSDOF 11
ENDMDL
MODEL 30
USER: ADFR SOLUTION from run 163
USER: SCORE 11.482019 LL:  -3.343 LR:  -9.259 RR:   0.000 FEB:  -5.978
USER: RMSD 5.281750
USER: SEED 162
USER: STATUS no improvement in best in 14 clusters for 5 generations
USER: GENES 13
USER: genes 0 Translation |==|  0.42397 0.36889 0.50868
USER: genes 1 Rotation |==|  0.51571 0.34246 0.17075 0.84136
USER: genes 2 Torsion [C]-N--CA-[CB] |==|  0.17228
USER: genes 3 Torsion [N]-CA--CB-[CG] |==|  0.54922
USER: genes 4 Torsion [CA]-CB--CG-[CD] |==|  0.71841
USER: genes 5 Torsion [CB]-CG--CD-[OE1] |==|  0.46464
USER: genes 6 Torsion [N]-CA--C-[N] |==|  0.84005
USER: genes 7 Torsion [N]-CA--C-[OXT] |==|  0.96283
USER: genes 8 Torsion [N]-C--CA-[N] |==|  0.99669
USER: genes 9 Torsion [C]-CA--N-[C] |==|  0.19736
USER: genes 10 Torsion [N]-C--CA-[N] |==|  0.39565
USER: genes 11 Torsion [C]-CA--CB-[CG] |==|  0.42347
USER: genes 12 Torsion [CA]-CB--CG-[CD2] |==|  0.43558
ROOT
ATOM      1  C   PHE B 724      39.386  35.637  85.853  1.00 20.38 LIG 0.24  C 
ATOM      2 O    PHE B 724      39.629  34.798  84.987  1.00 19.94 LIG-0.27  OA
ATOM      3  N   GLU B 725      38.973  36.865  85.571  1.00 20.55 LIG-0.35  N 
ATOM      4 H    GLU B 725      38.725  37.437  86.163  1.00 20.55 LIG 0.16  HD
ENDROOT
BRANCH 3 5
ATOM      5  CA  GLU B 725      38.907  37.349  84.201  1.00 20.80 LIG 0.18  C 
BRANCH 5 6
ATOM      6  CB  GLU B 725      37.913  36.501  83.396  1.00 21.18 LIG 0.04  C 
BRANCH 6 7
ATOM      7  CG  GLU B 725      38.044  36.606  81.880  1.00 23.39 LIG 0.12  C 
BRANCH 7 8
ATOM      8  CD  GLU B 725      37.004  37.513  81.237  1.00 26.43 LIG 0.17  C 
ATOM      9 OE1  GLU B 725      37.147  37.872  80.045  1.00 27.49 LIG-0.65  OA
ATOM     10 OE2  GLU B 725      36.033  37.880  81.940  1.00 27.53 LIG-0.65  OA
ENDBRANCH 7 8
ENDBRANCH 6 7
ENDBRANCH 5 6
BRANCH 5 11
ATOM     11  C   GLU B 725      38.512  38.835  84.235  1.00 20.17 LIG 0.24  C 
ATOM     12  N   PRO B 726      37.365  39.160  84.837  1.00 19.83 LIG-0.34  N 
ATOM     13  CD  PRO B 726      36.363  38.258  85.437  1.00 19.46 LIG 0.13  C 
ATOM     14  CA  PRO B 726      36.988  40.561  84.997  1.00 19.64 LIG 0.19  C 
ATOM     15  CG  PRO B 726      35.273  39.181  85.913  1.00 19.20 LIG 0.02  C 
ATOM     16  CB  PRO B 726      35.482  40.490  85.250  1.00 19.97 LIG 0.04  C 
ATOM     17 O    GLU B 725      39.255  39.683  83.711  1.00 19.41 LIG-0.27  OA
BRANCH 14 18
ATOM     18  C   PRO B 726      37.743  41.086  86.213  1.00 19.81 LIG 0.20  C 
ATOM     19 OXT  PRO B 726      38.284  40.250  86.959  1.00 20.16 LIG-0.65  OA
ATOM     20 O    PRO B 726      37.754  42.303  86.440  1.00 18.50 LIG-0.65  OA
ENDBRANCH 14 18
ENDBRANCH 5 11
ENDBRANCH 3 5
BRANCH 1 21
ATOM     21  CA  PHE B 724      39.543  35.313  87.340  1.00 20.36 LIG 0.18  C 
BRANCH 21 22
ATOM     22  N   PHE B 724      39.224  36.468  88.186  1.00 20.75 LIG-0.35  N 
ATOM     23  C   GLY B 723      37.979  36.910  88.333  1.00 21.06 LIG 0.25  C 
ATOM     24 O    GLY B 723      37.011  36.378  87.785  1.00 21.29 LIG-0.27  OA
ATOM     25 H    PHE B 724      39.905  36.825  88.569  1.00 20.75 LIG 0.16  HD
BRANCH 23 26
ATOM     26  CA  GLY B 723      37.794  38.125  89.230  1.00 21.22 LIG 0.47  C 
ATOM     27  N   GLY B 723      36.750  39.067  88.728  1.00 21.24 LIG 0.61  N 
ENDBRANCH 23 26
ENDBRANCH 21 22
BRANCH 21 28
ATOM     28  CB  PHE B 724      38.688  34.102  87.721  1.00 20.22 LIG 0.07  C 
BRANCH 28 29
ATOM     29  CG  PHE B 724      39.223  33.324  88.884  1.00 20.05 LIG-0.06  A 
ATOM     30  CD1 PHE B 724      40.569  33.375  89.208  1.00 20.54 LIG 0.01  A 
ATOM     31  CE1 PHE B 724      41.069  32.646  90.285  1.00 21.50 LIG 0.00  A 
ATOM     32  CZ  PHE B 724      40.211  31.849  91.042  1.00 21.54 LIG 0.00  A 
ATOM     33  CE2 PHE B 724      38.863  31.794  90.725  1.00 21.44 LIG 0.00  A 
ATOM     34  CD2 PHE B 724      38.376  32.528  89.647  1.00 20.20 LIG 0.01  A 
ENDBRANCH 28 29
ENDBRANCH 21 28
ENDBRANCH 1 21
TORSDOF 11
ENDMDL
MODEL 31
USER: ADFR SOLUTION from run 137
USER: SCORE 10.546383 LL:  -2.048 LR:  -9.261 RR:   0.000 FEB:  -5.979
USER: RMSD 6.266494
USER: SEED 136
USER: STATUS no improvement in best in 19 clusters for 5 generations
USER: GENES 13
USER: genes 0 Translation |==|  0.31872 0.54679 0.44252
USER: genes 1 Rotation |==|  0.90343 0.54152 0.27906 0.69158
USER: genes 2 Torsion [C]-N--CA-[CB] |==|  0.82778
USER: genes 3 Torsion [N]-CA--CB-[CG] |==|  0.45604
USER: genes 4 Torsion [CA]-CB--CG-[CD] |==|  0.65386
USER: genes 5 Torsion [CB]-CG--CD-[OE1] |==|  0.36714
USER: genes 6 Torsion [N]-CA--C-[N] |==|  0.26182
USER: genes 7 Torsion [N]-CA--C-[OXT] |==|  0.94139
USER: genes 8 Torsion [N]-C--CA-[N] |==|  0.36099
USER: genes 9 Torsion [C]-CA--N-[C] |==|  0.82295
USER: genes 10 Torsion [N]-C--CA-[N] |==|  0.20850
USER: genes 11 Torsion [C]-CA--CB-[CG] |==|  0.86698
USER: genes 12 Torsion [CA]-CB--CG-[CD2] |==|  0.33573
ROOT
ATOM      1  C   PHE B 724      37.491  38.172  84.612  1.00 20.38 LIG 0.24  C 
ATOM      2 O    PHE B 724      38.329  39.063  84.482  1.00 19.94 LIG-0.27  OA
ATOM      3  N   GLU B 725      36.336  38.354  85.238  1.00 20.55 LIG-0.35  N 
ATOM      4 H    GLU B 725      35.709  37.767  85.271  1.00 20.55 LIG 0.16  HD
ENDROOT
BRANCH 3 5
ATOM      5  CA  GLU B 725      36.037  39.596  85.934  1.00 20.80 LIG 0.18  C 
BRANCH 5 6
ATOM      6  CB  GLU B 725      37.040  39.808  87.076  1.00 21.18 LIG 0.04  C 
BRANCH 6 7
ATOM      7  CG  GLU B 725      37.090  41.222  87.645  1.00 23.39 LIG 0.12  C 
BRANCH 7 8
ATOM      8  CD  GLU B 725      38.481  41.842  87.622  1.00 26.43 LIG 0.17  C 
ATOM      9 OE1  GLU B 725      38.634  43.005  87.180  1.00 27.49 LIG-0.65  OA
ATOM     10 OE2  GLU B 725      39.437  41.150  88.044  1.00 27.53 LIG-0.65  OA
ENDBRANCH 7 8
ENDBRANCH 6 7
ENDBRANCH 5 6
BRANCH 5 11
ATOM     11  C   GLU B 725      36.070  40.742  84.909  1.00 20.17 LIG 0.24  C 
ATOM     12  N   PRO B 726      34.915  41.105  84.344  1.00 19.83 LIG-0.34  N 
ATOM     13  CD  PRO B 726      33.582  40.498  84.524  1.00 19.46 LIG 0.13  C 
ATOM     14  CA  PRO B 726      34.864  42.255  83.446  1.00 19.64 LIG 0.19  C 
ATOM     15  CG  PRO B 726      32.689  41.290  83.607  1.00 19.20 LIG 0.02  C 
ATOM     16  CB  PRO B 726      33.565  42.032  82.670  1.00 19.97 LIG 0.04  C 
ATOM     17 O    GLU B 725      37.150  41.294  84.635  1.00 19.41 LIG-0.27  OA
BRANCH 14 18
ATOM     18  C   PRO B 726      34.792  43.498  84.325  1.00 19.81 LIG 0.20  C 
ATOM     19 OXT  PRO B 726      34.392  43.354  85.495  1.00 20.16 LIG-0.65  OA
ATOM     20 O    PRO B 726      35.086  44.600  83.840  1.00 18.50 LIG-0.65  OA
ENDBRANCH 14 18
ENDBRANCH 5 11
ENDBRANCH 3 5
BRANCH 1 21
ATOM     21  CA  PHE B 724      37.728  36.769  84.050  1.00 20.36 LIG 0.18  C 
BRANCH 21 22
ATOM     22  N   PHE B 724      38.150  36.809  82.645  1.00 20.75 LIG-0.35  N 
ATOM     23  C   GLY B 723      37.359  37.280  81.687  1.00 21.06 LIG 0.25  C 
ATOM     24 O    GLY B 723      36.231  37.725  81.908  1.00 21.29 LIG-0.27  OA
ATOM     25 H    PHE B 724      38.941  36.505  82.505  1.00 20.75 LIG 0.16  HD
BRANCH 23 26
ATOM     26  CA  GLY B 723      37.920  37.250  80.272  1.00 21.22 LIG 0.47  C 
ATOM     27  N   GLY B 723      37.926  35.882  79.676  1.00 21.24 LIG 0.61  N 
ENDBRANCH 23 26
ENDBRANCH 21 22
BRANCH 21 28
ATOM     28  CB  PHE B 724      38.745  36.011  84.906  1.00 20.22 LIG 0.07  C 
BRANCH 28 29
ATOM     29  CG  PHE B 724      39.980  36.798  85.220  1.00 20.05 LIG-0.06  A 
ATOM     30  CD1 PHE B 724      40.794  37.271  84.203  1.00 20.54 LIG 0.01  A 
ATOM     31  CE1 PHE B 724      41.946  37.997  84.495  1.00 21.50 LIG 0.00  A 
ATOM     32  CZ  PHE B 724      42.294  38.245  85.822  1.00 21.54 LIG 0.00  A 
ATOM     33  CE2 PHE B 724      41.485  37.776  86.845  1.00 21.44 LIG 0.00  A 
ATOM     34  CD2 PHE B 724      40.335  37.053  86.540  1.00 20.20 LIG 0.01  A 
ENDBRANCH 28 29
ENDBRANCH 21 28
ENDBRANCH 1 21
TORSDOF 11
ENDMDL
MODEL 32
USER: ADFR SOLUTION from run 186
USER: SCORE 11.255784 LL:  -2.747 LR:  -9.246 RR:   0.000 FEB:  -5.965
USER: RMSD 3.273426
USER: SEED 185
USER: STATUS no improvement in best in 16 clusters for 5 generations
USER: GENES 13
USER: genes 0 Translation |==|  0.66680 0.48765 0.51678
USER: genes 1 Rotation |==|  0.83010 0.59194 0.44222 0.85950
USER: genes 2 Torsion [C]-N--CA-[CB] |==|  0.85935
USER: genes 3 Torsion [N]-CA--CB-[CG] |==|  0.87198
USER: genes 4 Torsion [CA]-CB--CG-[CD] |==|  0.38532
USER: genes 5 Torsion [CB]-CG--CD-[OE1] |==|  0.53270
USER: genes 6 Torsion [N]-CA--C-[N] |==|  0.35556
USER: genes 7 Torsion [N]-CA--C-[OXT] |==|  0.50728
USER: genes 8 Torsion [N]-C--CA-[N] |==|  0.68861
USER: genes 9 Torsion [C]-CA--N-[C] |==|  0.17680
USER: genes 10 Torsion [N]-C--CA-[N] |==|  0.43641
USER: genes 11 Torsion [C]-CA--CB-[CG] |==|  0.51815
USER: genes 12 Torsion [CA]-CB--CG-[CD2] |==|  0.24398
ROOT
ATOM      1  C   PHE B 724      43.756  37.329  86.005  1.00 20.38 LIG 0.24  C 
ATOM      2 O    PHE B 724      43.890  38.441  85.498  1.00 19.94 LIG-0.27  OA
ATOM      3  N   GLU B 725      42.572  36.780  86.235  1.00 20.55 LIG-0.35  N 
ATOM      4 H    GLU B 725      42.461  35.975  86.516  1.00 20.55 LIG 0.16  HD
ENDROOT
BRANCH 3 5
ATOM      5  CA  GLU B 725      41.337  37.519  86.023  1.00 20.80 LIG 0.18  C 
BRANCH 5 6
ATOM      6  CB  GLU B 725      41.415  38.878  86.733  1.00 21.18 LIG 0.04  C 
BRANCH 6 7
ATOM      7  CG  GLU B 725      41.943  38.837  88.163  1.00 23.39 LIG 0.12  C 
BRANCH 7 8
ATOM      8  CD  GLU B 725      42.900  39.975  88.494  1.00 26.43 LIG 0.17  C 
ATOM      9 OE1  GLU B 725      43.571  39.933  89.553  1.00 27.49 LIG-0.65  OA
ATOM     10 OE2  GLU B 725      42.973  40.931  87.687  1.00 27.53 LIG-0.65  OA
ENDBRANCH 7 8
ENDBRANCH 6 7
ENDBRANCH 5 6
BRANCH 5 11
ATOM     11  C   GLU B 725      41.119  37.665  84.508  1.00 20.17 LIG 0.24  C 
ATOM     12  N   PRO B 726      39.936  37.291  84.011  1.00 19.83 LIG-0.34  N 
ATOM     13  CD  PRO B 726      38.800  36.678  84.726  1.00 19.46 LIG 0.13  C 
ATOM     14  CA  PRO B 726      39.629  37.505  82.600  1.00 19.64 LIG 0.19  C 
ATOM     15  CG  PRO B 726      37.775  36.434  83.650  1.00 19.20 LIG 0.02  C 
ATOM     16  CB  PRO B 726      38.470  36.540  82.345  1.00 19.97 LIG 0.04  C 
ATOM     17 O    GLU B 725      42.029  38.121  83.793  1.00 19.41 LIG-0.27  OA
BRANCH 14 18
ATOM     18  C   PRO B 726      39.196  38.960  82.458  1.00 19.81 LIG 0.20  C 
ATOM     19 OXT  PRO B 726      38.837  39.346  81.330  1.00 20.16 LIG-0.65  OA
ATOM     20 O    PRO B 726      39.259  39.709  83.442  1.00 18.50 LIG-0.65  OA
ENDBRANCH 14 18
ENDBRANCH 5 11
ENDBRANCH 3 5
BRANCH 1 21
ATOM     21  CA  PHE B 724      44.969  36.488  86.409  1.00 20.36 LIG 0.18  C 
BRANCH 21 22
ATOM     22  N   PHE B 724      45.694  37.084  87.536  1.00 20.75 LIG-0.35  N 
ATOM     23  C   GLY B 723      45.137  37.227  88.734  1.00 21.06 LIG 0.25  C 
ATOM     24 O    GLY B 723      43.987  36.861  88.985  1.00 21.29 LIG-0.27  OA
ATOM     25 H    PHE B 724      46.497  37.327  87.351  1.00 20.75 LIG 0.16  HD
BRANCH 23 26
ATOM     26  CA  GLY B 723      46.000  37.872  89.809  1.00 21.22 LIG 0.47  C 
ATOM     27  N   GLY B 723      45.199  38.487  90.909  1.00 21.24 LIG 0.61  N 
ENDBRANCH 23 26
ENDBRANCH 21 22
BRANCH 21 28
ATOM     28  CB  PHE B 724      44.546  35.052  86.727  1.00 20.22 LIG 0.07  C 
BRANCH 28 29
ATOM     29  CG  PHE B 724      45.650  34.203  87.280  1.00 20.05 LIG-0.06  A 
ATOM     30  CD1 PHE B 724      46.430  33.425  86.440  1.00 20.54 LIG 0.01  A 
ATOM     31  CE1 PHE B 724      47.452  32.630  86.954  1.00 21.50 LIG 0.00  A 
ATOM     32  CZ  PHE B 724      47.690  32.607  88.328  1.00 21.54 LIG 0.00  A 
ATOM     33  CE2 PHE B 724      46.914  33.383  89.174  1.00 21.44 LIG 0.00  A 
ATOM     34  CD2 PHE B 724      45.897  34.174  88.648  1.00 20.20 LIG 0.01  A 
ENDBRANCH 28 29
ENDBRANCH 21 28
ENDBRANCH 1 21
TORSDOF 11
ENDMDL
MODEL 33
USER: ADFR SOLUTION from run 118
USER: SCORE 10.764706 LL:  -2.241 LR:  -9.248 RR:   0.000 FEB:  -5.967
USER: RMSD 7.396919
USER: SEED 117
USER: STATUS no improvement in best in 13 clusters for 5 generations
USER: GENES 13
USER: genes 0 Translation |==|  0.53673 0.45551 0.45216
USER: genes 1 Rotation |==|  0.31728 0.31628 0.92303 0.56246
USER: genes 2 Torsion [C]-N--CA-[CB] |==|  0.80000
USER: genes 3 Torsion [N]-CA--CB-[CG] |==|  0.62655
USER: genes 4 Torsion [CA]-CB--CG-[CD] |==|  0.18973
USER: genes 5 Torsion [CB]-CG--CD-[OE1] |==|  0.91135
USER: genes 6 Torsion [N]-CA--C-[N] |==|  0.17864
USER: genes 7 Torsion [N]-CA--C-[OXT] |==|  0.49516
USER: genes 8 Torsion [N]-C--CA-[N] |==|  0.03633
USER: genes 9 Torsion [C]-CA--N-[C] |==|  0.19010
USER: genes 10 Torsion [N]-C--CA-[N] |==|  0.21510
USER: genes 11 Torsion [C]-CA--CB-[CG] |==|  0.33794
USER: genes 12 Torsion [CA]-CB--CG-[CD2] |==|  0.10925
ROOT
ATOM      1  C   PHE B 724      41.415  36.871  84.793  1.00 20.38 LIG 0.24  C 
ATOM      2 O    PHE B 724      41.900  37.869  84.263  1.00 19.94 LIG-0.27  OA
ATOM      3  N   GLU B 725      41.943  36.295  85.864  1.00 20.55 LIG-0.35  N 
ATOM      4 H    GLU B 725      41.576  35.646  86.291  1.00 20.55 LIG 0.16  HD
ENDROOT
BRANCH 3 5
ATOM      5  CA  GLU B 725      43.218  36.732  86.411  1.00 20.80 LIG 0.18  C 
BRANCH 5 6
ATOM      6  CB  GLU B 725      44.361  36.298  85.481  1.00 21.18 LIG 0.04  C 
BRANCH 6 7
ATOM      7  CG  GLU B 725      45.565  35.673  86.176  1.00 23.39 LIG 0.12  C 
BRANCH 7 8
ATOM      8  CD  GLU B 725      45.275  34.311  86.793  1.00 26.43 LIG 0.17  C 
ATOM      9 OE1  GLU B 725      44.131  34.064  87.242  1.00 27.49 LIG-0.65  OA
ATOM     10 OE2  GLU B 725      46.211  33.478  86.838  1.00 27.53 LIG-0.65  OA
ENDBRANCH 7 8
ENDBRANCH 6 7
ENDBRANCH 5 6
BRANCH 5 11
ATOM     11  C   GLU B 725      43.165  38.258  86.596  1.00 20.17 LIG 0.24  C 
ATOM     12  N   PRO B 726      42.287  38.747  87.475  1.00 19.83 LIG-0.34  N 
ATOM     13  CD  PRO B 726      41.286  38.010  88.270  1.00 19.46 LIG 0.13  C 
ATOM     14  CA  PRO B 726      42.262  40.176  87.774  1.00 19.64 LIG 0.19  C 
ATOM     15  CG  PRO B 726      40.558  39.084  89.035  1.00 19.20 LIG 0.02  C 
ATOM     16  CB  PRO B 726      40.877  40.380  88.390  1.00 19.97 LIG 0.04  C 
ATOM     17 O    GLU B 725      43.927  38.987  85.936  1.00 19.41 LIG-0.27  OA
BRANCH 14 18
ATOM     18  C   PRO B 726      43.375  40.435  88.784  1.00 19.81 LIG 0.20  C 
ATOM     19 OXT  PRO B 726      43.553  41.610  89.155  1.00 20.16 LIG-0.65  OA
ATOM     20 O    PRO B 726      44.083  39.492  89.161  1.00 18.50 LIG-0.65  OA
ENDBRANCH 14 18
ENDBRANCH 5 11
ENDBRANCH 3 5
BRANCH 1 21
ATOM     21  CA  PHE B 724      40.147  36.216  84.244  1.00 20.36 LIG 0.18  C 
BRANCH 21 22
ATOM     22  N   PHE B 724      39.579  35.249  85.189  1.00 20.75 LIG-0.35  N 
ATOM     23  C   GLY B 723      39.034  35.628  86.341  1.00 21.06 LIG 0.25  C 
ATOM     24 O    GLY B 723      38.955  36.808  86.687  1.00 21.29 LIG-0.27  OA
ATOM     25 H    PHE B 724      39.632  34.430  84.933  1.00 20.75 LIG 0.16  HD
BRANCH 23 26
ATOM     26  CA  GLY B 723      38.495  34.518  87.231  1.00 21.22 LIG 0.47  C 
ATOM     27  N   GLY B 723      39.569  33.789  87.970  1.00 21.24 LIG 0.61  N 
ENDBRANCH 23 26
ENDBRANCH 21 22
BRANCH 21 28
ATOM     28  CB  PHE B 724      39.114  37.279  83.862  1.00 20.22 LIG 0.07  C 
BRANCH 28 29
ATOM     29  CG  PHE B 724      38.694  37.228  82.424  1.00 20.05 LIG-0.06  A 
ATOM     30  CD1 PHE B 724      38.474  38.395  81.712  1.00 20.54 LIG 0.01  A 
ATOM     31  CE1 PHE B 724      38.076  38.349  80.377  1.00 21.50 LIG 0.00  A 
ATOM     32  CZ  PHE B 724      37.888  37.118  79.751  1.00 21.54 LIG 0.00  A 
ATOM     33  CE2 PHE B 724      38.106  35.945  80.457  1.00 21.44 LIG 0.00  A 
ATOM     34  CD2 PHE B 724      38.505  36.005  81.789  1.00 20.20 LIG 0.01  A 
ENDBRANCH 28 29
ENDBRANCH 21 28
ENDBRANCH 1 21
TORSDOF 11
ENDMDL
MODEL 34
USER: ADFR SOLUTION from run 99
USER: SCORE 10.466610 LL:  -1.652 LR:  -9.238 RR:   0.000 FEB:  -5.957
USER: RMSD 5.245757
USER: SEED 98
USER: STATUS no improvement in best in 20 clusters for 5 generations
USER: GENES 13
USER: genes 0 Translation |==|  0.37282 0.47555 0.42524
USER: genes 1 Rotation |==|  0.28318 0.48797 0.09948 0.70597
USER: genes 2 Torsion [C]-N--CA-[CB] |==|  0.77511
USER: genes 3 Torsion [N]-CA--CB-[CG] |==|  0.10952
USER: genes 4 Torsion [CA]-CB--CG-[CD] |==|  0.38546
USER: genes 5 Torsion [CB]-CG--CD-[OE1] |==|  0.41360
USER: genes 6 Torsion [N]-CA--C-[N] |==|  0.17982
USER: genes 7 Torsion [N]-CA--C-[OXT] |==|  0.44164
USER: genes 8 Torsion [N]-C--CA-[N] |==|  0.46426
USER: genes 9 Torsion [C]-CA--N-[C] |==|  0.55009
USER: genes 10 Torsion [N]-C--CA-[N] |==|  0.45677
USER: genes 11 Torsion [C]-CA--CB-[CG] |==|  0.31023
USER: genes 12 Torsion [CA]-CB--CG-[CD2] |==|  0.91520
ROOT
ATOM      1  C   PHE B 724      38.465  37.157  84.288  1.00 20.38 LIG 0.24  C 
ATOM      2 O    PHE B 724      37.392  36.639  83.983  1.00 19.94 LIG-0.27  OA
ATOM      3  N   GLU B 725      38.871  38.317  83.794  1.00 20.55 LIG-0.35  N 
ATOM      4 H    GLU B 725      39.580  38.729  84.054  1.00 20.55 LIG 0.16  HD
ENDROOT
BRANCH 3 5
ATOM      5  CA  GLU B 725      38.128  38.999  82.746  1.00 20.80 LIG 0.18  C 
BRANCH 5 6
ATOM      6  CB  GLU B 725      38.471  38.388  81.381  1.00 21.18 LIG 0.04  C 
BRANCH 6 7
ATOM      7  CG  GLU B 725      38.626  36.871  81.366  1.00 23.39 LIG 0.12  C 
BRANCH 7 8
ATOM      8  CD  GLU B 725      38.001  36.204  80.148  1.00 26.43 LIG 0.17  C 
ATOM      9 OE1  GLU B 725      38.504  35.150  79.692  1.00 27.49 LIG-0.65  OA
ATOM     10 OE2  GLU B 725      36.996  36.748  79.635  1.00 27.53 LIG-0.65  OA
ENDBRANCH 7 8
ENDBRANCH 6 7
ENDBRANCH 5 6
BRANCH 5 11
ATOM     11  C   GLU B 725      36.629  38.892  83.073  1.00 20.17 LIG 0.24  C 
ATOM     12  N   PRO B 726      36.188  39.500  84.177  1.00 19.83 LIG-0.34  N 
ATOM     13  CD  PRO B 726      36.973  40.228  85.193  1.00 19.46 LIG 0.13  C 
ATOM     14  CA  PRO B 726      34.761  39.526  84.484  1.00 19.64 LIG 0.19  C 
ATOM     15  CG  PRO B 726      35.953  40.646  86.219  1.00 19.20 LIG 0.02  C 
ATOM     16  CB  PRO B 726      34.731  39.842  85.980  1.00 19.97 LIG 0.04  C 
ATOM     17 O    GLU B 725      35.876  38.255  82.315  1.00 19.41 LIG-0.27  OA
BRANCH 14 18
ATOM     18  C   PRO B 726      34.151  40.651  83.655  1.00 19.81 LIG 0.20  C 
ATOM     19 OXT  PRO B 726      32.925  40.610  83.443  1.00 20.16 LIG-0.65  OA
ATOM     20 O    PRO B 726      34.890  41.529  83.189  1.00 18.50 LIG-0.65  OA
ENDBRANCH 14 18
ENDBRANCH 5 11
ENDBRANCH 3 5
BRANCH 1 21
ATOM     21  CA  PHE B 724      39.419  36.485  85.278  1.00 20.36 LIG 0.18  C 
BRANCH 21 22
ATOM     22  N   PHE B 724      38.771  35.381  85.995  1.00 20.75 LIG-0.35  N 
ATOM     23  C   GLY B 723      39.268  34.889  87.125  1.00 21.06 LIG 0.25  C 
ATOM     24 O    GLY B 723      40.291  35.329  87.654  1.00 21.29 LIG-0.27  OA
ATOM     25 H    PHE B 724      38.054  35.089  85.621  1.00 20.75 LIG 0.16  HD
BRANCH 23 26
ATOM     26  CA  GLY B 723      38.500  33.737  87.756  1.00 21.22 LIG 0.47  C 
ATOM     27  N   GLY B 723      39.291  33.005  88.789  1.00 21.24 LIG 0.61  N 
ENDBRANCH 23 26
ENDBRANCH 21 22
BRANCH 21 28
ATOM     28  CB  PHE B 724      40.685  36.006  84.564  1.00 20.22 LIG 0.07  C 
BRANCH 28 29
ATOM     29  CG  PHE B 724      41.920  36.762  84.949  1.00 20.05 LIG-0.06  A 
ATOM     30  CD1 PHE B 724      43.157  36.137  84.950  1.00 20.54 LIG 0.01  A 
ATOM     31  CE1 PHE B 724      44.306  36.837  85.315  1.00 21.50 LIG 0.00  A 
ATOM     32  CZ  PHE B 724      44.213  38.176  85.691  1.00 21.54 LIG 0.00  A 
ATOM     33  CE2 PHE B 724      42.979  38.807  85.692  1.00 21.44 LIG 0.00  A 
ATOM     34  CD2 PHE B 724      41.840  38.098  85.324  1.00 20.20 LIG 0.01  A 
ENDBRANCH 28 29
ENDBRANCH 21 28
ENDBRANCH 1 21
TORSDOF 11
ENDMDL
MODEL 35
USER: ADFR SOLUTION from run 186
USER: SCORE 10.779944 LL:  -3.312 LR:  -9.233 RR:   0.000 FEB:  -5.952
USER: RMSD 6.664717
USER: SEED 185
USER: STATUS no improvement in best in 16 clusters for 5 generations
USER: GENES 13
USER: genes 0 Translation |==|  0.42631 0.57969 0.42122
USER: genes 1 Rotation |==|  0.82476 0.64301 0.29693 0.78782
USER: genes 2 Torsion [C]-N--CA-[CB] |==|  0.38461
USER: genes 3 Torsion [N]-CA--CB-[CG] |==|  0.73688
USER: genes 4 Torsion [CA]-CB--CG-[CD] |==|  0.12751
USER: genes 5 Torsion [CB]-CG--CD-[OE1] |==|  0.32221
USER: genes 6 Torsion [N]-CA--C-[N] |==|  0.86113
USER: genes 7 Torsion [N]-CA--C-[OXT] |==|  0.08238
USER: genes 8 Torsion [N]-C--CA-[N] |==|  0.82222
USER: genes 9 Torsion [C]-CA--N-[C] |==|  0.68136
USER: genes 10 Torsion [N]-C--CA-[N] |==|  0.77149
USER: genes 11 Torsion [C]-CA--CB-[CG] |==|  0.16020
USER: genes 12 Torsion [CA]-CB--CG-[CD2] |==|  0.05144
ROOT
ATOM      1  C   PHE B 724      39.428  38.641  84.213  1.00 20.38 LIG 0.24  C 
ATOM      2 O    PHE B 724      39.616  39.748  83.712  1.00 19.94 LIG-0.27  OA
ATOM      3  N   GLU B 725      38.452  38.397  85.077  1.00 20.55 LIG-0.35  N 
ATOM      4 H    GLU B 725      38.259  37.614  85.376  1.00 20.55 LIG 0.16  HD
ENDROOT
BRANCH 3 5
ATOM      5  CA  GLU B 725      37.613  39.465  85.596  1.00 20.80 LIG 0.18  C 
BRANCH 5 6
ATOM      6  CB  GLU B 725      36.150  39.001  85.646  1.00 21.18 LIG 0.04  C 
BRANCH 6 7
ATOM      7  CG  GLU B 725      35.306  39.375  84.432  1.00 23.39 LIG 0.12  C 
BRANCH 7 8
ATOM      8  CD  GLU B 725      35.994  39.102  83.101  1.00 26.43 LIG 0.17  C 
ATOM      9 OE1  GLU B 725      35.509  38.255  82.315  1.00 27.49 LIG-0.65  OA
ATOM     10 OE2  GLU B 725      37.042  39.739  82.843  1.00 27.53 LIG-0.65  OA
ENDBRANCH 7 8
ENDBRANCH 6 7
ENDBRANCH 5 6
BRANCH 5 11
ATOM     11  C   GLU B 725      38.145  39.863  86.983  1.00 20.17 LIG 0.24  C 
ATOM     12  N   PRO B 726      38.365  38.887  87.869  1.00 19.83 LIG-0.34  N 
ATOM     13  CD  PRO B 726      38.100  37.443  87.719  1.00 19.46 LIG 0.13  C 
ATOM     14  CA  PRO B 726      38.971  39.189  89.163  1.00 19.64 LIG 0.19  C 
ATOM     15  CG  PRO B 726      38.499  36.855  89.046  1.00 19.20 LIG 0.02  C 
ATOM     16  CB  PRO B 726      38.600  37.973  90.013  1.00 19.97 LIG 0.04  C 
ATOM     17 O    GLU B 725      38.355  41.061  87.244  1.00 19.41 LIG-0.27  OA
BRANCH 14 18
ATOM     18  C   PRO B 726      40.475  39.284  88.935  1.00 19.81 LIG 0.20  C 
ATOM     19 OXT  PRO B 726      40.865  39.664  87.816  1.00 20.16 LIG-0.65  OA
ATOM     20 O    PRO B 726      41.248  38.940  89.840  1.00 18.50 LIG-0.65  OA
ENDBRANCH 14 18
ENDBRANCH 5 11
ENDBRANCH 3 5
BRANCH 1 21
ATOM     21  CA  PHE B 724      40.321  37.448  83.865  1.00 20.36 LIG 0.18  C 
BRANCH 21 22
ATOM     22  N   PHE B 724      41.066  36.967  85.033  1.00 20.75 LIG-0.35  N 
ATOM     23  C   GLY B 723      42.391  37.042  85.102  1.00 21.06 LIG 0.25  C 
ATOM     24 O    GLY B 723      43.081  37.529  84.203  1.00 21.29 LIG-0.27  OA
ATOM     25 H    PHE B 724      40.574  36.637  85.656  1.00 20.75 LIG 0.16  HD
BRANCH 23 26
ATOM     26  CA  GLY B 723      43.035  36.493  86.366  1.00 21.22 LIG 0.47  C 
ATOM     27  N   GLY B 723      43.015  37.464  87.500  1.00 21.24 LIG 0.61  N 
ENDBRANCH 23 26
ENDBRANCH 21 22
BRANCH 21 28
ATOM     28  CB  PHE B 724      39.495  36.322  83.239  1.00 20.22 LIG 0.07  C 
BRANCH 28 29
ATOM     29  CG  PHE B 724      38.749  36.729  82.006  1.00 20.05 LIG-0.06  A 
ATOM     30  CD1 PHE B 724      37.692  35.966  81.537  1.00 20.54 LIG 0.01  A 
ATOM     31  CE1 PHE B 724      37.002  36.340  80.385  1.00 21.50 LIG 0.00  A 
ATOM     32  CZ  PHE B 724      37.381  37.487  79.690  1.00 21.54 LIG 0.00  A 
ATOM     33  CE2 PHE B 724      38.438  38.256  80.153  1.00 21.44 LIG 0.00  A 
ATOM     34  CD2 PHE B 724      39.118  37.873  81.306  1.00 20.20 LIG 0.01  A 
ENDBRANCH 28 29
ENDBRANCH 21 28
ENDBRANCH 1 21
TORSDOF 11
ENDMDL
MODEL 36
USER: ADFR SOLUTION from run 85
USER: SCORE 10.163380 LL:  -2.611 LR:  -9.190 RR:   0.000 FEB:  -5.909
USER: RMSD 6.531803
USER: SEED 84
USER: STATUS no improvement in best in 16 clusters for 5 generations
USER: GENES 13
USER: genes 0 Translation |==|  0.42546 0.54770 0.44537
USER: genes 1 Rotation |==|  0.76273 0.63036 0.09859 0.55335
USER: genes 2 Torsion [C]-N--CA-[CB] |==|  0.49423
USER: genes 3 Torsion [N]-CA--CB-[CG] |==|  0.66087
USER: genes 4 Torsion [CA]-CB--CG-[CD] |==|  0.98906
USER: genes 5 Torsion [CB]-CG--CD-[OE1] |==|  0.22032
USER: genes 6 Torsion [N]-CA--C-[N] |==|  0.82416
USER: genes 7 Torsion [N]-CA--C-[OXT] |==|  0.17980
USER: genes 8 Torsion [N]-C--CA-[N] |==|  0.50556
USER: genes 9 Torsion [C]-CA--N-[C] |==|  0.68323
USER: genes 10 Torsion [N]-C--CA-[N] |==|  0.15847
USER: genes 11 Torsion [C]-CA--CB-[CG] |==|  0.21172
USER: genes 12 Torsion [CA]-CB--CG-[CD2] |==|  0.57042
ROOT
ATOM      1  C   PHE B 724      39.412  38.185  84.666  1.00 20.38 LIG 0.24  C 
ATOM      2 O    PHE B 724      39.986  39.067  84.030  1.00 19.94 LIG-0.27  OA
ATOM      3  N   GLU B 725      39.444  38.113  85.989  1.00 20.55 LIG-0.35  N 
ATOM      4 H    GLU B 725      38.987  37.550  86.451  1.00 20.55 LIG 0.16  HD
ENDROOT
BRANCH 3 5
ATOM      5  CA  GLU B 725      40.277  39.005  86.779  1.00 20.80 LIG 0.18  C 
BRANCH 5 6
ATOM      6  CB  GLU B 725      40.070  38.725  88.274  1.00 21.18 LIG 0.04  C 
BRANCH 6 7
ATOM      7  CG  GLU B 725      39.599  39.916  89.101  1.00 23.39 LIG 0.12  C 
BRANCH 7 8
ATOM      8  CD  GLU B 725      39.505  41.213  88.308  1.00 26.43 LIG 0.17  C 
ATOM      9 OE1  GLU B 725      38.514  41.416  87.568  1.00 27.49 LIG-0.65  OA
ATOM     10 OE2  GLU B 725      40.442  42.036  88.420  1.00 27.53 LIG-0.65  OA
ENDBRANCH 7 8
ENDBRANCH 6 7
ENDBRANCH 5 6
BRANCH 5 11
ATOM     11  C   GLU B 725      41.740  38.807  86.346  1.00 20.17 LIG 0.24  C 
ATOM     12  N   PRO B 726      42.291  37.607  86.550  1.00 19.83 LIG-0.34  N 
ATOM     13  CD  PRO B 726      41.695  36.430  87.210  1.00 19.46 LIG 0.13  C 
ATOM     14  CA  PRO B 726      43.638  37.323  86.064  1.00 19.64 LIG 0.19  C 
ATOM     15  CG  PRO B 726      42.792  35.399  87.190  1.00 19.20 LIG 0.02  C 
ATOM     16  CB  PRO B 726      44.059  36.109  86.893  1.00 19.97 LIG 0.04  C 
ATOM     17 O    GLU B 725      42.363  39.749  85.826  1.00 19.41 LIG-0.27  OA
BRANCH 14 18
ATOM     18  C   PRO B 726      43.511  36.983  84.583  1.00 19.81 LIG 0.20  C 
ATOM     19 OXT  PRO B 726      43.116  37.881  83.818  1.00 20.16 LIG-0.65  OA
ATOM     20 O    PRO B 726      43.756  35.830  84.204  1.00 18.50 LIG-0.65  OA
ENDBRANCH 14 18
ENDBRANCH 5 11
ENDBRANCH 3 5
BRANCH 1 21
ATOM     21  CA  PHE B 724      38.607  37.092  83.960  1.00 20.36 LIG 0.18  C 
BRANCH 21 22
ATOM     22  N   PHE B 724      38.669  37.227  82.500  1.00 20.75 LIG-0.35  N 
ATOM     23  C   GLY B 723      37.596  37.524  81.775  1.00 21.06 LIG 0.25  C 
ATOM     24 O    GLY B 723      36.485  37.717  82.273  1.00 21.29 LIG-0.27  OA
ATOM     25 H    PHE B 724      39.451  37.098  82.166  1.00 20.75 LIG 0.16  HD
BRANCH 23 26
ATOM     26  CA  GLY B 723      37.802  37.620  80.271  1.00 21.22 LIG 0.47  C 
ATOM     27  N   GLY B 723      38.365  36.371  79.678  1.00 21.24 LIG 0.61  N 
ENDBRANCH 23 26
ENDBRANCH 21 22
BRANCH 21 28
ATOM     28  CB  PHE B 724      39.079  35.705  84.402  1.00 20.22 LIG 0.07  C 
BRANCH 28 29
ATOM     29  CG  PHE B 724      38.599  35.307  85.764  1.00 20.05 LIG-0.06  A 
ATOM     30  CD1 PHE B 724      37.447  35.864  86.297  1.00 20.54 LIG 0.01  A 
ATOM     31  CE1 PHE B 724      37.004  35.500  87.567  1.00 21.50 LIG 0.00  A 
ATOM     32  CZ  PHE B 724      37.728  34.574  88.316  1.00 21.54 LIG 0.00  A 
ATOM     33  CE2 PHE B 724      38.881  34.012  87.790  1.00 21.44 LIG 0.00  A 
ATOM     34  CD2 PHE B 724      39.312  34.382  86.520  1.00 20.20 LIG 0.01  A 
ENDBRANCH 28 29
ENDBRANCH 21 28
ENDBRANCH 1 21
TORSDOF 11
ENDMDL
MODEL 37
USER: ADFR SOLUTION from run 186
USER: SCORE 10.130832 LL:  -2.321 LR:  -9.163 RR:   0.000 FEB:  -5.882
USER: RMSD 6.344570
USER: SEED 185
USER: STATUS no improvement in best in 16 clusters for 5 generations
USER: GENES 13
USER: genes 0 Translation |==|  0.36038 0.45414 0.48256
USER: genes 1 Rotation |==|  0.11391 0.60610 0.37684 0.77297
USER: genes 2 Torsion [C]-N--CA-[CB] |==|  0.25335
USER: genes 3 Torsion [N]-CA--CB-[CG] |==|  0.21915
USER: genes 4 Torsion [CA]-CB--CG-[CD] |==|  0.77514
USER: genes 5 Torsion [CB]-CG--CD-[OE1] |==|  0.97620
USER: genes 6 Torsion [N]-CA--C-[N] |==|  0.48180
USER: genes 7 Torsion [N]-CA--C-[OXT] |==|  0.93772
USER: genes 8 Torsion [N]-C--CA-[N] |==|  0.35177
USER: genes 9 Torsion [C]-CA--N-[C] |==|  0.60585
USER: genes 10 Torsion [N]-C--CA-[N] |==|  0.83785
USER: genes 11 Torsion [C]-CA--CB-[CG] |==|  0.25360
USER: genes 12 Torsion [CA]-CB--CG-[CD2] |==|  0.05032
ROOT
ATOM      1  C   PHE B 724      38.241  36.851  85.363  1.00 20.38 LIG 0.24  C 
ATOM      2 O    PHE B 724      37.903  35.867  86.018  1.00 19.94 LIG-0.27  OA
ATOM      3  N   GLU B 725      37.566  37.993  85.376  1.00 20.55 LIG-0.35  N 
ATOM      4 H    GLU B 725      37.830  38.712  84.987  1.00 20.55 LIG 0.16  HD
ENDROOT
BRANCH 3 5
ATOM      5  CA  GLU B 725      36.294  38.115  86.071  1.00 20.80 LIG 0.18  C 
BRANCH 5 6
ATOM      6  CB  GLU B 725      36.531  38.585  87.513  1.00 21.18 LIG 0.04  C 
BRANCH 6 7
ATOM      7  CG  GLU B 725      36.797  40.078  87.676  1.00 23.39 LIG 0.12  C 
BRANCH 7 8
ATOM      8  CD  GLU B 725      38.235  40.479  87.377  1.00 26.43 LIG 0.17  C 
ATOM      9 OE1  GLU B 725      39.101  39.592  87.191  1.00 27.49 LIG-0.65  OA
ATOM     10 OE2  GLU B 725      38.504  41.703  87.336  1.00 27.53 LIG-0.65  OA
ENDBRANCH 7 8
ENDBRANCH 6 7
ENDBRANCH 5 6
BRANCH 5 11
ATOM     11  C   GLU B 725      35.406  39.090  85.279  1.00 20.17 LIG 0.24  C 
ATOM     12  N   PRO B 726      34.139  39.240  85.676  1.00 19.83 LIG-0.34  N 
ATOM     13  CD  PRO B 726      33.435  38.532  86.762  1.00 19.46 LIG 0.13  C 
ATOM     14  CA  PRO B 726      33.278  40.229  85.034  1.00 19.64 LIG 0.19  C 
ATOM     15  CG  PRO B 726      32.032  39.077  86.710  1.00 19.20 LIG 0.02  C 
ATOM     16  CB  PRO B 726      31.871  39.757  85.402  1.00 19.97 LIG 0.04  C 
ATOM     17 O    GLU B 725      35.878  39.704  84.306  1.00 19.41 LIG-0.27  OA
BRANCH 14 18
ATOM     18  C   PRO B 726      33.607  41.577  85.665  1.00 19.81 LIG 0.20  C 
ATOM     19 OXT  PRO B 726      34.131  41.571  86.794  1.00 20.16 LIG-0.65  OA
ATOM     20 O    PRO B 726      33.303  42.617  85.065  1.00 18.50 LIG-0.65  OA
ENDBRANCH 14 18
ENDBRANCH 5 11
ENDBRANCH 3 5
BRANCH 1 21
ATOM     21  CA  PHE B 724      39.486  36.826  84.474  1.00 20.36 LIG 0.18  C 
BRANCH 21 22
ATOM     22  N   PHE B 724      40.676  36.395  85.216  1.00 20.75 LIG-0.35  N 
ATOM     23  C   GLY B 723      41.870  36.938  85.006  1.00 21.06 LIG 0.25  C 
ATOM     24 O    GLY B 723      42.060  37.843  84.190  1.00 21.29 LIG-0.27  OA
ATOM     25 H    PHE B 724      40.529  35.771  85.788  1.00 20.75 LIG 0.16  HD
BRANCH 23 26
ATOM     26  CA  GLY B 723      43.020  36.387  85.837  1.00 21.22 LIG 0.47  C 
ATOM     27  N   GLY B 723      42.791  36.515  87.307  1.00 21.24 LIG 0.61  N 
ENDBRANCH 23 26
ENDBRANCH 21 22
BRANCH 21 28
ATOM     28  CB  PHE B 724      39.254  35.939  83.249  1.00 20.22 LIG 0.07  C 
BRANCH 28 29
ATOM     29  CG  PHE B 724      38.718  36.676  82.059  1.00 20.05 LIG-0.06  A 
ATOM     30  CD1 PHE B 724      38.124  35.989  81.013  1.00 20.54 LIG 0.01  A 
ATOM     31  CE1 PHE B 724      37.632  36.673  79.903  1.00 21.50 LIG 0.00  A 
ATOM     32  CZ  PHE B 724      37.745  38.061  79.836  1.00 21.54 LIG 0.00  A 
ATOM     33  CE2 PHE B 724      38.337  38.755  80.879  1.00 21.44 LIG 0.00  A 
ATOM     34  CD2 PHE B 724      38.823  38.060  81.984  1.00 20.20 LIG 0.01  A 
ENDBRANCH 28 29
ENDBRANCH 21 28
ENDBRANCH 1 21
TORSDOF 11
ENDMDL
MODEL 38
USER: ADFR SOLUTION from run 31
USER: SCORE 10.785876 LL:  -2.998 LR:  -9.152 RR:   0.000 FEB:  -5.871
USER: RMSD 7.146298
USER: SEED 30
USER: STATUS no improvement in best in 13 clusters for 5 generations
USER: GENES 13
USER: genes 0 Translation |==|  0.39472 0.58050 0.45776
USER: genes 1 Rotation |==|  0.23848 0.48355 0.91205 0.60745
USER: genes 2 Torsion [C]-N--CA-[CB] |==|  0.47222
USER: genes 3 Torsion [N]-CA--CB-[CG] |==|  0.88502
USER: genes 4 Torsion [CA]-CB--CG-[CD] |==|  0.90290
USER: genes 5 Torsion [CB]-CG--CD-[OE1] |==|  0.78659
USER: genes 6 Torsion [N]-CA--C-[N] |==|  0.40759
USER: genes 7 Torsion [N]-CA--C-[OXT] |==|  0.96985
USER: genes 8 Torsion [N]-C--CA-[N] |==|  0.09443
USER: genes 9 Torsion [C]-CA--N-[C] |==|  0.74686
USER: genes 10 Torsion [N]-C--CA-[N] |==|  0.82528
USER: genes 11 Torsion [C]-CA--CB-[CG] |==|  0.25088
USER: genes 12 Torsion [CA]-CB--CG-[CD2] |==|  0.61943
ROOT
ATOM      1  C   PHE B 724      38.859  38.652  84.898  1.00 20.38 LIG 0.24  C 
ATOM      2 O    PHE B 724      39.782  38.888  84.121  1.00 19.94 LIG-0.27  OA
ATOM      3  N   GLU B 725      39.028  38.554  86.209  1.00 20.55 LIG-0.35  N 
ATOM      4 H    GLU B 725      38.384  38.466  86.772  1.00 20.55 LIG 0.16  HD
ENDROOT
BRANCH 3 5
ATOM      5  CA  GLU B 725      40.352  38.588  86.810  1.00 20.80 LIG 0.18  C 
BRANCH 5 6
ATOM      6  CB  GLU B 725      40.230  38.706  88.335  1.00 21.18 LIG 0.04  C 
BRANCH 6 7
ATOM      7  CG  GLU B 725      39.156  39.667  88.831  1.00 23.39 LIG 0.12  C 
BRANCH 7 8
ATOM      8  CD  GLU B 725      38.976  40.893  87.945  1.00 26.43 LIG 0.17  C 
ATOM      9 OE1  GLU B 725      39.809  41.828  88.004  1.00 27.49 LIG-0.65  OA
ATOM     10 OE2  GLU B 725      37.980  40.924  87.185  1.00 27.53 LIG-0.65  OA
ENDBRANCH 7 8
ENDBRANCH 6 7
ENDBRANCH 5 6
BRANCH 5 11
ATOM     11  C   GLU B 725      41.107  37.318  86.382  1.00 20.17 LIG 0.24  C 
ATOM     12  N   PRO B 726      42.429  37.409  86.207  1.00 19.83 LIG-0.34  N 
ATOM     13  CD  PRO B 726      43.281  38.609  86.308  1.00 19.46 LIG 0.13  C 
ATOM     14  CA  PRO B 726      43.216  36.217  85.907  1.00 19.64 LIG 0.19  C 
ATOM     15  CG  PRO B 726      44.660  38.114  85.963  1.00 19.20 LIG 0.02  C 
ATOM     16  CB  PRO B 726      44.504  36.790  85.314  1.00 19.97 LIG 0.04  C 
ATOM     17 O    GLU B 725      40.483  36.256  86.212  1.00 19.41 LIG-0.27  OA
BRANCH 14 18
ATOM     18  C   PRO B 726      43.468  35.508  87.233  1.00 19.81 LIG 0.20  C 
ATOM     19 OXT  PRO B 726      43.182  36.123  88.277  1.00 20.16 LIG-0.65  OA
ATOM     20 O    PRO B 726      43.984  34.383  87.230  1.00 18.50 LIG-0.65  OA
ENDBRANCH 14 18
ENDBRANCH 5 11
ENDBRANCH 3 5
BRANCH 1 21
ATOM     21  CA  PHE B 724      37.428  38.454  84.396  1.00 20.36 LIG 0.18  C 
BRANCH 21 22
ATOM     22  N   PHE B 724      36.439  38.967  85.351  1.00 20.75 LIG-0.35  N 
ATOM     23  C   GLY B 723      35.911  38.199  86.298  1.00 21.06 LIG 0.25  C 
ATOM     24 O    GLY B 723      36.221  37.016  86.449  1.00 21.29 LIG-0.27  OA
ATOM     25 H    PHE B 724      36.238  39.796  85.240  1.00 20.75 LIG 0.16  HD
BRANCH 23 26
ATOM     26  CA  GLY B 723      34.889  38.859  87.211  1.00 21.22 LIG 0.47  C 
ATOM     27  N   GLY B 723      35.461  39.979  88.015  1.00 21.24 LIG 0.61  N 
ENDBRANCH 23 26
ENDBRANCH 21 22
BRANCH 21 28
ATOM     28  CB  PHE B 724      37.246  39.099  83.020  1.00 20.22 LIG 0.07  C 
BRANCH 28 29
ATOM     29  CG  PHE B 724      37.539  38.178  81.875  1.00 20.05 LIG-0.06  A 
ATOM     30  CD1 PHE B 724      37.101  36.864  81.896  1.00 20.54 LIG 0.01  A 
ATOM     31  CE1 PHE B 724      37.379  36.005  80.835  1.00 21.50 LIG 0.00  A 
ATOM     32  CZ  PHE B 724      38.114  36.465  79.744  1.00 21.54 LIG 0.00  A 
ATOM     33  CE2 PHE B 724      38.556  37.778  79.715  1.00 21.44 LIG 0.00  A 
ATOM     34  CD2 PHE B 724      38.270  38.627  80.780  1.00 20.20 LIG 0.01  A 
ENDBRANCH 28 29
ENDBRANCH 21 28
ENDBRANCH 1 21
TORSDOF 11
ENDMDL
MODEL 39
USER: ADFR SOLUTION from run 193
USER: SCORE 10.130721 LL:  -2.203 LR:  -9.107 RR:   0.000 FEB:  -5.826
USER: RMSD 7.405606
USER: SEED 192
USER: STATUS no improvement in best in 10 clusters for 5 generations
USER: GENES 13
USER: genes 0 Translation |==|  0.34226 0.63310 0.45198
USER: genes 1 Rotation |==|  0.36400 0.08796 0.74585 0.53579
USER: genes 2 Torsion [C]-N--CA-[CB] |==|  0.20717
USER: genes 3 Torsion [N]-CA--CB-[CG] |==|  0.62837
USER: genes 4 Torsion [CA]-CB--CG-[CD] |==|  0.09254
USER: genes 5 Torsion [CB]-CG--CD-[OE1] |==|  0.23838
USER: genes 6 Torsion [N]-CA--C-[N] |==|  0.32069
USER: genes 7 Torsion [N]-CA--C-[OXT] |==|  0.45596
USER: genes 8 Torsion [N]-C--CA-[N] |==|  0.46915
USER: genes 9 Torsion [C]-CA--N-[C] |==|  0.76269
USER: genes 10 Torsion [N]-C--CA-[N] |==|  0.41771
USER: genes 11 Torsion [C]-CA--CB-[CG] |==|  0.29689
USER: genes 12 Torsion [CA]-CB--CG-[CD2] |==|  0.79595
ROOT
ATOM      1  C   PHE B 724      37.915  39.402  84.790  1.00 20.38 LIG 0.24  C 
ATOM      2 O    PHE B 724      37.884  40.374  85.542  1.00 19.94 LIG-0.27  OA
ATOM      3  N   GLU B 725      38.645  38.323  85.036  1.00 20.55 LIG-0.35  N 
ATOM      4 H    GLU B 725      38.619  37.606  84.563  1.00 20.55 LIG 0.16  HD
ENDROOT
BRANCH 3 5
ATOM      5  CA  GLU B 725      39.570  38.271  86.157  1.00 20.80 LIG 0.18  C 
BRANCH 5 6
ATOM      6  CB  GLU B 725      38.789  38.110  87.470  1.00 21.18 LIG 0.04  C 
BRANCH 6 7
ATOM      7  CG  GLU B 725      39.225  39.032  88.604  1.00 23.39 LIG 0.12  C 
BRANCH 7 8
ATOM      8  CD  GLU B 725      39.709  40.397  88.131  1.00 26.43 LIG 0.17  C 
ATOM      9 OE1  GLU B 725      38.879  41.316  87.940  1.00 27.49 LIG-0.65  OA
ATOM     10 OE2  GLU B 725      40.938  40.547  87.940  1.00 27.53 LIG-0.65  OA
ENDBRANCH 7 8
ENDBRANCH 6 7
ENDBRANCH 5 6
BRANCH 5 11
ATOM     11  C   GLU B 725      40.551  37.112  85.918  1.00 20.17 LIG 0.24  C 
ATOM     12  N   PRO B 726      41.841  37.414  85.746  1.00 19.83 LIG-0.34  N 
ATOM     13  CD  PRO B 726      42.464  38.751  85.688  1.00 19.46 LIG 0.13  C 
ATOM     14  CA  PRO B 726      42.837  36.353  85.622  1.00 19.64 LIG 0.19  C 
ATOM     15  CG  PRO B 726      43.920  38.469  85.429  1.00 19.20 LIG 0.02  C 
ATOM     16  CB  PRO B 726      44.023  37.064  84.969  1.00 19.97 LIG 0.04  C 
ATOM     17 O    GLU B 725      40.131  35.941  85.891  1.00 19.41 LIG-0.27  OA
BRANCH 14 18
ATOM     18  C   PRO B 726      43.164  35.887  87.036  1.00 19.81 LIG 0.20  C 
ATOM     19 OXT  PRO B 726      43.754  34.798  87.161  1.00 20.16 LIG-0.65  OA
ATOM     20 O    PRO B 726      42.796  36.572  88.000  1.00 18.50 LIG-0.65  OA
ENDBRANCH 14 18
ENDBRANCH 5 11
ENDBRANCH 3 5
BRANCH 1 21
ATOM     21  CA  PHE B 724      37.097  39.370  83.497  1.00 20.36 LIG 0.18  C 
BRANCH 21 22
ATOM     22  N   PHE B 724      36.132  40.473  83.436  1.00 20.75 LIG-0.35  N 
ATOM     23  C   GLY B 723      34.927  40.385  83.989  1.00 21.06 LIG 0.25  C 
ATOM     24 O    GLY B 723      34.542  39.385  84.600  1.00 21.29 LIG-0.27  OA
ATOM     25 H    PHE B 724      36.415  41.167  83.015  1.00 20.75 LIG 0.16  HD
BRANCH 23 26
ATOM     26  CA  GLY B 723      34.023  41.600  83.838  1.00 21.22 LIG 0.47  C 
ATOM     27  N   GLY B 723      32.573  41.249  83.816  1.00 21.24 LIG 0.61  N 
ENDBRANCH 23 26
ENDBRANCH 21 22
BRANCH 21 28
ATOM     28  CB  PHE B 724      38.020  39.381  82.276  1.00 20.22 LIG 0.07  C 
BRANCH 28 29
ATOM     29  CG  PHE B 724      38.100  38.065  81.565  1.00 20.05 LIG-0.06  A 
ATOM     30  CD1 PHE B 724      37.461  37.880  80.349  1.00 20.54 LIG 0.01  A 
ATOM     31  CE1 PHE B 724      37.528  36.654  79.690  1.00 21.50 LIG 0.00  A 
ATOM     32  CZ  PHE B 724      38.237  35.598  80.260  1.00 21.54 LIG 0.00  A 
ATOM     33  CE2 PHE B 724      38.879  35.775  81.475  1.00 21.44 LIG 0.00  A 
ATOM     34  CD2 PHE B 724      38.806  37.005  82.123  1.00 20.20 LIG 0.01  A 
ENDBRANCH 28 29
ENDBRANCH 21 28
ENDBRANCH 1 21
TORSDOF 11
ENDMDL
MODEL 40
USER: ADFR SOLUTION from run 186
USER: SCORE 10.313798 LL:  -1.663 LR:  -9.099 RR:   0.000 FEB:  -5.818
USER: RMSD 4.525911
USER: SEED 185
USER: STATUS no improvement in best in 16 clusters for 5 generations
USER: GENES 13
USER: genes 0 Translation |==|  0.68850 0.48902 0.59933
USER: genes 1 Rotation |==|  0.74358 0.51039 0.37259 0.91753
USER: genes 2 Torsion [C]-N--CA-[CB] |==|  0.85871
USER: genes 3 Torsion [N]-CA--CB-[CG] |==|  0.76466
USER: genes 4 Torsion [CA]-CB--CG-[CD] |==|  0.75069
USER: genes 5 Torsion [CB]-CG--CD-[OE1] |==|  0.13194
USER: genes 6 Torsion [N]-CA--C-[N] |==|  0.32222
USER: genes 7 Torsion [N]-CA--C-[OXT] |==|  0.99404
USER: genes 8 Torsion [N]-C--CA-[N] |==|  0.35554
USER: genes 9 Torsion [C]-CA--N-[C] |==|  0.77256
USER: genes 10 Torsion [N]-C--CA-[N] |==|  0.23876
USER: genes 11 Torsion [C]-CA--CB-[CG] |==|  0.48509
USER: genes 12 Torsion [CA]-CB--CG-[CD2] |==|  0.48214
ROOT
ATOM      1  C   PHE B 724      44.147  37.348  87.553  1.00 20.38 LIG 0.24  C 
ATOM      2 O    PHE B 724      44.619  37.986  86.613  1.00 19.94 LIG-0.27  OA
ATOM      3  N   GLU B 725      42.856  37.357  87.853  1.00 20.55 LIG-0.35  N 
ATOM      4 H    GLU B 725      42.499  36.859  88.456  1.00 20.55 LIG 0.16  HD
ENDROOT
BRANCH 3 5
ATOM      5  CA  GLU B 725      41.921  38.234  87.165  1.00 20.80 LIG 0.18  C 
BRANCH 5 6
ATOM      6  CB  GLU B 725      42.452  39.675  87.178  1.00 21.18 LIG 0.04  C 
BRANCH 6 7
ATOM      7  CG  GLU B 725      42.125  40.478  88.432  1.00 23.39 LIG 0.12  C 
BRANCH 7 8
ATOM      8  CD  GLU B 725      40.807  41.237  88.345  1.00 26.43 LIG 0.17  C 
ATOM      9 OE1  GLU B 725      39.778  40.649  87.937  1.00 27.49 LIG-0.65  OA
ATOM     10 OE2  GLU B 725      40.805  42.444  88.682  1.00 27.53 LIG-0.65  OA
ENDBRANCH 7 8
ENDBRANCH 6 7
ENDBRANCH 5 6
BRANCH 5 11
ATOM     11  C   GLU B 725      41.723  37.700  85.737  1.00 20.17 LIG 0.24  C 
ATOM     12  N   PRO B 726      40.503  37.273  85.396  1.00 19.83 LIG-0.34  N 
ATOM     13  CD  PRO B 726      39.300  37.179  86.246  1.00 19.46 LIG 0.13  C 
ATOM     14  CA  PRO B 726      40.225  36.855  84.026  1.00 19.64 LIG 0.19  C 
ATOM     15  CG  PRO B 726      38.253  36.588  85.340  1.00 19.20 LIG 0.02  C 
ATOM     16  CB  PRO B 726      38.956  36.013  84.169  1.00 19.97 LIG 0.04  C 
ATOM     17 O    GLU B 725      42.682  37.678  84.946  1.00 19.41 LIG-0.27  OA
BRANCH 14 18
ATOM     18  C   PRO B 726      39.974  38.124  83.220  1.00 19.81 LIG 0.20  C 
ATOM     19 OXT  PRO B 726      40.004  39.209  83.830  1.00 20.16 LIG-0.65  OA
ATOM     20 O    PRO B 726      39.707  38.033  82.014  1.00 18.50 LIG-0.65  OA
ENDBRANCH 14 18
ENDBRANCH 5 11
ENDBRANCH 3 5
BRANCH 1 21
ATOM     21  CA  PHE B 724      45.033  36.486  88.453  1.00 20.36 LIG 0.18  C 
BRANCH 21 22
ATOM     22  N   PHE B 724      45.864  35.561  87.675  1.00 20.75 LIG-0.35  N 
ATOM     23  C   GLY B 723      45.394  34.404  87.222  1.00 21.06 LIG 0.25  C 
ATOM     24 O    GLY B 723      44.233  34.033  87.410  1.00 21.29 LIG-0.27  OA
ATOM     25 H    PHE B 724      46.669  35.834  87.543  1.00 20.75 LIG 0.16  HD
BRANCH 23 26
ATOM     26  CA  GLY B 723      46.370  33.537  86.440  1.00 21.22 LIG 0.47  C 
ATOM     27  N   GLY B 723      47.201  32.658  87.315  1.00 21.24 LIG 0.61  N 
ENDBRANCH 23 26
ENDBRANCH 21 22
BRANCH 21 28
ATOM     28  CB  PHE B 724      45.896  37.365  89.361  1.00 20.22 LIG 0.07  C 
BRANCH 28 29
ATOM     29  CG  PHE B 724      46.701  36.596  90.364  1.00 20.05 LIG-0.06  A 
ATOM     30  CD1 PHE B 724      46.520  35.231  90.515  1.00 20.54 LIG 0.01  A 
ATOM     31  CE1 PHE B 724      47.263  34.516  91.452  1.00 21.50 LIG 0.00  A 
ATOM     32  CZ  PHE B 724      48.191  35.178  92.254  1.00 21.54 LIG 0.00  A 
ATOM     33  CE2 PHE B 724      48.378  36.543  92.109  1.00 21.44 LIG 0.00  A 
ATOM     34  CD2 PHE B 724      47.631  37.246  91.167  1.00 20.20 LIG 0.01  A 
ENDBRANCH 28 29
ENDBRANCH 21 28
ENDBRANCH 1 21
TORSDOF 11
ENDMDL
MODEL 41
USER: ADFR SOLUTION from run 32
USER: SCORE 10.425156 LL:  -1.582 LR:  -9.087 RR:   0.000 FEB:  -5.806
USER: RMSD 3.502817
USER: SEED 31
USER: STATUS no improvement in best in 11 clusters for 5 generations
USER: GENES 13
USER: genes 0 Translation |==|  0.50743 0.41432 0.55138
USER: genes 1 Rotation |==|  0.87207 0.52259 0.60141 0.81744
USER: genes 2 Torsion [C]-N--CA-[CB] |==|  0.85000
USER: genes 3 Torsion [N]-CA--CB-[CG] |==|  0.32227
USER: genes 4 Torsion [CA]-CB--CG-[CD] |==|  0.62809
USER: genes 5 Torsion [CB]-CG--CD-[OE1] |==|  0.55774
USER: genes 6 Torsion [N]-CA--C-[N] |==|  0.40752
USER: genes 7 Torsion [N]-CA--C-[OXT] |==|  0.65042
USER: genes 8 Torsion [N]-C--CA-[N] |==|  0.40010
USER: genes 9 Torsion [C]-CA--N-[C] |==|  0.64943
USER: genes 10 Torsion [N]-C--CA-[N] |==|  0.85853
USER: genes 11 Torsion [C]-CA--CB-[CG] |==|  0.39319
USER: genes 12 Torsion [CA]-CB--CG-[CD2] |==|  0.12295
ROOT
ATOM      1  C   PHE B 724      40.888  36.284  86.653  1.00 20.38 LIG 0.24  C 
ATOM      2 O    PHE B 724      40.923  37.512  86.599  1.00 19.94 LIG-0.27  OA
ATOM      3  N   GLU B 725      39.997  35.559  85.991  1.00 20.55 LIG-0.35  N 
ATOM      4 H    GLU B 725      40.007  34.700  85.956  1.00 20.55 LIG 0.16  HD
ENDROOT
BRANCH 3 5
ATOM      5  CA  GLU B 725      38.909  36.180  85.253  1.00 20.80 LIG 0.18  C 
BRANCH 5 6
ATOM      6  CB  GLU B 725      38.125  37.124  86.175  1.00 21.18 LIG 0.04  C 
BRANCH 6 7
ATOM      7  CG  GLU B 725      38.173  38.599  85.790  1.00 23.39 LIG 0.12  C 
BRANCH 7 8
ATOM      8  CD  GLU B 725      38.450  39.529  86.963  1.00 26.43 LIG 0.17  C 
ATOM      9 OE1  GLU B 725      38.137  40.740  86.882  1.00 27.49 LIG-0.65  OA
ATOM     10 OE2  GLU B 725      39.000  39.042  87.978  1.00 27.53 LIG-0.65  OA
ENDBRANCH 7 8
ENDBRANCH 6 7
ENDBRANCH 5 6
BRANCH 5 11
ATOM     11  C   GLU B 725      39.508  36.914  84.040  1.00 20.17 LIG 0.24  C 
ATOM     12  N   PRO B 726      38.780  36.962  82.921  1.00 19.83 LIG-0.34  N 
ATOM     13  CD  PRO B 726      37.471  36.334  82.657  1.00 19.46 LIG 0.13  C 
ATOM     14  CA  PRO B 726      39.246  37.734  81.772  1.00 19.64 LIG 0.19  C 
ATOM     15  CG  PRO B 726      37.174  36.689  81.224  1.00 19.20 LIG 0.02  C 
ATOM     16  CB  PRO B 726      38.442  37.148  80.610  1.00 19.97 LIG 0.04  C 
ATOM     17 O    GLU B 725      40.633  37.436  84.129  1.00 19.41 LIG-0.27  OA
BRANCH 14 18
ATOM     18  C   PRO B 726      38.877  39.189  82.040  1.00 19.81 LIG 0.20  C 
ATOM     19 OXT  PRO B 726      38.212  39.783  81.172  1.00 20.16 LIG-0.65  OA
ATOM     20 O    PRO B 726      39.284  39.736  83.073  1.00 18.50 LIG-0.65  OA
ENDBRANCH 14 18
ENDBRANCH 5 11
ENDBRANCH 3 5
BRANCH 1 21
ATOM     21  CA  PHE B 724      41.887  35.497  87.502  1.00 20.36 LIG 0.18  C 
BRANCH 21 22
ATOM     22  N   PHE B 724      43.216  36.118  87.497  1.00 20.75 LIG-0.35  N 
ATOM     23  C   GLY B 723      44.309  35.439  87.165  1.00 21.06 LIG 0.25  C 
ATOM     24 O    GLY B 723      44.284  34.253  86.829  1.00 21.29 LIG-0.27  OA
ATOM     25 H    PHE B 724      43.219  36.947  87.724  1.00 20.75 LIG 0.16  HD
BRANCH 23 26
ATOM     26  CA  GLY B 723      45.622  36.206  87.214  1.00 21.22 LIG 0.47  C 
ATOM     27  N   GLY B 723      45.572  37.499  86.470  1.00 21.24 LIG 0.61  N 
ENDBRANCH 23 26
ENDBRANCH 21 22
BRANCH 21 28
ATOM     28  CB  PHE B 724      41.366  35.331  88.932  1.00 20.22 LIG 0.07  C 
BRANCH 28 29
ATOM     29  CG  PHE B 724      41.663  33.991  89.534  1.00 20.05 LIG-0.06  A 
ATOM     30  CD1 PHE B 724      40.694  33.311  90.254  1.00 20.54 LIG 0.01  A 
ATOM     31  CE1 PHE B 724      40.971  32.069  90.820  1.00 21.50 LIG 0.00  A 
ATOM     32  CZ  PHE B 724      42.237  31.505  90.672  1.00 21.54 LIG 0.00  A 
ATOM     33  CE2 PHE B 724      43.212  32.179  89.954  1.00 21.44 LIG 0.00  A 
ATOM     34  CD2 PHE B 724      42.922  33.419  89.391  1.00 20.20 LIG 0.01  A 
ENDBRANCH 28 29
ENDBRANCH 21 28
ENDBRANCH 1 21
TORSDOF 11
ENDMDL
MODEL 42
USER: ADFR SOLUTION from run 74
USER: SCORE 11.095145 LL:  -2.828 LR:  -9.094 RR:   0.000 FEB:  -5.813
USER: RMSD 7.419674
USER: SEED 73
USER: STATUS no improvement in best in 15 clusters for 5 generations
USER: GENES 13
USER: genes 0 Translation |==|  0.54849 0.46140 0.44155
USER: genes 1 Rotation |==|  0.39958 0.35438 0.96466 0.55291
USER: genes 2 Torsion [C]-N--CA-[CB] |==|  0.19446
USER: genes 3 Torsion [N]-CA--CB-[CG] |==|  0.03745
USER: genes 4 Torsion [CA]-CB--CG-[CD] |==|  0.38423
USER: genes 5 Torsion [CB]-CG--CD-[OE1] |==|  0.88756
USER: genes 6 Torsion [N]-CA--C-[N] |==|  0.84240
USER: genes 7 Torsion [N]-CA--C-[OXT] |==|  0.03586
USER: genes 8 Torsion [N]-C--CA-[N] |==|  0.05001
USER: genes 9 Torsion [C]-CA--N-[C] |==|  0.17296
USER: genes 10 Torsion [N]-C--CA-[N] |==|  0.16541
USER: genes 11 Torsion [C]-CA--CB-[CG] |==|  0.24508
USER: genes 12 Torsion [CA]-CB--CG-[CD2] |==|  0.17306
ROOT
ATOM      1  C   PHE B 724      41.627  36.955  84.594  1.00 20.38 LIG 0.24  C 
ATOM      2 O    PHE B 724      41.762  37.880  83.795  1.00 19.94 LIG-0.27  OA
ATOM      3  N   GLU B 725      42.554  36.630  85.484  1.00 20.55 LIG-0.35  N 
ATOM      4 H    GLU B 725      42.445  36.038  86.098  1.00 20.55 LIG 0.16  HD
ENDROOT
BRANCH 3 5
ATOM      5  CA  GLU B 725      43.861  37.268  85.488  1.00 20.80 LIG 0.18  C 
BRANCH 5 6
ATOM      6  CB  GLU B 725      43.726  38.729  85.940  1.00 21.18 LIG 0.04  C 
BRANCH 6 7
ATOM      7  CG  GLU B 725      42.390  39.094  86.576  1.00 23.39 LIG 0.12  C 
BRANCH 7 8
ATOM      8  CD  GLU B 725      42.519  39.991  87.800  1.00 26.43 LIG 0.17  C 
ATOM      9 OE1  GLU B 725      43.438  39.783  88.627  1.00 27.49 LIG-0.65  OA
ATOM     10 OE2  GLU B 725      41.682  40.913  87.940  1.00 27.53 LIG-0.65  OA
ENDBRANCH 7 8
ENDBRANCH 6 7
ENDBRANCH 5 6
BRANCH 5 11
ATOM     11  C   GLU B 725      44.790  36.457  86.407  1.00 20.17 LIG 0.24  C 
ATOM     12  N   PRO B 726      44.406  36.274  87.674  1.00 19.83 LIG-0.34  N 
ATOM     13  CD  PRO B 726      43.212  36.813  88.351  1.00 19.46 LIG 0.13  C 
ATOM     14  CA  PRO B 726      45.190  35.424  88.565  1.00 19.64 LIG 0.19  C 
ATOM     15  CG  PRO B 726      43.335  36.317  89.767  1.00 19.20 LIG 0.02  C 
ATOM     16  CB  PRO B 726      44.733  35.863  89.957  1.00 19.97 LIG 0.04  C 
ATOM     17 O    GLU B 725      45.855  35.998  85.959  1.00 19.41 LIG-0.27  OA
BRANCH 14 18
ATOM     18  C   PRO B 726      44.791  33.984  88.266  1.00 19.81 LIG 0.20  C 
ATOM     19 OXT  PRO B 726      44.129  33.773  87.233  1.00 20.16 LIG-0.65  OA
ATOM     20 O    PRO B 726      45.092  33.092  89.070  1.00 18.50 LIG-0.65  OA
ENDBRANCH 14 18
ENDBRANCH 5 11
ENDBRANCH 3 5
BRANCH 1 21
ATOM     21  CA  PHE B 724      40.357  36.103  84.616  1.00 20.36 LIG 0.18  C 
BRANCH 21 22
ATOM     22  N   PHE B 724      40.218  35.363  85.876  1.00 20.75 LIG-0.35  N 
ATOM     23  C   GLY B 723      40.094  35.983  87.045  1.00 21.06 LIG 0.25  C 
ATOM     24 O    GLY B 723      40.075  37.211  87.153  1.00 21.29 LIG-0.27  OA
ATOM     25 H    PHE B 724      40.224  34.509  85.786  1.00 20.75 LIG 0.16  HD
BRANCH 23 26
ATOM     26  CA  GLY B 723      39.971  35.092  88.272  1.00 21.22 LIG 0.47  C 
ATOM     27  N   GLY B 723      41.147  34.191  88.459  1.00 21.24 LIG 0.61  N 
ENDBRANCH 23 26
ENDBRANCH 21 22
BRANCH 21 28
ATOM     28  CB  PHE B 724      39.123  36.968  84.350  1.00 20.22 LIG 0.07  C 
BRANCH 28 29
ATOM     29  CG  PHE B 724      38.788  37.118  82.898  1.00 20.05 LIG-0.06  A 
ATOM     30  CD1 PHE B 724      38.796  38.366  82.297  1.00 20.54 LIG 0.01  A 
ATOM     31  CE1 PHE B 724      38.478  38.508  80.948  1.00 21.50 LIG 0.00  A 
ATOM     32  CZ  PHE B 724      38.138  37.385  80.193  1.00 21.54 LIG 0.00  A 
ATOM     33  CE2 PHE B 724      38.129  36.133  80.787  1.00 21.44 LIG 0.00  A 
ATOM     34  CD2 PHE B 724      38.451  36.005  82.135  1.00 20.20 LIG 0.01  A 
ENDBRANCH 28 29
ENDBRANCH 21 28
ENDBRANCH 1 21
TORSDOF 11
ENDMDL
MODEL 43
USER: ADFR SOLUTION from run 94
USER: SCORE 10.950609 LL:  -2.361 LR:  -9.050 RR:   0.000 FEB:  -5.768
USER: RMSD 7.169983
USER: SEED 93
USER: STATUS no improvement in best in 6 clusters for 5 generations
USER: GENES 13
USER: genes 0 Translation |==|  0.44732 0.51806 0.42356
USER: genes 1 Rotation |==|  0.19573 0.57164 0.88306 0.57450
USER: genes 2 Torsion [C]-N--CA-[CB] |==|  0.52277
USER: genes 3 Torsion [N]-CA--CB-[CG] |==|  0.65375
USER: genes 4 Torsion [CA]-CB--CG-[CD] |==|  0.27097
USER: genes 5 Torsion [CB]-CG--CD-[OE1] |==|  0.00680
USER: genes 6 Torsion [N]-CA--C-[N] |==|  0.44555
USER: genes 7 Torsion [N]-CA--C-[OXT] |==|  0.41875
USER: genes 8 Torsion [N]-C--CA-[N] |==|  0.45331
USER: genes 9 Torsion [C]-CA--N-[C] |==|  0.55293
USER: genes 10 Torsion [N]-C--CA-[N] |==|  0.17415
USER: genes 11 Torsion [C]-CA--CB-[CG] |==|  0.14870
USER: genes 12 Torsion [CA]-CB--CG-[CD2] |==|  0.67519
ROOT
ATOM      1  C   PHE B 724      39.806  37.762  84.257  1.00 20.38 LIG 0.24  C 
ATOM      2 O    PHE B 724      40.829  37.603  83.594  1.00 19.94 LIG-0.27  OA
ATOM      3  N   GLU B 725      39.820  38.171  85.518  1.00 20.55 LIG-0.35  N 
ATOM      4 H    GLU B 725      39.114  38.360  85.970  1.00 20.55 LIG 0.16  HD
ENDROOT
BRANCH 3 5
ATOM      5  CA  GLU B 725      41.066  38.333  86.250  1.00 20.80 LIG 0.18  C 
BRANCH 5 6
ATOM      6  CB  GLU B 725      40.769  38.614  87.730  1.00 21.18 LIG 0.04  C 
BRANCH 6 7
ATOM      7  CG  GLU B 725      41.394  39.887  88.289  1.00 23.39 LIG 0.12  C 
BRANCH 7 8
ATOM      8  CD  GLU B 725      40.441  41.075  88.315  1.00 26.43 LIG 0.17  C 
ATOM      9 OE1  GLU B 725      39.254  40.927  87.941  1.00 27.49 LIG-0.65  OA
ATOM     10 OE2  GLU B 725      40.891  42.177  88.708  1.00 27.53 LIG-0.65  OA
ENDBRANCH 7 8
ENDBRANCH 6 7
ENDBRANCH 5 6
BRANCH 5 11
ATOM     11  C   GLU B 725      41.907  37.059  86.056  1.00 20.17 LIG 0.24  C 
ATOM     12  N   PRO B 726      43.219  37.138  86.293  1.00 19.83 LIG-0.34  N 
ATOM     13  CD  PRO B 726      44.009  38.329  86.662  1.00 19.46 LIG 0.13  C 
ATOM     14  CA  PRO B 726      44.052  35.941  86.231  1.00 19.64 LIG 0.19  C 
ATOM     15  CG  PRO B 726      45.424  37.822  86.746  1.00 19.20 LIG 0.02  C 
ATOM     16  CB  PRO B 726      45.464  36.506  86.065  1.00 19.97 LIG 0.04  C 
ATOM     17 O    GLU B 725      41.356  36.005  85.692  1.00 19.41 LIG-0.27  OA
BRANCH 14 18
ATOM     18  C   PRO B 726      43.885  35.218  87.563  1.00 19.81 LIG 0.20  C 
ATOM     19 OXT  PRO B 726      44.013  33.979  87.565  1.00 20.16 LIG-0.65  OA
ATOM     20 O    PRO B 726      43.586  35.869  88.573  1.00 18.50 LIG-0.65  OA
ENDBRANCH 14 18
ENDBRANCH 5 11
ENDBRANCH 3 5
BRANCH 1 21
ATOM     21  CA  PHE B 724      38.422  37.497  83.660  1.00 20.36 LIG 0.18  C 
BRANCH 21 22
ATOM     22  N   PHE B 724      38.463  37.440  82.194  1.00 20.75 LIG-0.35  N 
ATOM     23  C   GLY B 723      37.370  37.592  81.454  1.00 21.06 LIG 0.25  C 
ATOM     24 O    GLY B 723      36.257  37.803  81.940  1.00 21.29 LIG-0.27  OA
ATOM     25 H    PHE B 724      39.246  37.301  81.868  1.00 20.75 LIG 0.16  HD
BRANCH 23 26
ATOM     26  CA  GLY B 723      37.556  37.498  79.947  1.00 21.22 LIG 0.47  C 
ATOM     27  N   GLY B 723      38.041  36.158  79.502  1.00 21.24 LIG 0.61  N 
ENDBRANCH 23 26
ENDBRANCH 21 22
BRANCH 21 28
ATOM     28  CB  PHE B 724      37.822  36.215  84.241  1.00 20.22 LIG 0.07  C 
BRANCH 28 29
ATOM     29  CG  PHE B 724      37.789  36.185  85.739  1.00 20.05 LIG-0.06  A 
ATOM     30  CD1 PHE B 724      37.045  37.117  86.446  1.00 20.54 LIG 0.01  A 
ATOM     31  CE1 PHE B 724      37.019  37.095  87.839  1.00 21.50 LIG 0.00  A 
ATOM     32  CZ  PHE B 724      37.754  36.134  88.532  1.00 21.54 LIG 0.00  A 
ATOM     33  CE2 PHE B 724      38.500  35.199  87.832  1.00 21.44 LIG 0.00  A 
ATOM     34  CD2 PHE B 724      38.516  35.230  86.441  1.00 20.20 LIG 0.01  A 
ENDBRANCH 28 29
ENDBRANCH 21 28
ENDBRANCH 1 21
TORSDOF 11
ENDMDL
MODEL 44
USER: ADFR SOLUTION from run 47
USER: SCORE 10.653691 LL:  -1.760 LR:  -9.039 RR:   0.000 FEB:  -5.758
USER: RMSD 6.871960
USER: SEED 46
USER: STATUS no improvement in best in 15 clusters for 5 generations
USER: GENES 13
USER: genes 0 Translation |==|  0.30843 0.57619 0.42578
USER: genes 1 Rotation |==|  0.88435 0.55718 0.30607 0.74778
USER: genes 2 Torsion [C]-N--CA-[CB] |==|  0.85880
USER: genes 3 Torsion [N]-CA--CB-[CG] |==|  0.36281
USER: genes 4 Torsion [CA]-CB--CG-[CD] |==|  0.51960
USER: genes 5 Torsion [CB]-CG--CD-[OE1] |==|  0.02151
USER: genes 6 Torsion [N]-CA--C-[N] |==|  0.37371
USER: genes 7 Torsion [N]-CA--C-[OXT] |==|  0.89490
USER: genes 8 Torsion [N]-C--CA-[N] |==|  0.34473
USER: genes 9 Torsion [C]-CA--N-[C] |==|  0.84165
USER: genes 10 Torsion [N]-C--CA-[N] |==|  0.23293
USER: genes 11 Torsion [C]-CA--CB-[CG] |==|  0.28019
USER: genes 12 Torsion [CA]-CB--CG-[CD2] |==|  0.34001
ROOT
ATOM      1  C   PHE B 724      37.306  38.591  84.298  1.00 20.38 LIG 0.24  C 
ATOM      2 O    PHE B 724      37.964  39.596  84.038  1.00 19.94 LIG-0.27  OA
ATOM      3  N   GLU B 725      36.100  38.641  84.846  1.00 20.55 LIG-0.35  N 
ATOM      4 H    GLU B 725      35.596  37.954  84.964  1.00 20.55 LIG 0.16  HD
ENDROOT
BRANCH 3 5
ATOM      5  CA  GLU B 725      35.523  39.896  85.302  1.00 20.80 LIG 0.18  C 
BRANCH 5 6
ATOM      6  CB  GLU B 725      36.521  40.629  86.210  1.00 21.18 LIG 0.04  C 
BRANCH 6 7
ATOM      7  CG  GLU B 725      36.757  42.096  85.868  1.00 23.39 LIG 0.12  C 
BRANCH 7 8
ATOM      8  CD  GLU B 725      37.874  42.741  86.678  1.00 26.43 LIG 0.17  C 
ATOM      9 OE1  GLU B 725      38.590  42.031  87.421  1.00 27.49 LIG-0.65  OA
ATOM     10 OE2  GLU B 725      38.030  43.980  86.575  1.00 27.53 LIG-0.65  OA
ENDBRANCH 7 8
ENDBRANCH 6 7
ENDBRANCH 5 6
BRANCH 5 11
ATOM     11  C   GLU B 725      35.142  40.727  84.065  1.00 20.17 LIG 0.24  C 
ATOM     12  N   PRO B 726      33.943  41.317  84.058  1.00 19.83 LIG-0.34  N 
ATOM     13  CD  PRO B 726      32.877  41.227  85.074  1.00 19.46 LIG 0.13  C 
ATOM     14  CA  PRO B 726      33.566  42.205  82.962  1.00 19.64 LIG 0.19  C 
ATOM     15  CG  PRO B 726      31.754  42.053  84.505  1.00 19.20 LIG 0.02  C 
ATOM     16  CB  PRO B 726      32.041  42.257  83.065  1.00 19.97 LIG 0.04  C 
ATOM     17 O    GLU B 725      35.942  40.829  83.119  1.00 19.41 LIG-0.27  OA
BRANCH 14 18
ATOM     18  C   PRO B 726      34.200  43.561  83.255  1.00 19.81 LIG 0.20  C 
ATOM     19 OXT  PRO B 726      34.230  43.938  84.441  1.00 20.16 LIG-0.65  OA
ATOM     20 O    PRO B 726      34.616  44.251  82.315  1.00 18.50 LIG-0.65  OA
ENDBRANCH 14 18
ENDBRANCH 5 11
ENDBRANCH 3 5
BRANCH 1 21
ATOM     21  CA  PHE B 724      37.843  37.190  84.001  1.00 20.36 LIG 0.18  C 
BRANCH 21 22
ATOM     22  N   PHE B 724      38.212  37.036  82.589  1.00 20.75 LIG-0.35  N 
ATOM     23  C   GLY B 723      37.341  37.247  81.608  1.00 21.06 LIG 0.25  C 
ATOM     24 O    GLY B 723      36.176  37.597  81.810  1.00 21.29 LIG-0.27  OA
ATOM     25 H    PHE B 724      39.028  36.800  82.461  1.00 20.75 LIG 0.16  HD
BRANCH 23 26
ATOM     26  CA  GLY B 723      37.856  37.039  80.191  1.00 21.22 LIG 0.47  C 
ATOM     27  N   GLY B 723      37.805  35.612  79.756  1.00 21.24 LIG 0.61  N 
ENDBRANCH 23 26
ENDBRANCH 21 22
BRANCH 21 28
ATOM     28  CB  PHE B 724      39.026  36.862  84.915  1.00 20.22 LIG 0.07  C 
BRANCH 28 29
ATOM     29  CG  PHE B 724      38.671  35.982  86.075  1.00 20.05 LIG-0.06  A 
ATOM     30  CD1 PHE B 724      37.703  36.373  86.986  1.00 20.54 LIG 0.01  A 
ATOM     31  CE1 PHE B 724      37.378  35.559  88.069  1.00 21.50 LIG 0.00  A 
ATOM     32  CZ  PHE B 724      38.036  34.343  88.247  1.00 21.54 LIG 0.00  A 
ATOM     33  CE2 PHE B 724      39.004  33.945  87.339  1.00 21.44 LIG 0.00  A 
ATOM     34  CD2 PHE B 724      39.319  34.766  86.260  1.00 20.20 LIG 0.01  A 
ENDBRANCH 28 29
ENDBRANCH 21 28
ENDBRANCH 1 21
TORSDOF 11
ENDMDL
MODEL 45
USER: ADFR SOLUTION from run 145
USER: SCORE 10.869098 LL:  -3.639 LR:  -8.987 RR:   0.000 FEB:  -5.706
USER: RMSD 4.352026
USER: SEED 144
USER: STATUS no improvement in best in 31 clusters for 5 generations
USER: GENES 13
USER: genes 0 Translation |==|  0.53493 0.50556 0.47180
USER: genes 1 Rotation |==|  0.66569 0.43135 0.43865 0.96268
USER: genes 2 Torsion [C]-N--CA-[CB] |==|  0.35079
USER: genes 3 Torsion [N]-CA--CB-[CG] |==|  0.57843
USER: genes 4 Torsion [CA]-CB--CG-[CD] |==|  0.80108
USER: genes 5 Torsion [CB]-CG--CD-[OE1] |==|  0.36475
USER: genes 6 Torsion [N]-CA--C-[N] |==|  0.83337
USER: genes 7 Torsion [N]-CA--C-[OXT] |==|  0.39129
USER: genes 8 Torsion [N]-C--CA-[N] |==|  0.87080
USER: genes 9 Torsion [C]-CA--N-[C] |==|  0.77407
USER: genes 10 Torsion [N]-C--CA-[N] |==|  0.94553
USER: genes 11 Torsion [C]-CA--CB-[CG] |==|  0.75415
USER: genes 12 Torsion [CA]-CB--CG-[CD2] |==|  0.20746
ROOT
ATOM      1  C   PHE B 724      41.383  37.584  85.161  1.00 20.38 LIG 0.24  C 
ATOM      2 O    PHE B 724      42.108  37.881  84.214  1.00 19.94 LIG-0.27  OA
ATOM      3  N   GLU B 725      40.066  37.474  85.054  1.00 20.55 LIG-0.35  N 
ATOM      4 H    GLU B 725      39.554  37.194  85.685  1.00 20.55 LIG 0.16  HD
ENDROOT
BRANCH 3 5
ATOM      5  CA  GLU B 725      39.371  37.829  83.827  1.00 20.80 LIG 0.18  C 
BRANCH 5 6
ATOM      6  CB  GLU B 725      38.499  36.654  83.363  1.00 21.18 LIG 0.04  C 
BRANCH 6 7
ATOM      7  CG  GLU B 725      38.260  36.575  81.859  1.00 23.39 LIG 0.12  C 
BRANCH 7 8
ATOM      8  CD  GLU B 725      37.326  37.655  81.330  1.00 26.43 LIG 0.17  C 
ATOM      9 OE1  GLU B 725      37.657  38.322  80.322  1.00 27.49 LIG-0.65  OA
ATOM     10 OE2  GLU B 725      36.247  37.845  81.940  1.00 27.53 LIG-0.65  OA
ENDBRANCH 7 8
ENDBRANCH 6 7
ENDBRANCH 5 6
BRANCH 5 11
ATOM     11  C   GLU B 725      38.544  39.099  84.093  1.00 20.17 LIG 0.24  C 
ATOM     12  N   PRO B 726      37.606  39.043  85.043  1.00 19.83 LIG-0.34  N 
ATOM     13  CD  PRO B 726      37.198  37.879  85.853  1.00 19.46 LIG 0.13  C 
ATOM     14  CA  PRO B 726      36.863  40.243  85.417  1.00 19.64 LIG 0.19  C 
ATOM     15  CG  PRO B 726      36.076  38.401  86.711  1.00 19.20 LIG 0.02  C 
ATOM     16  CB  PRO B 726      35.624  39.681  86.116  1.00 19.97 LIG 0.04  C 
ATOM     17 O    GLU B 725      38.763  40.129  83.431  1.00 19.41 LIG-0.27  OA
BRANCH 14 18
ATOM     18  C   PRO B 726      37.748  41.030  86.376  1.00 19.81 LIG 0.20  C 
ATOM     19 OXT  PRO B 726      37.757  42.270  86.265  1.00 20.16 LIG-0.65  OA
ATOM     20 O    PRO B 726      38.453  40.418  87.190  1.00 18.50 LIG-0.65  OA
ENDBRANCH 14 18
ENDBRANCH 5 11
ENDBRANCH 3 5
BRANCH 1 21
ATOM     21  CA  PHE B 724      41.961  37.316  86.552  1.00 20.36 LIG 0.18  C 
BRANCH 21 22
ATOM     22  N   PHE B 724      41.207  38.012  87.600  1.00 20.75 LIG-0.35  N 
ATOM     23  C   GLY B 723      41.408  39.295  87.878  1.00 21.06 LIG 0.25  C 
ATOM     24 O    GLY B 723      42.227  39.991  87.272  1.00 21.29 LIG-0.27  OA
ATOM     25 H    PHE B 724      40.633  37.519  88.009  1.00 20.75 LIG 0.16  HD
BRANCH 23 26
ATOM     26  CA  GLY B 723      40.564  39.886  88.997  1.00 21.22 LIG 0.47  C 
ATOM     27  N   GLY B 723      39.341  39.083  89.291  1.00 21.24 LIG 0.61  N 
ENDBRANCH 23 26
ENDBRANCH 21 22
BRANCH 21 28
ATOM     28  CB  PHE B 724      42.023  35.812  86.828  1.00 20.22 LIG 0.07  C 
BRANCH 28 29
ATOM     29  CG  PHE B 724      40.773  35.256  87.439  1.00 20.05 LIG-0.06  A 
ATOM     30  CD1 PHE B 724      40.739  34.904  88.779  1.00 20.54 LIG 0.01  A 
ATOM     31  CE1 PHE B 724      39.580  34.380  89.346  1.00 21.50 LIG 0.00  A 
ATOM     32  CZ  PHE B 724      38.443  34.197  88.560  1.00 21.54 LIG 0.00  A 
ATOM     33  CE2 PHE B 724      38.469  34.546  87.219  1.00 21.44 LIG 0.00  A 
ATOM     34  CD2 PHE B 724      39.633  35.071  86.664  1.00 20.20 LIG 0.01  A 
ENDBRANCH 28 29
ENDBRANCH 21 28
ENDBRANCH 1 21
TORSDOF 11
ENDMDL
MODEL 46
USER: ADFR SOLUTION from run 42
USER: SCORE 10.332468 LL:  -2.753 LR:  -8.957 RR:   0.000 FEB:  -5.676
USER: RMSD 7.207312
USER: SEED 41
USER: STATUS no improvement in best in 15 clusters for 5 generations
USER: GENES 13
USER: genes 0 Translation |==|  0.29657 0.66557 0.45067
USER: genes 1 Rotation |==|  0.19189 0.22881 0.77982 0.55678
USER: genes 2 Torsion [C]-N--CA-[CB] |==|  0.44918
USER: genes 3 Torsion [N]-CA--CB-[CG] |==|  0.77617
USER: genes 4 Torsion [CA]-CB--CG-[CD] |==|  0.14512
USER: genes 5 Torsion [CB]-CG--CD-[OE1] |==|  0.75563
USER: genes 6 Torsion [N]-CA--C-[N] |==|  0.88436
USER: genes 7 Torsion [N]-CA--C-[OXT] |==|  0.00479
USER: genes 8 Torsion [N]-C--CA-[N] |==|  0.33515
USER: genes 9 Torsion [C]-CA--N-[C] |==|  0.77322
USER: genes 10 Torsion [N]-C--CA-[N] |==|  0.02099
USER: genes 11 Torsion [C]-CA--CB-[CG] |==|  0.31541
USER: genes 12 Torsion [CA]-CB--CG-[CD2] |==|  0.96104
ROOT
ATOM      1  C   PHE B 724      37.092  39.864  84.765  1.00 20.38 LIG 0.24  C 
ATOM      2 O    PHE B 724      37.754  40.832  85.136  1.00 19.94 LIG-0.27  OA
ATOM      3  N   GLU B 725      36.827  38.830  85.550  1.00 20.55 LIG-0.35  N 
ATOM      4 H    GLU B 725      36.303  38.183  85.333  1.00 20.55 LIG 0.16  HD
ENDROOT
BRANCH 3 5
ATOM      5  CA  GLU B 725      37.418  38.709  86.874  1.00 20.80 LIG 0.18  C 
BRANCH 5 6
ATOM      6  CB  GLU B 725      36.615  37.705  87.713  1.00 21.18 LIG 0.04  C 
BRANCH 6 7
ATOM      7  CG  GLU B 725      35.340  38.255  88.343  1.00 23.39 LIG 0.12  C 
BRANCH 7 8
ATOM      8  CD  GLU B 725      34.415  38.944  87.348  1.00 26.43 LIG 0.17  C 
ATOM      9 OE1  GLU B 725      34.565  40.165  87.105  1.00 27.49 LIG-0.65  OA
ATOM     10 OE2  GLU B 725      33.517  38.255  86.810  1.00 27.53 LIG-0.65  OA
ENDBRANCH 7 8
ENDBRANCH 6 7
ENDBRANCH 5 6
BRANCH 5 11
ATOM     11  C   GLU B 725      38.887  38.285  86.707  1.00 20.17 LIG 0.24  C 
ATOM     12  N   PRO B 726      39.166  37.356  85.789  1.00 19.83 LIG-0.34  N 
ATOM     13  CD  PRO B 726      38.225  36.611  84.931  1.00 19.46 LIG 0.13  C 
ATOM     14  CA  PRO B 726      40.552  36.990  85.509  1.00 19.64 LIG 0.19  C 
ATOM     15  CG  PRO B 726      39.105  35.677  84.143  1.00 19.20 LIG 0.02  C 
ATOM     16  CB  PRO B 726      40.421  35.630  84.822  1.00 19.97 LIG 0.04  C 
ATOM     17 O    GLU B 725      39.764  38.808  87.417  1.00 19.41 LIG-0.27  OA
BRANCH 14 18
ATOM     18  C   PRO B 726      41.106  38.051  84.564  1.00 19.81 LIG 0.20  C 
ATOM     19 OXT  PRO B 726      40.352  38.990  84.247  1.00 20.16 LIG-0.65  OA
ATOM     20 O    PRO B 726      42.252  37.921  84.113  1.00 18.50 LIG-0.65  OA
ENDBRANCH 14 18
ENDBRANCH 5 11
ENDBRANCH 3 5
BRANCH 1 21
ATOM     21  CA  PHE B 724      36.519  39.788  83.349  1.00 20.36 LIG 0.18  C 
BRANCH 21 22
ATOM     22  N   PHE B 724      35.616  40.910  83.065  1.00 20.75 LIG-0.35  N 
ATOM     23  C   GLY B 723      34.348  40.909  83.461  1.00 21.06 LIG 0.25  C 
ATOM     24 O    GLY B 723      33.846  39.981  84.099  1.00 21.29 LIG-0.27  OA
ATOM     25 H    PHE B 724      35.980  41.554  82.627  1.00 20.75 LIG 0.16  HD
BRANCH 23 26
ATOM     26  CA  GLY B 723      33.522  42.131  83.088  1.00 21.22 LIG 0.47  C 
ATOM     27  N   GLY B 723      34.242  43.064  82.171  1.00 21.24 LIG 0.61  N 
ENDBRANCH 23 26
ENDBRANCH 21 22
BRANCH 21 28
ATOM     28  CB  PHE B 724      37.645  39.717  82.315  1.00 20.22 LIG 0.07  C 
BRANCH 28 29
ATOM     29  CG  PHE B 724      37.709  38.416  81.575  1.00 20.05 LIG-0.06  A 
ATOM     30  CD1 PHE B 724      38.459  38.300  80.416  1.00 20.54 LIG 0.01  A 
ATOM     31  CE1 PHE B 724      38.513  37.092  79.723  1.00 21.50 LIG 0.00  A 
ATOM     32  CZ  PHE B 724      37.799  35.990  80.192  1.00 21.54 LIG 0.00  A 
ATOM     33  CE2 PHE B 724      37.047  36.098  81.352  1.00 21.44 LIG 0.00  A 
ATOM     34  CD2 PHE B 724      37.003  37.310  82.036  1.00 20.20 LIG 0.01  A 
ENDBRANCH 28 29
ENDBRANCH 21 28
ENDBRANCH 1 21
TORSDOF 11
ENDMDL
MODEL 47
USER: ADFR SOLUTION from run 57
USER: SCORE 10.363988 LL:  -2.847 LR:  -8.914 RR:   0.000 FEB:  -5.633
USER: RMSD 6.938172
USER: SEED 56
USER: STATUS no improvement in best in 17 clusters for 5 generations
USER: GENES 13
USER: genes 0 Translation |==|  0.36136 0.60633 0.41593
USER: genes 1 Rotation |==|  0.86211 0.50490 0.39595 0.82867
USER: genes 2 Torsion [C]-N--CA-[CB] |==|  0.47302
USER: genes 3 Torsion [N]-CA--CB-[CG] |==|  0.39427
USER: genes 4 Torsion [CA]-CB--CG-[CD] |==|  0.66705
USER: genes 5 Torsion [CB]-CG--CD-[OE1] |==|  0.03118
USER: genes 6 Torsion [N]-CA--C-[N] |==|  0.86780
USER: genes 7 Torsion [N]-CA--C-[OXT] |==|  0.35217
USER: genes 8 Torsion [N]-C--CA-[N] |==|  0.96738
USER: genes 9 Torsion [C]-CA--N-[C] |==|  0.72913
USER: genes 10 Torsion [N]-C--CA-[N] |==|  0.35321
USER: genes 11 Torsion [C]-CA--CB-[CG] |==|  0.88212
USER: genes 12 Torsion [CA]-CB--CG-[CD2] |==|  0.23635
ROOT
ATOM      1  C   PHE B 724      38.258  39.020  84.114  1.00 20.38 LIG 0.24  C 
ATOM      2 O    PHE B 724      38.879  40.021  83.761  1.00 19.94 LIG-0.27  OA
ATOM      3  N   GLU B 725      36.934  38.972  84.160  1.00 20.55 LIG-0.35  N 
ATOM      4 H    GLU B 725      36.485  38.259  84.329  1.00 20.55 LIG 0.16  HD
ENDROOT
BRANCH 3 5
ATOM      5  CA  GLU B 725      36.122  40.154  83.919  1.00 20.80 LIG 0.18  C 
BRANCH 5 6
ATOM      6  CB  GLU B 725      34.644  39.755  83.797  1.00 21.18 LIG 0.04  C 
BRANCH 6 7
ATOM      7  CG  GLU B 725      33.653  40.729  84.424  1.00 23.39 LIG 0.12  C 
BRANCH 7 8
ATOM      8  CD  GLU B 725      32.804  40.113  85.528  1.00 26.43 LIG 0.17  C 
ATOM      9 OE1  GLU B 725      33.102  38.983  85.981  1.00 27.49 LIG-0.65  OA
ATOM     10 OE2  GLU B 725      31.818  40.767  85.941  1.00 27.53 LIG-0.65  OA
ENDBRANCH 7 8
ENDBRANCH 6 7
ENDBRANCH 5 6
BRANCH 5 11
ATOM     11  C   GLU B 725      36.364  41.146  85.069  1.00 20.17 LIG 0.24  C 
ATOM     12  N   PRO B 726      36.316  40.675  86.318  1.00 19.83 LIG-0.34  N 
ATOM     13  CD  PRO B 726      35.989  39.307  86.764  1.00 19.46 LIG 0.13  C 
ATOM     14  CA  PRO B 726      36.644  41.542  87.446  1.00 19.64 LIG 0.19  C 
ATOM     15  CG  PRO B 726      36.045  39.384  88.267  1.00 19.20 LIG 0.02  C 
ATOM     16  CB  PRO B 726      36.011  40.819  88.636  1.00 19.97 LIG 0.04  C 
ATOM     17 O    GLU B 725      36.596  42.341  84.815  1.00 19.41 LIG-0.27  OA
BRANCH 14 18
ATOM     18  C   PRO B 726      38.164  41.578  87.549  1.00 19.81 LIG 0.20  C 
ATOM     19 OXT  PRO B 726      38.714  42.695  87.565  1.00 20.16 LIG-0.65  OA
ATOM     20 O    PRO B 726      38.796  40.513  87.565  1.00 18.50 LIG-0.65  OA
ENDBRANCH 14 18
ENDBRANCH 5 11
ENDBRANCH 3 5
BRANCH 1 21
ATOM     21  CA  PHE B 724      38.985  37.740  84.530  1.00 20.36 LIG 0.18  C 
BRANCH 21 22
ATOM     22  N   PHE B 724      38.077  36.780  85.167  1.00 20.75 LIG-0.35  N 
ATOM     23  C   GLY B 723      37.976  36.676  86.488  1.00 21.06 LIG 0.25  C 
ATOM     24 O    GLY B 723      38.623  37.381  87.265  1.00 21.29 LIG-0.27  OA
ATOM     25 H    PHE B 724      37.625  36.301  84.614  1.00 20.75 LIG 0.16  HD
BRANCH 23 26
ATOM     26  CA  GLY B 723      37.004  35.630  87.012  1.00 21.22 LIG 0.47  C 
ATOM     27  N   GLY B 723      37.627  34.695  87.994  1.00 21.24 LIG 0.61  N 
ENDBRANCH 23 26
ENDBRANCH 21 22
BRANCH 21 28
ATOM     28  CB  PHE B 724      39.694  37.109  83.329  1.00 20.22 LIG 0.07  C 
BRANCH 28 29
ATOM     29  CG  PHE B 724      38.879  37.114  82.072  1.00 20.05 LIG-0.06  A 
ATOM     30  CD1 PHE B 724      38.131  36.005  81.712  1.00 20.54 LIG 0.01  A 
ATOM     31  CE1 PHE B 724      37.378  36.006  80.540  1.00 21.50 LIG 0.00  A 
ATOM     32  CZ  PHE B 724      37.383  37.128  79.712  1.00 21.54 LIG 0.00  A 
ATOM     33  CE2 PHE B 724      38.129  38.241  80.065  1.00 21.44 LIG 0.00  A 
ATOM     34  CD2 PHE B 724      38.875  38.229  81.240  1.00 20.20 LIG 0.01  A 
ENDBRANCH 28 29
ENDBRANCH 21 28
ENDBRANCH 1 21
TORSDOF 11
ENDMDL
MODEL 48
USER: ADFR SOLUTION from run 21
USER: SCORE 10.792195 LL:  -2.068 LR:  -8.887 RR:   0.000 FEB:  -5.606
USER: RMSD 7.647786
USER: SEED 20
USER: STATUS no improvement in best in 14 clusters for 5 generations
USER: GENES 13
USER: genes 0 Translation |==|  0.40713 0.53526 0.52494
USER: genes 1 Rotation |==|  0.65643 0.67458 0.05867 0.51676
USER: genes 2 Torsion [C]-N--CA-[CB] |==|  0.86620
USER: genes 3 Torsion [N]-CA--CB-[CG] |==|  0.82251
USER: genes 4 Torsion [CA]-CB--CG-[CD] |==|  0.40025
USER: genes 5 Torsion [CB]-CG--CD-[OE1] |==|  0.91888
USER: genes 6 Torsion [N]-CA--C-[N] |==|  0.38082
USER: genes 7 Torsion [N]-CA--C-[OXT] |==|  0.84524
USER: genes 8 Torsion [N]-C--CA-[N] |==|  0.35556
USER: genes 9 Torsion [C]-CA--N-[C] |==|  0.83676
USER: genes 10 Torsion [N]-C--CA-[N] |==|  0.36327
USER: genes 11 Torsion [C]-CA--CB-[CG] |==|  0.77771
USER: genes 12 Torsion [CA]-CB--CG-[CD2] |==|  0.70957
ROOT
ATOM      1  C   PHE B 724      39.082  38.008  86.158  1.00 20.38 LIG 0.24  C 
ATOM      2 O    PHE B 724      39.258  39.007  85.464  1.00 19.94 LIG-0.27  OA
ATOM      3  N   GLU B 725      39.736  37.793  87.291  1.00 20.55 LIG-0.35  N 
ATOM      4 H    GLU B 725      39.571  37.140  87.825  1.00 20.55 LIG 0.16  HD
ENDROOT
BRANCH 3 5
ATOM      5  CA  GLU B 725      40.811  38.670  87.726  1.00 20.80 LIG 0.18  C 
BRANCH 5 6
ATOM      6  CB  GLU B 725      41.788  38.913  86.566  1.00 21.18 LIG 0.04  C 
BRANCH 6 7
ATOM      7  CG  GLU B 725      42.527  37.676  86.067  1.00 23.39 LIG 0.12  C 
BRANCH 7 8
ATOM      8  CD  GLU B 725      42.758  37.668  84.562  1.00 26.43 LIG 0.17  C 
ATOM      9 OE1  GLU B 725      41.948  38.255  83.807  1.00 27.49 LIG-0.65  OA
ATOM     10 OE2  GLU B 725      43.762  37.055  84.128  1.00 27.53 LIG-0.65  OA
ENDBRANCH 7 8
ENDBRANCH 6 7
ENDBRANCH 5 6
BRANCH 5 11
ATOM     11  C   GLU B 725      40.186  39.976  88.244  1.00 20.17 LIG 0.24  C 
ATOM     12  N   PRO B 726      40.680  40.498  89.370  1.00 19.83 LIG-0.34  N 
ATOM     13  CD  PRO B 726      41.730  39.945  90.247  1.00 19.46 LIG 0.13  C 
ATOM     14  CA  PRO B 726      40.203  41.790  89.854  1.00 19.64 LIG 0.19  C 
ATOM     15  CG  PRO B 726      41.828  40.936  91.377  1.00 19.20 LIG 0.02  C 
ATOM     16  CB  PRO B 726      40.612  41.783  91.328  1.00 19.97 LIG 0.04  C 
ATOM     17 O    GLU B 725      39.254  40.507  87.615  1.00 19.41 LIG-0.27  OA
BRANCH 14 18
ATOM     18  C   PRO B 726      40.949  42.860  89.065  1.00 19.81 LIG 0.20  C 
ATOM     19 OXT  PRO B 726      42.193  42.828  89.085  1.00 20.16 LIG-0.65  OA
ATOM     20 O    PRO B 726      40.304  43.739  88.478  1.00 18.50 LIG-0.65  OA
ENDBRANCH 14 18
ENDBRANCH 5 11
ENDBRANCH 3 5
BRANCH 1 21
ATOM     21  CA  PHE B 724      38.079  36.926  85.754  1.00 20.36 LIG 0.18  C 
BRANCH 21 22
ATOM     22  N   PHE B 724      36.756  37.491  85.464  1.00 20.75 LIG-0.35  N 
ATOM     23  C   GLY B 723      36.073  38.185  86.368  1.00 21.06 LIG 0.25  C 
ATOM     24 O    GLY B 723      36.503  38.412  87.501  1.00 21.29 LIG-0.27  OA
ATOM     25 H    PHE B 724      36.471  37.333  84.668  1.00 20.75 LIG 0.16  HD
BRANCH 23 26
ATOM     26  CA  GLY B 723      34.709  38.701  85.936  1.00 21.22 LIG 0.47  C 
ATOM     27  N   GLY B 723      33.630  38.393  86.919  1.00 21.24 LIG 0.61  N 
ENDBRANCH 23 26
ENDBRANCH 21 22
BRANCH 21 28
ATOM     28  CB  PHE B 724      38.604  36.121  84.563  1.00 20.22 LIG 0.07  C 
BRANCH 28 29
ATOM     29  CG  PHE B 724      38.416  36.802  83.241  1.00 20.05 LIG-0.06  A 
ATOM     30  CD1 PHE B 724      39.221  37.869  82.877  1.00 20.54 LIG 0.01  A 
ATOM     31  CE1 PHE B 724      39.042  38.507  81.651  1.00 21.50 LIG 0.00  A 
ATOM     32  CZ  PHE B 724      38.039  38.076  80.784  1.00 21.54 LIG 0.00  A 
ATOM     33  CE2 PHE B 724      37.230  37.009  81.141  1.00 21.44 LIG 0.00  A 
ATOM     34  CD2 PHE B 724      37.420  36.379  82.367  1.00 20.20 LIG 0.01  A 
ENDBRANCH 28 29
ENDBRANCH 21 28
ENDBRANCH 1 21
TORSDOF 11
ENDMDL
MODEL 49
USER: ADFR SOLUTION from run 60
USER: SCORE 10.019975 LL:  -2.660 LR:  -8.885 RR:   0.000 FEB:  -5.603
USER: RMSD 5.242749
USER: SEED 59
USER: STATUS no improvement in best in 12 clusters for 5 generations
USER: GENES 13
USER: genes 0 Translation |==|  0.48259 0.41060 0.51506
USER: genes 1 Rotation |==|  0.81429 0.31651 0.59996 0.82796
USER: genes 2 Torsion [C]-N--CA-[CB] |==|  0.50032
USER: genes 3 Torsion [N]-CA--CB-[CG] |==|  0.41829
USER: genes 4 Torsion [CA]-CB--CG-[CD] |==|  0.62414
USER: genes 5 Torsion [CB]-CG--CD-[OE1] |==|  0.28686
USER: genes 6 Torsion [N]-CA--C-[N] |==|  0.87100
USER: genes 7 Torsion [N]-CA--C-[OXT] |==|  0.92994
USER: genes 8 Torsion [N]-C--CA-[N] |==|  0.51111
USER: genes 9 Torsion [C]-CA--N-[C] |==|  0.75161
USER: genes 10 Torsion [N]-C--CA-[N] |==|  0.74949
USER: genes 11 Torsion [C]-CA--CB-[CG] |==|  0.53385
USER: genes 12 Torsion [CA]-CB--CG-[CD2] |==|  0.28224
ROOT
ATOM      1  C   PHE B 724      40.441  36.231  85.972  1.00 20.38 LIG 0.24  C 
ATOM      2 O    PHE B 724      41.181  37.197  86.147  1.00 19.94 LIG-0.27  OA
ATOM      3  N   GLU B 725      39.794  36.015  84.835  1.00 20.55 LIG-0.35  N 
ATOM      4 H    GLU B 725      39.335  35.308  84.670  1.00 20.55 LIG 0.16  HD
ENDROOT
BRANCH 3 5
ATOM      5  CA  GLU B 725      39.814  36.987  83.753  1.00 20.80 LIG 0.18  C 
BRANCH 5 6
ATOM      6  CB  GLU B 725      38.981  36.470  82.572  1.00 21.18 LIG 0.04  C 
BRANCH 6 7
ATOM      7  CG  GLU B 725      38.330  37.548  81.713  1.00 23.39 LIG 0.12  C 
BRANCH 7 8
ATOM      8  CD  GLU B 725      36.878  37.256  81.360  1.00 26.43 LIG 0.17  C 
ATOM      9 OE1  GLU B 725      35.960  37.859  81.964  1.00 27.49 LIG-0.65  OA
ATOM     10 OE2  GLU B 725      36.652  36.401  80.472  1.00 27.53 LIG-0.65  OA
ENDBRANCH 7 8
ENDBRANCH 6 7
ENDBRANCH 5 6
BRANCH 5 11
ATOM     11  C   GLU B 725      39.285  38.325  84.298  1.00 20.17 LIG 0.24  C 
ATOM     12  N   PRO B 726      38.170  38.299  85.033  1.00 19.83 LIG-0.34  N 
ATOM     13  CD  PRO B 726      37.314  37.140  85.351  1.00 19.46 LIG 0.13  C 
ATOM     14  CA  PRO B 726      37.678  39.519  85.667  1.00 19.64 LIG 0.19  C 
ATOM     15  CG  PRO B 726      36.188  37.724  86.162  1.00 19.20 LIG 0.02  C 
ATOM     16  CB  PRO B 726      36.213  39.192  85.961  1.00 19.97 LIG 0.04  C 
ATOM     17 O    GLU B 725      39.896  39.379  84.048  1.00 19.41 LIG-0.27  OA
BRANCH 14 18
ATOM     18  C   PRO B 726      38.484  39.707  86.948  1.00 19.81 LIG 0.20  C 
ATOM     19 OXT  PRO B 726      38.981  38.691  87.469  1.00 20.16 LIG-0.65  OA
ATOM     20 O    PRO B 726      38.577  40.837  87.445  1.00 18.50 LIG-0.65  OA
ENDBRANCH 14 18
ENDBRANCH 5 11
ENDBRANCH 3 5
BRANCH 1 21
ATOM     21  CA  PHE B 724      40.212  35.194  87.074  1.00 20.36 LIG 0.18  C 
BRANCH 21 22
ATOM     22  N   PHE B 724      40.891  35.565  88.320  1.00 20.75 LIG-0.35  N 
ATOM     23  C   GLY B 723      42.141  35.194  88.578  1.00 21.06 LIG 0.25  C 
ATOM     24 O    GLY B 723      42.817  34.529  87.791  1.00 21.29 LIG-0.27  OA
ATOM     25 H    PHE B 724      40.412  36.036  88.857  1.00 20.75 LIG 0.16  HD
BRANCH 23 26
ATOM     26  CA  GLY B 723      42.715  35.638  89.915  1.00 21.22 LIG 0.47  C 
ATOM     27  N   GLY B 723      43.403  36.962  89.844  1.00 21.24 LIG 0.61  N 
ENDBRANCH 23 26
ENDBRANCH 21 22
BRANCH 21 28
ATOM     28  CB  PHE B 724      38.716  34.978  87.308  1.00 20.22 LIG 0.07  C 
BRANCH 28 29
ATOM     29  CG  PHE B 724      38.402  34.205  88.552  1.00 20.05 LIG-0.06  A 
ATOM     30  CD1 PHE B 724      38.524  32.825  88.574  1.00 20.54 LIG 0.01  A 
ATOM     31  CE1 PHE B 724      38.225  32.103  89.728  1.00 21.50 LIG 0.00  A 
ATOM     32  CZ  PHE B 724      37.790  32.772  90.872  1.00 21.54 LIG 0.00  A 
ATOM     33  CE2 PHE B 724      37.667  34.152  90.858  1.00 21.44 LIG 0.00  A 
ATOM     34  CD2 PHE B 724      37.970  34.861  89.699  1.00 20.20 LIG 0.01  A 
ENDBRANCH 28 29
ENDBRANCH 21 28
ENDBRANCH 1 21
TORSDOF 11
ENDMDL
MODEL 50
USER: ADFR SOLUTION from run 146
USER: SCORE 11.338857 LL:  -3.282 LR:  -8.882 RR:   0.000 FEB:  -5.601
USER: RMSD 4.471421
USER: SEED 145
USER: STATUS no improvement in best in 18 clusters for 5 generations
USER: GENES 13
USER: genes 0 Translation |==|  0.47935 0.55862 0.45142
USER: genes 1 Rotation |==|  0.69710 0.65661 0.54396 0.92976
USER: genes 2 Torsion [C]-N--CA-[CB] |==|  0.23880
USER: genes 3 Torsion [N]-CA--CB-[CG] |==|  0.75253
USER: genes 4 Torsion [CA]-CB--CG-[CD] |==|  0.71302
USER: genes 5 Torsion [CB]-CG--CD-[OE1] |==|  0.71138
USER: genes 6 Torsion [N]-CA--C-[N] |==|  0.87040
USER: genes 7 Torsion [N]-CA--C-[OXT] |==|  0.15581
USER: genes 8 Torsion [N]-C--CA-[N] |==|  0.93078
USER: genes 9 Torsion [C]-CA--N-[C] |==|  0.80093
USER: genes 10 Torsion [N]-C--CA-[N] |==|  0.66838
USER: genes 11 Torsion [C]-CA--CB-[CG] |==|  0.62221
USER: genes 12 Torsion [CA]-CB--CG-[CD2] |==|  0.27180
ROOT
ATOM      1  C   PHE B 724      40.382  38.340  84.779  1.00 20.38 LIG 0.24  C 
ATOM      2 O    PHE B 724      40.004  39.007  83.817  1.00 19.94 LIG-0.27  OA
ATOM      3  N   GLU B 725      39.655  37.370  85.315  1.00 20.55 LIG-0.35  N 
ATOM      4 H    GLU B 725      39.935  36.845  85.935  1.00 20.55 LIG 0.16  HD
ENDROOT
BRANCH 3 5
ATOM      5  CA  GLU B 725      38.291  37.114  84.880  1.00 20.80 LIG 0.18  C 
BRANCH 5 6
ATOM      6  CB  GLU B 725      38.299  36.181  83.660  1.00 21.18 LIG 0.04  C 
BRANCH 6 7
ATOM      7  CG  GLU B 725      38.386  36.878  82.307  1.00 23.39 LIG 0.12  C 
BRANCH 7 8
ATOM      8  CD  GLU B 725      37.059  36.933  81.561  1.00 26.43 LIG 0.17  C 
ATOM      9 OE1  GLU B 725      36.857  36.157  80.598  1.00 27.49 LIG-0.65  OA
ATOM     10 OE2  GLU B 725      36.210  37.774  81.940  1.00 27.53 LIG-0.65  OA
ENDBRANCH 7 8
ENDBRANCH 6 7
ENDBRANCH 5 6
BRANCH 5 11
ATOM     11  C   GLU B 725      37.512  36.518  86.064  1.00 20.17 LIG 0.24  C 
ATOM     12  N   PRO B 726      38.091  35.532  86.757  1.00 19.83 LIG-0.34  N 
ATOM     13  CD  PRO B 726      39.385  34.873  86.495  1.00 19.46 LIG 0.13  C 
ATOM     14  CA  PRO B 726      37.450  34.999  87.955  1.00 19.64 LIG 0.19  C 
ATOM     15  CG  PRO B 726      39.484  33.817  87.564  1.00 19.20 LIG 0.02  C 
ATOM     16  CB  PRO B 726      38.129  33.641  88.138  1.00 19.97 LIG 0.04  C 
ATOM     17 O    GLU B 725      36.384  36.958  86.346  1.00 19.41 LIG-0.27  OA
BRANCH 14 18
ATOM     18  C   PRO B 726      37.781  35.956  89.095  1.00 19.81 LIG 0.20  C 
ATOM     19 OXT  PRO B 726      37.474  37.153  88.949  1.00 20.16 LIG-0.65  OA
ATOM     20 O    PRO B 726      38.376  35.527  90.093  1.00 18.50 LIG-0.65  OA
ENDBRANCH 14 18
ENDBRANCH 5 11
ENDBRANCH 3 5
BRANCH 1 21
ATOM     21  CA  PHE B 724      41.743  38.589  85.433  1.00 20.36 LIG 0.18  C 
BRANCH 21 22
ATOM     22  N   PHE B 724      41.764  38.150  86.832  1.00 20.75 LIG-0.35  N 
ATOM     23  C   GLY B 723      41.110  38.805  87.785  1.00 21.06 LIG 0.25  C 
ATOM     24 O    GLY B 723      40.434  39.812  87.562  1.00 21.29 LIG-0.27  OA
ATOM     25 H    PHE B 724      42.231  37.442  86.973  1.00 20.75 LIG 0.16  HD
BRANCH 23 26
ATOM     26  CA  GLY B 723      41.229  38.245  89.195  1.00 21.22 LIG 0.47  C 
ATOM     27  N   GLY B 723      39.914  37.839  89.775  1.00 21.24 LIG 0.61  N 
ENDBRANCH 23 26
ENDBRANCH 21 22
BRANCH 21 28
ATOM     28  CB  PHE B 724      42.857  37.915  84.630  1.00 20.22 LIG 0.07  C 
BRANCH 28 29
ATOM     29  CG  PHE B 724      43.861  37.191  85.475  1.00 20.05 LIG-0.06  A 
ATOM     30  CD1 PHE B 724      44.909  37.877  86.068  1.00 20.54 LIG 0.01  A 
ATOM     31  CE1 PHE B 724      45.847  37.204  86.848  1.00 21.50 LIG 0.00  A 
ATOM     32  CZ  PHE B 724      45.740  35.826  87.029  1.00 21.54 LIG 0.00  A 
ATOM     33  CE2 PHE B 724      44.694  35.133  86.440  1.00 21.44 LIG 0.00  A 
ATOM     34  CD2 PHE B 724      43.762  35.817  85.664  1.00 20.20 LIG 0.01  A 
ENDBRANCH 28 29
ENDBRANCH 21 28
ENDBRANCH 1 21
TORSDOF 11
ENDMDL
MODEL 51
USER: ADFR SOLUTION from run 114
USER: SCORE 10.697193 LL:  -2.134 LR:  -8.870 RR:   0.000 FEB:  -5.588
USER: RMSD 3.740357
USER: SEED 113
USER: STATUS no improvement in best in 16 clusters for 5 generations
USER: GENES 13
USER: genes 0 Translation |==|  0.45905 0.41161 0.57443
USER: genes 1 Rotation |==|  0.86679 0.49661 0.64882 0.80546
USER: genes 2 Torsion [C]-N--CA-[CB] |==|  0.86111
USER: genes 3 Torsion [N]-CA--CB-[CG] |==|  0.35642
USER: genes 4 Torsion [CA]-CB--CG-[CD] |==|  0.61830
USER: genes 5 Torsion [CB]-CG--CD-[OE1] |==|  0.76957
USER: genes 6 Torsion [N]-CA--C-[N] |==|  0.41389
USER: genes 7 Torsion [N]-CA--C-[OXT] |==|  0.66793
USER: genes 8 Torsion [N]-C--CA-[N] |==|  0.91600
USER: genes 9 Torsion [C]-CA--N-[C] |==|  0.82552
USER: genes 10 Torsion [N]-C--CA-[N] |==|  0.43955
USER: genes 11 Torsion [C]-CA--CB-[CG] |==|  0.08769
USER: genes 12 Torsion [CA]-CB--CG-[CD2] |==|  0.69851
ROOT
ATOM      1  C   PHE B 724      40.017  36.245  87.086  1.00 20.38 LIG 0.24  C 
ATOM      2 O    PHE B 724      39.990  37.475  87.096  1.00 19.94 LIG-0.27  OA
ATOM      3  N   GLU B 725      39.327  35.517  86.219  1.00 20.55 LIG-0.35  N 
ATOM      4 H    GLU B 725      39.393  34.663  86.148  1.00 20.55 LIG 0.16  HD
ENDROOT
BRANCH 3 5
ATOM      5  CA  GLU B 725      38.380  36.127  85.298  1.00 20.80 LIG 0.18  C 
BRANCH 5 6
ATOM      6  CB  GLU B 725      37.430  37.057  86.067  1.00 21.18 LIG 0.04  C 
BRANCH 6 7
ATOM      7  CG  GLU B 725      37.309  38.470  85.508  1.00 23.39 LIG 0.12  C 
BRANCH 7 8
ATOM      8  CD  GLU B 725      37.313  39.554  86.578  1.00 26.43 LIG 0.17  C 
ATOM      9 OE1  GLU B 725      36.249  39.836  87.178  1.00 27.49 LIG-0.65  OA
ATOM     10 OE2  GLU B 725      38.396  40.138  86.815  1.00 27.53 LIG-0.65  OA
ENDBRANCH 7 8
ENDBRANCH 6 7
ENDBRANCH 5 6
BRANCH 5 11
ATOM     11  C   GLU B 725      39.176  36.873  84.214  1.00 20.17 LIG 0.24  C 
ATOM     12  N   PRO B 726      38.638  36.957  82.994  1.00 19.83 LIG-0.34  N 
ATOM     13  CD  PRO B 726      37.379  36.358  82.510  1.00 19.46 LIG 0.13  C 
ATOM     14  CA  PRO B 726      39.293  37.743  81.953  1.00 19.64 LIG 0.19  C 
ATOM     15  CG  PRO B 726      37.320  36.746  81.057  1.00 19.20 LIG 0.02  C 
ATOM     16  CB  PRO B 726      38.677  37.195  80.664  1.00 19.97 LIG 0.04  C 
ATOM     17 O    GLU B 725      40.280  37.374  84.493  1.00 19.41 LIG-0.27  OA
BRANCH 14 18
ATOM     18  C   PRO B 726      38.907  39.198  82.190  1.00 19.81 LIG 0.20  C 
ATOM     19 OXT  PRO B 726      38.291  39.786  81.283  1.00 20.16 LIG-0.65  OA
ATOM     20 O    PRO B 726      39.255  39.753  83.241  1.00 18.50 LIG-0.65  OA
ENDBRANCH 14 18
ENDBRANCH 5 11
ENDBRANCH 3 5
BRANCH 1 21
ATOM     21  CA  PHE B 724      40.864  35.459  88.088  1.00 20.36 LIG 0.18  C 
BRANCH 21 22
ATOM     22  N   PHE B 724      40.270  34.154  88.398  1.00 20.75 LIG-0.35  N 
ATOM     23  C   GLY B 723      39.083  34.043  88.984  1.00 21.06 LIG 0.25  C 
ATOM     24 O    GLY B 723      38.395  35.018  89.294  1.00 21.29 LIG-0.27  OA
ATOM     25 H    PHE B 724      40.755  33.482  88.169  1.00 20.75 LIG 0.16  HD
BRANCH 23 26
ATOM     26  CA  GLY B 723      38.594  32.629  89.258  1.00 21.22 LIG 0.47  C 
ATOM     27  N   GLY B 723      37.561  32.566  90.334  1.00 21.24 LIG 0.61  N 
ENDBRANCH 23 26
ENDBRANCH 21 22
BRANCH 21 28
ATOM     28  CB  PHE B 724      42.297  35.301  87.574  1.00 20.22 LIG 0.07  C 
BRANCH 28 29
ATOM     29  CG  PHE B 724      42.769  36.446  86.731  1.00 20.05 LIG-0.06  A 
ATOM     30  CD1 PHE B 724      43.032  37.681  87.302  1.00 20.54 LIG 0.01  A 
ATOM     31  CE1 PHE B 724      43.464  38.748  86.517  1.00 21.50 LIG 0.00  A 
ATOM     32  CZ  PHE B 724      43.626  38.579  85.143  1.00 21.54 LIG 0.00  A 
ATOM     33  CE2 PHE B 724      43.366  37.347  84.565  1.00 21.44 LIG 0.00  A 
ATOM     34  CD2 PHE B 724      42.937  36.288  85.359  1.00 20.20 LIG 0.01  A 
ENDBRANCH 28 29
ENDBRANCH 21 28
ENDBRANCH 1 21
TORSDOF 11
ENDMDL
MODEL 52
USER: ADFR SOLUTION from run 167
USER: SCORE 10.122806 LL:  -1.847 LR:  -8.871 RR:   0.000 FEB:  -5.590
USER: RMSD 7.470807
USER: SEED 166
USER: STATUS no improvement in best in 14 clusters for 5 generations
USER: GENES 13
USER: genes 0 Translation |==|  0.41193 0.54357 0.45708
USER: genes 1 Rotation |==|  0.29496 0.40147 0.91343 0.66530
USER: genes 2 Torsion [C]-N--CA-[CB] |==|  0.15043
USER: genes 3 Torsion [N]-CA--CB-[CG] |==|  0.62480
USER: genes 4 Torsion [CA]-CB--CG-[CD] |==|  0.10350
USER: genes 5 Torsion [CB]-CG--CD-[OE1] |==|  0.72016
USER: genes 6 Torsion [N]-CA--C-[N] |==|  0.15394
USER: genes 7 Torsion [N]-CA--C-[OXT] |==|  0.02138
USER: genes 8 Torsion [N]-C--CA-[N] |==|  0.15602
USER: genes 9 Torsion [C]-CA--N-[C] |==|  0.73890
USER: genes 10 Torsion [N]-C--CA-[N] |==|  0.30033
USER: genes 11 Torsion [C]-CA--CB-[CG] |==|  0.23325
USER: genes 12 Torsion [CA]-CB--CG-[CD2] |==|  0.61432
ROOT
ATOM      1  C   PHE B 724      39.169  38.126  84.885  1.00 20.38 LIG 0.24  C 
ATOM      2 O    PHE B 724      40.000  38.689  84.175  1.00 19.94 LIG-0.27  OA
ATOM      3  N   GLU B 725      39.491  37.478  85.996  1.00 20.55 LIG-0.35  N 
ATOM      4 H    GLU B 725      38.916  37.146  86.543  1.00 20.55 LIG 0.16  HD
ENDROOT
BRANCH 3 5
ATOM      5  CA  GLU B 725      40.878  37.275  86.382  1.00 20.80 LIG 0.18  C 
BRANCH 5 6
ATOM      6  CB  GLU B 725      41.611  38.623  86.421  1.00 21.18 LIG 0.04  C 
BRANCH 6 7
ATOM      7  CG  GLU B 725      42.989  38.634  85.769  1.00 23.39 LIG 0.12  C 
BRANCH 7 8
ATOM      8  CD  GLU B 725      43.078  37.777  84.513  1.00 26.43 LIG 0.17  C 
ATOM      9 OE1  GLU B 725      43.599  36.638  84.575  1.00 27.49 LIG-0.65  OA
ATOM     10 OE2  GLU B 725      42.629  38.255  83.445  1.00 27.53 LIG-0.65  OA
ENDBRANCH 7 8
ENDBRANCH 6 7
ENDBRANCH 5 6
BRANCH 5 11
ATOM     11  C   GLU B 725      40.898  36.561  87.745  1.00 20.17 LIG 0.24  C 
ATOM     12  N   PRO B 726      40.235  35.406  87.852  1.00 19.83 LIG-0.34  N 
ATOM     13  CD  PRO B 726      39.407  34.733  86.833  1.00 19.46 LIG 0.13  C 
ATOM     14  CA  PRO B 726      40.305  34.628  89.085  1.00 19.64 LIG 0.19  C 
ATOM     15  CG  PRO B 726      38.880  33.509  87.535  1.00 19.20 LIG 0.02  C 
ATOM     16  CB  PRO B 726      39.085  33.711  88.989  1.00 19.97 LIG 0.04  C 
ATOM     17 O    GLU B 725      41.520  37.065  88.697  1.00 19.41 LIG-0.27  OA
BRANCH 14 18
ATOM     18  C   PRO B 726      41.610  33.841  89.037  1.00 19.81 LIG 0.20  C 
ATOM     19 OXT  PRO B 726      42.401  34.094  88.110  1.00 20.16 LIG-0.65  OA
ATOM     20 O    PRO B 726      41.816  32.958  89.881  1.00 18.50 LIG-0.65  OA
ENDBRANCH 14 18
ENDBRANCH 5 11
ENDBRANCH 3 5
BRANCH 1 21
ATOM     21  CA  PHE B 724      37.681  38.137  84.530  1.00 20.36 LIG 0.18  C 
BRANCH 21 22
ATOM     22  N   PHE B 724      36.865  38.685  85.619  1.00 20.75 LIG-0.35  N 
ATOM     23  C   GLY B 723      36.297  37.906  86.533  1.00 21.06 LIG 0.25  C 
ATOM     24 O    GLY B 723      36.424  36.680  86.539  1.00 21.29 LIG-0.27  OA
ATOM     25 H    PHE B 724      36.791  39.542  85.609  1.00 20.75 LIG 0.16  HD
BRANCH 23 26
ATOM     26  CA  GLY B 723      35.467  38.607  87.598  1.00 21.22 LIG 0.47  C 
ATOM     27  N   GLY B 723      34.000  38.388  87.433  1.00 21.24 LIG 0.61  N 
ENDBRANCH 23 26
ENDBRANCH 21 22
BRANCH 21 28
ATOM     28  CB  PHE B 724      37.444  38.906  83.228  1.00 20.22 LIG 0.07  C 
BRANCH 28 29
ATOM     29  CG  PHE B 724      37.652  38.085  81.992  1.00 20.05 LIG-0.06  A 
ATOM     30  CD1 PHE B 724      37.214  36.772  81.936  1.00 20.54 LIG 0.01  A 
ATOM     31  CE1 PHE B 724      37.413  36.005  80.790  1.00 21.50 LIG 0.00  A 
ATOM     32  CZ  PHE B 724      38.068  36.557  79.690  1.00 21.54 LIG 0.00  A 
ATOM     33  CE2 PHE B 724      38.509  37.870  79.738  1.00 21.44 LIG 0.00  A 
ATOM     34  CD2 PHE B 724      38.302  38.627  80.888  1.00 20.20 LIG 0.01  A 
ENDBRANCH 28 29
ENDBRANCH 21 28
ENDBRANCH 1 21
TORSDOF 11
ENDMDL
MODEL 53
USER: ADFR SOLUTION from run 121
USER: SCORE 10.596492 LL:  -2.360 LR:  -8.860 RR:   0.000 FEB:  -5.579
USER: RMSD 7.701186
USER: SEED 120
USER: STATUS no improvement in best in 22 clusters for 5 generations
USER: GENES 13
USER: genes 0 Translation |==|  0.30119 0.61147 0.45463
USER: genes 1 Rotation |==|  0.21743 0.16596 0.73239 0.56756
USER: genes 2 Torsion [C]-N--CA-[CB] |==|  0.80000
USER: genes 3 Torsion [N]-CA--CB-[CG] |==|  0.89674
USER: genes 4 Torsion [CA]-CB--CG-[CD] |==|  0.33913
USER: genes 5 Torsion [CB]-CG--CD-[OE1] |==|  0.34271
USER: genes 6 Torsion [N]-CA--C-[N] |==|  0.14815
USER: genes 7 Torsion [N]-CA--C-[OXT] |==|  0.13758
USER: genes 8 Torsion [N]-C--CA-[N] |==|  0.38238
USER: genes 9 Torsion [C]-CA--N-[C] |==|  0.79537
USER: genes 10 Torsion [N]-C--CA-[N] |==|  0.33064
USER: genes 11 Torsion [C]-CA--CB-[CG] |==|  0.28329
USER: genes 12 Torsion [CA]-CB--CG-[CD2] |==|  0.76014
ROOT
ATOM      1  C   PHE B 724      37.175  39.093  84.839  1.00 20.38 LIG 0.24  C 
ATOM      2 O    PHE B 724      37.646  40.006  85.516  1.00 19.94 LIG-0.27  OA
ATOM      3  N   GLU B 725      37.060  37.851  85.287  1.00 20.55 LIG-0.35  N 
ATOM      4 H    GLU B 725      36.664  37.220  84.857  1.00 20.55 LIG 0.16  HD
ENDROOT
BRANCH 3 5
ATOM      5  CA  GLU B 725      37.608  37.452  86.573  1.00 20.80 LIG 0.18  C 
BRANCH 5 6
ATOM      6  CB  GLU B 725      39.140  37.395  86.492  1.00 21.18 LIG 0.04  C 
BRANCH 6 7
ATOM      7  CG  GLU B 725      39.704  36.877  85.173  1.00 23.39 LIG 0.12  C 
BRANCH 7 8
ATOM      8  CD  GLU B 725      40.637  37.860  84.478  1.00 26.43 LIG 0.17  C 
ATOM      9 OE1  GLU B 725      41.806  37.509  84.193  1.00 27.49 LIG-0.65  OA
ATOM     10 OE2  GLU B 725      40.195  39.005  84.223  1.00 27.53 LIG-0.65  OA
ENDBRANCH 7 8
ENDBRANCH 6 7
ENDBRANCH 5 6
BRANCH 5 11
ATOM     11  C   GLU B 725      37.118  38.450  87.635  1.00 20.17 LIG 0.24  C 
ATOM     12  N   PRO B 726      35.802  38.667  87.725  1.00 19.83 LIG-0.34  N 
ATOM     13  CD  PRO B 726      34.728  38.115  86.878  1.00 19.46 LIG 0.13  C 
ATOM     14  CA  PRO B 726      35.267  39.520  88.782  1.00 19.64 LIG 0.19  C 
ATOM     15  CG  PRO B 726      33.472  38.747  87.416  1.00 19.20 LIG 0.02  C 
ATOM     16  CB  PRO B 726      33.881  39.897  88.257  1.00 19.97 LIG 0.04  C 
ATOM     17 O    GLU B 725      37.940  39.021  88.373  1.00 19.41 LIG-0.27  OA
BRANCH 14 18
ATOM     18  C   PRO B 726      35.182  38.664  90.040  1.00 19.81 LIG 0.20  C 
ATOM     19 OXT  PRO B 726      36.193  38.012  90.361  1.00 20.16 LIG-0.65  OA
ATOM     20 O    PRO B 726      34.115  38.609  90.665  1.00 18.50 LIG-0.65  OA
ENDBRANCH 14 18
ENDBRANCH 5 11
ENDBRANCH 3 5
BRANCH 1 21
ATOM     21  CA  PHE B 724      36.682  39.335  83.412  1.00 20.36 LIG 0.18  C 
BRANCH 21 22
ATOM     22  N   PHE B 724      35.924  40.586  83.301  1.00 20.75 LIG-0.35  N 
ATOM     23  C   GLY B 723      34.691  40.706  83.783  1.00 21.06 LIG 0.25  C 
ATOM     24 O    GLY B 723      34.107  39.788  84.363  1.00 21.29 LIG-0.27  OA
ATOM     25 H    PHE B 724      36.345  41.220  82.903  1.00 20.75 LIG 0.16  HD
BRANCH 23 26
ATOM     26  CA  GLY B 723      34.018  42.056  83.588  1.00 21.22 LIG 0.47  C 
ATOM     27  N   GLY B 723      32.768  41.973  82.775  1.00 21.24 LIG 0.61  N 
ENDBRANCH 23 26
ENDBRANCH 21 22
BRANCH 21 28
ATOM     28  CB  PHE B 724      37.853  39.316  82.427  1.00 20.22 LIG 0.07  C 
BRANCH 28 29
ATOM     29  CG  PHE B 724      37.976  38.038  81.654  1.00 20.05 LIG-0.06  A 
ATOM     30  CD1 PHE B 724      37.376  37.904  80.412  1.00 20.54 LIG 0.01  A 
ATOM     31  CE1 PHE B 724      37.483  36.713  79.697  1.00 21.50 LIG 0.00  A 
ATOM     32  CZ  PHE B 724      38.192  35.641  80.235  1.00 21.54 LIG 0.00  A 
ATOM     33  CE2 PHE B 724      38.795  35.767  81.477  1.00 21.44 LIG 0.00  A 
ATOM     34  CD2 PHE B 724      38.682  36.962  82.181  1.00 20.20 LIG 0.01  A 
ENDBRANCH 28 29
ENDBRANCH 21 28
ENDBRANCH 1 21
TORSDOF 11
ENDMDL
MODEL 54
USER: ADFR SOLUTION from run 171
USER: SCORE 10.666281 LL:  -2.711 LR:  -8.851 RR:   0.000 FEB:  -5.570
USER: RMSD 6.873195
USER: SEED 170
USER: STATUS no improvement in best in 32 clusters for 5 generations
USER: GENES 13
USER: genes 0 Translation |==|  0.44017 0.52735 0.47006
USER: genes 1 Rotation |==|  0.72276 0.79637 0.25136 0.72521
USER: genes 2 Torsion [C]-N--CA-[CB] |==|  0.18899
USER: genes 3 Torsion [N]-CA--CB-[CG] |==|  0.61477
USER: genes 4 Torsion [CA]-CB--CG-[CD] |==|  0.11210
USER: genes 5 Torsion [CB]-CG--CD-[OE1] |==|  0.30125
USER: genes 6 Torsion [N]-CA--C-[N] |==|  0.86456
USER: genes 7 Torsion [N]-CA--C-[OXT] |==|  0.45290
USER: genes 8 Torsion [N]-C--CA-[N] |==|  0.90148
USER: genes 9 Torsion [C]-CA--N-[C] |==|  0.74726
USER: genes 10 Torsion [N]-C--CA-[N] |==|  0.81255
USER: genes 11 Torsion [C]-CA--CB-[CG] |==|  0.25597
USER: genes 12 Torsion [CA]-CB--CG-[CD2] |==|  0.94267
ROOT
ATOM      1  C   PHE B 724      39.677  37.895  85.129  1.00 20.38 LIG 0.24  C 
ATOM      2 O    PHE B 724      39.208  39.005  84.887  1.00 19.94 LIG-0.27  OA
ATOM      3  N   GLU B 725      39.631  37.340  86.332  1.00 20.55 LIG-0.35  N 
ATOM      4 H    GLU B 725      39.884  36.535  86.500  1.00 20.55 LIG 0.16  HD
ENDROOT
BRANCH 3 5
ATOM      5  CA  GLU B 725      39.136  38.070  87.487  1.00 20.80 LIG 0.18  C 
BRANCH 5 6
ATOM      6  CB  GLU B 725      37.629  38.321  87.339  1.00 21.18 LIG 0.04  C 
BRANCH 6 7
ATOM      7  CG  GLU B 725      37.154  39.706  87.764  1.00 23.39 LIG 0.12  C 
BRANCH 7 8
ATOM      8  CD  GLU B 725      38.094  40.829  87.347  1.00 26.43 LIG 0.17  C 
ATOM      9 OE1  GLU B 725      37.754  41.615  86.432  1.00 27.49 LIG-0.65  OA
ATOM     10 OE2  GLU B 725      39.195  40.921  87.940  1.00 27.53 LIG-0.65  OA
ENDBRANCH 7 8
ENDBRANCH 6 7
ENDBRANCH 5 6
BRANCH 5 11
ATOM     11  C   GLU B 725      39.470  37.257  88.750  1.00 20.17 LIG 0.24  C 
ATOM     12  N   PRO B 726      39.161  35.957  88.752  1.00 19.83 LIG-0.34  N 
ATOM     13  CD  PRO B 726      38.464  35.184  87.706  1.00 19.46 LIG 0.13  C 
ATOM     14  CA  PRO B 726      39.549  35.110  89.875  1.00 19.64 LIG 0.19  C 
ATOM     15  CG  PRO B 726      38.357  33.797  88.281  1.00 19.20 LIG 0.02  C 
ATOM     16  CB  PRO B 726      38.623  33.900  89.735  1.00 19.97 LIG 0.04  C 
ATOM     17 O    GLU B 725      40.010  37.817  89.720  1.00 19.41 LIG-0.27  OA
BRANCH 14 18
ATOM     18  C   PRO B 726      41.010  34.733  89.660  1.00 19.81 LIG 0.20  C 
ATOM     19 OXT  PRO B 726      41.640  34.290  90.638  1.00 20.16 LIG-0.65  OA
ATOM     20 O    PRO B 726      41.527  34.920  88.550  1.00 18.50 LIG-0.65  OA
ENDBRANCH 14 18
ENDBRANCH 5 11
ENDBRANCH 3 5
BRANCH 1 21
ATOM     21  CA  PHE B 724      40.355  37.063  84.038  1.00 20.36 LIG 0.18  C 
BRANCH 21 22
ATOM     22  N   PHE B 724      41.486  36.292  84.565  1.00 20.75 LIG-0.35  N 
ATOM     23  C   GLY B 723      42.724  36.776  84.574  1.00 21.06 LIG 0.25  C 
ATOM     24 O    GLY B 723      43.006  37.901  84.156  1.00 21.29 LIG-0.27  OA
ATOM     25 H    PHE B 724      41.276  35.513  84.861  1.00 20.75 LIG 0.16  HD
BRANCH 23 26
ATOM     26  CA  GLY B 723      43.803  35.863  85.138  1.00 21.22 LIG 0.47  C 
ATOM     27  N   GLY B 723      43.657  35.625  86.605  1.00 21.24 LIG 0.61  N 
ENDBRANCH 23 26
ENDBRANCH 21 22
BRANCH 21 28
ATOM     28  CB  PHE B 724      39.340  36.147  83.351  1.00 20.22 LIG 0.07  C 
BRANCH 28 29
ATOM     29  CG  PHE B 724      38.708  36.748  82.132  1.00 20.05 LIG-0.06  A 
ATOM     30  CD1 PHE B 724      38.129  35.940  81.167  1.00 20.54 LIG 0.01  A 
ATOM     31  CE1 PHE B 724      37.547  36.497  80.030  1.00 21.50 LIG 0.00  A 
ATOM     32  CZ  PHE B 724      37.554  37.880  79.854  1.00 21.54 LIG 0.00  A 
ATOM     33  CE2 PHE B 724      38.131  38.695  80.815  1.00 21.44 LIG 0.00  A 
ATOM     34  CD2 PHE B 724      38.707  38.126  81.947  1.00 20.20 LIG 0.01  A 
ENDBRANCH 28 29
ENDBRANCH 21 28
ENDBRANCH 1 21
TORSDOF 11
ENDMDL
MODEL 55
USER: ADFR SOLUTION from run 163
USER: SCORE 9.999588 LL:  -2.761 LR:  -8.824 RR:   0.000 FEB:  -5.542
USER: RMSD 6.416966
USER: SEED 162
USER: STATUS no improvement in best in 14 clusters for 5 generations
USER: GENES 13
USER: genes 0 Translation |==|  0.35700 0.37442 0.53611
USER: genes 1 Rotation |==|  0.59802 0.22132 0.20918 0.77955
USER: genes 2 Torsion [C]-N--CA-[CB] |==|  0.20429
USER: genes 3 Torsion [N]-CA--CB-[CG] |==|  0.41028
USER: genes 4 Torsion [CA]-CB--CG-[CD] |==|  0.66302
USER: genes 5 Torsion [CB]-CG--CD-[OE1] |==|  0.12187
USER: genes 6 Torsion [N]-CA--C-[N] |==|  0.87219
USER: genes 7 Torsion [N]-CA--C-[OXT] |==|  0.00476
USER: genes 8 Torsion [N]-C--CA-[N] |==|  0.49886
USER: genes 9 Torsion [C]-CA--N-[C] |==|  0.19365
USER: genes 10 Torsion [N]-C--CA-[N] |==|  0.88045
USER: genes 11 Torsion [C]-CA--CB-[CG] |==|  0.25226
USER: genes 12 Torsion [CA]-CB--CG-[CD2] |==|  0.53189
ROOT
ATOM      1  C   PHE B 724      38.180  35.715  86.367  1.00 20.38 LIG 0.24  C 
ATOM      2 O    PHE B 724      38.882  34.800  85.941  1.00 19.94 LIG-0.27  OA
ATOM      3  N   GLU B 725      38.035  36.869  85.730  1.00 20.55 LIG-0.35  N 
ATOM      4 H    GLU B 725      37.490  37.488  85.973  1.00 20.55 LIG 0.16  HD
ENDROOT
BRANCH 3 5
ATOM      5  CA  GLU B 725      38.809  37.182  84.539  1.00 20.80 LIG 0.18  C 
BRANCH 5 6
ATOM      6  CB  GLU B 725      38.283  36.370  83.347  1.00 21.18 LIG 0.04  C 
BRANCH 6 7
ATOM      7  CG  GLU B 725      38.393  37.057  81.991  1.00 23.39 LIG 0.12  C 
BRANCH 7 8
ATOM      8  CD  GLU B 725      37.056  37.231  81.282  1.00 26.43 LIG 0.17  C 
ATOM      9 OE1  GLU B 725      36.058  37.625  81.930  1.00 27.49 LIG-0.65  OA
ATOM     10 OE2  GLU B 725      37.002  36.959  80.060  1.00 27.53 LIG-0.65  OA
ENDBRANCH 7 8
ENDBRANCH 6 7
ENDBRANCH 5 6
BRANCH 5 11
ATOM     11  C   GLU B 725      38.723  38.698  84.294  1.00 20.17 LIG 0.24  C 
ATOM     12  N   PRO B 726      37.521  39.275  84.380  1.00 19.83 LIG-0.34  N 
ATOM     13  CD  PRO B 726      36.216  38.630  84.619  1.00 19.46 LIG 0.13  C 
ATOM     14  CA  PRO B 726      37.390  40.724  84.264  1.00 19.64 LIG 0.19  C 
ATOM     15  CG  PRO B 726      35.228  39.764  84.561  1.00 19.20 LIG 0.02  C 
ATOM     16  CB  PRO B 726      35.911  40.914  83.923  1.00 19.97 LIG 0.04  C 
ATOM     17 O    GLU B 725      39.755  39.340  84.028  1.00 19.41 LIG-0.27  OA
BRANCH 14 18
ATOM     18  C   PRO B 726      37.736  41.309  85.629  1.00 19.81 LIG 0.20  C 
ATOM     19 OXT  PRO B 726      38.078  40.515  86.525  1.00 20.16 LIG-0.65  OA
ATOM     20 O    PRO B 726      37.623  42.528  85.812  1.00 18.50 LIG-0.65  OA
ENDBRANCH 14 18
ENDBRANCH 5 11
ENDBRANCH 3 5
BRANCH 1 21
ATOM     21  CA  PHE B 724      37.412  35.582  87.683  1.00 20.36 LIG 0.18  C 
BRANCH 21 22
ATOM     22  N   PHE B 724      37.625  34.272  88.309  1.00 20.75 LIG-0.35  N 
ATOM     23  C   GLY B 723      38.795  33.928  88.838  1.00 21.06 LIG 0.25  C 
ATOM     24 O    GLY B 723      39.770  34.682  88.853  1.00 21.29 LIG-0.27  OA
ATOM     25 H    PHE B 724      36.936  33.759  88.299  1.00 20.75 LIG 0.16  HD
BRANCH 23 26
ATOM     26  CA  GLY B 723      38.879  32.534  89.443  1.00 21.22 LIG 0.47  C 
ATOM     27  N   GLY B 723      37.678  32.176  90.254  1.00 21.24 LIG 0.61  N 
ENDBRANCH 23 26
ENDBRANCH 21 22
BRANCH 21 28
ATOM     28  CB  PHE B 724      37.786  36.714  88.642  1.00 20.22 LIG 0.07  C 
BRANCH 28 29
ATOM     29  CG  PHE B 724      36.910  37.924  88.523  1.00 20.05 LIG-0.06  A 
ATOM     30  CD1 PHE B 724      35.744  37.880  87.776  1.00 20.54 LIG 0.01  A 
ATOM     31  CE1 PHE B 724      34.932  39.007  87.659  1.00 21.50 LIG 0.00  A 
ATOM     32  CZ  PHE B 724      35.299  40.195  88.289  1.00 21.54 LIG 0.00  A 
ATOM     33  CE2 PHE B 724      36.464  40.247  89.038  1.00 21.44 LIG 0.00  A 
ATOM     34  CD2 PHE B 724      37.264  39.114  89.149  1.00 20.20 LIG 0.01  A 
ENDBRANCH 28 29
ENDBRANCH 21 28
ENDBRANCH 1 21
TORSDOF 11
ENDMDL
MODEL 56
USER: ADFR SOLUTION from run 114
USER: SCORE 11.232095 LL:  -3.134 LR:  -8.797 RR:   0.000 FEB:  -5.515
USER: RMSD 7.212548
USER: SEED 113
USER: STATUS no improvement in best in 16 clusters for 5 generations
USER: GENES 13
USER: genes 0 Translation |==|  0.47005 0.55322 0.47541
USER: genes 1 Rotation |==|  0.54453 0.82428 0.19041 0.71684
USER: genes 2 Torsion [C]-N--CA-[CB] |==|  0.21065
USER: genes 3 Torsion [N]-CA--CB-[CG] |==|  0.55613
USER: genes 4 Torsion [CA]-CB--CG-[CD] |==|  0.09594
USER: genes 5 Torsion [CB]-CG--CD-[OE1] |==|  0.24082
USER: genes 6 Torsion [N]-CA--C-[N] |==|  0.85199
USER: genes 7 Torsion [N]-CA--C-[OXT] |==|  0.51957
USER: genes 8 Torsion [N]-C--CA-[N] |==|  0.01915
USER: genes 9 Torsion [C]-CA--N-[C] |==|  0.76111
USER: genes 10 Torsion [N]-C--CA-[N] |==|  0.60487
USER: genes 11 Torsion [C]-CA--CB-[CG] |==|  0.26554
USER: genes 12 Torsion [CA]-CB--CG-[CD2] |==|  0.93732
ROOT
ATOM      1  C   PHE B 724      40.215  38.263  85.229  1.00 20.38 LIG 0.24  C 
ATOM      2 O    PHE B 724      39.264  39.009  85.000  1.00 19.94 LIG-0.27  OA
ATOM      3  N   GLU B 725      40.928  38.327  86.345  1.00 20.55 LIG-0.35  N 
ATOM      4 H    GLU B 725      41.544  37.765  86.554  1.00 20.55 LIG 0.16  HD
ENDROOT
BRANCH 3 5
ATOM      5  CA  GLU B 725      40.714  39.380  87.325  1.00 20.80 LIG 0.18  C 
BRANCH 5 6
ATOM      6  CB  GLU B 725      39.434  39.096  88.124  1.00 21.18 LIG 0.04  C 
BRANCH 6 7
ATOM      7  CG  GLU B 725      38.824  40.304  88.827  1.00 23.39 LIG 0.12  C 
BRANCH 7 8
ATOM      8  CD  GLU B 725      38.986  41.607  88.056  1.00 26.43 LIG 0.17  C 
ATOM      9 OE1  GLU B 725      38.137  41.925  87.190  1.00 27.49 LIG-0.65  OA
ATOM     10 OE2  GLU B 725      39.984  42.320  88.315  1.00 27.53 LIG-0.65  OA
ENDBRANCH 7 8
ENDBRANCH 6 7
ENDBRANCH 5 6
BRANCH 5 11
ATOM     11  C   GLU B 725      41.958  39.459  88.225  1.00 20.17 LIG 0.24  C 
ATOM     12  N   PRO B 726      42.370  38.334  88.817  1.00 19.83 LIG-0.34  N 
ATOM     13  CD  PRO B 726      41.741  37.000  88.776  1.00 19.46 LIG 0.13  C 
ATOM     14  CA  PRO B 726      43.605  38.321  89.596  1.00 19.64 LIG 0.19  C 
ATOM     15  CG  PRO B 726      42.617  36.152  89.660  1.00 19.20 LIG 0.02  C 
ATOM     16  CB  PRO B 726      43.455  37.072  90.465  1.00 19.97 LIG 0.04  C 
ATOM     17 O    GLU B 725      42.541  40.547  88.379  1.00 19.41 LIG-0.27  OA
BRANCH 14 18
ATOM     18  C   PRO B 726      44.753  38.186  88.602  1.00 19.81 LIG 0.20  C 
ATOM     19 OXT  PRO B 726      45.897  38.019  89.064  1.00 20.16 LIG-0.65  OA
ATOM     20 O    PRO B 726      44.521  38.291  87.390  1.00 18.50 LIG-0.65  OA
ENDBRANCH 14 18
ENDBRANCH 5 11
ENDBRANCH 3 5
BRANCH 1 21
ATOM     21  CA  PHE B 724      40.646  37.193  84.225  1.00 20.36 LIG 0.18  C 
BRANCH 21 22
ATOM     22  N   PHE B 724      41.689  36.319  84.774  1.00 20.75 LIG-0.35  N 
ATOM     23  C   GLY B 723      42.978  36.634  84.704  1.00 21.06 LIG 0.25  C 
ATOM     24 O    GLY B 723      43.385  37.678  84.190  1.00 21.29 LIG-0.27  OA
ATOM     25 H    PHE B 724      41.392  35.599  85.137  1.00 20.75 LIG 0.16  HD
BRANCH 23 26
ATOM     26  CA  GLY B 723      43.952  35.630  85.303  1.00 21.22 LIG 0.47  C 
ATOM     27  N   GLY B 723      45.102  36.278  86.000  1.00 21.24 LIG 0.61  N 
ENDBRANCH 23 26
ENDBRANCH 21 22
BRANCH 21 28
ATOM     28  CB  PHE B 724      39.438  36.376  83.757  1.00 20.22 LIG 0.07  C 
BRANCH 28 29
ATOM     29  CG  PHE B 724      38.841  36.859  82.471  1.00 20.05 LIG-0.06  A 
ATOM     30  CD1 PHE B 724      38.095  36.005  81.675  1.00 20.54 LIG 0.01  A 
ATOM     31  CE1 PHE B 724      37.546  36.451  80.475  1.00 21.50 LIG 0.00  A 
ATOM     32  CZ  PHE B 724      37.754  37.766  80.062  1.00 21.54 LIG 0.00  A 
ATOM     33  CE2 PHE B 724      38.499  38.627  80.852  1.00 21.44 LIG 0.00  A 
ATOM     34  CD2 PHE B 724      39.041  38.170  82.050  1.00 20.20 LIG 0.01  A 
ENDBRANCH 28 29
ENDBRANCH 21 28
ENDBRANCH 1 21
TORSDOF 11
ENDMDL
MODEL 57
USER: ADFR SOLUTION from run 160
USER: SCORE 10.290653 LL:  -2.797 LR:  -8.766 RR:   0.000 FEB:  -5.485
USER: RMSD 6.998981
USER: SEED 159
USER: STATUS no improvement in best in 13 clusters for 5 generations
USER: GENES 13
USER: genes 0 Translation |==|  0.29405 0.61636 0.46277
USER: genes 1 Rotation |==|  0.18618 0.20187 0.73573 0.58407
USER: genes 2 Torsion [C]-N--CA-[CB] |==|  0.50574
USER: genes 3 Torsion [N]-CA--CB-[CG] |==|  0.45154
USER: genes 4 Torsion [CA]-CB--CG-[CD] |==|  0.72324
USER: genes 5 Torsion [CB]-CG--CD-[OE1] |==|  0.49519
USER: genes 6 Torsion [N]-CA--C-[N] |==|  0.86537
USER: genes 7 Torsion [N]-CA--C-[OXT] |==|  0.90407
USER: genes 8 Torsion [N]-C--CA-[N] |==|  0.35000
USER: genes 9 Torsion [C]-CA--N-[C] |==|  0.79995
USER: genes 10 Torsion [N]-C--CA-[N] |==|  0.74279
USER: genes 11 Torsion [C]-CA--CB-[CG] |==|  0.30580
USER: genes 12 Torsion [CA]-CB--CG-[CD2] |==|  0.95811
ROOT
ATOM      1  C   PHE B 724      37.047  39.163  84.992  1.00 20.38 LIG 0.24  C 
ATOM      2 O    PHE B 724      37.696  40.003  85.613  1.00 19.94 LIG-0.27  OA
ATOM      3  N   GLU B 725      36.703  37.992  85.509  1.00 20.55 LIG-0.35  N 
ATOM      4 H    GLU B 725      36.185  37.427  85.119  1.00 20.55 LIG 0.16  HD
ENDROOT
BRANCH 3 5
ATOM      5  CA  GLU B 725      37.187  37.565  86.812  1.00 20.80 LIG 0.18  C 
BRANCH 5 6
ATOM      6  CB  GLU B 725      36.668  36.154  87.125  1.00 21.18 LIG 0.04  C 
BRANCH 6 7
ATOM      7  CG  GLU B 725      37.410  35.418  88.235  1.00 23.39 LIG 0.12  C 
BRANCH 7 8
ATOM      8  CD  GLU B 725      38.434  34.413  87.724  1.00 26.43 LIG 0.17  C 
ATOM      9 OE1  GLU B 725      39.132  33.769  88.543  1.00 27.49 LIG-0.65  OA
ATOM     10 OE2  GLU B 725      38.549  34.274  86.484  1.00 27.53 LIG-0.65  OA
ENDBRANCH 7 8
ENDBRANCH 6 7
ENDBRANCH 5 6
BRANCH 5 11
ATOM     11  C   GLU B 725      38.724  37.630  86.798  1.00 20.17 LIG 0.24  C 
ATOM     12  N   PRO B 726      39.361  37.073  85.764  1.00 19.83 LIG-0.34  N 
ATOM     13  CD  PRO B 726      38.781  36.325  84.632  1.00 19.46 LIG 0.13  C 
ATOM     14  CA  PRO B 726      40.810  37.195  85.639  1.00 19.64 LIG 0.19  C 
ATOM     15  CG  PRO B 726      39.975  35.902  83.819  1.00 19.20 LIG 0.02  C 
ATOM     16  CB  PRO B 726      41.174  36.065  84.675  1.00 19.97 LIG 0.04  C 
ATOM     17 O    GLU B 725      39.327  38.189  87.731  1.00 19.41 LIG-0.27  OA
BRANCH 14 18
ATOM     18  C   PRO B 726      41.087  38.567  85.034  1.00 19.81 LIG 0.20  C 
ATOM     19 OXT  PRO B 726      40.269  39.005  84.204  1.00 20.16 LIG-0.65  OA
ATOM     20 O    PRO B 726      42.122  39.170  85.348  1.00 18.50 LIG-0.65  OA
ENDBRANCH 14 18
ENDBRANCH 5 11
ENDBRANCH 3 5
BRANCH 1 21
ATOM     21  CA  PHE B 724      36.583  39.418  83.557  1.00 20.36 LIG 0.18  C 
BRANCH 21 22
ATOM     22  N   PHE B 724      35.831  40.673  83.442  1.00 20.75 LIG-0.35  N 
ATOM     23  C   GLY B 723      34.602  40.803  83.928  1.00 21.06 LIG 0.25  C 
ATOM     24 O    GLY B 723      34.015  39.893  84.516  1.00 21.29 LIG-0.27  OA
ATOM     25 H    PHE B 724      36.255  41.302  83.037  1.00 20.75 LIG 0.16  HD
BRANCH 23 26
ATOM     26  CA  GLY B 723      33.935  42.156  83.727  1.00 21.22 LIG 0.47  C 
ATOM     27  N   GLY B 723      34.147  43.087  84.874  1.00 21.24 LIG 0.61  N 
ENDBRANCH 23 26
ENDBRANCH 21 22
BRANCH 21 28
ATOM     28  CB  PHE B 724      37.774  39.403  82.595  1.00 20.22 LIG 0.07  C 
BRANCH 28 29
ATOM     29  CG  PHE B 724      37.799  38.217  81.680  1.00 20.05 LIG-0.06  A 
ATOM     30  CD1 PHE B 724      38.605  38.214  80.553  1.00 20.54 LIG 0.01  A 
ATOM     31  CE1 PHE B 724      38.624  37.115  79.696  1.00 21.50 LIG 0.00  A 
ATOM     32  CZ  PHE B 724      37.819  36.009  79.967  1.00 21.54 LIG 0.00  A 
ATOM     33  CE2 PHE B 724      37.010  36.005  81.093  1.00 21.44 LIG 0.00  A 
ATOM     34  CD2 PHE B 724      37.002  37.108  81.942  1.00 20.20 LIG 0.01  A 
ENDBRANCH 28 29
ENDBRANCH 21 28
ENDBRANCH 1 21
TORSDOF 11
ENDMDL
MODEL 58
USER: ADFR SOLUTION from run 28
USER: SCORE 10.903452 LL:  -3.002 LR:  -8.773 RR:   0.000 FEB:  -5.491
USER: RMSD 3.592160
USER: SEED 27
USER: STATUS no improvement in best in 21 clusters for 5 generations
USER: GENES 13
USER: genes 0 Translation |==|  0.54989 0.49298 0.48102
USER: genes 1 Rotation |==|  0.59099 0.39294 0.35959 0.95885
USER: genes 2 Torsion [C]-N--CA-[CB] |==|  0.24437
USER: genes 3 Torsion [N]-CA--CB-[CG] |==|  0.30526
USER: genes 4 Torsion [CA]-CB--CG-[CD] |==|  0.23863
USER: genes 5 Torsion [CB]-CG--CD-[OE1] |==|  0.59086
USER: genes 6 Torsion [N]-CA--C-[N] |==|  0.86479
USER: genes 7 Torsion [N]-CA--C-[OXT] |==|  0.88982
USER: genes 8 Torsion [N]-C--CA-[N] |==|  0.95358
USER: genes 9 Torsion [C]-CA--N-[C] |==|  0.76573
USER: genes 10 Torsion [N]-C--CA-[N] |==|  0.57343
USER: genes 11 Torsion [C]-CA--CB-[CG] |==|  0.27249
USER: genes 12 Torsion [CA]-CB--CG-[CD2] |==|  0.92793
ROOT
ATOM      1  C   PHE B 724      41.652  37.405  85.334  1.00 20.38 LIG 0.24  C 
ATOM      2 O    PHE B 724      42.392  37.169  84.381  1.00 19.94 LIG-0.27  OA
ATOM      3  N   GLU B 725      40.387  37.776  85.190  1.00 20.55 LIG-0.35  N 
ATOM      4 H    GLU B 725      39.836  37.869  85.844  1.00 20.55 LIG 0.16  HD
ENDROOT
BRANCH 3 5
ATOM      5  CA  GLU B 725      39.823  38.059  83.880  1.00 20.80 LIG 0.18  C 
BRANCH 5 6
ATOM      6  CB  GLU B 725      39.275  36.767  83.258  1.00 21.18 LIG 0.04  C 
BRANCH 6 7
ATOM      7  CG  GLU B 725      37.756  36.685  83.159  1.00 23.39 LIG 0.12  C 
BRANCH 7 8
ATOM      8  CD  GLU B 725      37.188  37.328  81.901  1.00 26.43 LIG 0.17  C 
ATOM      9 OE1  GLU B 725      36.063  37.880  81.940  1.00 27.49 LIG-0.65  OA
ATOM     10 OE2  GLU B 725      37.876  37.272  80.855  1.00 27.53 LIG-0.65  OA
ENDBRANCH 7 8
ENDBRANCH 6 7
ENDBRANCH 5 6
BRANCH 5 11
ATOM     11  C   GLU B 725      38.734  39.132  84.048  1.00 20.17 LIG 0.24  C 
ATOM     12  N   PRO B 726      37.823  38.949  85.009  1.00 19.83 LIG-0.34  N 
ATOM     13  CD  PRO B 726      37.674  37.795  85.915  1.00 19.46 LIG 0.13  C 
ATOM     14  CA  PRO B 726      36.830  39.982  85.288  1.00 19.64 LIG 0.19  C 
ATOM     15  CG  PRO B 726      36.457  38.126  86.738  1.00 19.20 LIG 0.02  C 
ATOM     16  CB  PRO B 726      35.739  39.221  86.044  1.00 19.97 LIG 0.04  C 
ATOM     17 O    GLU B 725      38.726  40.127  83.302  1.00 19.41 LIG-0.27  OA
BRANCH 14 18
ATOM     18  C   PRO B 726      37.511  41.022  86.171  1.00 19.81 LIG 0.20  C 
ATOM     19 OXT  PRO B 726      38.281  40.608  87.058  1.00 20.16 LIG-0.65  OA
ATOM     20 O    PRO B 726      37.244  42.220  86.011  1.00 18.50 LIG-0.65  OA
ENDBRANCH 14 18
ENDBRANCH 5 11
ENDBRANCH 3 5
BRANCH 1 21
ATOM     21  CA  PHE B 724      42.149  37.282  86.776  1.00 20.36 LIG 0.18  C 
BRANCH 21 22
ATOM     22  N   PHE B 724      41.260  37.969  87.719  1.00 20.75 LIG-0.35  N 
ATOM     23  C   GLY B 723      41.362  39.271  87.962  1.00 21.06 LIG 0.25  C 
ATOM     24 O    GLY B 723      42.195  39.991  87.409  1.00 21.29 LIG-0.27  OA
ATOM     25 H    PHE B 724      40.678  37.457  88.092  1.00 20.75 LIG 0.16  HD
BRANCH 23 26
ATOM     26  CA  GLY B 723      40.383  39.849  88.973  1.00 21.22 LIG 0.47  C 
ATOM     27  N   GLY B 723      40.109  41.300  88.756  1.00 21.24 LIG 0.61  N 
ENDBRANCH 23 26
ENDBRANCH 21 22
BRANCH 21 28
ATOM     28  CB  PHE B 724      42.326  35.812  87.161  1.00 20.22 LIG 0.07  C 
BRANCH 28 29
ATOM     29  CG  PHE B 724      43.737  35.321  87.051  1.00 20.05 LIG-0.06  A 
ATOM     30  CD1 PHE B 724      44.181  34.268  87.834  1.00 20.54 LIG 0.01  A 
ATOM     31  CE1 PHE B 724      45.496  33.816  87.738  1.00 21.50 LIG 0.00  A 
ATOM     32  CZ  PHE B 724      46.379  34.432  86.852  1.00 21.54 LIG 0.00  A 
ATOM     33  CE2 PHE B 724      45.942  35.486  86.065  1.00 21.44 LIG 0.00  A 
ATOM     34  CD2 PHE B 724      44.626  35.927  86.169  1.00 20.20 LIG 0.01  A 
ENDBRANCH 28 29
ENDBRANCH 21 28
ENDBRANCH 1 21
TORSDOF 11
ENDMDL
MODEL 59
USER: ADFR SOLUTION from run 111
USER: SCORE 11.112609 LL:  -3.127 LR:  -8.759 RR:   0.000 FEB:  -5.478
USER: RMSD 7.846307
USER: SEED 110
USER: STATUS no improvement in best in 18 clusters for 5 generations
USER: GENES 13
USER: genes 0 Translation |==|  0.47856 0.39188 0.50341
USER: genes 1 Rotation |==|  0.34901 0.46689 0.96461 0.60121
USER: genes 2 Torsion [C]-N--CA-[CB] |==|  0.23889
USER: genes 3 Torsion [N]-CA--CB-[CG] |==|  0.65985
USER: genes 4 Torsion [CA]-CB--CG-[CD] |==|  0.09584
USER: genes 5 Torsion [CB]-CG--CD-[OE1] |==|  0.27525
USER: genes 6 Torsion [N]-CA--C-[N] |==|  0.84103
USER: genes 7 Torsion [N]-CA--C-[OXT] |==|  0.96407
USER: genes 8 Torsion [N]-C--CA-[N] |==|  0.01957
USER: genes 9 Torsion [C]-CA--N-[C] |==|  0.74267
USER: genes 10 Torsion [N]-C--CA-[N] |==|  0.57246
USER: genes 11 Torsion [C]-CA--CB-[CG] |==|  0.17685
USER: genes 12 Torsion [CA]-CB--CG-[CD2] |==|  0.63400
ROOT
ATOM      1  C   PHE B 724      40.368  35.964  85.754  1.00 20.38 LIG 0.24  C 
ATOM      2 O    PHE B 724      40.817  36.405  84.697  1.00 19.94 LIG-0.27  OA
ATOM      3  N   GLU B 725      41.120  35.761  86.827  1.00 20.55 LIG-0.35  N 
ATOM      4 H    GLU B 725      40.810  35.528  87.594  1.00 20.55 LIG 0.16  HD
ENDROOT
BRANCH 3 5
ATOM      5  CA  GLU B 725      42.564  35.922  86.784  1.00 20.80 LIG 0.18  C 
BRANCH 5 6
ATOM      6  CB  GLU B 725      42.933  37.391  87.036  1.00 21.18 LIG 0.04  C 
BRANCH 6 7
ATOM      7  CG  GLU B 725      43.749  38.056  85.933  1.00 23.39 LIG 0.12  C 
BRANCH 7 8
ATOM      8  CD  GLU B 725      43.396  37.571  84.533  1.00 26.43 LIG 0.17  C 
ATOM      9 OE1  GLU B 725      42.629  38.255  83.815  1.00 27.49 LIG-0.65  OA
ATOM     10 OE2  GLU B 725      43.886  36.483  84.150  1.00 27.53 LIG-0.65  OA
ENDBRANCH 7 8
ENDBRANCH 6 7
ENDBRANCH 5 6
BRANCH 5 11
ATOM     11  C   GLU B 725      43.184  34.979  87.830  1.00 20.17 LIG 0.24  C 
ATOM     12  N   PRO B 726      42.791  35.113  89.099  1.00 19.83 LIG-0.34  N 
ATOM     13  CD  PRO B 726      41.864  36.112  89.666  1.00 19.46 LIG 0.13  C 
ATOM     14  CA  PRO B 726      43.261  34.180  90.119  1.00 19.64 LIG 0.19  C 
ATOM     15  CG  PRO B 726      41.845  35.804  91.139  1.00 19.20 LIG 0.02  C 
ATOM     16  CB  PRO B 726      43.011  34.935  91.425  1.00 19.97 LIG 0.04  C 
ATOM     17 O    GLU B 725      44.021  34.130  87.476  1.00 19.41 LIG-0.27  OA
BRANCH 14 18
ATOM     18  C   PRO B 726      42.390  32.933  90.010  1.00 19.81 LIG 0.20  C 
ATOM     19 OXT  PRO B 726      41.355  33.011  89.323  1.00 20.16 LIG-0.65  OA
ATOM     20 O    PRO B 726      42.712  31.913  90.635  1.00 18.50 LIG-0.65  OA
ENDBRANCH 14 18
ENDBRANCH 5 11
ENDBRANCH 3 5
BRANCH 1 21
ATOM     21  CA  PHE B 724      38.886  35.617  85.905  1.00 20.36 LIG 0.18  C 
BRANCH 21 22
ATOM     22  N   PHE B 724      38.546  35.271  87.289  1.00 20.75 LIG-0.35  N 
ATOM     23  C   GLY B 723      38.565  34.016  87.726  1.00 21.06 LIG 0.25  C 
ATOM     24 O    GLY B 723      38.879  33.063  87.009  1.00 21.29 LIG-0.27  OA
ATOM     25 H    PHE B 724      38.337  35.944  87.781  1.00 20.75 LIG 0.16  HD
BRANCH 23 26
ATOM     26  CA  GLY B 723      38.178  33.800  89.181  1.00 21.22 LIG 0.47  C 
ATOM     27  N   GLY B 723      38.782  32.569  89.770  1.00 21.24 LIG 0.61  N 
ENDBRANCH 23 26
ENDBRANCH 21 22
BRANCH 21 28
ATOM     28  CB  PHE B 724      38.010  36.764  85.396  1.00 20.22 LIG 0.07  C 
BRANCH 28 29
ATOM     29  CG  PHE B 724      38.162  37.040  83.932  1.00 20.05 LIG-0.06  A 
ATOM     30  CD1 PHE B 724      38.129  36.005  83.011  1.00 20.54 LIG 0.01  A 
ATOM     31  CE1 PHE B 724      38.278  36.260  81.650  1.00 21.50 LIG 0.00  A 
ATOM     32  CZ  PHE B 724      38.473  37.567  81.205  1.00 21.54 LIG 0.00  A 
ATOM     33  CE2 PHE B 724      38.507  38.608  82.120  1.00 21.44 LIG 0.00  A 
ATOM     34  CD2 PHE B 724      38.354  38.340  83.477  1.00 20.20 LIG 0.01  A 
ENDBRANCH 28 29
ENDBRANCH 21 28
ENDBRANCH 1 21
TORSDOF 11
ENDMDL
MODEL 60
USER: ADFR SOLUTION from run 121
USER: SCORE 10.370758 LL:  -2.071 LR:  -8.760 RR:   0.000 FEB:  -5.479
USER: RMSD 7.273168
USER: SEED 120
USER: STATUS no improvement in best in 22 clusters for 5 generations
USER: GENES 13
USER: genes 0 Translation |==|  0.34684 0.59592 0.43308
USER: genes 1 Rotation |==|  0.31268 0.12610 0.75082 0.61047
USER: genes 2 Torsion [C]-N--CA-[CB] |==|  0.51114
USER: genes 3 Torsion [N]-CA--CB-[CG] |==|  0.70392
USER: genes 4 Torsion [CA]-CB--CG-[CD] |==|  0.06681
USER: genes 5 Torsion [CB]-CG--CD-[OE1] |==|  0.69015
USER: genes 6 Torsion [N]-CA--C-[N] |==|  0.45825
USER: genes 7 Torsion [N]-CA--C-[OXT] |==|  0.18303
USER: genes 8 Torsion [N]-C--CA-[N] |==|  0.42702
USER: genes 9 Torsion [C]-CA--N-[C] |==|  0.77787
USER: genes 10 Torsion [N]-C--CA-[N] |==|  0.27258
USER: genes 11 Torsion [C]-CA--CB-[CG] |==|  0.24097
USER: genes 12 Torsion [CA]-CB--CG-[CD2] |==|  0.32732
ROOT
ATOM      1  C   PHE B 724      37.997  38.872  84.435  1.00 20.38 LIG 0.24  C 
ATOM      2 O    PHE B 724      38.429  39.790  85.130  1.00 19.94 LIG-0.27  OA
ATOM      3  N   GLU B 725      38.337  37.604  84.623  1.00 20.55 LIG-0.35  N 
ATOM      4 H    GLU B 725      37.987  36.944  84.198  1.00 20.55 LIG 0.16  HD
ENDROOT
BRANCH 3 5
ATOM      5  CA  GLU B 725      39.356  37.226  85.590  1.00 20.80 LIG 0.18  C 
BRANCH 5 6
ATOM      6  CB  GLU B 725      39.606  35.713  85.518  1.00 21.18 LIG 0.04  C 
BRANCH 6 7
ATOM      7  CG  GLU B 725      39.046  34.904  86.682  1.00 23.39 LIG 0.12  C 
BRANCH 7 8
ATOM      8  CD  GLU B 725      37.880  35.580  87.392  1.00 26.43 LIG 0.17  C 
ATOM      9 OE1  GLU B 725      38.029  36.002  88.563  1.00 27.49 LIG-0.65  OA
ATOM     10 OE2  GLU B 725      36.797  35.682  86.771  1.00 27.53 LIG-0.65  OA
ENDBRANCH 7 8
ENDBRANCH 6 7
ENDBRANCH 5 6
BRANCH 5 11
ATOM     11  C   GLU B 725      40.626  38.042  85.294  1.00 20.17 LIG 0.24  C 
ATOM     12  N   PRO B 726      41.573  38.080  86.235  1.00 19.83 LIG-0.34  N 
ATOM     13  CD  PRO B 726      41.542  37.484  87.585  1.00 19.46 LIG 0.13  C 
ATOM     14  CA  PRO B 726      42.845  38.747  85.973  1.00 19.64 LIG 0.19  C 
ATOM     15  CG  PRO B 726      42.854  37.895  88.200  1.00 19.20 LIG 0.02  C 
ATOM     16  CB  PRO B 726      43.403  38.996  87.375  1.00 19.97 LIG 0.04  C 
ATOM     17 O    GLU B 725      40.740  38.635  84.207  1.00 19.41 LIG-0.27  OA
BRANCH 14 18
ATOM     18  C   PRO B 726      43.705  37.764  85.187  1.00 19.81 LIG 0.20  C 
ATOM     19 OXT  PRO B 726      43.327  37.455  84.042  1.00 20.16 LIG-0.65  OA
ATOM     20 O    PRO B 726      44.710  37.276  85.722  1.00 18.50 LIG-0.65  OA
ENDBRANCH 14 18
ENDBRANCH 5 11
ENDBRANCH 3 5
BRANCH 1 21
ATOM     21  CA  PHE B 724      37.020  39.135  83.288  1.00 20.36 LIG 0.18  C 
BRANCH 21 22
ATOM     22  N   PHE B 724      36.237  40.356  83.508  1.00 20.75 LIG-0.35  N 
ATOM     23  C   GLY B 723      35.178  40.377  84.309  1.00 21.06 LIG 0.25  C 
ATOM     24 O    GLY B 723      34.788  39.385  84.929  1.00 21.29 LIG-0.27  OA
ATOM     25 H    PHE B 724      36.524  41.042  83.077  1.00 20.75 LIG 0.16  HD
BRANCH 23 26
ATOM     26  CA  GLY B 723      34.451  41.708  84.435  1.00 21.22 LIG 0.47  C 
ATOM     27  N   GLY B 723      33.247  41.801  83.558  1.00 21.24 LIG 0.61  N 
ENDBRANCH 23 26
ENDBRANCH 21 22
BRANCH 21 28
ATOM     28  CB  PHE B 724      37.764  39.194  81.951  1.00 20.22 LIG 0.07  C 
BRANCH 28 29
ATOM     29  CG  PHE B 724      37.949  37.858  81.300  1.00 20.05 LIG-0.06  A 
ATOM     30  CD1 PHE B 724      38.700  36.871  81.917  1.00 20.54 LIG 0.01  A 
ATOM     31  CE1 PHE B 724      38.879  35.630  81.308  1.00 21.50 LIG 0.00  A 
ATOM     32  CZ  PHE B 724      38.305  35.378  80.063  1.00 21.54 LIG 0.00  A 
ATOM     33  CE2 PHE B 724      37.552  36.360  79.440  1.00 21.44 LIG 0.00  A 
ATOM     34  CD2 PHE B 724      37.379  37.595  80.059  1.00 20.20 LIG 0.01  A 
ENDBRANCH 28 29
ENDBRANCH 21 28
ENDBRANCH 1 21
TORSDOF 11
ENDMDL
MODEL 61
USER: ADFR SOLUTION from run 172
USER: SCORE 9.943654 LL:  -2.497 LR:  -8.745 RR:   0.000 FEB:  -5.464
USER: RMSD 6.714128
USER: SEED 171
USER: STATUS no improvement in best in 13 clusters for 5 generations
USER: GENES 13
USER: genes 0 Translation |==|  0.55029 0.53640 0.45870
USER: genes 1 Rotation |==|  0.79621 0.40381 0.10907 0.51357
USER: genes 2 Torsion [C]-N--CA-[CB] |==|  0.50000
USER: genes 3 Torsion [N]-CA--CB-[CG] |==|  0.01972
USER: genes 4 Torsion [CA]-CB--CG-[CD] |==|  0.67814
USER: genes 5 Torsion [CB]-CG--CD-[OE1] |==|  0.37600
USER: genes 6 Torsion [N]-CA--C-[N] |==|  0.83862
USER: genes 7 Torsion [N]-CA--C-[OXT] |==|  0.56363
USER: genes 8 Torsion [N]-C--CA-[N] |==|  0.37020
USER: genes 9 Torsion [C]-CA--N-[C] |==|  0.78494
USER: genes 10 Torsion [N]-C--CA-[N] |==|  0.13561
USER: genes 11 Torsion [C]-CA--CB-[CG] |==|  0.31086
USER: genes 12 Torsion [CA]-CB--CG-[CD2] |==|  0.13515
ROOT
ATOM      1  C   PHE B 724      41.659  38.024  84.916  1.00 20.38 LIG 0.24  C 
ATOM      2 O    PHE B 724      42.638  37.880  84.185  1.00 19.94 LIG-0.27  OA
ATOM      3  N   GLU B 725      41.681  38.772  86.010  1.00 20.55 LIG-0.35  N 
ATOM      4 H    GLU B 725      40.988  38.944  86.488  1.00 20.55 LIG 0.16  HD
ENDROOT
BRANCH 3 5
ATOM      5  CA  GLU B 725      42.913  39.372  86.496  1.00 20.80 LIG 0.18  C 
BRANCH 5 6
ATOM      6  CB  GLU B 725      42.632  40.177  87.773  1.00 21.18 LIG 0.04  C 
BRANCH 6 7
ATOM      7  CG  GLU B 725      41.221  40.039  88.333  1.00 23.39 LIG 0.12  C 
BRANCH 7 8
ATOM      8  CD  GLU B 725      40.426  41.338  88.315  1.00 26.43 LIG 0.17  C 
ATOM      9 OE1  GLU B 725      39.235  41.330  87.924  1.00 27.49 LIG-0.65  OA
ATOM     10 OE2  GLU B 725      41.005  42.384  88.690  1.00 27.53 LIG-0.65  OA
ENDBRANCH 7 8
ENDBRANCH 6 7
ENDBRANCH 5 6
BRANCH 5 11
ATOM     11  C   GLU B 725      43.936  38.248  86.729  1.00 20.17 LIG 0.24  C 
ATOM     12  N   PRO B 726      43.605  37.272  87.580  1.00 19.83 LIG-0.34  N 
ATOM     13  CD  PRO B 726      42.385  37.154  88.401  1.00 19.46 LIG 0.13  C 
ATOM     14  CA  PRO B 726      44.487  36.123  87.762  1.00 19.64 LIG 0.19  C 
ATOM     15  CG  PRO B 726      42.591  35.887  89.188  1.00 19.20 LIG 0.02  C 
ATOM     16  CB  PRO B 726      44.029  35.541  89.100  1.00 19.97 LIG 0.04  C 
ATOM     17 O    GLU B 725      45.027  38.272  86.132  1.00 19.41 LIG-0.27  OA
BRANCH 14 18
ATOM     18  C   PRO B 726      44.213  35.169  86.605  1.00 19.81 LIG 0.20  C 
ATOM     19 OXT  PRO B 726      44.504  33.969  86.768  1.00 20.16 LIG-0.65  OA
ATOM     20 O    PRO B 726      43.762  35.618  85.543  1.00 18.50 LIG-0.65  OA
ENDBRANCH 14 18
ENDBRANCH 5 11
ENDBRANCH 3 5
BRANCH 1 21
ATOM     21  CA  PHE B 724      40.327  37.339  84.605  1.00 20.36 LIG 0.18  C 
BRANCH 21 22
ATOM     22  N   PHE B 724      39.947  37.499  83.197  1.00 20.75 LIG-0.35  N 
ATOM     23  C   GLY B 723      39.434  38.633  82.732  1.00 21.06 LIG 0.25  C 
ATOM     24 O    GLY B 723      39.254  39.626  83.440  1.00 21.29 LIG-0.27  OA
ATOM     25 H    PHE B 724      40.086  36.803  82.712  1.00 20.75 LIG 0.16  HD
BRANCH 23 26
ATOM     26  CA  GLY B 723      39.073  38.656  81.254  1.00 21.22 LIG 0.47  C 
ATOM     27  N   GLY B 723      38.268  37.473  80.831  1.00 21.24 LIG 0.61  N 
ENDBRANCH 23 26
ENDBRANCH 21 22
BRANCH 21 28
ATOM     28  CB  PHE B 724      40.380  35.859  84.992  1.00 20.22 LIG 0.07  C 
BRANCH 28 29
ATOM     29  CG  PHE B 724      39.498  35.504  86.150  1.00 20.05 LIG-0.06  A 
ATOM     30  CD1 PHE B 724      39.986  34.746  87.202  1.00 20.54 LIG 0.01  A 
ATOM     31  CE1 PHE B 724      39.165  34.408  88.276  1.00 21.50 LIG 0.00  A 
ATOM     32  CZ  PHE B 724      37.835  34.828  88.292  1.00 21.54 LIG 0.00  A 
ATOM     33  CE2 PHE B 724      37.339  35.586  87.243  1.00 21.44 LIG 0.00  A 
ATOM     34  CD2 PHE B 724      38.171  35.918  86.177  1.00 20.20 LIG 0.01  A 
ENDBRANCH 28 29
ENDBRANCH 21 28
ENDBRANCH 1 21
TORSDOF 11
ENDMDL
