MODEL 1
USER: ADFR SOLUTION from run 59
USER: SCORE 14.579266 LL:  -2.573 LR: -12.549 RR:   0.000 FEB:  -8.671
USER: RMSD 2.409971
USER: SEED 58
USER: STATUS no improvement in best in 3 clusters for 5 generations
USER: GENES 15
USER: genes 0 Translation |==|  0.62916 0.59880 0.49983
USER: genes 1 Rotation |==|  0.45015 0.41983 0.47389 0.99031
USER: genes 2 Torsion [C]-CA--CB-[CG] |==|  0.87587
USER: genes 3 Torsion [CA]-CB--CG-[CD1] |==|  0.85115
USER: genes 4 Torsion [N]-CA--C-[N] |==|  0.01681
USER: genes 5 Torsion [C]-N--CA-[C] |==|  0.74916
USER: genes 6 Torsion [N]-CA--C-[N] |==|  0.48791
USER: genes 7 Torsion [N]-CA--C-[OXT] |==|  0.22563
USER: genes 8 Torsion [N]-CA--CB-[OG] |==|  0.94205
USER: genes 9 Torsion [CA]-CB--OG-[HG] |==|  0.70048
USER: genes 10 Torsion [CB]-CA--N-[C] |==|  0.19971
USER: genes 11 Torsion [N]-C--CA-[N] |==|  0.18794
USER: genes 12 Torsion [C]-CA--CB-[CG] |==|  0.33407
USER: genes 13 Torsion [CA]-CB--CG-[CD] |==|  0.77131
USER: genes 14 Torsion [CB]-CG--CD-[OE2] |==|  0.78747
ROOT
ATOM      1  CA  PHE B 724      42.868  38.770  84.684  1.00 26.49 LIG 0.18  C 
ENDROOT
BRANCH 1 2
ATOM      2  CB  PHE B 724      44.245  38.251  85.173  1.00 25.63 LIG 0.07  C 
BRANCH 2 3
ATOM      3  CG  PHE B 724      44.239  36.759  85.575  1.00 27.34 LIG-0.06  A 
ATOM      4  CD1 PHE B 724      43.312  36.282  86.504  1.00 28.02 LIG 0.01  A 
ATOM      5  CE1 PHE B 724      43.315  34.912  86.919  1.00 28.62 LIG 0.00  A 
ATOM      6  CZ  PHE B 724      44.305  33.987  86.391  1.00 35.24 LIG 0.00  A 
ATOM      7  CE2 PHE B 724      45.269  34.489  85.453  1.00 37.40 LIG 0.00  A 
ATOM      8  CD2 PHE B 724      45.216  35.876  85.073  1.00 30.54 LIG 0.01  A 
ENDBRANCH 2 3
ENDBRANCH 1 2
BRANCH 1 9
ATOM      9  C   PHE B 724      42.151  37.795  83.689  1.00 25.60 LIG 0.24  C 
ATOM     10 O    PHE B 724      42.690  37.428  82.695  1.00 24.31 LIG-0.27  OA
ATOM     11  N   SER B 725      40.912  37.430  83.993  1.00 25.14 LIG-0.34  N 
ATOM     12 H    SER B 725      40.534  37.601  84.746  1.00 25.14 LIG 0.16  HD
BRANCH 11 13
ATOM     13  CA  SER B 725      40.077  36.697  83.057  1.00 26.01 LIG 0.20  C 
BRANCH 13 14
ATOM     14  C   SER B 725      39.277  37.711  82.197  1.00 25.07 LIG 0.24  C 
ATOM     15  N   PRO B 726      38.512  37.236  81.210  1.00 24.50 LIG-0.34  N 
ATOM     16  CD  PRO B 726      38.441  35.851  80.692  1.00 23.05 LIG 0.13  C 
ATOM     17  CA  PRO B 726      37.665  38.148  80.448  1.00 23.41 LIG 0.19  C 
ATOM     18  CG  PRO B 726      37.441  35.989  79.547  1.00 23.09 LIG 0.02  C 
ATOM     19  CB  PRO B 726      37.405  37.376  79.156  1.00 23.24 LIG 0.04  C 
ATOM     20 O    SER B 725      39.343  38.938  82.439  1.00 24.38 LIG-0.27  OA
BRANCH 17 21
ATOM     21  C   PRO B 726      36.386  38.381  81.251  1.00 26.46 LIG 0.20  C 
ATOM     22 OXT  PRO B 726      36.381  39.233  82.211  1.00 26.95 LIG-0.65  OA
ATOM     23 O    PRO B 726      35.364  37.732  80.937  1.00 25.53 LIG-0.65  OA
ENDBRANCH 17 21
ENDBRANCH 13 14
BRANCH 13 24
ATOM     24  CB  SER B 725      39.163  35.743  83.853  1.00 27.74 LIG 0.20  C 
BRANCH 24 25
ATOM     25 OG   SER B 725      39.674  35.462  85.180  1.00 32.69 LIG-0.40  OA
ATOM     26 HG   SER B 725      39.962  34.674  85.209  1.00 32.69 LIG 0.21  HD
ENDBRANCH 24 25
ENDBRANCH 13 24
ENDBRANCH 11 13
ENDBRANCH 1 9
BRANCH 1 27
ATOM     27  N   PHE B 724      41.987  38.921  85.814  1.00 25.12 LIG-0.34  N 
ATOM     28  C   GLU B 723      42.147  39.888  86.699  1.00 28.42 LIG 0.26  C 
ATOM     29 O    GLU B 723      42.901  40.852  86.552  1.00 26.74 LIG-0.27  OA
ATOM     30 H    PHE B 724      41.361  38.333  85.855  1.00 25.12 LIG 0.16  HD
BRANCH 28 31
ATOM     31  CA  GLU B 723      41.296  39.734  87.943  1.00 29.87 LIG 0.40  C 
ATOM     32  N   GLU B 723      41.649  38.571  88.848  1.00 31.36 LIG 0.61  N 
BRANCH 31 33
ATOM     33  CB  GLU B 723      41.267  41.086  88.605  1.00 32.48 LIG 0.06  C 
BRANCH 33 34
ATOM     34  CG  GLU B 723      39.811  41.562  88.693  1.00 37.12 LIG 0.12  C 
BRANCH 34 35
ATOM     35  CD  GLU B 723      39.385  42.192  87.355  1.00 44.87 LIG 0.17  C 
ATOM     36 OE2  GLU B 723      39.795  43.374  87.077  1.00 46.35 LIG-0.65  OA
ATOM     37 OE1  GLU B 723      38.680  41.470  86.562  1.00 48.21 LIG-0.65  OA
ENDBRANCH 34 35
ENDBRANCH 33 34
ENDBRANCH 31 33
ENDBRANCH 28 31
ENDBRANCH 1 27
TORSDOF 13
ENDMDL
MODEL 2
USER: ADFR SOLUTION from run 108
USER: SCORE 13.866453 LL:  -2.973 LR: -11.137 RR:   0.000 FEB:  -7.259
USER: RMSD 3.158410
USER: SEED 107
USER: STATUS no improvement in best in 6 clusters for 5 generations
USER: GENES 15
USER: genes 0 Translation |==|  0.61502 0.57262 0.51801
USER: genes 1 Rotation |==|  0.41044 0.33183 0.35247 0.93810
USER: genes 2 Torsion [C]-CA--CB-[CG] |==|  0.49460
USER: genes 3 Torsion [CA]-CB--CG-[CD1] |==|  0.57763
USER: genes 4 Torsion [N]-CA--C-[N] |==|  0.87781
USER: genes 5 Torsion [C]-N--CA-[C] |==|  0.78086
USER: genes 6 Torsion [N]-CA--C-[N] |==|  0.48207
USER: genes 7 Torsion [N]-CA--C-[OXT] |==|  0.25115
USER: genes 8 Torsion [N]-CA--CB-[OG] |==|  0.98592
USER: genes 9 Torsion [CA]-CB--OG-[HG] |==|  0.69887
USER: genes 10 Torsion [CB]-CA--N-[C] |==|  0.85975
USER: genes 11 Torsion [N]-C--CA-[N] |==|  0.37426
USER: genes 12 Torsion [C]-CA--CB-[CG] |==|  0.44052
USER: genes 13 Torsion [CA]-CB--CG-[CD] |==|  0.89211
USER: genes 14 Torsion [CB]-CG--CD-[OE2] |==|  0.72808
ROOT
ATOM      1  CA  PHE B 724      42.613  38.397  85.025  1.00 26.49 LIG 0.18  C 
ENDROOT
BRANCH 1 2
ATOM      2  CB  PHE B 724      43.285  37.455  86.057  1.00 25.63 LIG 0.07  C 
BRANCH 2 3
ATOM      3  CG  PHE B 724      43.989  38.202  87.213  1.00 27.34 LIG-0.06  A 
ATOM      4  CD1 PHE B 724      45.080  37.624  87.865  1.00 28.02 LIG 0.01  A 
ATOM      5  CE1 PHE B 724      45.722  38.282  88.962  1.00 28.62 LIG 0.00  A 
ATOM      6  CZ  PHE B 724      45.234  39.567  89.435  1.00 35.24 LIG 0.00  A 
ATOM      7  CE2 PHE B 724      44.098  40.145  88.774  1.00 37.40 LIG 0.00  A 
ATOM      8  CD2 PHE B 724      43.495  39.438  87.676  1.00 30.54 LIG 0.01  A 
ENDBRANCH 2 3
ENDBRANCH 1 2
BRANCH 1 9
ATOM      9  C   PHE B 724      41.943  37.636  83.830  1.00 25.60 LIG 0.24  C 
ATOM     10 O    PHE B 724      42.446  37.623  82.753  1.00 24.31 LIG-0.27  OA
ATOM     11  N   SER B 725      40.781  37.044  84.072  1.00 25.14 LIG-0.34  N 
ATOM     12 H    SER B 725      40.442  36.955  84.857  1.00 25.14 LIG 0.16  HD
BRANCH 11 13
ATOM     13  CA  SER B 725      39.970  36.483  83.004  1.00 26.01 LIG 0.20  C 
BRANCH 13 14
ATOM     14  C   SER B 725      39.208  37.634  82.296  1.00 25.07 LIG 0.24  C 
ATOM     15  N   PRO B 726      38.504  37.342  81.198  1.00 24.50 LIG-0.34  N 
ATOM     16  CD  PRO B 726      38.480  36.073  80.437  1.00 23.05 LIG 0.13  C 
ATOM     17  CA  PRO B 726      37.691  38.375  80.564  1.00 23.41 LIG 0.19  C 
ATOM     18  CG  PRO B 726      37.544  36.413  79.279  1.00 23.09 LIG 0.02  C 
ATOM     19  CB  PRO B 726      37.513  37.848  79.141  1.00 23.24 LIG 0.04  C 
ATOM     20 O    SER B 725      39.245  38.798  82.757  1.00 24.38 LIG-0.27  OA
BRANCH 17 21
ATOM     21  C   PRO B 726      36.366  38.458  81.321  1.00 26.46 LIG 0.20  C 
ATOM     22 OXT  PRO B 726      36.247  39.262  82.315  1.00 26.95 LIG-0.65  OA
ATOM     23 O    PRO B 726      35.419  37.737  80.937  1.00 25.53 LIG-0.65  OA
ENDBRANCH 17 21
ENDBRANCH 13 14
BRANCH 13 24
ATOM     24  CB  SER B 725      39.022  35.426  83.608  1.00 27.74 LIG 0.20  C 
BRANCH 24 25
ATOM     25 OG   SER B 725      39.271  35.196  85.017  1.00 32.69 LIG-0.40  OA
ATOM     26 HG   SER B 725      39.626  34.442  85.120  1.00 32.69 LIG 0.21  HD
ENDBRANCH 24 25
ENDBRANCH 13 24
ENDBRANCH 11 13
ENDBRANCH 1 9
BRANCH 1 27
ATOM     27  N   PHE B 724      41.566  39.144  85.672  1.00 25.12 LIG-0.34  N 
ATOM     28  C   GLU B 723      40.637  38.555  86.404  1.00 28.42 LIG 0.26  C 
ATOM     29 O    GLU B 723      40.681  37.380  86.773  1.00 26.74 LIG-0.27  OA
ATOM     30 H    PHE B 724      41.603  39.993  85.540  1.00 25.12 LIG 0.16  HD
BRANCH 28 31
ATOM     31  CA  GLU B 723      39.484  39.460  86.786  1.00 29.87 LIG 0.40  C 
ATOM     32  N   GLU B 723      38.097  38.873  86.621  1.00 31.36 LIG 0.61  N 
BRANCH 31 33
ATOM     33  CB  GLU B 723      39.803  39.997  88.156  1.00 32.48 LIG 0.06  C 
BRANCH 33 34
ATOM     34  CG  GLU B 723      39.002  41.286  88.381  1.00 37.12 LIG 0.12  C 
BRANCH 34 35
ATOM     35  CD  GLU B 723      38.959  42.109  87.081  1.00 44.87 LIG 0.17  C 
ATOM     36 OE2  GLU B 723      39.793  43.073  86.939  1.00 46.35 LIG-0.65  OA
ATOM     37 OE1  GLU B 723      38.119  41.746  86.182  1.00 48.21 LIG-0.65  OA
ENDBRANCH 34 35
ENDBRANCH 33 34
ENDBRANCH 31 33
ENDBRANCH 28 31
ENDBRANCH 1 27
TORSDOF 13
ENDMDL
MODEL 3
USER: ADFR SOLUTION from run 37
USER: SCORE 13.868279 LL:  -3.506 LR: -10.853 RR:   0.000 FEB:  -6.976
USER: RMSD 2.112478
USER: SEED 36
USER: STATUS no improvement in best in 2 clusters for 5 generations
USER: GENES 15
USER: genes 0 Translation |==|  0.63480 0.58575 0.48928
USER: genes 1 Rotation |==|  0.49581 0.48817 0.50423 0.99982
USER: genes 2 Torsion [C]-CA--CB-[CG] |==|  0.77873
USER: genes 3 Torsion [CA]-CB--CG-[CD1] |==|  0.72370
USER: genes 4 Torsion [N]-CA--C-[N] |==|  0.04291
USER: genes 5 Torsion [C]-N--CA-[C] |==|  0.78604
USER: genes 6 Torsion [N]-CA--C-[N] |==|  0.45768
USER: genes 7 Torsion [N]-CA--C-[OXT] |==|  0.74080
USER: genes 8 Torsion [N]-CA--CB-[OG] |==|  0.92240
USER: genes 9 Torsion [CA]-CB--OG-[HG] |==|  0.76308
USER: genes 10 Torsion [CB]-CA--N-[C] |==|  0.22221
USER: genes 11 Torsion [N]-C--CA-[N] |==|  0.09590
USER: genes 12 Torsion [C]-CA--CB-[CG] |==|  0.83184
USER: genes 13 Torsion [CA]-CB--CG-[CD] |==|  0.77258
USER: genes 14 Torsion [CB]-CG--CD-[OE2] |==|  0.00132
ROOT
ATOM      1  CA  PHE B 724      42.969  38.584  84.486  1.00 26.49 LIG 0.18  C 
ENDROOT
BRANCH 1 2
ATOM      2  CB  PHE B 724      44.472  38.201  84.488  1.00 25.63 LIG 0.07  C 
BRANCH 2 3
ATOM      3  CG  PHE B 724      44.800  36.979  85.377  1.00 27.34 LIG-0.06  A 
ATOM      4  CD1 PHE B 724      45.324  37.159  86.658  1.00 28.02 LIG 0.01  A 
ATOM      5  CE1 PHE B 724      45.669  36.041  87.482  1.00 28.62 LIG 0.00  A 
ATOM      6  CZ  PHE B 724      45.499  34.684  86.988  1.00 35.24 LIG 0.00  A 
ATOM      7  CE2 PHE B 724      44.981  34.507  85.660  1.00 37.40 LIG 0.00  A 
ATOM      8  CD2 PHE B 724      44.650  35.669  84.879  1.00 30.54 LIG 0.01  A 
ENDBRANCH 2 3
ENDBRANCH 1 2
BRANCH 1 9
ATOM      9  C   PHE B 724      42.097  37.684  83.545  1.00 25.60 LIG 0.24  C 
ATOM     10 O    PHE B 724      42.454  37.428  82.440  1.00 24.31 LIG-0.27  OA
ATOM     11  N   SER B 725      40.938  37.256  84.028  1.00 25.14 LIG-0.34  N 
ATOM     12 H    SER B 725      40.700  37.345  84.849  1.00 25.14 LIG 0.16  HD
BRANCH 11 13
ATOM     13  CA  SER B 725      39.958  36.588  83.189  1.00 26.01 LIG 0.20  C 
BRANCH 13 14
ATOM     14  C   SER B 725      39.225  37.652  82.331  1.00 25.07 LIG 0.24  C 
ATOM     15  N   PRO B 726      38.512  37.233  81.280  1.00 24.50 LIG-0.34  N 
ATOM     16  CD  PRO B 726      38.453  35.874  80.698  1.00 23.05 LIG 0.13  C 
ATOM     17  CA  PRO B 726      37.725  38.192  80.511  1.00 23.41 LIG 0.19  C 
ATOM     18  CG  PRO B 726      37.524  36.078  79.504  1.00 23.09 LIG 0.02  C 
ATOM     19  CB  PRO B 726      37.531  37.482  79.173  1.00 23.24 LIG 0.04  C 
ATOM     20 O    SER B 725      39.293  38.866  82.630  1.00 24.38 LIG-0.27  OA
BRANCH 17 21
ATOM     21  C   PRO B 726      36.403  38.410  81.248  1.00 26.46 LIG 0.20  C 
ATOM     22 OXT  PRO B 726      35.375  37.707  80.937  1.00 26.95 LIG-0.65  OA
ATOM     23 O    PRO B 726      36.366  39.273  82.152  1.00 25.53 LIG-0.65  OA
ENDBRANCH 17 21
ENDBRANCH 13 14
BRANCH 13 24
ATOM     24  CB  SER B 725      38.997  35.790  84.094  1.00 27.74 LIG 0.20  C 
BRANCH 24 25
ATOM     25 OG   SER B 725      39.620  35.369  85.333  1.00 32.69 LIG-0.40  OA
ATOM     26 HG   SER B 725      40.028  34.646  85.210  1.00 32.69 LIG 0.21  HD
ENDBRANCH 24 25
ENDBRANCH 13 24
ENDBRANCH 11 13
ENDBRANCH 1 9
BRANCH 1 27
ATOM     27  N   PHE B 724      42.435  38.425  85.814  1.00 25.12 LIG-0.34  N 
ATOM     28  C   GLU B 723      42.617  39.335  86.754  1.00 28.42 LIG 0.26  C 
ATOM     29 O    GLU B 723      43.060  40.468  86.552  1.00 26.74 LIG-0.27  OA
ATOM     30 H    PHE B 724      41.996  37.695  85.933  1.00 25.12 LIG 0.16  HD
BRANCH 28 31
ATOM     31  CA  GLU B 723      42.211  38.882  88.141  1.00 29.87 LIG 0.40  C 
ATOM     32  N   GLU B 723      42.443  37.417  88.455  1.00 31.36 LIG 0.61  N 
BRANCH 31 33
ATOM     33  CB  GLU B 723      42.831  39.858  89.104  1.00 32.48 LIG 0.06  C 
BRANCH 33 34
ATOM     34  CG  GLU B 723      44.356  39.814  88.939  1.00 37.12 LIG 0.12  C 
BRANCH 34 35
ATOM     35  CD  GLU B 723      44.935  38.628  89.730  1.00 44.87 LIG 0.17  C 
ATOM     36 OE2  GLU B 723      44.126  37.871  90.376  1.00 46.35 LIG-0.65  OA
ATOM     37 OE1  GLU B 723      46.200  38.430  89.654  1.00 48.21 LIG-0.65  OA
ENDBRANCH 34 35
ENDBRANCH 33 34
ENDBRANCH 31 33
ENDBRANCH 28 31
ENDBRANCH 1 27
TORSDOF 13
ENDMDL
MODEL 4
USER: ADFR SOLUTION from run 106
USER: SCORE 12.354212 LL:  -2.777 LR: -10.679 RR:   0.000 FEB:  -6.801
USER: RMSD 4.699951
USER: SEED 105
USER: STATUS no improvement in best in 15 clusters for 5 generations
USER: GENES 15
USER: genes 0 Translation |==|  0.51123 0.29098 0.61308
USER: genes 1 Rotation |==|  0.14349 0.40487 0.20461 0.66309
USER: genes 2 Torsion [C]-CA--CB-[CG] |==|  0.18596
USER: genes 3 Torsion [CA]-CB--CG-[CD1] |==|  0.76944
USER: genes 4 Torsion [N]-CA--C-[N] |==|  0.96133
USER: genes 5 Torsion [C]-N--CA-[C] |==|  0.54445
USER: genes 6 Torsion [N]-CA--C-[N] |==|  0.31142
USER: genes 7 Torsion [N]-CA--C-[OXT] |==|  0.81653
USER: genes 8 Torsion [N]-CA--CB-[OG] |==|  0.36159
USER: genes 9 Torsion [CA]-CB--OG-[HG] |==|  0.17705
USER: genes 10 Torsion [CB]-CA--N-[C] |==|  0.22681
USER: genes 11 Torsion [N]-C--CA-[N] |==|  0.33852
USER: genes 12 Torsion [C]-CA--CB-[CG] |==|  0.37553
USER: genes 13 Torsion [CA]-CB--CG-[CD] |==|  0.83075
USER: genes 14 Torsion [CB]-CG--CD-[OE2] |==|  0.23149
ROOT
ATOM      1  CA  PHE B 724      40.745  34.384  86.807  1.00 26.49 LIG 0.18  C 
ENDROOT
BRANCH 1 2
ATOM      2  CB  PHE B 724      40.766  34.453  88.356  1.00 25.63 LIG 0.07  C 
BRANCH 2 3
ATOM      3  CG  PHE B 724      40.110  33.233  89.042  1.00 27.34 LIG-0.06  A 
ATOM      4  CD1 PHE B 724      38.725  33.181  89.212  1.00 28.02 LIG 0.01  A 
ATOM      5  CE1 PHE B 724      38.101  32.078  89.878  1.00 28.62 LIG 0.00  A 
ATOM      6  CZ  PHE B 724      38.907  30.991  90.412  1.00 35.24 LIG 0.00  A 
ATOM      7  CE2 PHE B 724      40.332  31.063  90.253  1.00 37.40 LIG 0.00  A 
ATOM      8  CD2 PHE B 724      40.902  32.196  89.573  1.00 30.54 LIG 0.01  A 
ENDBRANCH 2 3
ENDBRANCH 1 2
BRANCH 1 9
ATOM      9  C   PHE B 724      39.305  34.481  86.198  1.00 25.60 LIG 0.24  C 
ATOM     10 O    PHE B 724      38.557  33.558  86.243  1.00 24.31 LIG-0.27  OA
ATOM     11  N   SER B 725      38.979  35.622  85.605  1.00 25.14 LIG-0.34  N 
ATOM     12 H    SER B 725      39.460  36.334  85.640  1.00 25.14 LIG 0.16  HD
BRANCH 11 13
ATOM     13  CA  SER B 725      37.757  35.763  84.832  1.00 26.01 LIG 0.20  C 
BRANCH 13 14
ATOM     14  C   SER B 725      37.862  37.039  83.956  1.00 25.07 LIG 0.24  C 
ATOM     15  N   PRO B 726      37.941  36.889  82.630  1.00 24.50 LIG-0.34  N 
ATOM     16  CD  PRO B 726      38.117  35.638  81.860  1.00 23.05 LIG 0.13  C 
ATOM     17  CA  PRO B 726      37.936  38.066  81.767  1.00 23.41 LIG 0.19  C 
ATOM     18  CG  PRO B 726      38.192  36.155  80.425  1.00 23.09 LIG 0.02  C 
ATOM     19  CB  PRO B 726      38.562  37.547  80.475  1.00 23.24 LIG 0.04  C 
ATOM     20 O    SER B 725      37.857  38.174  84.485  1.00 24.38 LIG-0.27  OA
BRANCH 17 21
ATOM     21  C   PRO B 726      36.483  38.499  81.574  1.00 26.46 LIG 0.20  C 
ATOM     22 OXT  PRO B 726      35.669  37.737  80.937  1.00 26.95 LIG-0.65  OA
ATOM     23 O    PRO B 726      36.122  39.593  82.059  1.00 25.53 LIG-0.65  OA
ENDBRANCH 17 21
ENDBRANCH 13 14
BRANCH 13 24
ATOM     24  CB  SER B 725      36.561  35.808  85.805  1.00 27.74 LIG 0.20  C 
BRANCH 24 25
ATOM     25 OG   SER B 725      35.671  36.922  85.543  1.00 32.69 LIG-0.40  OA
ATOM     26 HG   SER B 725      35.327  36.833  84.783  1.00 32.69 LIG 0.21  HD
ENDBRANCH 24 25
ENDBRANCH 13 24
ENDBRANCH 11 13
ENDBRANCH 1 9
BRANCH 1 27
ATOM     27  N   PHE B 724      41.492  35.492  86.270  1.00 25.12 LIG-0.34  N 
ATOM     28  C   GLU B 723      42.809  35.467  86.176  1.00 28.42 LIG 0.26  C 
ATOM     29 O    GLU B 723      43.500  34.458  86.330  1.00 26.74 LIG-0.27  OA
ATOM     30 H    PHE B 724      41.007  36.158  86.023  1.00 25.12 LIG 0.16  HD
BRANCH 28 31
ATOM     31  CA  GLU B 723      43.431  36.805  85.835  1.00 29.87 LIG 0.40  C 
ATOM     32  N   GLU B 723      44.443  37.339  86.829  1.00 31.36 LIG 0.61  N 
BRANCH 31 33
ATOM     33  CB  GLU B 723      43.913  36.697  84.412  1.00 32.48 LIG 0.06  C 
BRANCH 33 34
ATOM     34  CG  GLU B 723      43.507  37.969  83.656  1.00 37.12 LIG 0.12  C 
BRANCH 34 35
ATOM     35  CD  GLU B 723      41.975  38.111  83.652  1.00 44.87 LIG 0.17  C 
ATOM     36 OE2  GLU B 723      41.407  38.640  84.673  1.00 46.35 LIG-0.65  OA
ATOM     37 OE1  GLU B 723      41.352  37.737  82.595  1.00 48.21 LIG-0.65  OA
ENDBRANCH 34 35
ENDBRANCH 33 34
ENDBRANCH 31 33
ENDBRANCH 28 31
ENDBRANCH 1 27
TORSDOF 13
ENDMDL
MODEL 5
USER: ADFR SOLUTION from run 59
USER: SCORE 13.050650 LL:  -3.089 LR: -10.652 RR:   0.000 FEB:  -6.774
USER: RMSD 2.125708
USER: SEED 58
USER: STATUS no improvement in best in 3 clusters for 5 generations
USER: GENES 15
USER: genes 0 Translation |==|  0.62337 0.55871 0.51197
USER: genes 1 Rotation |==|  0.55281 0.49712 0.55416 0.99424
USER: genes 2 Torsion [C]-CA--CB-[CG] |==|  0.76420
USER: genes 3 Torsion [CA]-CB--CG-[CD1] |==|  0.25127
USER: genes 4 Torsion [N]-CA--C-[N] |==|  0.12798
USER: genes 5 Torsion [C]-N--CA-[C] |==|  0.72300
USER: genes 6 Torsion [N]-CA--C-[N] |==|  0.48182
USER: genes 7 Torsion [N]-CA--C-[OXT] |==|  0.24728
USER: genes 8 Torsion [N]-CA--CB-[OG] |==|  0.95628
USER: genes 9 Torsion [CA]-CB--OG-[HG] |==|  0.70963
USER: genes 10 Torsion [CB]-CA--N-[C] |==|  0.75796
USER: genes 11 Torsion [N]-C--CA-[N] |==|  0.11330
USER: genes 12 Torsion [C]-CA--CB-[CG] |==|  0.27709
USER: genes 13 Torsion [CA]-CB--CG-[CD] |==|  0.09151
USER: genes 14 Torsion [CB]-CG--CD-[OE2] |==|  0.12811
ROOT
ATOM      1  CA  PHE B 724      42.764  38.199  84.911  1.00 26.49 LIG 0.18  C 
ENDROOT
BRANCH 1 2
ATOM      2  CB  PHE B 724      44.309  38.143  84.805  1.00 25.63 LIG 0.07  C 
BRANCH 2 3
ATOM      3  CG  PHE B 724      44.937  36.916  85.504  1.00 27.34 LIG-0.06  A 
ATOM      4  CD1 PHE B 724      45.139  35.728  84.798  1.00 28.02 LIG 0.01  A 
ATOM      5  CE1 PHE B 724      45.684  34.569  85.437  1.00 28.62 LIG 0.00  A 
ATOM      6  CZ  PHE B 724      46.021  34.601  86.851  1.00 35.24 LIG 0.00  A 
ATOM      7  CE2 PHE B 724      45.790  35.818  87.576  1.00 37.40 LIG 0.00  A 
ATOM      8  CD2 PHE B 724      45.242  36.952  86.880  1.00 30.54 LIG 0.01  A 
ENDBRANCH 2 3
ENDBRANCH 1 2
BRANCH 1 9
ATOM      9  C   PHE B 724      42.031  37.363  83.807  1.00 25.60 LIG 0.24  C 
ATOM     10 O    PHE B 724      42.611  36.985  82.840  1.00 24.31 LIG-0.27  OA
ATOM     11  N   SER B 725      40.738  37.130  83.988  1.00 25.14 LIG-0.34  N 
ATOM     12 H    SER B 725      40.317  37.307  84.717  1.00 25.14 LIG 0.16  HD
BRANCH 11 13
ATOM     13  CA  SER B 725      39.911  36.546  82.946  1.00 26.01 LIG 0.20  C 
BRANCH 13 14
ATOM     14  C   SER B 725      39.121  37.677  82.239  1.00 25.07 LIG 0.24  C 
ATOM     15  N   PRO B 726      38.399  37.363  81.158  1.00 24.50 LIG-0.34  N 
ATOM     16  CD  PRO B 726      38.375  36.084  80.415  1.00 23.05 LIG 0.13  C 
ATOM     17  CA  PRO B 726      37.560  38.378  80.528  1.00 23.41 LIG 0.19  C 
ATOM     18  CG  PRO B 726      37.411  36.397  79.272  1.00 23.09 LIG 0.02  C 
ATOM     19  CB  PRO B 726      37.361  37.829  79.116  1.00 23.24 LIG 0.04  C 
ATOM     20 O    SER B 725      39.153  38.848  82.683  1.00 24.38 LIG-0.27  OA
BRANCH 17 21
ATOM     21  C   PRO B 726      36.250  38.455  81.310  1.00 26.46 LIG 0.20  C 
ATOM     22 OXT  PRO B 726      36.151  39.251  82.312  1.00 26.95 LIG-0.65  OA
ATOM     23 O    PRO B 726      35.296  37.737  80.939  1.00 25.53 LIG-0.65  OA
ENDBRANCH 17 21
ENDBRANCH 13 14
BRANCH 13 24
ATOM     24  CB  SER B 725      38.988  35.487  83.585  1.00 27.74 LIG 0.20  C 
BRANCH 24 25
ATOM     25 OG   SER B 725      39.422  35.099  84.912  1.00 32.69 LIG-0.40  OA
ATOM     26 HG   SER B 725      39.782  34.341  84.880  1.00 32.69 LIG 0.21  HD
ENDBRANCH 24 25
ENDBRANCH 13 24
ENDBRANCH 11 13
ENDBRANCH 1 9
BRANCH 1 27
ATOM     27  N   PHE B 724      42.354  37.649  86.178  1.00 25.12 LIG-0.34  N 
ATOM     28  C   GLU B 723      42.140  36.356  86.342  1.00 28.42 LIG 0.26  C 
ATOM     29 O    GLU B 723      42.458  35.487  85.528  1.00 26.74 LIG-0.27  OA
ATOM     30 H    PHE B 724      42.263  38.232  86.804  1.00 25.12 LIG 0.16  HD
BRANCH 28 31
ATOM     31  CA  GLU B 723      41.471  36.001  87.655  1.00 29.87 LIG 0.40  C 
ATOM     32  N   GLU B 723      40.359  36.927  88.104  1.00 31.36 LIG 0.61  N 
BRANCH 31 33
ATOM     33  CB  GLU B 723      41.105  34.544  87.562  1.00 32.48 LIG 0.06  C 
BRANCH 33 34
ATOM     34  CG  GLU B 723      42.161  33.721  88.311  1.00 37.12 LIG 0.12  C 
BRANCH 34 35
ATOM     35  CD  GLU B 723      42.699  34.523  89.509  1.00 44.87 LIG 0.17  C 
ATOM     36 OE2  GLU B 723      41.858  35.119  90.272  1.00 46.35 LIG-0.65  OA
ATOM     37 OE1  GLU B 723      43.966  34.505  89.710  1.00 48.21 LIG-0.65  OA
ENDBRANCH 34 35
ENDBRANCH 33 34
ENDBRANCH 31 33
ENDBRANCH 28 31
ENDBRANCH 1 27
TORSDOF 13
ENDMDL
