MODEL 1
USER: ADFR SOLUTION from run 6
USER: SCORE 19.590647 LL:  -4.837 LR: -15.100 RR:   0.000 FEB:  -8.239
USER: RMSD 10.929112
USER: SEED 328626
USER: STATUS no improvement in best in 2 clusters for 5 generations
USER: GENES 25
USER: genes 0 Translation |==|  0.44184 0.51300 0.59604
USER: genes 1 Rotation |==|  0.72766 0.05926 0.52595 0.55699
USER: genes 2 Torsion [C]-CA--N-[C] |==|  0.74160
USER: genes 3 Torsion [N]-C--CA-[N] |==|  0.46588
USER: genes 4 Torsion [C]-CA--N-[C] |==|  0.80511
USER: genes 5 Torsion [N]-C--CA-[N] |==|  0.80034
USER: genes 6 Torsion [C]-CA--CB-[CG] |==|  0.20522
USER: genes 7 Torsion [CA]-CB--CG-[ND2] |==|  0.76386
USER: genes 8 Torsion [C]-CA--CB-[CG] |==|  0.37984
USER: genes 9 Torsion [CA]-CB--CG-[CD] |==|  0.98324
USER: genes 10 Torsion [CB]-CG--CD-[OE1] |==|  0.21152
USER: genes 11 Torsion [N]-CA--CB-[CG] |==|  0.94507
USER: genes 12 Torsion [CA]-CB--CG-[CD1] |==|  0.24488
USER: genes 13 Torsion [CE2]-CZ--OH-[HH] |==|  0.45486
USER: genes 14 Torsion [N]-CA--C-[N] |==|  0.39418
USER: genes 15 Torsion [C]-N--CA-[C] |==|  0.70227
USER: genes 16 Torsion [N]-CA--CB-[CG] |==|  0.67621
USER: genes 17 Torsion [CA]-CB--CG-[CD] |==|  0.79168
USER: genes 18 Torsion [CB]-CG--CD-[CE] |==|  0.89070
USER: genes 19 Torsion [CG]-CD--CE-[NZ] |==|  0.61185
USER: genes 20 Torsion [CD]-CE--NZ-[HZ3] |==|  0.84015
USER: genes 21 Torsion [N]-CA--C-[N] |==|  0.45485
USER: genes 22 Torsion [C]-N--CA-[C] |==|  0.63699
USER: genes 23 Torsion [N]-CA--C-[O] |==|  0.48517
USER: genes 24 Torsion [N]-CA--CB-[CG2] |==|  0.40756
ROOT
ATOM      1  CA  TYR S   4       7.133 -18.594  43.509  1.00 28.42 LIG 0.18  C 
ENDROOT
BRANCH 1 2
ATOM      2  N   TYR S   4       7.334 -17.753  44.674  1.00 30.10 LIG-0.35  N 
ATOM      3 H    TYR S   4       6.626 -17.336  44.924  1.00 30.10 LIG 0.16  HD
ATOM      4  C   GLU S   3       8.499 -17.637  45.297  1.00 31.33 LIG 0.24  C 
ATOM      5 O    GLU S   3       9.537 -18.177  44.902  1.00 31.71 LIG-0.27  OA
BRANCH 4 6
ATOM      6  CA  GLU S   3       8.483 -16.790  46.554  1.00 32.63 LIG 0.18  C 
BRANCH 6 7
ATOM      7  N   GLU S   3       9.740 -16.982  47.294  1.00 32.63 LIG-0.35  N 
ATOM      8  C   ASN S   2       9.994 -18.125  47.900  1.00 33.77 LIG 0.26  C 
ATOM      9 O    ASN S   2       9.165 -19.017  47.998  1.00 34.52 LIG-0.27  OA
ATOM     10 H    GLU S   3      10.270 -16.304  47.292  1.00 32.63 LIG 0.16  HD
BRANCH 8 11
ATOM     11  CA  ASN S   2      11.406 -18.296  48.472  1.00 34.66 LIG 0.41  C 
ATOM     12  N   ASN S   2      12.422 -18.482  47.385  1.00 35.02 LIG 0.61  N 
BRANCH 11 13
ATOM     13  CB  ASN S   2      11.719 -17.066  49.346  1.00 35.18 LIG 0.15  C 
BRANCH 13 14
ATOM     14  CG  ASN S   2      10.973 -17.077  50.683  1.00 37.91 LIG 0.22  C 
ATOM     15 OD1  ASN S   2      11.515 -17.508  51.704  1.00 41.54 LIG-0.27  OA
ATOM     16  ND2 ASN S   2       9.730 -16.584  50.677  1.00 40.23 LIG-0.37  N 
ATOM     17 22HD ASN S   2       9.386 -16.293  49.945  1.00 40.23 LIG 0.16  HD
ATOM     18 21HD ASN S   2       9.274 -16.559  51.405  1.00 40.23 LIG 0.16  HD
ENDBRANCH 13 14
ENDBRANCH 11 13
ENDBRANCH 8 11
ENDBRANCH 6 7
BRANCH 6 19
ATOM     19  CB  GLU S   3       8.246 -15.317  46.236  1.00 32.72 LIG 0.04  C 
BRANCH 19 20
ATOM     20  CG  GLU S   3       7.266 -14.574  47.139  1.00 35.99 LIG 0.12  C 
BRANCH 20 21
ATOM     21  CD  GLU S   3       6.563 -15.483  48.145  1.00 39.18 LIG 0.17  C 
ATOM     22 OE1  GLU S   3       7.222 -15.860  49.141  1.00 41.46 LIG-0.65  OA
ATOM     23 OE2  GLU S   3       5.354 -15.817  47.954  1.00 41.34 LIG-0.65  OA
ENDBRANCH 20 21
ENDBRANCH 19 20
ENDBRANCH 6 19
ENDBRANCH 4 6
ENDBRANCH 1 2
BRANCH 1 24
ATOM     24  CB  TYR S   4       5.738 -19.188  43.570  1.00 28.42 LIG 0.07  C 
BRANCH 24 25
ATOM     25  CG  TYR S   4       5.151 -19.162  44.951  1.00 29.89 LIG-0.06  A 
ATOM     26  CD2 TYR S   4       5.291 -20.252  45.824  1.00 30.34 LIG 0.01  A 
ATOM     27  CE2 TYR S   4       4.715 -20.207  47.113  1.00 32.01 LIG 0.04  A 
ATOM     28  CZ  TYR S   4       4.017 -19.070  47.506  1.00 31.83 LIG 0.07  A 
ATOM     29  CE1 TYR S   4       3.877 -18.014  46.651  1.00 31.31 LIG 0.04  A 
ATOM     30  CD1 TYR S   4       4.441 -18.059  45.390  1.00 30.54 LIG 0.01  A 
BRANCH 28 31
ATOM     31 OH   TYR S   4       3.397 -18.970  48.737  1.00 36.86 LIG-0.36  OA
ATOM     32 HH   TYR S   4       3.221 -18.164  48.898  1.00 36.86 LIG 0.22  HD
ENDBRANCH 28 31
ENDBRANCH 24 25
ENDBRANCH 1 24
BRANCH 1 33
ATOM     33  C   TYR S   4       7.340 -17.751  42.260  1.00 27.93 LIG 0.24  C 
ATOM     34  N   LYS S   5       7.953 -18.348  41.248  1.00 28.19 LIG-0.35  N 
ATOM     35 H    LYS S   5       8.228 -19.163  41.282  1.00 28.19 LIG 0.16  HD
ATOM     36 O    TYR S   4       7.019 -16.564  42.244  1.00 25.57 LIG-0.27  OA
BRANCH 34 37
ATOM     37  CA  LYS S   5       8.227 -17.694  39.972  1.00 28.81 LIG 0.18  C 
BRANCH 37 38
ATOM     38  CB  LYS S   5       9.692 -17.904  39.556  1.00 29.54 LIG 0.04  C 
BRANCH 38 39
ATOM     39  CG  LYS S   5      10.546 -16.627  39.461  1.00 33.24 LIG 0.00  C 
BRANCH 39 40
ATOM     40  CD  LYS S   5      10.229 -15.809  38.219  1.00 37.34 LIG 0.03  C 
BRANCH 40 41
ATOM     41  CE  LYS S   5       9.992 -16.734  37.021  1.00 39.48 LIG 0.23  C 
BRANCH 41 42
ATOM     42  NZ  LYS S   5      10.606 -16.184  35.785  1.00 41.40 LIG-0.08  N 
ATOM     43 HZ2  LYS S   5      10.423 -16.720  35.099  1.00 41.40 LIG 0.27  HD
ATOM     44 HZ1  LYS S   5      11.488 -16.128  35.891  1.00 41.40 LIG 0.27  HD
ATOM     45 HZ3  LYS S   5      10.274 -15.374  35.624  1.00 41.40 LIG 0.27  HD
ENDBRANCH 41 42
ENDBRANCH 40 41
ENDBRANCH 39 40
ENDBRANCH 38 39
ENDBRANCH 37 38
BRANCH 37 46
ATOM     46  C   LYS S   5       7.272 -18.284  38.948  1.00 28.43 LIG 0.24  C 
ATOM     47  N   VAL S   6       7.122 -17.611  37.820  1.00 27.37 LIG-0.34  N 
ATOM     48 H    VAL S   6       7.602 -16.929  37.607  1.00 27.37 LIG 0.16  HD
ATOM     49 O    LYS S   5       6.669 -19.326  39.171  1.00 28.58 LIG-0.27  OA
BRANCH 47 50
ATOM     50  CA  VAL S   6       6.130 -17.962  36.831  1.00 26.91 LIG 0.19  C 
BRANCH 50 51
ATOM     51  C   VAL S   6       6.715 -18.052  35.413  1.00 27.47 LIG 0.20  C 
ATOM     52 O    VAL S   6       6.065 -18.432  34.421  1.00 25.37 LIG-0.65  OA
ATOM     53 OXT  VAL S   6       7.885 -17.684  35.310  1.00 29.74 LIG-0.65  OA
ENDBRANCH 50 51
BRANCH 50 54
ATOM     54  CB  VAL S   6       4.936 -16.976  36.857  1.00 26.80 LIG 0.01  C 
ATOM     55  CG2 VAL S   6       4.345 -16.775  35.450  1.00 26.48 LIG 0.01  C 
ATOM     56  CG1 VAL S   6       5.354 -15.637  37.446  1.00 26.60 LIG 0.01  C 
ENDBRANCH 50 54
ENDBRANCH 47 50
ENDBRANCH 37 46
ENDBRANCH 34 37
ENDBRANCH 1 33
TORSDOF 23
ENDMDL
MODEL 2
USER: ADFR SOLUTION from run 8
USER: SCORE 19.262356 LL:  -5.123 LR: -14.746 RR:   0.000 FEB:  -7.885
USER: RMSD 5.353229
USER: SEED 348904
USER: STATUS no improvement in best in 2 clusters for 5 generations
USER: GENES 25
USER: genes 0 Translation |==|  0.39386 0.42740 0.55142
USER: genes 1 Rotation |==|  0.57264 0.50421 0.24713 0.92516
USER: genes 2 Torsion [C]-CA--N-[C] |==|  0.60369
USER: genes 3 Torsion [N]-C--CA-[N] |==|  0.08685
USER: genes 4 Torsion [C]-CA--N-[C] |==|  0.15872
USER: genes 5 Torsion [N]-C--CA-[N] |==|  0.90205
USER: genes 6 Torsion [C]-CA--CB-[CG] |==|  0.89856
USER: genes 7 Torsion [CA]-CB--CG-[ND2] |==|  0.36418
USER: genes 8 Torsion [C]-CA--CB-[CG] |==|  0.36444
USER: genes 9 Torsion [CA]-CB--CG-[CD] |==|  0.39818
USER: genes 10 Torsion [CB]-CG--CD-[OE1] |==|  0.89170
USER: genes 11 Torsion [N]-CA--CB-[CG] |==|  0.46513
USER: genes 12 Torsion [CA]-CB--CG-[CD1] |==|  0.18071
USER: genes 13 Torsion [CE2]-CZ--OH-[HH] |==|  0.74335
USER: genes 14 Torsion [N]-CA--C-[N] |==|  0.42219
USER: genes 15 Torsion [C]-N--CA-[C] |==|  0.83653
USER: genes 16 Torsion [N]-CA--CB-[CG] |==|  0.48869
USER: genes 17 Torsion [CA]-CB--CG-[CD] |==|  0.55486
USER: genes 18 Torsion [CB]-CG--CD-[CE] |==|  0.54489
USER: genes 19 Torsion [CG]-CD--CE-[NZ] |==|  0.66207
USER: genes 20 Torsion [CD]-CE--NZ-[HZ3] |==|  0.30494
USER: genes 21 Torsion [N]-CA--C-[N] |==|  0.31111
USER: genes 22 Torsion [C]-N--CA-[C] |==|  0.65844
USER: genes 23 Torsion [N]-CA--C-[O] |==|  0.42551
USER: genes 24 Torsion [N]-CA--CB-[CG2] |==|  0.60559
ROOT
ATOM      1  CA  TYR S   4       6.125 -20.007  42.438  1.00 28.42 LIG 0.18  C 
ENDROOT
BRANCH 1 2
ATOM      2  N   TYR S   4       6.353 -19.098  41.330  1.00 30.10 LIG-0.35  N 
ATOM      3 H    TYR S   4       6.724 -18.358  41.562  1.00 30.10 LIG 0.16  HD
ATOM      4  C   GLU S   3       6.024 -19.379  40.077  1.00 31.33 LIG 0.24  C 
ATOM      5 O    GLU S   3       5.428 -20.409  39.746  1.00 31.71 LIG-0.27  OA
BRANCH 4 6
ATOM      6  CA  GLU S   3       6.436 -18.345  39.048  1.00 32.63 LIG 0.18  C 
BRANCH 6 7
ATOM      7  N   GLU S   3       7.679 -17.686  39.483  1.00 32.63 LIG-0.35  N 
ATOM      8  C   ASN S   2       8.762 -18.394  39.729  1.00 33.77 LIG 0.26  C 
ATOM      9 O    ASN S   2       8.762 -19.615  39.746  1.00 34.52 LIG-0.27  OA
ATOM     10 H    GLU S   3       7.628 -16.830  39.556  1.00 32.63 LIG 0.16  HD
BRANCH 8 11
ATOM     11  CA  ASN S   2      10.052 -17.603  39.982  1.00 34.66 LIG 0.41  C 
ATOM     12  N   ASN S   2      10.112 -16.363  39.141  1.00 35.02 LIG 0.61  N 
BRANCH 11 13
ATOM     13  CB  ASN S   2      10.125 -17.280  41.487  1.00 35.18 LIG 0.15  C 
BRANCH 13 14
ATOM     14  CG  ASN S   2       8.757 -16.974  42.101  1.00 37.91 LIG 0.22  C 
ATOM     15 OD1  ASN S   2       7.983 -16.184  41.555  1.00 41.54 LIG-0.27  OA
ATOM     16  ND2 ASN S   2       8.454 -17.616  43.235  1.00 40.23 LIG-0.37  N 
ATOM     17 22HD ASN S   2       9.021 -18.159  43.585  1.00 40.23 LIG 0.16  HD
ATOM     18 21HD ASN S   2       7.693 -17.485  43.613  1.00 40.23 LIG 0.16  HD
ENDBRANCH 13 14
ENDBRANCH 11 13
ENDBRANCH 8 11
ENDBRANCH 6 7
BRANCH 6 19
ATOM     19  CB  GLU S   3       6.592 -18.964  37.663  1.00 32.72 LIG 0.04  C 
BRANCH 19 20
ATOM     20  CG  GLU S   3       5.900 -18.239  36.511  1.00 35.99 LIG 0.12  C 
BRANCH 20 21
ATOM     21  CD  GLU S   3       6.699 -18.271  35.210  1.00 39.18 LIG 0.17  C 
ATOM     22 OE1  GLU S   3       7.941 -18.142  35.293  1.00 41.46 LIG-0.65  OA
ATOM     23 OE2  GLU S   3       6.096 -18.433  34.105  1.00 41.34 LIG-0.65  OA
ENDBRANCH 20 21
ENDBRANCH 19 20
ENDBRANCH 6 19
ENDBRANCH 4 6
ENDBRANCH 1 2
BRANCH 1 24
ATOM     24  CB  TYR S   4       7.390 -20.808  42.683  1.00 28.42 LIG 0.07  C 
BRANCH 24 25
ATOM     25  CG  TYR S   4       7.367 -21.556  43.983  1.00 29.89 LIG-0.06  A 
ATOM     26  CD2 TYR S   4       8.271 -21.256  45.014  1.00 30.34 LIG 0.01  A 
ATOM     27  CE2 TYR S   4       8.238 -21.986  46.222  1.00 32.01 LIG 0.04  A 
ATOM     28  CZ  TYR S   4       7.295 -22.997  46.379  1.00 31.83 LIG 0.07  A 
ATOM     29  CE1 TYR S   4       6.420 -23.290  45.371  1.00 31.31 LIG 0.04  A 
ATOM     30  CD1 TYR S   4       6.454 -22.575  44.189  1.00 30.54 LIG 0.01  A 
BRANCH 28 31
ATOM     31 OH   TYR S   4       7.227 -23.777  47.519  1.00 36.86 LIG-0.36  OA
ATOM     32 HH   TYR S   4       7.689 -24.470  47.412  1.00 36.86 LIG 0.22  HD
ENDBRANCH 28 31
ENDBRANCH 24 25
ENDBRANCH 1 24
BRANCH 1 33
ATOM     33  C   TYR S   4       5.720 -19.192  43.657  1.00 27.93 LIG 0.24  C 
ATOM     34  N   LYS S   5       4.947 -19.809  44.540  1.00 28.19 LIG-0.35  N 
ATOM     35 H    LYS S   5       4.678 -20.620  44.441  1.00 28.19 LIG 0.16  HD
ATOM     36 O    TYR S   4       6.039 -18.009  43.756  1.00 25.57 LIG-0.27  OA
BRANCH 34 37
ATOM     37  CA  LYS S   5       4.471 -19.183  45.771  1.00 28.81 LIG 0.18  C 
BRANCH 37 38
ATOM     38  CB  LYS S   5       3.588 -20.156  46.569  1.00 29.54 LIG 0.04  C 
BRANCH 38 39
ATOM     39  CG  LYS S   5       3.104 -19.644  47.938  1.00 33.24 LIG 0.00  C 
BRANCH 39 40
ATOM     40  CD  LYS S   5       2.666 -20.773  48.857  1.00 37.34 LIG 0.03  C 
BRANCH 40 41
ATOM     41  CE  LYS S   5       1.835 -20.219  50.019  1.00 39.48 LIG 0.23  C 
BRANCH 41 42
ATOM     42  NZ  LYS S   5       2.447 -20.558  51.329  1.00 41.40 LIG-0.08  N 
ATOM     43 HZ2  LYS S   5       3.103 -21.146  51.208  1.00 41.40 LIG 0.27  HD
ATOM     44 HZ1  LYS S   5       1.828 -20.911  51.863  1.00 41.40 LIG 0.27  HD
ATOM     45 HZ3  LYS S   5       2.775 -19.820  51.704  1.00 41.40 LIG 0.27  HD
ENDBRANCH 41 42
ENDBRANCH 40 41
ENDBRANCH 39 40
ENDBRANCH 38 39
ENDBRANCH 37 38
BRANCH 37 46
ATOM     46  C   LYS S   5       5.695 -18.767  46.568  1.00 28.43 LIG 0.24  C 
ATOM     47  N   VAL S   6       5.903 -17.467  46.699  1.00 27.37 LIG-0.34  N 
ATOM     48 H    VAL S   6       5.340 -16.869  46.445  1.00 27.37 LIG 0.16  HD
ATOM     49 O    LYS S   5       6.450 -19.600  47.052  1.00 28.58 LIG-0.27  OA
BRANCH 47 50
ATOM     50  CA  VAL S   6       7.107 -16.928  47.285  1.00 26.91 LIG 0.19  C 
BRANCH 50 51
ATOM     51  C   VAL S   6       6.823 -16.018  48.490  1.00 27.47 LIG 0.20  C 
ATOM     52 O    VAL S   6       7.628 -15.832  49.421  1.00 25.37 LIG-0.65  OA
ATOM     53 OXT  VAL S   6       5.735 -15.443  48.459  1.00 29.74 LIG-0.65  OA
ENDBRANCH 50 51
BRANCH 50 54
ATOM     54  CB  VAL S   6       7.957 -16.175  46.232  1.00 26.80 LIG 0.01  C 
ATOM     55  CG2 VAL S   6       9.462 -16.413  46.453  1.00 26.48 LIG 0.01  C 
ATOM     56  CG1 VAL S   6       7.654 -14.684  46.260  1.00 26.60 LIG 0.01  C 
ENDBRANCH 50 54
ENDBRANCH 47 50
ENDBRANCH 37 46
ENDBRANCH 34 37
ENDBRANCH 1 33
TORSDOF 23
ENDMDL
MODEL 3
USER: ADFR SOLUTION from run 111
USER: SCORE 18.231429 LL:  -4.673 LR: -14.646 RR:   0.000 FEB:  -7.785
USER: RMSD 9.786759
USER: SEED 110
USER: STATUS no improvement in best in 9 clusters for 5 generations
USER: GENES 25
USER: genes 0 Translation |==|  0.39237 0.52105 0.72066
USER: genes 1 Rotation |==|  0.90176 0.59017 0.24957 0.63321
USER: genes 2 Torsion [C]-CA--N-[C] |==|  0.79386
USER: genes 3 Torsion [N]-C--CA-[N] |==|  0.86976
USER: genes 4 Torsion [C]-CA--N-[C] |==|  0.21659
USER: genes 5 Torsion [N]-C--CA-[N] |==|  0.41069
USER: genes 6 Torsion [C]-CA--CB-[CG] |==|  0.96425
USER: genes 7 Torsion [CA]-CB--CG-[ND2] |==|  0.74495
USER: genes 8 Torsion [C]-CA--CB-[CG] |==|  0.09228
USER: genes 9 Torsion [CA]-CB--CG-[CD] |==|  0.71129
USER: genes 10 Torsion [CB]-CG--CD-[OE1] |==|  0.92215
USER: genes 11 Torsion [N]-CA--CB-[CG] |==|  0.72916
USER: genes 12 Torsion [CA]-CB--CG-[CD1] |==|  0.30639
USER: genes 13 Torsion [CE2]-CZ--OH-[HH] |==|  0.55793
USER: genes 14 Torsion [N]-CA--C-[N] |==|  0.22064
USER: genes 15 Torsion [C]-N--CA-[C] |==|  0.84068
USER: genes 16 Torsion [N]-CA--CB-[CG] |==|  0.65020
USER: genes 17 Torsion [CA]-CB--CG-[CD] |==|  0.76499
USER: genes 18 Torsion [CB]-CG--CD-[CE] |==|  0.22012
USER: genes 19 Torsion [CG]-CD--CE-[NZ] |==|  0.14285
USER: genes 20 Torsion [CD]-CE--NZ-[HZ3] |==|  0.28241
USER: genes 21 Torsion [N]-CA--C-[N] |==|  0.36591
USER: genes 22 Torsion [C]-N--CA-[C] |==|  0.62588
USER: genes 23 Torsion [N]-CA--C-[O] |==|  0.46287
USER: genes 24 Torsion [N]-CA--CB-[CG2] |==|  0.12456
ROOT
ATOM      1  CA  TYR S   4       6.094 -18.462  46.500  1.00 28.42 LIG 0.18  C 
ENDROOT
BRANCH 1 2
ATOM      2  N   TYR S   4       7.008 -17.935  47.496  1.00 30.10 LIG-0.35  N 
ATOM      3 H    TYR S   4       7.784 -18.305  47.481  1.00 30.10 LIG 0.16  HD
ATOM      4  C   GLU S   3       6.683 -16.974  48.349  1.00 31.33 LIG 0.24  C 
ATOM      5 O    GLU S   3       5.550 -16.487  48.424  1.00 31.71 LIG-0.27  OA
BRANCH 4 6
ATOM      6  CA  GLU S   3       7.807 -16.490  49.244  1.00 32.63 LIG 0.18  C 
BRANCH 6 7
ATOM      7  N   GLU S   3       8.516 -17.646  49.815  1.00 32.63 LIG-0.35  N 
ATOM      8  C   ASN S   2       9.385 -18.324  49.092  1.00 33.77 LIG 0.26  C 
ATOM      9 O    ASN S   2       9.547 -18.124  47.897  1.00 34.52 LIG-0.27  OA
ATOM     10 H    GLU S   3       8.315 -17.828  50.631  1.00 32.63 LIG 0.16  HD
BRANCH 8 11
ATOM     11  CA  ASN S   2      10.212 -19.382  49.832  1.00 34.66 LIG 0.41  C 
ATOM     12  N   ASN S   2      10.543 -20.544  48.943  1.00 35.02 LIG 0.61  N 
BRANCH 11 13
ATOM     13  CB  ASN S   2      11.480 -18.699  50.380  1.00 35.18 LIG 0.15  C 
BRANCH 13 14
ATOM     14  CG  ASN S   2      11.714 -17.307  49.788  1.00 37.91 LIG 0.22  C 
ATOM     15 OD1  ASN S   2      11.224 -16.306  50.317  1.00 41.54 LIG-0.27  OA
ATOM     16  ND2 ASN S   2      12.479 -17.244  48.693  1.00 40.23 LIG-0.37  N 
ATOM     17 22HD ASN S   2      12.802 -17.965  48.353  1.00 40.23 LIG 0.16  HD
ATOM     18 21HD ASN S   2      12.647 -16.484  48.329  1.00 40.23 LIG 0.16  HD
ENDBRANCH 13 14
ENDBRANCH 11 13
ENDBRANCH 8 11
ENDBRANCH 6 7
BRANCH 6 19
ATOM     19  CB  GLU S   3       8.763 -15.569  48.493  1.00 32.72 LIG 0.04  C 
BRANCH 19 20
ATOM     20  CG  GLU S   3       8.149 -14.686  47.409  1.00 35.99 LIG 0.12  C 
BRANCH 20 21
ATOM     21  CD  GLU S   3       8.429 -15.185  45.993  1.00 39.18 LIG 0.17  C 
ATOM     22 OE1  GLU S   3       9.479 -15.843  45.811  1.00 41.46 LIG-0.65  OA
ATOM     23 OE2  GLU S   3       7.604 -14.935  45.062  1.00 41.34 LIG-0.65  OA
ENDBRANCH 20 21
ENDBRANCH 19 20
ENDBRANCH 6 19
ENDBRANCH 4 6
ENDBRANCH 1 2
BRANCH 1 24
ATOM     24  CB  TYR S   4       6.891 -19.226  45.460  1.00 28.42 LIG 0.07  C 
BRANCH 24 25
ATOM     25  CG  TYR S   4       7.185 -18.411  44.234  1.00 29.89 LIG-0.06  A 
ATOM     26  CD2 TYR S   4       6.172 -18.063  43.328  1.00 30.34 LIG 0.01  A 
ATOM     27  CE2 TYR S   4       6.479 -17.309  42.174  1.00 32.01 LIG 0.04  A 
ATOM     28  CZ  TYR S   4       7.793 -16.911  41.953  1.00 31.83 LIG 0.07  A 
ATOM     29  CE1 TYR S   4       8.779 -17.257  42.835  1.00 31.31 LIG 0.04  A 
ATOM     30  CD1 TYR S   4       8.476 -17.995  43.963  1.00 30.54 LIG 0.01  A 
BRANCH 28 31
ATOM     31 OH   TYR S   4       8.175 -16.203  40.829  1.00 36.86 LIG-0.36  OA
ATOM     32 HH   TYR S   4       9.001 -16.291  40.709  1.00 36.86 LIG 0.22  HD
ENDBRANCH 28 31
ENDBRANCH 24 25
ENDBRANCH 1 24
BRANCH 1 33
ATOM     33  C   TYR S   4       5.072 -19.345  47.199  1.00 27.93 LIG 0.24  C 
ATOM     34  N   LYS S   5       4.078 -18.716  47.810  1.00 28.19 LIG-0.35  N 
ATOM     35 H    LYS S   5       4.004 -17.859  47.824  1.00 28.19 LIG 0.16  HD
ATOM     36 O    TYR S   4       5.224 -20.565  47.247  1.00 25.57 LIG-0.27  OA
BRANCH 34 37
ATOM     37  CA  LYS S   5       3.005 -19.404  48.523  1.00 28.81 LIG 0.18  C 
BRANCH 37 38
ATOM     38  CB  LYS S   5       1.999 -18.395  49.098  1.00 29.54 LIG 0.04  C 
BRANCH 38 39
ATOM     39  CG  LYS S   5       1.723 -18.517  50.607  1.00 33.24 LIG 0.00  C 
BRANCH 39 40
ATOM     40  CD  LYS S   5       0.658 -19.557  50.920  1.00 37.34 LIG 0.03  C 
BRANCH 40 41
ATOM     41  CE  LYS S   5       1.260 -20.964  50.869  1.00 39.48 LIG 0.23  C 
BRANCH 41 42
ATOM     42  NZ  LYS S   5       2.485 -21.057  51.704  1.00 41.40 LIG-0.08  N 
ATOM     43 HZ2  LYS S   5       2.797 -20.240  51.866  1.00 41.40 LIG 0.27  HD
ATOM     44 HZ1  LYS S   5       3.104 -21.530  51.272  1.00 41.40 LIG 0.27  HD
ATOM     45 HZ3  LYS S   5       2.290 -21.458  52.475  1.00 41.40 LIG 0.27  HD
ENDBRANCH 41 42
ENDBRANCH 40 41
ENDBRANCH 39 40
ENDBRANCH 38 39
ENDBRANCH 37 38
BRANCH 37 46
ATOM     46  C   LYS S   5       2.339 -20.347  47.535  1.00 28.43 LIG 0.24  C 
ATOM     47  N   VAL S   6       2.145 -21.591  47.941  1.00 27.37 LIG-0.34  N 
ATOM     48 H    VAL S   6       2.283 -21.853  48.748  1.00 27.37 LIG 0.16  HD
ATOM     49 O    LYS S   5       2.014 -19.967  46.418  1.00 28.58 LIG-0.27  OA
BRANCH 47 50
ATOM     50  CA  VAL S   6       1.677 -22.632  47.057  1.00 26.91 LIG 0.19  C 
BRANCH 50 51
ATOM     51  C   VAL S   6       0.564 -23.485  47.686  1.00 27.47 LIG 0.20  C 
ATOM     52 O    VAL S   6      -0.151 -24.274  47.039  1.00 25.37 LIG-0.65  OA
ATOM     53 OXT  VAL S   6       0.442 -23.362  48.904  1.00 29.74 LIG-0.65  OA
ENDBRANCH 50 51
BRANCH 50 54
ATOM     54  CB  VAL S   6       2.842 -23.535  46.585  1.00 26.80 LIG 0.01  C 
ATOM     55  CG2 VAL S   6       3.768 -23.913  47.755  1.00 26.48 LIG 0.01  C 
ATOM     56  CG1 VAL S   6       3.642 -22.853  45.484  1.00 26.60 LIG 0.01  C 
ENDBRANCH 50 54
ENDBRANCH 47 50
ENDBRANCH 37 46
ENDBRANCH 34 37
ENDBRANCH 1 33
TORSDOF 23
ENDMDL
MODEL 4
USER: ADFR SOLUTION from run 169
USER: SCORE 17.702132 LL:  -5.009 LR: -14.560 RR:   0.000 FEB:  -7.699
USER: RMSD 10.902060
USER: SEED 168
USER: STATUS no improvement in best in 5 clusters for 5 generations
USER: GENES 25
USER: genes 0 Translation |==|  0.45531 0.68718 0.72775
USER: genes 1 Rotation |==|  0.77338 0.74505 0.83808 0.53029
USER: genes 2 Torsion [C]-CA--N-[C] |==|  0.46710
USER: genes 3 Torsion [N]-C--CA-[N] |==|  0.50556
USER: genes 4 Torsion [C]-CA--N-[C] |==|  0.52278
USER: genes 5 Torsion [N]-C--CA-[N] |==|  0.65552
USER: genes 6 Torsion [C]-CA--CB-[CG] |==|  0.54533
USER: genes 7 Torsion [CA]-CB--CG-[ND2] |==|  0.26841
USER: genes 8 Torsion [C]-CA--CB-[CG] |==|  0.22127
USER: genes 9 Torsion [CA]-CB--CG-[CD] |==|  0.11099
USER: genes 10 Torsion [CB]-CG--CD-[OE1] |==|  0.70809
USER: genes 11 Torsion [N]-CA--CB-[CG] |==|  0.20760
USER: genes 12 Torsion [CA]-CB--CG-[CD1] |==|  0.36338
USER: genes 13 Torsion [CE2]-CZ--OH-[HH] |==|  0.84636
USER: genes 14 Torsion [N]-CA--C-[N] |==|  0.94699
USER: genes 15 Torsion [C]-N--CA-[C] |==|  0.78104
USER: genes 16 Torsion [N]-CA--CB-[CG] |==|  0.66853
USER: genes 17 Torsion [CA]-CB--CG-[CD] |==|  0.69027
USER: genes 18 Torsion [CB]-CG--CD-[CE] |==|  0.52420
USER: genes 19 Torsion [CG]-CD--CE-[NZ] |==|  0.62661
USER: genes 20 Torsion [CD]-CE--NZ-[HZ3] |==|  0.34962
USER: genes 21 Torsion [N]-CA--C-[N] |==|  0.97201
USER: genes 22 Torsion [C]-N--CA-[C] |==|  0.58562
USER: genes 23 Torsion [N]-CA--C-[O] |==|  0.50546
USER: genes 24 Torsion [N]-CA--CB-[CG2] |==|  0.01804
ROOT
ATOM      1  CA  TYR S   4       7.415 -15.720  46.670  1.00 28.42 LIG 0.18  C 
ENDROOT
BRANCH 1 2
ATOM      2  N   TYR S   4       6.704 -16.986  46.687  1.00 30.10 LIG-0.35  N 
ATOM      3 H    TYR S   4       7.087 -17.602  46.227  1.00 30.10 LIG 0.16  HD
ATOM      4  C   GLU S   3       5.572 -17.176  47.350  1.00 31.33 LIG 0.24  C 
ATOM      5 O    GLU S   3       4.980 -16.278  47.956  1.00 31.71 LIG-0.27  OA
BRANCH 4 6
ATOM      6  CA  GLU S   3       5.037 -18.595  47.329  1.00 32.63 LIG 0.18  C 
BRANCH 6 7
ATOM      7  N   GLU S   3       3.760 -18.651  48.058  1.00 32.63 LIG-0.35  N 
ATOM      8  C   ASN S   2       3.184 -19.809  48.313  1.00 33.77 LIG 0.26  C 
ATOM      9 O    ASN S   2       3.593 -20.864  47.852  1.00 34.52 LIG-0.27  OA
ATOM     10 H    GLU S   3       3.441 -17.886  48.291  1.00 32.63 LIG 0.16  HD
BRANCH 8 11
ATOM     11  CA  ASN S   2       1.966 -19.775  49.244  1.00 34.66 LIG 0.41  C 
ATOM     12  N   ASN S   2       2.150 -20.681  50.425  1.00 35.02 LIG 0.61  N 
BRANCH 11 13
ATOM     13  CB  ASN S   2       1.733 -18.313  49.673  1.00 35.18 LIG 0.15  C 
BRANCH 13 14
ATOM     14  CG  ASN S   2       0.817 -18.185  50.892  1.00 37.91 LIG 0.22  C 
ATOM     15 OD1  ASN S   2      -0.409 -18.216  50.765  1.00 41.54 LIG-0.27  OA
ATOM     16  ND2 ASN S   2       1.418 -18.058  52.080  1.00 40.23 LIG-0.37  N 
ATOM     17 22HD ASN S   2       2.277 -18.041  52.127  1.00 40.23 LIG 0.16  HD
ATOM     18 21HD ASN S   2       0.947 -17.993  52.796  1.00 40.23 LIG 0.16  HD
ENDBRANCH 13 14
ENDBRANCH 11 13
ENDBRANCH 8 11
ENDBRANCH 6 7
BRANCH 6 19
ATOM     19  CB  GLU S   3       4.885 -19.116  45.903  1.00 32.72 LIG 0.04  C 
BRANCH 19 20
ATOM     20  CG  GLU S   3       6.158 -19.609  45.220  1.00 35.99 LIG 0.12  C 
BRANCH 20 21
ATOM     21  CD  GLU S   3       7.078 -20.396  46.151  1.00 39.18 LIG 0.17  C 
ATOM     22 OE1  GLU S   3       8.112 -19.822  46.560  1.00 41.46 LIG-0.65  OA
ATOM     23 OE2  GLU S   3       6.771 -21.581  46.486  1.00 41.34 LIG-0.65  OA
ENDBRANCH 20 21
ENDBRANCH 19 20
ENDBRANCH 6 19
ENDBRANCH 4 6
ENDBRANCH 1 2
BRANCH 1 24
ATOM     24  CB  TYR S   4       7.492 -15.183  48.086  1.00 28.42 LIG 0.07  C 
BRANCH 24 25
ATOM     25  CG  TYR S   4       8.492 -15.912  48.935  1.00 29.89 LIG-0.06  A 
ATOM     26  CD2 TYR S   4       8.502 -17.313  49.009  1.00 30.34 LIG 0.01  A 
ATOM     27  CE2 TYR S   4       9.445 -17.974  49.828  1.00 32.01 LIG 0.04  A 
ATOM     28  CZ  TYR S   4      10.363 -17.220  50.552  1.00 31.83 LIG 0.07  A 
ATOM     29  CE1 TYR S   4      10.345 -15.856  50.482  1.00 31.31 LIG 0.04  A 
ATOM     30  CD1 TYR S   4       9.423 -15.211  49.680  1.00 30.54 LIG 0.01  A 
BRANCH 28 31
ATOM     31 OH   TYR S   4      11.289 -17.796  51.401  1.00 36.86 LIG-0.36  OA
ATOM     32 HH   TYR S   4      10.893 -18.277  51.964  1.00 36.86 LIG 0.22  HD
ENDBRANCH 28 31
ENDBRANCH 24 25
ENDBRANCH 1 24
BRANCH 1 33
ATOM     33  C   TYR S   4       8.795 -15.948  46.070  1.00 27.93 LIG 0.24  C 
ATOM     34  N   LYS S   5       9.227 -17.201  46.059  1.00 28.19 LIG-0.35  N 
ATOM     35 H    LYS S   5       8.768 -17.857  46.375  1.00 28.19 LIG 0.16  HD
ATOM     36 O    TYR S   4       9.481 -14.998  45.694  1.00 25.57 LIG-0.27  OA
BRANCH 34 37
ATOM     37  CA  LYS S   5      10.521 -17.603  45.515  1.00 28.81 LIG 0.18  C 
BRANCH 37 38
ATOM     38  CB  LYS S   5      10.951 -18.965  46.083  1.00 29.54 LIG 0.04  C 
BRANCH 38 39
ATOM     39  CG  LYS S   5      12.268 -18.968  46.879  1.00 33.24 LIG 0.00  C 
BRANCH 39 40
ATOM     40  CD  LYS S   5      13.376 -19.723  46.164  1.00 37.34 LIG 0.03  C 
BRANCH 40 41
ATOM     41  CE  LYS S   5      14.590 -19.882  47.084  1.00 39.48 LIG 0.23  C 
BRANCH 41 42
ATOM     42  NZ  LYS S   5      15.853 -19.559  46.371  1.00 41.40 LIG-0.08  N 
ATOM     43 HZ2  LYS S   5      15.665 -19.249  45.559  1.00 41.40 LIG 0.27  HD
ATOM     44 HZ1  LYS S   5      16.350 -20.294  46.300  1.00 41.40 LIG 0.27  HD
ATOM     45 HZ3  LYS S   5      16.302 -18.940  46.827  1.00 41.40 LIG 0.27  HD
ENDBRANCH 41 42
ENDBRANCH 40 41
ENDBRANCH 39 40
ENDBRANCH 38 39
ENDBRANCH 37 38
BRANCH 37 46
ATOM     46  C   LYS S   5      10.378 -17.655  44.003  1.00 28.43 LIG 0.24  C 
ATOM     47  N   VAL S   6       9.151 -17.551  43.520  1.00 27.37 LIG-0.34  N 
ATOM     48 H    VAL S   6       8.465 -17.361  44.003  1.00 27.37 LIG 0.16  HD
ATOM     49 O    LYS S   5      11.354 -17.798  43.279  1.00 28.58 LIG-0.27  OA
BRANCH 47 50
ATOM     50  CA  VAL S   6       8.847 -17.748  42.123  1.00 26.91 LIG 0.19  C 
BRANCH 50 51
ATOM     51  C   VAL S   6       7.655 -16.901  41.651  1.00 27.47 LIG 0.20  C 
ATOM     52 O    VAL S   6       7.196 -16.938  40.495  1.00 25.37 LIG-0.65  OA
ATOM     53 OXT  VAL S   6       7.149 -16.190  42.520  1.00 29.74 LIG-0.65  OA
ENDBRANCH 50 51
BRANCH 50 54
ATOM     54  CB  VAL S   6       8.601 -19.243  41.805  1.00 26.80 LIG 0.01  C 
ATOM     55  CG2 VAL S   6       8.587 -20.094  43.089  1.00 26.48 LIG 0.01  C 
ATOM     56  CG1 VAL S   6       9.652 -19.771  40.840  1.00 26.60 LIG 0.01  C 
ENDBRANCH 50 54
ENDBRANCH 47 50
ENDBRANCH 37 46
ENDBRANCH 34 37
ENDBRANCH 1 33
TORSDOF 23
ENDMDL
MODEL 5
USER: ADFR SOLUTION from run 26
USER: SCORE 17.678121 LL:  -4.643 LR: -14.564 RR:   0.000 FEB:  -7.703
USER: RMSD 9.866941
USER: SEED 25
USER: STATUS no improvement in best in 11 clusters for 5 generations
USER: GENES 25
USER: genes 0 Translation |==|  0.48667 0.61357 0.48701
USER: genes 1 Rotation |==|  0.92573 0.75496 0.55124 0.53351
USER: genes 2 Torsion [C]-CA--N-[C] |==|  0.56668
USER: genes 3 Torsion [N]-C--CA-[N] |==|  0.42787
USER: genes 4 Torsion [C]-CA--N-[C] |==|  0.77562
USER: genes 5 Torsion [N]-C--CA-[N] |==|  0.99848
USER: genes 6 Torsion [C]-CA--CB-[CG] |==|  0.75415
USER: genes 7 Torsion [CA]-CB--CG-[ND2] |==|  0.51177
USER: genes 8 Torsion [C]-CA--CB-[CG] |==|  0.55386
USER: genes 9 Torsion [CA]-CB--CG-[CD] |==|  0.24198
USER: genes 10 Torsion [CB]-CG--CD-[OE1] |==|  0.77400
USER: genes 11 Torsion [N]-CA--CB-[CG] |==|  0.18914
USER: genes 12 Torsion [CA]-CB--CG-[CD1] |==|  0.87216
USER: genes 13 Torsion [CE2]-CZ--OH-[HH] |==|  0.72069
USER: genes 14 Torsion [N]-CA--C-[N] |==|  0.52037
USER: genes 15 Torsion [C]-N--CA-[C] |==|  0.20959
USER: genes 16 Torsion [N]-CA--CB-[CG] |==|  0.73142
USER: genes 17 Torsion [CA]-CB--CG-[CD] |==|  0.08346
USER: genes 18 Torsion [CB]-CG--CD-[CE] |==|  0.75621
USER: genes 19 Torsion [CG]-CD--CE-[NZ] |==|  0.45148
USER: genes 20 Torsion [CD]-CE--NZ-[HZ3] |==|  0.23884
USER: genes 21 Torsion [N]-CA--C-[N] |==|  0.27018
USER: genes 22 Torsion [C]-N--CA-[C] |==|  0.60876
USER: genes 23 Torsion [N]-CA--C-[O] |==|  0.59832
USER: genes 24 Torsion [N]-CA--CB-[CG2] |==|  0.00752
ROOT
ATOM      1  CA  TYR S   4       8.074 -16.935  40.892  1.00 28.42 LIG 0.18  C 
ENDROOT
BRANCH 1 2
ATOM      2  N   TYR S   4       7.817 -17.513  42.198  1.00 30.10 LIG-0.35  N 
ATOM      3 H    TYR S   4       8.030 -18.344  42.255  1.00 30.10 LIG 0.16  HD
ATOM      4  C   GLU S   3       7.302 -16.828  43.210  1.00 31.33 LIG 0.24  C 
ATOM      5 O    GLU S   3       6.927 -15.655  43.115  1.00 31.71 LIG-0.27  OA
BRANCH 4 6
ATOM      6  CA  GLU S   3       7.204 -17.581  44.522  1.00 32.63 LIG 0.18  C 
BRANCH 6 7
ATOM      7  N   GLU S   3       7.230 -16.626  45.642  1.00 32.63 LIG-0.35  N 
ATOM      8  C   ASN S   2       8.372 -16.129  46.073  1.00 33.77 LIG 0.26  C 
ATOM      9 O    ASN S   2       9.456 -16.525  45.673  1.00 34.52 LIG-0.27  OA
ATOM     10 H    GLU S   3       6.459 -16.432  45.971  1.00 32.63 LIG 0.16  HD
BRANCH 8 11
ATOM     11  CA  ASN S   2       8.278 -14.999  47.105  1.00 34.66 LIG 0.41  C 
ATOM     12  N   ASN S   2       6.852 -14.660  47.423  1.00 35.02 LIG 0.61  N 
BRANCH 11 13
ATOM     13  CB  ASN S   2       9.059 -15.433  48.361  1.00 35.18 LIG 0.15  C 
BRANCH 13 14
ATOM     14  CG  ASN S   2       8.199 -16.212  49.360  1.00 37.91 LIG 0.22  C 
ATOM     15 OD1  ASN S   2       7.036 -16.517  49.087  1.00 41.54 LIG-0.27  OA
ATOM     16  ND2 ASN S   2       8.783 -16.548  50.515  1.00 40.23 LIG-0.37  N 
ATOM     17 22HD ASN S   2       9.597 -16.317  50.668  1.00 40.23 LIG 0.16  HD
ATOM     18 21HD ASN S   2       8.345 -16.995  51.104  1.00 40.23 LIG 0.16  HD
ENDBRANCH 13 14
ENDBRANCH 11 13
ENDBRANCH 8 11
ENDBRANCH 6 7
BRANCH 6 19
ATOM     19  CB  GLU S   3       5.959 -18.461  44.572  1.00 32.72 LIG 0.04  C 
BRANCH 19 20
ATOM     20  CG  GLU S   3       5.494 -18.904  45.957  1.00 35.99 LIG 0.12  C 
BRANCH 20 21
ATOM     21  CD  GLU S   3       4.560 -17.901  46.631  1.00 39.18 LIG 0.17  C 
ATOM     22 OE1  GLU S   3       5.085 -16.919  47.203  1.00 41.46 LIG-0.65  OA
ATOM     23 OE2  GLU S   3       3.305 -18.080  46.584  1.00 41.34 LIG-0.65  OA
ENDBRANCH 20 21
ENDBRANCH 19 20
ENDBRANCH 6 19
ENDBRANCH 4 6
ENDBRANCH 1 2
BRANCH 1 24
ATOM     24  CB  TYR S   4       9.397 -16.195  40.937  1.00 28.42 LIG 0.07  C 
BRANCH 24 25
ATOM     25  CG  TYR S   4      10.575 -17.111  41.096  1.00 29.89 LIG-0.06  A 
ATOM     26  CD2 TYR S   4      11.720 -16.974  40.295  1.00 30.34 LIG 0.01  A 
ATOM     27  CE2 TYR S   4      12.808 -17.859  40.455  1.00 32.01 LIG 0.04  A 
ATOM     28  CZ  TYR S   4      12.734 -18.860  41.419  1.00 31.83 LIG 0.07  A 
ATOM     29  CE1 TYR S   4      11.616 -18.994  42.192  1.00 31.31 LIG 0.04  A 
ATOM     30  CD1 TYR S   4      10.551 -18.127  42.034  1.00 30.54 LIG 0.01  A 
BRANCH 28 31
ATOM     31 OH   TYR S   4      13.744 -19.784  41.607  1.00 36.86 LIG-0.36  OA
ATOM     32 HH   TYR S   4      13.536 -20.507  41.233  1.00 36.86 LIG 0.22  HD
ENDBRANCH 28 31
ENDBRANCH 24 25
ENDBRANCH 1 24
BRANCH 1 33
ATOM     33  C   TYR S   4       8.079 -18.053  39.860  1.00 27.93 LIG 0.24  C 
ATOM     34  N   LYS S   5       8.450 -17.712  38.634  1.00 28.19 LIG-0.35  N 
ATOM     35 H    LYS S   5       8.672 -16.910  38.418  1.00 28.19 LIG 0.16  HD
ATOM     36 O    TYR S   4       7.683 -19.180  40.153  1.00 25.57 LIG-0.27  OA
BRANCH 34 37
ATOM     37  CA  LYS S   5       8.521 -18.656  37.522  1.00 28.81 LIG 0.18  C 
BRANCH 37 38
ATOM     38  CB  LYS S   5       9.234 -19.949  37.950  1.00 29.54 LIG 0.04  C 
BRANCH 38 39
ATOM     39  CG  LYS S   5      10.732 -20.027  37.605  1.00 33.24 LIG 0.00  C 
BRANCH 39 40
ATOM     40  CD  LYS S   5      11.396 -18.660  37.589  1.00 37.34 LIG 0.03  C 
BRANCH 40 41
ATOM     41  CE  LYS S   5      11.264 -18.022  36.202  1.00 39.48 LIG 0.23  C 
BRANCH 41 42
ATOM     42  NZ  LYS S   5      11.515 -16.559  36.255  1.00 41.40 LIG-0.08  N 
ATOM     43 HZ2  LYS S   5      11.219 -16.234  37.029  1.00 41.40 LIG 0.27  HD
ATOM     44 HZ1  LYS S   5      11.088 -16.160  35.584  1.00 41.40 LIG 0.27  HD
ATOM     45 HZ3  LYS S   5      12.389 -16.405  36.185  1.00 41.40 LIG 0.27  HD
ENDBRANCH 41 42
ENDBRANCH 40 41
ENDBRANCH 39 40
ENDBRANCH 38 39
ENDBRANCH 37 38
BRANCH 37 46
ATOM     46  C   LYS S   5       7.096 -18.933  37.073  1.00 28.43 LIG 0.24  C 
ATOM     47  N   VAL S   6       6.655 -18.239  36.038  1.00 27.37 LIG-0.34  N 
ATOM     48 H    VAL S   6       7.156 -17.728  35.561  1.00 27.37 LIG 0.16  HD
ATOM     49 O    LYS S   5       6.397 -19.752  37.656  1.00 28.58 LIG-0.27  OA
BRANCH 47 50
ATOM     50  CA  VAL S   6       5.277 -18.277  35.607  1.00 26.91 LIG 0.19  C 
BRANCH 50 51
ATOM     51  C   VAL S   6       5.135 -18.277  34.077  1.00 27.47 LIG 0.20  C 
ATOM     52 O    VAL S   6       4.215 -17.701  33.469  1.00 25.37 LIG-0.65  OA
ATOM     53 OXT  VAL S   6       6.030 -18.869  33.474  1.00 29.74 LIG-0.65  OA
ENDBRANCH 50 51
BRANCH 50 54
ATOM     54  CB  VAL S   6       4.463 -17.111  36.221  1.00 26.80 LIG 0.01  C 
ATOM     55  CG2 VAL S   6       5.358 -16.189  37.070  1.00 26.48 LIG 0.01  C 
ATOM     56  CG1 VAL S   6       3.311 -17.641  37.062  1.00 26.60 LIG 0.01  C 
ENDBRANCH 50 54
ENDBRANCH 47 50
ENDBRANCH 37 46
ENDBRANCH 34 37
ENDBRANCH 1 33
TORSDOF 23
ENDMDL
MODEL 6
USER: ADFR SOLUTION from run 115
USER: SCORE 19.091961 LL:  -4.965 LR: -14.540 RR:   0.000 FEB:  -7.679
USER: RMSD 2.367871
USER: SEED 114
USER: STATUS 1 or 2 clusters left
USER: GENES 25
USER: genes 0 Translation |==|  0.51394 0.56274 0.49109
USER: genes 1 Rotation |==|  0.50973 0.51805 0.51148 0.99945
USER: genes 2 Torsion [C]-CA--N-[C] |==|  0.63230
USER: genes 3 Torsion [N]-C--CA-[N] |==|  0.34195
USER: genes 4 Torsion [C]-CA--N-[C] |==|  0.83333
USER: genes 5 Torsion [N]-C--CA-[N] |==|  0.59394
USER: genes 6 Torsion [C]-CA--CB-[CG] |==|  0.80353
USER: genes 7 Torsion [CA]-CB--CG-[ND2] |==|  0.33380
USER: genes 8 Torsion [C]-CA--CB-[CG] |==|  0.46023
USER: genes 9 Torsion [CA]-CB--CG-[CD] |==|  0.26503
USER: genes 10 Torsion [CB]-CG--CD-[OE1] |==|  0.92026
USER: genes 11 Torsion [N]-CA--CB-[CG] |==|  0.74350
USER: genes 12 Torsion [CA]-CB--CG-[CD1] |==|  0.69717
USER: genes 13 Torsion [CE2]-CZ--OH-[HH] |==|  0.05004
USER: genes 14 Torsion [N]-CA--C-[N] |==|  0.36047
USER: genes 15 Torsion [C]-N--CA-[C] |==|  0.72499
USER: genes 16 Torsion [N]-CA--CB-[CG] |==|  0.16274
USER: genes 17 Torsion [CA]-CB--CG-[CD] |==|  0.26526
USER: genes 18 Torsion [CB]-CG--CD-[CE] |==|  0.61732
USER: genes 19 Torsion [CG]-CD--CE-[NZ] |==|  0.53549
USER: genes 20 Torsion [CD]-CE--NZ-[HZ3] |==|  0.41183
USER: genes 21 Torsion [N]-CA--C-[N] |==|  0.36383
USER: genes 22 Torsion [C]-N--CA-[C] |==|  0.58677
USER: genes 23 Torsion [N]-CA--C-[O] |==|  0.97477
USER: genes 24 Torsion [N]-CA--CB-[CG2] |==|  0.11264
ROOT
ATOM      1  CA  TYR S   4       8.647 -17.774  40.990  1.00 28.42 LIG 0.18  C 
ENDROOT
BRANCH 1 2
ATOM      2  N   TYR S   4       8.048 -17.410  39.719  1.00 30.10 LIG-0.35  N 
ATOM      3 H    TYR S   4       7.641 -16.653  39.735  1.00 30.10 LIG 0.16  HD
ATOM      4  C   GLU S   3       8.120 -18.170  38.636  1.00 31.33 LIG 0.24  C 
ATOM      5 O    GLU S   3       8.641 -19.290  38.624  1.00 31.71 LIG-0.27  OA
BRANCH 4 6
ATOM      6  CA  GLU S   3       7.519 -17.570  37.379  1.00 32.63 LIG 0.18  C 
BRANCH 6 7
ATOM      7  N   GLU S   3       8.539 -17.524  36.319  1.00 32.63 LIG-0.35  N 
ATOM      8  C   ASN S   2       9.652 -16.838  36.489  1.00 33.77 LIG 0.26  C 
ATOM      9 O    ASN S   2       9.836 -16.109  37.451  1.00 34.52 LIG-0.27  OA
ATOM     10 H    GLU S   3       8.344 -17.970  35.609  1.00 32.63 LIG 0.16  HD
BRANCH 8 11
ATOM     11  CA  ASN S   2      10.731 -17.013  35.414  1.00 34.66 LIG 0.41  C 
ATOM     12  N   ASN S   2      12.110 -16.928  35.999  1.00 35.02 LIG 0.61  N 
BRANCH 11 13
ATOM     13  CB  ASN S   2      10.489 -18.361  34.708  1.00 35.18 LIG 0.15  C 
BRANCH 13 14
ATOM     14  CG  ASN S   2      10.812 -19.567  35.594  1.00 37.91 LIG 0.22  C 
ATOM     15 OD1  ASN S   2      11.943 -19.722  36.060  1.00 41.54 LIG-0.27  OA
ATOM     16  ND2 ASN S   2       9.806 -20.414  35.839  1.00 40.23 LIG-0.37  N 
ATOM     17 22HD ASN S   2       9.031 -20.271  35.495  1.00 40.23 LIG 0.16  HD
ATOM     18 21HD ASN S   2       9.935 -21.101  36.339  1.00 40.23 LIG 0.16  HD
ENDBRANCH 13 14
ENDBRANCH 11 13
ENDBRANCH 8 11
ENDBRANCH 6 7
BRANCH 6 19
ATOM     19  CB  GLU S   3       6.283 -18.340  36.926  1.00 32.72 LIG 0.04  C 
BRANCH 19 20
ATOM     20  CG  GLU S   3       5.396 -17.655  35.889  1.00 35.99 LIG 0.12  C 
BRANCH 20 21
ATOM     21  CD  GLU S   3       5.707 -18.079  34.455  1.00 39.18 LIG 0.17  C 
ATOM     22 OE1  GLU S   3       6.880 -18.434  34.200  1.00 41.46 LIG-0.65  OA
ATOM     23 OE2  GLU S   3       4.787 -18.070  33.582  1.00 41.34 LIG-0.65  OA
ENDBRANCH 20 21
ENDBRANCH 19 20
ENDBRANCH 6 19
ENDBRANCH 4 6
ENDBRANCH 1 2
BRANCH 1 24
ATOM     24  CB  TYR S   4       9.892 -16.933  41.202  1.00 28.42 LIG 0.07  C 
BRANCH 24 25
ATOM     25  CG  TYR S   4      11.139 -17.599  40.700  1.00 29.89 LIG-0.06  A 
ATOM     26  CD2 TYR S   4      11.377 -17.763  39.327  1.00 30.34 LIG 0.01  A 
ATOM     27  CE2 TYR S   4      12.552 -18.406  38.881  1.00 32.01 LIG 0.04  A 
ATOM     28  CZ  TYR S   4      13.471 -18.867  39.818  1.00 31.83 LIG 0.07  A 
ATOM     29  CE1 TYR S   4      13.233 -18.712  41.155  1.00 31.31 LIG 0.04  A 
ATOM     30  CD1 TYR S   4      12.083 -18.082  41.589  1.00 30.54 LIG 0.01  A 
BRANCH 28 31
ATOM     31 OH   TYR S   4      14.625 -19.538  39.458  1.00 36.86 LIG-0.36  OA
ATOM     32 HH   TYR S   4      14.789 -19.398  38.646  1.00 36.86 LIG 0.22  HD
ENDBRANCH 28 31
ENDBRANCH 24 25
ENDBRANCH 1 24
BRANCH 1 33
ATOM     33  C   TYR S   4       7.618 -17.559  42.090  1.00 27.93 LIG 0.24  C 
ATOM     34  N   LYS S   5       7.434 -18.573  42.923  1.00 28.19 LIG-0.35  N 
ATOM     35 H    LYS S   5       7.860 -19.318  42.855  1.00 28.19 LIG 0.16  HD
ATOM     36 O    TYR S   4       6.953 -16.525  42.135  1.00 25.57 LIG-0.27  OA
BRANCH 34 37
ATOM     37  CA  LYS S   5       6.494 -18.539  44.040  1.00 28.81 LIG 0.18  C 
BRANCH 37 38
ATOM     38  CB  LYS S   5       5.753 -19.880  44.169  1.00 29.54 LIG 0.04  C 
BRANCH 38 39
ATOM     39  CG  LYS S   5       6.646 -21.116  44.380  1.00 33.24 LIG 0.00  C 
BRANCH 39 40
ATOM     40  CD  LYS S   5       6.791 -21.482  45.849  1.00 37.34 LIG 0.03  C 
BRANCH 40 41
ATOM     41  CE  LYS S   5       8.243 -21.856  46.161  1.00 39.48 LIG 0.23  C 
BRANCH 41 42
ATOM     42  NZ  LYS S   5       8.357 -22.505  47.493  1.00 41.40 LIG-0.08  N 
ATOM     43 HZ2  LYS S   5       7.596 -22.922  47.687  1.00 41.40 LIG 0.27  HD
ATOM     44 HZ1  LYS S   5       8.522 -21.886  48.112  1.00 41.40 LIG 0.27  HD
ATOM     45 HZ3  LYS S   5       9.023 -23.095  47.480  1.00 41.40 LIG 0.27  HD
ENDBRANCH 41 42
ENDBRANCH 40 41
ENDBRANCH 39 40
ENDBRANCH 38 39
ENDBRANCH 37 38
BRANCH 37 46
ATOM     46  C   LYS S   5       7.295 -18.228  45.294  1.00 28.43 LIG 0.24  C 
ATOM     47  N   VAL S   6       6.830 -17.265  46.070  1.00 27.37 LIG-0.34  N 
ATOM     48 H    VAL S   6       6.066 -16.888  45.952  1.00 27.37 LIG 0.16  HD
ATOM     49 O    LYS S   5       8.323 -18.838  45.556  1.00 28.58 LIG-0.27  OA
BRANCH 47 50
ATOM     50  CA  VAL S   6       7.568 -16.752  47.200  1.00 26.91 LIG 0.19  C 
BRANCH 50 51
ATOM     51  C   VAL S   6       6.653 -16.271  48.336  1.00 27.47 LIG 0.20  C 
ATOM     52 O    VAL S   6       5.417 -16.165  48.230  1.00 25.37 LIG-0.65  OA
ATOM     53 OXT  VAL S   6       7.229 -16.022  49.395  1.00 29.74 LIG-0.65  OA
ENDBRANCH 50 51
BRANCH 50 54
ATOM     54  CB  VAL S   6       8.534 -15.619  46.773  1.00 26.80 LIG 0.01  C 
ATOM     55  CG2 VAL S   6       7.880 -14.684  45.740  1.00 26.48 LIG 0.01  C 
ATOM     56  CG1 VAL S   6       9.828 -16.194  46.213  1.00 26.60 LIG 0.01  C 
ENDBRANCH 50 54
ENDBRANCH 47 50
ENDBRANCH 37 46
ENDBRANCH 34 37
ENDBRANCH 1 33
TORSDOF 23
ENDMDL
MODEL 7
USER: ADFR SOLUTION from run 149
USER: SCORE 18.545838 LL:  -4.822 LR: -14.519 RR:   0.000 FEB:  -7.658
USER: RMSD 10.162677
USER: SEED 148
USER: STATUS no improvement in best in 3 clusters for 5 generations
USER: GENES 25
USER: genes 0 Translation |==|  0.36398 0.55102 0.72370
USER: genes 1 Rotation |==|  0.92913 0.51600 0.26352 0.59831
USER: genes 2 Torsion [C]-CA--N-[C] |==|  0.70804
USER: genes 3 Torsion [N]-C--CA-[N] |==|  0.03889
USER: genes 4 Torsion [C]-CA--N-[C] |==|  0.17926
USER: genes 5 Torsion [N]-C--CA-[N] |==|  0.62046
USER: genes 6 Torsion [C]-CA--CB-[CG] |==|  0.46672
USER: genes 7 Torsion [CA]-CB--CG-[ND2] |==|  0.58965
USER: genes 8 Torsion [C]-CA--CB-[CG] |==|  0.49397
USER: genes 9 Torsion [CA]-CB--CG-[CD] |==|  0.19926
USER: genes 10 Torsion [CB]-CG--CD-[OE1] |==|  0.13180
USER: genes 11 Torsion [N]-CA--CB-[CG] |==|  0.69302
USER: genes 12 Torsion [CA]-CB--CG-[CD1] |==|  0.14205
USER: genes 13 Torsion [CE2]-CZ--OH-[HH] |==|  0.27570
USER: genes 14 Torsion [N]-CA--C-[N] |==|  0.86300
USER: genes 15 Torsion [C]-N--CA-[C] |==|  0.18549
USER: genes 16 Torsion [N]-CA--CB-[CG] |==|  0.48814
USER: genes 17 Torsion [CA]-CB--CG-[CD] |==|  0.27603
USER: genes 18 Torsion [CB]-CG--CD-[CE] |==|  0.73332
USER: genes 19 Torsion [CG]-CD--CE-[NZ] |==|  0.28327
USER: genes 20 Torsion [CD]-CE--NZ-[HZ3] |==|  0.43523
USER: genes 21 Torsion [N]-CA--C-[N] |==|  0.05145
USER: genes 22 Torsion [C]-N--CA-[C] |==|  0.56939
USER: genes 23 Torsion [N]-CA--C-[O] |==|  0.40569
USER: genes 24 Torsion [N]-CA--CB-[CG2] |==|  0.73856
ROOT
ATOM      1  CA  TYR S   4       5.498 -17.967  46.573  1.00 28.42 LIG 0.18  C 
ENDROOT
BRANCH 1 2
ATOM      2  N   TYR S   4       6.368 -17.727  47.709  1.00 30.10 LIG-0.35  N 
ATOM      3 H    TYR S   4       6.681 -18.446  48.061  1.00 30.10 LIG 0.16  HD
ATOM      4  C   GLU S   3       6.656 -16.516  48.164  1.00 31.33 LIG 0.24  C 
ATOM      5 O    GLU S   3       6.155 -15.483  47.709  1.00 31.71 LIG-0.27  OA
BRANCH 4 6
ATOM      6  CA  GLU S   3       7.664 -16.469  49.295  1.00 32.63 LIG 0.18  C 
BRANCH 6 7
ATOM      7  N   GLU S   3       8.343 -17.770  49.406  1.00 32.63 LIG-0.35  N 
ATOM      8  C   ASN S   2       9.108 -18.212  48.427  1.00 33.77 LIG 0.26  C 
ATOM      9 O    ASN S   2       9.185 -17.649  47.345  1.00 34.52 LIG-0.27  OA
ATOM     10 H    GLU S   3       8.197 -18.194  50.140  1.00 32.63 LIG 0.16  HD
BRANCH 8 11
ATOM     11  CA  ASN S   2       9.923 -19.478  48.717  1.00 34.66 LIG 0.41  C 
ATOM     12  N   ASN S   2      11.328 -19.356  48.206  1.00 35.02 LIG 0.61  N 
BRANCH 11 13
ATOM     13  CB  ASN S   2       9.885 -19.733  50.236  1.00 35.18 LIG 0.15  C 
BRANCH 13 14
ATOM     14  CG  ASN S   2      10.412 -21.117  50.624  1.00 37.91 LIG 0.22  C 
ATOM     15 OD1  ASN S   2      11.316 -21.651  49.978  1.00 41.54 LIG-0.27  OA
ATOM     16  ND2 ASN S   2       9.852 -21.690  51.695  1.00 40.23 LIG-0.37  N 
ATOM     17 22HD ASN S   2       9.223 -21.285  52.119  1.00 40.23 LIG 0.16  HD
ATOM     18 21HD ASN S   2      10.121 -22.463  51.959  1.00 40.23 LIG 0.16  HD
ENDBRANCH 13 14
ENDBRANCH 11 13
ENDBRANCH 8 11
ENDBRANCH 6 7
BRANCH 6 19
ATOM     19  CB  GLU S   3       8.667 -15.335  49.105  1.00 32.72 LIG 0.04  C 
BRANCH 19 20
ATOM     20  CG  GLU S   3       9.705 -15.152  50.209  1.00 35.99 LIG 0.12  C 
BRANCH 20 21
ATOM     21  CD  GLU S   3      10.764 -16.252  50.231  1.00 39.18 LIG 0.17  C 
ATOM     22 OE1  GLU S   3      11.298 -16.559  49.141  1.00 41.46 LIG-0.65  OA
ATOM     23 OE2  GLU S   3      11.076 -16.805  51.329  1.00 41.34 LIG-0.65  OA
ENDBRANCH 20 21
ENDBRANCH 19 20
ENDBRANCH 6 19
ENDBRANCH 4 6
ENDBRANCH 1 2
BRANCH 1 24
ATOM     24  CB  TYR S   4       6.168 -18.962  45.644  1.00 28.42 LIG 0.07  C 
BRANCH 24 25
ATOM     25  CG  TYR S   4       6.611 -18.347  44.349  1.00 29.89 LIG-0.06  A 
ATOM     26  CD2 TYR S   4       6.277 -18.926  43.115  1.00 30.34 LIG 0.01  A 
ATOM     27  CE2 TYR S   4       6.719 -18.335  41.911  1.00 32.01 LIG 0.04  A 
ATOM     28  CZ  TYR S   4       7.481 -17.172  41.964  1.00 31.83 LIG 0.07  A 
ATOM     29  CE1 TYR S   4       7.809 -16.615  43.168  1.00 31.31 LIG 0.04  A 
ATOM     30  CD1 TYR S   4       7.375 -17.194  44.345  1.00 30.54 LIG 0.01  A 
BRANCH 28 31
ATOM     31 OH   TYR S   4       7.979 -16.559  40.830  1.00 36.86 LIG-0.36  OA
ATOM     32 HH   TYR S   4       7.482 -15.915  40.618  1.00 36.86 LIG 0.22  HD
ENDBRANCH 28 31
ENDBRANCH 24 25
ENDBRANCH 1 24
BRANCH 1 33
ATOM     33  C   TYR S   4       4.160 -18.477  47.086  1.00 27.93 LIG 0.24  C 
ATOM     34  N   LYS S   5       4.212 -19.474  47.959  1.00 28.19 LIG-0.35  N 
ATOM     35 H    LYS S   5       4.950 -19.825  48.224  1.00 28.19 LIG 0.16  HD
ATOM     36 O    TYR S   4       3.104 -18.028  46.643  1.00 25.57 LIG-0.27  OA
BRANCH 34 37
ATOM     37  CA  LYS S   5       3.028 -20.081  48.561  1.00 28.81 LIG 0.18  C 
BRANCH 37 38
ATOM     38  CB  LYS S   5       2.155 -19.013  49.241  1.00 29.54 LIG 0.04  C 
BRANCH 38 39
ATOM     39  CG  LYS S   5       0.823 -19.517  49.825  1.00 33.24 LIG 0.00  C 
BRANCH 39 40
ATOM     40  CD  LYS S   5       0.900 -19.752  51.325  1.00 37.34 LIG 0.03  C 
BRANCH 40 41
ATOM     41  CE  LYS S   5       1.192 -21.227  51.617  1.00 39.48 LIG 0.23  C 
BRANCH 41 42
ATOM     42  NZ  LYS S   5       2.619 -21.434  51.974  1.00 41.40 LIG-0.08  N 
ATOM     43 HZ2  LYS S   5       2.909 -20.743  52.454  1.00 41.40 LIG 0.27  HD
ATOM     44 HZ1  LYS S   5       3.104 -21.502  51.230  1.00 41.40 LIG 0.27  HD
ATOM     45 HZ3  LYS S   5       2.701 -22.181  52.451  1.00 41.40 LIG 0.27  HD
ENDBRANCH 41 42
ENDBRANCH 40 41
ENDBRANCH 39 40
ENDBRANCH 38 39
ENDBRANCH 37 38
BRANCH 37 46
ATOM     46  C   LYS S   5       2.270 -20.789  47.451  1.00 28.43 LIG 0.24  C 
ATOM     47  N   VAL S   6       2.947 -21.054  46.346  1.00 27.37 LIG-0.34  N 
ATOM     48 H    VAL S   6       3.796 -20.936  46.270  1.00 27.37 LIG 0.16  HD
ATOM     49 O    LYS S   5       1.089 -21.086  47.579  1.00 28.58 LIG-0.27  OA
BRANCH 47 50
ATOM     50  CA  VAL S   6       2.318 -21.571  45.154  1.00 26.91 LIG 0.19  C 
BRANCH 50 51
ATOM     51  C   VAL S   6       3.294 -22.353  44.262  1.00 27.47 LIG 0.20  C 
ATOM     52 O    VAL S   6       2.967 -23.343  43.582  1.00 25.37 LIG-0.65  OA
ATOM     53 OXT  VAL S   6       4.442 -21.908  44.235  1.00 29.74 LIG-0.65  OA
ENDBRANCH 50 51
BRANCH 50 54
ATOM     54  CB  VAL S   6       1.637 -20.442  44.342  1.00 26.80 LIG 0.01  C 
ATOM     55  CG2 VAL S   6       0.147 -20.310  44.708  1.00 26.48 LIG 0.01  C 
ATOM     56  CG1 VAL S   6       1.789 -20.684  42.847  1.00 26.60 LIG 0.01  C 
ENDBRANCH 50 54
ENDBRANCH 47 50
ENDBRANCH 37 46
ENDBRANCH 34 37
ENDBRANCH 1 33
TORSDOF 23
ENDMDL
MODEL 8
USER: ADFR SOLUTION from run 46
USER: SCORE 20.166566 LL:  -6.181 LR: -14.462 RR:   0.000 FEB:  -7.601
USER: RMSD 3.379762
USER: SEED 45
USER: STATUS 1 or 2 clusters left
USER: GENES 25
USER: genes 0 Translation |==|  0.50215 0.53291 0.49228
USER: genes 1 Rotation |==|  0.54583 0.49735 0.43132 0.99313
USER: genes 2 Torsion [C]-CA--N-[C] |==|  0.69166
USER: genes 3 Torsion [N]-C--CA-[N] |==|  0.28647
USER: genes 4 Torsion [C]-CA--N-[C] |==|  0.77062
USER: genes 5 Torsion [N]-C--CA-[N] |==|  0.79586
USER: genes 6 Torsion [C]-CA--CB-[CG] |==|  0.31337
USER: genes 7 Torsion [CA]-CB--CG-[ND2] |==|  0.96412
USER: genes 8 Torsion [C]-CA--CB-[CG] |==|  0.77514
USER: genes 9 Torsion [CA]-CB--CG-[CD] |==|  0.74688
USER: genes 10 Torsion [CB]-CG--CD-[OE1] |==|  0.74508
USER: genes 11 Torsion [N]-CA--CB-[CG] |==|  0.45317
USER: genes 12 Torsion [CA]-CB--CG-[CD1] |==|  0.71679
USER: genes 13 Torsion [CE2]-CZ--OH-[HH] |==|  0.71670
USER: genes 14 Torsion [N]-CA--C-[N] |==|  0.40710
USER: genes 15 Torsion [C]-N--CA-[C] |==|  0.72304
USER: genes 16 Torsion [N]-CA--CB-[CG] |==|  0.46078
USER: genes 17 Torsion [CA]-CB--CG-[CD] |==|  0.17442
USER: genes 18 Torsion [CB]-CG--CD-[CE] |==|  0.59421
USER: genes 19 Torsion [CG]-CD--CE-[NZ] |==|  0.09653
USER: genes 20 Torsion [CD]-CE--NZ-[HZ3] |==|  0.69574
USER: genes 21 Torsion [N]-CA--C-[N] |==|  0.34066
USER: genes 22 Torsion [C]-N--CA-[C] |==|  0.66344
USER: genes 23 Torsion [N]-CA--C-[O] |==|  0.42903
USER: genes 24 Torsion [N]-CA--CB-[CG2] |==|  0.36421
ROOT
ATOM      1  CA  TYR S   4       8.399 -18.266  41.019  1.00 28.42 LIG 0.18  C 
ENDROOT
BRANCH 1 2
ATOM      2  N   TYR S   4       8.067 -17.576  39.786  1.00 30.10 LIG-0.35  N 
ATOM      3 H    TYR S   4       8.203 -16.728  39.818  1.00 30.10 LIG 0.16  HD
ATOM      4  C   GLU S   3       7.598 -18.191  38.710  1.00 31.33 LIG 0.24  C 
ATOM      5 O    GLU S   3       7.332 -19.397  38.678  1.00 31.71 LIG-0.27  OA
BRANCH 4 6
ATOM      6  CA  GLU S   3       7.408 -17.313  37.488  1.00 32.63 LIG 0.18  C 
BRANCH 6 7
ATOM      7  N   GLU S   3       8.504 -17.551  36.535  1.00 32.63 LIG-0.35  N 
ATOM      8  C   ASN S   2       9.665 -16.945  36.684  1.00 33.77 LIG 0.26  C 
ATOM      9 O    ASN S   2       9.850 -16.070  37.517  1.00 34.52 LIG-0.27  OA
ATOM     10 H    GLU S   3       8.320 -18.101  35.900  1.00 32.63 LIG 0.16  HD
BRANCH 8 11
ATOM     11  CA  ASN S   2      10.800 -17.406  35.761  1.00 34.66 LIG 0.41  C 
ATOM     12  N   ASN S   2      11.326 -18.751  36.165  1.00 35.02 LIG 0.61  N 
BRANCH 11 13
ATOM     13  CB  ASN S   2      10.267 -17.408  34.315  1.00 35.18 LIG 0.15  C 
BRANCH 13 14
ATOM     14  CG  ASN S   2      10.931 -16.350  33.431  1.00 37.91 LIG 0.22  C 
ATOM     15 OD1  ASN S   2      10.782 -16.367  32.207  1.00 41.54 LIG-0.27  OA
ATOM     16  ND2 ASN S   2      11.654 -15.416  34.059  1.00 40.23 LIG-0.37  N 
ATOM     17 22HD ASN S   2      11.735 -15.438  34.914  1.00 40.23 LIG 0.16  HD
ATOM     18 21HD ASN S   2      12.039 -14.794  33.607  1.00 40.23 LIG 0.16  HD
ENDBRANCH 13 14
ENDBRANCH 11 13
ENDBRANCH 8 11
ENDBRANCH 6 7
BRANCH 6 19
ATOM     19  CB  GLU S   3       6.048 -17.543  36.838  1.00 32.72 LIG 0.04  C 
BRANCH 19 20
ATOM     20  CG  GLU S   3       5.929 -18.757  35.920  1.00 35.99 LIG 0.12  C 
BRANCH 20 21
ATOM     21  CD  GLU S   3       6.245 -18.443  34.459  1.00 39.18 LIG 0.17  C 
ATOM     22 OE1  GLU S   3       5.289 -18.117  33.720  1.00 41.46 LIG-0.65  OA
ATOM     23 OE2  GLU S   3       7.442 -18.511  34.045  1.00 41.34 LIG-0.65  OA
ENDBRANCH 20 21
ENDBRANCH 19 20
ENDBRANCH 6 19
ENDBRANCH 4 6
ENDBRANCH 1 2
BRANCH 1 24
ATOM     24  CB  TYR S   4       9.820 -17.910  41.411  1.00 28.42 LIG 0.07  C 
BRANCH 24 25
ATOM     25  CG  TYR S   4      10.130 -18.230  42.843  1.00 29.89 LIG-0.06  A 
ATOM     26  CD2 TYR S   4      10.391 -19.546  43.257  1.00 30.34 LIG 0.01  A 
ATOM     27  CE2 TYR S   4      10.665 -19.823  44.615  1.00 32.01 LIG 0.04  A 
ATOM     28  CZ  TYR S   4      10.679 -18.777  45.531  1.00 31.83 LIG 0.07  A 
ATOM     29  CE1 TYR S   4      10.417 -17.498  45.127  1.00 31.31 LIG 0.04  A 
ATOM     30  CD1 TYR S   4      10.150 -17.229  43.798  1.00 30.54 LIG 0.01  A 
BRANCH 28 31
ATOM     31 OH   TYR S   4      10.902 -18.977  46.881  1.00 36.86 LIG-0.36  OA
ATOM     32 HH   TYR S   4      10.172 -18.944  47.294  1.00 36.86 LIG 0.22  HD
ENDBRANCH 28 31
ENDBRANCH 24 25
ENDBRANCH 1 24
BRANCH 1 33
ATOM     33  C   TYR S   4       7.394 -17.862  42.086  1.00 27.93 LIG 0.24  C 
ATOM     34  N   LYS S   5       7.082 -18.794  42.976  1.00 28.19 LIG-0.35  N 
ATOM     35 H    LYS S   5       7.416 -19.587  42.960  1.00 28.19 LIG 0.16  HD
ATOM     36 O    TYR S   4       6.857 -16.756  42.058  1.00 25.57 LIG-0.27  OA
BRANCH 34 37
ATOM     37  CA  LYS S   5       6.142 -18.579  44.073  1.00 28.81 LIG 0.18  C 
BRANCH 37 38
ATOM     38  CB  LYS S   5       5.233 -19.804  44.259  1.00 29.54 LIG 0.04  C 
BRANCH 38 39
ATOM     39  CG  LYS S   5       4.438 -19.849  45.577  1.00 33.24 LIG 0.00  C 
BRANCH 39 40
ATOM     40  CD  LYS S   5       3.462 -18.691  45.704  1.00 37.34 LIG 0.03  C 
BRANCH 40 41
ATOM     41  CE  LYS S   5       3.339 -18.259  47.169  1.00 39.48 LIG 0.23  C 
BRANCH 41 42
ATOM     42  NZ  LYS S   5       4.634 -18.401  47.883  1.00 41.40 LIG-0.08  N 
ATOM     43 HZ2  LYS S   5       4.816 -17.648  48.320  1.00 41.40 LIG 0.27  HD
ATOM     44 HZ1  LYS S   5       5.281 -18.567  47.295  1.00 41.40 LIG 0.27  HD
ATOM     45 HZ3  LYS S   5       4.581 -19.074  48.463  1.00 41.40 LIG 0.27  HD
ENDBRANCH 41 42
ENDBRANCH 40 41
ENDBRANCH 39 40
ENDBRANCH 38 39
ENDBRANCH 37 38
BRANCH 37 46
ATOM     46  C   LYS S   5       6.964 -18.306  45.322  1.00 28.43 LIG 0.24  C 
ATOM     47  N   VAL S   6       6.732 -17.162  45.945  1.00 27.37 LIG-0.34  N 
ATOM     48 H    VAL S   6       6.089 -16.630  45.737  1.00 27.37 LIG 0.16  HD
ATOM     49 O    LYS S   5       7.801 -19.106  45.717  1.00 28.58 LIG-0.27  OA
BRANCH 47 50
ATOM     50  CA  VAL S   6       7.547 -16.697  47.042  1.00 26.91 LIG 0.19  C 
BRANCH 50 51
ATOM     51  C   VAL S   6       6.736 -16.478  48.329  1.00 27.47 LIG 0.20  C 
ATOM     52 O    VAL S   6       7.227 -16.531  49.472  1.00 25.37 LIG-0.65  OA
ATOM     53 OXT  VAL S   6       5.549 -16.206  48.154  1.00 29.74 LIG-0.65  OA
ENDBRANCH 50 51
BRANCH 50 54
ATOM     54  CB  VAL S   6       8.315 -15.406  46.666  1.00 26.80 LIG 0.01  C 
ATOM     55  CG2 VAL S   6       8.155 -14.323  47.749  1.00 26.48 LIG 0.01  C 
ATOM     56  CG1 VAL S   6       7.847 -14.872  45.320  1.00 26.60 LIG 0.01  C 
ENDBRANCH 50 54
ENDBRANCH 47 50
ENDBRANCH 37 46
ENDBRANCH 34 37
ENDBRANCH 1 33
TORSDOF 23
ENDMDL
MODEL 9
USER: ADFR SOLUTION from run 194
USER: SCORE 18.584099 LL:  -5.146 LR: -14.440 RR:   0.000 FEB:  -7.579
USER: RMSD 9.401538
USER: SEED 193
USER: STATUS no improvement in best in 6 clusters for 5 generations
USER: GENES 25
USER: genes 0 Translation |==|  0.47704 0.65068 0.63378
USER: genes 1 Rotation |==|  0.05460 0.40038 0.30193 0.54960
USER: genes 2 Torsion [C]-CA--N-[C] |==|  0.16235
USER: genes 3 Torsion [N]-C--CA-[N] |==|  0.48874
USER: genes 4 Torsion [C]-CA--N-[C] |==|  0.57792
USER: genes 5 Torsion [N]-C--CA-[N] |==|  0.74708
USER: genes 6 Torsion [C]-CA--CB-[CG] |==|  0.15936
USER: genes 7 Torsion [CA]-CB--CG-[ND2] |==|  0.58150
USER: genes 8 Torsion [C]-CA--CB-[CG] |==|  0.23975
USER: genes 9 Torsion [CA]-CB--CG-[CD] |==|  0.68349
USER: genes 10 Torsion [CB]-CG--CD-[OE1] |==|  0.80227
USER: genes 11 Torsion [N]-CA--CB-[CG] |==|  0.85235
USER: genes 12 Torsion [CA]-CB--CG-[CD1] |==|  0.81957
USER: genes 13 Torsion [CE2]-CZ--OH-[HH] |==|  0.99198
USER: genes 14 Torsion [N]-CA--C-[N] |==|  0.65952
USER: genes 15 Torsion [C]-N--CA-[C] |==|  0.82691
USER: genes 16 Torsion [N]-CA--CB-[CG] |==|  0.59886
USER: genes 17 Torsion [CA]-CB--CG-[CD] |==|  0.77451
USER: genes 18 Torsion [CB]-CG--CD-[CE] |==|  0.25356
USER: genes 19 Torsion [CG]-CD--CE-[NZ] |==|  0.08233
USER: genes 20 Torsion [CD]-CE--NZ-[HZ3] |==|  0.17792
USER: genes 21 Torsion [N]-CA--C-[N] |==|  0.32821
USER: genes 22 Torsion [C]-N--CA-[C] |==|  0.57699
USER: genes 23 Torsion [N]-CA--C-[O] |==|  0.89873
USER: genes 24 Torsion [N]-CA--CB-[CG2] |==|  0.80210
ROOT
ATOM      1  CA  TYR S   4       7.872 -16.323  44.415  1.00 28.42 LIG 0.18  C 
ENDROOT
BRANCH 1 2
ATOM      2  N   TYR S   4       6.839 -17.205  44.926  1.00 30.10 LIG-0.35  N 
ATOM      3 H    TYR S   4       6.190 -16.791  45.307  1.00 30.10 LIG 0.16  HD
ATOM      4  C   GLU S   3       6.890 -18.526  44.819  1.00 31.33 LIG 0.24  C 
ATOM      5 O    GLU S   3       7.853 -19.132  44.337  1.00 31.71 LIG-0.27  OA
BRANCH 4 6
ATOM      6  CA  GLU S   3       5.668 -19.267  45.325  1.00 32.63 LIG 0.18  C 
BRANCH 6 7
ATOM      7  N   GLU S   3       5.819 -20.706  45.057  1.00 32.63 LIG-0.35  N 
ATOM      8  C   ASN S   2       4.759 -21.470  44.879  1.00 33.77 LIG 0.26  C 
ATOM      9 O    ASN S   2       3.619 -21.067  45.059  1.00 34.52 LIG-0.27  OA
ATOM     10 H    GLU S   3       6.632 -20.987  45.029  1.00 32.63 LIG 0.16  HD
BRANCH 8 11
ATOM     11  CA  ASN S   2       5.023 -22.906  44.413  1.00 34.66 LIG 0.41  C 
ATOM     12  N   ASN S   2       5.014 -23.010  42.916  1.00 35.02 LIG 0.61  N 
BRANCH 11 13
ATOM     13  CB  ASN S   2       6.367 -23.363  45.012  1.00 35.18 LIG 0.15  C 
BRANCH 13 14
ATOM     14  CG  ASN S   2       6.400 -23.281  46.540  1.00 37.91 LIG 0.22  C 
ATOM     15 OD1  ASN S   2       5.369 -23.428  47.202  1.00 41.54 LIG-0.27  OA
ATOM     16  ND2 ASN S   2       7.594 -23.059  47.100  1.00 40.23 LIG-0.37  N 
ATOM     17 22HD ASN S   2       8.289 -22.961  46.605  1.00 40.23 LIG 0.16  HD
ATOM     18 21HD ASN S   2       7.665 -23.015  47.956  1.00 40.23 LIG 0.16  HD
ENDBRANCH 13 14
ENDBRANCH 11 13
ENDBRANCH 8 11
ENDBRANCH 6 7
BRANCH 6 19
ATOM     19  CB  GLU S   3       5.425 -19.001  46.807  1.00 32.72 LIG 0.04  C 
BRANCH 19 20
ATOM     20  CG  GLU S   3       4.605 -17.760  47.151  1.00 35.99 LIG 0.12  C 
BRANCH 20 21
ATOM     21  CD  GLU S   3       5.408 -16.693  47.893  1.00 39.18 LIG 0.17  C 
ATOM     22 OE1  GLU S   3       5.729 -16.934  49.078  1.00 41.46 LIG-0.65  OA
ATOM     23 OE2  GLU S   3       5.729 -15.619  47.298  1.00 41.34 LIG-0.65  OA
ENDBRANCH 20 21
ENDBRANCH 19 20
ENDBRANCH 6 19
ENDBRANCH 4 6
ENDBRANCH 1 2
BRANCH 1 24
ATOM     24  CB  TYR S   4       9.163 -16.596  45.162  1.00 28.42 LIG 0.07  C 
BRANCH 24 25
ATOM     25  CG  TYR S   4       9.003 -16.525  46.652  1.00 29.89 LIG-0.06  A 
ATOM     26  CD2 TYR S   4       9.165 -17.662  47.459  1.00 30.34 LIG 0.01  A 
ATOM     27  CE2 TYR S   4       8.994 -17.571  48.858  1.00 32.01 LIG 0.04  A 
ATOM     28  CZ  TYR S   4       8.672 -16.342  49.424  1.00 31.83 LIG 0.07  A 
ATOM     29  CE1 TYR S   4       8.508 -15.238  48.635  1.00 31.31 LIG 0.04  A 
ATOM     30  CD1 TYR S   4       8.676 -15.329  47.266  1.00 30.54 LIG 0.01  A 
BRANCH 28 31
ATOM     31 OH   TYR S   4       8.453 -16.184  50.779  1.00 36.86 LIG-0.36  OA
ATOM     32 HH   TYR S   4       8.508 -16.931  51.161  1.00 36.86 LIG 0.22  HD
ENDBRANCH 28 31
ENDBRANCH 24 25
ENDBRANCH 1 24
BRANCH 1 33
ATOM     33  C   TYR S   4       8.016 -16.561  42.919  1.00 27.93 LIG 0.24  C 
ATOM     34  N   LYS S   5       9.222 -16.912  42.498  1.00 28.19 LIG-0.35  N 
ATOM     35 H    LYS S   5       9.896 -16.999  43.027  1.00 28.19 LIG 0.16  HD
ATOM     36 O    TYR S   4       7.072 -16.357  42.157  1.00 25.57 LIG-0.27  OA
BRANCH 34 37
ATOM     37  CA  LYS S   5       9.540 -17.188  41.100  1.00 28.81 LIG 0.18  C 
BRANCH 37 38
ATOM     38  CB  LYS S   5      11.041 -17.471  40.928  1.00 29.54 LIG 0.04  C 
BRANCH 38 39
ATOM     39  CG  LYS S   5      11.670 -16.955  39.621  1.00 33.24 LIG 0.00  C 
BRANCH 39 40
ATOM     40  CD  LYS S   5      11.417 -17.890  38.448  1.00 37.34 LIG 0.03  C 
BRANCH 40 41
ATOM     41  CE  LYS S   5      10.132 -17.487  37.717  1.00 39.48 LIG 0.23  C 
BRANCH 41 42
ATOM     42  NZ  LYS S   5       9.884 -16.027  37.828  1.00 41.40 LIG-0.08  N 
ATOM     43 HZ2  LYS S   5       9.861 -15.793  38.686  1.00 41.40 LIG 0.27  HD
ATOM     44 HZ1  LYS S   5       9.104 -15.829  37.447  1.00 41.40 LIG 0.27  HD
ATOM     45 HZ3  LYS S   5      10.536 -15.582  37.418  1.00 41.40 LIG 0.27  HD
ENDBRANCH 41 42
ENDBRANCH 40 41
ENDBRANCH 39 40
ENDBRANCH 38 39
ENDBRANCH 37 38
BRANCH 37 46
ATOM     46  C   LYS S   5       8.700 -18.380  40.673  1.00 28.43 LIG 0.24  C 
ATOM     47  N   VAL S   6       7.833 -18.176  39.696  1.00 27.37 LIG-0.34  N 
ATOM     48 H    VAL S   6       7.796 -17.448  39.240  1.00 27.37 LIG 0.16  HD
ATOM     49 O    LYS S   5       8.822 -19.468  41.221  1.00 28.58 LIG-0.27  OA
BRANCH 47 50
ATOM     50  CA  VAL S   6       6.860 -19.166  39.302  1.00 26.91 LIG 0.19  C 
BRANCH 50 51
ATOM     51  C   VAL S   6       6.454 -19.041  37.825  1.00 27.47 LIG 0.20  C 
ATOM     52 O    VAL S   6       6.335 -17.954  37.231  1.00 25.37 LIG-0.65  OA
ATOM     53 OXT  VAL S   6       6.284 -20.112  37.242  1.00 29.74 LIG-0.65  OA
ENDBRANCH 50 51
BRANCH 50 54
ATOM     54  CB  VAL S   6       5.605 -19.115  40.208  1.00 26.80 LIG 0.01  C 
ATOM     55  CG2 VAL S   6       5.912 -19.649  41.619  1.00 26.48 LIG 0.01  C 
ATOM     56  CG1 VAL S   6       4.459 -19.901  39.589  1.00 26.60 LIG 0.01  C 
ENDBRANCH 50 54
ENDBRANCH 47 50
ENDBRANCH 37 46
ENDBRANCH 34 37
ENDBRANCH 1 33
TORSDOF 23
ENDMDL
MODEL 10
USER: ADFR SOLUTION from run 174
USER: SCORE 17.865936 LL:  -4.233 LR: -14.390 RR:   0.000 FEB:  -7.529
USER: RMSD 9.639029
USER: SEED 173
USER: STATUS no improvement in best in 9 clusters for 5 generations
USER: GENES 25
USER: genes 0 Translation |==|  0.48571 0.65202 0.65540
USER: genes 1 Rotation |==|  0.04597 0.46488 0.29833 0.54422
USER: genes 2 Torsion [C]-CA--N-[C] |==|  0.14902
USER: genes 3 Torsion [N]-C--CA-[N] |==|  0.45869
USER: genes 4 Torsion [C]-CA--N-[C] |==|  0.55370
USER: genes 5 Torsion [N]-C--CA-[N] |==|  0.17317
USER: genes 6 Torsion [C]-CA--CB-[CG] |==|  0.21083
USER: genes 7 Torsion [CA]-CB--CG-[ND2] |==|  0.66189
USER: genes 8 Torsion [C]-CA--CB-[CG] |==|  0.26392
USER: genes 9 Torsion [CA]-CB--CG-[CD] |==|  0.76272
USER: genes 10 Torsion [CB]-CG--CD-[OE1] |==|  0.79740
USER: genes 11 Torsion [N]-CA--CB-[CG] |==|  0.81464
USER: genes 12 Torsion [CA]-CB--CG-[CD1] |==|  0.39616
USER: genes 13 Torsion [CE2]-CZ--OH-[HH] |==|  0.36303
USER: genes 14 Torsion [N]-CA--C-[N] |==|  0.66636
USER: genes 15 Torsion [C]-N--CA-[C] |==|  0.84915
USER: genes 16 Torsion [N]-CA--CB-[CG] |==|  0.62115
USER: genes 17 Torsion [CA]-CB--CG-[CD] |==|  0.98181
USER: genes 18 Torsion [CB]-CG--CD-[CE] |==|  0.69590
USER: genes 19 Torsion [CG]-CD--CE-[NZ] |==|  0.49403
USER: genes 20 Torsion [CD]-CE--NZ-[HZ3] |==|  0.90339
USER: genes 21 Torsion [N]-CA--C-[N] |==|  0.38829
USER: genes 22 Torsion [C]-N--CA-[C] |==|  0.83577
USER: genes 23 Torsion [N]-CA--C-[O] |==|  0.86011
USER: genes 24 Torsion [N]-CA--CB-[CG2] |==|  0.49209
ROOT
ATOM      1  CA  TYR S   4       8.054 -16.301  44.934  1.00 28.42 LIG 0.18  C 
ENDROOT
BRANCH 1 2
ATOM      2  N   TYR S   4       6.843 -16.945  45.407  1.00 30.10 LIG-0.35  N 
ATOM      3 H    TYR S   4       6.350 -16.437  45.895  1.00 30.10 LIG 0.16  HD
ATOM      4  C   GLU S   3       6.523 -18.198  45.116  1.00 31.33 LIG 0.24  C 
ATOM      5 O    GLU S   3       7.258 -18.956  44.476  1.00 31.71 LIG-0.27  OA
BRANCH 4 6
ATOM      6  CA  GLU S   3       5.168 -18.657  45.619  1.00 32.63 LIG 0.18  C 
BRANCH 6 7
ATOM      7  N   GLU S   3       4.788 -19.908  44.942  1.00 32.63 LIG-0.35  N 
ATOM      8  C   ASN S   2       3.530 -20.300  44.915  1.00 33.77 LIG 0.26  C 
ATOM      9 O    ASN S   2       2.650 -19.737  45.549  1.00 34.52 LIG-0.27  OA
ATOM     10 H    GLU S   3       5.441 -20.338  44.583  1.00 32.63 LIG 0.16  HD
BRANCH 8 11
ATOM     11  CA  ASN S   2       3.210 -21.505  44.022  1.00 34.66 LIG 0.41  C 
ATOM     12  N   ASN S   2       3.935 -22.736  44.478  1.00 35.02 LIG 0.61  N 
BRANCH 11 13
ATOM     13  CB  ASN S   2       1.683 -21.705  44.020  1.00 35.18 LIG 0.15  C 
BRANCH 13 14
ATOM     14  CG  ASN S   2       0.946 -20.684  43.149  1.00 37.91 LIG 0.22  C 
ATOM     15 OD1  ASN S   2       1.193 -20.589  41.944  1.00 41.54 LIG-0.27  OA
ATOM     16  ND2 ASN S   2       0.027 -19.929  43.761  1.00 40.23 LIG-0.37  N 
ATOM     17 22HD ASN S   2      -0.116 -20.025  44.603  1.00 40.23 LIG 0.16  HD
ATOM     18 21HD ASN S   2      -0.420 -19.348  43.312  1.00 40.23 LIG 0.16  HD
ENDBRANCH 13 14
ENDBRANCH 11 13
ENDBRANCH 8 11
ENDBRANCH 6 7
BRANCH 6 19
ATOM     19  CB  GLU S   3       5.160 -18.822  47.136  1.00 32.72 LIG 0.04  C 
BRANCH 19 20
ATOM     20  CG  GLU S   3       4.654 -17.633  47.947  1.00 35.99 LIG 0.12  C 
BRANCH 20 21
ATOM     21  CD  GLU S   3       5.737 -16.595  48.237  1.00 39.18 LIG 0.17  C 
ATOM     22 OE1  GLU S   3       6.610 -16.894  49.083  1.00 41.46 LIG-0.65  OA
ATOM     23 OE2  GLU S   3       5.729 -15.487  47.619  1.00 41.34 LIG-0.65  OA
ENDBRANCH 20 21
ENDBRANCH 19 20
ENDBRANCH 6 19
ENDBRANCH 4 6
ENDBRANCH 1 2
BRANCH 1 24
ATOM     24  CB  TYR S   4       9.248 -16.942  45.615  1.00 28.42 LIG 0.07  C 
BRANCH 24 25
ATOM     25  CG  TYR S   4       9.290 -16.678  47.091  1.00 29.89 LIG-0.06  A 
ATOM     26  CD2 TYR S   4       8.914 -15.434  47.621  1.00 30.34 LIG 0.01  A 
ATOM     27  CE2 TYR S   4       8.978 -15.206  49.013  1.00 32.01 LIG 0.04  A 
ATOM     28  CZ  TYR S   4       9.411 -16.230  49.850  1.00 31.83 LIG 0.07  A 
ATOM     29  CE1 TYR S   4       9.783 -17.438  49.330  1.00 31.31 LIG 0.04  A 
ATOM     30  CD1 TYR S   4       9.719 -17.659  47.967  1.00 30.54 LIG 0.01  A 
BRANCH 28 31
ATOM     31 OH   TYR S   4       9.534 -16.068  51.217  1.00 36.86 LIG-0.36  OA
ATOM     32 HH   TYR S   4       9.152 -16.705  51.611  1.00 36.86 LIG 0.22  HD
ENDBRANCH 28 31
ENDBRANCH 24 25
ENDBRANCH 1 24
BRANCH 1 33
ATOM     33  C   TYR S   4       8.117 -16.439  43.420  1.00 27.93 LIG 0.24  C 
ATOM     34  N   LYS S   5       9.172 -17.081  42.937  1.00 28.19 LIG-0.35  N 
ATOM     35 H    LYS S   5       9.794 -17.402  43.437  1.00 28.19 LIG 0.16  HD
ATOM     36 O    TYR S   4       7.269 -15.910  42.705  1.00 25.57 LIG-0.27  OA
BRANCH 34 37
ATOM     37  CA  LYS S   5       9.391 -17.314  41.512  1.00 28.81 LIG 0.18  C 
BRANCH 37 38
ATOM     38  CB  LYS S   5      10.648 -18.170  41.288  1.00 29.54 LIG 0.04  C 
BRANCH 38 39
ATOM     39  CG  LYS S   5      11.574 -17.706  40.150  1.00 33.24 LIG 0.00  C 
BRANCH 39 40
ATOM     40  CD  LYS S   5      10.979 -16.558  39.350  1.00 37.34 LIG 0.03  C 
BRANCH 40 41
ATOM     41  CE  LYS S   5      10.576 -17.039  37.952  1.00 39.48 LIG 0.23  C 
BRANCH 41 42
ATOM     42  NZ  LYS S   5       9.943 -15.947  37.168  1.00 41.40 LIG-0.08  N 
ATOM     43 HZ2  LYS S   5       9.407 -16.296  36.550  1.00 41.40 LIG 0.27  HD
ATOM     44 HZ1  LYS S   5      10.576 -15.461  36.772  1.00 41.40 LIG 0.27  HD
ATOM     45 HZ3  LYS S   5       9.468 -15.427  37.712  1.00 41.40 LIG 0.27  HD
ENDBRANCH 41 42
ENDBRANCH 40 41
ENDBRANCH 39 40
ENDBRANCH 38 39
ENDBRANCH 37 38
BRANCH 37 46
ATOM     46  C   LYS S   5       8.149 -18.003  40.971  1.00 28.43 LIG 0.24  C 
ATOM     47  N   VAL S   6       7.728 -17.614  39.779  1.00 27.37 LIG-0.34  N 
ATOM     48 H    VAL S   6       8.169 -17.079  39.271  1.00 27.37 LIG 0.16  HD
ATOM     49 O    LYS S   5       7.570 -18.864  41.619  1.00 28.58 LIG-0.27  OA
BRANCH 47 50
ATOM     50  CA  VAL S   6       6.476 -18.059  39.215  1.00 26.91 LIG 0.19  C 
BRANCH 50 51
ATOM     51  C   VAL S   6       6.402 -19.587  39.071  1.00 27.47 LIG 0.20  C 
ATOM     52 O    VAL S   6       7.287 -20.274  38.528  1.00 25.37 LIG-0.65  OA
ATOM     53 OXT  VAL S   6       5.403 -20.107  39.568  1.00 29.74 LIG-0.65  OA
ENDBRANCH 50 51
BRANCH 50 54
ATOM     54  CB  VAL S   6       6.199 -17.378  37.852  1.00 26.80 LIG 0.01  C 
ATOM     55  CG2 VAL S   6       4.899 -17.904  37.216  1.00 26.48 LIG 0.01  C 
ATOM     56  CG1 VAL S   6       7.367 -17.582  36.899  1.00 26.60 LIG 0.01  C 
ENDBRANCH 50 54
ENDBRANCH 47 50
ENDBRANCH 37 46
ENDBRANCH 34 37
ENDBRANCH 1 33
TORSDOF 23
ENDMDL
MODEL 11
USER: ADFR SOLUTION from run 55
USER: SCORE 20.012585 LL:  -6.052 LR: -14.366 RR:   0.000 FEB:  -7.505
USER: RMSD 2.443733
USER: SEED 54
USER: STATUS no improvement in best in 3 clusters for 5 generations
USER: GENES 25
USER: genes 0 Translation |==|  0.49991 0.54600 0.51688
USER: genes 1 Rotation |==|  0.53506 0.48039 0.50417 0.99837
USER: genes 2 Torsion [C]-CA--N-[C] |==|  0.81209
USER: genes 3 Torsion [N]-C--CA-[N] |==|  0.13721
USER: genes 4 Torsion [C]-CA--N-[C] |==|  0.16667
USER: genes 5 Torsion [N]-C--CA-[N] |==|  0.64730
USER: genes 6 Torsion [C]-CA--CB-[CG] |==|  0.59928
USER: genes 7 Torsion [CA]-CB--CG-[ND2] |==|  0.64995
USER: genes 8 Torsion [C]-CA--CB-[CG] |==|  0.47442
USER: genes 9 Torsion [CA]-CB--CG-[CD] |==|  0.28092
USER: genes 10 Torsion [CB]-CG--CD-[OE1] |==|  0.88740
USER: genes 11 Torsion [N]-CA--CB-[CG] |==|  0.80706
USER: genes 12 Torsion [CA]-CB--CG-[CD1] |==|  0.66881
USER: genes 13 Torsion [CE2]-CZ--OH-[HH] |==|  0.96673
USER: genes 14 Torsion [N]-CA--C-[N] |==|  0.36722
USER: genes 15 Torsion [C]-N--CA-[C] |==|  0.75078
USER: genes 16 Torsion [N]-CA--CB-[CG] |==|  0.56915
USER: genes 17 Torsion [CA]-CB--CG-[CD] |==|  0.92418
USER: genes 18 Torsion [CB]-CG--CD-[CE] |==|  0.75513
USER: genes 19 Torsion [CG]-CD--CE-[NZ] |==|  0.41290
USER: genes 20 Torsion [CD]-CE--NZ-[HZ3] |==|  0.15942
USER: genes 21 Torsion [N]-CA--C-[N] |==|  0.23182
USER: genes 22 Torsion [C]-N--CA-[C] |==|  0.69820
USER: genes 23 Torsion [N]-CA--C-[O] |==|  0.74746
USER: genes 24 Torsion [N]-CA--CB-[CG2] |==|  0.98560
ROOT
ATOM      1  CA  TYR S   4       8.352 -18.050  41.609  1.00 28.42 LIG 0.18  C 
ENDROOT
BRANCH 1 2
ATOM      2  N   TYR S   4       7.959 -17.535  40.310  1.00 30.10 LIG-0.35  N 
ATOM      3 H    TYR S   4       8.375 -16.817  40.084  1.00 30.10 LIG 0.16  HD
ATOM      4  C   GLU S   3       7.046 -18.113  39.543  1.00 31.33 LIG 0.24  C 
ATOM      5 O    GLU S   3       6.394 -19.102  39.891  1.00 31.71 LIG-0.27  OA
BRANCH 4 6
ATOM      6  CA  GLU S   3       6.848 -17.481  38.179  1.00 32.63 LIG 0.18  C 
BRANCH 6 7
ATOM      7  N   GLU S   3       8.155 -17.296  37.527  1.00 32.63 LIG-0.35  N 
ATOM      8  C   ASN S   2       8.934 -18.331  37.280  1.00 33.77 LIG 0.26  C 
ATOM      9 O    ASN S   2       8.686 -19.455  37.690  1.00 34.52 LIG-0.27  OA
ATOM     10 H    GLU S   3       8.351 -16.481  37.333  1.00 32.63 LIG 0.16  HD
BRANCH 8 11
ATOM     11  CA  ASN S   2      10.178 -18.060  36.426  1.00 34.66 LIG 0.41  C 
ATOM     12  N   ASN S   2      10.254 -18.992  35.253  1.00 35.02 LIG 0.61  N 
BRANCH 11 13
ATOM     13  CB  ASN S   2      10.142 -16.584  35.985  1.00 35.18 LIG 0.15  C 
BRANCH 13 14
ATOM     14  CG  ASN S   2      10.695 -16.368  34.573  1.00 37.91 LIG 0.22  C 
ATOM     15 OD1  ASN S   2      10.239 -16.997  33.615  1.00 41.54 LIG-0.27  OA
ATOM     16  ND2 ASN S   2      11.671 -15.463  34.447  1.00 40.23 LIG-0.37  N 
ATOM     17 22HD ASN S   2      11.962 -15.045  35.139  1.00 40.23 LIG 0.16  HD
ATOM     18 21HD ASN S   2      12.007 -15.299  33.673  1.00 40.23 LIG 0.16  HD
ENDBRANCH 13 14
ENDBRANCH 11 13
ENDBRANCH 8 11
ENDBRANCH 6 7
BRANCH 6 19
ATOM     19  CB  GLU S   3       5.907 -18.308  37.309  1.00 32.72 LIG 0.04  C 
BRANCH 19 20
ATOM     20  CG  GLU S   3       5.457 -17.671  35.997  1.00 35.99 LIG 0.12  C 
BRANCH 20 21
ATOM     21  CD  GLU S   3       6.214 -18.196  34.779  1.00 39.18 LIG 0.17  C 
ATOM     22 OE1  GLU S   3       7.446 -18.383  34.903  1.00 41.46 LIG-0.65  OA
ATOM     23 OE2  GLU S   3       5.588 -18.434  33.702  1.00 41.34 LIG-0.65  OA
ENDBRANCH 20 21
ENDBRANCH 19 20
ENDBRANCH 6 19
ENDBRANCH 4 6
ENDBRANCH 1 2
BRANCH 1 24
ATOM     24  CB  TYR S   4       9.575 -17.290  42.087  1.00 28.42 LIG 0.07  C 
BRANCH 24 25
ATOM     25  CG  TYR S   4      10.806 -17.601  41.289  1.00 29.89 LIG-0.06  A 
ATOM     26  CD2 TYR S   4      10.863 -17.355  39.908  1.00 30.34 LIG 0.01  A 
ATOM     27  CE2 TYR S   4      12.029 -17.671  39.178  1.00 32.01 LIG 0.04  A 
ATOM     28  CZ  TYR S   4      13.119 -18.221  39.844  1.00 31.83 LIG 0.07  A 
ATOM     29  CE1 TYR S   4      13.058 -18.466  41.187  1.00 31.31 LIG 0.04  A 
ATOM     30  CD1 TYR S   4      11.916 -18.156  41.900  1.00 30.54 LIG 0.01  A 
BRANCH 28 31
ATOM     31 OH   TYR S   4      14.279 -18.590  39.188  1.00 36.86 LIG-0.36  OA
ATOM     32 HH   TYR S   4      14.147 -18.584  38.359  1.00 36.86 LIG 0.22  HD
ENDBRANCH 28 31
ENDBRANCH 24 25
ENDBRANCH 1 24
BRANCH 1 33
ATOM     33  C   TYR S   4       7.178 -17.902  42.565  1.00 27.93 LIG 0.24  C 
ATOM     34  N   LYS S   5       6.875 -18.972  43.286  1.00 28.19 LIG-0.35  N 
ATOM     35 H    LYS S   5       7.305 -19.715  43.225  1.00 28.19 LIG 0.16  HD
ATOM     36 O    TYR S   4       6.515 -16.867  42.591  1.00 25.57 LIG-0.27  OA
BRANCH 34 37
ATOM     37  CA  LYS S   5       5.786 -19.008  44.259  1.00 28.81 LIG 0.18  C 
BRANCH 37 38
ATOM     38  CB  LYS S   5       5.180 -20.418  44.346  1.00 29.54 LIG 0.04  C 
BRANCH 38 39
ATOM     39  CG  LYS S   5       3.721 -20.485  44.831  1.00 33.24 LIG 0.00  C 
BRANCH 39 40
ATOM     40  CD  LYS S   5       3.356 -19.317  45.733  1.00 37.34 LIG 0.03  C 
BRANCH 40 41
ATOM     41  CE  LYS S   5       3.688 -19.649  47.191  1.00 39.48 LIG 0.23  C 
BRANCH 41 42
ATOM     42  NZ  LYS S   5       4.068 -18.428  47.949  1.00 41.40 LIG-0.08  N 
ATOM     43 HZ2  LYS S   5       4.805 -18.077  47.596  1.00 41.40 LIG 0.27  HD
ATOM     44 HZ1  LYS S   5       4.219 -18.642  48.800  1.00 41.40 LIG 0.27  HD
ATOM     45 HZ3  LYS S   5       3.407 -17.834  47.906  1.00 41.40 LIG 0.27  HD
ENDBRANCH 41 42
ENDBRANCH 40 41
ENDBRANCH 39 40
ENDBRANCH 38 39
ENDBRANCH 37 38
BRANCH 37 46
ATOM     46  C   LYS S   5       6.361 -18.569  45.595  1.00 28.43 LIG 0.24  C 
ATOM     47  N   VAL S   6       6.443 -17.266  45.806  1.00 27.37 LIG-0.34  N 
ATOM     48 H    VAL S   6       6.105 -16.678  45.278  1.00 27.37 LIG 0.16  HD
ATOM     49 O    LYS S   5       6.734 -19.389  46.423  1.00 28.58 LIG-0.27  OA
BRANCH 47 50
ATOM     50  CA  VAL S   6       7.116 -16.706  46.955  1.00 26.91 LIG 0.19  C 
BRANCH 50 51
ATOM     51  C   VAL S   6       6.139 -16.098  47.974  1.00 27.47 LIG 0.20  C 
ATOM     52 O    VAL S   6       5.778 -14.907  47.958  1.00 25.37 LIG-0.65  OA
ATOM     53 OXT  VAL S   6       5.700 -16.891  48.807  1.00 29.74 LIG-0.65  OA
ENDBRANCH 50 51
BRANCH 50 54
ATOM     54  CB  VAL S   6       8.172 -15.657  46.532  1.00 26.80 LIG 0.01  C 
ATOM     55  CG2 VAL S   6       8.311 -15.587  45.000  1.00 26.48 LIG 0.01  C 
ATOM     56  CG1 VAL S   6       9.522 -15.963  47.165  1.00 26.60 LIG 0.01  C 
ENDBRANCH 50 54
ENDBRANCH 47 50
ENDBRANCH 37 46
ENDBRANCH 34 37
ENDBRANCH 1 33
TORSDOF 23
ENDMDL
MODEL 12
USER: ADFR SOLUTION from run 176
USER: SCORE 19.013775 LL:  -5.083 LR: -14.325 RR:   0.000 FEB:  -7.464
USER: RMSD 9.971342
USER: SEED 175
USER: STATUS 1 or 2 clusters left
USER: GENES 25
USER: genes 0 Translation |==|  0.51940 0.58936 0.51932
USER: genes 1 Rotation |==|  0.97704 0.64402 0.51305 0.53900
USER: genes 2 Torsion [C]-CA--N-[C] |==|  0.75221
USER: genes 3 Torsion [N]-C--CA-[N] |==|  0.32463
USER: genes 4 Torsion [C]-CA--N-[C] |==|  0.71012
USER: genes 5 Torsion [N]-C--CA-[N] |==|  0.06529
USER: genes 6 Torsion [C]-CA--CB-[CG] |==|  0.81576
USER: genes 7 Torsion [CA]-CB--CG-[ND2] |==|  0.49087
USER: genes 8 Torsion [C]-CA--CB-[CG] |==|  0.54835
USER: genes 9 Torsion [CA]-CB--CG-[CD] |==|  0.22410
USER: genes 10 Torsion [CB]-CG--CD-[OE1] |==|  0.73164
USER: genes 11 Torsion [N]-CA--CB-[CG] |==|  0.45452
USER: genes 12 Torsion [CA]-CB--CG-[CD1] |==|  0.14151
USER: genes 13 Torsion [CE2]-CZ--OH-[HH] |==|  0.59771
USER: genes 14 Torsion [N]-CA--C-[N] |==|  0.41067
USER: genes 15 Torsion [C]-N--CA-[C] |==|  0.59625
USER: genes 16 Torsion [N]-CA--CB-[CG] |==|  0.35159
USER: genes 17 Torsion [CA]-CB--CG-[CD] |==|  0.77440
USER: genes 18 Torsion [CB]-CG--CD-[CE] |==|  0.54535
USER: genes 19 Torsion [CG]-CD--CE-[NZ] |==|  0.32002
USER: genes 20 Torsion [CD]-CE--NZ-[HZ3] |==|  0.63743
USER: genes 21 Torsion [N]-CA--C-[N] |==|  0.42795
USER: genes 22 Torsion [C]-N--CA-[C] |==|  0.65963
USER: genes 23 Torsion [N]-CA--C-[O] |==|  0.60007
USER: genes 24 Torsion [N]-CA--CB-[CG2] |==|  0.94660
ROOT
ATOM      1  CA  TYR S   4       8.761 -17.335  41.668  1.00 28.42 LIG 0.18  C 
ENDROOT
BRANCH 1 2
ATOM      2  N   TYR S   4       8.413 -17.706  43.027  1.00 30.10 LIG-0.35  N 
ATOM      3 H    TYR S   4       8.977 -18.242  43.392  1.00 30.10 LIG 0.16  HD
ATOM      4  C   GLU S   3       7.330 -17.263  43.649  1.00 31.33 LIG 0.24  C 
ATOM      5 O    GLU S   3       6.479 -16.550  43.107  1.00 31.71 LIG-0.27  OA
BRANCH 4 6
ATOM      6  CA  GLU S   3       7.194 -17.683  45.099  1.00 32.63 LIG 0.18  C 
BRANCH 6 7
ATOM      7  N   GLU S   3       7.226 -16.492  45.963  1.00 32.63 LIG-0.35  N 
ATOM      8  C   ASN S   2       8.305 -16.198  46.661  1.00 33.77 LIG 0.26  C 
ATOM      9 O    ASN S   2       9.265 -16.950  46.737  1.00 34.52 LIG-0.27  OA
ATOM     10 H    GLU S   3       6.502 -16.027  45.966  1.00 32.63 LIG 0.16  HD
BRANCH 8 11
ATOM     11  CA  ASN S   2       8.310 -14.840  47.371  1.00 34.66 LIG 0.41  C 
ATOM     12  N   ASN S   2       6.917 -14.340  47.615  1.00 35.02 LIG 0.61  N 
BRANCH 11 13
ATOM     13  CB  ASN S   2       9.104 -14.990  48.683  1.00 35.18 LIG 0.15  C 
BRANCH 13 14
ATOM     14  CG  ASN S   2       8.420 -15.914  49.694  1.00 37.91 LIG 0.22  C 
ATOM     15 OD1  ASN S   2       7.321 -16.417  49.445  1.00 41.54 LIG-0.27  OA
ATOM     16  ND2 ASN S   2       9.082 -16.148  50.832  1.00 40.23 LIG-0.37  N 
ATOM     17 22HD ASN S   2       9.846 -15.778  50.969  1.00 40.23 LIG 0.16  HD
ATOM     18 21HD ASN S   2       8.743 -16.668  51.427  1.00 40.23 LIG 0.16  HD
ENDBRANCH 13 14
ENDBRANCH 11 13
ENDBRANCH 8 11
ENDBRANCH 6 7
BRANCH 6 19
ATOM     19  CB  GLU S   3       5.928 -18.502  45.330  1.00 32.72 LIG 0.04  C 
BRANCH 19 20
ATOM     20  CG  GLU S   3       5.458 -18.636  46.776  1.00 35.99 LIG 0.12  C 
BRANCH 20 21
ATOM     21  CD  GLU S   3       4.683 -17.419  47.275  1.00 39.18 LIG 0.17  C 
ATOM     22 OE1  GLU S   3       5.317 -16.558  47.926  1.00 41.46 LIG-0.65  OA
ATOM     23 OE2  GLU S   3       3.446 -17.309  47.013  1.00 41.34 LIG-0.65  OA
ENDBRANCH 20 21
ENDBRANCH 19 20
ENDBRANCH 6 19
ENDBRANCH 4 6
ENDBRANCH 1 2
BRANCH 1 24
ATOM     24  CB  TYR S   4      10.273 -17.321  41.536  1.00 28.42 LIG 0.07  C 
BRANCH 24 25
ATOM     25  CG  TYR S   4      10.736 -17.337  40.109  1.00 29.89 LIG-0.06  A 
ATOM     26  CD2 TYR S   4      11.700 -18.256  39.665  1.00 30.34 LIG 0.01  A 
ATOM     27  CE2 TYR S   4      12.130 -18.240  38.320  1.00 32.01 LIG 0.04  A 
ATOM     28  CZ  TYR S   4      11.582 -17.309  37.443  1.00 31.83 LIG 0.07  A 
ATOM     29  CE1 TYR S   4      10.649 -16.412  37.881  1.00 31.31 LIG 0.04  A 
ATOM     30  CD1 TYR S   4      10.229 -16.429  39.197  1.00 30.54 LIG 0.01  A 
BRANCH 28 31
ATOM     31 OH   TYR S   4      11.980 -17.210  36.123  1.00 36.86 LIG-0.36  OA
ATOM     32 HH   TYR S   4      11.962 -16.405  35.884  1.00 36.86 LIG 0.22  HD
ENDBRANCH 28 31
ENDBRANCH 24 25
ENDBRANCH 1 24
BRANCH 1 33
ATOM     33  C   TYR S   4       8.114 -18.326  40.713  1.00 27.93 LIG 0.24  C 
ATOM     34  N   LYS S   5       7.750 -17.846  39.533  1.00 28.19 LIG-0.35  N 
ATOM     35 H    LYS S   5       7.861 -17.023  39.307  1.00 28.19 LIG 0.16  HD
ATOM     36 O    TYR S   4       7.882 -19.480  41.068  1.00 25.57 LIG-0.27  OA
BRANCH 34 37
ATOM     37  CA  LYS S   5       7.122 -18.655  38.491  1.00 28.81 LIG 0.18  C 
BRANCH 37 38
ATOM     38  CB  LYS S   5       5.590 -18.576  38.589  1.00 29.54 LIG 0.04  C 
BRANCH 38 39
ATOM     39  CG  LYS S   5       4.862 -18.168  37.296  1.00 33.24 LIG 0.00  C 
BRANCH 39 40
ATOM     40  CD  LYS S   5       4.869 -16.664  37.076  1.00 37.34 LIG 0.03  C 
BRANCH 40 41
ATOM     41  CE  LYS S   5       3.817 -16.275  36.033  1.00 39.48 LIG 0.23  C 
BRANCH 41 42
ATOM     42  NZ  LYS S   5       2.749 -15.434  36.632  1.00 41.40 LIG-0.08  N 
ATOM     43 HZ2  LYS S   5       2.820 -14.601  36.329  1.00 41.40 LIG 0.27  HD
ATOM     44 HZ1  LYS S   5       2.833 -15.435  37.519  1.00 41.40 LIG 0.27  HD
ATOM     45 HZ3  LYS S   5       1.952 -15.762  36.410  1.00 41.40 LIG 0.27  HD
ENDBRANCH 41 42
ENDBRANCH 40 41
ENDBRANCH 39 40
ENDBRANCH 38 39
ENDBRANCH 37 38
BRANCH 37 46
ATOM     46  C   LYS S   5       7.619 -18.133  37.154  1.00 28.43 LIG 0.24  C 
ATOM     47  N   VAL S   6       7.623 -18.991  36.147  1.00 27.37 LIG-0.34  N 
ATOM     48 H    VAL S   6       7.275 -19.776  36.192  1.00 27.37 LIG 0.16  HD
ATOM     49 O    LYS S   5       8.003 -16.978  37.028  1.00 28.58 LIG-0.27  OA
BRANCH 47 50
ATOM     50  CA  VAL S   6       8.218 -18.685  34.868  1.00 26.91 LIG 0.19  C 
BRANCH 50 51
ATOM     51  C   VAL S   6       7.220 -18.809  33.706  1.00 27.47 LIG 0.20  C 
ATOM     52 O    VAL S   6       7.526 -19.230  32.575  1.00 25.37 LIG-0.65  OA
ATOM     53 OXT  VAL S   6       6.064 -18.490  33.981  1.00 29.74 LIG-0.65  OA
ENDBRANCH 50 51
BRANCH 50 54
ATOM     54  CB  VAL S   6       9.464 -19.566  34.602  1.00 26.80 LIG 0.01  C 
ATOM     55  CG2 VAL S   6      10.014 -20.168  35.907  1.00 26.48 LIG 0.01  C 
ATOM     56  CG1 VAL S   6      10.550 -18.767  33.896  1.00 26.60 LIG 0.01  C 
ENDBRANCH 50 54
ENDBRANCH 47 50
ENDBRANCH 37 46
ENDBRANCH 34 37
ENDBRANCH 1 33
TORSDOF 23
ENDMDL
MODEL 13
USER: ADFR SOLUTION from run 104
USER: SCORE 17.556678 LL:  -4.335 LR: -14.059 RR:   0.000 FEB:  -7.198
USER: RMSD 10.992639
USER: SEED 103
USER: STATUS no improvement in best in 8 clusters for 5 generations
USER: GENES 25
USER: genes 0 Translation |==|  0.41822 0.48886 0.53309
USER: genes 1 Rotation |==|  0.77139 0.08141 0.53354 0.50139
USER: genes 2 Torsion [C]-CA--N-[C] |==|  0.53437
USER: genes 3 Torsion [N]-C--CA-[N] |==|  0.38894
USER: genes 4 Torsion [C]-CA--N-[C] |==|  0.70270
USER: genes 5 Torsion [N]-C--CA-[N] |==|  0.97449
USER: genes 6 Torsion [C]-CA--CB-[CG] |==|  0.52540
USER: genes 7 Torsion [CA]-CB--CG-[ND2] |==|  0.43372
USER: genes 8 Torsion [C]-CA--CB-[CG] |==|  0.59918
USER: genes 9 Torsion [CA]-CB--CG-[CD] |==|  0.85733
USER: genes 10 Torsion [CB]-CG--CD-[OE1] |==|  0.34227
USER: genes 11 Torsion [N]-CA--CB-[CG] |==|  0.54111
USER: genes 12 Torsion [CA]-CB--CG-[CD1] |==|  0.61379
USER: genes 13 Torsion [CE2]-CZ--OH-[HH] |==|  0.21001
USER: genes 14 Torsion [N]-CA--C-[N] |==|  0.53300
USER: genes 15 Torsion [C]-N--CA-[C] |==|  0.60609
USER: genes 16 Torsion [N]-CA--CB-[CG] |==|  0.46481
USER: genes 17 Torsion [CA]-CB--CG-[CD] |==|  0.62441
USER: genes 18 Torsion [CB]-CG--CD-[CE] |==|  0.59873
USER: genes 19 Torsion [CG]-CD--CE-[NZ] |==|  0.12727
USER: genes 20 Torsion [CD]-CE--NZ-[HZ3] |==|  0.50953
USER: genes 21 Torsion [N]-CA--C-[N] |==|  0.40115
USER: genes 22 Torsion [C]-N--CA-[C] |==|  0.73886
USER: genes 23 Torsion [N]-CA--C-[O] |==|  0.08104
USER: genes 24 Torsion [N]-CA--CB-[CG2] |==|  0.13524
ROOT
ATOM      1  CA  TYR S   4       6.637 -18.993  41.998  1.00 28.42 LIG 0.18  C 
ENDROOT
BRANCH 1 2
ATOM      2  N   TYR S   4       6.440 -18.260  43.235  1.00 30.10 LIG-0.35  N 
ATOM      3 H    TYR S   4       6.321 -17.417  43.121  1.00 30.10 LIG 0.16  HD
ATOM      4  C   GLU S   3       6.443 -18.833  44.431  1.00 31.33 LIG 0.24  C 
ATOM      5 O    GLU S   3       6.684 -20.032  44.609  1.00 31.71 LIG-0.27  OA
BRANCH 4 6
ATOM      6  CA  GLU S   3       6.119 -17.916  45.593  1.00 32.63 LIG 0.18  C 
BRANCH 6 7
ATOM      7  N   GLU S   3       5.259 -18.624  46.555  1.00 32.63 LIG-0.35  N 
ATOM      8  C   ASN S   2       3.980 -18.321  46.660  1.00 33.77 LIG 0.26  C 
ATOM      9 O    ASN S   2       3.479 -17.369  46.082  1.00 34.52 LIG-0.27  OA
ATOM     10 H    GLU S   3       5.656 -19.228  47.020  1.00 32.63 LIG 0.16  HD
BRANCH 8 11
ATOM     11  CA  ASN S   2       3.130 -19.243  47.543  1.00 34.66 LIG 0.41  C 
ATOM     12  N   ASN S   2       3.893 -20.468  47.954  1.00 35.02 LIG 0.61  N 
BRANCH 11 13
ATOM     13  CB  ASN S   2       2.651 -18.430  48.760  1.00 35.18 LIG 0.15  C 
BRANCH 13 14
ATOM     14  CG  ASN S   2       1.978 -19.294  49.830  1.00 37.91 LIG 0.22  C 
ATOM     15 OD1  ASN S   2       1.481 -20.385  49.539  1.00 41.54 LIG-0.27  OA
ATOM     16  ND2 ASN S   2       1.979 -18.809  51.076  1.00 40.23 LIG-0.37  N 
ATOM     17 22HD ASN S   2       2.335 -18.044  51.240  1.00 40.23 LIG 0.16  HD
ATOM     18 21HD ASN S   2       1.622 -19.263  51.714  1.00 40.23 LIG 0.16  HD
ENDBRANCH 13 14
ENDBRANCH 11 13
ENDBRANCH 8 11
ENDBRANCH 6 7
BRANCH 6 19
ATOM     19  CB  GLU S   3       7.384 -17.391  46.263  1.00 32.72 LIG 0.04  C 
BRANCH 19 20
ATOM     20  CG  GLU S   3       7.329 -17.212  47.778  1.00 35.99 LIG 0.12  C 
BRANCH 20 21
ATOM     21  CD  GLU S   3       6.124 -16.398  48.246  1.00 39.18 LIG 0.17  C 
ATOM     22 OE1  GLU S   3       5.353 -16.934  49.074  1.00 41.46 LIG-0.65  OA
ATOM     23 OE2  GLU S   3       5.945 -15.224  47.801  1.00 41.34 LIG-0.65  OA
ENDBRANCH 20 21
ENDBRANCH 19 20
ENDBRANCH 6 19
ENDBRANCH 4 6
ENDBRANCH 1 2
BRANCH 1 24
ATOM     24  CB  TYR S   4       5.415 -19.855  41.741  1.00 28.42 LIG 0.07  C 
BRANCH 24 25
ATOM     25  CG  TYR S   4       5.651 -20.906  40.696  1.00 29.89 LIG-0.06  A 
ATOM     26  CD2 TYR S   4       6.859 -21.618  40.637  1.00 30.34 LIG 0.01  A 
ATOM     27  CE2 TYR S   4       7.061 -22.592  39.634  1.00 32.01 LIG 0.04  A 
ATOM     28  CZ  TYR S   4       6.047 -22.839  38.714  1.00 31.83 LIG 0.07  A 
ATOM     29  CE1 TYR S   4       4.874 -22.140  38.771  1.00 31.31 LIG 0.04  A 
ATOM     30  CD1 TYR S   4       4.679 -21.188  39.753  1.00 30.54 LIG 0.01  A 
BRANCH 28 31
ATOM     31 OH   TYR S   4       6.187 -23.750  37.684  1.00 36.86 LIG-0.36  OA
ATOM     32 HH   TYR S   4       6.122 -24.531  37.988  1.00 36.86 LIG 0.22  HD
ENDBRANCH 28 31
ENDBRANCH 24 25
ENDBRANCH 1 24
BRANCH 1 33
ATOM     33  C   TYR S   4       6.877 -17.994  40.876  1.00 27.93 LIG 0.24  C 
ATOM     34  N   LYS S   5       6.833 -18.480  39.644  1.00 28.19 LIG-0.35  N 
ATOM     35 H    LYS S   5       6.684 -19.310  39.473  1.00 28.19 LIG 0.16  HD
ATOM     36 O    TYR S   4       7.171 -16.826  41.127  1.00 25.57 LIG-0.27  OA
BRANCH 34 37
ATOM     37  CA  LYS S   5       7.033 -17.665  38.448  1.00 28.81 LIG 0.18  C 
BRANCH 37 38
ATOM     38  CB  LYS S   5       8.488 -17.758  37.963  1.00 29.54 LIG 0.04  C 
BRANCH 38 39
ATOM     39  CG  LYS S   5       8.756 -17.197  36.554  1.00 33.24 LIG 0.00  C 
BRANCH 39 40
ATOM     40  CD  LYS S   5       9.635 -18.118  35.722  1.00 37.34 LIG 0.03  C 
BRANCH 40 41
ATOM     41  CE  LYS S   5      10.563 -17.295  34.824  1.00 39.48 LIG 0.23  C 
BRANCH 41 42
ATOM     42  NZ  LYS S   5      11.199 -16.184  35.579  1.00 41.40 LIG-0.08  N 
ATOM     43 HZ2  LYS S   5      11.717 -16.519  36.220  1.00 41.40 LIG 0.27  HD
ATOM     44 HZ1  LYS S   5      10.567 -15.674  35.944  1.00 41.40 LIG 0.27  HD
ATOM     45 HZ3  LYS S   5      11.693 -15.693  35.025  1.00 41.40 LIG 0.27  HD
ENDBRANCH 41 42
ENDBRANCH 40 41
ENDBRANCH 39 40
ENDBRANCH 38 39
ENDBRANCH 37 38
BRANCH 37 46
ATOM     46  C   LYS S   5       6.064 -18.171  37.392  1.00 28.43 LIG 0.24  C 
ATOM     47  N   VAL S   6       5.539 -17.263  36.587  1.00 27.37 LIG-0.34  N 
ATOM     48 H    VAL S   6       5.790 -16.440  36.571  1.00 27.37 LIG 0.16  HD
ATOM     49 O    LYS S   5       5.784 -19.359  37.306  1.00 28.58 LIG-0.27  OA
BRANCH 47 50
ATOM     50  CA  VAL S   6       4.485 -17.572  35.649  1.00 26.91 LIG 0.19  C 
BRANCH 50 51
ATOM     51  C   VAL S   6       5.020 -17.918  34.251  1.00 27.47 LIG 0.20  C 
ATOM     52 O    VAL S   6       6.134 -18.434  34.046  1.00 25.37 LIG-0.65  OA
ATOM     53 OXT  VAL S   6       4.245 -17.676  33.326  1.00 29.74 LIG-0.65  OA
ENDBRANCH 50 51
BRANCH 50 54
ATOM     54  CB  VAL S   6       3.455 -16.420  35.560  1.00 26.80 LIG 0.01  C 
ATOM     55  CG2 VAL S   6       4.150 -15.059  35.373  1.00 26.48 LIG 0.01  C 
ATOM     56  CG1 VAL S   6       2.570 -16.389  36.798  1.00 26.60 LIG 0.01  C 
ENDBRANCH 50 54
ENDBRANCH 47 50
ENDBRANCH 37 46
ENDBRANCH 34 37
ENDBRANCH 1 33
TORSDOF 23
ENDMDL
MODEL 14
USER: ADFR SOLUTION from run 20
USER: SCORE 17.484104 LL:  -5.542 LR: -14.034 RR:   0.000 FEB:  -7.173
USER: RMSD 7.147849
USER: SEED 19
USER: STATUS no improvement in best in 4 clusters for 5 generations
USER: GENES 25
USER: genes 0 Translation |==|  0.53296 0.63332 0.63738
USER: genes 1 Rotation |==|  0.56747 0.46505 0.88130 0.81438
USER: genes 2 Torsion [C]-CA--N-[C] |==|  0.19497
USER: genes 3 Torsion [N]-C--CA-[N] |==|  0.01324
USER: genes 4 Torsion [C]-CA--N-[C] |==|  0.19320
USER: genes 5 Torsion [N]-C--CA-[N] |==|  0.68204
USER: genes 6 Torsion [C]-CA--CB-[CG] |==|  0.67339
USER: genes 7 Torsion [CA]-CB--CG-[ND2] |==|  0.31357
USER: genes 8 Torsion [C]-CA--CB-[CG] |==|  0.47417
USER: genes 9 Torsion [CA]-CB--CG-[CD] |==|  0.16045
USER: genes 10 Torsion [CB]-CG--CD-[OE1] |==|  0.19963
USER: genes 11 Torsion [N]-CA--CB-[CG] |==|  0.43369
USER: genes 12 Torsion [CA]-CB--CG-[CD1] |==|  0.19215
USER: genes 13 Torsion [CE2]-CZ--OH-[HH] |==|  0.27485
USER: genes 14 Torsion [N]-CA--C-[N] |==|  0.39832
USER: genes 15 Torsion [C]-N--CA-[C] |==|  0.68960
USER: genes 16 Torsion [N]-CA--CB-[CG] |==|  0.13733
USER: genes 17 Torsion [CA]-CB--CG-[CD] |==|  0.36874
USER: genes 18 Torsion [CB]-CG--CD-[CE] |==|  0.25162
USER: genes 19 Torsion [CG]-CD--CE-[NZ] |==|  0.33421
USER: genes 20 Torsion [CD]-CE--NZ-[HZ3] |==|  0.46030
USER: genes 21 Torsion [N]-CA--C-[N] |==|  0.67961
USER: genes 22 Torsion [C]-N--CA-[C] |==|  0.67147
USER: genes 23 Torsion [N]-CA--C-[O] |==|  0.58656
USER: genes 24 Torsion [N]-CA--CB-[CG2] |==|  0.13732
ROOT
ATOM      1  CA  TYR S   4       9.046 -16.609  44.501  1.00 28.42 LIG 0.18  C 
ENDROOT
BRANCH 1 2
ATOM      2  N   TYR S   4       8.644 -16.770  43.116  1.00 30.10 LIG-0.35  N 
ATOM      3 H    TYR S   4       9.281 -16.635  42.555  1.00 30.10 LIG 0.16  HD
ATOM      4  C   GLU S   3       7.413 -17.096  42.747  1.00 31.33 LIG 0.24  C 
ATOM      5 O    GLU S   3       6.477 -17.223  43.543  1.00 31.71 LIG-0.27  OA
BRANCH 4 6
ATOM      6  CA  GLU S   3       7.216 -17.317  41.260  1.00 32.63 LIG 0.18  C 
BRANCH 6 7
ATOM      7  N   GLU S   3       8.514 -17.221  40.572  1.00 32.63 LIG-0.35  N 
ATOM      8  C   ASN S   2       9.433 -18.150  40.740  1.00 33.77 LIG 0.26  C 
ATOM      9 O    ASN S   2       9.319 -19.048  41.561  1.00 34.52 LIG-0.27  OA
ATOM     10 H    GLU S   3       8.608 -16.528  40.070  1.00 32.63 LIG 0.16  HD
BRANCH 8 11
ATOM     11  CA  ASN S   2      10.665 -18.065  39.832  1.00 34.66 LIG 0.41  C 
ATOM     12  N   ASN S   2      10.745 -19.236  38.899  1.00 35.02 LIG 0.61  N 
BRANCH 11 13
ATOM     13  CB  ASN S   2      10.604 -16.727  39.070  1.00 35.18 LIG 0.15  C 
BRANCH 13 14
ATOM     14  CG  ASN S   2      10.502 -16.907  37.553  1.00 37.91 LIG 0.22  C 
ATOM     15 OD1  ASN S   2      11.434 -17.397  36.912  1.00 41.54 LIG-0.27  OA
ATOM     16  ND2 ASN S   2       9.355 -16.522  36.983  1.00 40.23 LIG-0.37  N 
ATOM     17 22HD ASN S   2       8.728 -16.184  37.464  1.00 40.23 LIG 0.16  HD
ATOM     18 21HD ASN S   2       9.245 -16.612  36.135  1.00 40.23 LIG 0.16  HD
ENDBRANCH 13 14
ENDBRANCH 11 13
ENDBRANCH 8 11
ENDBRANCH 6 7
BRANCH 6 19
ATOM     19  CB  GLU S   3       6.536 -18.652  40.977  1.00 32.72 LIG 0.04  C 
BRANCH 19 20
ATOM     20  CG  GLU S   3       6.084 -18.895  39.540  1.00 35.99 LIG 0.12  C 
BRANCH 20 21
ATOM     21  CD  GLU S   3       7.222 -18.803  38.525  1.00 39.18 LIG 0.17  C 
ATOM     22 OE1  GLU S   3       8.061 -19.732  38.514  1.00 41.46 LIG-0.65  OA
ATOM     23 OE2  GLU S   3       7.280 -17.815  37.732  1.00 41.34 LIG-0.65  OA
ENDBRANCH 20 21
ENDBRANCH 19 20
ENDBRANCH 6 19
ENDBRANCH 4 6
ENDBRANCH 1 2
BRANCH 1 24
ATOM     24  CB  TYR S   4       8.085 -15.653  45.181  1.00 28.42 LIG 0.07  C 
BRANCH 24 25
ATOM     25  CG  TYR S   4       8.031 -15.837  46.669  1.00 29.89 LIG-0.06  A 
ATOM     26  CD2 TYR S   4       6.884 -16.345  47.300  1.00 30.34 LIG 0.01  A 
ATOM     27  CE2 TYR S   4       6.854 -16.494  48.704  1.00 32.01 LIG 0.04  A 
ATOM     28  CZ  TYR S   4       7.974 -16.140  49.449  1.00 31.83 LIG 0.07  A 
ATOM     29  CE1 TYR S   4       9.086 -15.640  48.832  1.00 31.31 LIG 0.04  A 
ATOM     30  CD1 TYR S   4       9.114 -15.495  47.458  1.00 30.54 LIG 0.01  A 
BRANCH 28 31
ATOM     31 OH   TYR S   4       8.003 -16.225  50.829  1.00 36.86 LIG-0.36  OA
ATOM     32 HH   TYR S   4       8.391 -16.934  51.058  1.00 36.86 LIG 0.22  HD
ENDBRANCH 28 31
ENDBRANCH 24 25
ENDBRANCH 1 24
BRANCH 1 33
ATOM     33  C   TYR S   4       9.056 -17.977  45.165  1.00 27.93 LIG 0.24  C 
ATOM     34  N   LYS S   5      10.017 -18.187  46.055  1.00 28.19 LIG-0.35  N 
ATOM     35 H    LYS S   5      10.610 -17.595  46.251  1.00 28.19 LIG 0.16  HD
ATOM     36 O    TYR S   4       8.258 -18.848  44.823  1.00 25.57 LIG-0.27  OA
BRANCH 34 37
ATOM     37  CA  LYS S   5      10.173 -19.436  46.794  1.00 28.81 LIG 0.18  C 
BRANCH 37 38
ATOM     38  CB  LYS S   5      11.599 -19.987  46.637  1.00 29.54 LIG 0.04  C 
BRANCH 38 39
ATOM     39  CG  LYS S   5      12.734 -18.979  46.898  1.00 33.24 LIG 0.00  C 
BRANCH 39 40
ATOM     40  CD  LYS S   5      13.813 -19.544  47.808  1.00 37.34 LIG 0.03  C 
BRANCH 40 41
ATOM     41  CE  LYS S   5      14.903 -20.227  46.977  1.00 39.48 LIG 0.23  C 
BRANCH 41 42
ATOM     42  NZ  LYS S   5      16.229 -19.596  47.204  1.00 41.40 LIG-0.08  N 
ATOM     43 HZ2  LYS S   5      16.355 -19.475  48.076  1.00 41.40 LIG 0.27  HD
ATOM     44 HZ1  LYS S   5      16.258 -18.809  46.788  1.00 41.40 LIG 0.27  HD
ATOM     45 HZ3  LYS S   5      16.869 -20.125  46.883  1.00 41.40 LIG 0.27  HD
ENDBRANCH 41 42
ENDBRANCH 40 41
ENDBRANCH 39 40
ENDBRANCH 38 39
ENDBRANCH 37 38
BRANCH 37 46
ATOM     46  C   LYS S   5       9.851 -19.142  48.250  1.00 28.43 LIG 0.24  C 
ATOM     47  N   VAL S   6      10.842 -19.277  49.115  1.00 27.37 LIG-0.34  N 
ATOM     48 H    VAL S   6      11.658 -19.422  48.883  1.00 27.37 LIG 0.16  HD
ATOM     49 O    LYS S   5       8.725 -18.809  48.594  1.00 28.58 LIG-0.27  OA
BRANCH 47 50
ATOM     50  CA  VAL S   6      10.645 -19.192  50.542  1.00 26.91 LIG 0.19  C 
BRANCH 50 51
ATOM     51  C   VAL S   6      11.426 -18.033  51.180  1.00 27.47 LIG 0.20  C 
ATOM     52 O    VAL S   6      11.877 -18.059  52.340  1.00 25.37 LIG-0.65  OA
ATOM     53 OXT  VAL S   6      11.611 -17.065  50.442  1.00 29.74 LIG-0.65  OA
ENDBRANCH 50 51
BRANCH 50 54
ATOM     54  CB  VAL S   6      11.002 -20.527  51.240  1.00 26.80 LIG 0.01  C 
ATOM     55  CG2 VAL S   6      12.380 -21.044  50.790  1.00 26.48 LIG 0.01  C 
ATOM     56  CG1 VAL S   6       9.935 -21.580  50.972  1.00 26.60 LIG 0.01  C 
ENDBRANCH 50 54
ENDBRANCH 47 50
ENDBRANCH 37 46
ENDBRANCH 34 37
ENDBRANCH 1 33
TORSDOF 23
ENDMDL
MODEL 15
USER: ADFR SOLUTION from run 178
USER: SCORE 18.728077 LL:  -5.540 LR: -14.024 RR:   0.000 FEB:  -7.163
USER: RMSD 11.032931
USER: SEED 177
USER: STATUS no improvement in best in 3 clusters for 5 generations
USER: GENES 25
USER: genes 0 Translation |==|  0.52693 0.47463 0.71158
USER: genes 1 Rotation |==|  0.45580 0.99727 0.52733 0.50427
USER: genes 2 Torsion [C]-CA--N-[C] |==|  0.81597
USER: genes 3 Torsion [N]-C--CA-[N] |==|  0.94677
USER: genes 4 Torsion [C]-CA--N-[C] |==|  0.81760
USER: genes 5 Torsion [N]-C--CA-[N] |==|  0.33011
USER: genes 6 Torsion [C]-CA--CB-[CG] |==|  0.28537
USER: genes 7 Torsion [CA]-CB--CG-[ND2] |==|  0.50932
USER: genes 8 Torsion [C]-CA--CB-[CG] |==|  0.45481
USER: genes 9 Torsion [CA]-CB--CG-[CD] |==|  0.91804
USER: genes 10 Torsion [CB]-CG--CD-[OE1] |==|  0.31630
USER: genes 11 Torsion [N]-CA--CB-[CG] |==|  0.40567
USER: genes 12 Torsion [CA]-CB--CG-[CD1] |==|  0.73475
USER: genes 13 Torsion [CE2]-CZ--OH-[HH] |==|  0.74404
USER: genes 14 Torsion [N]-CA--C-[N] |==|  0.38643
USER: genes 15 Torsion [C]-N--CA-[C] |==|  0.75532
USER: genes 16 Torsion [N]-CA--CB-[CG] |==|  0.84456
USER: genes 17 Torsion [CA]-CB--CG-[CD] |==|  0.84191
USER: genes 18 Torsion [CB]-CG--CD-[CE] |==|  0.75681
USER: genes 19 Torsion [CG]-CD--CE-[NZ] |==|  0.42649
USER: genes 20 Torsion [CD]-CE--NZ-[HZ3] |==|  0.46499
USER: genes 21 Torsion [N]-CA--C-[N] |==|  0.74637
USER: genes 22 Torsion [C]-N--CA-[C] |==|  0.57352
USER: genes 23 Torsion [N]-CA--C-[O] |==|  0.52033
USER: genes 24 Torsion [N]-CA--CB-[CG2] |==|  0.04674
ROOT
ATOM      1  CA  TYR S   4       8.920 -19.228  46.282  1.00 28.42 LIG 0.18  C 
ENDROOT
BRANCH 1 2
ATOM      2  N   TYR S   4       9.331 -18.957  47.647  1.00 30.10 LIG-0.35  N 
ATOM      3 H    TYR S   4       8.802 -18.427  48.068  1.00 30.10 LIG 0.16  HD
ATOM      4  C   GLU S   3      10.420 -19.477  48.196  1.00 31.33 LIG 0.24  C 
ATOM      5 O    GLU S   3      11.224 -20.182  47.577  1.00 31.71 LIG-0.27  OA
BRANCH 4 6
ATOM      6  CA  GLU S   3      10.625 -19.156  49.664  1.00 32.63 LIG 0.18  C 
BRANCH 6 7
ATOM      7  N   GLU S   3       9.819 -17.979  50.029  1.00 32.63 LIG-0.35  N 
ATOM      8  C   ASN S   2      10.086 -16.797  49.510  1.00 33.77 LIG 0.26  C 
ATOM      9 O    ASN S   2      11.075 -16.587  48.824  1.00 34.52 LIG-0.27  OA
ATOM     10 H    GLU S   3       9.185 -18.133  50.589  1.00 32.63 LIG 0.16  HD
BRANCH 8 11
ATOM     11  CA  ASN S   2       9.074 -15.682  49.796  1.00 34.66 LIG 0.41  C 
ATOM     12  N   ASN S   2       9.703 -14.548  50.550  1.00 35.02 LIG 0.61  N 
BRANCH 11 13
ATOM     13  CB  ASN S   2       8.481 -15.218  48.452  1.00 35.18 LIG 0.15  C 
BRANCH 13 14
ATOM     14  CG  ASN S   2       7.075 -15.767  48.197  1.00 37.91 LIG 0.22  C 
ATOM     15 OD1  ASN S   2       6.495 -16.439  49.054  1.00 41.54 LIG-0.27  OA
ATOM     16  ND2 ASN S   2       6.521 -15.465  47.018  1.00 40.23 LIG-0.37  N 
ATOM     17 22HD ASN S   2       6.957 -14.995  46.446  1.00 40.23 LIG 0.16  HD
ATOM     18 21HD ASN S   2       5.729 -15.742  46.832  1.00 40.23 LIG 0.16  HD
ENDBRANCH 13 14
ENDBRANCH 11 13
ENDBRANCH 8 11
ENDBRANCH 6 7
BRANCH 6 19
ATOM     19  CB  GLU S   3      10.292 -20.352  50.551  1.00 32.72 LIG 0.04  C 
BRANCH 19 20
ATOM     20  CG  GLU S   3      10.810 -20.300  51.986  1.00 35.99 LIG 0.12  C 
BRANCH 20 21
ATOM     21  CD  GLU S   3      12.103 -19.500  52.133  1.00 39.18 LIG 0.17  C 
ATOM     22 OE1  GLU S   3      12.051 -18.439  52.795  1.00 41.46 LIG-0.65  OA
ATOM     23 OE2  GLU S   3      13.172 -19.927  51.602  1.00 41.34 LIG-0.65  OA
ENDBRANCH 20 21
ENDBRANCH 19 20
ENDBRANCH 6 19
ENDBRANCH 4 6
ENDBRANCH 1 2
BRANCH 1 24
ATOM     24  CB  TYR S   4       7.537 -18.644  46.064  1.00 28.42 LIG 0.07  C 
BRANCH 24 25
ATOM     25  CG  TYR S   4       7.332 -18.129  44.670  1.00 29.89 LIG-0.06  A 
ATOM     26  CD2 TYR S   4       6.954 -18.984  43.623  1.00 30.34 LIG 0.01  A 
ATOM     27  CE2 TYR S   4       6.783 -18.476  42.317  1.00 32.01 LIG 0.04  A 
ATOM     28  CZ  TYR S   4       6.987 -17.120  42.084  1.00 31.83 LIG 0.07  A 
ATOM     29  CE1 TYR S   4       7.361 -16.291  43.103  1.00 31.31 LIG 0.04  A 
ATOM     30  CD1 TYR S   4       7.527 -16.790  44.381  1.00 30.54 LIG 0.01  A 
BRANCH 28 31
ATOM     31 OH   TYR S   4       6.874 -16.559  40.825  1.00 36.86 LIG-0.36  OA
ATOM     32 HH   TYR S   4       7.626 -16.556  40.451  1.00 36.86 LIG 0.22  HD
ENDBRANCH 28 31
ENDBRANCH 24 25
ENDBRANCH 1 24
BRANCH 1 33
ATOM     33  C   TYR S   4       9.949 -18.626  45.337  1.00 27.93 LIG 0.24  C 
ATOM     34  N   LYS S   5      10.270 -19.360  44.281  1.00 28.19 LIG-0.35  N 
ATOM     35 H    LYS S   5       9.929 -20.135  44.128  1.00 28.19 LIG 0.16  HD
ATOM     36 O    TYR S   4      10.494 -17.556  45.600  1.00 25.57 LIG-0.27  OA
BRANCH 34 37
ATOM     37  CA  LYS S   5      11.232 -18.937  43.267  1.00 28.81 LIG 0.18  C 
BRANCH 37 38
ATOM     38  CB  LYS S   5      11.935 -20.153  42.643  1.00 29.54 LIG 0.04  C 
BRANCH 38 39
ATOM     39  CG  LYS S   5      12.647 -21.091  43.634  1.00 33.24 LIG 0.00  C 
BRANCH 39 40
ATOM     40  CD  LYS S   5      13.684 -20.365  44.476  1.00 37.34 LIG 0.03  C 
BRANCH 40 41
ATOM     41  CE  LYS S   5      15.034 -20.344  43.753  1.00 39.48 LIG 0.23  C 
BRANCH 41 42
ATOM     42  NZ  LYS S   5      15.854 -19.179  44.175  1.00 41.40 LIG-0.08  N 
ATOM     43 HZ2  LYS S   5      15.851 -19.120  45.063  1.00 41.40 LIG 0.27  HD
ATOM     44 HZ1  LYS S   5      15.513 -18.434  43.827  1.00 41.40 LIG 0.27  HD
ATOM     45 HZ3  LYS S   5      16.690 -19.285  43.888  1.00 41.40 LIG 0.27  HD
ENDBRANCH 41 42
ENDBRANCH 40 41
ENDBRANCH 39 40
ENDBRANCH 38 39
ENDBRANCH 37 38
BRANCH 37 46
ATOM     46  C   LYS S   5      10.466 -18.145  42.221  1.00 28.43 LIG 0.24  C 
ATOM     47  N   VAL S   6       9.988 -18.826  41.194  1.00 27.37 LIG-0.34  N 
ATOM     48 H    VAL S   6      10.006 -19.685  41.144  1.00 27.37 LIG 0.16  HD
ATOM     49 O    LYS S   5      10.313 -16.935  42.330  1.00 28.58 LIG-0.27  OA
BRANCH 47 50
ATOM     50  CA  VAL S   6       9.386 -18.185  40.048  1.00 26.91 LIG 0.19  C 
BRANCH 50 51
ATOM     51  C   VAL S   6       8.369 -19.087  39.333  1.00 27.47 LIG 0.20  C 
ATOM     52 O    VAL S   6       7.827 -18.794  38.251  1.00 25.37 LIG-0.65  OA
ATOM     53 OXT  VAL S   6       8.142 -20.159  39.894  1.00 29.74 LIG-0.65  OA
ENDBRANCH 50 51
BRANCH 50 54
ATOM     54  CB  VAL S   6      10.462 -17.692  39.049  1.00 26.80 LIG 0.01  C 
ATOM     55  CG2 VAL S   6      11.822 -18.363  39.314  1.00 26.48 LIG 0.01  C 
ATOM     56  CG1 VAL S   6      10.604 -16.178  39.112  1.00 26.60 LIG 0.01  C 
ENDBRANCH 50 54
ENDBRANCH 47 50
ENDBRANCH 37 46
ENDBRANCH 34 37
ENDBRANCH 1 33
TORSDOF 23
ENDMDL
MODEL 16
USER: ADFR SOLUTION from run 43
USER: SCORE 17.984614 LL:  -4.913 LR: -14.002 RR:   0.000 FEB:  -7.141
USER: RMSD 7.507910
USER: SEED 42
USER: STATUS no improvement in best in 2 clusters for 5 generations
USER: GENES 25
USER: genes 0 Translation |==|  0.47410 0.54243 0.63263
USER: genes 1 Rotation |==|  0.44619 0.44903 0.99446 0.50371
USER: genes 2 Torsion [C]-CA--N-[C] |==|  0.57784
USER: genes 3 Torsion [N]-C--CA-[N] |==|  0.40110
USER: genes 4 Torsion [C]-CA--N-[C] |==|  0.66415
USER: genes 5 Torsion [N]-C--CA-[N] |==|  0.91538
USER: genes 6 Torsion [C]-CA--CB-[CG] |==|  0.97813
USER: genes 7 Torsion [CA]-CB--CG-[ND2] |==|  0.75631
USER: genes 8 Torsion [C]-CA--CB-[CG] |==|  0.36512
USER: genes 9 Torsion [CA]-CB--CG-[CD] |==|  0.77331
USER: genes 10 Torsion [CB]-CG--CD-[OE1] |==|  0.57667
USER: genes 11 Torsion [N]-CA--CB-[CG] |==|  0.51275
USER: genes 12 Torsion [CA]-CB--CG-[CD1] |==|  0.06784
USER: genes 13 Torsion [CE2]-CZ--OH-[HH] |==|  0.03429
USER: genes 14 Torsion [N]-CA--C-[N] |==|  0.04606
USER: genes 15 Torsion [C]-N--CA-[C] |==|  0.78863
USER: genes 16 Torsion [N]-CA--CB-[CG] |==|  0.47423
USER: genes 17 Torsion [CA]-CB--CG-[CD] |==|  0.46053
USER: genes 18 Torsion [CB]-CG--CD-[CE] |==|  0.09684
USER: genes 19 Torsion [CG]-CD--CE-[NZ] |==|  0.29200
USER: genes 20 Torsion [CD]-CE--NZ-[HZ3] |==|  0.55311
USER: genes 21 Torsion [N]-CA--C-[N] |==|  0.30953
USER: genes 22 Torsion [C]-N--CA-[C] |==|  0.65410
USER: genes 23 Torsion [N]-CA--C-[O] |==|  0.47302
USER: genes 24 Torsion [N]-CA--CB-[CG2] |==|  0.88355
ROOT
ATOM      1  CA  TYR S   4       7.810 -18.109  44.387  1.00 28.42 LIG 0.18  C 
ENDROOT
BRANCH 1 2
ATOM      2  N   TYR S   4       8.574 -18.193  43.156  1.00 30.10 LIG-0.35  N 
ATOM      3 H    TYR S   4       9.155 -18.827  43.154  1.00 30.10 LIG 0.16  HD
ATOM      4  C   GLU S   3       8.396 -17.372  42.130  1.00 31.33 LIG 0.24  C 
ATOM      5 O    GLU S   3       7.614 -16.416  42.153  1.00 31.71 LIG-0.27  OA
BRANCH 4 6
ATOM      6  CA  GLU S   3       9.220 -17.685  40.896  1.00 32.63 LIG 0.18  C 
BRANCH 6 7
ATOM      7  N   GLU S   3       8.436 -17.377  39.689  1.00 32.63 LIG-0.35  N 
ATOM      8  C   ASN S   2       8.173 -18.316  38.802  1.00 33.77 LIG 0.26  C 
ATOM      9 O    ASN S   2       8.668 -19.432  38.857  1.00 34.52 LIG-0.27  OA
ATOM     10 H    GLU S   3       8.177 -16.559  39.624  1.00 32.63 LIG 0.16  HD
BRANCH 8 11
ATOM     11  CA  ASN S   2       7.189 -17.945  37.686  1.00 34.66 LIG 0.41  C 
ATOM     12  N   ASN S   2       6.181 -16.938  38.154  1.00 35.02 LIG 0.61  N 
BRANCH 11 13
ATOM     13  CB  ASN S   2       8.003 -17.428  36.485  1.00 35.18 LIG 0.15  C 
BRANCH 13 14
ATOM     14  CG  ASN S   2       9.490 -17.249  36.801  1.00 37.91 LIG 0.22  C 
ATOM     15 OD1  ASN S   2      10.296 -18.155  36.574  1.00 41.54 LIG-0.27  OA
ATOM     16  ND2 ASN S   2       9.854 -16.068  37.313  1.00 40.23 LIG-0.37  N 
ATOM     17 22HD ASN S   2       9.262 -15.462  37.457  1.00 40.23 LIG 0.16  HD
ATOM     18 21HD ASN S   2      10.680 -15.916  37.498  1.00 40.23 LIG 0.16  HD
ENDBRANCH 13 14
ENDBRANCH 11 13
ENDBRANCH 8 11
ENDBRANCH 6 7
BRANCH 6 19
ATOM     19  CB  GLU S   3      10.547 -16.934  40.902  1.00 32.72 LIG 0.04  C 
BRANCH 19 20
ATOM     20  CG  GLU S   3      11.797 -17.758  40.605  1.00 35.99 LIG 0.12  C 
BRANCH 20 21
ATOM     21  CD  GLU S   3      12.322 -18.520  41.820  1.00 39.18 LIG 0.17  C 
ATOM     22 OE1  GLU S   3      13.547 -18.771  41.858  1.00 41.46 LIG-0.65  OA
ATOM     23 OE2  GLU S   3      11.521 -18.861  42.744  1.00 41.34 LIG-0.65  OA
ENDBRANCH 20 21
ENDBRANCH 19 20
ENDBRANCH 6 19
ENDBRANCH 4 6
ENDBRANCH 1 2
BRANCH 1 24
ATOM     24  CB  TYR S   4       6.522 -18.892  44.218  1.00 28.42 LIG 0.07  C 
BRANCH 24 25
ATOM     25  CG  TYR S   4       5.608 -18.777  45.402  1.00 29.89 LIG-0.06  A 
ATOM     26  CD2 TYR S   4       4.643 -19.759  45.677  1.00 30.34 LIG 0.01  A 
ATOM     27  CE2 TYR S   4       3.784 -19.619  46.789  1.00 32.01 LIG 0.04  A 
ATOM     28  CZ  TYR S   4       3.912 -18.502  47.609  1.00 31.83 LIG 0.07  A 
ATOM     29  CE1 TYR S   4       4.847 -17.545  47.334  1.00 31.31 LIG 0.04  A 
ATOM     30  CD1 TYR S   4       5.687 -17.684  46.246  1.00 30.54 LIG 0.01  A 
BRANCH 28 31
ATOM     31 OH   TYR S   4       3.083 -18.280  48.693  1.00 36.86 LIG-0.36  OA
ATOM     32 HH   TYR S   4       2.643 -18.976  48.857  1.00 36.86 LIG 0.22  HD
ENDBRANCH 28 31
ENDBRANCH 24 25
ENDBRANCH 1 24
BRANCH 1 33
ATOM     33  C   TYR S   4       8.663 -18.650  45.525  1.00 27.93 LIG 0.24  C 
ATOM     34  N   LYS S   5       9.962 -18.752  45.282  1.00 28.19 LIG-0.35  N 
ATOM     35 H    LYS S   5      10.316 -18.535  44.529  1.00 28.19 LIG 0.16  HD
ATOM     36 O    TYR S   4       8.143 -19.037  46.570  1.00 25.57 LIG-0.27  OA
BRANCH 34 37
ATOM     37  CA  LYS S   5      10.929 -19.243  46.260  1.00 28.81 LIG 0.18  C 
BRANCH 37 38
ATOM     38  CB  LYS S   5      12.239 -19.657  45.570  1.00 29.54 LIG 0.04  C 
BRANCH 38 39
ATOM     39  CG  LYS S   5      13.413 -19.981  46.512  1.00 33.24 LIG 0.00  C 
BRANCH 39 40
ATOM     40  CD  LYS S   5      14.545 -20.702  45.800  1.00 37.34 LIG 0.03  C 
BRANCH 40 41
ATOM     41  CE  LYS S   5      14.676 -20.194  44.361  1.00 39.48 LIG 0.23  C 
BRANCH 41 42
ATOM     42  NZ  LYS S   5      15.854 -19.302  44.209  1.00 41.40 LIG-0.08  N 
ATOM     43 HZ2  LYS S   5      16.593 -19.793  44.144  1.00 41.40 LIG 0.27  HD
ATOM     44 HZ1  LYS S   5      15.915 -18.767  44.918  1.00 41.40 LIG 0.27  HD
ATOM     45 HZ3  LYS S   5      15.761 -18.809  43.473  1.00 41.40 LIG 0.27  HD
ENDBRANCH 41 42
ENDBRANCH 40 41
ENDBRANCH 39 40
ENDBRANCH 38 39
ENDBRANCH 37 38
BRANCH 37 46
ATOM     46  C   LYS S   5      11.161 -18.126  47.264  1.00 28.43 LIG 0.24  C 
ATOM     47  N   VAL S   6      10.708 -18.327  48.490  1.00 27.37 LIG-0.34  N 
ATOM     48 H    VAL S   6      10.387 -19.078  48.760  1.00 27.37 LIG 0.16  HD
ATOM     49 O    LYS S   5      11.732 -17.093  46.940  1.00 28.58 LIG-0.27  OA
BRANCH 47 50
ATOM     50  CA  VAL S   6      10.711 -17.293  49.498  1.00 26.91 LIG 0.19  C 
BRANCH 50 51
ATOM     51  C   VAL S   6      11.450 -17.716  50.776  1.00 27.47 LIG 0.20  C 
ATOM     52 O    VAL S   6      11.729 -16.934  51.704  1.00 25.37 LIG-0.65  OA
ATOM     53 OXT  VAL S   6      11.728 -18.914  50.843  1.00 29.74 LIG-0.65  OA
ENDBRANCH 50 51
BRANCH 50 54
ATOM     54  CB  VAL S   6       9.271 -16.835  49.838  1.00 26.80 LIG 0.01  C 
ATOM     55  CG2 VAL S   6       8.412 -16.697  48.568  1.00 26.48 LIG 0.01  C 
ATOM     56  CG1 VAL S   6       9.290 -15.519  50.602  1.00 26.60 LIG 0.01  C 
ENDBRANCH 50 54
ENDBRANCH 47 50
ENDBRANCH 37 46
ENDBRANCH 34 37
ENDBRANCH 1 33
TORSDOF 23
ENDMDL
MODEL 17
USER: ADFR SOLUTION from run 152
USER: SCORE 19.026353 LL:  -5.696 LR: -13.973 RR:   0.000 FEB:  -7.112
USER: RMSD 9.797987
USER: SEED 151
USER: STATUS no improvement in best in 4 clusters for 5 generations
USER: GENES 25
USER: genes 0 Translation |==|  0.45607 0.61218 0.62597
USER: genes 1 Rotation |==|  0.07999 0.37551 0.28860 0.61577
USER: genes 2 Torsion [C]-CA--N-[C] |==|  0.15757
USER: genes 3 Torsion [N]-C--CA-[N] |==|  0.00558
USER: genes 4 Torsion [C]-CA--N-[C] |==|  0.72549
USER: genes 5 Torsion [N]-C--CA-[N] |==|  0.25989
USER: genes 6 Torsion [C]-CA--CB-[CG] |==|  0.19618
USER: genes 7 Torsion [CA]-CB--CG-[ND2] |==|  0.02309
USER: genes 8 Torsion [C]-CA--CB-[CG] |==|  0.52476
USER: genes 9 Torsion [CA]-CB--CG-[CD] |==|  0.19880
USER: genes 10 Torsion [CB]-CG--CD-[OE1] |==|  0.72185
USER: genes 11 Torsion [N]-CA--CB-[CG] |==|  0.78593
USER: genes 12 Torsion [CA]-CB--CG-[CD1] |==|  0.35203
USER: genes 13 Torsion [CE2]-CZ--OH-[HH] |==|  0.43965
USER: genes 14 Torsion [N]-CA--C-[N] |==|  0.67440
USER: genes 15 Torsion [C]-N--CA-[C] |==|  0.82858
USER: genes 16 Torsion [N]-CA--CB-[CG] |==|  0.47240
USER: genes 17 Torsion [CA]-CB--CG-[CD] |==|  0.11283
USER: genes 18 Torsion [CB]-CG--CD-[CE] |==|  0.61686
USER: genes 19 Torsion [CG]-CD--CE-[NZ] |==|  0.62204
USER: genes 20 Torsion [CD]-CE--NZ-[HZ3] |==|  0.20615
USER: genes 21 Torsion [N]-CA--C-[N] |==|  0.37655
USER: genes 22 Torsion [C]-N--CA-[C] |==|  0.58655
USER: genes 23 Torsion [N]-CA--C-[O] |==|  0.37649
USER: genes 24 Torsion [N]-CA--CB-[CG2] |==|  0.78735
ROOT
ATOM      1  CA  TYR S   4       7.432 -16.958  44.227  1.00 28.42 LIG 0.18  C 
ENDROOT
BRANCH 1 2
ATOM      2  N   TYR S   4       6.598 -18.120  44.472  1.00 30.10 LIG-0.35  N 
ATOM      3 H    TYR S   4       5.878 -17.942  44.907  1.00 30.10 LIG 0.16  HD
ATOM      4  C   GLU S   3       6.912 -19.342  44.065  1.00 31.33 LIG 0.24  C 
ATOM      5 O    GLU S   3       7.977 -19.617  43.501  1.00 31.71 LIG-0.27  OA
BRANCH 4 6
ATOM      6  CA  GLU S   3       5.864 -20.405  44.327  1.00 32.63 LIG 0.18  C 
BRANCH 6 7
ATOM      7  N   GLU S   3       4.684 -19.790  44.955  1.00 32.63 LIG-0.35  N 
ATOM      8  C   ASN S   2       4.510 -19.850  46.260  1.00 33.77 LIG 0.26  C 
ATOM      9 O    ASN S   2       5.226 -20.520  46.990  1.00 34.52 LIG-0.27  OA
ATOM     10 H    GLU S   3       4.143 -19.404  44.409  1.00 32.63 LIG 0.16  HD
BRANCH 8 11
ATOM     11  CA  ASN S   2       3.361 -19.014  46.836  1.00 34.66 LIG 0.41  C 
ATOM     12  N   ASN S   2       2.101 -19.819  46.957  1.00 35.02 LIG 0.61  N 
BRANCH 11 13
ATOM     13  CB  ASN S   2       3.816 -18.451  48.196  1.00 35.18 LIG 0.15  C 
BRANCH 13 14
ATOM     14  CG  ASN S   2       4.887 -17.365  48.067  1.00 37.91 LIG 0.22  C 
ATOM     15 OD1  ASN S   2       5.472 -16.934  49.064  1.00 41.54 LIG-0.27  OA
ATOM     16  ND2 ASN S   2       5.153 -16.934  46.829  1.00 40.23 LIG-0.37  N 
ATOM     17 22HD ASN S   2       4.723 -17.259  46.159  1.00 40.23 LIG 0.16  HD
ATOM     18 21HD ASN S   2       5.754 -16.332  46.704  1.00 40.23 LIG 0.16  HD
ENDBRANCH 13 14
ENDBRANCH 11 13
ENDBRANCH 8 11
ENDBRANCH 6 7
BRANCH 6 19
ATOM     19  CB  GLU S   3       5.488 -21.150  43.050  1.00 32.72 LIG 0.04  C 
BRANCH 19 20
ATOM     20  CG  GLU S   3       4.296 -22.098  43.141  1.00 35.99 LIG 0.12  C 
BRANCH 20 21
ATOM     21  CD  GLU S   3       2.956 -21.374  43.265  1.00 39.18 LIG 0.17  C 
ATOM     22 OE1  GLU S   3       2.453 -21.288  44.408  1.00 41.46 LIG-0.65  OA
ATOM     23 OE2  GLU S   3       2.408 -20.882  42.233  1.00 41.34 LIG-0.65  OA
ENDBRANCH 20 21
ENDBRANCH 19 20
ENDBRANCH 6 19
ENDBRANCH 4 6
ENDBRANCH 1 2
BRANCH 1 24
ATOM     24  CB  TYR S   4       8.735 -17.123  44.985  1.00 28.42 LIG 0.07  C 
BRANCH 24 25
ATOM     25  CG  TYR S   4       8.597 -16.845  46.453  1.00 29.89 LIG-0.06  A 
ATOM     26  CD2 TYR S   4       8.054 -15.638  46.920  1.00 30.34 LIG 0.01  A 
ATOM     27  CE2 TYR S   4       7.950 -15.396  48.307  1.00 32.01 LIG 0.04  A 
ATOM     28  CZ  TYR S   4       8.384 -16.368  49.201  1.00 31.83 LIG 0.07  A 
ATOM     29  CE1 TYR S   4       8.919 -17.540  48.744  1.00 31.31 LIG 0.04  A 
ATOM     30  CD1 TYR S   4       9.020 -17.776  47.386  1.00 30.54 LIG 0.01  A 
BRANCH 28 31
ATOM     31 OH   TYR S   4       8.347 -16.186  50.571  1.00 36.86 LIG-0.36  OA
ATOM     32 HH   TYR S   4       8.354 -16.934  50.954  1.00 36.86 LIG 0.22  HD
ENDBRANCH 28 31
ENDBRANCH 24 25
ENDBRANCH 1 24
BRANCH 1 33
ATOM     33  C   TYR S   4       7.655 -16.828  42.728  1.00 27.93 LIG 0.24  C 
ATOM     34  N   LYS S   5       8.909 -16.939  42.314  1.00 28.19 LIG-0.35  N 
ATOM     35 H    LYS S   5       9.569 -17.071  42.849  1.00 28.19 LIG 0.16  HD
ATOM     36 O    TYR S   4       6.721 -16.559  41.975  1.00 25.57 LIG-0.27  OA
BRANCH 34 37
ATOM     37  CA  LYS S   5       9.306 -16.849  40.911  1.00 28.81 LIG 0.18  C 
BRANCH 37 38
ATOM     38  CB  LYS S   5      10.834 -16.934  40.771  1.00 29.54 LIG 0.04  C 
BRANCH 38 39
ATOM     39  CG  LYS S   5      11.363 -17.091  39.334  1.00 33.24 LIG 0.00  C 
BRANCH 39 40
ATOM     40  CD  LYS S   5      10.604 -16.226  38.340  1.00 37.34 LIG 0.03  C 
BRANCH 40 41
ATOM     41  CE  LYS S   5      10.333 -17.011  37.053  1.00 39.48 LIG 0.23  C 
BRANCH 41 42
ATOM     42  NZ  LYS S   5      10.604 -16.184  35.849  1.00 41.40 LIG-0.08  N 
ATOM     43 HZ2  LYS S   5      10.242 -15.378  35.955  1.00 41.40 LIG 0.27  HD
ATOM     44 HZ1  LYS S   5      10.250 -16.577  35.133  1.00 41.40 LIG 0.27  HD
ATOM     45 HZ3  LYS S   5      11.483 -16.101  35.738  1.00 41.40 LIG 0.27  HD
ENDBRANCH 41 42
ENDBRANCH 40 41
ENDBRANCH 39 40
ENDBRANCH 38 39
ENDBRANCH 37 38
BRANCH 37 46
ATOM     46  C   LYS S   5       8.619 -17.988  40.175  1.00 28.43 LIG 0.24  C 
ATOM     47  N   VAL S   6       8.061 -17.690  39.013  1.00 27.37 LIG-0.34  N 
ATOM     48 H    VAL S   6       8.153 -16.929  38.624  1.00 27.37 LIG 0.16  HD
ATOM     49 O    LYS S   5       8.582 -19.116  40.647  1.00 28.58 LIG-0.27  OA
BRANCH 47 50
ATOM     50  CA  VAL S   6       7.237 -18.626  38.286  1.00 26.91 LIG 0.19  C 
BRANCH 50 51
ATOM     51  C   VAL S   6       7.328 -18.435  36.764  1.00 27.47 LIG 0.20  C 
ATOM     52 O    VAL S   6       7.447 -19.374  35.956  1.00 25.37 LIG-0.65  OA
ATOM     53 OXT  VAL S   6       7.239 -17.268  36.382  1.00 29.74 LIG-0.65  OA
ENDBRANCH 50 51
BRANCH 50 54
ATOM     54  CB  VAL S   6       5.761 -18.555  38.748  1.00 26.80 LIG 0.01  C 
ATOM     55  CG2 VAL S   6       5.562 -19.266  40.099  1.00 26.48 LIG 0.01  C 
ATOM     56  CG1 VAL S   6       4.837 -19.157  37.700  1.00 26.60 LIG 0.01  C 
ENDBRANCH 50 54
ENDBRANCH 47 50
ENDBRANCH 37 46
ENDBRANCH 34 37
ENDBRANCH 1 33
TORSDOF 23
ENDMDL
MODEL 18
USER: ADFR SOLUTION from run 72
USER: SCORE 16.407437 LL:  -4.343 LR: -13.964 RR:   0.000 FEB:  -7.103
USER: RMSD 6.758013
USER: SEED 71
USER: STATUS no improvement in best in 9 clusters for 5 generations
USER: GENES 25
USER: genes 0 Translation |==|  0.53089 0.57044 0.59268
USER: genes 1 Rotation |==|  0.49904 0.42526 0.97169 0.64806
USER: genes 2 Torsion [C]-CA--N-[C] |==|  0.47253
USER: genes 3 Torsion [N]-C--CA-[N] |==|  0.95629
USER: genes 4 Torsion [C]-CA--N-[C] |==|  0.80328
USER: genes 5 Torsion [N]-C--CA-[N] |==|  0.31795
USER: genes 6 Torsion [C]-CA--CB-[CG] |==|  0.47314
USER: genes 7 Torsion [CA]-CB--CG-[ND2] |==|  0.37606
USER: genes 8 Torsion [C]-CA--CB-[CG] |==|  0.46516
USER: genes 9 Torsion [CA]-CB--CG-[CD] |==|  0.59676
USER: genes 10 Torsion [CB]-CG--CD-[OE1] |==|  0.42865
USER: genes 11 Torsion [N]-CA--CB-[CG] |==|  0.51902
USER: genes 12 Torsion [CA]-CB--CG-[CD1] |==|  0.63606
USER: genes 13 Torsion [CE2]-CZ--OH-[HH] |==|  0.94014
USER: genes 14 Torsion [N]-CA--C-[N] |==|  0.45747
USER: genes 15 Torsion [C]-N--CA-[C] |==|  0.52790
USER: genes 16 Torsion [N]-CA--CB-[CG] |==|  0.51514
USER: genes 17 Torsion [CA]-CB--CG-[CD] |==|  0.53727
USER: genes 18 Torsion [CB]-CG--CD-[CE] |==|  0.84371
USER: genes 19 Torsion [CG]-CD--CE-[NZ] |==|  0.43424
USER: genes 20 Torsion [CD]-CE--NZ-[HZ3] |==|  0.54057
USER: genes 21 Torsion [N]-CA--C-[N] |==|  0.89968
USER: genes 22 Torsion [C]-N--CA-[C] |==|  0.60440
USER: genes 23 Torsion [N]-CA--C-[O] |==|  0.81434
USER: genes 24 Torsion [N]-CA--CB-[CG2] |==|  0.01676
ROOT
ATOM      1  CA  TYR S   4       9.003 -17.647  43.428  1.00 28.42 LIG 0.18  C 
ENDROOT
BRANCH 1 2
ATOM      2  N   TYR S   4       9.339 -17.812  42.026  1.00 30.10 LIG-0.35  N 
ATOM      3 H    TYR S   4       9.934 -18.416  41.884  1.00 30.10 LIG 0.16  HD
ATOM      4  C   GLU S   3       8.785 -17.101  41.055  1.00 31.33 LIG 0.24  C 
ATOM      5 O    GLU S   3       7.982 -16.184  41.257  1.00 31.71 LIG-0.27  OA
BRANCH 4 6
ATOM      6  CA  GLU S   3       9.193 -17.492  39.648  1.00 32.63 LIG 0.18  C 
BRANCH 6 7
ATOM      7  N   GLU S   3      10.401 -18.331  39.701  1.00 32.63 LIG-0.35  N 
ATOM      8  C   ASN S   2      11.566 -17.809  40.031  1.00 33.77 LIG 0.26  C 
ATOM      9 O    ASN S   2      11.733 -16.607  40.173  1.00 34.52 LIG-0.27  OA
ATOM     10 H    GLU S   3      10.277 -19.159  39.503  1.00 32.63 LIG 0.16  HD
BRANCH 8 11
ATOM     11  CA  ASN S   2      12.719 -18.796  40.249  1.00 34.66 LIG 0.41  C 
ATOM     12  N   ASN S   2      13.796 -18.622  39.219  1.00 35.02 LIG 0.61  N 
BRANCH 11 13
ATOM     13  CB  ASN S   2      13.255 -18.595  41.680  1.00 35.18 LIG 0.15  C 
BRANCH 13 14
ATOM     14  CG  ASN S   2      14.251 -19.678  42.103  1.00 37.91 LIG 0.22  C 
ATOM     15 OD1  ASN S   2      14.030 -20.867  41.860  1.00 41.54 LIG-0.27  OA
ATOM     16  ND2 ASN S   2      15.358 -19.260  42.726  1.00 40.23 LIG-0.37  N 
ATOM     17 22HD ASN S   2      15.475 -18.422  42.877  1.00 40.23 LIG 0.16  HD
ATOM     18 21HD ASN S   2      15.952 -19.830  42.974  1.00 40.23 LIG 0.16  HD
ENDBRANCH 13 14
ENDBRANCH 11 13
ENDBRANCH 8 11
ENDBRANCH 6 7
BRANCH 6 19
ATOM     19  CB  GLU S   3       8.060 -18.197  38.911  1.00 32.72 LIG 0.04  C 
BRANCH 19 20
ATOM     20  CG  GLU S   3       8.235 -18.376  37.405  1.00 35.99 LIG 0.12  C 
BRANCH 20 21
ATOM     21  CD  GLU S   3       6.924 -18.269  36.628  1.00 39.18 LIG 0.17  C 
ATOM     22 OE1  GLU S   3       6.992 -17.913  35.430  1.00 41.46 LIG-0.65  OA
ATOM     23 OE2  GLU S   3       5.827 -18.548  37.201  1.00 41.34 LIG-0.65  OA
ENDBRANCH 20 21
ENDBRANCH 19 20
ENDBRANCH 6 19
ENDBRANCH 4 6
ENDBRANCH 1 2
BRANCH 1 24
ATOM     24  CB  TYR S   4       7.493 -17.633  43.570  1.00 28.42 LIG 0.07  C 
BRANCH 24 25
ATOM     25  CG  TYR S   4       7.039 -17.303  44.962  1.00 29.89 LIG-0.06  A 
ATOM     26  CD2 TYR S   4       7.566 -16.206  45.661  1.00 30.34 LIG 0.01  A 
ATOM     27  CE2 TYR S   4       7.133 -15.927  46.976  1.00 32.01 LIG 0.04  A 
ATOM     28  CZ  TYR S   4       6.174 -16.746  47.563  1.00 31.83 LIG 0.07  A 
ATOM     29  CE1 TYR S   4       5.668 -17.817  46.882  1.00 31.31 LIG 0.04  A 
ATOM     30  CD1 TYR S   4       6.093 -18.089  45.596  1.00 30.54 LIG 0.01  A 
BRANCH 28 31
ATOM     31 OH   TYR S   4       5.730 -16.556  48.858  1.00 36.86 LIG-0.36  OA
ATOM     32 HH   TYR S   4       6.301 -16.115  49.289  1.00 36.86 LIG 0.22  HD
ENDBRANCH 28 31
ENDBRANCH 24 25
ENDBRANCH 1 24
BRANCH 1 33
ATOM     33  C   TYR S   4       9.640 -18.780  44.217  1.00 27.93 LIG 0.24  C 
ATOM     34  N   LYS S   5       9.700 -18.615  45.531  1.00 28.19 LIG-0.35  N 
ATOM     35 H    LYS S   5       9.406 -17.911  45.928  1.00 28.19 LIG 0.16  HD
ATOM     36 O    TYR S   4      10.134 -19.748  43.639  1.00 25.57 LIG-0.27  OA
BRANCH 34 37
ATOM     37  CA  LYS S   5      10.271 -19.603  46.442  1.00 28.81 LIG 0.18  C 
BRANCH 37 38
ATOM     38  CB  LYS S   5      11.791 -19.713  46.244  1.00 29.54 LIG 0.04  C 
BRANCH 38 39
ATOM     39  CG  LYS S   5      12.490 -20.817  47.059  1.00 33.24 LIG 0.00  C 
BRANCH 39 40
ATOM     40  CD  LYS S   5      14.002 -20.661  47.068  1.00 37.34 LIG 0.03  C 
BRANCH 40 41
ATOM     41  CE  LYS S   5      14.541 -20.630  45.635  1.00 39.48 LIG 0.23  C 
BRANCH 41 42
ATOM     42  NZ  LYS S   5      15.854 -19.937  45.568  1.00 41.40 LIG-0.08  N 
ATOM     43 HZ2  LYS S   5      16.487 -20.466  45.901  1.00 41.40 LIG 0.27  HD
ATOM     44 HZ1  LYS S   5      15.817 -19.184  46.042  1.00 41.40 LIG 0.27  HD
ATOM     45 HZ3  LYS S   5      16.045 -19.744  44.720  1.00 41.40 LIG 0.27  HD
ENDBRANCH 41 42
ENDBRANCH 40 41
ENDBRANCH 39 40
ENDBRANCH 38 39
ENDBRANCH 37 38
BRANCH 37 46
ATOM     46  C   LYS S   5       9.928 -19.163  47.856  1.00 28.43 LIG 0.24  C 
ATOM     47  N   VAL S   6       9.927 -17.861  48.088  1.00 27.37 LIG-0.34  N 
ATOM     48 H    VAL S   6      10.012 -17.269  47.469  1.00 27.37 LIG 0.16  HD
ATOM     49 O    LYS S   5       9.676 -19.982  48.730  1.00 28.58 LIG-0.27  OA
BRANCH 47 50
ATOM     50  CA  VAL S   6       9.783 -17.308  49.413  1.00 26.91 LIG 0.19  C 
BRANCH 50 51
ATOM     51  C   VAL S   6       8.937 -16.026  49.431  1.00 27.47 LIG 0.20  C 
ATOM     52 O    VAL S   6       9.293 -14.956  48.903  1.00 25.37 LIG-0.65  OA
ATOM     53 OXT  VAL S   6       7.842 -16.135  49.983  1.00 29.74 LIG-0.65  OA
ENDBRANCH 50 51
BRANCH 50 54
ATOM     54  CB  VAL S   6      11.162 -17.049  50.069  1.00 26.80 LIG 0.01  C 
ATOM     55  CG2 VAL S   6      12.311 -17.310  49.078  1.00 26.48 LIG 0.01  C 
ATOM     56  CG1 VAL S   6      11.339 -17.909  51.312  1.00 26.60 LIG 0.01  C 
ENDBRANCH 50 54
ENDBRANCH 47 50
ENDBRANCH 37 46
ENDBRANCH 34 37
ENDBRANCH 1 33
TORSDOF 23
ENDMDL
MODEL 19
USER: ADFR SOLUTION from run 4
USER: SCORE 19.294024 LL:  -6.279 LR: -13.935 RR:   0.000 FEB:  -7.074
USER: RMSD 9.107989
USER: SEED 997851
USER: STATUS no improvement in best in 2 clusters for 5 generations
USER: GENES 25
USER: genes 0 Translation |==|  0.46967 0.64901 0.62722
USER: genes 1 Rotation |==|  0.05490 0.37498 0.31571 0.54787
USER: genes 2 Torsion [C]-CA--N-[C] |==|  0.17682
USER: genes 3 Torsion [N]-C--CA-[N] |==|  0.50190
USER: genes 4 Torsion [C]-CA--N-[C] |==|  0.56342
USER: genes 5 Torsion [N]-C--CA-[N] |==|  0.83371
USER: genes 6 Torsion [C]-CA--CB-[CG] |==|  0.79197
USER: genes 7 Torsion [CA]-CB--CG-[ND2] |==|  0.41587
USER: genes 8 Torsion [C]-CA--CB-[CG] |==|  0.19639
USER: genes 9 Torsion [CA]-CB--CG-[CD] |==|  0.65402
USER: genes 10 Torsion [CB]-CG--CD-[OE1] |==|  0.35332
USER: genes 11 Torsion [N]-CA--CB-[CG] |==|  0.86486
USER: genes 12 Torsion [CA]-CB--CG-[CD1] |==|  0.79073
USER: genes 13 Torsion [CE2]-CZ--OH-[HH] |==|  0.97791
USER: genes 14 Torsion [N]-CA--C-[N] |==|  0.66454
USER: genes 15 Torsion [C]-N--CA-[C] |==|  0.81680
USER: genes 16 Torsion [N]-CA--CB-[CG] |==|  0.59152
USER: genes 17 Torsion [CA]-CB--CG-[CD] |==|  0.80535
USER: genes 18 Torsion [CB]-CG--CD-[CE] |==|  0.31037
USER: genes 19 Torsion [CG]-CD--CE-[NZ] |==|  0.03770
USER: genes 20 Torsion [CD]-CE--NZ-[HZ3] |==|  0.87825
USER: genes 21 Torsion [N]-CA--C-[N] |==|  0.94299
USER: genes 22 Torsion [C]-N--CA-[C] |==|  0.68246
USER: genes 23 Torsion [N]-CA--C-[O] |==|  0.02329
USER: genes 24 Torsion [N]-CA--CB-[CG2] |==|  0.99684
ROOT
ATOM      1  CA  TYR S   4       7.717 -16.350  44.257  1.00 28.42 LIG 0.18  C 
ENDROOT
BRANCH 1 2
ATOM      2  N   TYR S   4       6.791 -17.293  44.858  1.00 30.10 LIG-0.35  N 
ATOM      3 H    TYR S   4       6.084 -16.924  45.178  1.00 30.10 LIG 0.16  HD
ATOM      4  C   GLU S   3       7.011 -18.599  44.909  1.00 31.33 LIG 0.24  C 
ATOM      5 O    GLU S   3       8.056 -19.128  44.516  1.00 31.71 LIG-0.27  OA
BRANCH 4 6
ATOM      6  CA  GLU S   3       5.879 -19.427  45.485  1.00 32.63 LIG 0.18  C 
BRANCH 6 7
ATOM      7  N   GLU S   3       6.265 -20.848  45.497  1.00 32.63 LIG-0.35  N 
ATOM      8  C   ASN S   2       5.345 -21.792  45.517  1.00 33.77 LIG 0.26  C 
ATOM      9 O    ASN S   2       4.156 -21.551  45.663  1.00 34.52 LIG-0.27  OA
ATOM     10 H    GLU S   3       7.112 -20.994  45.490  1.00 32.63 LIG 0.16  HD
BRANCH 8 11
ATOM     11  CA  ASN S   2       5.839 -23.231  45.329  1.00 34.66 LIG 0.41  C 
ATOM     12  N   ASN S   2       6.538 -23.406  44.013  1.00 35.02 LIG 0.61  N 
BRANCH 11 13
ATOM     13  CB  ASN S   2       6.757 -23.579  46.517  1.00 35.18 LIG 0.15  C 
BRANCH 13 14
ATOM     14  CG  ASN S   2       8.135 -22.919  46.422  1.00 37.91 LIG 0.22  C 
ATOM     15 OD1  ASN S   2       8.639 -22.666  45.325  1.00 41.54 LIG-0.27  OA
ATOM     16  ND2 ASN S   2       8.737 -22.625  47.579  1.00 40.23 LIG-0.37  N 
ATOM     17 22HD ASN S   2       8.354 -22.818  48.324  1.00 40.23 LIG 0.16  HD
ATOM     18 21HD ASN S   2       9.508 -22.244  47.578  1.00 40.23 LIG 0.16  HD
ENDBRANCH 13 14
ENDBRANCH 11 13
ENDBRANCH 8 11
ENDBRANCH 6 7
BRANCH 6 19
ATOM     19  CB  GLU S   3       5.486 -18.948  46.878  1.00 32.72 LIG 0.04  C 
BRANCH 19 20
ATOM     20  CG  GLU S   3       4.769 -17.602  46.958  1.00 35.99 LIG 0.12  C 
BRANCH 20 21
ATOM     21  CD  GLU S   3       5.460 -16.603  47.884  1.00 39.18 LIG 0.17  C 
ATOM     22 OE1  GLU S   3       5.729 -15.474  47.416  1.00 41.46 LIG-0.65  OA
ATOM     23 OE2  GLU S   3       5.729 -16.934  49.079  1.00 41.34 LIG-0.65  OA
ENDBRANCH 20 21
ENDBRANCH 19 20
ENDBRANCH 6 19
ENDBRANCH 4 6
ENDBRANCH 1 2
BRANCH 1 24
ATOM     24  CB  TYR S   4       9.054 -16.459  44.967  1.00 28.42 LIG 0.07  C 
BRANCH 24 25
ATOM     25  CG  TYR S   4       8.927 -16.423  46.461  1.00 29.89 LIG-0.06  A 
ATOM     26  CD2 TYR S   4       9.049 -17.589  47.232  1.00 30.34 LIG 0.01  A 
ATOM     27  CE2 TYR S   4       8.911 -17.530  48.636  1.00 32.01 LIG 0.04  A 
ATOM     28  CZ  TYR S   4       8.661 -16.304  49.243  1.00 31.83 LIG 0.07  A 
ATOM     29  CE1 TYR S   4       8.536 -15.171  48.489  1.00 31.31 LIG 0.04  A 
ATOM     30  CD1 TYR S   4       8.672 -15.231  47.115  1.00 30.54 LIG 0.01  A 
BRANCH 28 31
ATOM     31 OH   TYR S   4       8.477 -16.175  50.607  1.00 36.86 LIG-0.36  OA
ATOM     32 HH   TYR S   4       8.434 -16.937  50.958  1.00 36.86 LIG 0.22  HD
ENDBRANCH 28 31
ENDBRANCH 24 25
ENDBRANCH 1 24
BRANCH 1 33
ATOM     33  C   TYR S   4       7.831 -16.662  42.773  1.00 27.93 LIG 0.24  C 
ATOM     34  N   LYS S   5       9.045 -16.960  42.331  1.00 28.19 LIG-0.35  N 
ATOM     35 H    LYS S   5       9.738 -16.976  42.841  1.00 28.19 LIG 0.16  HD
ATOM     36 O    TYR S   4       6.855 -16.559  42.032  1.00 25.57 LIG-0.27  OA
BRANCH 34 37
ATOM     37  CA  LYS S   5       9.337 -17.293  40.940  1.00 28.81 LIG 0.18  C 
BRANCH 37 38
ATOM     38  CB  LYS S   5      10.854 -17.404  40.714  1.00 29.54 LIG 0.04  C 
BRANCH 38 39
ATOM     39  CG  LYS S   5      11.352 -16.968  39.324  1.00 33.24 LIG 0.00  C 
BRANCH 39 40
ATOM     40  CD  LYS S   5      10.935 -17.937  38.229  1.00 37.34 LIG 0.03  C 
BRANCH 40 41
ATOM     41  CE  LYS S   5       9.911 -17.278  37.300  1.00 39.48 LIG 0.23  C 
BRANCH 41 42
ATOM     42  NZ  LYS S   5       9.854 -15.809  37.516  1.00 41.40 LIG-0.08  N 
ATOM     43 HZ2  LYS S   5       9.111 -15.483  37.151  1.00 41.40 LIG 0.27  HD
ATOM     44 HZ1  LYS S   5      10.563 -15.426  37.137  1.00 41.40 LIG 0.27  HD
ATOM     45 HZ3  LYS S   5       9.855 -15.637  38.389  1.00 41.40 LIG 0.27  HD
ENDBRANCH 41 42
ENDBRANCH 40 41
ENDBRANCH 39 40
ENDBRANCH 38 39
ENDBRANCH 37 38
BRANCH 37 46
ATOM     46  C   LYS S   5       8.636 -18.606  40.633  1.00 28.43 LIG 0.24  C 
ATOM     47  N   VAL S   6       8.309 -19.359  41.670  1.00 27.37 LIG-0.34  N 
ATOM     48 H    VAL S   6       8.384 -19.101  42.487  1.00 27.37 LIG 0.16  HD
ATOM     49 O    LYS S   5       8.401 -18.944  39.481  1.00 28.58 LIG-0.27  OA
BRANCH 47 50
ATOM     50  CA  VAL S   6       7.791 -20.699  41.524  1.00 26.91 LIG 0.19  C 
BRANCH 50 51
ATOM     51  C   VAL S   6       6.337 -20.827  42.006  1.00 27.47 LIG 0.20  C 
ATOM     52 O    VAL S   6       5.629 -19.855  42.331  1.00 25.37 LIG-0.65  OA
ATOM     53 OXT  VAL S   6       5.895 -21.975  42.020  1.00 29.74 LIG-0.65  OA
ENDBRANCH 50 51
BRANCH 50 54
ATOM     54  CB  VAL S   6       8.689 -21.732  42.247  1.00 26.80 LIG 0.01  C 
ATOM     55  CG2 VAL S   6       9.906 -21.055  42.903  1.00 26.48 LIG 0.01  C 
ATOM     56  CG1 VAL S   6       9.149 -22.817  41.284  1.00 26.60 LIG 0.01  C 
ENDBRANCH 50 54
ENDBRANCH 47 50
ENDBRANCH 37 46
ENDBRANCH 34 37
ENDBRANCH 1 33
TORSDOF 23
ENDMDL
MODEL 20
USER: ADFR SOLUTION from run 142
USER: SCORE 19.343824 LL:  -5.860 LR: -13.849 RR:   0.000 FEB:  -6.988
USER: RMSD 7.897635
USER: SEED 141
USER: STATUS no improvement in best in 6 clusters for 5 generations
USER: GENES 25
USER: genes 0 Translation |==|  0.38901 0.50908 0.61422
USER: genes 1 Rotation |==|  0.73582 0.48200 0.08794 0.65578
USER: genes 2 Torsion [C]-CA--N-[C] |==|  0.65476
USER: genes 3 Torsion [N]-C--CA-[N] |==|  0.02165
USER: genes 4 Torsion [C]-CA--N-[C] |==|  0.72599
USER: genes 5 Torsion [N]-C--CA-[N] |==|  0.23436
USER: genes 6 Torsion [C]-CA--CB-[CG] |==|  0.78099
USER: genes 7 Torsion [CA]-CB--CG-[ND2] |==|  0.27256
USER: genes 8 Torsion [C]-CA--CB-[CG] |==|  0.49954
USER: genes 9 Torsion [CA]-CB--CG-[CD] |==|  0.18745
USER: genes 10 Torsion [CB]-CG--CD-[OE1] |==|  0.61919
USER: genes 11 Torsion [N]-CA--CB-[CG] |==|  0.35821
USER: genes 12 Torsion [CA]-CB--CG-[CD1] |==|  0.23562
USER: genes 13 Torsion [CE2]-CZ--OH-[HH] |==|  0.75826
USER: genes 14 Torsion [N]-CA--C-[N] |==|  0.37753
USER: genes 15 Torsion [C]-N--CA-[C] |==|  0.16667
USER: genes 16 Torsion [N]-CA--CB-[CG] |==|  0.67846
USER: genes 17 Torsion [CA]-CB--CG-[CD] |==|  0.52866
USER: genes 18 Torsion [CB]-CG--CD-[CE] |==|  0.33448
USER: genes 19 Torsion [CG]-CD--CE-[NZ] |==|  0.62257
USER: genes 20 Torsion [CD]-CE--NZ-[HZ3] |==|  0.62562
USER: genes 21 Torsion [N]-CA--C-[N] |==|  0.05812
USER: genes 22 Torsion [C]-N--CA-[C] |==|  0.44806
USER: genes 23 Torsion [N]-CA--C-[O] |==|  0.63577
USER: genes 24 Torsion [N]-CA--CB-[CG2] |==|  0.52483
ROOT
ATOM      1  CA  TYR S   4       6.023 -18.659  43.945  1.00 28.42 LIG 0.18  C 
ENDROOT
BRANCH 1 2
ATOM      2  N   TYR S   4       7.421 -18.352  43.702  1.00 30.10 LIG-0.35  N 
ATOM      3 H    TYR S   4       7.964 -18.841  44.155  1.00 30.10 LIG 0.16  HD
ATOM      4  C   GLU S   3       7.825 -17.410  42.863  1.00 31.33 LIG 0.24  C 
ATOM      5 O    GLU S   3       7.051 -16.657  42.263  1.00 31.71 LIG-0.27  OA
BRANCH 4 6
ATOM      6  CA  GLU S   3       9.325 -17.310  42.670  1.00 32.63 LIG 0.18  C 
BRANCH 6 7
ATOM      7  N   GLU S   3       9.985 -18.440  43.345  1.00 32.63 LIG-0.35  N 
ATOM      8  C   ASN S   2      10.518 -18.287  44.540  1.00 33.77 LIG 0.26  C 
ATOM      9 O    ASN S   2      10.616 -17.197  45.084  1.00 34.52 LIG-0.27  OA
ATOM     10 H    GLU S   3       9.988 -19.176  42.900  1.00 32.63 LIG 0.16  HD
BRANCH 8 11
ATOM     11  CA  ASN S   2      11.004 -19.563  45.239  1.00 34.66 LIG 0.41  C 
ATOM     12  N   ASN S   2      12.390 -19.935  44.804  1.00 35.02 LIG 0.61  N 
BRANCH 11 13
ATOM     13  CB  ASN S   2      10.922 -19.334  46.761  1.00 35.18 LIG 0.15  C 
BRANCH 13 14
ATOM     14  CG  ASN S   2      12.087 -18.504  47.305  1.00 37.91 LIG 0.22  C 
ATOM     15 OD1  ASN S   2      13.179 -19.027  47.539  1.00 41.54 LIG-0.27  OA
ATOM     16  ND2 ASN S   2      11.856 -17.200  47.490  1.00 40.23 LIG-0.37  N 
ATOM     17 22HD ASN S   2      11.081 -16.872  47.316  1.00 40.23 LIG 0.16  HD
ATOM     18 21HD ASN S   2      12.482 -16.689  47.785  1.00 40.23 LIG 0.16  HD
ENDBRANCH 13 14
ENDBRANCH 11 13
ENDBRANCH 8 11
ENDBRANCH 6 7
BRANCH 6 19
ATOM     19  CB  GLU S   3       9.698 -17.253  41.192  1.00 32.72 LIG 0.04  C 
BRANCH 19 20
ATOM     20  CG  GLU S   3      11.186 -17.148  40.868  1.00 35.99 LIG 0.12  C 
BRANCH 20 21
ATOM     21  CD  GLU S   3      11.974 -18.403  41.236  1.00 39.18 LIG 0.17  C 
ATOM     22 OE1  GLU S   3      13.085 -18.243  41.792  1.00 41.46 LIG-0.65  OA
ATOM     23 OE2  GLU S   3      11.490 -19.548  40.985  1.00 41.34 LIG-0.65  OA
ENDBRANCH 20 21
ENDBRANCH 19 20
ENDBRANCH 6 19
ENDBRANCH 4 6
ENDBRANCH 1 2
BRANCH 1 24
ATOM     24  CB  TYR S   4       5.730 -20.052  43.420  1.00 28.42 LIG 0.07  C 
BRANCH 24 25
ATOM     25  CG  TYR S   4       5.048 -20.926  44.430  1.00 29.89 LIG-0.06  A 
ATOM     26  CD2 TYR S   4       5.776 -21.817  45.235  1.00 30.34 LIG 0.01  A 
ATOM     27  CE2 TYR S   4       5.107 -22.640  46.167  1.00 32.01 LIG 0.04  A 
ATOM     28  CZ  TYR S   4       3.724 -22.552  46.282  1.00 31.83 LIG 0.07  A 
ATOM     29  CE1 TYR S   4       3.018 -21.689  45.492  1.00 31.31 LIG 0.04  A 
ATOM     30  CD1 TYR S   4       3.673 -20.884  44.581  1.00 30.54 LIG 0.01  A 
BRANCH 28 31
ATOM     31 OH   TYR S   4       2.999 -23.352  47.146  1.00 36.86 LIG-0.36  OA
ATOM     32 HH   TYR S   4       2.805 -24.074  46.763  1.00 36.86 LIG 0.22  HD
ENDBRANCH 28 31
ENDBRANCH 24 25
ENDBRANCH 1 24
BRANCH 1 33
ATOM     33  C   TYR S   4       5.754 -18.543  45.438  1.00 27.93 LIG 0.24  C 
ATOM     34  N   LYS S   5       4.640 -17.912  45.782  1.00 28.19 LIG-0.35  N 
ATOM     35 H    LYS S   5       4.095 -17.577  45.207  1.00 28.19 LIG 0.16  HD
ATOM     36 O    TYR S   4       6.575 -18.951  46.258  1.00 25.57 LIG-0.27  OA
BRANCH 34 37
ATOM     37  CA  LYS S   5       4.220 -17.716  47.167  1.00 28.81 LIG 0.18  C 
BRANCH 37 38
ATOM     38  CB  LYS S   5       3.987 -19.067  47.862  1.00 29.54 LIG 0.04  C 
BRANCH 38 39
ATOM     39  CG  LYS S   5       2.540 -19.347  48.305  1.00 33.24 LIG 0.00  C 
BRANCH 39 40
ATOM     40  CD  LYS S   5       2.433 -20.573  49.197  1.00 37.34 LIG 0.03  C 
BRANCH 40 41
ATOM     41  CE  LYS S   5       1.845 -20.189  50.558  1.00 39.48 LIG 0.23  C 
BRANCH 41 42
ATOM     42  NZ  LYS S   5       2.593 -20.833  51.669  1.00 41.40 LIG-0.08  N 
ATOM     43 HZ2  LYS S   5       3.106 -20.228  52.072  1.00 41.40 LIG 0.27  HD
ATOM     44 HZ1  LYS S   5       3.104 -21.486  51.344  1.00 41.40 LIG 0.27  HD
ATOM     45 HZ3  LYS S   5       2.017 -21.173  52.257  1.00 41.40 LIG 0.27  HD
ENDBRANCH 41 42
ENDBRANCH 40 41
ENDBRANCH 39 40
ENDBRANCH 38 39
ENDBRANCH 37 38
BRANCH 37 46
ATOM     46  C   LYS S   5       5.311 -16.918  47.861  1.00 28.43 LIG 0.24  C 
ATOM     47  N   VAL S   6       6.123 -16.223  47.083  1.00 27.37 LIG-0.34  N 
ATOM     48 H    VAL S   6       6.002 -16.126  46.237  1.00 27.37 LIG 0.16  HD
ATOM     49 O    LYS S   5       5.429 -16.934  49.079  1.00 28.58 LIG-0.27  OA
BRANCH 47 50
ATOM     50  CA  VAL S   6       7.299 -15.554  47.587  1.00 26.91 LIG 0.19  C 
BRANCH 50 51
ATOM     51  C   VAL S   6       8.307 -15.213  46.478  1.00 27.47 LIG 0.20  C 
ATOM     52 O    VAL S   6       9.522 -15.472  46.547  1.00 25.37 LIG-0.65  OA
ATOM     53 OXT  VAL S   6       7.819 -14.686  45.479  1.00 29.74 LIG-0.65  OA
ENDBRANCH 50 51
BRANCH 50 54
ATOM     54  CB  VAL S   6       7.985 -16.384  48.699  1.00 26.80 LIG 0.01  C 
ATOM     55  CG2 VAL S   6       9.102 -15.581  49.389  1.00 26.48 LIG 0.01  C 
ATOM     56  CG1 VAL S   6       8.545 -17.682  48.137  1.00 26.60 LIG 0.01  C 
ENDBRANCH 50 54
ENDBRANCH 47 50
ENDBRANCH 37 46
ENDBRANCH 34 37
ENDBRANCH 1 33
TORSDOF 23
ENDMDL
MODEL 21
USER: ADFR SOLUTION from run 22
USER: SCORE 16.629609 LL:  -3.838 LR: -13.848 RR:   0.000 FEB:  -6.987
USER: RMSD 9.584401
USER: SEED 21
USER: STATUS no improvement in best in 12 clusters for 5 generations
USER: GENES 25
USER: genes 0 Translation |==|  0.56055 0.61635 0.46738
USER: genes 1 Rotation |==|  0.04019 0.33604 0.39213 0.50757
USER: genes 2 Torsion [C]-CA--N-[C] |==|  0.68199
USER: genes 3 Torsion [N]-C--CA-[N] |==|  0.35361
USER: genes 4 Torsion [C]-CA--N-[C] |==|  0.82308
USER: genes 5 Torsion [N]-C--CA-[N] |==|  0.84561
USER: genes 6 Torsion [C]-CA--CB-[CG] |==|  0.69510
USER: genes 7 Torsion [CA]-CB--CG-[ND2] |==|  0.19325
USER: genes 8 Torsion [C]-CA--CB-[CG] |==|  0.33643
USER: genes 9 Torsion [CA]-CB--CG-[CD] |==|  0.70541
USER: genes 10 Torsion [CB]-CG--CD-[OE1] |==|  0.63629
USER: genes 11 Torsion [N]-CA--CB-[CG] |==|  0.21985
USER: genes 12 Torsion [CA]-CB--CG-[CD1] |==|  0.26005
USER: genes 13 Torsion [CE2]-CZ--OH-[HH] |==|  0.39930
USER: genes 14 Torsion [N]-CA--C-[N] |==|  0.42890
USER: genes 15 Torsion [C]-N--CA-[C] |==|  0.21092
USER: genes 16 Torsion [N]-CA--CB-[CG] |==|  0.68134
USER: genes 17 Torsion [CA]-CB--CG-[CD] |==|  0.92902
USER: genes 18 Torsion [CB]-CG--CD-[CE] |==|  0.38524
USER: genes 19 Torsion [CG]-CD--CE-[NZ] |==|  0.66934
USER: genes 20 Torsion [CD]-CE--NZ-[HZ3] |==|  0.69069
USER: genes 21 Torsion [N]-CA--C-[N] |==|  0.64710
USER: genes 22 Torsion [C]-N--CA-[C] |==|  0.20401
USER: genes 23 Torsion [N]-CA--C-[O] |==|  0.69554
USER: genes 24 Torsion [N]-CA--CB-[CG2] |==|  0.88424
ROOT
ATOM      1  CA  TYR S   4       9.625 -16.889  40.421  1.00 28.42 LIG 0.18  C 
ENDROOT
BRANCH 1 2
ATOM      2  N   TYR S   4       8.981 -17.670  41.461  1.00 30.10 LIG-0.35  N 
ATOM      3 H    TYR S   4       9.351 -18.434  41.596  1.00 30.10 LIG 0.16  HD
ATOM      4  C   GLU S   3       7.923 -17.249  42.139  1.00 31.33 LIG 0.24  C 
ATOM      5 O    GLU S   3       7.343 -16.184  41.902  1.00 31.71 LIG-0.27  OA
BRANCH 4 6
ATOM      6  CA  GLU S   3       7.458 -18.165  43.254  1.00 32.63 LIG 0.18  C 
BRANCH 6 7
ATOM      7  N   GLU S   3       7.349 -17.401  44.507  1.00 32.63 LIG-0.35  N 
ATOM      8  C   ASN S   2       8.418 -16.861  45.057  1.00 33.77 LIG 0.26  C 
ATOM      9 O    ASN S   2       9.549 -17.073  44.647  1.00 34.52 LIG-0.27  OA
ATOM     10 H    GLU S   3       6.553 -17.345  44.829  1.00 32.63 LIG 0.16  HD
BRANCH 8 11
ATOM     11  CA  ASN S   2       8.174 -15.924  46.246  1.00 34.66 LIG 0.41  C 
ATOM     12  N   ASN S   2       7.229 -14.815  45.889  1.00 35.02 LIG 0.61  N 
BRANCH 11 13
ATOM     13  CB  ASN S   2       7.646 -16.770  47.421  1.00 35.18 LIG 0.15  C 
BRANCH 13 14
ATOM     14  CG  ASN S   2       6.171 -16.507  47.734  1.00 37.91 LIG 0.22  C 
ATOM     15 OD1  ASN S   2       5.841 -15.916  48.765  1.00 41.54 LIG-0.27  OA
ATOM     16  ND2 ASN S   2       5.284 -16.934  46.829  1.00 40.23 LIG-0.37  N 
ATOM     17 22HD ASN S   2       5.553 -17.342  46.122  1.00 40.23 LIG 0.16  HD
ATOM     18 21HD ASN S   2       4.444 -16.801  46.955  1.00 40.23 LIG 0.16  HD
ENDBRANCH 13 14
ENDBRANCH 11 13
ENDBRANCH 8 11
ENDBRANCH 6 7
BRANCH 6 19
ATOM     19  CB  GLU S   3       6.139 -18.848  42.905  1.00 32.72 LIG 0.04  C 
BRANCH 19 20
ATOM     20  CG  GLU S   3       6.147 -20.375  42.887  1.00 35.99 LIG 0.12  C 
BRANCH 20 21
ATOM     21  CD  GLU S   3       6.111 -20.962  41.477  1.00 39.18 LIG 0.17  C 
ATOM     22 OE1  GLU S   3       5.270 -21.860  41.248  1.00 41.46 LIG-0.65  OA
ATOM     23 OE2  GLU S   3       6.910 -20.527  40.593  1.00 41.34 LIG-0.65  OA
ENDBRANCH 20 21
ENDBRANCH 19 20
ENDBRANCH 6 19
ENDBRANCH 4 6
ENDBRANCH 1 2
BRANCH 1 24
ATOM     24  CB  TYR S   4      11.088 -16.710  40.780  1.00 28.42 LIG 0.07  C 
BRANCH 24 25
ATOM     25  CG  TYR S   4      11.920 -17.919  40.467  1.00 29.89 LIG-0.06  A 
ATOM     26  CD2 TYR S   4      12.058 -18.968  41.390  1.00 30.34 LIG 0.01  A 
ATOM     27  CE2 TYR S   4      12.860 -20.088  41.077  1.00 32.01 LIG 0.04  A 
ATOM     28  CZ  TYR S   4      13.501 -20.141  39.844  1.00 31.83 LIG 0.07  A 
ATOM     29  CE1 TYR S   4      13.369 -19.115  38.950  1.00 31.31 LIG 0.04  A 
ATOM     30  CD1 TYR S   4      12.584 -18.020  39.258  1.00 30.54 LIG 0.01  A 
BRANCH 28 31
ATOM     31 OH   TYR S   4      14.329 -21.187  39.483  1.00 36.86 LIG-0.36  OA
ATOM     32 HH   TYR S   4      14.236 -21.349  38.664  1.00 36.86 LIG 0.22  HD
ENDBRANCH 28 31
ENDBRANCH 24 25
ENDBRANCH 1 24
BRANCH 1 33
ATOM     33  C   TYR S   4       9.447 -17.609  39.093  1.00 27.93 LIG 0.24  C 
ATOM     34  N   LYS S   5       9.485 -16.849  38.008  1.00 28.19 LIG-0.35  N 
ATOM     35 H    LYS S   5       9.598 -15.996  38.037  1.00 28.19 LIG 0.16  HD
ATOM     36 O    TYR S   4       9.205 -18.815  39.059  1.00 25.57 LIG-0.27  OA
BRANCH 34 37
ATOM     37  CA  LYS S   5       9.341 -17.371  36.652  1.00 28.81 LIG 0.18  C 
BRANCH 37 38
ATOM     38  CB  LYS S   5      10.206 -18.627  36.457  1.00 29.54 LIG 0.04  C 
BRANCH 38 39
ATOM     39  CG  LYS S   5      11.357 -18.490  35.444  1.00 33.24 LIG 0.00  C 
BRANCH 39 40
ATOM     40  CD  LYS S   5      11.084 -17.422  34.397  1.00 37.34 LIG 0.03  C 
BRANCH 40 41
ATOM     41  CE  LYS S   5      12.353 -16.609  34.125  1.00 39.48 LIG 0.23  C 
BRANCH 41 42
ATOM     42  NZ  LYS S   5      12.155 -15.174  34.454  1.00 41.40 LIG-0.08  N 
ATOM     43 HZ2  LYS S   5      12.812 -14.898  34.987  1.00 41.40 LIG 0.27  HD
ATOM     44 HZ1  LYS S   5      11.374 -15.069  34.868  1.00 41.40 LIG 0.27  HD
ATOM     45 HZ3  LYS S   5      12.161 -14.694  33.705  1.00 41.40 LIG 0.27  HD
ENDBRANCH 41 42
ENDBRANCH 40 41
ENDBRANCH 39 40
ENDBRANCH 38 39
ENDBRANCH 37 38
BRANCH 37 46
ATOM     46  C   LYS S   5       7.867 -17.677  36.441  1.00 28.43 LIG 0.24  C 
ATOM     47  N   VAL S   6       7.569 -18.894  36.020  1.00 27.37 LIG-0.34  N 
ATOM     48 H    VAL S   6       8.146 -19.529  35.958  1.00 27.37 LIG 0.16  HD
ATOM     49 O    LYS S   5       7.009 -16.828  36.644  1.00 28.58 LIG-0.27  OA
BRANCH 47 50
ATOM     50  CA  VAL S   6       6.234 -19.273  35.621  1.00 26.91 LIG 0.19  C 
BRANCH 50 51
ATOM     51  C   VAL S   6       5.832 -18.680  34.261  1.00 27.47 LIG 0.20  C 
ATOM     52 O    VAL S   6       4.983 -17.780  34.124  1.00 25.37 LIG-0.65  OA
ATOM     53 OXT  VAL S   6       6.442 -19.139  33.295  1.00 29.74 LIG-0.65  OA
ENDBRANCH 50 51
BRANCH 50 54
ATOM     54  CB  VAL S   6       5.193 -18.890  36.701  1.00 26.80 LIG 0.01  C 
ATOM     55  CG2 VAL S   6       5.716 -19.197  38.117  1.00 26.48 LIG 0.01  C 
ATOM     56  CG1 VAL S   6       3.876 -19.613  36.463  1.00 26.60 LIG 0.01  C 
ENDBRANCH 50 54
ENDBRANCH 47 50
ENDBRANCH 37 46
ENDBRANCH 34 37
ENDBRANCH 1 33
TORSDOF 23
ENDMDL
MODEL 22
USER: ADFR SOLUTION from run 155
USER: SCORE 18.533936 LL:  -6.144 LR: -13.838 RR:   0.000 FEB:  -6.978
USER: RMSD 10.070015
USER: SEED 154
USER: STATUS searching
USER: GENES 25
USER: genes 0 Translation |==|  0.47607 0.58515 0.66695
USER: genes 1 Rotation |==|  0.94821 0.43314 0.70772 0.53862
USER: genes 2 Torsion [C]-CA--N-[C] |==|  0.18279
USER: genes 3 Torsion [N]-C--CA-[N] |==|  0.50190
USER: genes 4 Torsion [C]-CA--N-[C] |==|  0.19751
USER: genes 5 Torsion [N]-C--CA-[N] |==|  0.23869
USER: genes 6 Torsion [C]-CA--CB-[CG] |==|  0.18267
USER: genes 7 Torsion [CA]-CB--CG-[ND2] |==|  0.56473
USER: genes 8 Torsion [C]-CA--CB-[CG] |==|  0.96447
USER: genes 9 Torsion [CA]-CB--CG-[CD] |==|  0.29478
USER: genes 10 Torsion [CB]-CG--CD-[OE1] |==|  0.47374
USER: genes 11 Torsion [N]-CA--CB-[CG] |==|  0.77384
USER: genes 12 Torsion [CA]-CB--CG-[CD1] |==|  0.38181
USER: genes 13 Torsion [CE2]-CZ--OH-[HH] |==|  0.39026
USER: genes 14 Torsion [N]-CA--C-[N] |==|  0.08917
USER: genes 15 Torsion [C]-N--CA-[C] |==|  0.21111
USER: genes 16 Torsion [N]-CA--CB-[CG] |==|  0.47688
USER: genes 17 Torsion [CA]-CB--CG-[CD] |==|  0.57126
USER: genes 18 Torsion [CB]-CG--CD-[CE] |==|  0.86569
USER: genes 19 Torsion [CG]-CD--CE-[NZ] |==|  0.76766
USER: genes 20 Torsion [CD]-CE--NZ-[HZ3] |==|  0.38082
USER: genes 21 Torsion [N]-CA--C-[N] |==|  0.00662
USER: genes 22 Torsion [C]-N--CA-[C] |==|  0.60954
USER: genes 23 Torsion [N]-CA--C-[O] |==|  0.62957
USER: genes 24 Torsion [N]-CA--CB-[CG2] |==|  0.14677
ROOT
ATOM      1  CA  TYR S   4       7.851 -17.404  45.211  1.00 28.42 LIG 0.18  C 
ENDROOT
BRANCH 1 2
ATOM      2  N   TYR S   4       6.487 -17.310  45.697  1.00 30.10 LIG-0.35  N 
ATOM      3 H    TYR S   4       6.263 -16.517  45.941  1.00 30.10 LIG 0.16  HD
ATOM      4  C   GLU S   3       5.662 -18.345  45.759  1.00 31.33 LIG 0.24  C 
ATOM      5 O    GLU S   3       5.999 -19.500  45.477  1.00 31.71 LIG-0.27  OA
BRANCH 4 6
ATOM      6  CA  GLU S   3       4.247 -18.024  46.199  1.00 32.63 LIG 0.18  C 
BRANCH 6 7
ATOM      7  N   GLU S   3       3.451 -19.261  46.239  1.00 32.63 LIG-0.35  N 
ATOM      8  C   ASN S   2       3.666 -20.167  47.173  1.00 33.77 LIG 0.26  C 
ATOM      9 O    ASN S   2       4.604 -20.100  47.953  1.00 34.52 LIG-0.27  OA
ATOM     10 H    GLU S   3       2.857 -19.331  45.620  1.00 32.63 LIG 0.16  HD
BRANCH 8 11
ATOM     11  CA  ASN S   2       2.660 -21.321  47.249  1.00 34.66 LIG 0.41  C 
ATOM     12  N   ASN S   2       3.023 -22.432  46.308  1.00 35.02 LIG 0.61  N 
BRANCH 11 13
ATOM     13  CB  ASN S   2       2.597 -21.805  48.711  1.00 35.18 LIG 0.15  C 
BRANCH 13 14
ATOM     14  CG  ASN S   2       2.021 -20.755  49.664  1.00 37.91 LIG 0.22  C 
ATOM     15 OD1  ASN S   2       1.274 -19.867  49.246  1.00 41.54 LIG-0.27  OA
ATOM     16  ND2 ASN S   2       2.359 -20.869  50.953  1.00 40.23 LIG-0.37  N 
ATOM     17 22HD ASN S   2       2.883 -21.502  51.205  1.00 40.23 LIG 0.16  HD
ATOM     18 21HD ASN S   2       2.052 -20.309  51.529  1.00 40.23 LIG 0.16  HD
ENDBRANCH 13 14
ENDBRANCH 11 13
ENDBRANCH 8 11
ENDBRANCH 6 7
BRANCH 6 19
ATOM     19  CB  GLU S   3       4.228 -17.308  47.546  1.00 32.72 LIG 0.04  C 
BRANCH 19 20
ATOM     20  CG  GLU S   3       5.533 -17.311  48.338  1.00 35.99 LIG 0.12  C 
BRANCH 20 21
ATOM     21  CD  GLU S   3       6.247 -15.961  48.330  1.00 39.18 LIG 0.17  C 
ATOM     22 OE1  GLU S   3       7.225 -15.823  49.099  1.00 41.46 LIG-0.65  OA
ATOM     23 OE2  GLU S   3       5.846 -15.041  47.555  1.00 41.34 LIG-0.65  OA
ENDBRANCH 20 21
ENDBRANCH 19 20
ENDBRANCH 6 19
ENDBRANCH 4 6
ENDBRANCH 1 2
BRANCH 1 24
ATOM     24  CB  TYR S   4       8.590 -18.448  46.026  1.00 28.42 LIG 0.07  C 
BRANCH 24 25
ATOM     25  CG  TYR S   4       9.088 -17.920  47.340  1.00 29.89 LIG-0.06  A 
ATOM     26  CD2 TYR S   4       9.696 -16.659  47.436  1.00 30.34 LIG 0.01  A 
ATOM     27  CE2 TYR S   4      10.170 -16.192  48.682  1.00 32.01 LIG 0.04  A 
ATOM     28  CZ  TYR S   4      10.018 -16.992  49.809  1.00 31.83 LIG 0.07  A 
ATOM     29  CE1 TYR S   4       9.431 -18.222  49.711  1.00 31.31 LIG 0.04  A 
ATOM     30  CD1 TYR S   4       8.968 -18.677  48.491  1.00 30.54 LIG 0.01  A 
BRANCH 28 31
ATOM     31 OH   TYR S   4      10.490 -16.617  51.053  1.00 36.86 LIG-0.36  OA
ATOM     32 HH   TYR S   4       9.934 -16.839  51.643  1.00 36.86 LIG 0.22  HD
ENDBRANCH 28 31
ENDBRANCH 24 25
ENDBRANCH 1 24
BRANCH 1 33
ATOM     33  C   TYR S   4       7.816 -17.755  43.731  1.00 27.93 LIG 0.24  C 
ATOM     34  N   LYS S   5       6.785 -17.284  43.045  1.00 28.19 LIG-0.35  N 
ATOM     35 H    LYS S   5       6.162 -16.810  43.402  1.00 28.19 LIG 0.16  HD
ATOM     36 O    TYR S   4       8.664 -18.500  43.241  1.00 25.57 LIG-0.27  OA
BRANCH 34 37
ATOM     37  CA  LYS S   5       6.594 -17.515  41.615  1.00 28.81 LIG 0.18  C 
BRANCH 37 38
ATOM     38  CB  LYS S   5       7.904 -17.280  40.846  1.00 29.54 LIG 0.04  C 
BRANCH 38 39
ATOM     39  CG  LYS S   5       7.884 -17.684  39.361  1.00 33.24 LIG 0.00  C 
BRANCH 39 40
ATOM     40  CD  LYS S   5       9.270 -18.021  38.834  1.00 37.34 LIG 0.03  C 
BRANCH 40 41
ATOM     41  CE  LYS S   5      10.268 -16.929  39.229  1.00 39.48 LIG 0.23  C 
BRANCH 41 42
ATOM     42  NZ  LYS S   5      10.229 -15.791  38.274  1.00 41.40 LIG-0.08  N 
ATOM     43 HZ2  LYS S   5       9.478 -15.829  37.798  1.00 41.40 LIG 0.27  HD
ATOM     44 HZ1  LYS S   5      10.930 -15.838  37.727  1.00 41.40 LIG 0.27  HD
ATOM     45 HZ3  LYS S   5      10.255 -15.024  38.724  1.00 41.40 LIG 0.27  HD
ENDBRANCH 41 42
ENDBRANCH 40 41
ENDBRANCH 39 40
ENDBRANCH 38 39
ENDBRANCH 37 38
BRANCH 37 46
ATOM     46  C   LYS S   5       6.105 -18.945  41.451  1.00 28.43 LIG 0.24  C 
ATOM     47  N   VAL S   6       5.912 -19.636  42.562  1.00 27.37 LIG-0.34  N 
ATOM     48 H    VAL S   6       5.954 -19.291  43.349  1.00 27.37 LIG 0.16  HD
ATOM     49 O    LYS S   5       5.914 -19.425  40.342  1.00 28.58 LIG-0.27  OA
BRANCH 47 50
ATOM     50  CA  VAL S   6       5.610 -21.048  42.555  1.00 26.91 LIG 0.19  C 
BRANCH 50 51
ATOM     51  C   VAL S   6       4.562 -21.433  43.611  1.00 27.47 LIG 0.20  C 
ATOM     52 O    VAL S   6       4.682 -22.405  44.380  1.00 25.37 LIG-0.65  OA
ATOM     53 OXT  VAL S   6       3.589 -20.682  43.674  1.00 29.74 LIG-0.65  OA
ENDBRANCH 50 51
BRANCH 50 54
ATOM     54  CB  VAL S   6       6.891 -21.898  42.735  1.00 26.80 LIG 0.01  C 
ATOM     55  CG2 VAL S   6       7.687 -21.457  43.977  1.00 26.48 LIG 0.01  C 
ATOM     56  CG1 VAL S   6       7.771 -21.820  41.496  1.00 26.60 LIG 0.01  C 
ENDBRANCH 50 54
ENDBRANCH 47 50
ENDBRANCH 37 46
ENDBRANCH 34 37
ENDBRANCH 1 33
TORSDOF 23
ENDMDL
MODEL 23
USER: ADFR SOLUTION from run 3
USER: SCORE 18.859855 LL:  -5.855 LR: -13.833 RR:   0.000 FEB:  -6.972
USER: RMSD 8.870148
USER: SEED 720632
USER: STATUS no improvement in best in 9 clusters for 5 generations
USER: GENES 25
USER: genes 0 Translation |==|  0.47108 0.65044 0.65548
USER: genes 1 Rotation |==|  0.04796 0.43042 0.31384 0.57849
USER: genes 2 Torsion [C]-CA--N-[C] |==|  0.17105
USER: genes 3 Torsion [N]-C--CA-[N] |==|  0.46621
USER: genes 4 Torsion [C]-CA--N-[C] |==|  0.81667
USER: genes 5 Torsion [N]-C--CA-[N] |==|  0.47940
USER: genes 6 Torsion [C]-CA--CB-[CG] |==|  0.77066
USER: genes 7 Torsion [CA]-CB--CG-[ND2] |==|  0.76216
USER: genes 8 Torsion [C]-CA--CB-[CG] |==|  0.25453
USER: genes 9 Torsion [CA]-CB--CG-[CD] |==|  0.74815
USER: genes 10 Torsion [CB]-CG--CD-[OE1] |==|  0.81868
USER: genes 11 Torsion [N]-CA--CB-[CG] |==|  0.81473
USER: genes 12 Torsion [CA]-CB--CG-[CD1] |==|  0.87700
USER: genes 13 Torsion [CE2]-CZ--OH-[HH] |==|  0.83423
USER: genes 14 Torsion [N]-CA--C-[N] |==|  0.69130
USER: genes 15 Torsion [C]-N--CA-[C] |==|  0.82217
USER: genes 16 Torsion [N]-CA--CB-[CG] |==|  0.64809
USER: genes 17 Torsion [CA]-CB--CG-[CD] |==|  0.68290
USER: genes 18 Torsion [CB]-CG--CD-[CE] |==|  0.23965
USER: genes 19 Torsion [CG]-CD--CE-[NZ] |==|  0.12767
USER: genes 20 Torsion [CD]-CE--NZ-[HZ3] |==|  0.88653
USER: genes 21 Torsion [N]-CA--C-[N] |==|  0.41586
USER: genes 22 Torsion [C]-N--CA-[C] |==|  0.85999
USER: genes 23 Torsion [N]-CA--C-[O] |==|  0.87618
USER: genes 24 Torsion [N]-CA--CB-[CG2] |==|  0.16740
ROOT
ATOM      1  CA  TYR S   4       7.747 -16.327  44.936  1.00 28.42 LIG 0.18  C 
ENDROOT
BRANCH 1 2
ATOM      2  N   TYR S   4       6.703 -17.214  45.416  1.00 30.10 LIG-0.35  N 
ATOM      3 H    TYR S   4       6.094 -16.814  45.871  1.00 30.10 LIG 0.16  HD
ATOM      4  C   GLU S   3       6.688 -18.518  45.177  1.00 31.33 LIG 0.24  C 
ATOM      5 O    GLU S   3       7.595 -19.111  44.584  1.00 31.71 LIG-0.27  OA
BRANCH 4 6
ATOM      6  CA  GLU S   3       5.461 -19.256  45.676  1.00 32.63 LIG 0.18  C 
BRANCH 6 7
ATOM      7  N   GLU S   3       5.433 -20.610  45.100  1.00 32.63 LIG-0.35  N 
ATOM      8  C   ASN S   2       5.270 -20.784  43.803  1.00 33.77 LIG 0.26  C 
ATOM      9 O    ASN S   2       5.002 -19.865  43.044  1.00 34.52 LIG-0.27  OA
ATOM     10 H    GLU S   3       5.529 -21.248  45.669  1.00 32.63 LIG 0.16  HD
BRANCH 8 11
ATOM     11  CA  ASN S   2       5.452 -22.213  43.278  1.00 34.66 LIG 0.41  C 
ATOM     12  N   ASN S   2       5.070 -22.321  41.832  1.00 35.02 LIG 0.61  N 
BRANCH 11 13
ATOM     13  CB  ASN S   2       6.917 -22.627  43.517  1.00 35.18 LIG 0.15  C 
BRANCH 13 14
ATOM     14  CG  ASN S   2       7.867 -22.119  42.430  1.00 37.91 LIG 0.22  C 
ATOM     15 OD1  ASN S   2       8.491 -21.066  42.580  1.00 41.54 LIG-0.27  OA
ATOM     16  ND2 ASN S   2       7.987 -22.882  41.338  1.00 40.23 LIG-0.37  N 
ATOM     17 22HD ASN S   2       7.534 -23.609  41.270  1.00 40.23 LIG 0.16  HD
ATOM     18 21HD ASN S   2       8.516 -22.644  40.703  1.00 40.23 LIG 0.16  HD
ENDBRANCH 13 14
ENDBRANCH 11 13
ENDBRANCH 8 11
ENDBRANCH 6 7
BRANCH 6 19
ATOM     19  CB  GLU S   3       5.415 -19.300  47.200  1.00 32.72 LIG 0.04  C 
BRANCH 19 20
ATOM     20  CG  GLU S   3       4.661 -18.168  47.891  1.00 35.99 LIG 0.12  C 
BRANCH 20 21
ATOM     21  CD  GLU S   3       5.548 -16.974  48.237  1.00 39.18 LIG 0.17  C 
ATOM     22 OE1  GLU S   3       6.454 -17.155  49.082  1.00 41.46 LIG-0.65  OA
ATOM     23 OE2  GLU S   3       5.355 -15.858  47.665  1.00 41.34 LIG-0.65  OA
ENDBRANCH 20 21
ENDBRANCH 19 20
ENDBRANCH 6 19
ENDBRANCH 4 6
ENDBRANCH 1 2
BRANCH 1 24
ATOM     24  CB  TYR S   4       9.074 -16.774  45.517  1.00 28.42 LIG 0.07  C 
BRANCH 24 25
ATOM     25  CG  TYR S   4       9.151 -16.596  47.005  1.00 29.89 LIG-0.06  A 
ATOM     26  CD2 TYR S   4       9.666 -17.604  47.835  1.00 30.34 LIG 0.01  A 
ATOM     27  CE2 TYR S   4       9.712 -17.418  49.234  1.00 32.01 LIG 0.04  A 
ATOM     28  CZ  TYR S   4       9.250 -16.223  49.775  1.00 31.83 LIG 0.07  A 
ATOM     29  CE1 TYR S   4       8.743 -15.246  48.965  1.00 31.31 LIG 0.04  A 
ATOM     30  CD1 TYR S   4       8.699 -15.430  47.596  1.00 30.54 LIG 0.01  A 
BRANCH 28 31
ATOM     31 OH   TYR S   4       9.230 -15.984  51.137  1.00 36.86 LIG-0.36  OA
ATOM     32 HH   TYR S   4       8.749 -16.559  51.516  1.00 36.86 LIG 0.22  HD
ENDBRANCH 28 31
ENDBRANCH 24 25
ENDBRANCH 1 24
BRANCH 1 33
ATOM     33  C   TYR S   4       7.749 -16.360  43.415  1.00 27.93 LIG 0.24  C 
ATOM     34  N   LYS S   5       8.799 -16.934  42.846  1.00 28.19 LIG-0.35  N 
ATOM     35 H    LYS S   5       9.452 -17.268  43.296  1.00 28.19 LIG 0.16  HD
ATOM     36 O    TYR S   4       6.855 -15.810  42.773  1.00 25.57 LIG-0.27  OA
BRANCH 34 37
ATOM     37  CA  LYS S   5       8.964 -17.062  41.400  1.00 28.81 LIG 0.18  C 
BRANCH 37 38
ATOM     38  CB  LYS S   5      10.345 -17.644  41.059  1.00 29.54 LIG 0.04  C 
BRANCH 38 39
ATOM     39  CG  LYS S   5      11.184 -16.825  40.061  1.00 33.24 LIG 0.00  C 
BRANCH 39 40
ATOM     40  CD  LYS S   5      11.405 -17.562  38.749  1.00 37.34 LIG 0.03  C 
BRANCH 40 41
ATOM     41  CE  LYS S   5      10.234 -17.309  37.795  1.00 39.48 LIG 0.23  C 
BRANCH 41 42
ATOM     42  NZ  LYS S   5       9.872 -15.869  37.755  1.00 41.40 LIG-0.08  N 
ATOM     43 HZ2  LYS S   5       9.048 -15.778  37.432  1.00 41.40 LIG 0.27  HD
ATOM     44 HZ1  LYS S   5      10.445 -15.433  37.230  1.00 41.40 LIG 0.27  HD
ATOM     45 HZ3  LYS S   5       9.907 -15.531  38.577  1.00 41.40 LIG 0.27  HD
ENDBRANCH 41 42
ENDBRANCH 40 41
ENDBRANCH 39 40
ENDBRANCH 38 39
ENDBRANCH 37 38
BRANCH 37 46
ATOM     46  C   LYS S   5       7.846 -17.959  40.897  1.00 28.43 LIG 0.24  C 
ATOM     47  N   VAL S   6       7.417 -17.737  39.666  1.00 27.37 LIG-0.34  N 
ATOM     48 H    VAL S   6       7.799 -17.192  39.121  1.00 27.37 LIG 0.16  HD
ATOM     49 O    LYS S   5       7.367 -18.833  41.607  1.00 28.58 LIG-0.27  OA
BRANCH 47 50
ATOM     50  CA  VAL S   6       6.257 -18.398  39.116  1.00 26.91 LIG 0.19  C 
BRANCH 50 51
ATOM     51  C   VAL S   6       6.301 -19.923  39.303  1.00 27.47 LIG 0.20  C 
ATOM     52 O    VAL S   6       7.313 -20.616  39.090  1.00 25.37 LIG-0.65  OA
ATOM     53 OXT  VAL S   6       5.257 -20.424  39.719  1.00 29.74 LIG-0.65  OA
ENDBRANCH 50 51
BRANCH 50 54
ATOM     54  CB  VAL S   6       6.064 -18.046  37.621  1.00 26.80 LIG 0.01  C 
ATOM     55  CG2 VAL S   6       7.279 -18.480  36.782  1.00 26.48 LIG 0.01  C 
ATOM     56  CG1 VAL S   6       5.812 -16.556  37.445  1.00 26.60 LIG 0.01  C 
ENDBRANCH 50 54
ENDBRANCH 47 50
ENDBRANCH 37 46
ENDBRANCH 34 37
ENDBRANCH 1 33
TORSDOF 23
ENDMDL
MODEL 24
USER: ADFR SOLUTION from run 29
USER: SCORE 18.547505 LL:  -5.228 LR: -13.779 RR:   0.000 FEB:  -6.918
USER: RMSD 9.760524
USER: SEED 28
USER: STATUS no improvement in best in 2 clusters for 5 generations
USER: GENES 25
USER: genes 0 Translation |==|  0.44270 0.60149 0.56661
USER: genes 1 Rotation |==|  0.11420 0.33562 0.25151 0.61131
USER: genes 2 Torsion [C]-CA--N-[C] |==|  0.19871
USER: genes 3 Torsion [N]-C--CA-[N] |==|  0.91192
USER: genes 4 Torsion [C]-CA--N-[C] |==|  0.79130
USER: genes 5 Torsion [N]-C--CA-[N] |==|  0.18452
USER: genes 6 Torsion [C]-CA--CB-[CG] |==|  0.29420
USER: genes 7 Torsion [CA]-CB--CG-[ND2] |==|  0.95449
USER: genes 8 Torsion [C]-CA--CB-[CG] |==|  0.47358
USER: genes 9 Torsion [CA]-CB--CG-[CD] |==|  0.02232
USER: genes 10 Torsion [CB]-CG--CD-[OE1] |==|  0.73161
USER: genes 11 Torsion [N]-CA--CB-[CG] |==|  0.77015
USER: genes 12 Torsion [CA]-CB--CG-[CD1] |==|  0.27643
USER: genes 13 Torsion [CE2]-CZ--OH-[HH] |==|  0.42106
USER: genes 14 Torsion [N]-CA--C-[N] |==|  0.03955
USER: genes 15 Torsion [C]-N--CA-[C] |==|  0.59814
USER: genes 16 Torsion [N]-CA--CB-[CG] |==|  0.85120
USER: genes 17 Torsion [CA]-CB--CG-[CD] |==|  0.81800
USER: genes 18 Torsion [CB]-CG--CD-[CE] |==|  0.88796
USER: genes 19 Torsion [CG]-CD--CE-[NZ] |==|  0.30998
USER: genes 20 Torsion [CD]-CE--NZ-[HZ3] |==|  0.74370
USER: genes 21 Torsion [N]-CA--C-[N] |==|  0.44785
USER: genes 22 Torsion [C]-N--CA-[C] |==|  0.58104
USER: genes 23 Torsion [N]-CA--C-[O] |==|  0.53177
USER: genes 24 Torsion [N]-CA--CB-[CG2] |==|  0.01960
ROOT
ATOM      1  CA  TYR S   4       7.151 -17.134  42.803  1.00 28.42 LIG 0.18  C 
ENDROOT
BRANCH 1 2
ATOM      2  N   TYR S   4       6.433 -18.393  42.889  1.00 30.10 LIG-0.35  N 
ATOM      3 H    TYR S   4       5.581 -18.300  42.950  1.00 30.10 LIG 0.16  HD
ATOM      4  C   GLU S   3       7.032 -19.576  42.876  1.00 31.33 LIG 0.24  C 
ATOM      5 O    GLU S   3       8.259 -19.716  42.860  1.00 31.71 LIG-0.27  OA
BRANCH 4 6
ATOM      6  CA  GLU S   3       6.104 -20.775  42.872  1.00 32.63 LIG 0.18  C 
BRANCH 6 7
ATOM      7  N   GLU S   3       4.874 -20.448  43.612  1.00 32.63 LIG-0.35  N 
ATOM      8  C   ASN S   2       4.879 -20.392  44.929  1.00 33.77 LIG 0.26  C 
ATOM      9 O    ASN S   2       5.841 -20.734  45.600  1.00 34.52 LIG-0.27  OA
ATOM     10 H    GLU S   3       4.183 -20.304  43.120  1.00 32.63 LIG 0.16  HD
BRANCH 8 11
ATOM     11  CA  ASN S   2       3.606 -19.854  45.594  1.00 34.66 LIG 0.41  C 
ATOM     12  N   ASN S   2       2.442 -20.776  45.382  1.00 35.02 LIG 0.61  N 
BRANCH 11 13
ATOM     13  CB  ASN S   2       3.904 -19.639  47.090  1.00 35.18 LIG 0.15  C 
BRANCH 13 14
ATOM     14  CG  ASN S   2       4.058 -18.163  47.464  1.00 37.91 LIG 0.22  C 
ATOM     15 OD1  ASN S   2       4.012 -17.803  48.643  1.00 41.54 LIG-0.27  OA
ATOM     16  ND2 ASN S   2       4.257 -17.309  46.454  1.00 40.23 LIG-0.37  N 
ATOM     17 22HD ASN S   2       4.282 -17.599  45.645  1.00 40.23 LIG 0.16  HD
ATOM     18 21HD ASN S   2       4.359 -16.470  46.614  1.00 40.23 LIG 0.16  HD
ENDBRANCH 13 14
ENDBRANCH 11 13
ENDBRANCH 8 11
ENDBRANCH 6 7
BRANCH 6 19
ATOM     19  CB  GLU S   3       5.792 -21.238  41.453  1.00 32.72 LIG 0.04  C 
BRANCH 19 20
ATOM     20  CG  GLU S   3       5.053 -22.567  41.317  1.00 35.99 LIG 0.12  C 
BRANCH 20 21
ATOM     21  CD  GLU S   3       4.572 -23.130  42.654  1.00 39.18 LIG 0.17  C 
ATOM     22 OE1  GLU S   3       5.296 -23.985  43.212  1.00 41.46 LIG-0.65  OA
ATOM     23 OE2  GLU S   3       3.483 -22.717  43.155  1.00 41.34 LIG-0.65  OA
ENDBRANCH 20 21
ENDBRANCH 19 20
ENDBRANCH 6 19
ENDBRANCH 4 6
ENDBRANCH 1 2
BRANCH 1 24
ATOM     24  CB  TYR S   4       8.263 -17.133  43.834  1.00 28.42 LIG 0.07  C 
BRANCH 24 25
ATOM     25  CG  TYR S   4       7.790 -16.743  45.204  1.00 29.89 LIG-0.06  A 
ATOM     26  CD2 TYR S   4       7.615 -15.396  45.559  1.00 30.34 LIG 0.01  A 
ATOM     27  CE2 TYR S   4       7.184 -15.055  46.860  1.00 32.01 LIG 0.04  A 
ATOM     28  CZ  TYR S   4       6.927 -16.068  47.778  1.00 31.83 LIG 0.07  A 
ATOM     29  CE1 TYR S   4       7.104 -17.378  47.430  1.00 31.31 LIG 0.04  A 
ATOM     30  CD1 TYR S   4       7.527 -17.710  46.157  1.00 30.54 LIG 0.01  A 
BRANCH 28 31
ATOM     31 OH   TYR S   4       6.538 -15.809  49.078  1.00 36.86 LIG-0.36  OA
ATOM     32 HH   TYR S   4       6.070 -16.446  49.364  1.00 36.86 LIG 0.22  HD
ENDBRANCH 28 31
ENDBRANCH 24 25
ENDBRANCH 1 24
BRANCH 1 33
ATOM     33  C   TYR S   4       7.685 -16.977  41.387  1.00 27.93 LIG 0.24  C 
ATOM     34  N   LYS S   5       7.177 -17.797  40.478  1.00 28.19 LIG-0.35  N 
ATOM     35 H    LYS S   5       6.583 -18.391  40.663  1.00 28.19 LIG 0.16  HD
ATOM     36 O    TYR S   4       8.591 -16.182  41.142  1.00 25.57 LIG-0.27  OA
BRANCH 34 37
ATOM     37  CA  LYS S   5       7.566 -17.780  39.070  1.00 28.81 LIG 0.18  C 
BRANCH 37 38
ATOM     38  CB  LYS S   5       8.691 -18.794  38.805  1.00 29.54 LIG 0.04  C 
BRANCH 38 39
ATOM     39  CG  LYS S   5       9.932 -18.660  39.706  1.00 33.24 LIG 0.00  C 
BRANCH 39 40
ATOM     40  CD  LYS S   5      10.678 -17.354  39.475  1.00 37.34 LIG 0.03  C 
BRANCH 40 41
ATOM     41  CE  LYS S   5      10.722 -17.026  37.980  1.00 39.48 LIG 0.23  C 
BRANCH 41 42
ATOM     42  NZ  LYS S   5       9.893 -15.834  37.665  1.00 41.40 LIG-0.08  N 
ATOM     43 HZ2  LYS S   5      10.258 -15.389  36.986  1.00 41.40 LIG 0.27  HD
ATOM     44 HZ1  LYS S   5       9.852 -15.304  38.378  1.00 41.40 LIG 0.27  HD
ATOM     45 HZ3  LYS S   5       9.072 -16.094  37.441  1.00 41.40 LIG 0.27  HD
ENDBRANCH 41 42
ENDBRANCH 40 41
ENDBRANCH 39 40
ENDBRANCH 38 39
ENDBRANCH 37 38
BRANCH 37 46
ATOM     46  C   LYS S   5       6.325 -18.106  38.255  1.00 28.43 LIG 0.24  C 
ATOM     47  N   VAL S   6       6.353 -17.775  36.975  1.00 27.37 LIG-0.34  N 
ATOM     48 H    VAL S   6       7.057 -17.485  36.576  1.00 27.37 LIG 0.16  HD
ATOM     49 O    LYS S   5       5.351 -18.639  38.771  1.00 28.58 LIG-0.27  OA
BRANCH 47 50
ATOM     50  CA  VAL S   6       5.193 -17.873  36.122  1.00 26.91 LIG 0.19  C 
BRANCH 50 51
ATOM     51  C   VAL S   6       5.559 -18.140  34.654  1.00 27.47 LIG 0.20  C 
ATOM     52 O    VAL S   6       4.747 -18.059  33.714  1.00 25.37 LIG-0.65  OA
ATOM     53 OXT  VAL S   6       6.742 -18.414  34.457  1.00 29.74 LIG-0.65  OA
ENDBRANCH 50 51
BRANCH 50 54
ATOM     54  CB  VAL S   6       4.305 -16.609  36.232  1.00 26.80 LIG 0.01  C 
ATOM     55  CG2 VAL S   6       4.984 -15.520  37.083  1.00 26.48 LIG 0.01  C 
ATOM     56  CG1 VAL S   6       2.943 -16.955  36.815  1.00 26.60 LIG 0.01  C 
ENDBRANCH 50 54
ENDBRANCH 47 50
ENDBRANCH 37 46
ENDBRANCH 34 37
ENDBRANCH 1 33
TORSDOF 23
ENDMDL
MODEL 25
USER: ADFR SOLUTION from run 31
USER: SCORE 17.151283 LL:  -4.434 LR: -13.784 RR:   0.000 FEB:  -6.923
USER: RMSD 9.774292
USER: SEED 30
USER: STATUS no improvement in best in 8 clusters for 5 generations
USER: GENES 25
USER: genes 0 Translation |==|  0.53577 0.60345 0.51374
USER: genes 1 Rotation |==|  0.97778 0.61661 0.47943 0.58775
USER: genes 2 Torsion [C]-CA--N-[C] |==|  0.77648
USER: genes 3 Torsion [N]-C--CA-[N] |==|  0.99286
USER: genes 4 Torsion [C]-CA--N-[C] |==|  0.64444
USER: genes 5 Torsion [N]-C--CA-[N] |==|  0.03069
USER: genes 6 Torsion [C]-CA--CB-[CG] |==|  0.83027
USER: genes 7 Torsion [CA]-CB--CG-[ND2] |==|  0.40709
USER: genes 8 Torsion [C]-CA--CB-[CG] |==|  0.55772
USER: genes 9 Torsion [CA]-CB--CG-[CD] |==|  0.78571
USER: genes 10 Torsion [CB]-CG--CD-[OE1] |==|  0.39858
USER: genes 11 Torsion [N]-CA--CB-[CG] |==|  0.49768
USER: genes 12 Torsion [CA]-CB--CG-[CD1] |==|  0.08568
USER: genes 13 Torsion [CE2]-CZ--OH-[HH] |==|  0.64582
USER: genes 14 Torsion [N]-CA--C-[N] |==|  0.41822
USER: genes 15 Torsion [C]-N--CA-[C] |==|  0.64893
USER: genes 16 Torsion [N]-CA--CB-[CG] |==|  0.17252
USER: genes 17 Torsion [CA]-CB--CG-[CD] |==|  0.35541
USER: genes 18 Torsion [CB]-CG--CD-[CE] |==|  0.42854
USER: genes 19 Torsion [CG]-CD--CE-[NZ] |==|  0.72719
USER: genes 20 Torsion [CD]-CE--NZ-[HZ3] |==|  0.17749
USER: genes 21 Torsion [N]-CA--C-[N] |==|  0.61096
USER: genes 22 Torsion [C]-N--CA-[C] |==|  0.58553
USER: genes 23 Torsion [N]-CA--C-[O] |==|  0.94862
USER: genes 24 Torsion [N]-CA--CB-[CG2] |==|  0.06725
ROOT
ATOM      1  CA  TYR S   4       9.105 -17.102  41.534  1.00 28.42 LIG 0.18  C 
ENDROOT
BRANCH 1 2
ATOM      2  N   TYR S   4       8.822 -17.124  42.957  1.00 30.10 LIG-0.35  N 
ATOM      3 H    TYR S   4       9.416 -17.538  43.420  1.00 30.10 LIG 0.16  HD
ATOM      4  C   GLU S   3       7.751 -16.560  43.496  1.00 31.33 LIG 0.24  C 
ATOM      5 O    GLU S   3       6.857 -16.025  42.831  1.00 31.71 LIG-0.27  OA
BRANCH 4 6
ATOM      6  CA  GLU S   3       7.685 -16.602  45.010  1.00 32.63 LIG 0.18  C 
BRANCH 6 7
ATOM      7  N   GLU S   3       8.846 -17.341  45.533  1.00 32.63 LIG-0.35  N 
ATOM      8  C   ASN S   2       8.680 -18.335  46.383  1.00 33.77 LIG 0.26  C 
ATOM      9 O    ASN S   2       7.597 -18.604  46.879  1.00 34.52 LIG-0.27  OA
ATOM     10 H    GLU S   3       9.609 -17.071  45.242  1.00 32.63 LIG 0.16  HD
BRANCH 8 11
ATOM     11  CA  ASN S   2       9.927 -19.164  46.714  1.00 34.66 LIG 0.41  C 
ATOM     12  N   ASN S   2      11.175 -18.513  46.198  1.00 35.02 LIG 0.61  N 
BRANCH 11 13
ATOM     13  CB  ASN S   2       9.973 -19.366  48.241  1.00 35.18 LIG 0.15  C 
BRANCH 13 14
ATOM     14  CG  ASN S   2      10.075 -18.050  49.016  1.00 37.91 LIG 0.22  C 
ATOM     15 OD1  ASN S   2      10.684 -17.086  48.545  1.00 41.54 LIG-0.27  OA
ATOM     16  ND2 ASN S   2       9.461 -18.007  50.204  1.00 40.23 LIG-0.37  N 
ATOM     17 22HD ASN S   2       9.047 -18.701  50.498  1.00 40.23 LIG 0.16  HD
ATOM     18 21HD ASN S   2       9.481 -17.287  50.672  1.00 40.23 LIG 0.16  HD
ENDBRANCH 13 14
ENDBRANCH 11 13
ENDBRANCH 8 11
ENDBRANCH 6 7
BRANCH 6 19
ATOM     19  CB  GLU S   3       7.605 -15.200  45.607  1.00 32.72 LIG 0.04  C 
BRANCH 19 20
ATOM     20  CG  GLU S   3       8.021 -15.058  47.069  1.00 35.99 LIG 0.12  C 
BRANCH 20 21
ATOM     21  CD  GLU S   3       6.957 -15.547  48.050  1.00 39.18 LIG 0.17  C 
ATOM     22 OE1  GLU S   3       7.352 -16.124  49.088  1.00 41.46 LIG-0.65  OA
ATOM     23 OE2  GLU S   3       5.729 -15.351  47.796  1.00 41.34 LIG-0.65  OA
ENDBRANCH 20 21
ENDBRANCH 19 20
ENDBRANCH 6 19
ENDBRANCH 4 6
ENDBRANCH 1 2
BRANCH 1 24
ATOM     24  CB  TYR S   4      10.594 -17.310  41.328  1.00 28.42 LIG 0.07  C 
BRANCH 24 25
ATOM     25  CG  TYR S   4      10.988 -17.323  39.880  1.00 29.89 LIG-0.06  A 
ATOM     26  CD2 TYR S   4      12.083 -18.076  39.429  1.00 30.34 LIG 0.01  A 
ATOM     27  CE2 TYR S   4      12.442 -18.059  38.063  1.00 32.01 LIG 0.04  A 
ATOM     28  CZ  TYR S   4      11.693 -17.296  37.174  1.00 31.83 LIG 0.07  A 
ATOM     29  CE1 TYR S   4      10.632 -16.559  37.617  1.00 31.31 LIG 0.04  A 
ATOM     30  CD1 TYR S   4      10.282 -16.577  38.954  1.00 30.54 LIG 0.01  A 
BRANCH 28 31
ATOM     31 OH   TYR S   4      12.007 -17.202  35.831  1.00 36.86 LIG-0.36  OA
ATOM     32 HH   TYR S   4      12.059 -16.393  35.610  1.00 36.86 LIG 0.22  HD
ENDBRANCH 28 31
ENDBRANCH 24 25
ENDBRANCH 1 24
BRANCH 1 33
ATOM     33  C   TYR S   4       8.278 -18.186  40.859  1.00 27.93 LIG 0.24  C 
ATOM     34  N   LYS S   5       7.929 -17.954  39.601  1.00 28.19 LIG-0.35  N 
ATOM     35 H    LYS S   5       8.144 -17.235  39.180  1.00 28.19 LIG 0.16  HD
ATOM     36 O    TYR S   4       7.903 -19.174  41.488  1.00 25.57 LIG-0.27  OA
BRANCH 34 37
ATOM     37  CA  LYS S   5       7.144 -18.887  38.797  1.00 28.81 LIG 0.18  C 
BRANCH 37 38
ATOM     38  CB  LYS S   5       5.749 -18.311  38.502  1.00 29.54 LIG 0.04  C 
BRANCH 38 39
ATOM     39  CG  LYS S   5       5.728 -17.006  37.685  1.00 33.24 LIG 0.00  C 
BRANCH 39 40
ATOM     40  CD  LYS S   5       4.812 -17.095  36.475  1.00 37.34 LIG 0.03  C 
BRANCH 40 41
ATOM     41  CE  LYS S   5       4.319 -15.700  36.079  1.00 39.48 LIG 0.23  C 
BRANCH 41 42
ATOM     42  NZ  LYS S   5       2.960 -15.435  36.620  1.00 41.40 LIG-0.08  N 
ATOM     43 HZ2  LYS S   5       2.402 -16.071  36.346  1.00 41.40 LIG 0.27  HD
ATOM     44 HZ1  LYS S   5       2.674 -14.644  36.330  1.00 41.40 LIG 0.27  HD
ATOM     45 HZ3  LYS S   5       2.990 -15.432  37.510  1.00 41.40 LIG 0.27  HD
ENDBRANCH 41 42
ENDBRANCH 40 41
ENDBRANCH 39 40
ENDBRANCH 38 39
ENDBRANCH 37 38
BRANCH 37 46
ATOM     46  C   LYS S   5       7.919 -19.141  37.516  1.00 28.43 LIG 0.24  C 
ATOM     47  N   VAL S   6       7.213 -19.216  36.400  1.00 27.37 LIG-0.34  N 
ATOM     48 H    VAL S   6       6.373 -19.033  36.357  1.00 27.37 LIG 0.16  HD
ATOM     49 O    LYS S   5       9.135 -19.279  37.528  1.00 28.58 LIG-0.27  OA
BRANCH 47 50
ATOM     50  CA  VAL S   6       7.791 -19.614  35.139  1.00 26.91 LIG 0.19  C 
BRANCH 50 51
ATOM     51  C   VAL S   6       7.103 -18.951  33.936  1.00 27.47 LIG 0.20  C 
ATOM     52 O    VAL S   6       5.972 -18.433  33.987  1.00 25.37 LIG-0.65  OA
ATOM     53 OXT  VAL S   6       7.770 -18.933  32.902  1.00 29.74 LIG-0.65  OA
ENDBRANCH 50 51
BRANCH 50 54
ATOM     54  CB  VAL S   6       7.786 -21.154  34.979  1.00 26.80 LIG 0.01  C 
ATOM     55  CG2 VAL S   6       6.688 -21.803  35.842  1.00 26.48 LIG 0.01  C 
ATOM     56  CG1 VAL S   6       9.145 -21.740  35.334  1.00 26.60 LIG 0.01  C 
ENDBRANCH 50 54
ENDBRANCH 47 50
ENDBRANCH 37 46
ENDBRANCH 34 37
ENDBRANCH 1 33
TORSDOF 23
ENDMDL
MODEL 26
USER: ADFR SOLUTION from run 74
USER: SCORE 18.246326 LL:  -4.899 LR: -13.741 RR:   0.000 FEB:  -6.880
USER: RMSD 8.948935
USER: SEED 73
USER: STATUS no improvement in best in 5 clusters for 5 generations
USER: GENES 25
USER: genes 0 Translation |==|  0.53517 0.60896 0.52639
USER: genes 1 Rotation |==|  0.97421 0.61670 0.47322 0.60387
USER: genes 2 Torsion [C]-CA--N-[C] |==|  0.77488
USER: genes 3 Torsion [N]-C--CA-[N] |==|  0.98740
USER: genes 4 Torsion [C]-CA--N-[C] |==|  0.73050
USER: genes 5 Torsion [N]-C--CA-[N] |==|  0.87926
USER: genes 6 Torsion [C]-CA--CB-[CG] |==|  0.77276
USER: genes 7 Torsion [CA]-CB--CG-[ND2] |==|  0.70559
USER: genes 8 Torsion [C]-CA--CB-[CG] |==|  0.50826
USER: genes 9 Torsion [CA]-CB--CG-[CD] |==|  0.88413
USER: genes 10 Torsion [CB]-CG--CD-[OE1] |==|  0.87829
USER: genes 11 Torsion [N]-CA--CB-[CG] |==|  0.50562
USER: genes 12 Torsion [CA]-CB--CG-[CD1] |==|  0.08390
USER: genes 13 Torsion [CE2]-CZ--OH-[HH] |==|  0.64773
USER: genes 14 Torsion [N]-CA--C-[N] |==|  0.33483
USER: genes 15 Torsion [C]-N--CA-[C] |==|  0.53961
USER: genes 16 Torsion [N]-CA--CB-[CG] |==|  0.76293
USER: genes 17 Torsion [CA]-CB--CG-[CD] |==|  0.37027
USER: genes 18 Torsion [CB]-CG--CD-[CE] |==|  0.81598
USER: genes 19 Torsion [CG]-CD--CE-[NZ] |==|  0.44387
USER: genes 20 Torsion [CD]-CE--NZ-[HZ3] |==|  0.63591
USER: genes 21 Torsion [N]-CA--C-[N] |==|  0.48291
USER: genes 22 Torsion [C]-N--CA-[C] |==|  0.17811
USER: genes 23 Torsion [N]-CA--C-[O] |==|  0.93438
USER: genes 24 Torsion [N]-CA--CB-[CG2] |==|  0.65570
ROOT
ATOM      1  CA  TYR S   4       9.093 -17.011  41.837  1.00 28.42 LIG 0.18  C 
ENDROOT
BRANCH 1 2
ATOM      2  N   TYR S   4       8.823 -16.934  43.261  1.00 30.10 LIG-0.35  N 
ATOM      3 H    TYR S   4       9.418 -17.321  43.746  1.00 30.10 LIG 0.16  HD
ATOM      4  C   GLU S   3       7.761 -16.326  43.770  1.00 31.33 LIG 0.24  C 
ATOM      5 O    GLU S   3       6.865 -15.830  43.079  1.00 31.71 LIG-0.27  OA
BRANCH 4 6
ATOM      6  CA  GLU S   3       7.710 -16.264  45.284  1.00 32.63 LIG 0.18  C 
BRANCH 6 7
ATOM      7  N   GLU S   3       8.844 -17.015  45.847  1.00 32.63 LIG-0.35  N 
ATOM      8  C   ASN S   2       8.689 -18.262  46.248  1.00 33.77 LIG 0.26  C 
ATOM      9 O    ASN S   2       7.597 -18.805  46.304  1.00 34.52 LIG-0.27  OA
ATOM     10 H    GLU S   3       9.584 -16.579  45.886  1.00 32.63 LIG 0.16  HD
BRANCH 8 11
ATOM     11  CA  ASN S   2       9.967 -19.018  46.632  1.00 34.66 LIG 0.41  C 
ATOM     12  N   ASN S   2      11.070 -18.772  45.647  1.00 35.02 LIG 0.61  N 
BRANCH 11 13
ATOM     13  CB  ASN S   2      10.365 -18.589  48.058  1.00 35.18 LIG 0.15  C 
BRANCH 13 14
ATOM     14  CG  ASN S   2      11.132 -17.265  48.092  1.00 37.91 LIG 0.22  C 
ATOM     15 OD1  ASN S   2      10.547 -16.193  47.923  1.00 41.54 LIG-0.27  OA
ATOM     16  ND2 ASN S   2      12.446 -17.343  48.329  1.00 40.23 LIG-0.37  N 
ATOM     17 22HD ASN S   2      12.818 -18.109  48.441  1.00 40.23 LIG 0.16  HD
ATOM     18 21HD ASN S   2      12.919 -16.625  48.368  1.00 40.23 LIG 0.16  HD
ENDBRANCH 13 14
ENDBRANCH 11 13
ENDBRANCH 8 11
ENDBRANCH 6 7
BRANCH 6 19
ATOM     19  CB  GLU S   3       7.695 -14.824  45.786  1.00 32.72 LIG 0.04  C 
BRANCH 19 20
ATOM     20  CG  GLU S   3       7.714 -14.631  47.300  1.00 35.99 LIG 0.12  C 
BRANCH 20 21
ATOM     21  CD  GLU S   3       6.807 -15.608  48.046  1.00 39.18 LIG 0.17  C 
ATOM     22 OE1  GLU S   3       5.666 -15.809  47.574  1.00 41.46 LIG-0.65  OA
ATOM     23 OE2  GLU S   3       7.229 -16.184  49.095  1.00 41.34 LIG-0.65  OA
ENDBRANCH 20 21
ENDBRANCH 19 20
ENDBRANCH 6 19
ENDBRANCH 4 6
ENDBRANCH 1 2
BRANCH 1 24
ATOM     24  CB  TYR S   4      10.580 -17.230  41.632  1.00 28.42 LIG 0.07  C 
BRANCH 24 25
ATOM     25  CG  TYR S   4      10.970 -17.276  40.184  1.00 29.89 LIG-0.06  A 
ATOM     26  CD2 TYR S   4      12.069 -18.033  39.749  1.00 30.34 LIG 0.01  A 
ATOM     27  CE2 TYR S   4      12.424 -18.047  38.382  1.00 32.01 LIG 0.04  A 
ATOM     28  CZ  TYR S   4      11.669 -17.309  37.476  1.00 31.83 LIG 0.07  A 
ATOM     29  CE1 TYR S   4      10.604 -16.568  37.905  1.00 31.31 LIG 0.04  A 
ATOM     30  CD1 TYR S   4      10.257 -16.556  39.243  1.00 30.54 LIG 0.01  A 
BRANCH 28 31
ATOM     31 OH   TYR S   4      11.979 -17.246  36.131  1.00 36.86 LIG-0.36  OA
ATOM     32 HH   TYR S   4      12.035 -16.442  35.893  1.00 36.86 LIG 0.22  HD
ENDBRANCH 28 31
ENDBRANCH 24 25
ENDBRANCH 1 24
BRANCH 1 33
ATOM     33  C   TYR S   4       8.262 -18.141  41.247  1.00 27.93 LIG 0.24  C 
ATOM     34  N   LYS S   5       7.408 -17.799  40.293  1.00 28.19 LIG-0.35  N 
ATOM     35 H    LYS S   5       7.313 -16.990  40.017  1.00 28.19 LIG 0.16  HD
ATOM     36 O    TYR S   4       8.341 -19.282  41.700  1.00 25.57 LIG-0.27  OA
BRANCH 34 37
ATOM     37  CA  LYS S   5       6.538 -18.753  39.610  1.00 28.81 LIG 0.18  C 
BRANCH 37 38
ATOM     38  CB  LYS S   5       5.405 -19.219  40.539  1.00 29.54 LIG 0.04  C 
BRANCH 38 39
ATOM     39  CG  LYS S   5       5.749 -20.397  41.468  1.00 33.24 LIG 0.00  C 
BRANCH 39 40
ATOM     40  CD  LYS S   5       5.304 -20.153  42.902  1.00 37.34 LIG 0.03  C 
BRANCH 40 41
ATOM     41  CE  LYS S   5       6.104 -18.999  43.516  1.00 39.48 LIG 0.23  C 
BRANCH 41 42
ATOM     42  NZ  LYS S   5       5.401 -18.422  44.691  1.00 41.40 LIG-0.08  N 
ATOM     43 HZ2  LYS S   5       5.837 -18.640  45.435  1.00 41.40 LIG 0.27  HD
ATOM     44 HZ1  LYS S   5       4.572 -18.743  44.728  1.00 41.40 LIG 0.27  HD
ATOM     45 HZ3  LYS S   5       5.373 -17.535  44.614  1.00 41.40 LIG 0.27  HD
ENDBRANCH 41 42
ENDBRANCH 40 41
ENDBRANCH 39 40
ENDBRANCH 38 39
ENDBRANCH 37 38
BRANCH 37 46
ATOM     46  C   LYS S   5       5.990 -18.059  38.374  1.00 28.43 LIG 0.24  C 
ATOM     47  N   VAL S   6       5.274 -18.801  37.547  1.00 27.37 LIG-0.34  N 
ATOM     48 H    VAL S   6       5.030 -19.607  37.722  1.00 27.37 LIG 0.16  HD
ATOM     49 O    LYS S   5       6.215 -16.875  38.161  1.00 28.58 LIG-0.27  OA
BRANCH 47 50
ATOM     50  CA  VAL S   6       4.832 -18.322  36.259  1.00 26.91 LIG 0.19  C 
BRANCH 50 51
ATOM     51  C   VAL S   6       5.999 -18.023  35.306  1.00 27.47 LIG 0.20  C 
ATOM     52 O    VAL S   6       7.155 -17.762  35.689  1.00 25.37 LIG-0.65  OA
ATOM     53 OXT  VAL S   6       5.722 -18.091  34.108  1.00 29.74 LIG-0.65  OA
ENDBRANCH 50 51
BRANCH 50 54
ATOM     54  CB  VAL S   6       3.925 -17.075  36.403  1.00 26.80 LIG 0.01  C 
ATOM     55  CG2 VAL S   6       2.559 -17.294  35.726  1.00 26.48 LIG 0.01  C 
ATOM     56  CG1 VAL S   6       4.604 -15.842  35.824  1.00 26.60 LIG 0.01  C 
ENDBRANCH 50 54
ENDBRANCH 47 50
ENDBRANCH 37 46
ENDBRANCH 34 37
ENDBRANCH 1 33
TORSDOF 23
ENDMDL
MODEL 27
USER: ADFR SOLUTION from run 101
USER: SCORE 18.641833 LL:  -5.765 LR: -13.729 RR:   0.000 FEB:  -6.868
USER: RMSD 9.421622
USER: SEED 100
USER: STATUS no improvement in best in 10 clusters for 5 generations
USER: GENES 25
USER: genes 0 Translation |==|  0.60000 0.57142 0.77479
USER: genes 1 Rotation |==|  0.77677 0.35043 0.88060 0.57857
USER: genes 2 Torsion [C]-CA--N-[C] |==|  0.83325
USER: genes 3 Torsion [N]-C--CA-[N] |==|  0.84930
USER: genes 4 Torsion [C]-CA--N-[C] |==|  0.83820
USER: genes 5 Torsion [N]-C--CA-[N] |==|  0.03252
USER: genes 6 Torsion [C]-CA--CB-[CG] |==|  0.90414
USER: genes 7 Torsion [CA]-CB--CG-[ND2] |==|  0.40036
USER: genes 8 Torsion [C]-CA--CB-[CG] |==|  0.93489
USER: genes 9 Torsion [CA]-CB--CG-[CD] |==|  0.74296
USER: genes 10 Torsion [CB]-CG--CD-[OE1] |==|  0.40415
USER: genes 11 Torsion [N]-CA--CB-[CG] |==|  0.52423
USER: genes 12 Torsion [CA]-CB--CG-[CD1] |==|  0.72546
USER: genes 13 Torsion [CE2]-CZ--OH-[HH] |==|  0.26487
USER: genes 14 Torsion [N]-CA--C-[N] |==|  0.92102
USER: genes 15 Torsion [C]-N--CA-[C] |==|  0.54751
USER: genes 16 Torsion [N]-CA--CB-[CG] |==|  0.65490
USER: genes 17 Torsion [CA]-CB--CG-[CD] |==|  0.04899
USER: genes 18 Torsion [CB]-CG--CD-[CE] |==|  0.74857
USER: genes 19 Torsion [CG]-CD--CE-[NZ] |==|  0.56000
USER: genes 20 Torsion [CD]-CE--NZ-[HZ3] |==|  0.81585
USER: genes 21 Torsion [N]-CA--C-[N] |==|  0.31846
USER: genes 22 Torsion [C]-N--CA-[C] |==|  0.84142
USER: genes 23 Torsion [N]-CA--C-[O] |==|  0.37355
USER: genes 24 Torsion [N]-CA--CB-[CG2] |==|  0.01318
ROOT
ATOM      1  CA  TYR S   4      10.454 -17.631  47.799  1.00 28.42 LIG 0.18  C 
ENDROOT
BRANCH 1 2
ATOM      2  N   TYR S   4       9.435 -17.013  46.970  1.00 30.10 LIG-0.35  N 
ATOM      3 H    TYR S   4       8.636 -17.269  47.159  1.00 30.10 LIG 0.16  HD
ATOM      4  C   GLU S   3       9.706 -16.138  46.012  1.00 31.33 LIG 0.24  C 
ATOM      5 O    GLU S   3      10.855 -15.820  45.688  1.00 31.71 LIG-0.27  OA
BRANCH 4 6
ATOM      6  CA  GLU S   3       8.499 -15.529  45.326  1.00 32.63 LIG 0.18  C 
BRANCH 6 7
ATOM      7  N   GLU S   3       7.627 -16.601  44.820  1.00 32.63 LIG-0.35  N 
ATOM      8  C   ASN S   2       8.087 -17.493  43.966  1.00 33.77 LIG 0.26  C 
ATOM      9 O    ASN S   2       9.192 -17.404  43.451  1.00 34.52 LIG-0.27  OA
ATOM     10 H    GLU S   3       6.822 -16.588  45.125  1.00 32.63 LIG 0.16  HD
BRANCH 8 11
ATOM     11  CA  ASN S   2       7.166 -18.678  43.652  1.00 34.66 LIG 0.41  C 
ATOM     12  N   ASN S   2       5.779 -18.451  44.176  1.00 35.02 LIG 0.61  N 
BRANCH 11 13
ATOM     13  CB  ASN S   2       7.174 -18.899  42.127  1.00 35.18 LIG 0.15  C 
BRANCH 13 14
ATOM     14  CG  ASN S   2       7.296 -17.595  41.334  1.00 37.91 LIG 0.22  C 
ATOM     15 OD1  ASN S   2       6.763 -16.559  41.739  1.00 41.54 LIG-0.27  OA
ATOM     16  ND2 ASN S   2       8.015 -17.646  40.208  1.00 40.23 LIG-0.37  N 
ATOM     17 22HD ASN S   2       8.371 -18.388  39.959  1.00 40.23 LIG 0.16  HD
ATOM     18 21HD ASN S   2       8.121 -16.937  39.733  1.00 40.23 LIG 0.16  HD
ENDBRANCH 13 14
ENDBRANCH 11 13
ENDBRANCH 8 11
ENDBRANCH 6 7
BRANCH 6 19
ATOM     19  CB  GLU S   3       7.740 -14.590  46.258  1.00 32.72 LIG 0.04  C 
BRANCH 19 20
ATOM     20  CG  GLU S   3       7.921 -14.823  47.755  1.00 35.99 LIG 0.12  C 
BRANCH 20 21
ATOM     21  CD  GLU S   3       6.863 -15.746  48.356  1.00 39.18 LIG 0.17  C 
ATOM     22 OE1  GLU S   3       7.221 -16.506  49.284  1.00 41.46 LIG-0.65  OA
ATOM     23 OE2  GLU S   3       5.674 -15.712  47.915  1.00 41.34 LIG-0.65  OA
ENDBRANCH 20 21
ENDBRANCH 19 20
ENDBRANCH 6 19
ENDBRANCH 4 6
ENDBRANCH 1 2
BRANCH 1 24
ATOM     24  CB  TYR S   4       9.778 -18.529  48.817  1.00 28.42 LIG 0.07  C 
BRANCH 24 25
ATOM     25  CG  TYR S   4      10.725 -19.053  49.856  1.00 29.89 LIG-0.06  A 
ATOM     26  CD2 TYR S   4      11.110 -18.269  50.955  1.00 30.34 LIG 0.01  A 
ATOM     27  CE2 TYR S   4      12.016 -18.781  51.910  1.00 32.01 LIG 0.04  A 
ATOM     28  CZ  TYR S   4      12.513 -20.070  51.752  1.00 31.83 LIG 0.07  A 
ATOM     29  CE1 TYR S   4      12.141 -20.828  50.677  1.00 31.31 LIG 0.04  A 
ATOM     30  CD1 TYR S   4      11.255 -20.325  49.744  1.00 30.54 LIG 0.01  A 
BRANCH 28 31
ATOM     31 OH   TYR S   4      13.430 -20.623  52.625  1.00 36.86 LIG-0.36  OA
ATOM     32 HH   TYR S   4      13.027 -21.080  53.204  1.00 36.86 LIG 0.22  HD
ENDBRANCH 28 31
ENDBRANCH 24 25
ENDBRANCH 1 24
BRANCH 1 33
ATOM     33  C   TYR S   4      11.408 -18.403  46.900  1.00 27.93 LIG 0.24  C 
ATOM     34  N   LYS S   5      10.895 -18.870  45.771  1.00 28.19 LIG-0.35  N 
ATOM     35 H    LYS S   5      10.072 -18.756  45.548  1.00 28.19 LIG 0.16  HD
ATOM     36 O    TYR S   4      12.561 -18.634  47.259  1.00 25.57 LIG-0.27  OA
BRANCH 34 37
ATOM     37  CA  LYS S   5      11.666 -19.625  44.787  1.00 28.81 LIG 0.18  C 
BRANCH 37 38
ATOM     38  CB  LYS S   5      11.908 -21.064  45.273  1.00 29.54 LIG 0.04  C 
BRANCH 38 39
ATOM     39  CG  LYS S   5      13.381 -21.506  45.333  1.00 33.24 LIG 0.00  C 
BRANCH 39 40
ATOM     40  CD  LYS S   5      14.341 -20.327  45.312  1.00 37.34 LIG 0.03  C 
BRANCH 40 41
ATOM     41  CE  LYS S   5      14.727 -19.982  43.870  1.00 39.48 LIG 0.23  C 
BRANCH 41 42
ATOM     42  NZ  LYS S   5      16.005 -19.225  43.821  1.00 41.40 LIG-0.08  N 
ATOM     43 HZ2  LYS S   5      16.253 -19.116  42.973  1.00 41.40 LIG 0.27  HD
ATOM     44 HZ1  LYS S   5      16.635 -19.677  44.258  1.00 41.40 LIG 0.27  HD
ATOM     45 HZ3  LYS S   5      15.893 -18.428  44.201  1.00 41.40 LIG 0.27  HD
ENDBRANCH 41 42
ENDBRANCH 40 41
ENDBRANCH 39 40
ENDBRANCH 38 39
ENDBRANCH 37 38
BRANCH 37 46
ATOM     46  C   LYS S   5      10.879 -19.606  43.487  1.00 28.43 LIG 0.24  C 
ATOM     47  N   VAL S   6      11.432 -18.967  42.469  1.00 27.37 LIG-0.34  N 
ATOM     48 H    VAL S   6      12.235 -18.658  42.483  1.00 27.37 LIG 0.16  HD
ATOM     49 O    LYS S   5       9.786 -20.149  43.400  1.00 28.58 LIG-0.27  OA
BRANCH 47 50
ATOM     50  CA  VAL S   6      10.731 -18.727  41.230  1.00 26.91 LIG 0.19  C 
BRANCH 50 51
ATOM     51  C   VAL S   6      10.229 -20.022  40.574  1.00 27.47 LIG 0.20  C 
ATOM     52 O    VAL S   6       9.084 -20.159  40.104  1.00 25.37 LIG-0.65  OA
ATOM     53 OXT  VAL S   6      11.060 -20.927  40.510  1.00 29.74 LIG-0.65  OA
ENDBRANCH 50 51
BRANCH 50 54
ATOM     54  CB  VAL S   6      11.606 -17.926  40.235  1.00 26.80 LIG 0.01  C 
ATOM     55  CG2 VAL S   6      13.025 -17.704  40.789  1.00 26.48 LIG 0.01  C 
ATOM     56  CG1 VAL S   6      10.960 -16.589  39.902  1.00 26.60 LIG 0.01  C 
ENDBRANCH 50 54
ENDBRANCH 47 50
ENDBRANCH 37 46
ENDBRANCH 34 37
ENDBRANCH 1 33
TORSDOF 23
ENDMDL
MODEL 28
USER: ADFR SOLUTION from run 146
USER: SCORE 17.946752 LL:  -5.642 LR: -13.695 RR:   0.000 FEB:  -6.834
USER: RMSD 9.624116
USER: SEED 145
USER: STATUS no improvement in best in 9 clusters for 5 generations
USER: GENES 25
USER: genes 0 Translation |==|  0.46524 0.60661 0.63825
USER: genes 1 Rotation |==|  0.29838 0.08539 0.39993 0.66562
USER: genes 2 Torsion [C]-CA--N-[C] |==|  0.19700
USER: genes 3 Torsion [N]-C--CA-[N] |==|  0.25050
USER: genes 4 Torsion [C]-CA--N-[C] |==|  0.54343
USER: genes 5 Torsion [N]-C--CA-[N] |==|  0.97664
USER: genes 6 Torsion [C]-CA--CB-[CG] |==|  0.77259
USER: genes 7 Torsion [CA]-CB--CG-[ND2] |==|  0.39466
USER: genes 8 Torsion [C]-CA--CB-[CG] |==|  0.36088
USER: genes 9 Torsion [CA]-CB--CG-[CD] |==|  0.75976
USER: genes 10 Torsion [CB]-CG--CD-[OE1] |==|  0.21968
USER: genes 11 Torsion [N]-CA--CB-[CG] |==|  0.89527
USER: genes 12 Torsion [CA]-CB--CG-[CD1] |==|  0.35607
USER: genes 13 Torsion [CE2]-CZ--OH-[HH] |==|  0.21227
USER: genes 14 Torsion [N]-CA--C-[N] |==|  0.96495
USER: genes 15 Torsion [C]-N--CA-[C] |==|  0.80182
USER: genes 16 Torsion [N]-CA--CB-[CG] |==|  0.52939
USER: genes 17 Torsion [CA]-CB--CG-[CD] |==|  0.83138
USER: genes 18 Torsion [CB]-CG--CD-[CE] |==|  0.37550
USER: genes 19 Torsion [CG]-CD--CE-[NZ] |==|  0.80304
USER: genes 20 Torsion [CD]-CE--NZ-[HZ3] |==|  0.76195
USER: genes 21 Torsion [N]-CA--C-[N] |==|  0.34104
USER: genes 22 Torsion [C]-N--CA-[C] |==|  0.59257
USER: genes 23 Torsion [N]-CA--C-[O] |==|  0.98901
USER: genes 24 Torsion [N]-CA--CB-[CG2] |==|  0.86480
ROOT
ATOM      1  CA  TYR S   4       7.624 -17.050  44.522  1.00 28.42 LIG 0.18  C 
ENDROOT
BRANCH 1 2
ATOM      2  N   TYR S   4       8.631 -17.904  45.124  1.00 30.10 LIG-0.35  N 
ATOM      3 H    TYR S   4       8.345 -18.692  45.314  1.00 30.10 LIG 0.16  HD
ATOM      4  C   GLU S   3       9.875 -17.511  45.359  1.00 31.33 LIG 0.24  C 
ATOM      5 O    GLU S   3      10.274 -16.360  45.154  1.00 31.71 LIG-0.27  OA
BRANCH 4 6
ATOM      6  CA  GLU S   3      10.804 -18.580  45.899  1.00 32.63 LIG 0.18  C 
BRANCH 6 7
ATOM      7  N   GLU S   3      11.464 -19.270  44.779  1.00 32.63 LIG-0.35  N 
ATOM      8  C   ASN S   2      12.074 -20.424  44.968  1.00 33.77 LIG 0.26  C 
ATOM      9 O    ASN S   2      12.242 -20.906  46.078  1.00 34.52 LIG-0.27  OA
ATOM     10 H    GLU S   3      11.415 -18.864  44.022  1.00 32.63 LIG 0.16  HD
BRANCH 8 11
ATOM     11  CA  ASN S   2      12.556 -21.155  43.710  1.00 34.66 LIG 0.41  C 
ATOM     12  N   ASN S   2      12.054 -20.493  42.461  1.00 35.02 LIG 0.61  N 
BRANCH 11 13
ATOM     13  CB  ASN S   2      14.096 -21.210  43.751  1.00 35.18 LIG 0.15  C 
BRANCH 13 14
ATOM     14  CG  ASN S   2      14.754 -19.919  43.258  1.00 37.91 LIG 0.22  C 
ATOM     15 OD1  ASN S   2      14.270 -19.284  42.318  1.00 41.54 LIG-0.27  OA
ATOM     16  ND2 ASN S   2      15.855 -19.525  43.908  1.00 40.23 LIG-0.37  N 
ATOM     17 22HD ASN S   2      16.162 -19.996  44.558  1.00 40.23 LIG 0.16  HD
ATOM     18 21HD ASN S   2      16.255 -18.800  43.675  1.00 40.23 LIG 0.16  HD
ENDBRANCH 13 14
ENDBRANCH 11 13
ENDBRANCH 8 11
ENDBRANCH 6 7
BRANCH 6 19
ATOM     19  CB  GLU S   3      11.826 -17.997  46.870  1.00 32.72 LIG 0.04  C 
BRANCH 19 20
ATOM     20  CG  GLU S   3      11.968 -18.705  48.215  1.00 35.99 LIG 0.12  C 
BRANCH 20 21
ATOM     21  CD  GLU S   3      10.975 -18.212  49.265  1.00 39.18 LIG 0.17  C 
ATOM     22 OE1  GLU S   3       9.803 -18.647  49.200  1.00 41.46 LIG-0.65  OA
ATOM     23 OE2  GLU S   3      11.358 -17.401  50.163  1.00 41.34 LIG-0.65  OA
ENDBRANCH 20 21
ENDBRANCH 19 20
ENDBRANCH 6 19
ENDBRANCH 4 6
ENDBRANCH 1 2
BRANCH 1 24
ATOM     24  CB  TYR S   4       7.577 -15.738  45.282  1.00 28.42 LIG 0.07  C 
BRANCH 24 25
ATOM     25  CG  TYR S   4       7.766 -15.912  46.761  1.00 29.89 LIG-0.06  A 
ATOM     26  CD2 TYR S   4       6.981 -16.814  47.495  1.00 30.34 LIG 0.01  A 
ATOM     27  CE2 TYR S   4       7.168 -16.948  48.889  1.00 32.01 LIG 0.04  A 
ATOM     28  CZ  TYR S   4       8.143 -16.182  49.519  1.00 31.83 LIG 0.07  A 
ATOM     29  CE1 TYR S   4       8.901 -15.299  48.802  1.00 31.31 LIG 0.04  A 
ATOM     30  CD1 TYR S   4       8.717 -15.170  47.439  1.00 30.54 LIG 0.01  A 
BRANCH 28 31
ATOM     31 OH   TYR S   4       8.358 -16.232  50.884  1.00 36.86 LIG-0.36  OA
ATOM     32 HH   TYR S   4       8.777 -16.934  51.077  1.00 36.86 LIG 0.22  HD
ENDBRANCH 28 31
ENDBRANCH 24 25
ENDBRANCH 1 24
BRANCH 1 33
ATOM     33  C   TYR S   4       7.973 -16.848  43.055  1.00 27.93 LIG 0.24  C 
ATOM     34  N   LYS S   5       9.188 -17.230  42.687  1.00 28.19 LIG-0.35  N 
ATOM     35 H    LYS S   5       9.758 -17.569  43.235  1.00 28.19 LIG 0.16  HD
ATOM     36 O    TYR S   4       7.186 -16.288  42.293  1.00 25.57 LIG-0.27  OA
BRANCH 34 37
ATOM     37  CA  LYS S   5       9.688 -17.118  41.320  1.00 28.81 LIG 0.18  C 
BRANCH 37 38
ATOM     38  CB  LYS S   5      11.209 -17.336  41.277  1.00 29.54 LIG 0.04  C 
BRANCH 38 39
ATOM     39  CG  LYS S   5      11.893 -16.995  39.941  1.00 33.24 LIG 0.00  C 
BRANCH 39 40
ATOM     40  CD  LYS S   5      11.367 -17.837  38.789  1.00 37.34 LIG 0.03  C 
BRANCH 40 41
ATOM     41  CE  LYS S   5      11.108 -16.956  37.563  1.00 39.48 LIG 0.23  C 
BRANCH 41 42
ATOM     42  NZ  LYS S   5       9.930 -16.074  37.772  1.00 41.40 LIG-0.08  N 
ATOM     43 HZ2  LYS S   5      10.007 -15.350  37.262  1.00 41.40 LIG 0.27  HD
ATOM     44 HZ1  LYS S   5       9.889 -15.832  38.627  1.00 41.40 LIG 0.27  HD
ATOM     45 HZ3  LYS S   5       9.188 -16.513  37.552  1.00 41.40 LIG 0.27  HD
ENDBRANCH 41 42
ENDBRANCH 40 41
ENDBRANCH 39 40
ENDBRANCH 38 39
ENDBRANCH 37 38
BRANCH 37 46
ATOM     46  C   LYS S   5       8.958 -18.157  40.485  1.00 28.43 LIG 0.24  C 
ATOM     47  N   VAL S   6       8.288 -17.711  39.436  1.00 27.37 LIG-0.34  N 
ATOM     48 H    VAL S   6       8.329 -16.898  39.158  1.00 27.37 LIG 0.16  HD
ATOM     49 O    LYS S   5       8.986 -19.343  40.785  1.00 28.58 LIG-0.27  OA
BRANCH 47 50
ATOM     50  CA  VAL S   6       7.417 -18.555  38.653  1.00 26.91 LIG 0.19  C 
BRANCH 50 51
ATOM     51  C   VAL S   6       7.403 -18.172  37.165  1.00 27.47 LIG 0.20  C 
ATOM     52 O    VAL S   6       8.014 -17.193  36.698  1.00 25.37 LIG-0.65  OA
ATOM     53 OXT  VAL S   6       6.762 -18.933  36.440  1.00 29.74 LIG-0.65  OA
ENDBRANCH 50 51
BRANCH 50 54
ATOM     54  CB  VAL S   6       5.977 -18.558  39.220  1.00 26.80 LIG 0.01  C 
ATOM     55  CG2 VAL S   6       5.973 -18.803  40.740  1.00 26.48 LIG 0.01  C 
ATOM     56  CG1 VAL S   6       5.122 -19.604  38.519  1.00 26.60 LIG 0.01  C 
ENDBRANCH 50 54
ENDBRANCH 47 50
ENDBRANCH 37 46
ENDBRANCH 34 37
ENDBRANCH 1 33
TORSDOF 23
ENDMDL
MODEL 29
USER: ADFR SOLUTION from run 90
USER: SCORE 17.690320 LL:  -4.822 LR: -13.680 RR:   0.000 FEB:  -6.819
USER: RMSD 8.887553
USER: SEED 89
USER: STATUS searching
USER: GENES 25
USER: genes 0 Translation |==|  0.64143 0.57195 0.74905
USER: genes 1 Rotation |==|  0.71613 0.48964 0.87817 0.74529
USER: genes 2 Torsion [C]-CA--N-[C] |==|  0.61450
USER: genes 3 Torsion [N]-C--CA-[N] |==|  0.78553
USER: genes 4 Torsion [C]-CA--N-[C] |==|  0.59600
USER: genes 5 Torsion [N]-C--CA-[N] |==|  0.21397
USER: genes 6 Torsion [C]-CA--CB-[CG] |==|  0.30174
USER: genes 7 Torsion [CA]-CB--CG-[ND2] |==|  0.53890
USER: genes 8 Torsion [C]-CA--CB-[CG] |==|  0.74942
USER: genes 9 Torsion [CA]-CB--CG-[CD] |==|  0.80375
USER: genes 10 Torsion [CB]-CG--CD-[OE1] |==|  0.36880
USER: genes 11 Torsion [N]-CA--CB-[CG] |==|  0.98774
USER: genes 12 Torsion [CA]-CB--CG-[CD1] |==|  0.76508
USER: genes 13 Torsion [CE2]-CZ--OH-[HH] |==|  0.77376
USER: genes 14 Torsion [N]-CA--C-[N] |==|  0.42930
USER: genes 15 Torsion [C]-N--CA-[C] |==|  0.79659
USER: genes 16 Torsion [N]-CA--CB-[CG] |==|  0.68428
USER: genes 17 Torsion [CA]-CB--CG-[CD] |==|  0.72873
USER: genes 18 Torsion [CB]-CG--CD-[CE] |==|  0.57068
USER: genes 19 Torsion [CG]-CD--CE-[NZ] |==|  0.90967
USER: genes 20 Torsion [CD]-CE--NZ-[HZ3] |==|  0.68112
USER: genes 21 Torsion [N]-CA--C-[N] |==|  0.94457
USER: genes 22 Torsion [C]-N--CA-[C] |==|  0.75549
USER: genes 23 Torsion [N]-CA--C-[O] |==|  0.42732
USER: genes 24 Torsion [N]-CA--CB-[CG2] |==|  0.09744
ROOT
ATOM      1  CA  TYR S   4      11.324 -17.622  47.181  1.00 28.42 LIG 0.18  C 
ENDROOT
BRANCH 1 2
ATOM      2  N   TYR S   4      10.299 -17.548  46.156  1.00 30.10 LIG-0.35  N 
ATOM      3 H    TYR S   4       9.791 -18.240  46.127  1.00 30.10 LIG 0.16  HD
ATOM      4  C   GLU S   3      10.158 -16.513  45.340  1.00 31.33 LIG 0.24  C 
ATOM      5 O    GLU S   3      10.927 -15.547  45.328  1.00 31.71 LIG-0.27  OA
BRANCH 4 6
ATOM      6  CA  GLU S   3       8.965 -16.579  44.406  1.00 32.63 LIG 0.18  C 
BRANCH 6 7
ATOM      7  N   GLU S   3       9.260 -17.499  43.295  1.00 32.63 LIG-0.35  N 
ATOM      8  C   ASN S   2       8.788 -17.264  42.087  1.00 33.77 LIG 0.26  C 
ATOM      9 O    ASN S   2       7.987 -16.371  41.855  1.00 34.52 LIG-0.27  OA
ATOM     10 H    GLU S   3       9.749 -18.175  43.504  1.00 32.63 LIG 0.16  HD
BRANCH 8 11
ATOM     11  CA  ASN S   2       9.310 -18.167  40.963  1.00 34.66 LIG 0.41  C 
ATOM     12  N   ASN S   2       8.658 -19.517  40.993  1.00 35.02 LIG 0.61  N 
BRANCH 11 13
ATOM     13  CB  ASN S   2       9.072 -17.445  39.623  1.00 35.18 LIG 0.15  C 
BRANCH 13 14
ATOM     14  CG  ASN S   2      10.365 -16.937  38.979  1.00 37.91 LIG 0.22  C 
ATOM     15 OD1  ASN S   2      11.464 -17.340  39.369  1.00 41.54 LIG-0.27  OA
ATOM     16  ND2 ASN S   2      10.229 -16.060  37.979  1.00 40.23 LIG-0.37  N 
ATOM     17 22HD ASN S   2       9.446 -15.803  37.736  1.00 40.23 LIG 0.16  HD
ATOM     18 21HD ASN S   2      10.926 -15.753  37.579  1.00 40.23 LIG 0.16  HD
ENDBRANCH 13 14
ENDBRANCH 11 13
ENDBRANCH 8 11
ENDBRANCH 6 7
BRANCH 6 19
ATOM     19  CB  GLU S   3       7.696 -16.991  45.146  1.00 32.72 LIG 0.04  C 
BRANCH 19 20
ATOM     20  CG  GLU S   3       7.403 -18.488  45.213  1.00 35.99 LIG 0.12  C 
BRANCH 20 21
ATOM     21  CD  GLU S   3       6.989 -19.083  43.869  1.00 39.18 LIG 0.17  C 
ATOM     22 OE1  GLU S   3       7.544 -20.147  43.514  1.00 41.46 LIG-0.65  OA
ATOM     23 OE2  GLU S   3       6.106 -18.502  43.167  1.00 41.34 LIG-0.65  OA
ENDBRANCH 20 21
ENDBRANCH 19 20
ENDBRANCH 6 19
ENDBRANCH 4 6
ENDBRANCH 1 2
BRANCH 1 24
ATOM     24  CB  TYR S   4      10.710 -17.239  48.515  1.00 28.42 LIG 0.07  C 
BRANCH 24 25
ATOM     25  CG  TYR S   4       9.281 -16.798  48.396  1.00 29.89 LIG-0.06  A 
ATOM     26  CD2 TYR S   4       8.221 -17.696  48.593  1.00 30.34 LIG 0.01  A 
ATOM     27  CE2 TYR S   4       6.885 -17.258  48.460  1.00 32.01 LIG 0.04  A 
ATOM     28  CZ  TYR S   4       6.635 -15.927  48.140  1.00 31.83 LIG 0.07  A 
ATOM     29  CE1 TYR S   4       7.670 -15.057  47.942  1.00 31.31 LIG 0.04  A 
ATOM     30  CD1 TYR S   4       8.977 -15.488  48.073  1.00 30.54 LIG 0.01  A 
BRANCH 28 31
ATOM     31 OH   TYR S   4       5.356 -15.436  47.958  1.00 36.86 LIG-0.36  OA
ATOM     32 HH   TYR S   4       5.093 -15.619  47.181  1.00 36.86 LIG 0.22  HD
ENDBRANCH 28 31
ENDBRANCH 24 25
ENDBRANCH 1 24
BRANCH 1 33
ATOM     33  C   TYR S   4      11.892 -19.033  47.198  1.00 27.93 LIG 0.24  C 
ATOM     34  N   LYS S   5      13.129 -19.158  47.658  1.00 28.19 LIG-0.35  N 
ATOM     35 H    LYS S   5      13.597 -18.489  47.929  1.00 28.19 LIG 0.16  HD
ATOM     36 O    TYR S   4      11.251 -19.974  46.733  1.00 25.57 LIG-0.27  OA
BRANCH 34 37
ATOM     37  CA  LYS S   5      13.829 -20.436  47.753  1.00 28.81 LIG 0.18  C 
BRANCH 37 38
ATOM     38  CB  LYS S   5      15.336 -20.217  47.965  1.00 29.54 LIG 0.04  C 
BRANCH 38 39
ATOM     39  CG  LYS S   5      16.243 -20.672  46.807  1.00 33.24 LIG 0.00  C 
BRANCH 39 40
ATOM     40  CD  LYS S   5      16.837 -22.051  47.044  1.00 37.34 LIG 0.03  C 
BRANCH 40 41
ATOM     41  CE  LYS S   5      18.149 -22.203  46.267  1.00 39.48 LIG 0.23  C 
BRANCH 41 42
ATOM     42  NZ  LYS S   5      18.115 -21.434  44.997  1.00 41.40 LIG-0.08  N 
ATOM     43 HZ2  LYS S   5      18.813 -20.883  44.964  1.00 41.40 LIG 0.27  HD
ATOM     44 HZ1  LYS S   5      17.362 -20.961  44.955  1.00 41.40 LIG 0.27  HD
ATOM     45 HZ3  LYS S   5      18.151 -21.996  44.307  1.00 41.40 LIG 0.27  HD
ENDBRANCH 41 42
ENDBRANCH 40 41
ENDBRANCH 39 40
ENDBRANCH 38 39
ENDBRANCH 37 38
BRANCH 37 46
ATOM     46  C   LYS S   5      13.213 -21.202  48.912  1.00 28.43 LIG 0.24  C 
ATOM     47  N   VAL S   6      12.543 -20.490  49.804  1.00 27.37 LIG-0.34  N 
ATOM     48 H    VAL S   6      12.363 -19.655  49.705  1.00 27.37 LIG 0.16  HD
ATOM     49 O    LYS S   5      13.345 -22.414  49.012  1.00 28.58 LIG-0.27  OA
BRANCH 47 50
ATOM     50  CA  VAL S   6      12.048 -21.056  51.036  1.00 26.91 LIG 0.19  C 
BRANCH 50 51
ATOM     51  C   VAL S   6      10.648 -21.669  50.885  1.00 27.47 LIG 0.20  C 
ATOM     52 O    VAL S   6      10.214 -22.587  51.606  1.00 25.37 LIG-0.65  OA
ATOM     53 OXT  VAL S   6       9.952 -21.161  50.006  1.00 29.74 LIG-0.65  OA
ENDBRANCH 50 51
BRANCH 50 54
ATOM     54  CB  VAL S   6      12.056 -20.011  52.178  1.00 26.80 LIG 0.01  C 
ATOM     55  CG2 VAL S   6      11.727 -18.602  51.651  1.00 26.48 LIG 0.01  C 
ATOM     56  CG1 VAL S   6      13.399 -20.001  52.893  1.00 26.60 LIG 0.01  C 
ENDBRANCH 50 54
ENDBRANCH 47 50
ENDBRANCH 37 46
ENDBRANCH 34 37
ENDBRANCH 1 33
TORSDOF 23
ENDMDL
MODEL 30
USER: ADFR SOLUTION from run 96
USER: SCORE 19.361428 LL:  -6.031 LR: -13.658 RR:   0.000 FEB:  -6.797
USER: RMSD 9.608325
USER: SEED 95
USER: STATUS no improvement in best in 3 clusters for 5 generations
USER: GENES 25
USER: genes 0 Translation |==|  0.59117 0.51897 0.74394
USER: genes 1 Rotation |==|  0.80464 0.31060 0.81059 0.65766
USER: genes 2 Torsion [C]-CA--N-[C] |==|  0.73977
USER: genes 3 Torsion [N]-C--CA-[N] |==|  0.89971
USER: genes 4 Torsion [C]-CA--N-[C] |==|  0.80855
USER: genes 5 Torsion [N]-C--CA-[N] |==|  0.45669
USER: genes 6 Torsion [C]-CA--CB-[CG] |==|  0.20443
USER: genes 7 Torsion [CA]-CB--CG-[ND2] |==|  0.07248
USER: genes 8 Torsion [C]-CA--CB-[CG] |==|  0.66485
USER: genes 9 Torsion [CA]-CB--CG-[CD] |==|  0.23603
USER: genes 10 Torsion [CB]-CG--CD-[OE1] |==|  0.10419
USER: genes 11 Torsion [N]-CA--CB-[CG] |==|  0.68418
USER: genes 12 Torsion [CA]-CB--CG-[CD1] |==|  0.64765
USER: genes 13 Torsion [CE2]-CZ--OH-[HH] |==|  0.71604
USER: genes 14 Torsion [N]-CA--C-[N] |==|  0.31680
USER: genes 15 Torsion [C]-N--CA-[C] |==|  0.18156
USER: genes 16 Torsion [N]-CA--CB-[CG] |==|  0.83064
USER: genes 17 Torsion [CA]-CB--CG-[CD] |==|  0.83171
USER: genes 18 Torsion [CB]-CG--CD-[CE] |==|  0.24121
USER: genes 19 Torsion [CG]-CD--CE-[NZ] |==|  0.61165
USER: genes 20 Torsion [CD]-CE--NZ-[HZ3] |==|  0.46454
USER: genes 21 Torsion [N]-CA--C-[N] |==|  0.07473
USER: genes 22 Torsion [C]-N--CA-[C] |==|  0.13619
USER: genes 23 Torsion [N]-CA--C-[O] |==|  0.08696
USER: genes 24 Torsion [N]-CA--CB-[CG2] |==|  0.93770
ROOT
ATOM      1  CA  TYR S   4      10.269 -18.496  47.058  1.00 28.42 LIG 0.18  C 
ENDROOT
BRANCH 1 2
ATOM      2  N   TYR S   4       9.323 -17.504  46.581  1.00 30.10 LIG-0.35  N 
ATOM      3 H    TYR S   4       8.503 -17.756  46.636  1.00 30.10 LIG 0.16  HD
ATOM      4  C   GLU S   3       9.685 -16.321  46.106  1.00 31.33 LIG 0.24  C 
ATOM      5 O    GLU S   3      10.863 -15.980  45.958  1.00 31.71 LIG-0.27  OA
BRANCH 4 6
ATOM      6  CA  GLU S   3       8.546 -15.385  45.752  1.00 32.63 LIG 0.18  C 
BRANCH 6 7
ATOM      7  N   GLU S   3       7.424 -16.161  45.199  1.00 32.63 LIG-0.35  N 
ATOM      8  C   ASN S   2       7.527 -16.740  44.020  1.00 33.77 LIG 0.26  C 
ATOM      9 O    ASN S   2       8.479 -16.558  43.277  1.00 34.52 LIG-0.27  OA
ATOM     10 H    GLU S   3       6.726 -16.196  45.701  1.00 32.63 LIG 0.16  HD
BRANCH 8 11
ATOM     11  CA  ASN S   2       6.386 -17.684  43.621  1.00 34.66 LIG 0.41  C 
ATOM     12  N   ASN S   2       6.407 -17.984  42.152  1.00 35.02 LIG 0.61  N 
BRANCH 11 13
ATOM     13  CB  ASN S   2       6.506 -18.964  44.471  1.00 35.18 LIG 0.15  C 
BRANCH 13 14
ATOM     14  CG  ASN S   2       6.085 -18.757  45.928  1.00 37.91 LIG 0.22  C 
ATOM     15 OD1  ASN S   2       6.553 -19.462  46.825  1.00 41.54 LIG-0.27  OA
ATOM     16  ND2 ASN S   2       5.210 -17.774  46.163  1.00 40.23 LIG-0.37  N 
ATOM     17 22HD ASN S   2       4.906 -17.304  45.510  1.00 40.23 LIG 0.16  HD
ATOM     18 21HD ASN S   2       4.951 -17.612  46.966  1.00 40.23 LIG 0.16  HD
ENDBRANCH 13 14
ENDBRANCH 11 13
ENDBRANCH 8 11
ENDBRANCH 6 7
BRANCH 6 19
ATOM     19  CB  GLU S   3       8.108 -14.557  46.956  1.00 32.72 LIG 0.04  C 
BRANCH 19 20
ATOM     20  CG  GLU S   3       6.653 -14.708  47.393  1.00 35.99 LIG 0.12  C 
BRANCH 20 21
ATOM     21  CD  GLU S   3       6.423 -15.894  48.328  1.00 39.18 LIG 0.17  C 
ATOM     22 OE1  GLU S   3       7.313 -16.143  49.172  1.00 41.46 LIG-0.65  OA
ATOM     23 OE2  GLU S   3       5.356 -16.573  48.233  1.00 41.34 LIG-0.65  OA
ENDBRANCH 20 21
ENDBRANCH 19 20
ENDBRANCH 6 19
ENDBRANCH 4 6
ENDBRANCH 1 2
BRANCH 1 24
ATOM     24  CB  TYR S   4       9.659 -19.223  48.242  1.00 28.42 LIG 0.07  C 
BRANCH 24 25
ATOM     25  CG  TYR S   4      10.384 -18.958  49.528  1.00 29.89 LIG-0.06  A 
ATOM     26  CD2 TYR S   4      10.638 -17.649  49.966  1.00 30.34 LIG 0.01  A 
ATOM     27  CE2 TYR S   4      11.336 -17.427  51.174  1.00 32.01 LIG 0.04  A 
ATOM     28  CZ  TYR S   4      11.760 -18.519  51.924  1.00 31.83 LIG 0.07  A 
ATOM     29  CE1 TYR S   4      11.517 -19.793  51.491  1.00 31.31 LIG 0.04  A 
ATOM     30  CD1 TYR S   4      10.833 -20.008  50.309  1.00 30.54 LIG 0.01  A 
BRANCH 28 31
ATOM     31 OH   TYR S   4      12.480 -18.380  53.096  1.00 36.86 LIG-0.36  OA
ATOM     32 HH   TYR S   4      13.292 -18.539  52.947  1.00 36.86 LIG 0.22  HD
ENDBRANCH 28 31
ENDBRANCH 24 25
ENDBRANCH 1 24
BRANCH 1 33
ATOM     33  C   TYR S   4      10.597 -19.442  45.914  1.00 27.93 LIG 0.24  C 
ATOM     34  N   LYS S   5      11.846 -19.410  45.471  1.00 28.19 LIG-0.35  N 
ATOM     35 H    LYS S   5      12.445 -18.886  45.797  1.00 28.19 LIG 0.16  HD
ATOM     36 O    TYR S   4       9.719 -20.131  45.396  1.00 25.57 LIG-0.27  OA
BRANCH 34 37
ATOM     37  CA  LYS S   5      12.339 -20.254  44.386  1.00 28.81 LIG 0.18  C 
BRANCH 37 38
ATOM     38  CB  LYS S   5      12.104 -21.740  44.703  1.00 29.54 LIG 0.04  C 
BRANCH 38 39
ATOM     39  CG  LYS S   5      12.806 -22.270  45.966  1.00 33.24 LIG 0.00  C 
BRANCH 39 40
ATOM     40  CD  LYS S   5      14.318 -22.142  45.885  1.00 37.34 LIG 0.03  C 
BRANCH 40 41
ATOM     41  CE  LYS S   5      14.761 -20.760  46.376  1.00 39.48 LIG 0.23  C 
BRANCH 41 42
ATOM     42  NZ  LYS S   5      15.854 -20.212  45.532  1.00 41.40 LIG-0.08  N 
ATOM     43 HZ2  LYS S   5      15.643 -20.308  44.673  1.00 41.40 LIG 0.27  HD
ATOM     44 HZ1  LYS S   5      16.609 -20.652  45.702  1.00 41.40 LIG 0.27  HD
ATOM     45 HZ3  LYS S   5      15.966 -19.349  45.714  1.00 41.40 LIG 0.27  HD
ENDBRANCH 41 42
ENDBRANCH 40 41
ENDBRANCH 39 40
ENDBRANCH 38 39
ENDBRANCH 37 38
BRANCH 37 46
ATOM     46  C   LYS S   5      11.608 -19.836  43.121  1.00 28.43 LIG 0.24  C 
ATOM     47  N   VAL S   6      11.177 -18.587  43.071  1.00 27.37 LIG-0.34  N 
ATOM     48 H    VAL S   6      11.374 -17.993  43.662  1.00 27.37 LIG 0.16  HD
ATOM     49 O    LYS S   5      11.424 -20.627  42.205  1.00 28.58 LIG-0.27  OA
BRANCH 47 50
ATOM     50  CA  VAL S   6      10.329 -18.099  42.010  1.00 26.91 LIG 0.19  C 
BRANCH 50 51
ATOM     51  C   VAL S   6       9.126 -19.018  41.745  1.00 27.47 LIG 0.20  C 
ATOM     52 O    VAL S   6       8.569 -19.699  42.627  1.00 25.37 LIG-0.65  OA
ATOM     53 OXT  VAL S   6       8.715 -19.013  40.585  1.00 29.74 LIG-0.65  OA
ENDBRANCH 50 51
BRANCH 50 54
ATOM     54  CB  VAL S   6      11.131 -17.877  40.705  1.00 26.80 LIG 0.01  C 
ATOM     55  CG2 VAL S   6      12.631 -17.688  40.994  1.00 26.48 LIG 0.01  C 
ATOM     56  CG1 VAL S   6      10.592 -16.680  39.936  1.00 26.60 LIG 0.01  C 
ENDBRANCH 50 54
ENDBRANCH 47 50
ENDBRANCH 37 46
ENDBRANCH 34 37
ENDBRANCH 1 33
TORSDOF 23
ENDMDL
MODEL 31
USER: ADFR SOLUTION from run 142
USER: SCORE 18.820970 LL:  -5.524 LR: -13.647 RR:   0.000 FEB:  -6.786
USER: RMSD 7.190344
USER: SEED 141
USER: STATUS no improvement in best in 6 clusters for 5 generations
USER: GENES 25
USER: genes 0 Translation |==|  0.39279 0.50850 0.61380
USER: genes 1 Rotation |==|  0.74667 0.48412 0.09268 0.65163
USER: genes 2 Torsion [C]-CA--N-[C] |==|  0.65166
USER: genes 3 Torsion [N]-C--CA-[N] |==|  0.01820
USER: genes 4 Torsion [C]-CA--N-[C] |==|  0.72303
USER: genes 5 Torsion [N]-C--CA-[N] |==|  0.22865
USER: genes 6 Torsion [C]-CA--CB-[CG] |==|  0.77701
USER: genes 7 Torsion [CA]-CB--CG-[ND2] |==|  0.27160
USER: genes 8 Torsion [C]-CA--CB-[CG] |==|  0.86288
USER: genes 9 Torsion [CA]-CB--CG-[CD] |==|  0.83849
USER: genes 10 Torsion [CB]-CG--CD-[OE1] |==|  0.40382
USER: genes 11 Torsion [N]-CA--CB-[CG] |==|  0.74465
USER: genes 12 Torsion [CA]-CB--CG-[CD1] |==|  0.12943
USER: genes 13 Torsion [CE2]-CZ--OH-[HH] |==|  0.71428
USER: genes 14 Torsion [N]-CA--C-[N] |==|  0.36511
USER: genes 15 Torsion [C]-N--CA-[C] |==|  0.18117
USER: genes 16 Torsion [N]-CA--CB-[CG] |==|  0.67155
USER: genes 17 Torsion [CA]-CB--CG-[CD] |==|  0.53699
USER: genes 18 Torsion [CB]-CG--CD-[CE] |==|  0.33135
USER: genes 19 Torsion [CG]-CD--CE-[NZ] |==|  0.62372
USER: genes 20 Torsion [CD]-CE--NZ-[HZ3] |==|  0.62476
USER: genes 21 Torsion [N]-CA--C-[N] |==|  0.05557
USER: genes 22 Torsion [C]-N--CA-[C] |==|  0.45247
USER: genes 23 Torsion [N]-CA--C-[O] |==|  0.63808
USER: genes 24 Torsion [N]-CA--CB-[CG2] |==|  0.52462
ROOT
ATOM      1  CA  TYR S   4       6.103 -18.669  43.935  1.00 28.42 LIG 0.18  C 
ENDROOT
BRANCH 1 2
ATOM      2  N   TYR S   4       7.510 -18.359  43.761  1.00 30.10 LIG-0.35  N 
ATOM      3 H    TYR S   4       8.032 -18.851  44.234  1.00 30.10 LIG 0.16  HD
ATOM      4  C   GLU S   3       7.952 -17.409  42.949  1.00 31.33 LIG 0.24  C 
ATOM      5 O    GLU S   3       7.206 -16.651  42.320  1.00 31.71 LIG-0.27  OA
BRANCH 4 6
ATOM      6  CA  GLU S   3       9.460 -17.307  42.827  1.00 32.63 LIG 0.18  C 
BRANCH 6 7
ATOM      7  N   GLU S   3      10.089 -18.426  43.548  1.00 32.63 LIG-0.35  N 
ATOM      8  C   ASN S   2      10.582 -18.251  44.758  1.00 33.77 LIG 0.26  C 
ATOM      9 O    ASN S   2      10.668 -17.151  45.282  1.00 34.52 LIG-0.27  OA
ATOM     10 H    GLU S   3      10.102 -19.172  43.119  1.00 32.63 LIG 0.16  HD
BRANCH 8 11
ATOM     11  CA  ASN S   2      11.036 -19.515  45.499  1.00 34.66 LIG 0.41  C 
ATOM     12  N   ASN S   2      12.415 -19.933  45.082  1.00 35.02 LIG 0.61  N 
BRANCH 11 13
ATOM     13  CB  ASN S   2      10.953 -19.236  47.012  1.00 35.18 LIG 0.15  C 
BRANCH 13 14
ATOM     14  CG  ASN S   2      12.152 -18.445  47.541  1.00 37.91 LIG 0.22  C 
ATOM     15 OD1  ASN S   2      13.214 -19.014  47.807  1.00 41.54 LIG-0.27  OA
ATOM     16  ND2 ASN S   2      11.984 -17.126  47.678  1.00 40.23 LIG-0.37  N 
ATOM     17 22HD ASN S   2      11.228 -16.767  47.483  1.00 40.23 LIG 0.16  HD
ATOM     18 21HD ASN S   2      12.632 -16.637  47.963  1.00 40.23 LIG 0.16  HD
ENDBRANCH 13 14
ENDBRANCH 11 13
ENDBRANCH 8 11
ENDBRANCH 6 7
BRANCH 6 19
ATOM     19  CB  GLU S   3       9.903 -17.268  41.368  1.00 32.72 LIG 0.04  C 
BRANCH 19 20
ATOM     20  CG  GLU S   3       9.321 -18.340  40.451  1.00 35.99 LIG 0.12  C 
BRANCH 20 21
ATOM     21  CD  GLU S   3       9.624 -19.763  40.916  1.00 39.18 LIG 0.17  C 
ATOM     22 OE1  GLU S   3       8.749 -20.634  40.713  1.00 41.46 LIG-0.65  OA
ATOM     23 OE2  GLU S   3      10.734 -20.020  41.473  1.00 41.34 LIG-0.65  OA
ENDBRANCH 20 21
ENDBRANCH 19 20
ENDBRANCH 6 19
ENDBRANCH 4 6
ENDBRANCH 1 2
BRANCH 1 24
ATOM     24  CB  TYR S   4       5.830 -20.045  43.359  1.00 28.42 LIG 0.07  C 
BRANCH 24 25
ATOM     25  CG  TYR S   4       5.402 -20.004  41.922  1.00 29.89 LIG-0.06  A 
ATOM     26  CD2 TYR S   4       4.309 -20.755  41.463  1.00 30.34 LIG 0.01  A 
ATOM     27  CE2 TYR S   4       3.937 -20.710  40.102  1.00 32.01 LIG 0.04  A 
ATOM     28  CZ  TYR S   4       4.661 -19.908  39.226  1.00 31.83 LIG 0.07  A 
ATOM     29  CE1 TYR S   4       5.729 -19.182  39.674  1.00 31.31 LIG 0.04  A 
ATOM     30  CD1 TYR S   4       6.092 -19.228  41.007  1.00 30.54 LIG 0.01  A 
BRANCH 28 31
ATOM     31 OH   TYR S   4       4.379 -19.842  37.874  1.00 36.86 LIG-0.36  OA
ATOM     32 HH   TYR S   4       4.941 -20.297  37.447  1.00 36.86 LIG 0.22  HD
ENDBRANCH 28 31
ENDBRANCH 24 25
ENDBRANCH 1 24
BRANCH 1 33
ATOM     33  C   TYR S   4       5.770 -18.593  45.418  1.00 27.93 LIG 0.24  C 
ATOM     34  N   LYS S   5       4.693 -17.890  45.738  1.00 28.19 LIG-0.35  N 
ATOM     35 H    LYS S   5       4.205 -17.489  45.155  1.00 28.19 LIG 0.16  HD
ATOM     36 O    TYR S   4       6.516 -19.098  46.255  1.00 25.57 LIG-0.27  OA
BRANCH 34 37
ATOM     37  CA  LYS S   5       4.221 -17.718  47.110  1.00 28.81 LIG 0.18  C 
BRANCH 37 38
ATOM     38  CB  LYS S   5       3.974 -19.082  47.775  1.00 29.54 LIG 0.04  C 
BRANCH 38 39
ATOM     39  CG  LYS S   5       2.524 -19.354  48.215  1.00 33.24 LIG 0.00  C 
BRANCH 39 40
ATOM     40  CD  LYS S   5       2.415 -20.556  49.140  1.00 37.34 LIG 0.03  C 
BRANCH 40 41
ATOM     41  CE  LYS S   5       1.843 -20.132  50.496  1.00 39.48 LIG 0.23  C 
BRANCH 41 42
ATOM     42  NZ  LYS S   5       2.601 -20.746  51.617  1.00 41.40 LIG-0.08  N 
ATOM     43 HZ2  LYS S   5       3.122 -20.132  51.994  1.00 41.40 LIG 0.27  HD
ATOM     44 HZ1  LYS S   5       3.104 -21.411  51.306  1.00 41.40 LIG 0.27  HD
ATOM     45 HZ3  LYS S   5       2.031 -21.063  52.223  1.00 41.40 LIG 0.27  HD
ENDBRANCH 41 42
ENDBRANCH 40 41
ENDBRANCH 39 40
ENDBRANCH 38 39
ENDBRANCH 37 38
BRANCH 37 46
ATOM     46  C   LYS S   5       5.280 -16.924  47.855  1.00 28.43 LIG 0.24  C 
ATOM     47  N   VAL S   6       6.126 -16.225  47.116  1.00 27.37 LIG-0.34  N 
ATOM     48 H    VAL S   6       6.043 -16.126  46.266  1.00 27.37 LIG 0.16  HD
ATOM     49 O    LYS S   5       5.344 -16.944  49.077  1.00 28.58 LIG-0.27  OA
BRANCH 47 50
ATOM     50  CA  VAL S   6       7.279 -15.559  47.675  1.00 26.91 LIG 0.19  C 
BRANCH 50 51
ATOM     51  C   VAL S   6       8.318 -15.180  46.609  1.00 27.47 LIG 0.20  C 
ATOM     52 O    VAL S   6       9.531 -15.441  46.702  1.00 25.37 LIG-0.65  OA
ATOM     53 OXT  VAL S   6       7.859 -14.616  45.615  1.00 29.74 LIG-0.65  OA
ENDBRANCH 50 51
BRANCH 50 54
ATOM     54  CB  VAL S   6       7.938 -16.411  48.787  1.00 26.80 LIG 0.01  C 
ATOM     55  CG2 VAL S   6       9.026 -15.617  49.532  1.00 26.48 LIG 0.01  C 
ATOM     56  CG1 VAL S   6       8.528 -17.690  48.209  1.00 26.60 LIG 0.01  C 
ENDBRANCH 50 54
ENDBRANCH 47 50
ENDBRANCH 37 46
ENDBRANCH 34 37
ENDBRANCH 1 33
TORSDOF 23
ENDMDL
MODEL 32
USER: ADFR SOLUTION from run 77
USER: SCORE 18.742022 LL:  -5.609 LR: -13.586 RR:   0.000 FEB:  -6.725
USER: RMSD 7.468132
USER: SEED 76
USER: STATUS no improvement in best in 4 clusters for 5 generations
USER: GENES 25
USER: genes 0 Translation |==|  0.58057 0.58113 0.60982
USER: genes 1 Rotation |==|  0.43430 0.48849 0.93367 0.73976
USER: genes 2 Torsion [C]-CA--N-[C] |==|  0.66072
USER: genes 3 Torsion [N]-C--CA-[N] |==|  0.12897
USER: genes 4 Torsion [C]-CA--N-[C] |==|  0.16111
USER: genes 5 Torsion [N]-C--CA-[N] |==|  0.85182
USER: genes 6 Torsion [C]-CA--CB-[CG] |==|  0.13947
USER: genes 7 Torsion [CA]-CB--CG-[ND2] |==|  0.56543
USER: genes 8 Torsion [C]-CA--CB-[CG] |==|  0.48307
USER: genes 9 Torsion [CA]-CB--CG-[CD] |==|  0.16774
USER: genes 10 Torsion [CB]-CG--CD-[OE1] |==|  0.67353
USER: genes 11 Torsion [N]-CA--CB-[CG] |==|  0.43074
USER: genes 12 Torsion [CA]-CB--CG-[CD1] |==|  0.72589
USER: genes 13 Torsion [CE2]-CZ--OH-[HH] |==|  0.28477
USER: genes 14 Torsion [N]-CA--C-[N] |==|  0.32428
USER: genes 15 Torsion [C]-N--CA-[C] |==|  0.60500
USER: genes 16 Torsion [N]-CA--CB-[CG] |==|  0.02872
USER: genes 17 Torsion [CA]-CB--CG-[CD] |==|  0.37352
USER: genes 18 Torsion [CB]-CG--CD-[CE] |==|  0.94415
USER: genes 19 Torsion [CG]-CD--CE-[NZ] |==|  0.56174
USER: genes 20 Torsion [CD]-CE--NZ-[HZ3] |==|  0.11931
USER: genes 21 Torsion [N]-CA--C-[N] |==|  0.43469
USER: genes 22 Torsion [C]-N--CA-[C] |==|  0.56716
USER: genes 23 Torsion [N]-CA--C-[O] |==|  0.45648
USER: genes 24 Torsion [N]-CA--CB-[CG2] |==|  0.03247
ROOT
ATOM      1  CA  TYR S   4      10.046 -17.470  43.840  1.00 28.42 LIG 0.18  C 
ENDROOT
BRANCH 1 2
ATOM      2  N   TYR S   4      10.345 -18.176  42.607  1.00 30.10 LIG-0.35  N 
ATOM      3 H    TYR S   4       9.810 -18.829  42.446  1.00 30.10 LIG 0.16  HD
ATOM      4  C   GLU S   3      11.347 -17.848  41.804  1.00 31.33 LIG 0.24  C 
ATOM      5 O    GLU S   3      12.163 -16.958  42.064  1.00 31.71 LIG-0.27  OA
BRANCH 4 6
ATOM      6  CA  GLU S   3      11.434 -18.641  40.515  1.00 32.63 LIG 0.18  C 
BRANCH 6 7
ATOM      7  N   GLU S   3      10.101 -18.721  39.895  1.00 32.63 LIG-0.35  N 
ATOM      8  C   ASN S   2       9.442 -17.624  39.579  1.00 33.77 LIG 0.26  C 
ATOM      9 O    ASN S   2       9.826 -16.509  39.899  1.00 34.52 LIG-0.27  OA
ATOM     10 H    GLU S   3       9.809 -19.520  39.765  1.00 32.63 LIG 0.16  HD
BRANCH 8 11
ATOM     11  CA  ASN S   2       8.158 -17.811  38.763  1.00 34.66 LIG 0.41  C 
ATOM     12  N   ASN S   2       8.404 -18.620  37.525  1.00 35.02 LIG 0.61  N 
BRANCH 11 13
ATOM     13  CB  ASN S   2       7.103 -18.465  39.676  1.00 35.18 LIG 0.15  C 
BRANCH 13 14
ATOM     14  CG  ASN S   2       6.947 -17.749  41.019  1.00 37.91 LIG 0.22  C 
ATOM     15 OD1  ASN S   2       7.251 -16.559  41.139  1.00 41.54 LIG-0.27  OA
ATOM     16  ND2 ASN S   2       6.456 -18.475  42.030  1.00 40.23 LIG-0.37  N 
ATOM     17 22HD ASN S   2       6.256 -19.302  41.907  1.00 40.23 LIG 0.16  HD
ATOM     18 21HD ASN S   2       6.340 -18.114  42.802  1.00 40.23 LIG 0.16  HD
ENDBRANCH 13 14
ENDBRANCH 11 13
ENDBRANCH 8 11
ENDBRANCH 6 7
BRANCH 6 19
ATOM     19  CB  GLU S   3      12.457 -18.041  39.555  1.00 32.72 LIG 0.04  C 
BRANCH 19 20
ATOM     20  CG  GLU S   3      12.740 -18.831  38.281  1.00 35.99 LIG 0.12  C 
BRANCH 20 21
ATOM     21  CD  GLU S   3      11.505 -19.023  37.402  1.00 39.18 LIG 0.17  C 
ATOM     22 OE1  GLU S   3      11.115 -20.196  37.205  1.00 41.46 LIG-0.65  OA
ATOM     23 OE2  GLU S   3      10.915 -18.012  36.915  1.00 41.34 LIG-0.65  OA
ENDBRANCH 20 21
ENDBRANCH 19 20
ENDBRANCH 6 19
ENDBRANCH 4 6
ENDBRANCH 1 2
BRANCH 1 24
ATOM     24  CB  TYR S   4       8.685 -16.814  43.709  1.00 28.42 LIG 0.07  C 
BRANCH 24 25
ATOM     25  CG  TYR S   4       8.018 -16.582  45.033  1.00 29.89 LIG-0.06  A 
ATOM     26  CD2 TYR S   4       8.355 -15.481  45.836  1.00 30.34 LIG 0.01  A 
ATOM     27  CE2 TYR S   4       7.723 -15.294  47.085  1.00 32.01 LIG 0.04  A 
ATOM     28  CZ  TYR S   4       6.760 -16.207  47.503  1.00 31.83 LIG 0.07  A 
ATOM     29  CE1 TYR S   4       6.440 -17.281  46.722  1.00 31.31 LIG 0.04  A 
ATOM     30  CD1 TYR S   4       7.059 -17.463  45.500  1.00 30.54 LIG 0.01  A 
BRANCH 28 31
ATOM     31 OH   TYR S   4       6.127 -16.109  48.728  1.00 36.86 LIG-0.36  OA
ATOM     32 HH   TYR S   4       5.355 -15.795  48.621  1.00 36.86 LIG 0.22  HD
ENDBRANCH 28 31
ENDBRANCH 24 25
ENDBRANCH 1 24
BRANCH 1 33
ATOM     33  C   TYR S   4      10.093 -18.463  44.991  1.00 27.93 LIG 0.24  C 
ATOM     34  N   LYS S   5      11.024 -18.247  45.910  1.00 28.19 LIG-0.35  N 
ATOM     35 H    LYS S   5      11.579 -17.591  45.868  1.00 28.19 LIG 0.16  HD
ATOM     36 O    TYR S   4       9.353 -19.445  45.005  1.00 25.57 LIG-0.27  OA
BRANCH 34 37
ATOM     37  CA  LYS S   5      11.208 -19.093  47.086  1.00 28.81 LIG 0.18  C 
BRANCH 37 38
ATOM     38  CB  LYS S   5      12.308 -20.138  46.837  1.00 29.54 LIG 0.04  C 
BRANCH 38 39
ATOM     39  CG  LYS S   5      13.139 -19.938  45.558  1.00 33.24 LIG 0.00  C 
BRANCH 39 40
ATOM     40  CD  LYS S   5      14.630 -20.102  45.804  1.00 37.34 LIG 0.03  C 
BRANCH 40 41
ATOM     41  CE  LYS S   5      14.945 -19.928  47.293  1.00 39.48 LIG 0.23  C 
BRANCH 41 42
ATOM     42  NZ  LYS S   5      16.367 -19.554  47.503  1.00 41.40 LIG-0.08  N 
ATOM     43 HZ2  LYS S   5      16.881 -20.275  47.410  1.00 41.40 LIG 0.27  HD
ATOM     44 HZ1  LYS S   5      16.469 -19.222  48.323  1.00 41.40 LIG 0.27  HD
ATOM     45 HZ3  LYS S   5      16.606 -18.941  46.904  1.00 41.40 LIG 0.27  HD
ENDBRANCH 41 42
ENDBRANCH 40 41
ENDBRANCH 39 40
ENDBRANCH 38 39
ENDBRANCH 37 38
BRANCH 37 46
ATOM     46  C   LYS S   5      11.566 -18.180  48.246  1.00 28.43 LIG 0.24  C 
ATOM     47  N   VAL S   6      11.312 -18.637  49.461  1.00 27.37 LIG-0.34  N 
ATOM     48 H    VAL S   6      11.055 -19.442  49.620  1.00 27.37 LIG 0.16  HD
ATOM     49 O    LYS S   5      12.055 -17.074  48.055  1.00 28.58 LIG-0.27  OA
BRANCH 47 50
ATOM     50  CA  VAL S   6      11.446 -17.819  50.643  1.00 26.91 LIG 0.19  C 
BRANCH 50 51
ATOM     51  C   VAL S   6      11.683 -18.650  51.914  1.00 27.47 LIG 0.20  C 
ATOM     52 O    VAL S   6      12.102 -18.172  52.984  1.00 25.37 LIG-0.65  OA
ATOM     53 OXT  VAL S   6      11.395 -19.843  51.814  1.00 29.74 LIG-0.65  OA
ENDBRANCH 50 51
BRANCH 50 54
ATOM     54  CB  VAL S   6      10.219 -16.894  50.829  1.00 26.80 LIG 0.01  C 
ATOM     55  CG2 VAL S   6       9.069 -17.291  49.885  1.00 26.48 LIG 0.01  C 
ATOM     56  CG1 VAL S   6      10.601 -15.438  50.604  1.00 26.60 LIG 0.01  C 
ENDBRANCH 50 54
ENDBRANCH 47 50
ENDBRANCH 37 46
ENDBRANCH 34 37
ENDBRANCH 1 33
TORSDOF 23
ENDMDL
MODEL 33
USER: ADFR SOLUTION from run 8
USER: SCORE 18.347624 LL:  -5.655 LR: -13.567 RR:   0.000 FEB:  -6.706
USER: RMSD 4.282175
USER: SEED 348904
USER: STATUS no improvement in best in 2 clusters for 5 generations
USER: GENES 25
USER: genes 0 Translation |==|  0.39842 0.44990 0.55283
USER: genes 1 Rotation |==|  0.58470 0.49956 0.24173 0.91967
USER: genes 2 Torsion [C]-CA--N-[C] |==|  0.65012
USER: genes 3 Torsion [N]-C--CA-[N] |==|  0.13333
USER: genes 4 Torsion [C]-CA--N-[C] |==|  0.17958
USER: genes 5 Torsion [N]-C--CA-[N] |==|  0.85380
USER: genes 6 Torsion [C]-CA--CB-[CG] |==|  0.72251
USER: genes 7 Torsion [CA]-CB--CG-[ND2] |==|  0.63020
USER: genes 8 Torsion [C]-CA--CB-[CG] |==|  0.51554
USER: genes 9 Torsion [CA]-CB--CG-[CD] |==|  0.33859
USER: genes 10 Torsion [CB]-CG--CD-[OE1] |==|  0.77401
USER: genes 11 Torsion [N]-CA--CB-[CG] |==|  0.22554
USER: genes 12 Torsion [CA]-CB--CG-[CD1] |==|  0.30508
USER: genes 13 Torsion [CE2]-CZ--OH-[HH] |==|  0.72915
USER: genes 14 Torsion [N]-CA--C-[N] |==|  0.43152
USER: genes 15 Torsion [C]-N--CA-[C] |==|  0.82597
USER: genes 16 Torsion [N]-CA--CB-[CG] |==|  0.48511
USER: genes 17 Torsion [CA]-CB--CG-[CD] |==|  0.57159
USER: genes 18 Torsion [CB]-CG--CD-[CE] |==|  0.53575
USER: genes 19 Torsion [CG]-CD--CE-[NZ] |==|  0.64580
USER: genes 20 Torsion [CD]-CE--NZ-[HZ3] |==|  0.29449
USER: genes 21 Torsion [N]-CA--C-[N] |==|  0.29844
USER: genes 22 Torsion [C]-N--CA-[C] |==|  0.67597
USER: genes 23 Torsion [N]-CA--C-[O] |==|  0.43481
USER: genes 24 Torsion [N]-CA--CB-[CG2] |==|  0.53279
ROOT
ATOM      1  CA  TYR S   4       6.221 -19.636  42.472  1.00 28.42 LIG 0.18  C 
ENDROOT
BRANCH 1 2
ATOM      2  N   TYR S   4       6.519 -18.698  41.405  1.00 30.10 LIG-0.35  N 
ATOM      3 H    TYR S   4       7.093 -18.097  41.626  1.00 30.10 LIG 0.16  HD
ATOM      4  C   GLU S   3       5.962 -18.759  40.204  1.00 31.33 LIG 0.24  C 
ATOM      5 O    GLU S   3       5.085 -19.575  39.902  1.00 31.71 LIG-0.27  OA
BRANCH 4 6
ATOM      6  CA  GLU S   3       6.480 -17.752  39.195  1.00 32.63 LIG 0.18  C 
BRANCH 6 7
ATOM      7  N   GLU S   3       7.952 -17.758  39.204  1.00 32.63 LIG-0.35  N 
ATOM      8  C   ASN S   2       8.620 -18.830  38.829  1.00 33.77 LIG 0.26  C 
ATOM      9 O    ASN S   2       8.075 -19.897  38.591  1.00 34.52 LIG-0.27  OA
ATOM     10 H    GLU S   3       8.315 -17.024  39.467  1.00 32.63 LIG 0.16  HD
BRANCH 8 11
ATOM     11  CA  ASN S   2      10.139 -18.671  38.685  1.00 34.66 LIG 0.41  C 
ATOM     12  N   ASN S   2      10.490 -17.512  37.801  1.00 35.02 LIG 0.61  N 
BRANCH 11 13
ATOM     13  CB  ASN S   2      10.739 -18.520  40.096  1.00 35.18 LIG 0.15  C 
BRANCH 13 14
ATOM     14  CG  ASN S   2      11.042 -17.065  40.464  1.00 37.91 LIG 0.22  C 
ATOM     15 OD1  ASN S   2      10.204 -16.180  40.277  1.00 41.54 LIG-0.27  OA
ATOM     16  ND2 ASN S   2      12.241 -16.824  41.006  1.00 40.23 LIG-0.37  N 
ATOM     17 22HD ASN S   2      12.798 -17.468  41.120  1.00 40.23 LIG 0.16  HD
ATOM     18 21HD ASN S   2      12.454 -16.024  41.239  1.00 40.23 LIG 0.16  HD
ENDBRANCH 13 14
ENDBRANCH 11 13
ENDBRANCH 8 11
ENDBRANCH 6 7
BRANCH 6 19
ATOM     19  CB  GLU S   3       5.933 -18.027  37.798  1.00 32.72 LIG 0.04  C 
BRANCH 19 20
ATOM     20  CG  GLU S   3       6.485 -17.162  36.668  1.00 35.99 LIG 0.12  C 
BRANCH 20 21
ATOM     21  CD  GLU S   3       7.141 -17.972  35.552  1.00 39.18 LIG 0.17  C 
ATOM     22 OE1  GLU S   3       8.319 -18.354  35.734  1.00 41.46 LIG-0.65  OA
ATOM     23 OE2  GLU S   3       6.487 -18.239  34.499  1.00 41.34 LIG-0.65  OA
ENDBRANCH 20 21
ENDBRANCH 19 20
ENDBRANCH 6 19
ENDBRANCH 4 6
ENDBRANCH 1 2
BRANCH 1 24
ATOM     24  CB  TYR S   4       7.449 -20.486  42.734  1.00 28.42 LIG 0.07  C 
BRANCH 24 25
ATOM     25  CG  TYR S   4       8.461 -19.800  43.604  1.00 29.89 LIG-0.06  A 
ATOM     26  CD2 TYR S   4       9.216 -18.716  43.130  1.00 30.34 LIG 0.01  A 
ATOM     27  CE2 TYR S   4      10.173 -18.097  43.965  1.00 32.01 LIG 0.04  A 
ATOM     28  CZ  TYR S   4      10.350 -18.571  45.261  1.00 31.83 LIG 0.07  A 
ATOM     29  CE1 TYR S   4       9.618 -19.630  45.717  1.00 31.31 LIG 0.04  A 
ATOM     30  CD1 TYR S   4       8.682 -20.234  44.899  1.00 30.54 LIG 0.01  A 
BRANCH 28 31
ATOM     31 OH   TYR S   4      11.292 -18.040  46.122  1.00 36.86 LIG-0.36  OA
ATOM     32 HH   TYR S   4      11.985 -18.516  46.108  1.00 36.86 LIG 0.22  HD
ENDBRANCH 28 31
ENDBRANCH 24 25
ENDBRANCH 1 24
BRANCH 1 33
ATOM     33  C   TYR S   4       5.797 -18.850  43.704  1.00 27.93 LIG 0.24  C 
ATOM     34  N   LYS S   5       5.028 -19.494  44.570  1.00 28.19 LIG-0.35  N 
ATOM     35 H    LYS S   5       4.771 -20.307  44.454  1.00 28.19 LIG 0.16  HD
ATOM     36 O    TYR S   4       6.098 -17.664  43.827  1.00 25.57 LIG-0.27  OA
BRANCH 34 37
ATOM     37  CA  LYS S   5       4.535 -18.899  45.809  1.00 28.81 LIG 0.18  C 
BRANCH 37 38
ATOM     38  CB  LYS S   5       3.586 -19.865  46.537  1.00 29.54 LIG 0.04  C 
BRANCH 38 39
ATOM     39  CG  LYS S   5       3.101 -19.401  47.923  1.00 33.24 LIG 0.00  C 
BRANCH 39 40
ATOM     40  CD  LYS S   5       2.723 -20.566  48.824  1.00 37.34 LIG 0.03  C 
BRANCH 40 41
ATOM     41  CE  LYS S   5       1.956 -20.061  50.050  1.00 39.48 LIG 0.23  C 
BRANCH 41 42
ATOM     42  NZ  LYS S   5       2.565 -20.560  51.310  1.00 41.40 LIG-0.08  N 
ATOM     43 HZ2  LYS S   5       3.135 -21.218  51.124  1.00 41.40 LIG 0.27  HD
ATOM     44 HZ1  LYS S   5       1.925 -20.866  51.848  1.00 41.40 LIG 0.27  HD
ATOM     45 HZ3  LYS S   5       3.000 -19.896  51.713  1.00 41.40 LIG 0.27  HD
ENDBRANCH 41 42
ENDBRANCH 40 41
ENDBRANCH 39 40
ENDBRANCH 38 39
ENDBRANCH 37 38
BRANCH 37 46
ATOM     46  C   LYS S   5       5.747 -18.566  46.663  1.00 28.43 LIG 0.24  C 
ATOM     47  N   VAL S   6       6.058 -17.286  46.777  1.00 27.37 LIG-0.34  N 
ATOM     48 H    VAL S   6       5.561 -16.649  46.481  1.00 27.37 LIG 0.16  HD
ATOM     49 O    LYS S   5       6.402 -19.447  47.204  1.00 28.58 LIG-0.27  OA
BRANCH 47 50
ATOM     50  CA  VAL S   6       7.271 -16.835  47.416  1.00 26.91 LIG 0.19  C 
BRANCH 50 51
ATOM     51  C   VAL S   6       7.000 -15.999  48.677  1.00 27.47 LIG 0.20  C 
ATOM     52 O    VAL S   6       7.821 -15.861  49.603  1.00 25.37 LIG-0.65  OA
ATOM     53 OXT  VAL S   6       5.907 -15.434  48.699  1.00 29.74 LIG-0.65  OA
ENDBRANCH 50 51
BRANCH 50 54
ATOM     54  CB  VAL S   6       8.166 -16.044  46.431  1.00 26.80 LIG 0.01  C 
ATOM     55  CG2 VAL S   6       9.574 -15.817  47.012  1.00 26.48 LIG 0.01  C 
ATOM     56  CG1 VAL S   6       7.527 -14.711  46.071  1.00 26.60 LIG 0.01  C 
ENDBRANCH 50 54
ENDBRANCH 47 50
ENDBRANCH 37 46
ENDBRANCH 34 37
ENDBRANCH 1 33
TORSDOF 23
ENDMDL
MODEL 34
USER: ADFR SOLUTION from run 37
USER: SCORE 17.805351 LL:  -4.726 LR: -13.567 RR:   0.000 FEB:  -6.706
USER: RMSD 10.410170
USER: SEED 36
USER: STATUS no improvement in best in 18 clusters for 5 generations
USER: GENES 25
USER: genes 0 Translation |==|  0.46299 0.66606 0.66184
USER: genes 1 Rotation |==|  0.12460 0.22202 0.35760 0.60732
USER: genes 2 Torsion [C]-CA--N-[C] |==|  0.79141
USER: genes 3 Torsion [N]-C--CA-[N] |==|  0.41475
USER: genes 4 Torsion [C]-CA--N-[C] |==|  0.83882
USER: genes 5 Torsion [N]-C--CA-[N] |==|  0.09714
USER: genes 6 Torsion [C]-CA--CB-[CG] |==|  0.61401
USER: genes 7 Torsion [CA]-CB--CG-[ND2] |==|  0.33953
USER: genes 8 Torsion [C]-CA--CB-[CG] |==|  0.03859
USER: genes 9 Torsion [CA]-CB--CG-[CD] |==|  0.25746
USER: genes 10 Torsion [CB]-CG--CD-[OE1] |==|  0.32152
USER: genes 11 Torsion [N]-CA--CB-[CG] |==|  0.93889
USER: genes 12 Torsion [CA]-CB--CG-[CD1] |==|  0.29716
USER: genes 13 Torsion [CE2]-CZ--OH-[HH] |==|  0.22743
USER: genes 14 Torsion [N]-CA--C-[N] |==|  0.83903
USER: genes 15 Torsion [C]-N--CA-[C] |==|  0.85362
USER: genes 16 Torsion [N]-CA--CB-[CG] |==|  0.61318
USER: genes 17 Torsion [CA]-CB--CG-[CD] |==|  0.00846
USER: genes 18 Torsion [CB]-CG--CD-[CE] |==|  0.70098
USER: genes 19 Torsion [CG]-CD--CE-[NZ] |==|  0.47969
USER: genes 20 Torsion [CD]-CE--NZ-[HZ3] |==|  0.38211
USER: genes 21 Torsion [N]-CA--C-[N] |==|  0.37563
USER: genes 22 Torsion [C]-N--CA-[C] |==|  0.83719
USER: genes 23 Torsion [N]-CA--C-[O] |==|  0.88517
USER: genes 24 Torsion [N]-CA--CB-[CG2] |==|  0.50445
ROOT
ATOM      1  CA  TYR S   4       7.577 -16.069  45.088  1.00 28.42 LIG 0.18  C 
ENDROOT
BRANCH 1 2
ATOM      2  N   TYR S   4       7.543 -17.361  45.748  1.00 30.10 LIG-0.35  N 
ATOM      3 H    TYR S   4       8.253 -17.537  46.199  1.00 30.10 LIG 0.16  HD
ATOM      4  C   GLU S   3       6.516 -18.195  45.664  1.00 31.33 LIG 0.24  C 
ATOM      5 O    GLU S   3       5.523 -17.982  44.962  1.00 31.71 LIG-0.27  OA
BRANCH 4 6
ATOM      6  CA  GLU S   3       6.628 -19.451  46.507  1.00 32.63 LIG 0.18  C 
BRANCH 6 7
ATOM      7  N   GLU S   3       5.285 -19.887  46.922  1.00 32.63 LIG-0.35  N 
ATOM      8  C   ASN S   2       4.502 -19.082  47.612  1.00 33.77 LIG 0.26  C 
ATOM      9 O    ASN S   2       4.885 -18.009  48.053  1.00 34.52 LIG-0.27  OA
ATOM     10 H    GLU S   3       5.072 -20.685  46.680  1.00 32.63 LIG 0.16  HD
BRANCH 8 11
ATOM     11  CA  ASN S   2       3.057 -19.551  47.824  1.00 34.66 LIG 0.41  C 
ATOM     12  N   ASN S   2       2.980 -21.040  47.988  1.00 35.02 LIG 0.61  N 
BRANCH 11 13
ATOM     13  CB  ASN S   2       2.490 -18.809  49.050  1.00 35.18 LIG 0.15  C 
BRANCH 13 14
ATOM     14  CG  ASN S   2       1.647 -19.708  49.957  1.00 37.91 LIG 0.22  C 
ATOM     15 OD1  ASN S   2       0.668 -20.312  49.511  1.00 41.54 LIG-0.27  OA
ATOM     16  ND2 ASN S   2       2.040 -19.808  51.231  1.00 40.23 LIG-0.37  N 
ATOM     17 22HD ASN S   2       2.727 -19.370  51.504  1.00 40.23 LIG 0.16  HD
ATOM     18 21HD ASN S   2       1.604 -20.309  51.777  1.00 40.23 LIG 0.16  HD
ENDBRANCH 13 14
ENDBRANCH 11 13
ENDBRANCH 8 11
ENDBRANCH 6 7
BRANCH 6 19
ATOM     19  CB  GLU S   3       7.366 -20.560  45.764  1.00 32.72 LIG 0.04  C 
BRANCH 19 20
ATOM     20  CG  GLU S   3       8.129 -20.148  44.508  1.00 35.99 LIG 0.12  C 
BRANCH 20 21
ATOM     21  CD  GLU S   3       9.593 -19.804  44.776  1.00 39.18 LIG 0.17  C 
ATOM     22 OE1  GLU S   3      10.462 -20.534  44.248  1.00 41.46 LIG-0.65  OA
ATOM     23 OE2  GLU S   3       9.883 -18.804  45.501  1.00 41.34 LIG-0.65  OA
ENDBRANCH 20 21
ENDBRANCH 19 20
ENDBRANCH 6 19
ENDBRANCH 4 6
ENDBRANCH 1 2
BRANCH 1 24
ATOM     24  CB  TYR S   4       8.664 -15.224  45.725  1.00 28.42 LIG 0.07  C 
BRANCH 24 25
ATOM     25  CG  TYR S   4       9.021 -15.676  47.110  1.00 29.89 LIG-0.06  A 
ATOM     26  CD2 TYR S   4       8.166 -15.441  48.198  1.00 30.34 LIG 0.01  A 
ATOM     27  CE2 TYR S   4       8.534 -15.864  49.494  1.00 32.01 LIG 0.04  A 
ATOM     28  CZ  TYR S   4       9.746 -16.521  49.676  1.00 31.83 LIG 0.07  A 
ATOM     29  CE1 TYR S   4      10.579 -16.743  48.616  1.00 31.31 LIG 0.04  A 
ATOM     30  CD1 TYR S   4      10.218 -16.328  47.348  1.00 30.54 LIG 0.01  A 
BRANCH 28 31
ATOM     31 OH   TYR S   4      10.188 -16.931  50.920  1.00 36.86 LIG-0.36  OA
ATOM     32 HH   TYR S   4       9.826 -17.662  51.120  1.00 36.86 LIG 0.22  HD
ENDBRANCH 28 31
ENDBRANCH 24 25
ENDBRANCH 1 24
BRANCH 1 33
ATOM     33  C   TYR S   4       7.820 -16.289  43.603  1.00 27.93 LIG 0.24  C 
ATOM     34  N   LYS S   5       8.927 -16.944  43.284  1.00 28.19 LIG-0.35  N 
ATOM     35 H    LYS S   5       9.488 -17.230  43.871  1.00 28.19 LIG 0.16  HD
ATOM     36 O    TYR S   4       7.060 -15.809  42.764  1.00 25.57 LIG-0.27  OA
BRANCH 34 37
ATOM     37  CA  LYS S   5       9.315 -17.252  41.910  1.00 28.81 LIG 0.18  C 
BRANCH 37 38
ATOM     38  CB  LYS S   5      10.571 -18.138  41.885  1.00 29.54 LIG 0.04  C 
BRANCH 38 39
ATOM     39  CG  LYS S   5      11.610 -17.787  40.804  1.00 33.24 LIG 0.00  C 
BRANCH 39 40
ATOM     40  CD  LYS S   5      11.217 -16.559  39.999  1.00 37.34 LIG 0.03  C 
BRANCH 40 41
ATOM     41  CE  LYS S   5      10.783 -16.967  38.587  1.00 39.48 LIG 0.23  C 
BRANCH 41 42
ATOM     42  NZ  LYS S   5      10.229 -15.809  37.838  1.00 41.40 LIG-0.08  N 
ATOM     43 HZ2  LYS S   5      10.477 -15.052  38.235  1.00 41.40 LIG 0.27  HD
ATOM     44 HZ1  LYS S   5       9.340 -15.860  37.828  1.00 41.40 LIG 0.27  HD
ATOM     45 HZ3  LYS S   5      10.537 -15.820  37.004  1.00 41.40 LIG 0.27  HD
ENDBRANCH 41 42
ENDBRANCH 40 41
ENDBRANCH 39 40
ENDBRANCH 38 39
ENDBRANCH 37 38
BRANCH 37 46
ATOM     46  C   LYS S   5       8.135 -17.947  41.253  1.00 28.43 LIG 0.24  C 
ATOM     47  N   VAL S   6       7.815 -17.546  40.034  1.00 27.37 LIG-0.34  N 
ATOM     48 H    VAL S   6       8.292 -16.997  39.574  1.00 27.37 LIG 0.16  HD
ATOM     49 O    LYS S   5       7.513 -18.825  41.836  1.00 28.58 LIG-0.27  OA
BRANCH 47 50
ATOM     50  CA  VAL S   6       6.623 -17.998  39.356  1.00 26.91 LIG 0.19  C 
BRANCH 50 51
ATOM     51  C   VAL S   6       6.576 -19.525  39.196  1.00 27.47 LIG 0.20  C 
ATOM     52 O    VAL S   6       7.563 -20.218  38.885  1.00 25.37 LIG-0.65  OA
ATOM     53 OXT  VAL S   6       5.483 -20.038  39.433  1.00 29.74 LIG-0.65  OA
ENDBRANCH 50 51
BRANCH 50 54
ATOM     54  CB  VAL S   6       6.464 -17.309  37.978  1.00 26.80 LIG 0.01  C 
ATOM     55  CG2 VAL S   6       5.173 -17.760  37.272  1.00 26.48 LIG 0.01  C 
ATOM     56  CG1 VAL S   6       7.670 -17.588  37.092  1.00 26.60 LIG 0.01  C 
ENDBRANCH 50 54
ENDBRANCH 47 50
ENDBRANCH 37 46
ENDBRANCH 34 37
ENDBRANCH 1 33
TORSDOF 23
ENDMDL
MODEL 35
USER: ADFR SOLUTION from run 27
USER: SCORE 18.842685 LL:  -6.318 LR: -13.574 RR:   0.000 FEB:  -6.713
USER: RMSD 8.828431
USER: SEED 26
USER: STATUS no improvement in best in 5 clusters for 5 generations
USER: GENES 25
USER: genes 0 Translation |==|  0.55928 0.62578 0.66067
USER: genes 1 Rotation |==|  0.55571 0.63823 0.92917 0.70880
USER: genes 2 Torsion [C]-CA--N-[C] |==|  0.79701
USER: genes 3 Torsion [N]-C--CA-[N] |==|  0.92326
USER: genes 4 Torsion [C]-CA--N-[C] |==|  0.82314
USER: genes 5 Torsion [N]-C--CA-[N] |==|  0.58692
USER: genes 6 Torsion [C]-CA--CB-[CG] |==|  0.72134
USER: genes 7 Torsion [CA]-CB--CG-[ND2] |==|  0.35206
USER: genes 8 Torsion [C]-CA--CB-[CG] |==|  0.72759
USER: genes 9 Torsion [CA]-CB--CG-[CD] |==|  0.17017
USER: genes 10 Torsion [CB]-CG--CD-[OE1] |==|  0.16138
USER: genes 11 Torsion [N]-CA--CB-[CG] |==|  0.33369
USER: genes 12 Torsion [CA]-CB--CG-[CD1] |==|  0.24868
USER: genes 13 Torsion [CE2]-CZ--OH-[HH] |==|  0.12332
USER: genes 14 Torsion [N]-CA--C-[N] |==|  0.96194
USER: genes 15 Torsion [C]-N--CA-[C] |==|  0.21655
USER: genes 16 Torsion [N]-CA--CB-[CG] |==|  0.58455
USER: genes 17 Torsion [CA]-CB--CG-[CD] |==|  0.38172
USER: genes 18 Torsion [CB]-CG--CD-[CE] |==|  0.64735
USER: genes 19 Torsion [CG]-CD--CE-[NZ] |==|  0.51355
USER: genes 20 Torsion [CD]-CE--NZ-[HZ3] |==|  0.85835
USER: genes 21 Torsion [N]-CA--C-[N] |==|  0.62279
USER: genes 22 Torsion [C]-N--CA-[C] |==|  0.59613
USER: genes 23 Torsion [N]-CA--C-[O] |==|  0.64142
USER: genes 24 Torsion [N]-CA--CB-[CG2] |==|  0.11628
ROOT
ATOM      1  CA  TYR S   4       9.599 -16.734  45.060  1.00 28.42 LIG 0.18  C 
ENDROOT
BRANCH 1 2
ATOM      2  N   TYR S   4       9.125 -17.788  44.183  1.00 30.10 LIG-0.35  N 
ATOM      3 H    TYR S   4       8.299 -17.993  44.306  1.00 30.10 LIG 0.16  HD
ATOM      4  C   GLU S   3       9.889 -18.381  43.276  1.00 31.33 LIG 0.24  C 
ATOM      5 O    GLU S   3      11.093 -18.141  43.141  1.00 31.71 LIG-0.27  OA
BRANCH 4 6
ATOM      6  CA  GLU S   3       9.183 -19.386  42.387  1.00 32.63 LIG 0.18  C 
BRANCH 6 7
ATOM      7  N   GLU S   3       8.034 -19.959  43.107  1.00 32.63 LIG-0.35  N 
ATOM      8  C   ASN S   2       8.217 -20.675  44.199  1.00 33.77 LIG 0.26  C 
ATOM      9 O    ASN S   2       9.324 -21.012  44.589  1.00 34.52 LIG-0.27  OA
ATOM     10 H    GLU S   3       7.266 -19.788  42.760  1.00 32.63 LIG 0.16  HD
BRANCH 8 11
ATOM     11  CA  ASN S   2       6.955 -21.059  44.982  1.00 34.66 LIG 0.41  C 
ATOM     12  N   ASN S   2       7.230 -21.163  46.452  1.00 35.02 LIG 0.61  N 
BRANCH 11 13
ATOM     13  CB  ASN S   2       5.866 -20.014  44.674  1.00 35.18 LIG 0.15  C 
BRANCH 13 14
ATOM     14  CG  ASN S   2       5.715 -18.964  45.778  1.00 37.91 LIG 0.22  C 
ATOM     15 OD1  ASN S   2       5.549 -19.304  46.953  1.00 41.54 LIG-0.27  OA
ATOM     16  ND2 ASN S   2       5.788 -17.684  45.399  1.00 40.23 LIG-0.37  N 
ATOM     17 22HD ASN S   2       5.904 -17.487  44.571  1.00 40.23 LIG 0.16  HD
ATOM     18 21HD ASN S   2       5.719 -17.058  45.984  1.00 40.23 LIG 0.16  HD
ENDBRANCH 13 14
ENDBRANCH 11 13
ENDBRANCH 8 11
ENDBRANCH 6 7
BRANCH 6 19
ATOM     19  CB  GLU S   3       8.753 -18.761  41.065  1.00 32.72 LIG 0.04  C 
BRANCH 19 20
ATOM     20  CG  GLU S   3       7.300 -18.303  40.969  1.00 35.99 LIG 0.12  C 
BRANCH 20 21
ATOM     21  CD  GLU S   3       6.940 -17.219  41.984  1.00 39.18 LIG 0.17  C 
ATOM     22 OE1  GLU S   3       7.603 -16.158  41.954  1.00 41.46 LIG-0.65  OA
ATOM     23 OE2  GLU S   3       5.993 -17.415  42.805  1.00 41.34 LIG-0.65  OA
ENDBRANCH 20 21
ENDBRANCH 19 20
ENDBRANCH 6 19
ENDBRANCH 4 6
ENDBRANCH 1 2
BRANCH 1 24
ATOM     24  CB  TYR S   4       8.402 -16.040  45.682  1.00 28.42 LIG 0.07  C 
BRANCH 24 25
ATOM     25  CG  TYR S   4       8.393 -16.120  47.181  1.00 29.89 LIG-0.06  A 
ATOM     26  CD2 TYR S   4       7.746 -17.169  47.852  1.00 30.34 LIG 0.01  A 
ATOM     27  CE2 TYR S   4       7.739 -17.212  49.263  1.00 32.01 LIG 0.04  A 
ATOM     28  CZ  TYR S   4       8.388 -16.209  49.976  1.00 31.83 LIG 0.07  A 
ATOM     29  CE1 TYR S   4       9.012 -15.186  49.320  1.00 31.31 LIG 0.04  A 
ATOM     30  CD1 TYR S   4       9.017 -15.145  47.938  1.00 30.54 LIG 0.01  A 
BRANCH 28 31
ATOM     31 OH   TYR S   4       8.392 -16.166  51.358  1.00 36.86 LIG-0.36  OA
ATOM     32 HH   TYR S   4       8.544 -16.934  51.663  1.00 36.86 LIG 0.22  HD
ENDBRANCH 28 31
ENDBRANCH 24 25
ENDBRANCH 1 24
BRANCH 1 33
ATOM     33  C   TYR S   4      10.511 -17.350  46.109  1.00 27.93 LIG 0.24  C 
ATOM     34  N   LYS S   5      10.474 -18.671  46.211  1.00 28.19 LIG-0.35  N 
ATOM     35 H    LYS S   5       9.965 -19.164  45.724  1.00 28.19 LIG 0.16  HD
ATOM     36 O    TYR S   4      11.177 -16.638  46.860  1.00 25.57 LIG-0.27  OA
BRANCH 34 37
ATOM     37  CA  LYS S   5      11.287 -19.431  47.157  1.00 28.81 LIG 0.18  C 
BRANCH 37 38
ATOM     38  CB  LYS S   5      12.731 -18.902  47.180  1.00 29.54 LIG 0.04  C 
BRANCH 38 39
ATOM     39  CG  LYS S   5      13.816 -19.946  47.501  1.00 33.24 LIG 0.00  C 
BRANCH 39 40
ATOM     40  CD  LYS S   5      15.039 -19.803  46.609  1.00 37.34 LIG 0.03  C 
BRANCH 40 41
ATOM     41  CE  LYS S   5      15.368 -21.142  45.943  1.00 39.48 LIG 0.23  C 
BRANCH 41 42
ATOM     42  NZ  LYS S   5      16.627 -21.059  45.158  1.00 41.40 LIG-0.08  N 
ATOM     43 HZ2  LYS S   5      16.728 -21.801  44.678  1.00 41.40 LIG 0.27  HD
ATOM     44 HZ1  LYS S   5      17.317 -20.969  45.713  1.00 41.40 LIG 0.27  HD
ATOM     45 HZ3  LYS S   5      16.591 -20.357  44.612  1.00 41.40 LIG 0.27  HD
ENDBRANCH 41 42
ENDBRANCH 40 41
ENDBRANCH 39 40
ENDBRANCH 38 39
ENDBRANCH 37 38
BRANCH 37 46
ATOM     46  C   LYS S   5      10.630 -19.303  48.521  1.00 28.43 LIG 0.24  C 
ATOM     47  N   VAL S   6      11.431 -19.064  49.545  1.00 27.37 LIG-0.34  N 
ATOM     48 H    VAL S   6      12.268 -18.884  49.461  1.00 27.37 LIG 0.16  HD
ATOM     49 O    LYS S   5       9.420 -19.428  48.655  1.00 28.58 LIG-0.27  OA
BRANCH 47 50
ATOM     50  CA  VAL S   6      10.971 -19.082  50.913  1.00 26.91 LIG 0.19  C 
BRANCH 50 51
ATOM     51  C   VAL S   6      11.686 -18.044  51.792  1.00 27.47 LIG 0.20  C 
ATOM     52 O    VAL S   6      12.219 -18.314  52.885  1.00 25.37 LIG-0.65  OA
ATOM     53 OXT  VAL S   6      11.729 -16.908  51.321  1.00 29.74 LIG-0.65  OA
ENDBRANCH 50 51
BRANCH 50 54
ATOM     54  CB  VAL S   6      11.105 -20.495  51.534  1.00 26.80 LIG 0.01  C 
ATOM     55  CG2 VAL S   6      12.439 -21.155  51.139  1.00 26.48 LIG 0.01  C 
ATOM     56  CG1 VAL S   6       9.940 -21.381  51.118  1.00 26.60 LIG 0.01  C 
ENDBRANCH 50 54
ENDBRANCH 47 50
ENDBRANCH 37 46
ENDBRANCH 34 37
ENDBRANCH 1 33
TORSDOF 23
ENDMDL
MODEL 36
USER: ADFR SOLUTION from run 77
USER: SCORE 18.099616 LL:  -5.362 LR: -13.560 RR:   0.000 FEB:  -6.699
USER: RMSD 7.513353
USER: SEED 76
USER: STATUS no improvement in best in 4 clusters for 5 generations
USER: GENES 25
USER: genes 0 Translation |==|  0.56412 0.59187 0.59883
USER: genes 1 Rotation |==|  0.45050 0.47687 0.95100 0.70884
USER: genes 2 Torsion [C]-CA--N-[C] |==|  0.70556
USER: genes 3 Torsion [N]-C--CA-[N] |==|  0.25128
USER: genes 4 Torsion [C]-CA--N-[C] |==|  0.58747
USER: genes 5 Torsion [N]-C--CA-[N] |==|  0.23576
USER: genes 6 Torsion [C]-CA--CB-[CG] |==|  0.31724
USER: genes 7 Torsion [CA]-CB--CG-[ND2] |==|  0.84471
USER: genes 8 Torsion [C]-CA--CB-[CG] |==|  0.09328
USER: genes 9 Torsion [CA]-CB--CG-[CD] |==|  0.29978
USER: genes 10 Torsion [CB]-CG--CD-[OE1] |==|  0.44951
USER: genes 11 Torsion [N]-CA--CB-[CG] |==|  0.45582
USER: genes 12 Torsion [CA]-CB--CG-[CD1] |==|  0.72506
USER: genes 13 Torsion [CE2]-CZ--OH-[HH] |==|  0.51249
USER: genes 14 Torsion [N]-CA--C-[N] |==|  0.33414
USER: genes 15 Torsion [C]-N--CA-[C] |==|  0.59349
USER: genes 16 Torsion [N]-CA--CB-[CG] |==|  0.92602
USER: genes 17 Torsion [CA]-CB--CG-[CD] |==|  0.48421
USER: genes 18 Torsion [CB]-CG--CD-[CE] |==|  0.83011
USER: genes 19 Torsion [CG]-CD--CE-[NZ] |==|  0.67949
USER: genes 20 Torsion [CD]-CE--NZ-[HZ3] |==|  0.33948
USER: genes 21 Torsion [N]-CA--C-[N] |==|  0.42989
USER: genes 22 Torsion [C]-N--CA-[C] |==|  0.56731
USER: genes 23 Torsion [N]-CA--C-[O] |==|  0.45648
USER: genes 24 Torsion [N]-CA--CB-[CG2] |==|  0.03675
ROOT
ATOM      1  CA  TYR S   4       9.701 -17.293  43.576  1.00 28.42 LIG 0.18  C 
ENDROOT
BRANCH 1 2
ATOM      2  N   TYR S   4      10.045 -17.884  42.296  1.00 30.10 LIG-0.35  N 
ATOM      3 H    TYR S   4       9.470 -18.458  42.015  1.00 30.10 LIG 0.16  HD
ATOM      4  C   GLU S   3      11.142 -17.571  41.620  1.00 31.33 LIG 0.24  C 
ATOM      5 O    GLU S   3      12.008 -16.801  42.049  1.00 31.71 LIG-0.27  OA
BRANCH 4 6
ATOM      6  CA  GLU S   3      11.273 -18.219  40.256  1.00 32.63 LIG 0.18  C 
BRANCH 6 7
ATOM      7  N   GLU S   3      10.665 -17.350  39.236  1.00 32.63 LIG-0.35  N 
ATOM      8  C   ASN S   2      10.098 -17.868  38.165  1.00 33.77 LIG 0.26  C 
ATOM      9 O    ASN S   2      10.164 -19.058  37.895  1.00 34.52 LIG-0.27  OA
ATOM     10 H    GLU S   3      10.714 -16.507  39.402  1.00 32.63 LIG 0.16  HD
BRANCH 8 11
ATOM     11  CA  ASN S   2       9.323 -16.898  37.266  1.00 34.66 LIG 0.41  C 
ATOM     12  N   ASN S   2      10.229 -16.209  36.289  1.00 35.02 LIG 0.61  N 
BRANCH 11 13
ATOM     13  CB  ASN S   2       8.210 -17.691  36.555  1.00 35.18 LIG 0.15  C 
BRANCH 13 14
ATOM     14  CG  ASN S   2       6.803 -17.260  36.979  1.00 37.91 LIG 0.22  C 
ATOM     15 OD1  ASN S   2       5.973 -16.905  36.139  1.00 41.54 LIG-0.27  OA
ATOM     16  ND2 ASN S   2       6.534 -17.308  38.288  1.00 40.23 LIG-0.37  N 
ATOM     17 22HD ASN S   2       7.140 -17.561  38.843  1.00 40.23 LIG 0.16  HD
ATOM     18 21HD ASN S   2       5.754 -17.086  38.575  1.00 40.23 LIG 0.16  HD
ENDBRANCH 13 14
ENDBRANCH 11 13
ENDBRANCH 8 11
ENDBRANCH 6 7
BRANCH 6 19
ATOM     19  CB  GLU S   3      12.728 -18.532  39.922  1.00 32.72 LIG 0.04  C 
BRANCH 19 20
ATOM     20  CG  GLU S   3      13.627 -18.922  41.092  1.00 35.99 LIG 0.12  C 
BRANCH 20 21
ATOM     21  CD  GLU S   3      13.999 -20.403  41.101  1.00 39.18 LIG 0.17  C 
ATOM     22 OE1  GLU S   3      14.985 -20.746  41.791  1.00 41.46 LIG-0.65  OA
ATOM     23 OE2  GLU S   3      13.307 -21.230  40.432  1.00 41.34 LIG-0.65  OA
ENDBRANCH 20 21
ENDBRANCH 19 20
ENDBRANCH 6 19
ENDBRANCH 4 6
ENDBRANCH 1 2
BRANCH 1 24
ATOM     24  CB  TYR S   4       8.253 -16.841  43.532  1.00 28.42 LIG 0.07  C 
BRANCH 24 25
ATOM     25  CG  TYR S   4       7.683 -16.570  44.893  1.00 29.89 LIG-0.06  A 
ATOM     26  CD2 TYR S   4       7.936 -15.362  45.563  1.00 30.34 LIG 0.01  A 
ATOM     27  CE2 TYR S   4       7.400 -15.138  46.850  1.00 32.01 LIG 0.04  A 
ATOM     28  CZ  TYR S   4       6.615 -16.123  47.439  1.00 31.83 LIG 0.07  A 
ATOM     29  CE1 TYR S   4       6.376 -17.300  46.787  1.00 31.31 LIG 0.04  A 
ATOM     30  CD1 TYR S   4       6.901 -17.518  45.528  1.00 30.54 LIG 0.01  A 
BRANCH 28 31
ATOM     31 OH   TYR S   4       6.088 -15.990  48.710  1.00 36.86 LIG-0.36  OA
ATOM     32 HH   TYR S   4       5.695 -16.700  48.927  1.00 36.86 LIG 0.22  HD
ENDBRANCH 28 31
ENDBRANCH 24 25
ENDBRANCH 1 24
BRANCH 1 33
ATOM     33  C   TYR S   4       9.944 -18.325  44.667  1.00 27.93 LIG 0.24  C 
ATOM     34  N   LYS S   5      10.819 -17.988  45.603  1.00 28.19 LIG-0.35  N 
ATOM     35 H    LYS S   5      11.237 -17.236  45.605  1.00 28.19 LIG 0.16  HD
ATOM     36 O    TYR S   4       9.406 -19.430  44.618  1.00 25.57 LIG-0.27  OA
BRANCH 34 37
ATOM     37  CA  LYS S   5      11.168 -18.851  46.729  1.00 28.81 LIG 0.18  C 
BRANCH 37 38
ATOM     38  CB  LYS S   5      12.387 -19.724  46.388  1.00 29.54 LIG 0.04  C 
BRANCH 38 39
ATOM     39  CG  LYS S   5      12.591 -20.026  44.892  1.00 33.24 LIG 0.00  C 
BRANCH 39 40
ATOM     40  CD  LYS S   5      13.886 -20.775  44.624  1.00 37.34 LIG 0.03  C 
BRANCH 40 41
ATOM     41  CE  LYS S   5      15.087 -19.934  45.069  1.00 39.48 LIG 0.23  C 
BRANCH 41 42
ATOM     42  NZ  LYS S   5      15.938 -19.555  43.912  1.00 41.40 LIG-0.08  N 
ATOM     43 HZ2  LYS S   5      15.573 -19.862  43.161  1.00 41.40 LIG 0.27  HD
ATOM     44 HZ1  LYS S   5      16.750 -19.907  44.012  1.00 41.40 LIG 0.27  HD
ATOM     45 HZ3  LYS S   5      16.003 -18.668  43.868  1.00 41.40 LIG 0.27  HD
ENDBRANCH 41 42
ENDBRANCH 40 41
ENDBRANCH 39 40
ENDBRANCH 38 39
ENDBRANCH 37 38
BRANCH 37 46
ATOM     46  C   LYS S   5      11.450 -17.948  47.918  1.00 28.43 LIG 0.24  C 
ATOM     47  N   VAL S   6      11.281 -18.478  49.118  1.00 27.37 LIG-0.34  N 
ATOM     48 H    VAL S   6      11.120 -19.313  49.249  1.00 27.37 LIG 0.16  HD
ATOM     49 O    LYS S   5      11.806 -16.787  47.762  1.00 28.58 LIG-0.27  OA
BRANCH 47 50
ATOM     50  CA  VAL S   6      11.351 -17.696  50.330  1.00 26.91 LIG 0.19  C 
BRANCH 50 51
ATOM     51  C   VAL S   6      11.714 -18.543  51.559  1.00 27.47 LIG 0.20  C 
ATOM     52 O    VAL S   6      12.103 -18.061  52.639  1.00 25.37 LIG-0.65  OA
ATOM     53 OXT  VAL S   6      11.560 -19.756  51.417  1.00 29.74 LIG-0.65  OA
ENDBRANCH 50 51
BRANCH 50 54
ATOM     54  CB  VAL S   6      10.032 -16.925  50.580  1.00 26.80 LIG 0.01  C 
ATOM     55  CG2 VAL S   6       8.901 -17.441  49.672  1.00 26.48 LIG 0.01  C 
ATOM     56  CG1 VAL S   6      10.231 -15.431  50.370  1.00 26.60 LIG 0.01  C 
ENDBRANCH 50 54
ENDBRANCH 47 50
ENDBRANCH 37 46
ENDBRANCH 34 37
ENDBRANCH 1 33
TORSDOF 23
ENDMDL
MODEL 37
USER: ADFR SOLUTION from run 127
USER: SCORE 17.747858 LL:  -4.824 LR: -13.542 RR:   0.000 FEB:  -6.681
USER: RMSD 7.163971
USER: SEED 126
USER: STATUS no improvement in best in 6 clusters for 5 generations
USER: GENES 25
USER: genes 0 Translation |==|  0.41362 0.53032 0.63387
USER: genes 1 Rotation |==|  0.54847 0.49548 0.00335 0.53113
USER: genes 2 Torsion [C]-CA--N-[C] |==|  0.65885
USER: genes 3 Torsion [N]-C--CA-[N] |==|  0.42280
USER: genes 4 Torsion [C]-CA--N-[C] |==|  0.64519
USER: genes 5 Torsion [N]-C--CA-[N] |==|  0.23496
USER: genes 6 Torsion [C]-CA--CB-[CG] |==|  0.69728
USER: genes 7 Torsion [CA]-CB--CG-[ND2] |==|  0.23459
USER: genes 8 Torsion [C]-CA--CB-[CG] |==|  0.71721
USER: genes 9 Torsion [CA]-CB--CG-[CD] |==|  0.76505
USER: genes 10 Torsion [CB]-CG--CD-[OE1] |==|  0.77175
USER: genes 11 Torsion [N]-CA--CB-[CG] |==|  0.48860
USER: genes 12 Torsion [CA]-CB--CG-[CD1] |==|  0.61721
USER: genes 13 Torsion [CE2]-CZ--OH-[HH] |==|  0.67147
USER: genes 14 Torsion [N]-CA--C-[N] |==|  0.02653
USER: genes 15 Torsion [C]-N--CA-[C] |==|  0.78889
USER: genes 16 Torsion [N]-CA--CB-[CG] |==|  0.51244
USER: genes 17 Torsion [CA]-CB--CG-[CD] |==|  0.51870
USER: genes 18 Torsion [CB]-CG--CD-[CE] |==|  0.44665
USER: genes 19 Torsion [CG]-CD--CE-[NZ] |==|  0.58315
USER: genes 20 Torsion [CD]-CE--NZ-[HZ3] |==|  0.18892
USER: genes 21 Torsion [N]-CA--C-[N] |==|  0.18686
USER: genes 22 Torsion [C]-N--CA-[C] |==|  0.66239
USER: genes 23 Torsion [N]-CA--C-[O] |==|  0.38292
USER: genes 24 Torsion [N]-CA--CB-[CG2] |==|  0.16431
ROOT
ATOM      1  CA  TYR S   4       6.540 -18.309  44.417  1.00 28.42 LIG 0.18  C 
ENDROOT
BRANCH 1 2
ATOM      2  N   TYR S   4       7.314 -18.591  43.222  1.00 30.10 LIG-0.35  N 
ATOM      3 H    TYR S   4       7.673 -19.371  43.221  1.00 30.10 LIG 0.16  HD
ATOM      4  C   GLU S   3       7.455 -17.729  42.225  1.00 31.33 LIG 0.24  C 
ATOM      5 O    GLU S   3       7.001 -16.580  42.250  1.00 31.71 LIG-0.27  OA
BRANCH 4 6
ATOM      6  CA  GLU S   3       8.215 -18.247  41.020  1.00 32.63 LIG 0.18  C 
BRANCH 6 7
ATOM      7  N   GLU S   3       7.761 -17.542  39.810  1.00 32.63 LIG-0.35  N 
ATOM      8  C   ASN S   2       7.370 -18.218  38.748  1.00 33.77 LIG 0.26  C 
ATOM      9 O    ASN S   2       7.490 -19.431  38.657  1.00 34.52 LIG-0.27  OA
ATOM     10 H    GLU S   3       7.775 -16.684  39.863  1.00 32.63 LIG 0.16  HD
BRANCH 8 11
ATOM     11  CA  ASN S   2       6.732 -17.403  37.617  1.00 34.66 LIG 0.41  C 
ATOM     12  N   ASN S   2       7.770 -16.819  36.705  1.00 35.02 LIG 0.61  N 
BRANCH 11 13
ATOM     13  CB  ASN S   2       5.755 -18.322  36.859  1.00 35.18 LIG 0.15  C 
BRANCH 13 14
ATOM     14  CG  ASN S   2       6.252 -18.702  35.462  1.00 37.91 LIG 0.22  C 
ATOM     15 OD1  ASN S   2       5.899 -18.059  34.470  1.00 41.54 LIG-0.27  OA
ATOM     16  ND2 ASN S   2       7.087 -19.744  35.389  1.00 40.23 LIG-0.37  N 
ATOM     17 22HD ASN S   2       7.309 -20.167  36.103  1.00 40.23 LIG 0.16  HD
ATOM     18 21HD ASN S   2       7.402 -19.990  34.628  1.00 40.23 LIG 0.16  HD
ENDBRANCH 13 14
ENDBRANCH 11 13
ENDBRANCH 8 11
ENDBRANCH 6 7
BRANCH 6 19
ATOM     19  CB  GLU S   3       9.723 -18.110  41.207  1.00 32.72 LIG 0.04  C 
BRANCH 19 20
ATOM     20  CG  GLU S   3      10.396 -16.944  40.489  1.00 35.99 LIG 0.12  C 
BRANCH 20 21
ATOM     21  CD  GLU S   3      10.758 -17.256  39.038  1.00 39.18 LIG 0.17  C 
ATOM     22 OE1  GLU S   3      11.822 -17.881  38.831  1.00 41.46 LIG-0.65  OA
ATOM     23 OE2  GLU S   3       9.982 -16.890  38.103  1.00 41.34 LIG-0.65  OA
ENDBRANCH 20 21
ENDBRANCH 19 20
ENDBRANCH 6 19
ENDBRANCH 4 6
ENDBRANCH 1 2
BRANCH 1 24
ATOM     24  CB  TYR S   4       5.353 -19.252  44.464  1.00 28.42 LIG 0.07  C 
BRANCH 24 25
ATOM     25  CG  TYR S   4       4.540 -19.106  45.717  1.00 29.89 LIG-0.06  A 
ATOM     26  CD2 TYR S   4       4.252 -17.844  46.258  1.00 30.34 LIG 0.01  A 
ATOM     27  CE2 TYR S   4       3.497 -17.736  47.447  1.00 32.01 LIG 0.04  A 
ATOM     28  CZ  TYR S   4       3.040 -18.893  48.068  1.00 31.83 LIG 0.07  A 
ATOM     29  CE1 TYR S   4       3.328 -20.121  47.543  1.00 31.31 LIG 0.04  A 
ATOM     30  CD1 TYR S   4       4.066 -20.225  46.379  1.00 30.54 LIG 0.01  A 
BRANCH 28 31
ATOM     31 OH   TYR S   4       2.328 -18.866  49.253  1.00 36.86 LIG-0.36  OA
ATOM     32 HH   TYR S   4       2.756 -19.278  49.847  1.00 36.86 LIG 0.22  HD
ENDBRANCH 28 31
ENDBRANCH 24 25
ENDBRANCH 1 24
BRANCH 1 33
ATOM     33  C   TYR S   4       7.445 -18.468  45.629  1.00 27.93 LIG 0.24  C 
ATOM     34  N   LYS S   5       8.737 -18.621  45.376  1.00 28.19 LIG-0.35  N 
ATOM     35 H    LYS S   5       9.059 -18.636  44.579  1.00 28.19 LIG 0.16  HD
ATOM     36 O    TYR S   4       6.972 -18.527  46.763  1.00 25.57 LIG-0.27  OA
BRANCH 34 37
ATOM     37  CA  LYS S   5       9.750 -18.778  46.417  1.00 28.81 LIG 0.18  C 
BRANCH 37 38
ATOM     38  CB  LYS S   5      11.046 -19.361  45.831  1.00 29.54 LIG 0.04  C 
BRANCH 38 39
ATOM     39  CG  LYS S   5      12.155 -19.674  46.852  1.00 33.24 LIG 0.00  C 
BRANCH 39 40
ATOM     40  CD  LYS S   5      13.456 -20.090  46.185  1.00 37.34 LIG 0.03  C 
BRANCH 40 41
ATOM     41  CE  LYS S   5      14.627 -19.930  47.159  1.00 39.48 LIG 0.23  C 
BRANCH 41 42
ATOM     42  NZ  LYS S   5      15.889 -19.621  46.439  1.00 41.40 LIG-0.08  N 
ATOM     43 HZ2  LYS S   5      16.019 -20.222  45.795  1.00 41.40 LIG 0.27  HD
ATOM     44 HZ1  LYS S   5      16.571 -19.648  47.011  1.00 41.40 LIG 0.27  HD
ATOM     45 HZ3  LYS S   5      15.836 -18.809  46.079  1.00 41.40 LIG 0.27  HD
ENDBRANCH 41 42
ENDBRANCH 40 41
ENDBRANCH 39 40
ENDBRANCH 38 39
ENDBRANCH 37 38
BRANCH 37 46
ATOM     46  C   LYS S   5       9.986 -17.407  47.027  1.00 28.43 LIG 0.24  C 
ATOM     47  N   VAL S   6       8.985 -16.884  47.715  1.00 27.37 LIG-0.34  N 
ATOM     48 H    VAL S   6       8.266 -17.315  47.909  1.00 27.37 LIG 0.16  HD
ATOM     49 O    LYS S   5      11.050 -16.821  46.875  1.00 28.58 LIG-0.27  OA
BRANCH 47 50
ATOM     50  CA  VAL S   6       9.007 -15.528  48.209  1.00 26.91 LIG 0.19  C 
BRANCH 50 51
ATOM     51  C   VAL S   6       8.849 -15.452  49.736  1.00 27.47 LIG 0.20  C 
ATOM     52 O    VAL S   6       9.514 -14.689  50.462  1.00 25.37 LIG-0.65  OA
ATOM     53 OXT  VAL S   6       7.979 -16.186  50.204  1.00 29.74 LIG-0.65  OA
ENDBRANCH 50 51
BRANCH 50 54
ATOM     54  CB  VAL S   6       7.930 -14.658  47.515  1.00 26.80 LIG 0.01  C 
ATOM     55  CG2 VAL S   6       6.518 -15.230  47.739  1.00 26.48 LIG 0.01  C 
ATOM     56  CG1 VAL S   6       8.214 -14.535  46.025  1.00 26.60 LIG 0.01  C 
ENDBRANCH 50 54
ENDBRANCH 47 50
ENDBRANCH 37 46
ENDBRANCH 34 37
ENDBRANCH 1 33
TORSDOF 23
ENDMDL
MODEL 38
USER: ADFR SOLUTION from run 175
USER: SCORE 17.440015 LL:  -4.633 LR: -13.542 RR:   0.000 FEB:  -6.681
USER: RMSD 6.491227
USER: SEED 174
USER: STATUS no improvement in best in 4 clusters for 5 generations
USER: GENES 25
USER: genes 0 Translation |==|  0.57834 0.58906 0.65047
USER: genes 1 Rotation |==|  0.47043 0.31497 0.58035 0.95654
USER: genes 2 Torsion [C]-CA--N-[C] |==|  0.80790
USER: genes 3 Torsion [N]-C--CA-[N] |==|  0.37981
USER: genes 4 Torsion [C]-CA--N-[C] |==|  0.73814
USER: genes 5 Torsion [N]-C--CA-[N] |==|  0.18695
USER: genes 6 Torsion [C]-CA--CB-[CG] |==|  0.17650
USER: genes 7 Torsion [CA]-CB--CG-[ND2] |==|  0.60487
USER: genes 8 Torsion [C]-CA--CB-[CG] |==|  0.89674
USER: genes 9 Torsion [CA]-CB--CG-[CD] |==|  0.25451
USER: genes 10 Torsion [CB]-CG--CD-[OE1] |==|  0.05231
USER: genes 11 Torsion [N]-CA--CB-[CG] |==|  0.48414
USER: genes 12 Torsion [CA]-CB--CG-[CD1] |==|  0.22829
USER: genes 13 Torsion [CE2]-CZ--OH-[HH] |==|  0.32223
USER: genes 14 Torsion [N]-CA--C-[N] |==|  0.23491
USER: genes 15 Torsion [C]-N--CA-[C] |==|  0.81850
USER: genes 16 Torsion [N]-CA--CB-[CG] |==|  0.18118
USER: genes 17 Torsion [CA]-CB--CG-[CD] |==|  0.77382
USER: genes 18 Torsion [CB]-CG--CD-[CE] |==|  0.36879
USER: genes 19 Torsion [CG]-CD--CE-[NZ] |==|  0.07569
USER: genes 20 Torsion [CD]-CE--NZ-[HZ3] |==|  0.47083
USER: genes 21 Torsion [N]-CA--C-[N] |==|  0.35914
USER: genes 22 Torsion [C]-N--CA-[C] |==|  0.16999
USER: genes 23 Torsion [N]-CA--C-[O] |==|  0.67081
USER: genes 24 Torsion [N]-CA--CB-[CG2] |==|  0.90985
ROOT
ATOM      1  CA  TYR S   4       9.999 -17.339  44.815  1.00 28.42 LIG 0.18  C 
ENDROOT
BRANCH 1 2
ATOM      2  N   TYR S   4      10.505 -17.172  43.465  1.00 30.10 LIG-0.35  N 
ATOM      3 H    TYR S   4      10.839 -16.394  43.317  1.00 30.10 LIG 0.16  HD
ATOM      4  C   GLU S   3      10.457 -18.125  42.545  1.00 31.33 LIG 0.24  C 
ATOM      5 O    GLU S   3       9.915 -19.220  42.728  1.00 31.71 LIG-0.27  OA
BRANCH 4 6
ATOM      6  CA  GLU S   3      11.129 -17.791  41.227  1.00 32.63 LIG 0.18  C 
BRANCH 6 7
ATOM      7  N   GLU S   3      11.913 -18.949  40.767  1.00 32.63 LIG-0.35  N 
ATOM      8  C   ASN S   2      13.197 -19.043  41.048  1.00 33.77 LIG 0.26  C 
ATOM      9 O    ASN S   2      13.825 -18.136  41.572  1.00 34.52 LIG-0.27  OA
ATOM     10 H    GLU S   3      11.468 -19.531  40.316  1.00 32.63 LIG 0.16  HD
BRANCH 8 11
ATOM     11  CA  ASN S   2      13.877 -20.372  40.697  1.00 34.66 LIG 0.41  C 
ATOM     12  N   ASN S   2      13.943 -20.582  39.213  1.00 35.02 LIG 0.61  N 
BRANCH 11 13
ATOM     13  CB  ASN S   2      15.277 -20.376  41.340  1.00 35.18 LIG 0.15  C 
BRANCH 13 14
ATOM     14  CG  ASN S   2      15.234 -20.327  42.869  1.00 37.91 LIG 0.22  C 
ATOM     15 OD1  ASN S   2      14.375 -20.953  43.496  1.00 41.54 LIG-0.27  OA
ATOM     16  ND2 ASN S   2      16.175 -19.591  43.470  1.00 40.23 LIG-0.37  N 
ATOM     17 22HD ASN S   2      16.756 -19.169  42.998  1.00 40.23 LIG 0.16  HD
ATOM     18 21HD ASN S   2      16.198 -19.541  44.328  1.00 40.23 LIG 0.16  HD
ENDBRANCH 13 14
ENDBRANCH 11 13
ENDBRANCH 8 11
ENDBRANCH 6 7
BRANCH 6 19
ATOM     19  CB  GLU S   3      10.114 -17.355  40.176  1.00 32.72 LIG 0.04  C 
BRANCH 19 20
ATOM     20  CG  GLU S   3       8.770 -18.079  40.185  1.00 35.99 LIG 0.12  C 
BRANCH 20 21
ATOM     21  CD  GLU S   3       7.716 -17.386  41.047  1.00 39.18 LIG 0.17  C 
ATOM     22 OE1  GLU S   3       7.909 -16.184  41.337  1.00 41.46 LIG-0.65  OA
ATOM     23 OE2  GLU S   3       6.692 -18.030  41.428  1.00 41.34 LIG-0.65  OA
ENDBRANCH 20 21
ENDBRANCH 19 20
ENDBRANCH 6 19
ENDBRANCH 4 6
ENDBRANCH 1 2
BRANCH 1 24
ATOM     24  CB  TYR S   4      10.466 -16.170  45.661  1.00 28.42 LIG 0.07  C 
BRANCH 24 25
ATOM     25  CG  TYR S   4       9.883 -16.178  47.043  1.00 29.89 LIG-0.06  A 
ATOM     26  CD2 TYR S   4       8.769 -15.389  47.370  1.00 30.34 LIG 0.01  A 
ATOM     27  CE2 TYR S   4       8.249 -15.403  48.683  1.00 32.01 LIG 0.04  A 
ATOM     28  CZ  TYR S   4       8.848 -16.213  49.642  1.00 31.83 LIG 0.07  A 
ATOM     29  CE1 TYR S   4       9.936 -16.975  49.322  1.00 31.31 LIG 0.04  A 
ATOM     30  CD1 TYR S   4      10.444 -16.960  48.037  1.00 30.54 LIG 0.01  A 
BRANCH 28 31
ATOM     31 OH   TYR S   4       8.417 -16.251  50.955  1.00 36.86 LIG-0.36  OA
ATOM     32 HH   TYR S   4       8.125 -17.018  51.133  1.00 36.86 LIG 0.22  HD
ENDBRANCH 28 31
ENDBRANCH 24 25
ENDBRANCH 1 24
BRANCH 1 33
ATOM     33  C   TYR S   4       8.482 -17.432  44.757  1.00 27.93 LIG 0.24  C 
ATOM     34  N   LYS S   5       7.980 -18.633  44.504  1.00 28.19 LIG-0.35  N 
ATOM     35 H    LYS S   5       8.471 -19.327  44.374  1.00 28.19 LIG 0.16  HD
ATOM     36 O    TYR S   4       7.786 -16.423  44.863  1.00 25.57 LIG-0.27  OA
BRANCH 34 37
ATOM     37  CA  LYS S   5       6.548 -18.907  44.421  1.00 28.81 LIG 0.18  C 
BRANCH 37 38
ATOM     38  CB  LYS S   5       6.297 -20.348  43.946  1.00 29.54 LIG 0.04  C 
BRANCH 38 39
ATOM     39  CG  LYS S   5       6.768 -21.455  44.906  1.00 33.24 LIG 0.00  C 
BRANCH 39 40
ATOM     40  CD  LYS S   5       8.256 -21.738  44.778  1.00 37.34 LIG 0.03  C 
BRANCH 40 41
ATOM     41  CE  LYS S   5       8.906 -21.796  46.165  1.00 39.48 LIG 0.23  C 
BRANCH 41 42
ATOM     42  NZ  LYS S   5       7.927 -22.212  47.202  1.00 41.40 LIG-0.08  N 
ATOM     43 HZ2  LYS S   5       7.499 -22.943  46.931  1.00 41.40 LIG 0.27  HD
ATOM     44 HZ1  LYS S   5       7.339 -21.556  47.335  1.00 41.40 LIG 0.27  HD
ATOM     45 HZ3  LYS S   5       8.355 -22.384  47.963  1.00 41.40 LIG 0.27  HD
ENDBRANCH 41 42
ENDBRANCH 40 41
ENDBRANCH 39 40
ENDBRANCH 38 39
ENDBRANCH 37 38
BRANCH 37 46
ATOM     46  C   LYS S   5       5.962 -18.670  45.802  1.00 28.43 LIG 0.24  C 
ATOM     47  N   VAL S   6       4.899 -17.886  45.868  1.00 27.37 LIG-0.34  N 
ATOM     48 H    VAL S   6       4.480 -17.595  45.176  1.00 27.37 LIG 0.16  HD
ATOM     49 O    LYS S   5       6.463 -19.176  46.798  1.00 28.58 LIG-0.27  OA
BRANCH 47 50
ATOM     50  CA  VAL S   6       4.339 -17.441  47.122  1.00 26.91 LIG 0.19  C 
BRANCH 50 51
ATOM     51  C   VAL S   6       5.328 -16.605  47.949  1.00 27.47 LIG 0.20  C 
ATOM     52 O    VAL S   6       5.735 -16.934  49.079  1.00 25.37 LIG-0.65  OA
ATOM     53 OXT  VAL S   6       5.729 -15.581  47.397  1.00 29.74 LIG-0.65  OA
ENDBRANCH 50 51
BRANCH 50 54
ATOM     54  CB  VAL S   6       3.814 -18.634  47.959  1.00 26.80 LIG 0.01  C 
ATOM     55  CG2 VAL S   6       3.279 -19.760  47.056  1.00 26.48 LIG 0.01  C 
ATOM     56  CG1 VAL S   6       2.731 -18.180  48.927  1.00 26.60 LIG 0.01  C 
ENDBRANCH 50 54
ENDBRANCH 47 50
ENDBRANCH 37 46
ENDBRANCH 34 37
ENDBRANCH 1 33
TORSDOF 23
ENDMDL
MODEL 39
USER: ADFR SOLUTION from run 139
USER: SCORE 18.480743 LL:  -5.990 LR: -13.498 RR:   0.000 FEB:  -6.638
USER: RMSD 9.443585
USER: SEED 138
USER: STATUS no improvement in best in 8 clusters for 5 generations
USER: GENES 25
USER: genes 0 Translation |==|  0.48863 0.65008 0.66076
USER: genes 1 Rotation |==|  0.03580 0.53064 0.32630 0.55837
USER: genes 2 Torsion [C]-CA--N-[C] |==|  0.18620
USER: genes 3 Torsion [N]-C--CA-[N] |==|  0.48333
USER: genes 4 Torsion [C]-CA--N-[C] |==|  0.52876
USER: genes 5 Torsion [N]-C--CA-[N] |==|  0.73412
USER: genes 6 Torsion [C]-CA--CB-[CG] |==|  0.14848
USER: genes 7 Torsion [CA]-CB--CG-[ND2] |==|  0.64601
USER: genes 8 Torsion [C]-CA--CB-[CG] |==|  0.00292
USER: genes 9 Torsion [CA]-CB--CG-[CD] |==|  0.27595
USER: genes 10 Torsion [CB]-CG--CD-[OE1] |==|  0.93232
USER: genes 11 Torsion [N]-CA--CB-[CG] |==|  0.80600
USER: genes 12 Torsion [CA]-CB--CG-[CD1] |==|  0.38181
USER: genes 13 Torsion [CE2]-CZ--OH-[HH] |==|  0.22894
USER: genes 14 Torsion [N]-CA--C-[N] |==|  0.65384
USER: genes 15 Torsion [C]-N--CA-[C] |==|  0.83532
USER: genes 16 Torsion [N]-CA--CB-[CG] |==|  0.67534
USER: genes 17 Torsion [CA]-CB--CG-[CD] |==|  0.66073
USER: genes 18 Torsion [CB]-CG--CD-[CE] |==|  0.20402
USER: genes 19 Torsion [CG]-CD--CE-[NZ] |==|  0.17646
USER: genes 20 Torsion [CD]-CE--NZ-[HZ3] |==|  0.18723
USER: genes 21 Torsion [N]-CA--C-[N] |==|  0.88468
USER: genes 22 Torsion [C]-N--CA-[C] |==|  0.51899
USER: genes 23 Torsion [N]-CA--C-[O] |==|  0.43155
USER: genes 24 Torsion [N]-CA--CB-[CG2] |==|  0.53690
ROOT
ATOM      1  CA  TYR S   4       8.115 -16.333  45.062  1.00 28.42 LIG 0.18  C 
ENDROOT
BRANCH 1 2
ATOM      2  N   TYR S   4       6.864 -16.794  45.634  1.00 30.10 LIG-0.35  N 
ATOM      3 H    TYR S   4       6.468 -16.204  46.119  1.00 30.10 LIG 0.16  HD
ATOM      4  C   GLU S   3       6.374 -18.009  45.432  1.00 31.33 LIG 0.24  C 
ATOM      5 O    GLU S   3       6.970 -18.885  44.797  1.00 31.71 LIG-0.27  OA
BRANCH 4 6
ATOM      6  CA  GLU S   3       5.005 -18.267  46.032  1.00 32.63 LIG 0.18  C 
BRANCH 6 7
ATOM      7  N   GLU S   3       4.525 -19.594  45.612  1.00 32.63 LIG-0.35  N 
ATOM      8  C   ASN S   2       3.279 -19.958  45.838  1.00 33.77 LIG 0.26  C 
ATOM      9 O    ASN S   2       2.509 -19.291  46.513  1.00 34.52 LIG-0.27  OA
ATOM     10 H    GLU S   3       5.114 -20.085  45.221  1.00 32.63 LIG 0.16  HD
BRANCH 8 11
ATOM     11  CA  ASN S   2       2.824 -21.271  45.191  1.00 34.66 LIG 0.41  C 
ATOM     12  N   ASN S   2       2.125 -21.030  43.886  1.00 35.02 LIG 0.61  N 
BRANCH 11 13
ATOM     13  CB  ASN S   2       4.061 -22.174  45.021  1.00 35.18 LIG 0.15  C 
BRANCH 13 14
ATOM     14  CG  ASN S   2       4.842 -22.371  46.323  1.00 37.91 LIG 0.22  C 
ATOM     15 OD1  ASN S   2       4.274 -22.767  47.345  1.00 41.54 LIG-0.27  OA
ATOM     16  ND2 ASN S   2       6.152 -22.107  46.280  1.00 40.23 LIG-0.37  N 
ATOM     17 22HD ASN S   2       6.511 -21.833  45.549  1.00 40.23 LIG 0.16  HD
ATOM     18 21HD ASN S   2       6.635 -22.212  46.983  1.00 40.23 LIG 0.16  HD
ENDBRANCH 13 14
ENDBRANCH 11 13
ENDBRANCH 8 11
ENDBRANCH 6 7
BRANCH 6 19
ATOM     19  CB  GLU S   3       5.026 -18.140  47.551  1.00 32.72 LIG 0.04  C 
BRANCH 19 20
ATOM     20  CG  GLU S   3       6.363 -17.764  48.185  1.00 35.99 LIG 0.12  C 
BRANCH 20 21
ATOM     21  CD  GLU S   3       6.470 -16.281  48.535  1.00 39.18 LIG 0.17  C 
ATOM     22 OE1  GLU S   3       5.749 -15.484  47.893  1.00 41.46 LIG-0.65  OA
ATOM     23 OE2  GLU S   3       7.262 -15.906  49.453  1.00 41.34 LIG-0.65  OA
ENDBRANCH 20 21
ENDBRANCH 19 20
ENDBRANCH 6 19
ENDBRANCH 4 6
ENDBRANCH 1 2
BRANCH 1 24
ATOM     24  CB  TYR S   4       9.218 -17.296  45.456  1.00 28.42 LIG 0.07  C 
BRANCH 24 25
ATOM     25  CG  TYR S   4       9.558 -17.231  46.916  1.00 29.89 LIG-0.06  A 
ATOM     26  CD2 TYR S   4       9.678 -16.002  47.584  1.00 30.34 LIG 0.01  A 
ATOM     27  CE2 TYR S   4      10.014 -15.968  48.955  1.00 32.01 LIG 0.04  A 
ATOM     28  CZ  TYR S   4      10.215 -17.165  49.634  1.00 31.83 LIG 0.07  A 
ATOM     29  CE1 TYR S   4      10.104 -18.360  48.980  1.00 31.31 LIG 0.04  A 
ATOM     30  CD1 TYR S   4       9.775 -18.391  47.638  1.00 30.54 LIG 0.01  A 
BRANCH 28 31
ATOM     31 OH   TYR S   4      10.582 -17.209  50.967  1.00 36.86 LIG-0.36  OA
ATOM     32 HH   TYR S   4       9.899 -17.123  51.449  1.00 36.86 LIG 0.22  HD
ENDBRANCH 28 31
ENDBRANCH 24 25
ENDBRANCH 1 24
BRANCH 1 33
ATOM     33  C   TYR S   4       7.952 -16.238  43.553  1.00 27.93 LIG 0.24  C 
ATOM     34  N   LYS S   5       8.830 -16.916  42.828  1.00 28.19 LIG-0.35  N 
ATOM     35 H    LYS S   5       9.463 -17.383  43.175  1.00 28.19 LIG 0.16  HD
ATOM     36 O    TYR S   4       7.097 -15.505  43.058  1.00 25.57 LIG-0.27  OA
BRANCH 34 37
ATOM     37  CA  LYS S   5       8.819 -16.946  41.368  1.00 28.81 LIG 0.18  C 
BRANCH 37 38
ATOM     38  CB  LYS S   5       9.978 -17.802  40.832  1.00 29.54 LIG 0.04  C 
BRANCH 38 39
ATOM     39  CG  LYS S   5      11.022 -17.051  39.986  1.00 33.24 LIG 0.00  C 
BRANCH 39 40
ATOM     40  CD  LYS S   5      11.170 -17.639  38.591  1.00 37.34 LIG 0.03  C 
BRANCH 40 41
ATOM     41  CE  LYS S   5       9.954 -17.278  37.732  1.00 39.48 LIG 0.23  C 
BRANCH 41 42
ATOM     42  NZ  LYS S   5       9.854 -15.809  37.530  1.00 41.40 LIG-0.08  N 
ATOM     43 HZ2  LYS S   5       9.881 -15.398  38.318  1.00 41.40 LIG 0.27  HD
ATOM     44 HZ1  LYS S   5       9.086 -15.617  37.122  1.00 41.40 LIG 0.27  HD
ATOM     45 HZ3  LYS S   5      10.534 -15.531  37.028  1.00 41.40 LIG 0.27  HD
ENDBRANCH 41 42
ENDBRANCH 40 41
ENDBRANCH 39 40
ENDBRANCH 38 39
ENDBRANCH 37 38
BRANCH 37 46
ATOM     46  C   LYS S   5       7.473 -17.507  40.938  1.00 28.43 LIG 0.24  C 
ATOM     47  N   VAL S   6       7.010 -18.533  41.632  1.00 27.37 LIG-0.34  N 
ATOM     48 H    VAL S   6       7.378 -18.822  42.354  1.00 27.37 LIG 0.16  HD
ATOM     49 O    LYS S   5       6.863 -17.032  39.990  1.00 28.58 LIG-0.27  OA
BRANCH 47 50
ATOM     50  CA  VAL S   6       5.832 -19.269  41.239  1.00 26.91 LIG 0.19  C 
BRANCH 50 51
ATOM     51  C   VAL S   6       5.402 -20.303  42.290  1.00 27.47 LIG 0.20  C 
ATOM     52 O    VAL S   6       4.237 -20.727  42.407  1.00 25.37 LIG-0.65  OA
ATOM     53 OXT  VAL S   6       6.311 -20.722  43.007  1.00 29.74 LIG-0.65  OA
ENDBRANCH 50 51
BRANCH 50 54
ATOM     54  CB  VAL S   6       6.029 -19.952  39.863  1.00 26.80 LIG 0.01  C 
ATOM     55  CG2 VAL S   6       4.690 -20.454  39.291  1.00 26.48 LIG 0.01  C 
ATOM     56  CG1 VAL S   6       7.017 -21.104  39.969  1.00 26.60 LIG 0.01  C 
ENDBRANCH 50 54
ENDBRANCH 47 50
ENDBRANCH 37 46
ENDBRANCH 34 37
ENDBRANCH 1 33
TORSDOF 23
ENDMDL
MODEL 40
USER: ADFR SOLUTION from run 26
USER: SCORE 18.302323 LL:  -5.430 LR: -13.487 RR:   0.000 FEB:  -6.626
USER: RMSD 10.115382
USER: SEED 25
USER: STATUS no improvement in best in 11 clusters for 5 generations
USER: GENES 25
USER: genes 0 Translation |==|  0.58591 0.52153 0.65969
USER: genes 1 Rotation |==|  0.33390 0.03238 0.53629 0.54920
USER: genes 2 Torsion [C]-CA--N-[C] |==|  0.65793
USER: genes 3 Torsion [N]-C--CA-[N] |==|  0.88529
USER: genes 4 Torsion [C]-CA--N-[C] |==|  0.83334
USER: genes 5 Torsion [N]-C--CA-[N] |==|  0.22460
USER: genes 6 Torsion [C]-CA--CB-[CG] |==|  0.30864
USER: genes 7 Torsion [CA]-CB--CG-[ND2] |==|  0.13895
USER: genes 8 Torsion [C]-CA--CB-[CG] |==|  0.03765
USER: genes 9 Torsion [CA]-CB--CG-[CD] |==|  0.41144
USER: genes 10 Torsion [CB]-CG--CD-[OE1] |==|  0.57977
USER: genes 11 Torsion [N]-CA--CB-[CG] |==|  0.79568
USER: genes 12 Torsion [CA]-CB--CG-[CD1] |==|  0.93852
USER: genes 13 Torsion [CE2]-CZ--OH-[HH] |==|  0.72332
USER: genes 14 Torsion [N]-CA--C-[N] |==|  0.52507
USER: genes 15 Torsion [C]-N--CA-[C] |==|  0.17488
USER: genes 16 Torsion [N]-CA--CB-[CG] |==|  0.79337
USER: genes 17 Torsion [CA]-CB--CG-[CD] |==|  0.96545
USER: genes 18 Torsion [CB]-CG--CD-[CE] |==|  0.74593
USER: genes 19 Torsion [CG]-CD--CE-[NZ] |==|  0.68661
USER: genes 20 Torsion [CD]-CE--NZ-[HZ3] |==|  0.66247
USER: genes 21 Torsion [N]-CA--C-[N] |==|  0.07878
USER: genes 22 Torsion [C]-N--CA-[C] |==|  0.66074
USER: genes 23 Torsion [N]-CA--C-[O] |==|  0.52022
USER: genes 24 Torsion [N]-CA--CB-[CG2] |==|  0.11997
ROOT
ATOM      1  CA  TYR S   4      10.158 -18.454  45.037  1.00 28.42 LIG 0.18  C 
ENDROOT
BRANCH 1 2
ATOM      2  N   TYR S   4      11.043 -18.412  46.187  1.00 30.10 LIG-0.35  N 
ATOM      3 H    TYR S   4      11.750 -17.941  46.059  1.00 30.10 LIG 0.16  HD
ATOM      4  C   GLU S   3      10.786 -19.038  47.326  1.00 31.33 LIG 0.24  C 
ATOM      5 O    GLU S   3       9.808 -19.773  47.493  1.00 31.71 LIG-0.27  OA
BRANCH 4 6
ATOM      6  CA  GLU S   3      11.781 -18.789  48.443  1.00 32.63 LIG 0.18  C 
BRANCH 6 7
ATOM      7  N   GLU S   3      13.148 -18.798  47.897  1.00 32.63 LIG-0.35  N 
ATOM      8  C   ASN S   2      13.622 -19.869  47.293  1.00 33.77 LIG 0.26  C 
ATOM      9 O    ASN S   2      13.023 -20.934  47.273  1.00 34.52 LIG-0.27  OA
ATOM     10 H    GLU S   3      13.587 -18.066  48.006  1.00 32.63 LIG 0.16  HD
BRANCH 8 11
ATOM     11  CA  ASN S   2      14.974 -19.713  46.588  1.00 34.66 LIG 0.41  C 
ATOM     12  N   ASN S   2      16.115 -19.813  47.557  1.00 35.02 LIG 0.61  N 
BRANCH 11 13
ATOM     13  CB  ASN S   2      15.064 -20.785  45.484  1.00 35.18 LIG 0.15  C 
BRANCH 13 14
ATOM     14  CG  ASN S   2      15.017 -20.195  44.072  1.00 37.91 LIG 0.22  C 
ATOM     15 OD1  ASN S   2      14.230 -20.635  43.231  1.00 41.54 LIG-0.27  OA
ATOM     16  ND2 ASN S   2      15.855 -19.183  43.820  1.00 40.23 LIG-0.37  N 
ATOM     17 22HD ASN S   2      16.389 -18.905  44.433  1.00 40.23 LIG 0.16  HD
ATOM     18 21HD ASN S   2      15.859 -18.812  43.044  1.00 40.23 LIG 0.16  HD
ENDBRANCH 13 14
ENDBRANCH 11 13
ENDBRANCH 8 11
ENDBRANCH 6 7
BRANCH 6 19
ATOM     19  CB  GLU S   3      11.486 -17.485  49.177  1.00 32.72 LIG 0.04  C 
BRANCH 19 20
ATOM     20  CG  GLU S   3      10.125 -16.846  48.909  1.00 35.99 LIG 0.12  C 
BRANCH 20 21
ATOM     21  CD  GLU S   3       9.567 -16.087  50.111  1.00 39.18 LIG 0.17  C 
ATOM     22 OE1  GLU S   3       8.322 -16.010  50.217  1.00 41.46 LIG-0.65  OA
ATOM     23 OE2  GLU S   3      10.362 -15.575  50.957  1.00 41.34 LIG-0.65  OA
ENDBRANCH 20 21
ENDBRANCH 19 20
ENDBRANCH 6 19
ENDBRANCH 4 6
ENDBRANCH 1 2
BRANCH 1 24
ATOM     24  CB  TYR S   4       9.615 -17.060  44.786  1.00 28.42 LIG 0.07  C 
BRANCH 24 25
ATOM     25  CG  TYR S   4       8.583 -16.644  45.793  1.00 29.89 LIG-0.06  A 
ATOM     26  CD2 TYR S   4       8.308 -15.290  46.040  1.00 30.34 LIG 0.01  A 
ATOM     27  CE2 TYR S   4       7.343 -14.926  47.004  1.00 32.01 LIG 0.04  A 
ATOM     28  CZ  TYR S   4       6.666 -15.924  47.699  1.00 31.83 LIG 0.07  A 
ATOM     29  CE1 TYR S   4       6.941 -17.241  47.461  1.00 31.31 LIG 0.04  A 
ATOM     30  CD1 TYR S   4       7.886 -17.595  46.516  1.00 30.54 LIG 0.01  A 
BRANCH 28 31
ATOM     31 OH   TYR S   4       5.736 -15.643  48.682  1.00 36.86 LIG-0.36  OA
ATOM     32 HH   TYR S   4       6.093 -15.724  49.438  1.00 36.86 LIG 0.22  HD
ENDBRANCH 28 31
ENDBRANCH 24 25
ENDBRANCH 1 24
BRANCH 1 33
ATOM     33  C   TYR S   4      10.939 -18.985  43.844  1.00 27.93 LIG 0.24  C 
ATOM     34  N   LYS S   5      10.329 -18.913  42.669  1.00 28.19 LIG-0.35  N 
ATOM     35 H    LYS S   5       9.537 -18.592  42.572  1.00 28.19 LIG 0.16  HD
ATOM     36 O    TYR S   4      12.037 -19.518  43.998  1.00 25.57 LIG-0.27  OA
BRANCH 34 37
ATOM     37  CA  LYS S   5      10.932 -19.367  41.419  1.00 28.81 LIG 0.18  C 
BRANCH 37 38
ATOM     38  CB  LYS S   5      12.248 -18.621  41.146  1.00 29.54 LIG 0.04  C 
BRANCH 38 39
ATOM     39  CG  LYS S   5      12.100 -17.162  40.677  1.00 33.24 LIG 0.00  C 
BRANCH 39 40
ATOM     40  CD  LYS S   5      10.671 -16.822  40.283  1.00 37.34 LIG 0.03  C 
BRANCH 40 41
ATOM     41  CE  LYS S   5      10.459 -17.075  38.787  1.00 39.48 LIG 0.23  C 
BRANCH 41 42
ATOM     42  NZ  LYS S   5      10.229 -15.804  38.053  1.00 41.40 LIG-0.08  N 
ATOM     43 HZ2  LYS S   5      10.873 -15.688  37.450  1.00 41.40 LIG 0.27  HD
ATOM     44 HZ1  LYS S   5      10.236 -15.124  38.628  1.00 41.40 LIG 0.27  HD
ATOM     45 HZ3  LYS S   5       9.440 -15.836  37.642  1.00 41.40 LIG 0.27  HD
ENDBRANCH 41 42
ENDBRANCH 40 41
ENDBRANCH 39 40
ENDBRANCH 38 39
ENDBRANCH 37 38
BRANCH 37 46
ATOM     46  C   LYS S   5      11.161 -20.864  41.547  1.00 28.43 LIG 0.24  C 
ATOM     47  N   VAL S   6      10.339 -21.523  42.345  1.00 27.37 LIG-0.34  N 
ATOM     48 H    VAL S   6       9.642 -21.170  42.705  1.00 27.37 LIG 0.16  HD
ATOM     49 O    LYS S   5      12.071 -21.419  40.945  1.00 28.58 LIG-0.27  OA
BRANCH 47 50
ATOM     50  CA  VAL S   6      10.538 -22.911  42.691  1.00 26.91 LIG 0.19  C 
BRANCH 50 51
ATOM     51  C   VAL S   6       9.339 -23.794  42.308  1.00 27.47 LIG 0.20  C 
ATOM     52 O    VAL S   6       9.235 -24.992  42.627  1.00 25.37 LIG-0.65  OA
ATOM     53 OXT  VAL S   6       8.452 -23.217  41.680  1.00 29.74 LIG-0.65  OA
ENDBRANCH 50 51
BRANCH 50 54
ATOM     54  CB  VAL S   6      10.866 -23.076  44.195  1.00 26.80 LIG 0.01  C 
ATOM     55  CG2 VAL S   6       9.961 -22.187  45.067  1.00 26.48 LIG 0.01  C 
ATOM     56  CG1 VAL S   6      12.330 -22.756  44.466  1.00 26.60 LIG 0.01  C 
ENDBRANCH 50 54
ENDBRANCH 47 50
ENDBRANCH 37 46
ENDBRANCH 34 37
ENDBRANCH 1 33
TORSDOF 23
ENDMDL
MODEL 41
USER: ADFR SOLUTION from run 88
USER: SCORE 19.196268 LL:  -6.186 LR: -13.442 RR:   0.000 FEB:  -6.581
USER: RMSD 9.325955
USER: SEED 87
USER: STATUS searching
USER: GENES 25
USER: genes 0 Translation |==|  0.62496 0.52101 0.65325
USER: genes 1 Rotation |==|  0.87777 0.34049 0.74745 0.64357
USER: genes 2 Torsion [C]-CA--N-[C] |==|  0.62566
USER: genes 3 Torsion [N]-C--CA-[N] |==|  0.01697
USER: genes 4 Torsion [C]-CA--N-[C] |==|  0.76461
USER: genes 5 Torsion [N]-C--CA-[N] |==|  0.68566
USER: genes 6 Torsion [C]-CA--CB-[CG] |==|  0.74917
USER: genes 7 Torsion [CA]-CB--CG-[ND2] |==|  0.61968
USER: genes 8 Torsion [C]-CA--CB-[CG] |==|  0.58019
USER: genes 9 Torsion [CA]-CB--CG-[CD] |==|  0.26971
USER: genes 10 Torsion [CB]-CG--CD-[OE1] |==|  0.63857
USER: genes 11 Torsion [N]-CA--CB-[CG] |==|  0.85624
USER: genes 12 Torsion [CA]-CB--CG-[CD1] |==|  0.80162
USER: genes 13 Torsion [CE2]-CZ--OH-[HH] |==|  0.06266
USER: genes 14 Torsion [N]-CA--C-[N] |==|  0.32507
USER: genes 15 Torsion [C]-N--CA-[C] |==|  0.17750
USER: genes 16 Torsion [N]-CA--CB-[CG] |==|  0.83182
USER: genes 17 Torsion [CA]-CB--CG-[CD] |==|  0.93734
USER: genes 18 Torsion [CB]-CG--CD-[CE] |==|  0.32489
USER: genes 19 Torsion [CG]-CD--CE-[NZ] |==|  0.49777
USER: genes 20 Torsion [CD]-CE--NZ-[HZ3] |==|  0.11837
USER: genes 21 Torsion [N]-CA--C-[N] |==|  0.10903
USER: genes 22 Torsion [C]-N--CA-[C] |==|  0.18000
USER: genes 23 Torsion [N]-CA--C-[O] |==|  0.89777
USER: genes 24 Torsion [N]-CA--CB-[CG2] |==|  0.74954
ROOT
ATOM      1  CA  TYR S   4      10.978 -18.462  44.882  1.00 28.42 LIG 0.18  C 
ENDROOT
BRANCH 1 2
ATOM      2  N   TYR S   4       9.822 -17.586  44.924  1.00 30.10 LIG-0.35  N 
ATOM      3 H    TYR S   4       9.096 -17.961  44.654  1.00 30.10 LIG 0.16  HD
ATOM      4  C   GLU S   3       9.874 -16.329  45.339  1.00 31.33 LIG 0.24  C 
ATOM      5 O    GLU S   3      10.924 -15.763  45.661  1.00 31.71 LIG-0.27  OA
BRANCH 4 6
ATOM      6  CA  GLU S   3       8.541 -15.609  45.405  1.00 32.63 LIG 0.18  C 
BRANCH 6 7
ATOM      7  N   GLU S   3       7.454 -16.558  45.116  1.00 32.63 LIG-0.35  N 
ATOM      8  C   ASN S   2       7.106 -16.821  43.872  1.00 33.77 LIG 0.26  C 
ATOM      9 O    ASN S   2       7.558 -16.208  42.918  1.00 34.52 LIG-0.27  OA
ATOM     10 H    GLU S   3       7.085 -16.908  45.810  1.00 32.63 LIG 0.16  HD
BRANCH 8 11
ATOM     11  CA  ASN S   2       6.104 -17.964  43.671  1.00 34.66 LIG 0.41  C 
ATOM     12  N   ASN S   2       6.730 -19.128  42.962  1.00 35.02 LIG 0.61  N 
BRANCH 11 13
ATOM     13  CB  ASN S   2       5.552 -18.364  45.053  1.00 35.18 LIG 0.15  C 
BRANCH 13 14
ATOM     14  CG  ASN S   2       6.374 -19.463  45.731  1.00 37.91 LIG 0.22  C 
ATOM     15 OD1  ASN S   2       7.607 -19.422  45.726  1.00 41.54 LIG-0.27  OA
ATOM     16  ND2 ASN S   2       5.686 -20.440  46.331  1.00 40.23 LIG-0.37  N 
ATOM     17 22HD ASN S   2       4.826 -20.433  46.312  1.00 40.23 LIG 0.16  HD
ATOM     18 21HD ASN S   2       6.103 -21.074  46.734  1.00 40.23 LIG 0.16  HD
ENDBRANCH 13 14
ENDBRANCH 11 13
ENDBRANCH 8 11
ENDBRANCH 6 7
BRANCH 6 19
ATOM     19  CB  GLU S   3       8.339 -14.927  46.754  1.00 32.72 LIG 0.04  C 
BRANCH 19 20
ATOM     20  CG  GLU S   3       6.897 -14.770  47.228  1.00 35.99 LIG 0.12  C 
BRANCH 20 21
ATOM     21  CD  GLU S   3       6.457 -15.867  48.196  1.00 39.18 LIG 0.17  C 
ATOM     22 OE1  GLU S   3       5.377 -16.451  47.954  1.00 41.46 LIG-0.65  OA
ATOM     23 OE2  GLU S   3       7.187 -16.157  49.193  1.00 41.34 LIG-0.65  OA
ENDBRANCH 20 21
ENDBRANCH 19 20
ENDBRANCH 6 19
ENDBRANCH 4 6
ENDBRANCH 1 2
BRANCH 1 24
ATOM     24  CB  TYR S   4      10.912 -19.416  46.060  1.00 28.42 LIG 0.07  C 
BRANCH 24 25
ATOM     25  CG  TYR S   4      10.712 -18.714  47.371  1.00 29.89 LIG-0.06  A 
ATOM     26  CD2 TYR S   4       9.487 -18.778  48.053  1.00 30.34 LIG 0.01  A 
ATOM     27  CE2 TYR S   4       9.320 -18.096  49.278  1.00 32.01 LIG 0.04  A 
ATOM     28  CZ  TYR S   4      10.384 -17.367  49.800  1.00 31.83 LIG 0.07  A 
ATOM     29  CE1 TYR S   4      11.573 -17.301  49.130  1.00 31.31 LIG 0.04  A 
ATOM     30  CD1 TYR S   4      11.734 -17.971  47.932  1.00 30.54 LIG 0.01  A 
BRANCH 28 31
ATOM     31 OH   TYR S   4      10.283 -16.645  50.974  1.00 36.86 LIG-0.36  OA
ATOM     32 HH   TYR S   4       9.654 -16.952  51.440  1.00 36.86 LIG 0.22  HD
ENDBRANCH 28 31
ENDBRANCH 24 25
ENDBRANCH 1 24
BRANCH 1 33
ATOM     33  C   TYR S   4      10.981 -19.198  43.551  1.00 27.93 LIG 0.24  C 
ATOM     34  N   LYS S   5      12.012 -18.956  42.753  1.00 28.19 LIG-0.35  N 
ATOM     35 H    LYS S   5      12.647 -18.414  42.960  1.00 28.19 LIG 0.16  HD
ATOM     36 O    TYR S   4      10.033 -19.910  43.224  1.00 25.57 LIG-0.27  OA
BRANCH 34 37
ATOM     37  CA  LYS S   5      12.183 -19.580  41.444  1.00 28.81 LIG 0.18  C 
BRANCH 37 38
ATOM     38  CB  LYS S   5      12.204 -21.112  41.570  1.00 29.54 LIG 0.04  C 
BRANCH 38 39
ATOM     39  CG  LYS S   5      13.331 -21.692  42.442  1.00 33.24 LIG 0.00  C 
BRANCH 39 40
ATOM     40  CD  LYS S   5      14.511 -20.742  42.573  1.00 37.34 LIG 0.03  C 
BRANCH 40 41
ATOM     41  CE  LYS S   5      14.694 -20.321  44.034  1.00 39.48 LIG 0.23  C 
BRANCH 41 42
ATOM     42  NZ  LYS S   5      15.854 -19.406  44.190  1.00 41.40 LIG-0.08  N 
ATOM     43 HZ2  LYS S   5      16.609 -19.876  44.165  1.00 41.40 LIG 0.27  HD
ATOM     44 HZ1  LYS S   5      15.795 -18.983  44.971  1.00 41.40 LIG 0.27  HD
ATOM     45 HZ3  LYS S   5      15.854 -18.810  43.529  1.00 41.40 LIG 0.27  HD
ENDBRANCH 41 42
ENDBRANCH 40 41
ENDBRANCH 39 40
ENDBRANCH 38 39
ENDBRANCH 37 38
BRANCH 37 46
ATOM     46  C   LYS S   5      11.032 -19.113  40.569  1.00 28.43 LIG 0.24  C 
ATOM     47  N   VAL S   6      10.664 -17.849  40.698  1.00 27.37 LIG-0.34  N 
ATOM     48 H    VAL S   6      11.099 -17.274  41.167  1.00 27.37 LIG 0.16  HD
ATOM     49 O    LYS S   5      10.474 -19.879  39.795  1.00 28.58 LIG-0.27  OA
BRANCH 47 50
ATOM     50  CA  VAL S   6       9.487 -17.313  40.056  1.00 26.91 LIG 0.19  C 
BRANCH 50 51
ATOM     51  C   VAL S   6       8.188 -17.944  40.580  1.00 27.47 LIG 0.20  C 
ATOM     52 O    VAL S   6       8.082 -19.143  40.898  1.00 25.37 LIG-0.65  OA
ATOM     53 OXT  VAL S   6       7.245 -17.162  40.702  1.00 29.74 LIG-0.65  OA
ENDBRANCH 50 51
BRANCH 50 54
ATOM     54  CB  VAL S   6       9.570 -17.457  38.516  1.00 26.80 LIG 0.01  C 
ATOM     55  CG2 VAL S   6      10.229 -16.224  37.873  1.00 26.48 LIG 0.01  C 
ATOM     56  CG1 VAL S   6       8.189 -17.684  37.920  1.00 26.60 LIG 0.01  C 
ENDBRANCH 50 54
ENDBRANCH 47 50
ENDBRANCH 37 46
ENDBRANCH 34 37
ENDBRANCH 1 33
TORSDOF 23
ENDMDL
MODEL 42
USER: ADFR SOLUTION from run 33
USER: SCORE 17.788645 LL:  -5.665 LR: -13.342 RR:   0.000 FEB:  -6.481
USER: RMSD 9.015824
USER: SEED 32
USER: STATUS no improvement in best in 6 clusters for 5 generations
USER: GENES 25
USER: genes 0 Translation |==|  0.55739 0.65725 0.75968
USER: genes 1 Rotation |==|  0.77385 0.59171 0.89444 0.60494
USER: genes 2 Torsion [C]-CA--N-[C] |==|  0.80181
USER: genes 3 Torsion [N]-C--CA-[N] |==|  0.62743
USER: genes 4 Torsion [C]-CA--N-[C] |==|  0.76110
USER: genes 5 Torsion [N]-C--CA-[N] |==|  0.43390
USER: genes 6 Torsion [C]-CA--CB-[CG] |==|  0.86433
USER: genes 7 Torsion [CA]-CB--CG-[ND2] |==|  0.86252
USER: genes 8 Torsion [C]-CA--CB-[CG] |==|  0.27673
USER: genes 9 Torsion [CA]-CB--CG-[CD] |==|  0.78128
USER: genes 10 Torsion [CB]-CG--CD-[OE1] |==|  0.74592
USER: genes 11 Torsion [N]-CA--CB-[CG] |==|  0.26586
USER: genes 12 Torsion [CA]-CB--CG-[CD1] |==|  0.31030
USER: genes 13 Torsion [CE2]-CZ--OH-[HH] |==|  0.85583
USER: genes 14 Torsion [N]-CA--C-[N] |==|  0.97993
USER: genes 15 Torsion [C]-N--CA-[C] |==|  0.60435
USER: genes 16 Torsion [N]-CA--CB-[CG] |==|  0.75724
USER: genes 17 Torsion [CA]-CB--CG-[CD] |==|  0.71415
USER: genes 18 Torsion [CB]-CG--CD-[CE] |==|  0.08813
USER: genes 19 Torsion [CG]-CD--CE-[NZ] |==|  0.33509
USER: genes 20 Torsion [CD]-CE--NZ-[HZ3] |==|  0.96700
USER: genes 21 Torsion [N]-CA--C-[N] |==|  0.44829
USER: genes 22 Torsion [C]-N--CA-[C] |==|  0.72146
USER: genes 23 Torsion [N]-CA--C-[O] |==|  0.00534
USER: genes 24 Torsion [N]-CA--CB-[CG2] |==|  0.06969
ROOT
ATOM      1  CA  TYR S   4       9.559 -16.214  47.436  1.00 28.42 LIG 0.18  C 
ENDROOT
BRANCH 1 2
ATOM      2  N   TYR S   4       8.422 -16.839  46.786  1.00 30.10 LIG-0.35  N 
ATOM      3 H    TYR S   4       7.900 -17.253  47.329  1.00 30.10 LIG 0.16  HD
ATOM      4  C   GLU S   3       8.205 -16.778  45.480  1.00 31.33 LIG 0.24  C 
ATOM      5 O    GLU S   3       8.986 -16.246  44.686  1.00 31.71 LIG-0.27  OA
BRANCH 4 6
ATOM      6  CA  GLU S   3       6.909 -17.406  45.006  1.00 32.63 LIG 0.18  C 
BRANCH 6 7
ATOM      7  N   GLU S   3       7.170 -18.243  43.824  1.00 32.63 LIG-0.35  N 
ATOM      8  C   ASN S   2       7.180 -17.714  42.617  1.00 33.77 LIG 0.26  C 
ATOM      9 O    ASN S   2       6.845 -16.559  42.401  1.00 34.52 LIG-0.27  OA
ATOM     10 H    GLU S   3       7.310 -19.075  43.993  1.00 32.63 LIG 0.16  HD
BRANCH 8 11
ATOM     11  CA  ASN S   2       7.654 -18.623  41.477  1.00 34.66 LIG 0.41  C 
ATOM     12  N   ASN S   2       7.110 -18.176  40.153  1.00 35.02 LIG 0.61  N 
BRANCH 11 13
ATOM     13  CB  ASN S   2       9.195 -18.639  41.488  1.00 35.18 LIG 0.15  C 
BRANCH 13 14
ATOM     14  CG  ASN S   2       9.807 -17.237  41.562  1.00 37.91 LIG 0.22  C 
ATOM     15 OD1  ASN S   2      10.694 -16.979  42.380  1.00 41.54 LIG-0.27  OA
ATOM     16  ND2 ASN S   2       9.340 -16.335  40.692  1.00 40.23 LIG-0.37  N 
ATOM     17 22HD ASN S   2       8.721 -16.554  40.138  1.00 40.23 LIG 0.16  HD
ATOM     18 21HD ASN S   2       9.659 -15.537  40.687  1.00 40.23 LIG 0.16  HD
ENDBRANCH 13 14
ENDBRANCH 11 13
ENDBRANCH 8 11
ENDBRANCH 6 7
BRANCH 6 19
ATOM     19  CB  GLU S   3       6.236 -18.208  46.116  1.00 32.72 LIG 0.04  C 
BRANCH 19 20
ATOM     20  CG  GLU S   3       5.091 -17.520  46.854  1.00 35.99 LIG 0.12  C 
BRANCH 20 21
ATOM     21  CD  GLU S   3       5.566 -16.515  47.902  1.00 39.18 LIG 0.17  C 
ATOM     22 OE1  GLU S   3       5.729 -16.934  49.070  1.00 41.46 LIG-0.65  OA
ATOM     23 OE2  GLU S   3       5.787 -15.312  47.566  1.00 41.34 LIG-0.65  OA
ENDBRANCH 20 21
ENDBRANCH 19 20
ENDBRANCH 6 19
ENDBRANCH 4 6
ENDBRANCH 1 2
BRANCH 1 24
ATOM     24  CB  TYR S   4       9.317 -16.194  48.934  1.00 28.42 LIG 0.07  C 
BRANCH 24 25
ATOM     25  CG  TYR S   4       9.952 -17.352  49.645  1.00 29.89 LIG-0.06  A 
ATOM     26  CD2 TYR S   4       9.480 -18.663  49.473  1.00 30.34 LIG 0.01  A 
ATOM     27  CE2 TYR S   4      10.087 -19.733  50.167  1.00 32.01 LIG 0.04  A 
ATOM     28  CZ  TYR S   4      11.159 -19.472  51.013  1.00 31.83 LIG 0.07  A 
ATOM     29  CE1 TYR S   4      11.612 -18.195  51.183  1.00 31.31 LIG 0.04  A 
ATOM     30  CD1 TYR S   4      11.018 -17.149  50.503  1.00 30.54 LIG 0.01  A 
BRANCH 28 31
ATOM     31 OH   TYR S   4      11.779 -20.463  51.752  1.00 36.86 LIG-0.36  OA
ATOM     32 HH   TYR S   4      11.201 -20.893  52.185  1.00 36.86 LIG 0.22  HD
ENDBRANCH 28 31
ENDBRANCH 24 25
ENDBRANCH 1 24
BRANCH 1 33
ATOM     33  C   TYR S   4      10.814 -16.993  47.072  1.00 27.93 LIG 0.24  C 
ATOM     34  N   LYS S   5      10.626 -18.119  46.398  1.00 28.19 LIG-0.35  N 
ATOM     35 H    LYS S   5       9.846 -18.408  46.178  1.00 28.19 LIG 0.16  HD
ATOM     36 O    TYR S   4      11.920 -16.620  47.458  1.00 25.57 LIG-0.27  OA
BRANCH 34 37
ATOM     37  CA  LYS S   5      11.715 -18.988  45.959  1.00 28.81 LIG 0.18  C 
BRANCH 37 38
ATOM     38  CB  LYS S   5      11.943 -20.127  46.965  1.00 29.54 LIG 0.04  C 
BRANCH 38 39
ATOM     39  CG  LYS S   5      12.902 -19.807  48.126  1.00 33.24 LIG 0.00  C 
BRANCH 39 40
ATOM     40  CD  LYS S   5      14.277 -20.426  47.928  1.00 37.34 LIG 0.03  C 
BRANCH 40 41
ATOM     41  CE  LYS S   5      14.616 -20.499  46.437  1.00 39.48 LIG 0.23  C 
BRANCH 41 42
ATOM     42  NZ  LYS S   5      15.854 -19.738  46.127  1.00 41.40 LIG-0.08  N 
ATOM     43 HZ2  LYS S   5      15.712 -19.213  45.423  1.00 41.40 LIG 0.27  HD
ATOM     44 HZ1  LYS S   5      16.515 -20.306  45.945  1.00 41.40 LIG 0.27  HD
ATOM     45 HZ3  LYS S   5      16.078 -19.237  46.829  1.00 41.40 LIG 0.27  HD
ENDBRANCH 41 42
ENDBRANCH 40 41
ENDBRANCH 39 40
ENDBRANCH 38 39
ENDBRANCH 37 38
BRANCH 37 46
ATOM     46  C   LYS S   5      11.337 -19.527  44.589  1.00 28.43 LIG 0.24  C 
ATOM     47  N   VAL S   6      12.320 -20.017  43.853  1.00 27.37 LIG-0.34  N 
ATOM     48 H    VAL S   6      13.121 -20.130  44.146  1.00 27.37 LIG 0.16  HD
ATOM     49 O    LYS S   5      10.179 -19.496  44.194  1.00 28.58 LIG-0.27  OA
BRANCH 47 50
ATOM     50  CA  VAL S   6      12.138 -20.410  42.476  1.00 26.91 LIG 0.19  C 
BRANCH 50 51
ATOM     51  C   VAL S   6      11.974 -21.929  42.311  1.00 27.47 LIG 0.20  C 
ATOM     52 O    VAL S   6      11.961 -22.729  43.264  1.00 25.37 LIG-0.65  OA
ATOM     53 OXT  VAL S   6      11.818 -22.310  41.151  1.00 29.74 LIG-0.65  OA
ENDBRANCH 50 51
BRANCH 50 54
ATOM     54  CB  VAL S   6      13.296 -19.896  41.586  1.00 26.80 LIG 0.01  C 
ATOM     55  CG2 VAL S   6      14.579 -19.675  42.408  1.00 26.48 LIG 0.01  C 
ATOM     56  CG1 VAL S   6      12.902 -18.609  40.876  1.00 26.60 LIG 0.01  C 
ENDBRANCH 50 54
ENDBRANCH 47 50
ENDBRANCH 37 46
ENDBRANCH 34 37
ENDBRANCH 1 33
TORSDOF 23
ENDMDL
MODEL 43
USER: ADFR SOLUTION from run 197
USER: SCORE 17.778041 LL:  -4.884 LR: -13.328 RR:   0.000 FEB:  -6.467
USER: RMSD 10.663253
USER: SEED 196
USER: STATUS no improvement in best in 8 clusters for 5 generations
USER: GENES 25
USER: genes 0 Translation |==|  0.58861 0.51147 0.67033
USER: genes 1 Rotation |==|  0.28265 0.05379 0.54469 0.54069
USER: genes 2 Torsion [C]-CA--N-[C] |==|  0.64296
USER: genes 3 Torsion [N]-C--CA-[N] |==|  0.95880
USER: genes 4 Torsion [C]-CA--N-[C] |==|  0.77180
USER: genes 5 Torsion [N]-C--CA-[N] |==|  0.32508
USER: genes 6 Torsion [C]-CA--CB-[CG] |==|  0.72178
USER: genes 7 Torsion [CA]-CB--CG-[ND2] |==|  0.75110
USER: genes 8 Torsion [C]-CA--CB-[CG] |==|  0.92224
USER: genes 9 Torsion [CA]-CB--CG-[CD] |==|  0.41773
USER: genes 10 Torsion [CB]-CG--CD-[OE1] |==|  0.72872
USER: genes 11 Torsion [N]-CA--CB-[CG] |==|  0.76587
USER: genes 12 Torsion [CA]-CB--CG-[CD1] |==|  0.95148
USER: genes 13 Torsion [CE2]-CZ--OH-[HH] |==|  0.12570
USER: genes 14 Torsion [N]-CA--C-[N] |==|  0.50555
USER: genes 15 Torsion [C]-N--CA-[C] |==|  0.82660
USER: genes 16 Torsion [N]-CA--CB-[CG] |==|  0.29107
USER: genes 17 Torsion [CA]-CB--CG-[CD] |==|  0.78174
USER: genes 18 Torsion [CB]-CG--CD-[CE] |==|  0.40619
USER: genes 19 Torsion [CG]-CD--CE-[NZ] |==|  0.29648
USER: genes 20 Torsion [CD]-CE--NZ-[HZ3] |==|  0.95837
USER: genes 21 Torsion [N]-CA--C-[N] |==|  0.43028
USER: genes 22 Torsion [C]-N--CA-[C] |==|  0.67386
USER: genes 23 Torsion [N]-CA--C-[O] |==|  0.76871
USER: genes 24 Torsion [N]-CA--CB-[CG2] |==|  0.07439
ROOT
ATOM      1  CA  TYR S   4      10.215 -18.620  45.292  1.00 28.42 LIG 0.18  C 
ENDROOT
BRANCH 1 2
ATOM      2  N   TYR S   4      11.065 -18.684  46.466  1.00 30.10 LIG-0.35  N 
ATOM      3 H    TYR S   4      11.879 -18.454  46.315  1.00 30.10 LIG 0.16  HD
ATOM      4  C   GLU S   3      10.631 -19.061  47.661  1.00 31.33 LIG 0.24  C 
ATOM      5 O    GLU S   3       9.482 -19.461  47.871  1.00 31.71 LIG-0.27  OA
BRANCH 4 6
ATOM      6  CA  GLU S   3      11.647 -18.964  48.782  1.00 32.63 LIG 0.18  C 
BRANCH 6 7
ATOM      7  N   GLU S   3      12.995 -18.802  48.214  1.00 32.63 LIG-0.35  N 
ATOM      8  C   ASN S   2      13.676 -19.850  47.794  1.00 33.77 LIG 0.26  C 
ATOM      9 O    ASN S   2      13.297 -20.997  47.973  1.00 34.52 LIG-0.27  OA
ATOM     10 H    GLU S   3      13.281 -17.991  48.185  1.00 32.63 LIG 0.16  HD
BRANCH 8 11
ATOM     11  CA  ASN S   2      14.980 -19.559  47.041  1.00 34.66 LIG 0.41  C 
ATOM     12  N   ASN S   2      16.171 -20.101  47.774  1.00 35.02 LIG 0.61  N 
BRANCH 11 13
ATOM     13  CB  ASN S   2      14.857 -20.155  45.625  1.00 35.18 LIG 0.15  C 
BRANCH 13 14
ATOM     14  CG  ASN S   2      15.568 -21.502  45.479  1.00 37.91 LIG 0.22  C 
ATOM     15 OD1  ASN S   2      14.966 -22.559  45.686  1.00 41.54 LIG-0.27  OA
ATOM     16  ND2 ASN S   2      16.851 -21.462  45.105  1.00 40.23 LIG-0.37  N 
ATOM     17 22HD ASN S   2      17.236 -20.705  44.970  1.00 40.23 LIG 0.16  HD
ATOM     18 21HD ASN S   2      17.291 -22.193  44.999  1.00 40.23 LIG 0.16  HD
ENDBRANCH 13 14
ENDBRANCH 11 13
ENDBRANCH 8 11
ENDBRANCH 6 7
BRANCH 6 19
ATOM     19  CB  GLU S   3      11.311 -17.831  49.746  1.00 32.72 LIG 0.04  C 
BRANCH 19 20
ATOM     20  CG  GLU S   3      10.539 -16.649  49.165  1.00 35.99 LIG 0.12  C 
BRANCH 20 21
ATOM     21  CD  GLU S   3       9.643 -15.952  50.187  1.00 39.18 LIG 0.17  C 
ATOM     22 OE1  GLU S   3       8.432 -16.267  50.201  1.00 41.46 LIG-0.65  OA
ATOM     23 OE2  GLU S   3      10.141 -15.099  50.983  1.00 41.34 LIG-0.65  OA
ENDBRANCH 20 21
ENDBRANCH 19 20
ENDBRANCH 6 19
ENDBRANCH 4 6
ENDBRANCH 1 2
BRANCH 1 24
ATOM     24  CB  TYR S   4       9.987 -17.164  44.932  1.00 28.42 LIG 0.07  C 
BRANCH 24 25
ATOM     25  CG  TYR S   4       8.865 -16.538  45.706  1.00 29.89 LIG-0.06  A 
ATOM     26  CD2 TYR S   4       8.735 -15.144  45.806  1.00 30.34 LIG 0.01  A 
ATOM     27  CE2 TYR S   4       7.678 -14.581  46.554  1.00 32.01 LIG 0.04  A 
ATOM     28  CZ  TYR S   4       6.766 -15.423  47.182  1.00 31.83 LIG 0.07  A 
ATOM     29  CE1 TYR S   4       6.899 -16.780  47.088  1.00 31.31 LIG 0.04  A 
ATOM     30  CD1 TYR S   4       7.934 -17.330  46.355  1.00 30.54 LIG 0.01  A 
BRANCH 28 31
ATOM     31 OH   TYR S   4       5.729 -14.945  47.960  1.00 36.86 LIG-0.36  OA
ATOM     32 HH   TYR S   4       5.354 -14.305  47.566  1.00 36.86 LIG 0.22  HD
ENDBRANCH 28 31
ENDBRANCH 24 25
ENDBRANCH 1 24
BRANCH 1 33
ATOM     33  C   TYR S   4      10.887 -19.389  44.164  1.00 27.93 LIG 0.24  C 
ATOM     34  N   LYS S   5      10.252 -19.391  43.001  1.00 28.19 LIG-0.35  N 
ATOM     35 H    LYS S   5       9.500 -18.991  42.877  1.00 28.19 LIG 0.16  HD
ATOM     36 O    TYR S   4      11.918 -20.027  44.367  1.00 25.57 LIG-0.27  OA
BRANCH 34 37
ATOM     37  CA  LYS S   5      10.754 -20.070  41.809  1.00 28.81 LIG 0.18  C 
BRANCH 37 38
ATOM     38  CB  LYS S   5       9.740 -19.970  40.658  1.00 29.54 LIG 0.04  C 
BRANCH 38 39
ATOM     39  CG  LYS S   5      10.097 -18.969  39.544  1.00 33.24 LIG 0.00  C 
BRANCH 39 40
ATOM     40  CD  LYS S   5       9.794 -17.532  39.937  1.00 37.34 LIG 0.03  C 
BRANCH 40 41
ATOM     41  CE  LYS S   5      10.821 -16.584  39.312  1.00 39.48 LIG 0.23  C 
BRANCH 41 42
ATOM     42  NZ  LYS S   5      10.229 -15.809  38.191  1.00 41.40 LIG-0.08  N 
ATOM     43 HZ2  LYS S   5      10.791 -15.806  37.502  1.00 41.40 LIG 0.27  HD
ATOM     44 HZ1  LYS S   5      10.080 -14.972  38.455  1.00 41.40 LIG 0.27  HD
ATOM     45 HZ3  LYS S   5       9.460 -16.184  37.944  1.00 41.40 LIG 0.27  HD
ENDBRANCH 41 42
ENDBRANCH 40 41
ENDBRANCH 39 40
ENDBRANCH 38 39
ENDBRANCH 37 38
BRANCH 37 46
ATOM     46  C   LYS S   5      12.075 -19.416  41.441  1.00 28.43 LIG 0.24  C 
ATOM     47  N   VAL S   6      12.930 -20.154  40.753  1.00 27.37 LIG-0.34  N 
ATOM     48 H    VAL S   6      12.737 -20.927  40.431  1.00 27.37 LIG 0.16  HD
ATOM     49 O    LYS S   5      12.329 -18.267  41.779  1.00 28.58 LIG-0.27  OA
BRANCH 47 50
ATOM     50  CA  VAL S   6      14.281 -19.724  40.478  1.00 26.91 LIG 0.19  C 
BRANCH 50 51
ATOM     51  C   VAL S   6      14.555 -19.562  38.975  1.00 27.47 LIG 0.20  C 
ATOM     52 O    VAL S   6      14.866 -20.505  38.224  1.00 25.37 LIG-0.65  OA
ATOM     53 OXT  VAL S   6      14.412 -18.418  38.543  1.00 29.74 LIG-0.65  OA
ENDBRANCH 50 51
BRANCH 50 54
ATOM     54  CB  VAL S   6      15.317 -20.684  41.112  1.00 26.80 LIG 0.01  C 
ATOM     55  CG2 VAL S   6      14.743 -22.105  41.267  1.00 26.48 LIG 0.01  C 
ATOM     56  CG1 VAL S   6      15.786 -20.159  42.461  1.00 26.60 LIG 0.01  C 
ENDBRANCH 50 54
ENDBRANCH 47 50
ENDBRANCH 37 46
ENDBRANCH 34 37
ENDBRANCH 1 33
TORSDOF 23
ENDMDL
MODEL 44
USER: ADFR SOLUTION from run 183
USER: SCORE 17.111716 LL:  -4.868 LR: -13.326 RR:   0.000 FEB:  -6.465
USER: RMSD 9.762658
USER: SEED 182
USER: STATUS no improvement in best in 2 clusters for 5 generations
USER: GENES 25
USER: genes 0 Translation |==|  0.45156 0.62364 0.70620
USER: genes 1 Rotation |==|  0.08225 0.55271 0.26626 0.63443
USER: genes 2 Torsion [C]-CA--N-[C] |==|  0.58889
USER: genes 3 Torsion [N]-C--CA-[N] |==|  0.07886
USER: genes 4 Torsion [C]-CA--N-[C] |==|  0.16519
USER: genes 5 Torsion [N]-C--CA-[N] |==|  0.70270
USER: genes 6 Torsion [C]-CA--CB-[CG] |==|  0.72432
USER: genes 7 Torsion [CA]-CB--CG-[ND2] |==|  0.30003
USER: genes 8 Torsion [C]-CA--CB-[CG] |==|  0.50078
USER: genes 9 Torsion [CA]-CB--CG-[CD] |==|  0.21100
USER: genes 10 Torsion [CB]-CG--CD-[OE1] |==|  0.11842
USER: genes 11 Torsion [N]-CA--CB-[CG] |==|  0.68459
USER: genes 12 Torsion [CA]-CB--CG-[CD1] |==|  0.42019
USER: genes 13 Torsion [CE2]-CZ--OH-[HH] |==|  0.38426
USER: genes 14 Torsion [N]-CA--C-[N] |==|  0.77941
USER: genes 15 Torsion [C]-N--CA-[C] |==|  0.64597
USER: genes 16 Torsion [N]-CA--CB-[CG] |==|  0.38132
USER: genes 17 Torsion [CA]-CB--CG-[CD] |==|  0.33654
USER: genes 18 Torsion [CB]-CG--CD-[CE] |==|  0.57362
USER: genes 19 Torsion [CG]-CD--CE-[NZ] |==|  0.30103
USER: genes 20 Torsion [CD]-CE--NZ-[HZ3] |==|  0.35770
USER: genes 21 Torsion [N]-CA--C-[N] |==|  0.48672
USER: genes 22 Torsion [C]-N--CA-[C] |==|  0.83923
USER: genes 23 Torsion [N]-CA--C-[O] |==|  0.87984
USER: genes 24 Torsion [N]-CA--CB-[CG2] |==|  0.70949
ROOT
ATOM      1  CA  TYR S   4       7.337 -16.769  46.153  1.00 28.42 LIG 0.18  C 
ENDROOT
BRANCH 1 2
ATOM      2  N   TYR S   4       5.988 -17.306  46.167  1.00 30.10 LIG-0.35  N 
ATOM      3 H    TYR S   4       5.736 -17.624  45.410  1.00 30.10 LIG 0.16  HD
ATOM      4  C   GLU S   3       5.216 -17.307  47.244  1.00 31.33 LIG 0.24  C 
ATOM      5 O    GLU S   3       5.544 -16.789  48.317  1.00 31.71 LIG-0.27  OA
BRANCH 4 6
ATOM      6  CA  GLU S   3       3.879 -18.005  47.085  1.00 32.63 LIG 0.18  C 
BRANCH 6 7
ATOM      7  N   GLU S   3       3.994 -19.064  46.070  1.00 32.63 LIG-0.35  N 
ATOM      8  C   ASN S   2       4.852 -20.052  46.226  1.00 33.77 LIG 0.26  C 
ATOM      9 O    ASN S   2       5.677 -20.073  47.128  1.00 34.52 LIG-0.27  OA
ATOM     10 H    GLU S   3       3.468 -18.978  45.395  1.00 32.63 LIG 0.16  HD
BRANCH 8 11
ATOM     11  CA  ASN S   2       4.758 -21.205  45.219  1.00 34.66 LIG 0.41  C 
ATOM     12  N   ASN S   2       4.167 -22.434  45.842  1.00 35.02 LIG 0.61  N 
BRANCH 11 13
ATOM     13  CB  ASN S   2       3.930 -20.718  44.014  1.00 35.18 LIG 0.15  C 
BRANCH 13 14
ATOM     14  CG  ASN S   2       2.471 -21.177  44.066  1.00 37.91 LIG 0.22  C 
ATOM     15 OD1  ASN S   2       2.174 -22.360  43.878  1.00 41.54 LIG-0.27  OA
ATOM     16  ND2 ASN S   2       1.558 -20.237  44.337  1.00 40.23 LIG-0.37  N 
ATOM     17 22HD ASN S   2       1.805 -19.423  44.461  1.00 40.23 LIG 0.16  HD
ATOM     18 21HD ASN S   2       0.726 -20.448  44.387  1.00 40.23 LIG 0.16  HD
ENDBRANCH 13 14
ENDBRANCH 11 13
ENDBRANCH 8 11
ENDBRANCH 6 7
BRANCH 6 19
ATOM     19  CB  GLU S   3       3.376 -18.561  48.413  1.00 32.72 LIG 0.04  C 
BRANCH 19 20
ATOM     20  CG  GLU S   3       2.037 -19.294  48.381  1.00 35.99 LIG 0.12  C 
BRANCH 20 21
ATOM     21  CD  GLU S   3       2.132 -20.699  47.788  1.00 39.18 LIG 0.17  C 
ATOM     22 OE1  GLU S   3       3.107 -21.405  48.131  1.00 41.46 LIG-0.65  OA
ATOM     23 OE2  GLU S   3       1.235 -21.107  46.988  1.00 41.34 LIG-0.65  OA
ENDBRANCH 20 21
ENDBRANCH 19 20
ENDBRANCH 6 19
ENDBRANCH 4 6
ENDBRANCH 1 2
BRANCH 1 24
ATOM     24  CB  TYR S   4       8.307 -17.875  46.522  1.00 28.42 LIG 0.07  C 
BRANCH 24 25
ATOM     25  CG  TYR S   4       8.992 -17.637  47.836  1.00 29.89 LIG-0.06  A 
ATOM     26  CD2 TYR S   4       9.234 -16.338  48.308  1.00 30.34 LIG 0.01  A 
ATOM     27  CE2 TYR S   4       9.895 -16.142  49.541  1.00 32.01 LIG 0.04  A 
ATOM     28  CZ  TYR S   4      10.294 -17.250  50.281  1.00 31.83 LIG 0.07  A 
ATOM     29  CE1 TYR S   4      10.062 -18.514  49.815  1.00 31.31 LIG 0.04  A 
ATOM     30  CD1 TYR S   4       9.416 -18.703  48.609  1.00 30.54 LIG 0.01  A 
BRANCH 28 31
ATOM     31 OH   TYR S   4      10.977 -17.136  51.478  1.00 36.86 LIG-0.36  OA
ATOM     32 HH   TYR S   4      10.673 -17.693  52.029  1.00 36.86 LIG 0.22  HD
ENDBRANCH 28 31
ENDBRANCH 24 25
ENDBRANCH 1 24
BRANCH 1 33
ATOM     33  C   TYR S   4       7.617 -16.201  44.770  1.00 27.93 LIG 0.24  C 
ATOM     34  N   LYS S   5       7.935 -17.081  43.831  1.00 28.19 LIG-0.35  N 
ATOM     35 H    LYS S   5       7.988 -17.926  43.981  1.00 28.19 LIG 0.16  HD
ATOM     36 O    TYR S   4       7.620 -14.986  44.579  1.00 25.57 LIG-0.27  OA
BRANCH 34 37
ATOM     37  CA  LYS S   5       8.227 -16.714  42.448  1.00 28.81 LIG 0.18  C 
BRANCH 37 38
ATOM     38  CB  LYS S   5       9.715 -16.934  42.130  1.00 29.54 LIG 0.04  C 
BRANCH 38 39
ATOM     39  CG  LYS S   5      10.014 -17.582  40.765  1.00 33.24 LIG 0.00  C 
BRANCH 39 40
ATOM     40  CD  LYS S   5      10.892 -16.705  39.887  1.00 37.34 LIG 0.03  C 
BRANCH 40 41
ATOM     41  CE  LYS S   5      10.639 -17.013  38.408  1.00 39.48 LIG 0.23  C 
BRANCH 41 42
ATOM     42  NZ  LYS S   5       9.902 -15.906  37.745  1.00 41.40 LIG-0.08  N 
ATOM     43 HZ2  LYS S   5       9.853 -15.210  38.297  1.00 41.40 LIG 0.27  HD
ATOM     44 HZ1  LYS S   5       9.080 -16.179  37.538  1.00 41.40 LIG 0.27  HD
ATOM     45 HZ3  LYS S   5      10.331 -15.666  37.003  1.00 41.40 LIG 0.27  HD
ENDBRANCH 41 42
ENDBRANCH 40 41
ENDBRANCH 39 40
ENDBRANCH 38 39
ENDBRANCH 37 38
BRANCH 37 46
ATOM     46  C   LYS S   5       7.339 -17.568  41.558  1.00 28.43 LIG 0.24  C 
ATOM     47  N   VAL S   6       7.384 -17.317  40.261  1.00 27.37 LIG-0.34  N 
ATOM     48 H    VAL S   6       7.949 -16.777  39.901  1.00 27.37 LIG 0.16  HD
ATOM     49 O    LYS S   5       6.616 -18.435  42.031  1.00 28.58 LIG-0.27  OA
BRANCH 47 50
ATOM     50  CA  VAL S   6       6.479 -17.932  39.319  1.00 26.91 LIG 0.19  C 
BRANCH 50 51
ATOM     51  C   VAL S   6       6.549 -19.467  39.347  1.00 27.47 LIG 0.20  C 
ATOM     52 O    VAL S   6       7.614 -20.109  39.403  1.00 25.37 LIG-0.65  OA
ATOM     53 OXT  VAL S   6       5.457 -20.035  39.346  1.00 29.74 LIG-0.65  OA
ENDBRANCH 50 51
BRANCH 50 54
ATOM     54  CB  VAL S   6       6.722 -17.410  37.881  1.00 26.80 LIG 0.01  C 
ATOM     55  CG2 VAL S   6       5.629 -16.415  37.454  1.00 26.48 LIG 0.01  C 
ATOM     56  CG1 VAL S   6       6.794 -18.565  36.893  1.00 26.60 LIG 0.01  C 
ENDBRANCH 50 54
ENDBRANCH 47 50
ENDBRANCH 37 46
ENDBRANCH 34 37
ENDBRANCH 1 33
TORSDOF 23
ENDMDL
MODEL 45
USER: ADFR SOLUTION from run 158
USER: SCORE 18.006861 LL:  -5.765 LR: -13.324 RR:   0.000 FEB:  -6.463
USER: RMSD 9.590827
USER: SEED 157
USER: STATUS no improvement in best in 9 clusters for 5 generations
USER: GENES 25
USER: genes 0 Translation |==|  0.46999 0.63530 0.64257
USER: genes 1 Rotation |==|  0.09620 0.29691 0.32886 0.62809
USER: genes 2 Torsion [C]-CA--N-[C] |==|  0.86892
USER: genes 3 Torsion [N]-C--CA-[N] |==|  0.93619
USER: genes 4 Torsion [C]-CA--N-[C] |==|  0.83262
USER: genes 5 Torsion [N]-C--CA-[N] |==|  0.60008
USER: genes 6 Torsion [C]-CA--CB-[CG] |==|  0.47035
USER: genes 7 Torsion [CA]-CB--CG-[ND2] |==|  0.71366
USER: genes 8 Torsion [C]-CA--CB-[CG] |==|  0.94117
USER: genes 9 Torsion [CA]-CB--CG-[CD] |==|  0.79584
USER: genes 10 Torsion [CB]-CG--CD-[OE1] |==|  0.05200
USER: genes 11 Torsion [N]-CA--CB-[CG] |==|  0.83340
USER: genes 12 Torsion [CA]-CB--CG-[CD1] |==|  0.89597
USER: genes 13 Torsion [CE2]-CZ--OH-[HH] |==|  0.74047
USER: genes 14 Torsion [N]-CA--C-[N] |==|  0.75556
USER: genes 15 Torsion [C]-N--CA-[C] |==|  0.80692
USER: genes 16 Torsion [N]-CA--CB-[CG] |==|  0.56373
USER: genes 17 Torsion [CA]-CB--CG-[CD] |==|  0.75813
USER: genes 18 Torsion [CB]-CG--CD-[CE] |==|  0.30925
USER: genes 19 Torsion [CG]-CD--CE-[NZ] |==|  0.04829
USER: genes 20 Torsion [CD]-CE--NZ-[HZ3] |==|  0.22918
USER: genes 21 Torsion [N]-CA--C-[N] |==|  0.38157
USER: genes 22 Torsion [C]-N--CA-[C] |==|  0.55784
USER: genes 23 Torsion [N]-CA--C-[O] |==|  0.42961
USER: genes 24 Torsion [N]-CA--CB-[CG2] |==|  0.75009
ROOT
ATOM      1  CA  TYR S   4       7.724 -16.576  44.626  1.00 28.42 LIG 0.18  C 
ENDROOT
BRANCH 1 2
ATOM      2  N   TYR S   4       7.335 -17.910  45.048  1.00 30.10 LIG-0.35  N 
ATOM      3 H    TYR S   4       7.801 -18.213  45.704  1.00 30.10 LIG 0.16  HD
ATOM      4  C   GLU S   3       6.356 -18.598  44.479  1.00 31.33 LIG 0.24  C 
ATOM      5 O    GLU S   3       5.730 -18.199  43.491  1.00 31.71 LIG-0.27  OA
BRANCH 4 6
ATOM      6  CA  GLU S   3       6.034 -19.930  45.128  1.00 32.63 LIG 0.18  C 
BRANCH 6 7
ATOM      7  N   GLU S   3       7.205 -20.406  45.883  1.00 32.63 LIG-0.35  N 
ATOM      8  C   ASN S   2       8.350 -20.632  45.271  1.00 33.77 LIG 0.26  C 
ATOM      9 O    ASN S   2       8.467 -20.595  44.055  1.00 34.52 LIG-0.27  OA
ATOM     10 H    GLU S   3       7.072 -20.516  46.725  1.00 32.63 LIG 0.16  HD
BRANCH 8 11
ATOM     11  CA  ASN S   2       9.556 -20.933  46.169  1.00 34.66 LIG 0.41  C 
ATOM     12  N   ASN S   2      10.819 -20.347  45.611  1.00 35.02 LIG 0.61  N 
BRANCH 11 13
ATOM     13  CB  ASN S   2       9.247 -20.394  47.579  1.00 35.18 LIG 0.15  C 
BRANCH 13 14
ATOM     14  CG  ASN S   2      10.257 -20.858  48.632  1.00 37.91 LIG 0.22  C 
ATOM     15 OD1  ASN S   2      11.368 -20.330  48.715  1.00 41.54 LIG-0.27  OA
ATOM     16  ND2 ASN S   2       9.860 -21.841  49.448  1.00 40.23 LIG-0.37  N 
ATOM     17 22HD ASN S   2       9.077 -22.184  49.358  1.00 40.23 LIG 0.16  HD
ATOM     18 21HD ASN S   2      10.388 -22.129  50.062  1.00 40.23 LIG 0.16  HD
ENDBRANCH 13 14
ENDBRANCH 11 13
ENDBRANCH 8 11
ENDBRANCH 6 7
BRANCH 6 19
ATOM     19  CB  GLU S   3       4.800 -19.835  46.019  1.00 32.72 LIG 0.04  C 
BRANCH 19 20
ATOM     20  CG  GLU S   3       4.420 -18.441  46.509  1.00 35.99 LIG 0.12  C 
BRANCH 20 21
ATOM     21  CD  GLU S   3       5.352 -17.906  47.594  1.00 39.18 LIG 0.17  C 
ATOM     22 OE1  GLU S   3       6.475 -18.448  47.707  1.00 41.46 LIG-0.65  OA
ATOM     23 OE2  GLU S   3       4.977 -16.943  48.329  1.00 41.34 LIG-0.65  OA
ENDBRANCH 20 21
ENDBRANCH 19 20
ENDBRANCH 6 19
ENDBRANCH 4 6
ENDBRANCH 1 2
BRANCH 1 24
ATOM     24  CB  TYR S   4       9.027 -16.208  45.309  1.00 28.42 LIG 0.07  C 
BRANCH 24 25
ATOM     25  CG  TYR S   4       8.924 -16.211  46.806  1.00 29.89 LIG-0.06  A 
ATOM     26  CD2 TYR S   4       9.977 -16.677  47.609  1.00 30.34 LIG 0.01  A 
ATOM     27  CE2 TYR S   4       9.849 -16.683  49.015  1.00 32.01 LIG 0.04  A 
ATOM     28  CZ  TYR S   4       8.672 -16.217  49.592  1.00 31.83 LIG 0.07  A 
ATOM     29  CE1 TYR S   4       7.646 -15.770  48.807  1.00 31.31 LIG 0.04  A 
ATOM     30  CD1 TYR S   4       7.774 -15.764  47.431  1.00 30.54 LIG 0.01  A 
BRANCH 28 31
ATOM     31 OH   TYR S   4       8.461 -16.227  50.958  1.00 36.86 LIG-0.36  OA
ATOM     32 HH   TYR S   4       8.062 -16.934  51.175  1.00 36.86 LIG 0.22  HD
ENDBRANCH 28 31
ENDBRANCH 24 25
ENDBRANCH 1 24
BRANCH 1 33
ATOM     33  C   TYR S   4       7.850 -16.565  43.110  1.00 27.93 LIG 0.24  C 
ATOM     34  N   LYS S   5       9.034 -16.906  42.621  1.00 28.19 LIG-0.35  N 
ATOM     35 H    LYS S   5       9.703 -17.117  43.119  1.00 28.19 LIG 0.16  HD
ATOM     36 O    TYR S   4       6.918 -16.184  42.404  1.00 25.57 LIG-0.27  OA
BRANCH 34 37
ATOM     37  CA  LYS S   5       9.333 -16.958  41.193  1.00 28.81 LIG 0.18  C 
BRANCH 37 38
ATOM     38  CB  LYS S   5      10.844 -17.111  40.957  1.00 29.54 LIG 0.04  C 
BRANCH 38 39
ATOM     39  CG  LYS S   5      11.354 -16.640  39.583  1.00 33.24 LIG 0.00  C 
BRANCH 39 40
ATOM     40  CD  LYS S   5      11.267 -17.730  38.527  1.00 37.34 LIG 0.03  C 
BRANCH 40 41
ATOM     41  CE  LYS S   5      10.202 -17.376  37.485  1.00 39.48 LIG 0.23  C 
BRANCH 41 42
ATOM     42  NZ  LYS S   5       9.854 -15.933  37.539  1.00 41.40 LIG-0.08  N 
ATOM     43 HZ2  LYS S   5       9.854 -15.658  38.385  1.00 41.40 LIG 0.27  HD
ATOM     44 HZ1  LYS S   5       9.046 -15.809  37.187  1.00 41.40 LIG 0.27  HD
ATOM     45 HZ3  LYS S   5      10.454 -15.465  37.076  1.00 41.40 LIG 0.27  HD
ENDBRANCH 41 42
ENDBRANCH 40 41
ENDBRANCH 39 40
ENDBRANCH 38 39
ENDBRANCH 37 38
BRANCH 37 46
ATOM     46  C   LYS S   5       8.561 -18.132  40.613  1.00 28.43 LIG 0.24  C 
ATOM     47  N   VAL S   6       7.961 -17.932  39.452  1.00 27.37 LIG-0.34  N 
ATOM     48 H    VAL S   6       8.068 -17.221  38.979  1.00 27.37 LIG 0.16  HD
ATOM     49 O    LYS S   5       8.496 -19.201  41.206  1.00 28.58 LIG-0.27  OA
BRANCH 47 50
ATOM     50  CA  VAL S   6       7.061 -18.897  38.866  1.00 26.91 LIG 0.19  C 
BRANCH 50 51
ATOM     51  C   VAL S   6       6.894 -18.705  37.351  1.00 27.47 LIG 0.20  C 
ATOM     52 O    VAL S   6       6.571 -19.620  36.570  1.00 25.37 LIG-0.65  OA
ATOM     53 OXT  VAL S   6       7.072 -17.555  36.951  1.00 29.74 LIG-0.65  OA
ENDBRANCH 50 51
BRANCH 50 54
ATOM     54  CB  VAL S   6       5.680 -18.876  39.565  1.00 26.80 LIG 0.01  C 
ATOM     55  CG2 VAL S   6       5.636 -19.859  40.749  1.00 26.48 LIG 0.01  C 
ATOM     56  CG1 VAL S   6       4.569 -19.200  38.576  1.00 26.60 LIG 0.01  C 
ENDBRANCH 50 54
ENDBRANCH 47 50
ENDBRANCH 37 46
ENDBRANCH 34 37
ENDBRANCH 1 33
TORSDOF 23
ENDMDL
MODEL 46
USER: ADFR SOLUTION from run 111
USER: SCORE 17.033665 LL:  -4.902 LR: -13.324 RR:   0.000 FEB:  -6.463
USER: RMSD 9.608196
USER: SEED 110
USER: STATUS no improvement in best in 9 clusters for 5 generations
USER: GENES 25
USER: genes 0 Translation |==|  0.38499 0.56114 0.71746
USER: genes 1 Rotation |==|  0.87363 0.69253 0.23791 0.56810
USER: genes 2 Torsion [C]-CA--N-[C] |==|  0.80326
USER: genes 3 Torsion [N]-C--CA-[N] |==|  0.78345
USER: genes 4 Torsion [C]-CA--N-[C] |==|  0.21111
USER: genes 5 Torsion [N]-C--CA-[N] |==|  0.45036
USER: genes 6 Torsion [C]-CA--CB-[CG] |==|  0.95038
USER: genes 7 Torsion [CA]-CB--CG-[ND2] |==|  0.76843
USER: genes 8 Torsion [C]-CA--CB-[CG] |==|  0.17059
USER: genes 9 Torsion [CA]-CB--CG-[CD] |==|  0.80134
USER: genes 10 Torsion [CB]-CG--CD-[OE1] |==|  0.76685
USER: genes 11 Torsion [N]-CA--CB-[CG] |==|  0.07685
USER: genes 12 Torsion [CA]-CB--CG-[CD1] |==|  0.21932
USER: genes 13 Torsion [CE2]-CZ--OH-[HH] |==|  0.38826
USER: genes 14 Torsion [N]-CA--C-[N] |==|  0.34642
USER: genes 15 Torsion [C]-N--CA-[C] |==|  0.76704
USER: genes 16 Torsion [N]-CA--CB-[CG] |==|  0.88285
USER: genes 17 Torsion [CA]-CB--CG-[CD] |==|  0.67156
USER: genes 18 Torsion [CB]-CG--CD-[CE] |==|  0.03237
USER: genes 19 Torsion [CG]-CD--CE-[NZ] |==|  0.31566
USER: genes 20 Torsion [CD]-CE--NZ-[HZ3] |==|  0.37253
USER: genes 21 Torsion [N]-CA--C-[N] |==|  0.23714
USER: genes 22 Torsion [C]-N--CA-[C] |==|  0.57247
USER: genes 23 Torsion [N]-CA--C-[O] |==|  0.00811
USER: genes 24 Torsion [N]-CA--CB-[CG2] |==|  0.07809
ROOT
ATOM      1  CA  TYR S   4       5.939 -17.800  46.423  1.00 28.42 LIG 0.18  C 
ENDROOT
BRANCH 1 2
ATOM      2  N   TYR S   4       7.005 -17.433  47.337  1.00 30.10 LIG-0.35  N 
ATOM      3 H    TYR S   4       7.792 -17.529  47.005  1.00 30.10 LIG 0.16  HD
ATOM      4  C   GLU S   3       6.789 -16.991  48.568  1.00 31.33 LIG 0.24  C 
ATOM      5 O    GLU S   3       5.666 -16.917  49.077  1.00 31.71 LIG-0.27  OA
BRANCH 4 6
ATOM      6  CA  GLU S   3       8.028 -16.563  49.331  1.00 32.63 LIG 0.18  C 
BRANCH 6 7
ATOM      7  N   GLU S   3       8.736 -17.753  49.829  1.00 32.63 LIG-0.35  N 
ATOM      8  C   ASN S   2       9.455 -18.496  49.011  1.00 33.77 LIG 0.26  C 
ATOM      9 O    ASN S   2       9.464 -18.326  47.802  1.00 34.52 LIG-0.27  OA
ATOM     10 H    GLU S   3       8.638 -17.909  50.670  1.00 32.63 LIG 0.16  HD
BRANCH 8 11
ATOM     11  CA  ASN S   2      10.309 -19.593  49.658  1.00 34.66 LIG 0.41  C 
ATOM     12  N   ASN S   2      10.731 -20.626  48.656  1.00 35.02 LIG 0.61  N 
BRANCH 11 13
ATOM     13  CB  ASN S   2      11.520 -18.920  50.333  1.00 35.18 LIG 0.15  C 
BRANCH 13 14
ATOM     14  CG  ASN S   2      11.774 -17.498  49.825  1.00 37.91 LIG 0.22  C 
ATOM     15 OD1  ASN S   2      11.355 -16.521  50.451  1.00 41.54 LIG-0.27  OA
ATOM     16  ND2 ASN S   2      12.477 -17.385  48.693  1.00 40.23 LIG-0.37  N 
ATOM     17 22HD ASN S   2      12.751 -18.091  48.285  1.00 40.23 LIG 0.16  HD
ATOM     18 21HD ASN S   2      12.654 -16.607  48.373  1.00 40.23 LIG 0.16  HD
ENDBRANCH 13 14
ENDBRANCH 11 13
ENDBRANCH 8 11
ENDBRANCH 6 7
BRANCH 6 19
ATOM     19  CB  GLU S   3       8.941 -15.692  48.475  1.00 32.72 LIG 0.04  C 
BRANCH 19 20
ATOM     20  CG  GLU S   3       8.354 -14.374  47.977  1.00 35.99 LIG 0.12  C 
BRANCH 20 21
ATOM     21  CD  GLU S   3       7.295 -14.556  46.892  1.00 39.18 LIG 0.17  C 
ATOM     22 OE1  GLU S   3       7.695 -14.684  45.712  1.00 41.46 LIG-0.65  OA
ATOM     23 OE2  GLU S   3       6.067 -14.582  47.208  1.00 41.34 LIG-0.65  OA
ENDBRANCH 20 21
ENDBRANCH 19 20
ENDBRANCH 6 19
ENDBRANCH 4 6
ENDBRANCH 1 2
BRANCH 1 24
ATOM     24  CB  TYR S   4       6.519 -17.945  45.029  1.00 28.42 LIG 0.07  C 
BRANCH 24 25
ATOM     25  CG  TYR S   4       7.968 -18.334  45.035  1.00 29.89 LIG-0.06  A 
ATOM     26  CD2 TYR S   4       8.978 -17.389  44.803  1.00 30.34 LIG 0.01  A 
ATOM     27  CE2 TYR S   4      10.334 -17.784  44.800  1.00 32.01 LIG 0.04  A 
ATOM     28  CZ  TYR S   4      10.653 -19.118  45.036  1.00 31.83 LIG 0.07  A 
ATOM     29  CE1 TYR S   4       9.666 -20.037  45.254  1.00 31.31 LIG 0.04  A 
ATOM     30  CD1 TYR S   4       8.340 -19.648  45.258  1.00 30.54 LIG 0.01  A 
BRANCH 28 31
ATOM     31 OH   TYR S   4      11.954 -19.584  45.011  1.00 36.86 LIG-0.36  OA
ATOM     32 HH   TYR S   4      12.066 -20.137  45.634  1.00 36.86 LIG 0.22  HD
ENDBRANCH 28 31
ENDBRANCH 24 25
ENDBRANCH 1 24
BRANCH 1 33
ATOM     33  C   TYR S   4       5.302 -19.092  46.914  1.00 27.93 LIG 0.24  C 
ATOM     34  N   LYS S   5       3.992 -19.057  47.113  1.00 28.19 LIG-0.35  N 
ATOM     35 H    LYS S   5       3.517 -18.352  46.982  1.00 28.19 LIG 0.16  HD
ATOM     36 O    TYR S   4       5.995 -20.073  47.179  1.00 25.57 LIG-0.27  OA
BRANCH 34 37
ATOM     37  CA  LYS S   5       3.216 -20.205  47.574  1.00 28.81 LIG 0.18  C 
BRANCH 37 38
ATOM     38  CB  LYS S   5       1.939 -19.744  48.295  1.00 29.54 LIG 0.04  C 
BRANCH 38 39
ATOM     39  CG  LYS S   5       2.110 -18.550  49.252  1.00 33.24 LIG 0.00  C 
BRANCH 39 40
ATOM     40  CD  LYS S   5       1.771 -18.907  50.691  1.00 37.34 LIG 0.03  C 
BRANCH 40 41
ATOM     41  CE  LYS S   5       1.630 -20.425  50.841  1.00 39.48 LIG 0.23  C 
BRANCH 41 42
ATOM     42  NZ  LYS S   5       2.703 -20.983  51.704  1.00 41.40 LIG-0.08  N 
ATOM     43 HZ2  LYS S   5       3.108 -20.322  52.140  1.00 41.40 LIG 0.27  HD
ATOM     44 HZ1  LYS S   5       3.296 -21.413  51.199  1.00 41.40 LIG 0.27  HD
ATOM     45 HZ3  LYS S   5       2.347 -21.550  52.291  1.00 41.40 LIG 0.27  HD
ENDBRANCH 41 42
ENDBRANCH 40 41
ENDBRANCH 39 40
ENDBRANCH 38 39
ENDBRANCH 37 38
BRANCH 37 46
ATOM     46  C   LYS S   5       2.888 -21.047  46.353  1.00 28.43 LIG 0.24  C 
ATOM     47  N   VAL S   6       3.802 -21.925  45.975  1.00 27.37 LIG-0.34  N 
ATOM     48 H    VAL S   6       4.507 -22.103  46.434  1.00 27.37 LIG 0.16  HD
ATOM     49 O    LYS S   5       1.832 -20.904  45.751  1.00 28.58 LIG-0.27  OA
BRANCH 47 50
ATOM     50  CA  VAL S   6       3.699 -22.673  44.744  1.00 26.91 LIG 0.19  C 
BRANCH 50 51
ATOM     51  C   VAL S   6       4.450 -24.012  44.801  1.00 27.47 LIG 0.20  C 
ATOM     52 O    VAL S   6       5.035 -24.433  45.816  1.00 25.37 LIG-0.65  OA
ATOM     53 OXT  VAL S   6       4.408 -24.674  43.764  1.00 29.74 LIG-0.65  OA
ENDBRANCH 50 51
BRANCH 50 54
ATOM     54  CB  VAL S   6       4.185 -21.836  43.535  1.00 26.80 LIG 0.01  C 
ATOM     55  CG2 VAL S   6       5.239 -20.798  43.959  1.00 26.48 LIG 0.01  C 
ATOM     56  CG1 VAL S   6       3.014 -21.144  42.852  1.00 26.60 LIG 0.01  C 
ENDBRANCH 50 54
ENDBRANCH 47 50
ENDBRANCH 37 46
ENDBRANCH 34 37
ENDBRANCH 1 33
TORSDOF 23
ENDMDL
MODEL 47
USER: ADFR SOLUTION from run 117
USER: SCORE 18.509300 LL:  -5.951 LR: -13.307 RR:   0.000 FEB:  -6.446
USER: RMSD 9.270820
USER: SEED 116
USER: STATUS no improvement in best in 1 clusters for 5 generations
USER: GENES 25
USER: genes 0 Translation |==|  0.62223 0.46020 0.77595
USER: genes 1 Rotation |==|  0.73934 0.34397 0.82154 0.75492
USER: genes 2 Torsion [C]-CA--N-[C] |==|  0.62140
USER: genes 3 Torsion [N]-C--CA-[N] |==|  0.89042
USER: genes 4 Torsion [C]-CA--N-[C] |==|  0.77543
USER: genes 5 Torsion [N]-C--CA-[N] |==|  0.75299
USER: genes 6 Torsion [C]-CA--CB-[CG] |==|  0.14823
USER: genes 7 Torsion [CA]-CB--CG-[ND2] |==|  0.66718
USER: genes 8 Torsion [C]-CA--CB-[CG] |==|  0.73465
USER: genes 9 Torsion [CA]-CB--CG-[CD] |==|  0.48036
USER: genes 10 Torsion [CB]-CG--CD-[OE1] |==|  0.14289
USER: genes 11 Torsion [N]-CA--CB-[CG] |==|  0.85791
USER: genes 12 Torsion [CA]-CB--CG-[CD1] |==|  0.78141
USER: genes 13 Torsion [CE2]-CZ--OH-[HH] |==|  0.86736
USER: genes 14 Torsion [N]-CA--C-[N] |==|  0.13234
USER: genes 15 Torsion [C]-N--CA-[C] |==|  0.18286
USER: genes 16 Torsion [N]-CA--CB-[CG] |==|  0.85413
USER: genes 17 Torsion [CA]-CB--CG-[CD] |==|  0.93483
USER: genes 18 Torsion [CB]-CG--CD-[CE] |==|  0.33824
USER: genes 19 Torsion [CG]-CD--CE-[NZ] |==|  0.33296
USER: genes 20 Torsion [CD]-CE--NZ-[HZ3] |==|  0.31803
USER: genes 21 Torsion [N]-CA--C-[N] |==|  0.05803
USER: genes 22 Torsion [C]-N--CA-[C] |==|  0.73931
USER: genes 23 Torsion [N]-CA--C-[O] |==|  0.43902
USER: genes 24 Torsion [N]-CA--CB-[CG2] |==|  0.49729
ROOT
ATOM      1  CA  TYR S   4      10.921 -19.466  47.827  1.00 28.42 LIG 0.18  C 
ENDROOT
BRANCH 1 2
ATOM      2  N   TYR S   4      10.215 -18.559  46.940  1.00 30.10 LIG-0.35  N 
ATOM      3 H    TYR S   4       9.499 -18.895  46.604  1.00 30.10 LIG 0.16  HD
ATOM      4  C   GLU S   3      10.632 -17.330  46.672  1.00 31.33 LIG 0.24  C 
ATOM      5 O    GLU S   3      11.696 -16.866  47.094  1.00 31.71 LIG-0.27  OA
BRANCH 4 6
ATOM      6  CA  GLU S   3       9.704 -16.503  45.803  1.00 32.63 LIG 0.18  C 
BRANCH 6 7
ATOM      7  N   GLU S   3       9.129 -17.353  44.749  1.00 32.63 LIG-0.35  N 
ATOM      8  C   ASN S   2       9.816 -17.627  43.658  1.00 33.77 LIG 0.26  C 
ATOM      9 O    ASN S   2      10.886 -17.094  43.403  1.00 34.52 LIG-0.27  OA
ATOM     10 H    GLU S   3       8.334 -17.640  44.908  1.00 32.63 LIG 0.16  HD
BRANCH 8 11
ATOM     11  CA  ASN S   2       9.213 -18.674  42.715  1.00 34.66 LIG 0.41  C 
ATOM     12  N   ASN S   2       9.657 -20.061  43.075  1.00 35.02 LIG 0.61  N 
BRANCH 11 13
ATOM     13  CB  ASN S   2       7.679 -18.532  42.763  1.00 35.18 LIG 0.15  C 
BRANCH 13 14
ATOM     14  CG  ASN S   2       7.201 -17.106  42.483  1.00 37.91 LIG 0.22  C 
ATOM     15 OD1  ASN S   2       7.446 -16.559  41.404  1.00 41.54 LIG-0.27  OA
ATOM     16  ND2 ASN S   2       6.502 -16.508  43.454  1.00 40.23 LIG-0.37  N 
ATOM     17 22HD ASN S   2       6.352 -16.923  44.192  1.00 40.23 LIG 0.16  HD
ATOM     18 21HD ASN S   2       6.203 -15.710  43.340  1.00 40.23 LIG 0.16  HD
ENDBRANCH 13 14
ENDBRANCH 11 13
ENDBRANCH 8 11
ENDBRANCH 6 7
BRANCH 6 19
ATOM     19  CB  GLU S   3       8.614 -15.830  46.631  1.00 32.72 LIG 0.04  C 
BRANCH 19 20
ATOM     20  CG  GLU S   3       7.276 -16.560  46.715  1.00 35.99 LIG 0.12  C 
BRANCH 20 21
ATOM     21  CD  GLU S   3       6.297 -15.915  47.695  1.00 39.18 LIG 0.17  C 
ATOM     22 OE1  GLU S   3       6.085 -14.687  47.574  1.00 41.46 LIG-0.65  OA
ATOM     23 OE2  GLU S   3       5.729 -16.627  48.578  1.00 41.34 LIG-0.65  OA
ENDBRANCH 20 21
ENDBRANCH 19 20
ENDBRANCH 6 19
ENDBRANCH 4 6
ENDBRANCH 1 2
BRANCH 1 24
ATOM     24  CB  TYR S   4      10.218 -19.481  49.171  1.00 28.42 LIG 0.07  C 
BRANCH 24 25
ATOM     25  CG  TYR S   4       9.987 -18.107  49.726  1.00 29.89 LIG-0.06  A 
ATOM     26  CD2 TYR S   4       8.734 -17.481  49.629  1.00 30.34 LIG 0.01  A 
ATOM     27  CE2 TYR S   4       8.547 -16.181  50.147  1.00 32.01 LIG 0.04  A 
ATOM     28  CZ  TYR S   4       9.616 -15.533  50.758  1.00 31.83 LIG 0.07  A 
ATOM     29  CE1 TYR S   4      10.836 -16.142  50.845  1.00 31.31 LIG 0.04  A 
ATOM     30  CD1 TYR S   4      11.017 -17.415  50.339  1.00 30.54 LIG 0.01  A 
BRANCH 28 31
ATOM     31 OH   TYR S   4       9.518 -14.247  51.254  1.00 36.86 LIG-0.36  OA
ATOM     32 HH   TYR S   4       9.157 -13.751  50.680  1.00 36.86 LIG 0.22  HD
ENDBRANCH 28 31
ENDBRANCH 24 25
ENDBRANCH 1 24
BRANCH 1 33
ATOM     33  C   TYR S   4      10.955 -20.844  47.184  1.00 27.93 LIG 0.24  C 
ATOM     34  N   LYS S   5      11.321 -20.885  45.911  1.00 28.19 LIG-0.35  N 
ATOM     35 H    LYS S   5      11.525 -20.181  45.460  1.00 28.19 LIG 0.16  HD
ATOM     36 O    TYR S   4      10.585 -21.837  47.808  1.00 25.57 LIG-0.27  OA
BRANCH 34 37
ATOM     37  CA  LYS S   5      11.418 -22.120  45.139  1.00 28.81 LIG 0.18  C 
BRANCH 37 38
ATOM     38  CB  LYS S   5      12.358 -23.122  45.829  1.00 29.54 LIG 0.04  C 
BRANCH 38 39
ATOM     39  CG  LYS S   5      13.754 -22.582  46.190  1.00 33.24 LIG 0.00  C 
BRANCH 39 40
ATOM     40  CD  LYS S   5      14.158 -21.396  45.329  1.00 37.34 LIG 0.03  C 
BRANCH 40 41
ATOM     41  CE  LYS S   5      14.454 -20.178  46.210  1.00 39.48 LIG 0.23  C 
BRANCH 41 42
ATOM     42  NZ  LYS S   5      15.854 -19.713  46.035  1.00 41.40 LIG-0.08  N 
ATOM     43 HZ2  LYS S   5      16.291 -20.279  45.505  1.00 41.40 LIG 0.27  HD
ATOM     44 HZ1  LYS S   5      16.257 -19.679  46.828  1.00 41.40 LIG 0.27  HD
ATOM     45 HZ3  LYS S   5      15.854 -18.903  45.666  1.00 41.40 LIG 0.27  HD
ENDBRANCH 41 42
ENDBRANCH 40 41
ENDBRANCH 39 40
ENDBRANCH 38 39
ENDBRANCH 37 38
BRANCH 37 46
ATOM     46  C   LYS S   5      10.012 -22.682  45.008  1.00 28.43 LIG 0.24  C 
ATOM     47  N   VAL S   6       9.015 -21.830  45.184  1.00 27.37 LIG-0.34  N 
ATOM     48 H    VAL S   6       9.126 -20.981  45.266  1.00 27.37 LIG 0.16  HD
ATOM     49 O    LYS S   5       9.823 -23.866  44.764  1.00 28.58 LIG-0.27  OA
BRANCH 47 50
ATOM     50  CA  VAL S   6       7.636 -22.252  45.253  1.00 26.91 LIG 0.19  C 
BRANCH 50 51
ATOM     51  C   VAL S   6       6.928 -22.183  43.891  1.00 27.47 LIG 0.20  C 
ATOM     52 O    VAL S   6       5.907 -22.838  43.609  1.00 25.37 LIG-0.65  OA
ATOM     53 OXT  VAL S   6       7.425 -21.394  43.088  1.00 29.74 LIG-0.65  OA
ENDBRANCH 50 51
BRANCH 50 54
ATOM     54  CB  VAL S   6       6.850 -21.437  46.309  1.00 26.80 LIG 0.01  C 
ATOM     55  CG2 VAL S   6       5.374 -21.870  46.366  1.00 26.48 LIG 0.01  C 
ATOM     56  CG1 VAL S   6       6.947 -19.945  46.021  1.00 26.60 LIG 0.01  C 
ENDBRANCH 50 54
ENDBRANCH 47 50
ENDBRANCH 37 46
ENDBRANCH 34 37
ENDBRANCH 1 33
TORSDOF 23
ENDMDL
MODEL 48
USER: ADFR SOLUTION from run 141
USER: SCORE 18.039773 LL:  -6.147 LR: -13.210 RR:   0.000 FEB:  -6.349
USER: RMSD 9.386053
USER: SEED 140
USER: STATUS no improvement in best in 12 clusters for 5 generations
USER: GENES 25
USER: genes 0 Translation |==|  0.54083 0.60651 0.61686
USER: genes 1 Rotation |==|  0.08669 0.37845 0.24691 0.51852
USER: genes 2 Torsion [C]-CA--N-[C] |==|  0.78408
USER: genes 3 Torsion [N]-C--CA-[N] |==|  0.89947
USER: genes 4 Torsion [C]-CA--N-[C] |==|  0.84093
USER: genes 5 Torsion [N]-C--CA-[N] |==|  0.49921
USER: genes 6 Torsion [C]-CA--CB-[CG] |==|  0.23046
USER: genes 7 Torsion [CA]-CB--CG-[ND2] |==|  0.26399
USER: genes 8 Torsion [C]-CA--CB-[CG] |==|  0.85471
USER: genes 9 Torsion [CA]-CB--CG-[CD] |==|  0.44039
USER: genes 10 Torsion [CB]-CG--CD-[OE1] |==|  0.20744
USER: genes 11 Torsion [N]-CA--CB-[CG] |==|  0.85647
USER: genes 12 Torsion [CA]-CB--CG-[CD1] |==|  0.80234
USER: genes 13 Torsion [CE2]-CZ--OH-[HH] |==|  0.11418
USER: genes 14 Torsion [N]-CA--C-[N] |==|  0.29364
USER: genes 15 Torsion [C]-N--CA-[C] |==|  0.23311
USER: genes 16 Torsion [N]-CA--CB-[CG] |==|  0.37891
USER: genes 17 Torsion [CA]-CB--CG-[CD] |==|  0.26682
USER: genes 18 Torsion [CB]-CG--CD-[CE] |==|  0.70558
USER: genes 19 Torsion [CG]-CD--CE-[NZ] |==|  0.33450
USER: genes 20 Torsion [CD]-CE--NZ-[HZ3] |==|  0.20398
USER: genes 21 Torsion [N]-CA--C-[N] |==|  0.39028
USER: genes 22 Torsion [C]-N--CA-[C] |==|  0.55704
USER: genes 23 Torsion [N]-CA--C-[O] |==|  0.00212
USER: genes 24 Torsion [N]-CA--CB-[CG2] |==|  0.60453
ROOT
ATOM      1  CA  TYR S   4       9.211 -17.052  44.009  1.00 28.42 LIG 0.18  C 
ENDROOT
BRANCH 1 2
ATOM      2  N   TYR S   4       8.095 -17.934  44.295  1.00 30.10 LIG-0.35  N 
ATOM      3 H    TYR S   4       8.290 -18.571  44.838  1.00 30.10 LIG 0.16  HD
ATOM      4  C   GLU S   3       6.888 -17.776  43.771  1.00 31.33 LIG 0.24  C 
ATOM      5 O    GLU S   3       6.618 -16.906  42.936  1.00 31.71 LIG-0.27  OA
BRANCH 4 6
ATOM      6  CA  GLU S   3       5.830 -18.739  44.272  1.00 32.63 LIG 0.18  C 
BRANCH 6 7
ATOM      7  N   GLU S   3       6.436 -20.061  44.500  1.00 32.63 LIG-0.35  N 
ATOM      8  C   ASN S   2       7.055 -20.693  43.523  1.00 33.77 LIG 0.26  C 
ATOM      9 O    ASN S   2       7.043 -20.293  42.368  1.00 34.52 LIG-0.27  OA
ATOM     10 H    GLU S   3       6.349 -20.367  45.300  1.00 32.63 LIG 0.16  HD
BRANCH 8 11
ATOM     11  CA  ASN S   2       7.819 -21.965  43.908  1.00 34.66 LIG 0.41  C 
ATOM     12  N   ASN S   2       8.474 -22.597  42.716  1.00 35.02 LIG 0.61  N 
BRANCH 11 13
ATOM     13  CB  ASN S   2       8.844 -21.594  44.997  1.00 35.18 LIG 0.15  C 
BRANCH 13 14
ATOM     14  CG  ASN S   2       8.238 -21.558  46.403  1.00 37.91 LIG 0.22  C 
ATOM     15 OD1  ASN S   2       7.659 -20.550  46.814  1.00 41.54 LIG-0.27  OA
ATOM     16  ND2 ASN S   2       8.360 -22.671  47.134  1.00 40.23 LIG-0.37  N 
ATOM     17 22HD ASN S   2       8.771 -23.354  46.812  1.00 40.23 LIG 0.16  HD
ATOM     18 21HD ASN S   2       8.027 -22.704  47.926  1.00 40.23 LIG 0.16  HD
ENDBRANCH 13 14
ENDBRANCH 11 13
ENDBRANCH 8 11
ENDBRANCH 6 7
BRANCH 6 19
ATOM     19  CB  GLU S   3       5.148 -18.217  45.532  1.00 32.72 LIG 0.04  C 
BRANCH 19 20
ATOM     20  CG  GLU S   3       6.064 -17.798  46.679  1.00 35.99 LIG 0.12  C 
BRANCH 20 21
ATOM     21  CD  GLU S   3       5.401 -16.834  47.660  1.00 39.18 LIG 0.17  C 
ATOM     22 OE1  GLU S   3       4.556 -17.309  48.453  1.00 41.46 LIG-0.65  OA
ATOM     23 OE2  GLU S   3       5.723 -15.607  47.654  1.00 41.34 LIG-0.65  OA
ENDBRANCH 20 21
ENDBRANCH 19 20
ENDBRANCH 6 19
ENDBRANCH 4 6
ENDBRANCH 1 2
BRANCH 1 24
ATOM     24  CB  TYR S   4      10.249 -17.204  45.105  1.00 28.42 LIG 0.07  C 
BRANCH 24 25
ATOM     25  CG  TYR S   4       9.671 -17.051  46.482  1.00 29.89 LIG-0.06  A 
ATOM     26  CD2 TYR S   4       9.524 -18.153  47.338  1.00 30.34 LIG 0.01  A 
ATOM     27  CE2 TYR S   4       8.964 -17.984  48.623  1.00 32.01 LIG 0.04  A 
ATOM     28  CZ  TYR S   4       8.568 -16.714  49.030  1.00 31.83 LIG 0.07  A 
ATOM     29  CE1 TYR S   4       8.707 -15.644  48.191  1.00 31.31 LIG 0.04  A 
ATOM     30  CD1 TYR S   4       9.256 -15.811  46.934  1.00 30.54 LIG 0.01  A 
BRANCH 28 31
ATOM     31 OH   TYR S   4       7.979 -16.479  50.258  1.00 36.86 LIG-0.36  OA
ATOM     32 HH   TYR S   4       8.368 -16.934  50.848  1.00 36.86 LIG 0.22  HD
ENDBRANCH 28 31
ENDBRANCH 24 25
ENDBRANCH 1 24
BRANCH 1 33
ATOM     33  C   TYR S   4       9.771 -17.407  42.640  1.00 27.93 LIG 0.24  C 
ATOM     34  N   LYS S   5       9.490 -16.562  41.658  1.00 28.19 LIG-0.35  N 
ATOM     35 H    LYS S   5       9.016 -15.853  41.771  1.00 28.19 LIG 0.16  HD
ATOM     36 O    TYR S   4      10.379 -18.461  42.464  1.00 25.57 LIG-0.27  OA
BRANCH 34 37
ATOM     37  CA  LYS S   5       9.952 -16.740  40.284  1.00 28.81 LIG 0.18  C 
BRANCH 37 38
ATOM     38  CB  LYS S   5      11.379 -17.310  40.258  1.00 29.54 LIG 0.04  C 
BRANCH 38 39
ATOM     39  CG  LYS S   5      11.628 -18.436  39.238  1.00 33.24 LIG 0.00  C 
BRANCH 39 40
ATOM     40  CD  LYS S   5      12.225 -17.919  37.939  1.00 37.34 LIG 0.03  C 
BRANCH 40 41
ATOM     41  CE  LYS S   5      11.168 -17.924  36.830  1.00 39.48 LIG 0.23  C 
BRANCH 41 42
ATOM     42  NZ  LYS S   5      10.951 -16.559  36.286  1.00 41.40 LIG-0.08  N 
ATOM     43 HZ2  LYS S   5      10.866 -15.981  36.957  1.00 41.40 LIG 0.27  HD
ATOM     44 HZ1  LYS S   5      10.209 -16.551  35.792  1.00 41.40 LIG 0.27  HD
ATOM     45 HZ3  LYS S   5      11.646 -16.326  35.781  1.00 41.40 LIG 0.27  HD
ENDBRANCH 41 42
ENDBRANCH 40 41
ENDBRANCH 39 40
ENDBRANCH 38 39
ENDBRANCH 37 38
BRANCH 37 46
ATOM     46  C   LYS S   5       8.971 -17.675  39.596  1.00 28.43 LIG 0.24  C 
ATOM     47  N   VAL S   6       8.661 -17.391  38.343  1.00 27.37 LIG-0.34  N 
ATOM     48 H    VAL S   6       9.054 -16.779  37.884  1.00 27.37 LIG 0.16  HD
ATOM     49 O    LYS S   5       8.491 -18.634  40.186  1.00 28.58 LIG-0.27  OA
BRANCH 47 50
ATOM     50  CA  VAL S   6       7.624 -18.090  37.621  1.00 26.91 LIG 0.19  C 
BRANCH 50 51
ATOM     51  C   VAL S   6       7.773 -17.960  36.097  1.00 27.47 LIG 0.20  C 
ATOM     52 O    VAL S   6       8.695 -17.334  35.544  1.00 25.37 LIG-0.65  OA
ATOM     53 OXT  VAL S   6       6.920 -18.558  35.441  1.00 29.74 LIG-0.65  OA
ENDBRANCH 50 51
BRANCH 50 54
ATOM     54  CB  VAL S   6       6.216 -17.622  38.064  1.00 26.80 LIG 0.01  C 
ATOM     55  CG2 VAL S   6       5.222 -18.797  38.107  1.00 26.48 LIG 0.01  C 
ATOM     56  CG1 VAL S   6       5.695 -16.529  37.142  1.00 26.60 LIG 0.01  C 
ENDBRANCH 50 54
ENDBRANCH 47 50
ENDBRANCH 37 46
ENDBRANCH 34 37
ENDBRANCH 1 33
TORSDOF 23
ENDMDL
MODEL 49
USER: ADFR SOLUTION from run 158
USER: SCORE 17.837958 LL:  -5.910 LR: -13.196 RR:   0.000 FEB:  -6.336
USER: RMSD 10.812160
USER: SEED 157
USER: STATUS no improvement in best in 9 clusters for 5 generations
USER: GENES 25
USER: genes 0 Translation |==|  0.44627 0.61554 0.63003
USER: genes 1 Rotation |==|  0.15852 0.16973 0.34411 0.50321
USER: genes 2 Torsion [C]-CA--N-[C] |==|  0.68162
USER: genes 3 Torsion [N]-C--CA-[N] |==|  0.44705
USER: genes 4 Torsion [C]-CA--N-[C] |==|  0.81508
USER: genes 5 Torsion [N]-C--CA-[N] |==|  0.99639
USER: genes 6 Torsion [C]-CA--CB-[CG] |==|  0.64191
USER: genes 7 Torsion [CA]-CB--CG-[ND2] |==|  0.32015
USER: genes 8 Torsion [C]-CA--CB-[CG] |==|  0.83117
USER: genes 9 Torsion [CA]-CB--CG-[CD] |==|  0.82511
USER: genes 10 Torsion [CB]-CG--CD-[OE1] |==|  0.90963
USER: genes 11 Torsion [N]-CA--CB-[CG] |==|  0.97529
USER: genes 12 Torsion [CA]-CB--CG-[CD1] |==|  0.79139
USER: genes 13 Torsion [CE2]-CZ--OH-[HH] |==|  0.85237
USER: genes 14 Torsion [N]-CA--C-[N] |==|  0.47538
USER: genes 15 Torsion [C]-N--CA-[C] |==|  0.23513
USER: genes 16 Torsion [N]-CA--CB-[CG] |==|  0.57943
USER: genes 17 Torsion [CA]-CB--CG-[CD] |==|  0.06521
USER: genes 18 Torsion [CB]-CG--CD-[CE] |==|  0.68828
USER: genes 19 Torsion [CG]-CD--CE-[NZ] |==|  0.37258
USER: genes 20 Torsion [CD]-CE--NZ-[HZ3] |==|  0.00388
USER: genes 21 Torsion [N]-CA--C-[N] |==|  0.39944
USER: genes 22 Torsion [C]-N--CA-[C] |==|  0.54465
USER: genes 23 Torsion [N]-CA--C-[O] |==|  0.42074
USER: genes 24 Torsion [N]-CA--CB-[CG2] |==|  0.52973
ROOT
ATOM      1  CA  TYR S   4       7.226 -16.903  44.325  1.00 28.42 LIG 0.18  C 
ENDROOT
BRANCH 1 2
ATOM      2  N   TYR S   4       7.012 -17.942  45.315  1.00 30.10 LIG-0.35  N 
ATOM      3 H    TYR S   4       7.738 -18.226  45.678  1.00 30.10 LIG 0.16  HD
ATOM      4  C   GLU S   3       5.814 -18.411  45.633  1.00 31.33 LIG 0.24  C 
ATOM      5 O    GLU S   3       4.774 -18.058  45.067  1.00 31.71 LIG-0.27  OA
BRANCH 4 6
ATOM      6  CA  GLU S   3       5.789 -19.421  46.763  1.00 32.63 LIG 0.18  C 
BRANCH 6 7
ATOM      7  N   GLU S   3       4.427 -19.512  47.314  1.00 32.63 LIG-0.35  N 
ATOM      8  C   ASN S   2       3.891 -18.489  47.948  1.00 33.77 LIG 0.26  C 
ATOM      9 O    ASN S   2       4.525 -17.483  48.230  1.00 34.52 LIG-0.27  OA
ATOM     10 H    GLU S   3       4.034 -20.266  47.185  1.00 32.63 LIG 0.16  HD
BRANCH 8 11
ATOM     11  CA  ASN S   2       2.406 -18.611  48.309  1.00 34.66 LIG 0.41  C 
ATOM     12  N   ASN S   2       1.826 -19.907  47.824  1.00 35.02 LIG 0.61  N 
BRANCH 11 13
ATOM     13  CB  ASN S   2       2.272 -18.458  49.836  1.00 35.18 LIG 0.15  C 
BRANCH 13 14
ATOM     14  CG  ASN S   2       1.461 -19.585  50.482  1.00 37.91 LIG 0.22  C 
ATOM     15 OD1  ASN S   2       0.268 -19.740  50.209  1.00 41.54 LIG-0.27  OA
ATOM     16  ND2 ASN S   2       2.119 -20.384  51.329  1.00 40.23 LIG-0.37  N 
ATOM     17 22HD ASN S   2       2.951 -20.243  51.494  1.00 40.23 LIG 0.16  HD
ATOM     18 21HD ASN S   2       1.710 -21.037  51.709  1.00 40.23 LIG 0.16  HD
ENDBRANCH 13 14
ENDBRANCH 11 13
ENDBRANCH 8 11
ENDBRANCH 6 7
BRANCH 6 19
ATOM     19  CB  GLU S   3       6.295 -20.786  46.305  1.00 32.72 LIG 0.04  C 
BRANCH 19 20
ATOM     20  CG  GLU S   3       5.508 -21.463  45.186  1.00 35.99 LIG 0.12  C 
BRANCH 20 21
ATOM     21  CD  GLU S   3       4.067 -21.789  45.573  1.00 39.18 LIG 0.17  C 
ATOM     22 OE1  GLU S   3       3.843 -22.081  46.769  1.00 41.46 LIG-0.65  OA
ATOM     23 OE2  GLU S   3       3.154 -21.747  44.693  1.00 41.34 LIG-0.65  OA
ENDBRANCH 20 21
ENDBRANCH 19 20
ENDBRANCH 6 19
ENDBRANCH 4 6
ENDBRANCH 1 2
BRANCH 1 24
ATOM     24  CB  TYR S   4       7.972 -15.753  44.975  1.00 28.42 LIG 0.07  C 
BRANCH 24 25
ATOM     25  CG  TYR S   4       8.090 -15.900  46.464  1.00 29.89 LIG-0.06  A 
ATOM     26  CD2 TYR S   4       9.297 -16.290  47.065  1.00 30.34 LIG 0.01  A 
ATOM     27  CE2 TYR S   4       9.377 -16.436  48.467  1.00 32.01 LIG 0.04  A 
ATOM     28  CZ  TYR S   4       8.250 -16.181  49.242  1.00 31.83 LIG 0.07  A 
ATOM     29  CE1 TYR S   4       7.075 -15.808  48.653  1.00 31.31 LIG 0.04  A 
ATOM     30  CD1 TYR S   4       6.999 -15.665  47.280  1.00 30.54 LIG 0.01  A 
BRANCH 28 31
ATOM     31 OH   TYR S   4       8.244 -16.338  50.615  1.00 36.86 LIG-0.36  OA
ATOM     32 HH   TYR S   4       8.513 -17.110  50.811  1.00 36.86 LIG 0.22  HD
ENDBRANCH 28 31
ENDBRANCH 24 25
ENDBRANCH 1 24
BRANCH 1 33
ATOM     33  C   TYR S   4       7.998 -17.497  43.157  1.00 27.93 LIG 0.24  C 
ATOM     34  N   LYS S   5       8.118 -16.727  42.085  1.00 28.19 LIG-0.35  N 
ATOM     35 H    LYS S   5       7.780 -15.938  42.035  1.00 28.19 LIG 0.16  HD
ATOM     36 O    TYR S   4       8.410 -18.655  43.201  1.00 25.57 LIG-0.27  OA
BRANCH 34 37
ATOM     37  CA  LYS S   5       8.833 -17.132  40.877  1.00 28.81 LIG 0.18  C 
BRANCH 37 38
ATOM     38  CB  LYS S   5      10.078 -17.960  41.233  1.00 29.54 LIG 0.04  C 
BRANCH 38 39
ATOM     39  CG  LYS S   5      11.243 -17.874  40.230  1.00 33.24 LIG 0.00  C 
BRANCH 39 40
ATOM     40  CD  LYS S   5      11.200 -16.600  39.400  1.00 37.34 LIG 0.03  C 
BRANCH 40 41
ATOM     41  CE  LYS S   5      10.895 -16.932  37.936  1.00 39.48 LIG 0.23  C 
BRANCH 41 42
ATOM     42  NZ  LYS S   5       9.857 -16.024  37.383  1.00 41.40 LIG-0.08  N 
ATOM     43 HZ2  LYS S   5       9.147 -16.500  37.135  1.00 41.40 LIG 0.27  HD
ATOM     44 HZ1  LYS S   5      10.185 -15.592  36.678  1.00 41.40 LIG 0.27  HD
ATOM     45 HZ3  LYS S   5       9.614 -15.435  38.005  1.00 41.40 LIG 0.27  HD
ENDBRANCH 41 42
ENDBRANCH 40 41
ENDBRANCH 39 40
ENDBRANCH 38 39
ENDBRANCH 37 38
BRANCH 37 46
ATOM     46  C   LYS S   5       7.862 -17.932  40.025  1.00 28.43 LIG 0.24  C 
ATOM     47  N   VAL S   6       7.957 -17.778  38.715  1.00 27.37 LIG-0.34  N 
ATOM     48 H    VAL S   6       8.588 -17.336  38.334  1.00 27.37 LIG 0.16  HD
ATOM     49 O    LYS S   5       7.031 -18.671  40.537  1.00 28.58 LIG-0.27  OA
BRANCH 47 50
ATOM     50  CA  VAL S   6       6.998 -18.344  37.795  1.00 26.91 LIG 0.19  C 
BRANCH 50 51
ATOM     51  C   VAL S   6       7.514 -18.374  36.348  1.00 27.47 LIG 0.20  C 
ATOM     52 O    VAL S   6       7.156 -19.216  35.505  1.00 25.37 LIG-0.65  OA
ATOM     53 OXT  VAL S   6       8.299 -17.470  36.059  1.00 29.74 LIG-0.65  OA
ENDBRANCH 50 51
BRANCH 50 54
ATOM     54  CB  VAL S   6       5.643 -17.600  37.866  1.00 26.80 LIG 0.01  C 
ATOM     55  CG2 VAL S   6       4.547 -18.356  37.092  1.00 26.48 LIG 0.01  C 
ATOM     56  CG1 VAL S   6       5.776 -16.181  37.331  1.00 26.60 LIG 0.01  C 
ENDBRANCH 50 54
ENDBRANCH 47 50
ENDBRANCH 37 46
ENDBRANCH 34 37
ENDBRANCH 1 33
TORSDOF 23
ENDMDL
MODEL 50
USER: ADFR SOLUTION from run 134
USER: SCORE 19.236545 LL:  -6.313 LR: -13.188 RR:   0.000 FEB:  -6.327
USER: RMSD 9.805008
USER: SEED 133
USER: STATUS no improvement in best in 6 clusters for 5 generations
USER: GENES 25
USER: genes 0 Translation |==|  0.61677 0.53570 0.66042
USER: genes 1 Rotation |==|  0.88121 0.31925 0.74858 0.60109
USER: genes 2 Torsion [C]-CA--N-[C] |==|  0.69438
USER: genes 3 Torsion [N]-C--CA-[N] |==|  0.95060
USER: genes 4 Torsion [C]-CA--N-[C] |==|  0.83145
USER: genes 5 Torsion [N]-C--CA-[N] |==|  0.60512
USER: genes 6 Torsion [C]-CA--CB-[CG] |==|  0.81034
USER: genes 7 Torsion [CA]-CB--CG-[ND2] |==|  0.77934
USER: genes 8 Torsion [C]-CA--CB-[CG] |==|  0.59383
USER: genes 9 Torsion [CA]-CB--CG-[CD] |==|  0.30717
USER: genes 10 Torsion [CB]-CG--CD-[OE1] |==|  0.11213
USER: genes 11 Torsion [N]-CA--CB-[CG] |==|  0.81101
USER: genes 12 Torsion [CA]-CB--CG-[CD1] |==|  0.90011
USER: genes 13 Torsion [CE2]-CZ--OH-[HH] |==|  0.95503
USER: genes 14 Torsion [N]-CA--C-[N] |==|  0.07778
USER: genes 15 Torsion [C]-N--CA-[C] |==|  0.78316
USER: genes 16 Torsion [N]-CA--CB-[CG] |==|  0.50382
USER: genes 17 Torsion [CA]-CB--CG-[CD] |==|  0.76978
USER: genes 18 Torsion [CB]-CG--CD-[CE] |==|  0.51967
USER: genes 19 Torsion [CG]-CD--CE-[NZ] |==|  0.53434
USER: genes 20 Torsion [CD]-CE--NZ-[HZ3] |==|  0.06710
USER: genes 21 Torsion [N]-CA--C-[N] |==|  0.40266
USER: genes 22 Torsion [C]-N--CA-[C] |==|  0.69322
USER: genes 23 Torsion [N]-CA--C-[O] |==|  0.46535
USER: genes 24 Torsion [N]-CA--CB-[CG2] |==|  0.25032
ROOT
ATOM      1  CA  TYR S   4      10.806 -18.220  45.054  1.00 28.42 LIG 0.18  C 
ENDROOT
BRANCH 1 2
ATOM      2  N   TYR S   4       9.622 -17.387  45.156  1.00 30.10 LIG-0.35  N 
ATOM      3 H    TYR S   4       8.886 -17.825  45.089  1.00 30.10 LIG 0.16  HD
ATOM      4  C   GLU S   3       9.668 -16.074  45.335  1.00 31.33 LIG 0.24  C 
ATOM      5 O    GLU S   3      10.720 -15.428  45.362  1.00 31.71 LIG-0.27  OA
BRANCH 4 6
ATOM      6  CA  GLU S   3       8.324 -15.396  45.519  1.00 32.63 LIG 0.18  C 
BRANCH 6 7
ATOM      7  N   GLU S   3       7.254 -16.284  45.038  1.00 32.63 LIG-0.35  N 
ATOM      8  C   ASN S   2       7.222 -16.675  43.780  1.00 33.77 LIG 0.26  C 
ATOM      9 O    ASN S   2       7.977 -16.226  42.931  1.00 34.52 LIG-0.27  OA
ATOM     10 H    GLU S   3       6.677 -16.512  45.634  1.00 32.63 LIG 0.16  HD
BRANCH 8 11
ATOM     11  CA  ASN S   2       6.188 -17.750  43.425  1.00 34.66 LIG 0.41  C 
ATOM     12  N   ASN S   2       6.730 -18.727  42.425  1.00 35.02 LIG 0.61  N 
BRANCH 11 13
ATOM     13  CB  ASN S   2       5.755 -18.445  44.730  1.00 35.18 LIG 0.15  C 
BRANCH 13 14
ATOM     14  CG  ASN S   2       6.871 -19.283  45.360  1.00 37.91 LIG 0.22  C 
ATOM     15 OD1  ASN S   2       7.517 -18.854  46.320  1.00 41.54 LIG-0.27  OA
ATOM     16  ND2 ASN S   2       7.086 -20.490  44.826  1.00 40.23 LIG-0.37  N 
ATOM     17 22HD ASN S   2       6.615 -20.753  44.156  1.00 40.23 LIG 0.16  HD
ATOM     18 21HD ASN S   2       7.695 -21.002  45.151  1.00 40.23 LIG 0.16  HD
ENDBRANCH 13 14
ENDBRANCH 11 13
ENDBRANCH 8 11
ENDBRANCH 6 7
BRANCH 6 19
ATOM     19  CB  GLU S   3       8.096 -14.988  46.971  1.00 32.72 LIG 0.04  C 
BRANCH 19 20
ATOM     20  CG  GLU S   3       6.658 -15.053  47.478  1.00 35.99 LIG 0.12  C 
BRANCH 20 21
ATOM     21  CD  GLU S   3       6.429 -16.164  48.501  1.00 39.18 LIG 0.17  C 
ATOM     22 OE1  GLU S   3       7.323 -16.354  49.357  1.00 41.46 LIG-0.65  OA
ATOM     23 OE2  GLU S   3       5.358 -16.843  48.464  1.00 41.34 LIG-0.65  OA
ENDBRANCH 20 21
ENDBRANCH 19 20
ENDBRANCH 6 19
ENDBRANCH 4 6
ENDBRANCH 1 2
BRANCH 1 24
ATOM     24  CB  TYR S   4      10.685 -19.364  46.042  1.00 28.42 LIG 0.07  C 
BRANCH 24 25
ATOM     25  CG  TYR S   4      10.757 -18.913  47.472  1.00 29.89 LIG-0.06  A 
ATOM     26  CD2 TYR S   4       9.979 -19.521  48.469  1.00 30.34 LIG 0.01  A 
ATOM     27  CE2 TYR S   4      10.054 -19.066  49.804  1.00 32.01 LIG 0.04  A 
ATOM     28  CZ  TYR S   4      10.913 -18.018  50.117  1.00 31.83 LIG 0.07  A 
ATOM     29  CE1 TYR S   4      11.664 -17.424  49.142  1.00 31.31 LIG 0.04  A 
ATOM     30  CD1 TYR S   4      11.589 -17.870  47.836  1.00 30.54 LIG 0.01  A 
BRANCH 28 31
ATOM     31 OH   TYR S   4      11.012 -17.496  51.394  1.00 36.86 LIG-0.36  OA
ATOM     32 HH   TYR S   4      10.351 -17.743  51.850  1.00 36.86 LIG 0.22  HD
ENDBRANCH 28 31
ENDBRANCH 24 25
ENDBRANCH 1 24
BRANCH 1 33
ATOM     33  C   TYR S   4      10.930 -18.714  43.621  1.00 27.93 LIG 0.24  C 
ATOM     34  N   LYS S   5      10.407 -17.932  42.687  1.00 28.19 LIG-0.35  N 
ATOM     35 H    LYS S   5      10.013 -17.188  42.866  1.00 28.19 LIG 0.16  HD
ATOM     36 O    TYR S   4      11.421 -19.815  43.375  1.00 25.57 LIG-0.27  OA
BRANCH 34 37
ATOM     37  CA  LYS S   5      10.441 -18.244  41.261  1.00 28.81 LIG 0.18  C 
BRANCH 37 38
ATOM     38  CB  LYS S   5       9.369 -17.445  40.503  1.00 29.54 LIG 0.04  C 
BRANCH 38 39
ATOM     39  CG  LYS S   5       9.285 -17.714  38.989  1.00 33.24 LIG 0.00  C 
BRANCH 39 40
ATOM     40  CD  LYS S   5      10.308 -16.912  38.200  1.00 37.34 LIG 0.03  C 
BRANCH 40 41
ATOM     41  CE  LYS S   5      10.068 -17.081  36.697  1.00 39.48 LIG 0.23  C 
BRANCH 41 42
ATOM     42  NZ  LYS S   5      11.213 -16.559  35.907  1.00 41.40 LIG-0.08  N 
ATOM     43 HZ2  LYS S   5      11.042 -15.725  35.650  1.00 41.40 LIG 0.27  HD
ATOM     44 HZ1  LYS S   5      11.336 -17.071  35.188  1.00 41.40 LIG 0.27  HD
ATOM     45 HZ3  LYS S   5      11.949 -16.569  36.407  1.00 41.40 LIG 0.27  HD
ENDBRANCH 41 42
ENDBRANCH 40 41
ENDBRANCH 39 40
ENDBRANCH 38 39
ENDBRANCH 37 38
BRANCH 37 46
ATOM     46  C   LYS S   5      11.837 -17.911  40.760  1.00 28.43 LIG 0.24  C 
ATOM     47  N   VAL S   6      12.331 -18.695  39.817  1.00 27.37 LIG-0.34  N 
ATOM     48 H    VAL S   6      11.873 -19.304  39.419  1.00 27.37 LIG 0.16  HD
ATOM     49 O    LYS S   5      12.466 -16.968  41.221  1.00 28.58 LIG-0.27  OA
BRANCH 47 50
ATOM     50  CA  VAL S   6      13.699 -18.601  39.366  1.00 26.91 LIG 0.19  C 
BRANCH 50 51
ATOM     51  C   VAL S   6      13.813 -18.050  37.936  1.00 27.47 LIG 0.20  C 
ATOM     52 O    VAL S   6      14.883 -17.674  37.424  1.00 25.37 LIG-0.65  OA
ATOM     53 OXT  VAL S   6      12.759 -18.036  37.300  1.00 29.74 LIG-0.65  OA
ENDBRANCH 50 51
BRANCH 50 54
ATOM     54  CB  VAL S   6      14.424 -19.964  39.475  1.00 26.80 LIG 0.01  C 
ATOM     55  CG2 VAL S   6      14.272 -20.785  38.182  1.00 26.48 LIG 0.01  C 
ATOM     56  CG1 VAL S   6      13.902 -20.760  40.663  1.00 26.60 LIG 0.01  C 
ENDBRANCH 50 54
ENDBRANCH 47 50
ENDBRANCH 37 46
ENDBRANCH 34 37
ENDBRANCH 1 33
TORSDOF 23
ENDMDL
MODEL 51
USER: ADFR SOLUTION from run 147
USER: SCORE 16.944610 LL:  -5.065 LR: -13.148 RR:   0.000 FEB:  -6.287
USER: RMSD 8.561421
USER: SEED 146
USER: STATUS no improvement in best in 3 clusters for 5 generations
USER: GENES 25
USER: genes 0 Translation |==|  0.59965 0.59553 0.45851
USER: genes 1 Rotation |==|  0.58694 0.49061 0.99229 0.50063
USER: genes 2 Torsion [C]-CA--N-[C] |==|  0.67948
USER: genes 3 Torsion [N]-C--CA-[N] |==|  0.76260
USER: genes 4 Torsion [C]-CA--N-[C] |==|  0.67420
USER: genes 5 Torsion [N]-C--CA-[N] |==|  0.45675
USER: genes 6 Torsion [C]-CA--CB-[CG] |==|  0.72923
USER: genes 7 Torsion [CA]-CB--CG-[ND2] |==|  0.10508
USER: genes 8 Torsion [C]-CA--CB-[CG] |==|  0.44217
USER: genes 9 Torsion [CA]-CB--CG-[CD] |==|  0.71983
USER: genes 10 Torsion [CB]-CG--CD-[OE1] |==|  0.98887
USER: genes 11 Torsion [N]-CA--CB-[CG] |==|  0.56844
USER: genes 12 Torsion [CA]-CB--CG-[CD1] |==|  0.78458
USER: genes 13 Torsion [CE2]-CZ--OH-[HH] |==|  0.74315
USER: genes 14 Torsion [N]-CA--C-[N] |==|  0.85230
USER: genes 15 Torsion [C]-N--CA-[C] |==|  0.66318
USER: genes 16 Torsion [N]-CA--CB-[CG] |==|  0.57483
USER: genes 17 Torsion [CA]-CB--CG-[CD] |==|  0.73396
USER: genes 18 Torsion [CB]-CG--CD-[CE] |==|  0.34464
USER: genes 19 Torsion [CG]-CD--CE-[NZ] |==|  0.06968
USER: genes 20 Torsion [CD]-CE--NZ-[HZ3] |==|  0.78342
USER: genes 21 Torsion [N]-CA--C-[N] |==|  0.08330
USER: genes 22 Torsion [C]-N--CA-[C] |==|  0.67704
USER: genes 23 Torsion [N]-CA--C-[O] |==|  0.06473
USER: genes 24 Torsion [N]-CA--CB-[CG2] |==|  0.93286
ROOT
ATOM      1  CA  TYR S   4      10.447 -17.233  40.208  1.00 28.42 LIG 0.18  C 
ENDROOT
BRANCH 1 2
ATOM      2  N   TYR S   4      10.450 -17.519  38.785  1.00 30.10 LIG-0.35  N 
ATOM      3 H    TYR S   4      10.553 -18.352  38.602  1.00 30.10 LIG 0.16  HD
ATOM      4  C   GLU S   3      10.307 -16.587  37.854  1.00 31.33 LIG 0.24  C 
ATOM      5 O    GLU S   3      10.229 -15.380  38.107  1.00 31.71 LIG-0.27  OA
BRANCH 4 6
ATOM      6  CA  GLU S   3      10.235 -17.097  36.428  1.00 32.63 LIG 0.18  C 
BRANCH 6 7
ATOM      7  N   GLU S   3      11.596 -17.263  35.894  1.00 32.63 LIG-0.35  N 
ATOM      8  C   ASN S   2      12.001 -16.554  34.859  1.00 33.77 LIG 0.26  C 
ATOM      9 O    ASN S   2      11.248 -15.839  34.215  1.00 34.52 LIG-0.27  OA
ATOM     10 H    GLU S   3      12.079 -17.843  36.307  1.00 32.63 LIG 0.16  HD
BRANCH 8 11
ATOM     11  CA  ASN S   2      13.489 -16.653  34.504  1.00 34.66 LIG 0.41  C 
ATOM     12  N   ASN S   2      13.763 -16.127  33.126  1.00 35.02 LIG 0.61  N 
BRANCH 11 13
ATOM     13  CB  ASN S   2      14.289 -15.891  35.579  1.00 35.18 LIG 0.15  C 
BRANCH 13 14
ATOM     14  CG  ASN S   2      14.653 -14.466  35.155  1.00 37.91 LIG 0.22  C 
ATOM     15 OD1  ASN S   2      15.752 -13.984  35.444  1.00 41.54 LIG-0.27  OA
ATOM     16  ND2 ASN S   2      13.732 -13.797  34.454  1.00 40.23 LIG-0.37  N 
ATOM     17 22HD ASN S   2      12.977 -14.168  34.273  1.00 40.23 LIG 0.16  HD
ATOM     18 21HD ASN S   2      13.894 -12.997  34.185  1.00 40.23 LIG 0.16  HD
ENDBRANCH 13 14
ENDBRANCH 11 13
ENDBRANCH 8 11
ENDBRANCH 6 7
BRANCH 6 19
ATOM     19  CB  GLU S   3       9.442 -18.397  36.338  1.00 32.72 LIG 0.04  C 
BRANCH 19 20
ATOM     20  CG  GLU S   3       8.877 -18.756  34.966  1.00 35.99 LIG 0.12  C 
BRANCH 20 21
ATOM     21  CD  GLU S   3       7.390 -18.434  34.822  1.00 39.18 LIG 0.17  C 
ATOM     22 OE1  GLU S   3       6.795 -17.999  35.833  1.00 41.46 LIG-0.65  OA
ATOM     23 OE2  GLU S   3       6.815 -18.602  33.704  1.00 41.34 LIG-0.65  OA
ENDBRANCH 20 21
ENDBRANCH 19 20
ENDBRANCH 6 19
ENDBRANCH 4 6
ENDBRANCH 1 2
BRANCH 1 24
ATOM     24  CB  TYR S   4       9.344 -18.039  40.867  1.00 28.42 LIG 0.07  C 
BRANCH 24 25
ATOM     25  CG  TYR S   4       8.857 -17.428  42.148  1.00 29.89 LIG-0.06  A 
ATOM     26  CD2 TYR S   4       7.657 -16.703  42.201  1.00 30.34 LIG 0.01  A 
ATOM     27  CE2 TYR S   4       7.229 -16.125  43.416  1.00 32.01 LIG 0.04  A 
ATOM     28  CZ  TYR S   4       8.007 -16.290  44.557  1.00 31.83 LIG 0.07  A 
ATOM     29  CE1 TYR S   4       9.178 -16.991  44.501  1.00 31.31 LIG 0.04  A 
ATOM     30  CD1 TYR S   4       9.595 -17.557  43.311  1.00 30.54 LIG 0.01  A 
BRANCH 28 31
ATOM     31 OH   TYR S   4       7.671 -15.723  45.772  1.00 36.86 LIG-0.36  OA
ATOM     32 HH   TYR S   4       8.044 -14.973  45.845  1.00 36.86 LIG 0.22  HD
ENDBRANCH 28 31
ENDBRANCH 24 25
ENDBRANCH 1 24
BRANCH 1 33
ATOM     33  C   TYR S   4      11.818 -17.571  40.774  1.00 27.93 LIG 0.24  C 
ATOM     34  N   LYS S   5      12.268 -18.791  40.520  1.00 28.19 LIG-0.35  N 
ATOM     35 H    LYS S   5      11.821 -19.371  40.068  1.00 28.19 LIG 0.16  HD
ATOM     36 O    TYR S   4      12.418 -16.769  41.487  1.00 25.57 LIG-0.27  OA
BRANCH 34 37
ATOM     37  CA  LYS S   5      13.565 -19.284  40.977  1.00 28.81 LIG 0.18  C 
BRANCH 37 38
ATOM     38  CB  LYS S   5      13.389 -20.468  41.941  1.00 29.54 LIG 0.04  C 
BRANCH 38 39
ATOM     39  CG  LYS S   5      14.522 -20.666  42.964  1.00 33.24 LIG 0.00  C 
BRANCH 39 40
ATOM     40  CD  LYS S   5      15.549 -21.687  42.500  1.00 37.34 LIG 0.03  C 
BRANCH 40 41
ATOM     41  CE  LYS S   5      16.949 -21.065  42.495  1.00 39.48 LIG 0.23  C 
BRANCH 41 42
ATOM     42  NZ  LYS S   5      17.041 -19.934  43.454  1.00 41.40 LIG-0.08  N 
ATOM     43 HZ2  LYS S   5      17.896 -19.760  43.628  1.00 41.40 LIG 0.27  HD
ATOM     44 HZ1  LYS S   5      16.623 -20.151  44.209  1.00 41.40 LIG 0.27  HD
ATOM     45 HZ3  LYS S   5      16.659 -19.212  43.100  1.00 41.40 LIG 0.27  HD
ENDBRANCH 41 42
ENDBRANCH 40 41
ENDBRANCH 39 40
ENDBRANCH 38 39
ENDBRANCH 37 38
BRANCH 37 46
ATOM     46  C   LYS S   5      14.354 -19.688  39.743  1.00 28.43 LIG 0.24  C 
ATOM     47  N   VAL S   6      14.095 -19.022  38.630  1.00 27.37 LIG-0.34  N 
ATOM     48 H    VAL S   6      13.589 -18.327  38.599  1.00 27.37 LIG 0.16  HD
ATOM     49 O    LYS S   5      15.177 -20.593  39.786  1.00 28.58 LIG-0.27  OA
BRANCH 47 50
ATOM     50  CA  VAL S   6      14.645 -19.404  37.350  1.00 26.91 LIG 0.19  C 
BRANCH 50 51
ATOM     51  C   VAL S   6      15.581 -18.336  36.765  1.00 27.47 LIG 0.20  C 
ATOM     52 O    VAL S   6      16.170 -17.482  37.454  1.00 25.37 LIG-0.65  OA
ATOM     53 OXT  VAL S   6      15.743 -18.399  35.547  1.00 29.74 LIG-0.65  OA
ENDBRANCH 50 51
BRANCH 50 54
ATOM     54  CB  VAL S   6      13.526 -19.749  36.338  1.00 26.80 LIG 0.01  C 
ATOM     55  CG2 VAL S   6      12.232 -20.177  37.055  1.00 26.48 LIG 0.01  C 
ATOM     56  CG1 VAL S   6      13.980 -20.844  35.382  1.00 26.60 LIG 0.01  C 
ENDBRANCH 50 54
ENDBRANCH 47 50
ENDBRANCH 37 46
ENDBRANCH 34 37
ENDBRANCH 1 33
TORSDOF 23
ENDMDL
MODEL 52
USER: ADFR SOLUTION from run 180
USER: SCORE 18.973922 LL:  -6.588 LR: -13.144 RR:   0.000 FEB:  -6.284
USER: RMSD 9.014885
USER: SEED 179
USER: STATUS searching
USER: GENES 25
USER: genes 0 Translation |==|  0.48192 0.65094 0.62796
USER: genes 1 Rotation |==|  0.05078 0.42834 0.29618 0.53899
USER: genes 2 Torsion [C]-CA--N-[C] |==|  0.17764
USER: genes 3 Torsion [N]-C--CA-[N] |==|  0.46509
USER: genes 4 Torsion [C]-CA--N-[C] |==|  0.55347
USER: genes 5 Torsion [N]-C--CA-[N] |==|  0.41988
USER: genes 6 Torsion [C]-CA--CB-[CG] |==|  0.82403
USER: genes 7 Torsion [CA]-CB--CG-[ND2] |==|  0.33819
USER: genes 8 Torsion [C]-CA--CB-[CG] |==|  0.25126
USER: genes 9 Torsion [CA]-CB--CG-[CD] |==|  0.67930
USER: genes 10 Torsion [CB]-CG--CD-[OE1] |==|  0.81253
USER: genes 11 Torsion [N]-CA--CB-[CG] |==|  0.84815
USER: genes 12 Torsion [CA]-CB--CG-[CD1] |==|  0.84291
USER: genes 13 Torsion [CE2]-CZ--OH-[HH] |==|  0.95174
USER: genes 14 Torsion [N]-CA--C-[N] |==|  0.64959
USER: genes 15 Torsion [C]-N--CA-[C] |==|  0.82809
USER: genes 16 Torsion [N]-CA--CB-[CG] |==|  0.45080
USER: genes 17 Torsion [CA]-CB--CG-[CD] |==|  0.22543
USER: genes 18 Torsion [CB]-CG--CD-[CE] |==|  0.74174
USER: genes 19 Torsion [CG]-CD--CE-[NZ] |==|  0.34183
USER: genes 20 Torsion [CD]-CE--NZ-[HZ3] |==|  0.19490
USER: genes 21 Torsion [N]-CA--C-[N] |==|  0.93314
USER: genes 22 Torsion [C]-N--CA-[C] |==|  0.75358
USER: genes 23 Torsion [N]-CA--C-[O] |==|  0.35530
USER: genes 24 Torsion [N]-CA--CB-[CG2] |==|  0.91764
ROOT
ATOM      1  CA  TYR S   4       7.974 -16.319  44.275  1.00 28.42 LIG 0.18  C 
ENDROOT
BRANCH 1 2
ATOM      2  N   TYR S   4       6.836 -17.074  44.766  1.00 30.10 LIG-0.35  N 
ATOM      3 H    TYR S   4       6.204 -16.581  45.076  1.00 30.10 LIG 0.16  HD
ATOM      4  C   GLU S   3       6.774 -18.397  44.741  1.00 31.33 LIG 0.24  C 
ATOM      5 O    GLU S   3       7.706 -19.114  44.363  1.00 31.71 LIG-0.27  OA
BRANCH 4 6
ATOM      6  CA  GLU S   3       5.460 -18.996  45.204  1.00 32.63 LIG 0.18  C 
BRANCH 6 7
ATOM      7  N   GLU S   3       5.416 -20.423  44.847  1.00 32.63 LIG-0.35  N 
ATOM      8  C   ASN S   2       4.266 -21.066  44.796  1.00 33.77 LIG 0.26  C 
ATOM      9 O    ASN S   2       3.214 -20.566  45.166  1.00 34.52 LIG-0.27  OA
ATOM     10 H    GLU S   3       6.181 -20.780  44.683  1.00 32.63 LIG 0.16  HD
BRANCH 8 11
ATOM     11  CA  ASN S   2       4.304 -22.489  44.226  1.00 34.66 LIG 0.41  C 
ATOM     12  N   ASN S   2       3.221 -23.346  44.811  1.00 35.02 LIG 0.61  N 
BRANCH 11 13
ATOM     13  CB  ASN S   2       4.192 -22.391  42.692  1.00 35.18 LIG 0.15  C 
BRANCH 13 14
ATOM     14  CG  ASN S   2       2.863 -21.791  42.225  1.00 37.91 LIG 0.22  C 
ATOM     15 OD1  ASN S   2       1.791 -22.307  42.550  1.00 41.54 LIG-0.27  OA
ATOM     16  ND2 ASN S   2       2.937 -20.688  41.473  1.00 40.23 LIG-0.37  N 
ATOM     17 22HD ASN S   2       3.704 -20.359  41.268  1.00 40.23 LIG 0.16  HD
ATOM     18 21HD ASN S   2       2.218 -20.308  41.195  1.00 40.23 LIG 0.16  HD
ENDBRANCH 13 14
ENDBRANCH 11 13
ENDBRANCH 8 11
ENDBRANCH 6 7
BRANCH 6 19
ATOM     19  CB  GLU S   3       5.249 -18.792  46.701  1.00 32.72 LIG 0.04  C 
BRANCH 19 20
ATOM     20  CG  GLU S   3       4.516 -17.520  47.118  1.00 35.99 LIG 0.12  C 
BRANCH 20 21
ATOM     21  CD  GLU S   3       5.383 -16.563  47.935  1.00 39.18 LIG 0.17  C 
ATOM     22 OE1  GLU S   3       5.729 -16.934  49.079  1.00 41.46 LIG-0.65  OA
ATOM     23 OE2  GLU S   3       5.729 -15.448  47.439  1.00 41.34 LIG-0.65  OA
ENDBRANCH 20 21
ENDBRANCH 19 20
ENDBRANCH 6 19
ENDBRANCH 4 6
ENDBRANCH 1 2
BRANCH 1 24
ATOM     24  CB  TYR S   4       9.214 -16.753  45.034  1.00 28.42 LIG 0.07  C 
BRANCH 24 25
ATOM     25  CG  TYR S   4       9.058 -16.642  46.522  1.00 29.89 LIG-0.06  A 
ATOM     26  CD2 TYR S   4       9.234 -17.755  47.359  1.00 30.34 LIG 0.01  A 
ATOM     27  CE2 TYR S   4       9.067 -17.626  48.756  1.00 32.01 LIG 0.04  A 
ATOM     28  CZ  TYR S   4       8.733 -16.385  49.288  1.00 31.83 LIG 0.07  A 
ATOM     29  CE1 TYR S   4       8.555 -15.306  48.469  1.00 31.31 LIG 0.04  A 
ATOM     30  CD1 TYR S   4       8.720 -15.433  47.103  1.00 30.54 LIG 0.01  A 
BRANCH 28 31
ATOM     31 OH   TYR S   4       8.517 -16.192  50.640  1.00 36.86 LIG-0.36  OA
ATOM     32 HH   TYR S   4       8.383 -16.934  51.012  1.00 36.86 LIG 0.22  HD
ENDBRANCH 28 31
ENDBRANCH 24 25
ENDBRANCH 1 24
BRANCH 1 33
ATOM     33  C   TYR S   4       8.107 -16.559  42.779  1.00 27.93 LIG 0.24  C 
ATOM     34  N   LYS S   5       9.291 -16.981  42.359  1.00 28.19 LIG-0.35  N 
ATOM     35 H    LYS S   5       9.957 -17.110  42.888  1.00 28.19 LIG 0.16  HD
ATOM     36 O    TYR S   4       7.179 -16.295  42.015  1.00 25.57 LIG-0.27  OA
BRANCH 34 37
ATOM     37  CA  LYS S   5       9.594 -17.270  40.960  1.00 28.81 LIG 0.18  C 
BRANCH 37 38
ATOM     38  CB  LYS S   5      11.073 -17.653  40.791  1.00 29.54 LIG 0.04  C 
BRANCH 38 39
ATOM     39  CG  LYS S   5      11.427 -18.380  39.481  1.00 33.24 LIG 0.00  C 
BRANCH 39 40
ATOM     40  CD  LYS S   5      11.600 -17.420  38.314  1.00 37.34 LIG 0.03  C 
BRANCH 40 41
ATOM     41  CE  LYS S   5      10.279 -17.267  37.554  1.00 39.48 LIG 0.23  C 
BRANCH 41 42
ATOM     42  NZ  LYS S   5       9.854 -15.844  37.494  1.00 41.40 LIG-0.08  N 
ATOM     43 HZ2  LYS S   5       9.885 -15.490  38.309  1.00 41.40 LIG 0.27  HD
ATOM     44 HZ1  LYS S   5       9.022 -15.796  37.182  1.00 41.40 LIG 0.27  HD
ATOM     45 HZ3  LYS S   5      10.400 -15.393  36.954  1.00 41.40 LIG 0.27  HD
ENDBRANCH 41 42
ENDBRANCH 40 41
ENDBRANCH 39 40
ENDBRANCH 38 39
ENDBRANCH 37 38
BRANCH 37 46
ATOM     46  C   LYS S   5       8.678 -18.401  40.524  1.00 28.43 LIG 0.24  C 
ATOM     47  N   VAL S   6       8.214 -19.190  41.479  1.00 27.37 LIG-0.34  N 
ATOM     48 H    VAL S   6       8.325 -19.035  42.318  1.00 27.37 LIG 0.16  HD
ATOM     49 O    LYS S   5       8.397 -18.570  39.345  1.00 28.58 LIG-0.27  OA
BRANCH 47 50
ATOM     50  CA  VAL S   6       7.472 -20.395  41.199  1.00 26.91 LIG 0.19  C 
BRANCH 50 51
ATOM     51  C   VAL S   6       5.960 -20.144  41.077  1.00 27.47 LIG 0.20  C 
ATOM     52 O    VAL S   6       5.274 -20.518  40.107  1.00 25.37 LIG-0.65  OA
ATOM     53 OXT  VAL S   6       5.452 -19.566  42.037  1.00 29.74 LIG-0.65  OA
ENDBRANCH 50 51
BRANCH 50 54
ATOM     54  CB  VAL S   6       7.750 -21.488  42.260  1.00 26.80 LIG 0.01  C 
ATOM     55  CG2 VAL S   6       9.166 -21.351  42.847  1.00 26.48 LIG 0.01  C 
ATOM     56  CG1 VAL S   6       7.561 -22.877  41.668  1.00 26.60 LIG 0.01  C 
ENDBRANCH 50 54
ENDBRANCH 47 50
ENDBRANCH 37 46
ENDBRANCH 34 37
ENDBRANCH 1 33
TORSDOF 23
ENDMDL
MODEL 53
USER: ADFR SOLUTION from run 32
USER: SCORE 18.016720 LL:  -5.678 LR: -13.143 RR:   0.000 FEB:  -6.282
USER: RMSD 9.225933
USER: SEED 31
USER: STATUS searching
USER: GENES 25
USER: genes 0 Translation |==|  0.57757 0.59371 0.54740
USER: genes 1 Rotation |==|  0.97864 0.58103 0.50198 0.61971
USER: genes 2 Torsion [C]-CA--N-[C] |==|  0.80538
USER: genes 3 Torsion [N]-C--CA-[N] |==|  0.01643
USER: genes 4 Torsion [C]-CA--N-[C] |==|  0.68555
USER: genes 5 Torsion [N]-C--CA-[N] |==|  0.82624
USER: genes 6 Torsion [C]-CA--CB-[CG] |==|  0.24812
USER: genes 7 Torsion [CA]-CB--CG-[ND2] |==|  0.81118
USER: genes 8 Torsion [C]-CA--CB-[CG] |==|  0.50660
USER: genes 9 Torsion [CA]-CB--CG-[CD] |==|  0.88771
USER: genes 10 Torsion [CB]-CG--CD-[OE1] |==|  0.84756
USER: genes 11 Torsion [N]-CA--CB-[CG] |==|  0.48881
USER: genes 12 Torsion [CA]-CB--CG-[CD1] |==|  0.06085
USER: genes 13 Torsion [CE2]-CZ--OH-[HH] |==|  0.23040
USER: genes 14 Torsion [N]-CA--C-[N] |==|  0.30586
USER: genes 15 Torsion [C]-N--CA-[C] |==|  0.56784
USER: genes 16 Torsion [N]-CA--CB-[CG] |==|  0.99035
USER: genes 17 Torsion [CA]-CB--CG-[CD] |==|  0.73234
USER: genes 18 Torsion [CB]-CG--CD-[CE] |==|  0.58699
USER: genes 19 Torsion [CG]-CD--CE-[NZ] |==|  0.90280
USER: genes 20 Torsion [CD]-CE--NZ-[HZ3] |==|  0.30441
USER: genes 21 Torsion [N]-CA--C-[N] |==|  0.31009
USER: genes 22 Torsion [C]-N--CA-[C] |==|  0.66061
USER: genes 23 Torsion [N]-CA--C-[O] |==|  0.45767
USER: genes 24 Torsion [N]-CA--CB-[CG2] |==|  0.16415
ROOT
ATOM      1  CA  TYR S   4       9.983 -17.263  42.342  1.00 28.42 LIG 0.18  C 
ENDROOT
BRANCH 1 2
ATOM      2  N   TYR S   4       9.511 -17.092  43.703  1.00 30.10 LIG-0.35  N 
ATOM      3 H    TYR S   4      10.057 -17.390  44.297  1.00 30.10 LIG 0.16  HD
ATOM      4  C   GLU S   3       8.350 -16.529  44.007  1.00 31.33 LIG 0.24  C 
ATOM      5 O    GLU S   3       7.530 -16.162  43.159  1.00 31.71 LIG-0.27  OA
BRANCH 4 6
ATOM      6  CA  GLU S   3       8.082 -16.349  45.489  1.00 32.63 LIG 0.18  C 
BRANCH 6 7
ATOM      7  N   GLU S   3       9.279 -16.732  46.256  1.00 32.63 LIG-0.35  N 
ATOM      8  C   ASN S   2       9.261 -17.790  47.042  1.00 33.77 LIG 0.26  C 
ATOM      9 O    ASN S   2       8.239 -18.416  47.281  1.00 34.52 LIG-0.27  OA
ATOM     10 H    GLU S   3       9.960 -16.219  46.145  1.00 32.63 LIG 0.16  HD
BRANCH 8 11
ATOM     11  CA  ASN S   2      10.605 -18.218  47.641  1.00 34.66 LIG 0.41  C 
ATOM     12  N   ASN S   2      11.582 -18.616  46.575  1.00 35.02 LIG 0.61  N 
BRANCH 11 13
ATOM     13  CB  ASN S   2      11.137 -17.056  48.501  1.00 35.18 LIG 0.15  C 
BRANCH 13 14
ATOM     14  CG  ASN S   2      10.661 -17.121  49.955  1.00 37.91 LIG 0.22  C 
ATOM     15 OD1  ASN S   2      11.460 -17.335  50.871  1.00 41.54 LIG-0.27  OA
ATOM     16  ND2 ASN S   2       9.356 -16.919  50.166  1.00 40.23 LIG-0.37  N 
ATOM     17 22HD ASN S   2       8.831 -16.773  49.502  1.00 40.23 LIG 0.16  HD
ATOM     18 21HD ASN S   2       9.043 -16.935  50.967  1.00 40.23 LIG 0.16  HD
ENDBRANCH 13 14
ENDBRANCH 11 13
ENDBRANCH 8 11
ENDBRANCH 6 7
BRANCH 6 19
ATOM     19  CB  GLU S   3       7.650 -14.922  45.811  1.00 32.72 LIG 0.04  C 
BRANCH 19 20
ATOM     20  CG  GLU S   3       7.405 -14.601  47.283  1.00 35.99 LIG 0.12  C 
BRANCH 20 21
ATOM     21  CD  GLU S   3       6.689 -15.722  48.035  1.00 39.18 LIG 0.17  C 
ATOM     22 OE1  GLU S   3       5.599 -16.123  47.568  1.00 41.46 LIG-0.65  OA
ATOM     23 OE2  GLU S   3       7.211 -16.211  49.082  1.00 41.34 LIG-0.65  OA
ENDBRANCH 20 21
ENDBRANCH 19 20
ENDBRANCH 6 19
ENDBRANCH 4 6
ENDBRANCH 1 2
BRANCH 1 24
ATOM     24  CB  TYR S   4      11.449 -17.651  42.377  1.00 28.42 LIG 0.07  C 
BRANCH 24 25
ATOM     25  CG  TYR S   4      12.009 -17.946  41.017  1.00 29.89 LIG-0.06  A 
ATOM     26  CD2 TYR S   4      13.166 -18.725  40.857  1.00 30.34 LIG 0.01  A 
ATOM     27  CE2 TYR S   4      13.681 -18.975  39.566  1.00 32.01 LIG 0.04  A 
ATOM     28  CZ  TYR S   4      13.025 -18.447  38.459  1.00 31.83 LIG 0.07  A 
ATOM     29  CE1 TYR S   4      11.902 -17.685  38.619  1.00 31.31 LIG 0.04  A 
ATOM     30  CD1 TYR S   4      11.399 -17.441  39.883  1.00 30.54 LIG 0.01  A 
BRANCH 28 31
ATOM     31 OH   TYR S   4      13.491 -18.620  37.169  1.00 36.86 LIG-0.36  OA
ATOM     32 HH   TYR S   4      13.239 -19.366  36.877  1.00 36.86 LIG 0.22  HD
ENDBRANCH 28 31
ENDBRANCH 24 25
ENDBRANCH 1 24
BRANCH 1 33
ATOM     33  C   TYR S   4       9.128 -18.321  41.661  1.00 27.93 LIG 0.24  C 
ATOM     34  N   LYS S   5       8.310 -17.888  40.712  1.00 28.19 LIG-0.35  N 
ATOM     35 H    LYS S   5       8.251 -17.060  40.487  1.00 28.19 LIG 0.16  HD
ATOM     36 O    TYR S   4       9.155 -19.490  42.042  1.00 25.57 LIG-0.27  OA
BRANCH 34 37
ATOM     37  CA  LYS S   5       7.424 -18.764  39.950  1.00 28.81 LIG 0.18  C 
BRANCH 37 38
ATOM     38  CB  LYS S   5       6.129 -19.042  40.730  1.00 29.54 LIG 0.04  C 
BRANCH 38 39
ATOM     39  CG  LYS S   5       6.062 -18.435  42.144  1.00 33.24 LIG 0.00  C 
BRANCH 39 40
ATOM     40  CD  LYS S   5       6.461 -19.430  43.221  1.00 37.34 LIG 0.03  C 
BRANCH 40 41
ATOM     41  CE  LYS S   5       5.698 -19.142  44.518  1.00 39.48 LIG 0.23  C 
BRANCH 41 42
ATOM     42  NZ  LYS S   5       5.485 -17.684  44.706  1.00 41.40 LIG-0.08  N 
ATOM     43 HZ2  LYS S   5       5.968 -17.234  44.110  1.00 41.40 LIG 0.27  HD
ATOM     44 HZ1  LYS S   5       5.736 -17.451  45.528  1.00 41.40 LIG 0.27  HD
ATOM     45 HZ3  LYS S   5       4.623 -17.492  44.593  1.00 41.40 LIG 0.27  HD
ENDBRANCH 41 42
ENDBRANCH 40 41
ENDBRANCH 39 40
ENDBRANCH 38 39
ENDBRANCH 37 38
BRANCH 37 46
ATOM     46  C   LYS S   5       7.135 -18.073  38.628  1.00 28.43 LIG 0.24  C 
ATOM     47  N   VAL S   6       7.645 -18.632  37.543  1.00 27.37 LIG-0.34  N 
ATOM     48 H    VAL S   6       8.036 -19.398  37.543  1.00 27.37 LIG 0.16  HD
ATOM     49 O    LYS S   5       6.472 -17.046  38.582  1.00 28.58 LIG-0.27  OA
BRANCH 47 50
ATOM     50  CA  VAL S   6       7.593 -18.001  36.246  1.00 26.91 LIG 0.19  C 
BRANCH 50 51
ATOM     51  C   VAL S   6       6.883 -18.868  35.195  1.00 27.47 LIG 0.20  C 
ATOM     52 O    VAL S   6       6.479 -18.434  34.100  1.00 25.37 LIG-0.65  OA
ATOM     53 OXT  VAL S   6       6.765 -20.055  35.496  1.00 29.74 LIG-0.65  OA
ENDBRANCH 50 51
BRANCH 50 54
ATOM     54  CB  VAL S   6       9.007 -17.610  35.752  1.00 26.80 LIG 0.01  C 
ATOM     55  CG2 VAL S   6       9.926 -18.841  35.653  1.00 26.48 LIG 0.01  C 
ATOM     56  CG1 VAL S   6       9.630 -16.565  36.668  1.00 26.60 LIG 0.01  C 
ENDBRANCH 50 54
ENDBRANCH 47 50
ENDBRANCH 37 46
ENDBRANCH 34 37
ENDBRANCH 1 33
TORSDOF 23
ENDMDL
MODEL 54
USER: ADFR SOLUTION from run 54
USER: SCORE 17.585366 LL:  -5.233 LR: -13.128 RR:   0.000 FEB:  -6.267
USER: RMSD 9.534450
USER: SEED 53
USER: STATUS no improvement in best in 5 clusters for 5 generations
USER: GENES 25
USER: genes 0 Translation |==|  0.50179 0.61353 0.61563
USER: genes 1 Rotation |==|  0.00360 0.48896 0.44999 0.53099
USER: genes 2 Torsion [C]-CA--N-[C] |==|  0.20500
USER: genes 3 Torsion [N]-C--CA-[N] |==|  0.90813
USER: genes 4 Torsion [C]-CA--N-[C] |==|  0.81807
USER: genes 5 Torsion [N]-C--CA-[N] |==|  0.44228
USER: genes 6 Torsion [C]-CA--CB-[CG] |==|  0.19396
USER: genes 7 Torsion [CA]-CB--CG-[ND2] |==|  0.61908
USER: genes 8 Torsion [C]-CA--CB-[CG] |==|  0.72728
USER: genes 9 Torsion [CA]-CB--CG-[CD] |==|  0.78263
USER: genes 10 Torsion [CB]-CG--CD-[OE1] |==|  0.73241
USER: genes 11 Torsion [N]-CA--CB-[CG] |==|  0.86528
USER: genes 12 Torsion [CA]-CB--CG-[CD1] |==|  0.86977
USER: genes 13 Torsion [CE2]-CZ--OH-[HH] |==|  0.27874
USER: genes 14 Torsion [N]-CA--C-[N] |==|  0.82788
USER: genes 15 Torsion [C]-N--CA-[C] |==|  0.60000
USER: genes 16 Torsion [N]-CA--CB-[CG] |==|  0.92743
USER: genes 17 Torsion [CA]-CB--CG-[CD] |==|  0.61888
USER: genes 18 Torsion [CB]-CG--CD-[CE] |==|  0.48026
USER: genes 19 Torsion [CG]-CD--CE-[NZ] |==|  0.61041
USER: genes 20 Torsion [CD]-CE--NZ-[HZ3] |==|  0.02286
USER: genes 21 Torsion [N]-CA--C-[N] |==|  0.43305
USER: genes 22 Torsion [C]-N--CA-[C] |==|  0.49593
USER: genes 23 Torsion [N]-CA--C-[O] |==|  0.44194
USER: genes 24 Torsion [N]-CA--CB-[CG2] |==|  0.65955
ROOT
ATOM      1  CA  TYR S   4       8.392 -16.936  43.979  1.00 28.42 LIG 0.18  C 
ENDROOT
BRANCH 1 2
ATOM      2  N   TYR S   4       7.672 -17.455  45.128  1.00 30.10 LIG-0.35  N 
ATOM      3 H    TYR S   4       7.350 -16.843  45.638  1.00 30.10 LIG 0.16  HD
ATOM      4  C   GLU S   3       7.525 -18.749  45.372  1.00 31.33 LIG 0.24  C 
ATOM      5 O    GLU S   3       8.046 -19.634  44.684  1.00 31.71 LIG-0.27  OA
BRANCH 4 6
ATOM      6  CA  GLU S   3       6.655 -19.092  46.565  1.00 32.63 LIG 0.18  C 
BRANCH 6 7
ATOM      7  N   GLU S   3       6.807 -18.056  47.600  1.00 32.63 LIG-0.35  N 
ATOM      8  C   ASN S   2       7.962 -17.885  48.212  1.00 33.77 LIG 0.26  C 
ATOM      9 O    ASN S   2       8.907 -18.645  48.062  1.00 34.52 LIG-0.27  OA
ATOM     10 H    GLU S   3       6.099 -17.594  47.757  1.00 32.63 LIG 0.16  HD
BRANCH 8 11
ATOM     11  CA  ASN S   2       8.075 -16.659  49.126  1.00 34.66 LIG 0.41  C 
ATOM     12  N   ASN S   2       9.181 -16.818  50.127  1.00 35.02 LIG 0.61  N 
BRANCH 11 13
ATOM     13  CB  ASN S   2       8.280 -15.418  48.237  1.00 35.18 LIG 0.15  C 
BRANCH 13 14
ATOM     14  CG  ASN S   2       7.033 -15.048  47.430  1.00 37.91 LIG 0.22  C 
ATOM     15 OD1  ASN S   2       5.917 -15.058  47.954  1.00 41.54 LIG-0.27  OA
ATOM     16  ND2 ASN S   2       7.229 -14.704  46.152  1.00 40.23 LIG-0.37  N 
ATOM     17 22HD ASN S   2       8.023 -14.710  45.823  1.00 40.23 LIG 0.16  HD
ATOM     18 21HD ASN S   2       6.561 -14.478  45.660  1.00 40.23 LIG 0.16  HD
ENDBRANCH 13 14
ENDBRANCH 11 13
ENDBRANCH 8 11
ENDBRANCH 6 7
BRANCH 6 19
ATOM     19  CB  GLU S   3       5.194 -19.263  46.163  1.00 32.72 LIG 0.04  C 
BRANCH 19 20
ATOM     20  CG  GLU S   3       4.280 -18.061  46.389  1.00 35.99 LIG 0.12  C 
BRANCH 20 21
ATOM     21  CD  GLU S   3       3.846 -17.898  47.844  1.00 39.18 LIG 0.17  C 
ATOM     22 OE1  GLU S   3       2.734 -18.373  48.170  1.00 41.46 LIG-0.65  OA
ATOM     23 OE2  GLU S   3       4.610 -17.309  48.668  1.00 41.34 LIG-0.65  OA
ENDBRANCH 20 21
ENDBRANCH 19 20
ENDBRANCH 6 19
ENDBRANCH 4 6
ENDBRANCH 1 2
BRANCH 1 24
ATOM     24  CB  TYR S   4       9.728 -17.647  43.876  1.00 28.42 LIG 0.07  C 
BRANCH 24 25
ATOM     25  CG  TYR S   4      10.470 -17.687  45.179  1.00 29.89 LIG-0.06  A 
ATOM     26  CD2 TYR S   4      11.043 -18.877  45.656  1.00 30.34 LIG 0.01  A 
ATOM     27  CE2 TYR S   4      11.724 -18.892  46.893  1.00 32.01 LIG 0.04  A 
ATOM     28  CZ  TYR S   4      11.825 -17.714  47.627  1.00 31.83 LIG 0.07  A 
ATOM     29  CE1 TYR S   4      11.261 -16.559  47.163  1.00 31.31 LIG 0.04  A 
ATOM     30  CD1 TYR S   4      10.595 -16.547  45.952  1.00 30.54 LIG 0.01  A 
BRANCH 28 31
ATOM     31 OH   TYR S   4      12.444 -17.660  48.861  1.00 36.86 LIG-0.36  OA
ATOM     32 HH   TYR S   4      13.221 -17.352  48.773  1.00 36.86 LIG 0.22  HD
ENDBRANCH 28 31
ENDBRANCH 24 25
ENDBRANCH 1 24
BRANCH 1 33
ATOM     33  C   TYR S   4       7.537 -17.143  42.738  1.00 27.93 LIG 0.24  C 
ATOM     34  N   LYS S   5       7.255 -18.401  42.428  1.00 28.19 LIG-0.35  N 
ATOM     35 H    LYS S   5       7.535 -19.071  42.889  1.00 28.19 LIG 0.16  HD
ATOM     36 O    TYR S   4       7.206 -16.189  42.036  1.00 25.57 LIG-0.27  OA
BRANCH 34 37
ATOM     37  CA  LYS S   5       6.441 -18.785  41.278  1.00 28.81 LIG 0.18  C 
BRANCH 37 38
ATOM     38  CB  LYS S   5       7.330 -19.097  40.063  1.00 29.54 LIG 0.04  C 
BRANCH 38 39
ATOM     39  CG  LYS S   5       8.698 -18.392  40.041  1.00 33.24 LIG 0.00  C 
BRANCH 39 40
ATOM     40  CD  LYS S   5       9.050 -17.851  38.665  1.00 37.34 LIG 0.03  C 
BRANCH 40 41
ATOM     41  CE  LYS S   5      10.329 -17.011  38.736  1.00 39.48 LIG 0.23  C 
BRANCH 41 42
ATOM     42  NZ  LYS S   5      10.229 -15.803  37.877  1.00 41.40 LIG-0.08  N 
ATOM     43 HZ2  LYS S   5      10.792 -15.877  37.192  1.00 41.40 LIG 0.27  HD
ATOM     44 HZ1  LYS S   5      10.438 -15.081  38.354  1.00 41.40 LIG 0.27  HD
ATOM     45 HZ3  LYS S   5       9.397 -15.725  37.569  1.00 41.40 LIG 0.27  HD
ENDBRANCH 41 42
ENDBRANCH 40 41
ENDBRANCH 39 40
ENDBRANCH 38 39
ENDBRANCH 37 38
BRANCH 37 46
ATOM     46  C   LYS S   5       5.621 -19.996  41.689  1.00 28.43 LIG 0.24  C 
ATOM     47  N   VAL S   6       4.500 -20.207  41.021  1.00 27.37 LIG-0.34  N 
ATOM     48 H    VAL S   6       4.273 -19.761  40.322  1.00 27.37 LIG 0.16  HD
ATOM     49 O    LYS S   5       5.985 -20.727  42.601  1.00 28.58 LIG-0.27  OA
BRANCH 47 50
ATOM     50  CA  VAL S   6       3.543 -21.217  41.408  1.00 26.91 LIG 0.19  C 
BRANCH 50 51
ATOM     51  C   VAL S   6       2.307 -21.242  40.496  1.00 27.47 LIG 0.20  C 
ATOM     52 O    VAL S   6       1.550 -22.223  40.386  1.00 25.37 LIG-0.65  OA
ATOM     53 OXT  VAL S   6       2.089 -20.192  39.891  1.00 29.74 LIG-0.65  OA
ENDBRANCH 50 51
BRANCH 50 54
ATOM     54  CB  VAL S   6       3.115 -21.049  42.887  1.00 26.80 LIG 0.01  C 
ATOM     55  CG2 VAL S   6       3.398 -22.325  43.700  1.00 26.48 LIG 0.01  C 
ATOM     56  CG1 VAL S   6       1.641 -20.683  42.984  1.00 26.60 LIG 0.01  C 
ENDBRANCH 50 54
ENDBRANCH 47 50
ENDBRANCH 37 46
ENDBRANCH 34 37
ENDBRANCH 1 33
TORSDOF 23
ENDMDL
MODEL 55
USER: ADFR SOLUTION from run 106
USER: SCORE 18.695910 LL:  -5.870 LR: -13.126 RR:   0.000 FEB:  -6.265
USER: RMSD 10.067112
USER: SEED 105
USER: STATUS no improvement in best in 10 clusters for 5 generations
USER: GENES 25
USER: genes 0 Translation |==|  0.46522 0.57940 0.57770
USER: genes 1 Rotation |==|  0.30895 0.08089 0.41109 0.67305
USER: genes 2 Torsion [C]-CA--N-[C] |==|  0.14466
USER: genes 3 Torsion [N]-C--CA-[N] |==|  0.86866
USER: genes 4 Torsion [C]-CA--N-[C] |==|  0.80843
USER: genes 5 Torsion [N]-C--CA-[N] |==|  0.15902
USER: genes 6 Torsion [C]-CA--CB-[CG] |==|  0.77054
USER: genes 7 Torsion [CA]-CB--CG-[ND2] |==|  0.20231
USER: genes 8 Torsion [C]-CA--CB-[CG] |==|  0.71101
USER: genes 9 Torsion [CA]-CB--CG-[CD] |==|  0.15914
USER: genes 10 Torsion [CB]-CG--CD-[OE1] |==|  0.21735
USER: genes 11 Torsion [N]-CA--CB-[CG] |==|  0.85482
USER: genes 12 Torsion [CA]-CB--CG-[CD1] |==|  0.42564
USER: genes 13 Torsion [CE2]-CZ--OH-[HH] |==|  0.36907
USER: genes 14 Torsion [N]-CA--C-[N] |==|  0.12149
USER: genes 15 Torsion [C]-N--CA-[C] |==|  0.75250
USER: genes 16 Torsion [N]-CA--CB-[CG] |==|  0.77720
USER: genes 17 Torsion [CA]-CB--CG-[CD] |==|  0.85131
USER: genes 18 Torsion [CB]-CG--CD-[CE] |==|  0.93372
USER: genes 19 Torsion [CG]-CD--CE-[NZ] |==|  0.34440
USER: genes 20 Torsion [CD]-CE--NZ-[HZ3] |==|  0.93962
USER: genes 21 Torsion [N]-CA--C-[N] |==|  0.46667
USER: genes 22 Torsion [C]-N--CA-[C] |==|  0.50221
USER: genes 23 Torsion [N]-CA--C-[O] |==|  0.49808
USER: genes 24 Torsion [N]-CA--CB-[CG2] |==|  0.53588
ROOT
ATOM      1  CA  TYR S   4       7.624 -17.499  43.069  1.00 28.42 LIG 0.18  C 
ENDROOT
BRANCH 1 2
ATOM      2  N   TYR S   4       8.699 -18.279  43.653  1.00 30.10 LIG-0.35  N 
ATOM      3 H    TYR S   4       8.427 -18.967  44.090  1.00 30.10 LIG 0.16  HD
ATOM      4  C   GLU S   3       9.980 -17.963  43.527  1.00 31.33 LIG 0.24  C 
ATOM      5 O    GLU S   3      10.375 -16.938  42.961  1.00 31.71 LIG-0.27  OA
BRANCH 4 6
ATOM      6  CA  GLU S   3      10.957 -18.958  44.123  1.00 32.63 LIG 0.18  C 
BRANCH 6 7
ATOM      7  N   GLU S   3      10.521 -19.325  45.479  1.00 32.63 LIG-0.35  N 
ATOM      8  C   ASN S   2      10.570 -18.446  46.461  1.00 33.77 LIG 0.26  C 
ATOM      9 O    ASN S   2      11.096 -17.350  46.337  1.00 34.52 LIG-0.27  OA
ATOM     10 H    GLU S   3      10.242 -20.135  45.564  1.00 32.63 LIG 0.16  HD
BRANCH 8 11
ATOM     11  CA  ASN S   2       9.913 -18.861  47.782  1.00 34.66 LIG 0.41  C 
ATOM     12  N   ASN S   2      10.501 -20.134  48.315  1.00 35.02 LIG 0.61  N 
BRANCH 11 13
ATOM     13  CB  ASN S   2      10.069 -17.696  48.779  1.00 35.18 LIG 0.15  C 
BRANCH 13 14
ATOM     14  CG  ASN S   2      11.432 -17.683  49.476  1.00 37.91 LIG 0.22  C 
ATOM     15 OD1  ASN S   2      11.539 -18.018  50.658  1.00 41.54 LIG-0.27  OA
ATOM     16  ND2 ASN S   2      12.479 -17.309  48.733  1.00 40.23 LIG-0.37  N 
ATOM     17 22HD ASN S   2      12.364 -17.082  47.912  1.00 40.23 LIG 0.16  HD
ATOM     18 21HD ASN S   2      13.267 -17.295  49.076  1.00 40.23 LIG 0.16  HD
ENDBRANCH 13 14
ENDBRANCH 11 13
ENDBRANCH 8 11
ENDBRANCH 6 7
BRANCH 6 19
ATOM     19  CB  GLU S   3      11.112 -20.190  43.237  1.00 32.72 LIG 0.04  C 
BRANCH 19 20
ATOM     20  CG  GLU S   3      10.402 -21.458  43.705  1.00 35.99 LIG 0.12  C 
BRANCH 20 21
ATOM     21  CD  GLU S   3       8.897 -21.274  43.891  1.00 39.18 LIG 0.17  C 
ATOM     22 OE1  GLU S   3       8.185 -21.279  42.862  1.00 41.46 LIG-0.65  OA
ATOM     23 OE2  GLU S   3       8.419 -21.135  45.058  1.00 41.34 LIG-0.65  OA
ENDBRANCH 20 21
ENDBRANCH 19 20
ENDBRANCH 6 19
ENDBRANCH 4 6
ENDBRANCH 1 2
BRANCH 1 24
ATOM     24  CB  TYR S   4       7.515 -16.181  43.812  1.00 28.42 LIG 0.07  C 
BRANCH 24 25
ATOM     25  CG  TYR S   4       7.407 -16.355  45.299  1.00 29.89 LIG-0.06  A 
ATOM     26  CD2 TYR S   4       6.854 -17.517  45.859  1.00 30.34 LIG 0.01  A 
ATOM     27  CE2 TYR S   4       6.750 -17.649  47.261  1.00 32.01 LIG 0.04  A 
ATOM     28  CZ  TYR S   4       7.208 -16.619  48.076  1.00 31.83 LIG 0.07  A 
ATOM     29  CE1 TYR S   4       7.740 -15.487  47.527  1.00 31.31 LIG 0.04  A 
ATOM     30  CD1 TYR S   4       7.842 -15.359  46.155  1.00 30.54 LIG 0.01  A 
BRANCH 28 31
ATOM     31 OH   TYR S   4       7.106 -16.663  49.454  1.00 36.86 LIG-0.36  OA
ATOM     32 HH   TYR S   4       7.841 -16.444  49.797  1.00 36.86 LIG 0.22  HD
ENDBRANCH 28 31
ENDBRANCH 24 25
ENDBRANCH 1 24
BRANCH 1 33
ATOM     33  C   TYR S   4       7.918 -17.298  41.590  1.00 27.93 LIG 0.24  C 
ATOM     34  N   LYS S   5       8.353 -18.363  40.932  1.00 28.19 LIG-0.35  N 
ATOM     35 H    LYS S   5       8.471 -19.129  41.306  1.00 28.19 LIG 0.16  HD
ATOM     36 O    TYR S   4       7.826 -16.184  41.077  1.00 25.57 LIG-0.27  OA
BRANCH 34 37
ATOM     37  CA  LYS S   5       8.676 -18.355  39.508  1.00 28.81 LIG 0.18  C 
BRANCH 37 38
ATOM     38  CB  LYS S   5       9.795 -19.363  39.198  1.00 29.54 LIG 0.04  C 
BRANCH 38 39
ATOM     39  CG  LYS S   5      11.225 -18.887  39.511  1.00 33.24 LIG 0.00  C 
BRANCH 39 40
ATOM     40  CD  LYS S   5      11.549 -17.556  38.851  1.00 37.34 LIG 0.03  C 
BRANCH 40 41
ATOM     41  CE  LYS S   5      10.654 -17.339  37.627  1.00 39.48 LIG 0.23  C 
BRANCH 41 42
ATOM     42  NZ  LYS S   5       9.902 -16.062  37.729  1.00 41.40 LIG-0.08  N 
ATOM     43 HZ2  LYS S   5       9.080 -16.174  37.408  1.00 41.40 LIG 0.27  HD
ATOM     44 HZ1  LYS S   5      10.320 -15.432  37.259  1.00 41.40 LIG 0.27  HD
ATOM     45 HZ3  LYS S   5       9.854 -15.812  38.582  1.00 41.40 LIG 0.27  HD
ENDBRANCH 41 42
ENDBRANCH 40 41
ENDBRANCH 39 40
ENDBRANCH 38 39
ENDBRANCH 37 38
BRANCH 37 46
ATOM     46  C   LYS S   5       7.401 -18.695  38.754  1.00 28.43 LIG 0.24  C 
ATOM     47  N   VAL S   6       7.417 -18.502  37.446  1.00 27.37 LIG-0.34  N 
ATOM     48 H    VAL S   6       8.126 -18.294  37.005  1.00 27.37 LIG 0.16  HD
ATOM     49 O    LYS S   5       6.412 -19.116  39.339  1.00 28.58 LIG-0.27  OA
BRANCH 47 50
ATOM     50  CA  VAL S   6       6.233 -18.623  36.628  1.00 26.91 LIG 0.19  C 
BRANCH 50 51
ATOM     51  C   VAL S   6       6.515 -18.370  35.139  1.00 27.47 LIG 0.20  C 
ATOM     52 O    VAL S   6       5.644 -18.434  34.251  1.00 25.37 LIG-0.65  OA
ATOM     53 OXT  VAL S   6       7.676 -18.059  34.877  1.00 29.74 LIG-0.65  OA
ENDBRANCH 50 51
BRANCH 50 54
ATOM     54  CB  VAL S   6       5.105 -17.688  37.128  1.00 26.80 LIG 0.01  C 
ATOM     55  CG2 VAL S   6       3.756 -18.038  36.474  1.00 26.48 LIG 0.01  C 
ATOM     56  CG1 VAL S   6       5.454 -16.230  36.860  1.00 26.60 LIG 0.01  C 
ENDBRANCH 50 54
ENDBRANCH 47 50
ENDBRANCH 37 46
ENDBRANCH 34 37
ENDBRANCH 1 33
TORSDOF 23
ENDMDL
MODEL 56
USER: ADFR SOLUTION from run 35
USER: SCORE 17.624513 LL:  -5.537 LR: -13.108 RR:   0.000 FEB:  -6.247
USER: RMSD 9.511708
USER: SEED 34
USER: STATUS searching
USER: GENES 25
USER: genes 0 Translation |==|  0.46646 0.57820 0.56041
USER: genes 1 Rotation |==|  0.22073 0.15898 0.33209 0.66589
USER: genes 2 Torsion [C]-CA--N-[C] |==|  0.15208
USER: genes 3 Torsion [N]-C--CA-[N] |==|  0.56143
USER: genes 4 Torsion [C]-CA--N-[C] |==|  0.16117
USER: genes 5 Torsion [N]-C--CA-[N] |==|  0.74319
USER: genes 6 Torsion [C]-CA--CB-[CG] |==|  0.28036
USER: genes 7 Torsion [CA]-CB--CG-[ND2] |==|  0.18811
USER: genes 8 Torsion [C]-CA--CB-[CG] |==|  0.50660
USER: genes 9 Torsion [CA]-CB--CG-[CD] |==|  0.19840
USER: genes 10 Torsion [CB]-CG--CD-[OE1] |==|  0.70439
USER: genes 11 Torsion [N]-CA--CB-[CG] |==|  0.78959
USER: genes 12 Torsion [CA]-CB--CG-[CD1] |==|  0.05217
USER: genes 13 Torsion [CE2]-CZ--OH-[HH] |==|  0.31216
USER: genes 14 Torsion [N]-CA--C-[N] |==|  0.14444
USER: genes 15 Torsion [C]-N--CA-[C] |==|  0.63297
USER: genes 16 Torsion [N]-CA--CB-[CG] |==|  0.84229
USER: genes 17 Torsion [CA]-CB--CG-[CD] |==|  0.75839
USER: genes 18 Torsion [CB]-CG--CD-[CE] |==|  0.00768
USER: genes 19 Torsion [CG]-CD--CE-[NZ] |==|  0.26153
USER: genes 20 Torsion [CD]-CE--NZ-[HZ3] |==|  0.95872
USER: genes 21 Torsion [N]-CA--C-[N] |==|  0.45374
USER: genes 22 Torsion [C]-N--CA-[C] |==|  0.57539
USER: genes 23 Torsion [N]-CA--C-[O] |==|  0.52142
USER: genes 24 Torsion [N]-CA--CB-[CG2] |==|  0.03461
ROOT
ATOM      1  CA  TYR S   4       7.650 -17.519  42.654  1.00 28.42 LIG 0.18  C 
ENDROOT
BRANCH 1 2
ATOM      2  N   TYR S   4       8.161 -18.829  43.013  1.00 30.10 LIG-0.35  N 
ATOM      3 H    TYR S   4       7.558 -19.364  43.309  1.00 30.10 LIG 0.16  HD
ATOM      4  C   GLU S   3       9.437 -19.170  42.895  1.00 31.33 LIG 0.24  C 
ATOM      5 O    GLU S   3      10.320 -18.385  42.537  1.00 31.71 LIG-0.27  OA
BRANCH 4 6
ATOM      6  CA  GLU S   3       9.756 -20.615  43.225  1.00 32.63 LIG 0.18  C 
BRANCH 6 7
ATOM      7  N   GLU S   3      11.181 -20.738  43.573  1.00 32.63 LIG-0.35  N 
ATOM      8  C   ASN S   2      11.691 -20.040  44.567  1.00 33.77 LIG 0.26  C 
ATOM      9 O    ASN S   2      11.062 -19.171  45.153  1.00 34.52 LIG-0.27  OA
ATOM     10 H    GLU S   3      11.627 -21.287  43.083  1.00 32.63 LIG 0.16  HD
BRANCH 8 11
ATOM     11  CA  ASN S   2      13.129 -20.383  44.975  1.00 34.66 LIG 0.41  C 
ATOM     12  N   ASN S   2      13.161 -21.405  46.073  1.00 35.02 LIG 0.61  N 
BRANCH 11 13
ATOM     13  CB  ASN S   2      13.879 -20.866  43.719  1.00 35.18 LIG 0.15  C 
BRANCH 13 14
ATOM     14  CG  ASN S   2      14.779 -19.788  43.108  1.00 37.91 LIG 0.22  C 
ATOM     15 OD1  ASN S   2      14.509 -19.288  42.014  1.00 41.54 LIG-0.27  OA
ATOM     16  ND2 ASN S   2      15.843 -19.420  43.829  1.00 40.23 LIG-0.37  N 
ATOM     17 22HD ASN S   2      15.998 -19.793  44.588  1.00 40.23 LIG 0.16  HD
ATOM     18 21HD ASN S   2      16.373 -18.811  43.533  1.00 40.23 LIG 0.16  HD
ENDBRANCH 13 14
ENDBRANCH 11 13
ENDBRANCH 8 11
ENDBRANCH 6 7
BRANCH 6 19
ATOM     19  CB  GLU S   3       8.865 -21.145  44.344  1.00 32.72 LIG 0.04  C 
BRANCH 19 20
ATOM     20  CG  GLU S   3       9.129 -22.576  44.805  1.00 35.99 LIG 0.12  C 
BRANCH 20 21
ATOM     21  CD  GLU S   3      10.430 -22.726  45.592  1.00 39.18 LIG 0.17  C 
ATOM     22 OE1  GLU S   3      11.390 -23.285  45.016  1.00 41.46 LIG-0.65  OA
ATOM     23 OE2  GLU S   3      10.503 -22.282  46.778  1.00 41.34 LIG-0.65  OA
ENDBRANCH 20 21
ENDBRANCH 19 20
ENDBRANCH 6 19
ENDBRANCH 4 6
ENDBRANCH 1 2
BRANCH 1 24
ATOM     24  CB  TYR S   4       8.211 -16.493  43.620  1.00 28.42 LIG 0.07  C 
BRANCH 24 25
ATOM     25  CG  TYR S   4       7.548 -16.531  44.965  1.00 29.89 LIG-0.06  A 
ATOM     26  CD2 TYR S   4       7.645 -15.453  45.858  1.00 30.34 LIG 0.01  A 
ATOM     27  CE2 TYR S   4       7.024 -15.521  47.124  1.00 32.01 LIG 0.04  A 
ATOM     28  CZ  TYR S   4       6.311 -16.664  47.470  1.00 31.83 LIG 0.07  A 
ATOM     29  CE1 TYR S   4       6.224 -17.715  46.601  1.00 31.31 LIG 0.04  A 
ATOM     30  CD1 TYR S   4       6.832 -17.646  45.362  1.00 30.54 LIG 0.01  A 
BRANCH 28 31
ATOM     31 OH   TYR S   4       5.708 -16.816  48.705  1.00 36.86 LIG-0.36  OA
ATOM     32 HH   TYR S   4       4.873 -16.817  48.612  1.00 36.86 LIG 0.22  HD
ENDBRANCH 28 31
ENDBRANCH 24 25
ENDBRANCH 1 24
BRANCH 1 33
ATOM     33  C   TYR S   4       8.042 -17.222  41.214  1.00 27.93 LIG 0.24  C 
ATOM     34  N   LYS S   5       7.731 -18.152  40.322  1.00 28.19 LIG-0.35  N 
ATOM     35 H    LYS S   5       7.335 -18.887  40.530  1.00 28.19 LIG 0.16  HD
ATOM     36 O    TYR S   4       8.679 -16.209  40.933  1.00 25.57 LIG-0.27  OA
BRANCH 34 37
ATOM     37  CA  LYS S   5       8.024 -18.032  38.896  1.00 28.81 LIG 0.18  C 
BRANCH 37 38
ATOM     38  CB  LYS S   5       9.192 -18.949  38.501  1.00 29.54 LIG 0.04  C 
BRANCH 38 39
ATOM     39  CG  LYS S   5      10.503 -18.727  39.277  1.00 33.24 LIG 0.00  C 
BRANCH 39 40
ATOM     40  CD  LYS S   5      11.375 -17.653  38.647  1.00 37.34 LIG 0.03  C 
BRANCH 40 41
ATOM     41  CE  LYS S   5      10.665 -17.036  37.438  1.00 39.48 LIG 0.23  C 
BRANCH 41 42
ATOM     42  NZ  LYS S   5       9.919 -15.809  37.819  1.00 41.40 LIG-0.08  N 
ATOM     43 HZ2  LYS S   5       9.109 -15.827  37.451  1.00 41.40 LIG 0.27  HD
ATOM     44 HZ1  LYS S   5      10.360 -15.091  37.531  1.00 41.40 LIG 0.27  HD
ATOM     45 HZ3  LYS S   5       9.840 -15.772  38.705  1.00 41.40 LIG 0.27  HD
ENDBRANCH 41 42
ENDBRANCH 40 41
ENDBRANCH 39 40
ENDBRANCH 38 39
ENDBRANCH 37 38
BRANCH 37 46
ATOM     46  C   LYS S   5       6.755 -18.396  38.143  1.00 28.43 LIG 0.24  C 
ATOM     47  N   VAL S   6       6.695 -18.032  36.873  1.00 27.37 LIG-0.34  N 
ATOM     48 H    VAL S   6       7.360 -17.698  36.444  1.00 27.37 LIG 0.16  HD
ATOM     49 O    LYS S   5       5.838 -18.988  38.697  1.00 28.58 LIG-0.27  OA
BRANCH 47 50
ATOM     50  CA  VAL S   6       5.493 -18.164  36.084  1.00 26.91 LIG 0.19  C 
BRANCH 50 51
ATOM     51  C   VAL S   6       5.786 -18.326  34.584  1.00 27.47 LIG 0.20  C 
ATOM     52 O    VAL S   6       4.906 -18.318  33.704  1.00 25.37 LIG-0.65  OA
ATOM     53 OXT  VAL S   6       6.978 -18.434  34.298  1.00 29.74 LIG-0.65  OA
ENDBRANCH 50 51
BRANCH 50 54
ATOM     54  CB  VAL S   6       4.532 -16.973  36.317  1.00 26.80 LIG 0.01  C 
ATOM     55  CG2 VAL S   6       5.231 -15.829  37.075  1.00 26.48 LIG 0.01  C 
ATOM     56  CG1 VAL S   6       3.291 -17.420  37.076  1.00 26.60 LIG 0.01  C 
ENDBRANCH 50 54
ENDBRANCH 47 50
ENDBRANCH 37 46
ENDBRANCH 34 37
ENDBRANCH 1 33
TORSDOF 23
ENDMDL
