MODEL 1
USER: ADFR SOLUTION from run 17
USER: SCORE 17.687047 LL:  -3.624 LR: -15.796 RR:   0.000 FEB:  -9.531
USER: RMSD 9.678050
USER: SEED 16
USER: STATUS searching
USER: GENES 23
USER: genes 0 Translation |==|  0.29528 0.50760 0.61995
USER: genes 1 Rotation |==|  0.55947 0.21695 0.09219 0.50623
USER: genes 2 Torsion [C]-CA--N-[C] |==|  0.69400
USER: genes 3 Torsion [N]-C--CA-[CB] |==|  0.61973
USER: genes 4 Torsion [N]-C--CA-[N] |==|  0.49391
USER: genes 5 Torsion [C]-CA--N-[C] |==|  0.53347
USER: genes 6 Torsion [N]-C--CA-[N] |==|  0.86647
USER: genes 7 Torsion [C]-CA--CB-[OG] |==|  0.32935
USER: genes 8 Torsion [CA]-CB--OG-[HG] |==|  0.80894
USER: genes 9 Torsion [C]-CA--CB-[CG] |==|  0.81811
USER: genes 10 Torsion [CA]-CB--CG-[CD2] |==|  0.21214
USER: genes 11 Torsion [N]-CA--CB-[CG] |==|  0.87551
USER: genes 12 Torsion [CA]-CB--CG-[CD] |==|  0.61316
USER: genes 13 Torsion [CB]-CG--CD-[NE2] |==|  0.02629
USER: genes 14 Torsion [N]-CA--C-[N] |==|  0.87866
USER: genes 15 Torsion [C]-N--CA-[CB] |==|  0.26546
USER: genes 16 Torsion [N]-CA--C-[N] |==|  0.40658
USER: genes 17 Torsion [C]-N--CA-[C] |==|  0.79952
USER: genes 18 Torsion [N]-CA--C-[O] |==|  0.28898
USER: genes 19 Torsion [N]-CA--CB-[CG2] |==|  0.51010
USER: genes 20 Torsion [CA]-CB--OG1-[HG1] |==|  0.56208
USER: genes 21 Torsion [N]-CA--CB-[CG] |==|  0.60580
USER: genes 22 Torsion [CA]-CB--CG-[OD1] |==|  0.65350
ROOT
ATOM      1  CA  GLN M   5      31.217  13.968  -7.978  1.00 40.28 LIG 0.18  C 
ENDROOT
BRANCH 1 2
ATOM      2  N   GLN M   5      31.886  12.725  -7.680  1.00 45.46 LIG-0.35  N 
ATOM      3 H    GLN M   5      32.184  12.289  -8.359  1.00 45.46 LIG 0.16  HD
ATOM      4  C   PRO M   4      31.995  12.339  -6.401  1.00 50.59 LIG 0.24  C 
ATOM      5 O    PRO M   4      31.599  13.083  -5.489  1.00 50.33 LIG-0.27  OA
BRANCH 4 6
ATOM      6  CA  PRO M   4      32.637  10.995  -6.066  1.00 53.72 LIG 0.18  C 
ATOM      7  N   PRO M   4      34.016  11.014  -5.570  1.00 55.45 LIG-0.34  N 
ATOM      8  CD  PRO M   4      34.087  10.292  -4.294  1.00 56.03 LIG 0.13  C 
ATOM      9  C   HIS M   3      35.078  11.438  -6.291  1.00 54.96 LIG 0.24  C 
ATOM     10  CG  PRO M   4      32.694  10.462  -3.743  1.00 55.72 LIG 0.02  C 
ATOM     11  CB  PRO M   4      31.878  10.222  -4.991  1.00 52.77 LIG 0.04  C 
ATOM     12 O    HIS M   3      34.968  11.778  -7.478  1.00 54.31 LIG-0.27  OA
BRANCH 9 13
ATOM     13  CA  HIS M   3      36.464  11.514  -5.643  1.00 53.95 LIG 0.18  C 
BRANCH 13 14
ATOM     14  N   HIS M   3      37.398  11.947  -6.665  1.00 55.94 LIG-0.34  N 
ATOM     15  C   SER M   2      38.709  11.877  -6.464  0.19 53.43 LIG 0.26  C 
ATOM     16 O    SER M   2      39.197  11.587  -5.363  0.19 53.78 LIG-0.27  OA
ATOM     17 H    HIS M   3      37.033  12.241  -7.386  1.00 55.94 LIG 0.16  HD
BRANCH 15 18
ATOM     18  CA  SER M   2      39.665  12.226  -7.594  0.19 52.30 LIG 0.42  C 
ATOM     19  N   SER M   2      39.133  11.483  -8.712  0.19 52.36 LIG 0.62  N 
BRANCH 18 20
ATOM     20  CB  SER M   2      39.603  13.704  -7.962  0.19 51.64 LIG 0.21  C 
BRANCH 20 21
ATOM     21 OG   SER M   2      40.895  14.270  -7.729  0.19 50.47 LIG-0.40  OA
ATOM     22 HG   SER M   2      41.048  14.289  -6.903  0.19 50.47 LIG 0.21  HD
ENDBRANCH 20 21
ENDBRANCH 18 20
ENDBRANCH 15 18
ENDBRANCH 13 14
BRANCH 13 23
ATOM     23  CB  HIS M   3      36.429  12.503  -4.484  1.00 50.96 LIG 0.10  C 
BRANCH 23 24
ATOM     24  CG  HIS M   3      36.169  13.905  -5.012  1.00 47.24 LIG 0.06  A 
ATOM     25  CD2 HIS M   3      34.962  14.387  -5.430  1.00 45.19 LIG 0.14  A 
ATOM     26 NE2  HIS M   3      35.295  15.564  -5.873  1.00 45.41 LIG-0.25  NA
ATOM     27  CE1 HIS M   3      36.590  15.772  -5.731  1.00 46.27 LIG 0.23  A 
ATOM     28 ND1  HIS M   3      37.175  14.733  -5.186  1.00 45.18 LIG-0.24  NA
ENDBRANCH 23 24
ENDBRANCH 13 23
ENDBRANCH 9 13
ENDBRANCH 4 6
ENDBRANCH 1 2
BRANCH 1 29
ATOM     29  CB  GLN M   5      32.025  14.830  -8.907  1.00 37.25 LIG 0.04  C 
BRANCH 29 30
ATOM     30  CG  GLN M   5      33.495  14.869  -8.481  1.00 28.05 LIG 0.10  C 
BRANCH 30 31
ATOM     31  CD  GLN M   5      34.077  16.255  -8.618  1.00 28.89 LIG 0.21  C 
ATOM     32  NE2 GLN M   5      33.226  17.246  -8.881  1.00 21.10 LIG-0.37  N 
ATOM     33 22HE GLN M   5      33.514  18.054  -8.946  1.00 21.10 LIG 0.16  HD
ATOM     34 21HE GLN M   5      32.389  17.078  -8.986  1.00 21.10 LIG 0.16  HD
ATOM     35 OE1  GLN M   5      35.289  16.444  -8.458  1.00 23.17 LIG-0.27  OA
ENDBRANCH 30 31
ENDBRANCH 29 30
ENDBRANCH 1 29
BRANCH 1 36
ATOM     36  C   GLN M   5      29.907  13.651  -8.654  1.00 41.58 LIG 0.24  C 
ATOM     37  N   ASN M   6      29.889  12.713  -9.602  1.00 44.37 LIG-0.35  N 
ATOM     38 H    ASN M   6      30.568  12.233  -9.823  1.00 44.37 LIG 0.16  HD
ATOM     39 O    GLN M   5      28.898  14.265  -8.320  1.00 41.62 LIG-0.27  OA
BRANCH 37 40
ATOM     40  CA  ASN M   6      28.672  12.432 -10.352  1.00 43.99 LIG 0.18  C 
BRANCH 40 41
ATOM     41  C   ASN M   6      28.584  10.947 -10.622  1.00 43.58 LIG 0.24  C 
ATOM     42  N   THR M   7      27.350  10.463 -10.632  0.00 42.61 LIG-0.34  N 
ATOM     43 H    THR M   7      26.657  10.955 -10.500  0.00 42.61 LIG 0.16  HD
ATOM     44 O    ASN M   6      29.614  10.289 -10.788  1.00 43.76 LIG-0.27  OA
BRANCH 42 45
ATOM     45  CA  THR M   7      27.030   9.080 -10.863  0.00 41.90 LIG 0.21  C 
BRANCH 45 46
ATOM     46  C   THR M   7      27.274   8.780 -12.349  0.00 41.61 LIG 0.20  C 
ATOM     47 O    THR M   7      28.277   8.151 -12.701  0.00 41.59 LIG-0.65  OA
ATOM     48 OXT  THR M   7      26.452   9.179 -13.166  0.00 41.57 LIG-0.65  OA
ENDBRANCH 45 46
BRANCH 45 49
ATOM     49  CB  THR M   7      25.546   8.880 -10.431  0.00 41.89 LIG 0.15  C 
ATOM     50  CG2 THR M   7      25.056   7.433 -10.527  0.00 41.51 LIG 0.04  C 
BRANCH 49 51
ATOM     51 OG1  THR M   7      25.459   9.337  -9.087  0.00 41.42 LIG-0.39  OA
ATOM     52 HG1  THR M   7      24.795   8.984  -8.713  0.00 41.42 LIG 0.21  HD
ENDBRANCH 49 51
ENDBRANCH 45 49
ENDBRANCH 42 45
ENDBRANCH 40 41
BRANCH 40 53
ATOM     53  CB  ASN M   6      28.668  13.210 -11.678  1.00 43.29 LIG 0.14  C 
BRANCH 53 54
ATOM     54  CG  ASN M   6      27.319  13.787 -12.144  1.00 43.53 LIG 0.22  C 
ATOM     55 OD1  ASN M   6      26.811  13.555 -13.242  1.00 39.33 LIG-0.27  OA
ATOM     56  ND2 ASN M   6      26.647  14.621 -11.364  1.00 45.48 LIG-0.37  N 
ATOM     57 22HD ASN M   6      26.952  14.821 -10.585  1.00 45.48 LIG 0.16  HD
ATOM     58 21HD ASN M   6      25.906  14.962 -11.636  1.00 45.48 LIG 0.16  HD
ENDBRANCH 53 54
ENDBRANCH 40 53
ENDBRANCH 37 40
ENDBRANCH 1 36
TORSDOF 21
ENDMDL
MODEL 2
USER: ADFR SOLUTION from run 162
USER: SCORE 17.105525 LL:  -3.529 LR: -15.295 RR:   0.000 FEB:  -9.031
USER: RMSD 8.316028
USER: SEED 161
USER: STATUS no improvement in best in 3 clusters for 5 generations
USER: GENES 23
USER: genes 0 Translation |==|  0.40284 0.56405 0.64559
USER: genes 1 Rotation |==|  0.36951 0.68765 0.93668 0.58411
USER: genes 2 Torsion [C]-CA--N-[C] |==|  0.62261
USER: genes 3 Torsion [N]-C--CA-[CB] |==|  0.51683
USER: genes 4 Torsion [N]-C--CA-[N] |==|  0.49408
USER: genes 5 Torsion [C]-CA--N-[C] |==|  0.64576
USER: genes 6 Torsion [N]-C--CA-[N] |==|  0.24501
USER: genes 7 Torsion [C]-CA--CB-[OG] |==|  0.27952
USER: genes 8 Torsion [CA]-CB--OG-[HG] |==|  0.60418
USER: genes 9 Torsion [C]-CA--CB-[CG] |==|  0.67647
USER: genes 10 Torsion [CA]-CB--CG-[CD2] |==|  0.66758
USER: genes 11 Torsion [N]-CA--CB-[CG] |==|  0.95762
USER: genes 12 Torsion [CA]-CB--CG-[CD] |==|  0.69657
USER: genes 13 Torsion [CB]-CG--CD-[NE2] |==|  0.44733
USER: genes 14 Torsion [N]-CA--C-[N] |==|  0.50487
USER: genes 15 Torsion [C]-N--CA-[CB] |==|  0.22289
USER: genes 16 Torsion [N]-CA--C-[N] |==|  0.26056
USER: genes 17 Torsion [C]-N--CA-[C] |==|  0.69907
USER: genes 18 Torsion [N]-CA--C-[O] |==|  0.32927
USER: genes 19 Torsion [N]-CA--CB-[CG2] |==|  0.46714
USER: genes 20 Torsion [CA]-CB--OG1-[HG1] |==|  0.87674
USER: genes 21 Torsion [N]-CA--CB-[CG] |==|  0.78842
USER: genes 22 Torsion [CA]-CB--CG-[OD1] |==|  0.37945
ROOT
ATOM      1  CA  GLN M   5      33.557  14.942  -7.420  1.00 40.28 LIG 0.18  C 
ENDROOT
BRANCH 1 2
ATOM      2  N   GLN M   5      34.043  13.584  -7.447  1.00 45.46 LIG-0.35  N 
ATOM      3 H    GLN M   5      34.300  13.294  -8.214  1.00 45.46 LIG 0.16  HD
ATOM      4  C   PRO M   4      34.060  12.880  -6.306  1.00 50.59 LIG 0.24  C 
ATOM      5 O    PRO M   4      33.740  13.421  -5.235  1.00 50.33 LIG-0.27  OA
BRANCH 4 6
ATOM      6  CA  PRO M   4      34.506  11.420  -6.321  1.00 53.72 LIG 0.18  C 
ATOM      7  N   PRO M   4      35.903  11.147  -6.668  1.00 55.45 LIG-0.34  N 
ATOM      8  CD  PRO M   4      36.520  10.336  -5.612  1.00 56.03 LIG 0.13  C 
ATOM      9  C   HIS M   3      36.455  11.416  -7.873  1.00 54.96 LIG 0.24  C 
ATOM     10  CG  PRO M   4      35.721  10.722  -4.393  1.00 55.72 LIG 0.02  C 
ATOM     11  CB  PRO M   4      34.328  10.728  -4.973  1.00 52.77 LIG 0.04  C 
ATOM     12 O    HIS M   3      35.780  11.854  -8.817  1.00 54.31 LIG-0.27  OA
BRANCH 9 13
ATOM     13  CA  HIS M   3      37.952  11.187  -8.100  1.00 53.95 LIG 0.18  C 
BRANCH 13 14
ATOM     14  N   HIS M   3      38.236  11.511  -9.485  1.00 55.94 LIG-0.34  N 
ATOM     15  C   SER M   2      38.872  10.650 -10.270  0.19 53.43 LIG 0.26  C 
ATOM     16 O    SER M   2      39.380   9.607  -9.836  0.19 53.78 LIG-0.27  OA
ATOM     17 H    HIS M   3      37.963  12.287  -9.737  1.00 55.94 LIG 0.16  HD
BRANCH 15 18
ATOM     18  CA  SER M   2      39.052  10.967 -11.747  0.19 52.30 LIG 0.42  C 
ATOM     19  N   SER M   2      40.289  11.712 -11.772  0.19 52.36 LIG 0.62  N 
BRANCH 18 20
ATOM     20  CB  SER M   2      39.263   9.710 -12.583  0.19 51.64 LIG 0.21  C 
BRANCH 20 21
ATOM     21 OG   SER M   2      38.021   9.389 -13.214  0.19 50.47 LIG-0.40  OA
ATOM     22 HG   SER M   2      37.923   8.555 -13.231  0.19 50.47 LIG 0.21  HD
ENDBRANCH 20 21
ENDBRANCH 18 20
ENDBRANCH 15 18
ENDBRANCH 13 14
BRANCH 13 23
ATOM     23  CB  HIS M   3      38.751  12.079  -7.157  1.00 50.96 LIG 0.10  C 
BRANCH 23 24
ATOM     24  CG  HIS M   3      39.571  13.074  -7.963  1.00 47.24 LIG 0.06  A 
ATOM     25  CD2 HIS M   3      40.932  13.181  -7.949  1.00 45.19 LIG 0.14  A 
ATOM     26 NE2  HIS M   3      41.115  14.224  -8.705  1.00 45.41 LIG-0.25  NA
ATOM     27  CE1 HIS M   3      39.964  14.700  -9.139  1.00 46.27 LIG 0.23  A 
ATOM     28 ND1  HIS M   3      38.961  13.989  -8.684  1.00 45.18 LIG-0.24  NA
ENDBRANCH 23 24
ENDBRANCH 13 23
ENDBRANCH 9 13
ENDBRANCH 4 6
ENDBRANCH 1 2
BRANCH 1 29
ATOM     29  CB  GLN M   5      34.676  15.940  -7.515  1.00 37.25 LIG 0.04  C 
BRANCH 29 30
ATOM     30  CG  GLN M   5      36.028  15.277  -7.236  1.00 28.05 LIG 0.10  C 
BRANCH 30 31
ATOM     31  CD  GLN M   5      36.598  15.714  -5.908  1.00 28.89 LIG 0.21  C 
ATOM     32  NE2 GLN M   5      37.545  14.944  -5.372  1.00 21.10 LIG-0.37  N 
ATOM     33 22HE GLN M   5      37.910  15.169  -4.627  1.00 21.10 LIG 0.16  HD
ATOM     34 21HE GLN M   5      37.791  14.224  -5.772  1.00 21.10 LIG 0.16  HD
ATOM     35 OE1  GLN M   5      36.209  16.760  -5.373  1.00 23.17 LIG-0.27  OA
ENDBRANCH 30 31
ENDBRANCH 29 30
ENDBRANCH 1 29
BRANCH 1 36
ATOM     36  C   GLN M   5      32.649  15.143  -8.608  1.00 41.58 LIG 0.24  C 
ATOM     37  N   ASN M   6      32.111  16.347  -8.804  1.00 44.37 LIG-0.35  N 
ATOM     38 H    ASN M   6      32.286  17.040  -8.325  1.00 44.37 LIG 0.16  HD
ATOM     39 O    GLN M   5      32.427  14.196  -9.357  1.00 41.62 LIG-0.27  OA
BRANCH 37 40
ATOM     40  CA  ASN M   6      31.155  16.573  -9.879  1.00 43.99 LIG 0.18  C 
BRANCH 40 41
ATOM     41  C   ASN M   6      31.116  18.048 -10.210  1.00 43.58 LIG 0.24  C 
ATOM     42  N   THR M   7      31.922  18.411 -11.198  0.00 42.61 LIG-0.34  N 
ATOM     43 H    THR M   7      32.424  17.852 -11.618  0.00 42.61 LIG 0.16  HD
ATOM     44 O    ASN M   6      30.389  18.805  -9.563  1.00 43.76 LIG-0.27  OA
BRANCH 42 45
ATOM     45  CA  THR M   7      32.051  19.761 -11.677  0.00 41.90 LIG 0.21  C 
BRANCH 45 46
ATOM     46  C   THR M   7      31.386  19.838 -13.058  0.00 41.61 LIG 0.20  C 
ATOM     47 O    THR M   7      30.420  20.585 -13.243  0.00 41.59 LIG-0.65  OA
ATOM     48 OXT  THR M   7      31.836  19.143 -13.961  0.00 41.57 LIG-0.65  OA
ENDBRANCH 45 46
BRANCH 45 49
ATOM     49  CB  THR M   7      33.575  20.087 -11.709  0.00 41.89 LIG 0.15  C 
ATOM     50  CG2 THR M   7      33.923  21.376 -12.458  0.00 41.51 LIG 0.04  C 
BRANCH 49 51
ATOM     51 OG1  THR M   7      33.988  20.184 -10.352  0.00 41.42 LIG-0.39  OA
ATOM     52 HG1  THR M   7      33.425  20.632  -9.919  0.00 41.42 LIG 0.21  HD
ENDBRANCH 49 51
ENDBRANCH 45 49
ENDBRANCH 42 45
ENDBRANCH 40 41
BRANCH 40 53
ATOM     53  CB  ASN M   6      29.757  16.088  -9.465  1.00 43.29 LIG 0.14  C 
BRANCH 53 54
ATOM     54  CG  ASN M   6      29.513  14.568  -9.480  1.00 43.53 LIG 0.22  C 
ATOM     55 OD1  ASN M   6      28.918  13.954  -8.593  1.00 39.33 LIG-0.27  OA
ATOM     56  ND2 ASN M   6      29.989  13.829 -10.471  1.00 45.48 LIG-0.37  N 
ATOM     57 22HD ASN M   6      30.414  14.201 -11.120  1.00 45.48 LIG 0.16  HD
ATOM     58 21HD ASN M   6      29.874  12.976 -10.465  1.00 45.48 LIG 0.16  HD
ENDBRANCH 53 54
ENDBRANCH 40 53
ENDBRANCH 37 40
ENDBRANCH 1 36
TORSDOF 21
ENDMDL
MODEL 3
USER: ADFR SOLUTION from run 121
USER: SCORE 16.941701 LL:  -3.626 LR: -15.089 RR:   0.000 FEB:  -8.824
USER: RMSD 9.075081
USER: SEED 120
USER: STATUS no improvement in best in 12 clusters for 5 generations
USER: GENES 23
USER: genes 0 Translation |==|  0.38916 0.64040 0.58742
USER: genes 1 Rotation |==|  0.31478 0.75556 0.87408 0.60222
USER: genes 2 Torsion [C]-CA--N-[C] |==|  0.78818
USER: genes 3 Torsion [N]-C--CA-[CB] |==|  0.38429
USER: genes 4 Torsion [N]-C--CA-[N] |==|  0.15664
USER: genes 5 Torsion [C]-CA--N-[C] |==|  0.62054
USER: genes 6 Torsion [N]-C--CA-[N] |==|  0.77057
USER: genes 7 Torsion [C]-CA--CB-[OG] |==|  0.38231
USER: genes 8 Torsion [CA]-CB--OG-[HG] |==|  0.08620
USER: genes 9 Torsion [C]-CA--CB-[CG] |==|  0.37376
USER: genes 10 Torsion [CA]-CB--CG-[CD2] |==|  0.80936
USER: genes 11 Torsion [N]-CA--CB-[CG] |==|  0.57440
USER: genes 12 Torsion [CA]-CB--CG-[CD] |==|  0.61048
USER: genes 13 Torsion [CB]-CG--CD-[NE2] |==|  0.45313
USER: genes 14 Torsion [N]-CA--C-[N] |==|  0.72932
USER: genes 15 Torsion [C]-N--CA-[CB] |==|  0.77778
USER: genes 16 Torsion [N]-CA--C-[N] |==|  0.19616
USER: genes 17 Torsion [C]-N--CA-[C] |==|  0.70990
USER: genes 18 Torsion [N]-CA--C-[O] |==|  0.06011
USER: genes 19 Torsion [N]-CA--CB-[CG2] |==|  0.72388
USER: genes 20 Torsion [CA]-CB--OG1-[HG1] |==|  0.37229
USER: genes 21 Torsion [N]-CA--CB-[CG] |==|  0.93074
USER: genes 22 Torsion [CA]-CB--CG-[OD1] |==|  0.70440
ROOT
ATOM      1  CA  GLN M   5      33.259  16.259  -8.686  1.00 40.28 LIG 0.18  C 
ENDROOT
BRANCH 1 2
ATOM      2  N   GLN M   5      33.554  14.956  -8.141  1.00 45.46 LIG-0.35  N 
ATOM      3 H    GLN M   5      34.382  14.727  -8.148  1.00 45.46 LIG 0.16  HD
ATOM      4  C   PRO M   4      32.546  14.207  -7.672  1.00 50.59 LIG 0.24  C 
ATOM      5 O    PRO M   4      31.393  14.667  -7.634  1.00 50.33 LIG-0.27  OA
BRANCH 4 6
ATOM      6  CA  PRO M   4      32.824  12.799  -7.153  1.00 53.72 LIG 0.18  C 
ATOM      7  N   PRO M   4      34.211  12.467  -6.818  1.00 55.45 LIG-0.34  N 
ATOM      8  CD  PRO M   4      34.275  11.962  -5.442  1.00 56.03 LIG 0.13  C 
ATOM      9  C   HIS M   3      35.222  12.427  -7.715  1.00 54.96 LIG 0.24  C 
ATOM     10  CG  PRO M   4      33.093  12.635  -4.790  1.00 55.72 LIG 0.02  C 
ATOM     11  CB  PRO M   4      32.057  12.471  -5.875  1.00 52.77 LIG 0.04  C 
ATOM     12 O    HIS M   3      35.027  12.599  -8.927  1.00 54.31 LIG-0.27  OA
BRANCH 9 13
ATOM     13  CA  HIS M   3      36.656  12.170  -7.244  1.00 53.95 LIG 0.18  C 
BRANCH 13 14
ATOM     14  N   HIS M   3      36.657  10.915  -6.517  1.00 55.94 LIG-0.34  N 
ATOM     15  C   SER M   2      37.321  10.789  -5.374  0.19 53.43 LIG 0.26  C 
ATOM     16 O    SER M   2      38.083  11.669  -4.949  0.19 53.78 LIG-0.27  OA
ATOM     17 H    HIS M   3      36.203  10.285  -6.886  1.00 55.94 LIG 0.16  HD
BRANCH 15 18
ATOM     18  CA  SER M   2      37.209   9.500  -4.575  0.19 52.30 LIG 0.42  C 
ATOM     19  N   SER M   2      35.981   9.680  -3.837  0.19 52.36 LIG 0.62  N 
BRANCH 18 20
ATOM     20  CB  SER M   2      37.025   8.282  -5.473  0.19 51.64 LIG 0.21  C 
BRANCH 20 21
ATOM     21 OG   SER M   2      37.850   7.232  -4.963  0.19 50.47 LIG-0.40  OA
ATOM     22 HG   SER M   2      37.917   7.307  -4.129  0.19 50.47 LIG 0.21  HD
ENDBRANCH 20 21
ENDBRANCH 18 20
ENDBRANCH 15 18
ENDBRANCH 13 14
BRANCH 13 23
ATOM     23  CB  HIS M   3      37.583  12.100  -8.452  1.00 50.96 LIG 0.10  C 
BRANCH 23 24
ATOM     24  CG  HIS M   3      38.836  12.920  -8.186  1.00 47.24 LIG 0.06  A 
ATOM     25  CD2 HIS M   3      38.891  14.280  -8.082  1.00 45.19 LIG 0.14  A 
ATOM     26 NE2  HIS M   3      40.171  14.477  -7.963  1.00 45.41 LIG-0.25  NA
ATOM     27  CE1 HIS M   3      40.829  13.333  -7.991  1.00 46.27 LIG 0.23  A 
ATOM     28 ND1  HIS M   3      40.006  12.323  -8.132  1.00 45.18 LIG-0.24  NA
ENDBRANCH 23 24
ENDBRANCH 13 23
ENDBRANCH 9 13
ENDBRANCH 4 6
ENDBRANCH 1 2
BRANCH 1 29
ATOM     29  CB  GLN M   5      34.496  17.102  -8.822  1.00 37.25 LIG 0.04  C 
BRANCH 29 30
ATOM     30  CG  GLN M   5      34.155  18.593  -8.749  1.00 28.05 LIG 0.10  C 
BRANCH 30 31
ATOM     31  CD  GLN M   5      34.964  19.397  -9.738  1.00 28.89 LIG 0.21  C 
ATOM     32  NE2 GLN M   5      34.529  20.625 -10.020  1.00 21.10 LIG-0.37  N 
ATOM     33 22HE GLN M   5      34.973  21.123 -10.562  1.00 21.10 LIG 0.16  HD
ATOM     34 21HE GLN M   5      33.806  20.919  -9.659  1.00 21.10 LIG 0.16  HD
ATOM     35 OE1  GLN M   5      35.997  18.927 -10.230  1.00 23.17 LIG-0.27  OA
ENDBRANCH 30 31
ENDBRANCH 29 30
ENDBRANCH 1 29
BRANCH 1 36
ATOM     36  C   GLN M   5      32.665  16.074 -10.060  1.00 41.58 LIG 0.24  C 
ATOM     37  N   ASN M   6      33.463  16.192 -11.121  1.00 44.37 LIG-0.35  N 
ATOM     38 H    ASN M   6      34.313  16.315 -11.078  1.00 44.37 LIG 0.16  HD
ATOM     39 O    GLN M   5      31.467  15.827 -10.164  1.00 41.62 LIG-0.27  OA
BRANCH 37 40
ATOM     40  CA  ASN M   6      32.926  16.115 -12.473  1.00 43.99 LIG 0.18  C 
BRANCH 40 41
ATOM     41  C   ASN M   6      31.621  16.876 -12.535  1.00 43.58 LIG 0.24  C 
ATOM     42  N   THR M   7      31.747  18.193 -12.448  0.00 42.61 LIG-0.34  N 
ATOM     43 H    THR M   7      32.510  18.582 -12.366  0.00 42.61 LIG 0.16  HD
ATOM     44 O    ASN M   6      30.555  16.263 -12.636  1.00 43.76 LIG-0.27  OA
BRANCH 42 45
ATOM     45  CA  THR M   7      30.642  19.111 -12.480  0.00 41.90 LIG 0.21  C 
BRANCH 45 46
ATOM     46  C   THR M   7      30.618  19.775 -13.864  0.00 41.61 LIG 0.20  C 
ATOM     47 O    THR M   7      31.170  19.232 -14.825  0.00 41.59 LIG-0.65  OA
ATOM     48 OXT  THR M   7      30.040  20.850 -13.984  0.00 41.57 LIG-0.65  OA
ENDBRANCH 45 46
BRANCH 45 49
ATOM     49  CB  THR M   7      30.859  20.124 -11.315  0.00 41.89 LIG 0.15  C 
ATOM     50  CG2 THR M   7      30.045  19.814 -10.057  0.00 41.51 LIG 0.04  C 
BRANCH 49 51
ATOM     51 OG1  THR M   7      32.249  20.094 -11.018  0.00 41.42 LIG-0.39  OA
ATOM     52 HG1  THR M   7      32.537  20.879 -10.943  0.00 41.42 LIG 0.21  HD
ENDBRANCH 49 51
ENDBRANCH 45 49
ENDBRANCH 42 45
ENDBRANCH 40 41
BRANCH 40 53
ATOM     53  CB  ASN M   6      32.702  14.650 -12.878  1.00 43.29 LIG 0.14  C 
BRANCH 53 54
ATOM     54  CG  ASN M   6      33.561  13.590 -12.165  1.00 43.53 LIG 0.22  C 
ATOM     55 OD1  ASN M   6      34.503  12.994 -12.692  1.00 39.33 LIG-0.27  OA
ATOM     56  ND2 ASN M   6      33.281  13.235 -10.920  1.00 45.48 LIG-0.37  N 
ATOM     57 22HD ASN M   6      32.634  13.616 -10.500  1.00 45.48 LIG 0.16  HD
ATOM     58 21HD ASN M   6      33.746  12.624 -10.532  1.00 45.48 LIG 0.16  HD
ENDBRANCH 53 54
ENDBRANCH 40 53
ENDBRANCH 37 40
ENDBRANCH 1 36
TORSDOF 21
ENDMDL
MODEL 4
USER: ADFR SOLUTION from run 198
USER: SCORE 17.305235 LL:  -3.452 LR: -14.665 RR:   0.000 FEB:  -8.401
USER: RMSD 8.528473
USER: SEED 197
USER: STATUS no improvement in best in 4 clusters for 5 generations
USER: GENES 23
USER: genes 0 Translation |==|  0.30227 0.52576 0.61796
USER: genes 1 Rotation |==|  0.59498 0.22925 0.09056 0.50567
USER: genes 2 Torsion [C]-CA--N-[C] |==|  0.72221
USER: genes 3 Torsion [N]-C--CA-[CB] |==|  0.57573
USER: genes 4 Torsion [N]-C--CA-[N] |==|  0.46422
USER: genes 5 Torsion [C]-CA--N-[C] |==|  0.56261
USER: genes 6 Torsion [N]-C--CA-[N] |==|  0.84564
USER: genes 7 Torsion [C]-CA--CB-[OG] |==|  0.28025
USER: genes 8 Torsion [CA]-CB--OG-[HG] |==|  0.59064
USER: genes 9 Torsion [C]-CA--CB-[CG] |==|  0.81271
USER: genes 10 Torsion [CA]-CB--CG-[CD2] |==|  0.66340
USER: genes 11 Torsion [N]-CA--CB-[CG] |==|  0.50679
USER: genes 12 Torsion [CA]-CB--CG-[CD] |==|  0.40375
USER: genes 13 Torsion [CB]-CG--CD-[NE2] |==|  0.46533
USER: genes 14 Torsion [N]-CA--C-[N] |==|  0.78618
USER: genes 15 Torsion [C]-N--CA-[CB] |==|  0.14768
USER: genes 16 Torsion [N]-CA--C-[N] |==|  0.12433
USER: genes 17 Torsion [C]-N--CA-[C] |==|  0.74469
USER: genes 18 Torsion [N]-CA--C-[O] |==|  0.47558
USER: genes 19 Torsion [N]-CA--CB-[CG2] |==|  0.61717
USER: genes 20 Torsion [CA]-CB--OG1-[HG1] |==|  0.85178
USER: genes 21 Torsion [N]-CA--CB-[CG] |==|  0.53022
USER: genes 22 Torsion [CA]-CB--CG-[OD1] |==|  0.71678
ROOT
ATOM      1  CA  GLN M   5      31.369  14.281  -8.021  1.00 40.28 LIG 0.18  C 
ENDROOT
BRANCH 1 2
ATOM      2  N   GLN M   5      32.105  13.083  -7.698  1.00 45.46 LIG-0.35  N 
ATOM      3 H    GLN M   5      32.622  12.785  -8.316  1.00 45.46 LIG 0.16  HD
ATOM      4  C   PRO M   4      31.939  12.528  -6.490  1.00 50.59 LIG 0.24  C 
ATOM      5 O    PRO M   4      31.226  13.085  -5.639  1.00 50.33 LIG-0.27  OA
BRANCH 4 6
ATOM      6  CA  PRO M   4      32.654  11.223  -6.149  1.00 53.72 LIG 0.18  C 
ATOM      7  N   PRO M   4      34.015  11.321  -5.617  1.00 55.45 LIG-0.34  N 
ATOM      8  CD  PRO M   4      34.098  10.592  -4.346  1.00 56.03 LIG 0.13  C 
ATOM      9  C   HIS M   3      35.068  11.816  -6.306  1.00 54.96 LIG 0.24  C 
ATOM     10  CG  PRO M   4      32.683  10.671  -3.830  1.00 55.72 LIG 0.02  C 
ATOM     11  CB  PRO M   4      31.917  10.394  -5.100  1.00 52.77 LIG 0.04  C 
ATOM     12 O    HIS M   3      34.968  12.160  -7.493  1.00 54.31 LIG-0.27  OA
BRANCH 9 13
ATOM     13  CA  HIS M   3      36.429  11.971  -5.622  1.00 53.95 LIG 0.18  C 
BRANCH 13 14
ATOM     14  N   HIS M   3      37.411  12.221  -6.659  1.00 55.94 LIG-0.34  N 
ATOM     15  C   SER M   2      38.698  11.963  -6.456  0.19 53.43 LIG 0.26  C 
ATOM     16 O    SER M   2      39.144  11.644  -5.346  0.19 53.78 LIG-0.27  OA
ATOM     17 H    HIS M   3      37.090  12.540  -7.391  1.00 55.94 LIG 0.16  HD
BRANCH 15 18
ATOM     18  CA  SER M   2      39.688  12.124  -7.600  0.19 52.30 LIG 0.42  C 
ATOM     19  N   SER M   2      39.136  11.279  -8.632  0.19 52.36 LIG 0.62  N 
BRANCH 18 20
ATOM     20  CB  SER M   2      39.711  13.548  -8.143  0.19 51.64 LIG 0.21  C 
BRANCH 20 21
ATOM     21 OG   SER M   2      40.855  14.209  -7.597  0.19 50.47 LIG-0.40  OA
ATOM     22 HG   SER M   2      40.683  15.025  -7.490  0.19 50.47 LIG 0.21  HD
ENDBRANCH 20 21
ENDBRANCH 18 20
ENDBRANCH 15 18
ENDBRANCH 13 14
BRANCH 13 23
ATOM     23  CB  HIS M   3      36.373  13.130  -4.635  1.00 50.96 LIG 0.10  C 
BRANCH 23 24
ATOM     24  CG  HIS M   3      36.213  14.441  -5.390  1.00 47.24 LIG 0.06  A 
ATOM     25  CD2 HIS M   3      37.072  15.501  -5.337  1.00 45.19 LIG 0.14  A 
ATOM     26 NE2  HIS M   3      36.440  16.379  -6.058  1.00 45.41 LIG-0.25  NA
ATOM     27  CE1 HIS M   3      35.301  15.889  -6.508  1.00 46.27 LIG 0.23  A 
ATOM     28 ND1  HIS M   3      35.127  14.656  -6.099  1.00 45.18 LIG-0.24  NA
ENDBRANCH 23 24
ENDBRANCH 13 23
ENDBRANCH 9 13
ENDBRANCH 4 6
ENDBRANCH 1 2
BRANCH 1 29
ATOM     29  CB  GLN M   5      32.199  15.252  -8.813  1.00 37.25 LIG 0.04  C 
BRANCH 29 30
ATOM     30  CG  GLN M   5      31.421  16.540  -9.093  1.00 28.05 LIG 0.10  C 
BRANCH 30 31
ATOM     31  CD  GLN M   5      32.325  17.749  -9.087  1.00 28.89 LIG 0.21  C 
ATOM     32  NE2 GLN M   5      31.820  18.886  -9.566  1.00 21.10 LIG-0.37  N 
ATOM     33 22HE GLN M   5      32.296  19.602  -9.562  1.00 21.10 LIG 0.16  HD
ATOM     34 21HE GLN M   5      31.020  18.902  -9.880  1.00 21.10 LIG 0.16  HD
ATOM     35 OE1  GLN M   5      33.470  17.672  -8.625  1.00 23.17 LIG-0.27  OA
ENDBRANCH 30 31
ENDBRANCH 29 30
ENDBRANCH 1 29
BRANCH 1 36
ATOM     36  C   GLN M   5      30.177  13.893  -8.859  1.00 41.58 LIG 0.24  C 
ATOM     37  N   ASN M   6      30.368  13.603 -10.146  1.00 44.37 LIG-0.35  N 
ATOM     38 H    ASN M   6      31.139  13.570 -10.527  1.00 44.37 LIG 0.16  HD
ATOM     39 O    GLN M   5      29.066  13.860  -8.338  1.00 41.62 LIG-0.27  OA
BRANCH 37 40
ATOM     40  CA  ASN M   6      29.243  13.312 -11.023  1.00 43.99 LIG 0.18  C 
BRANCH 40 41
ATOM     41  C   ASN M   6      29.741  13.157 -12.442  1.00 43.58 LIG 0.24  C 
ATOM     42  N   THR M   7      30.836  12.419 -12.562  0.00 42.61 LIG-0.34  N 
ATOM     43 H    THR M   7      31.227  12.056 -11.888  0.00 42.61 LIG 0.16  HD
ATOM     44 O    ASN M   6      29.147  13.715 -13.368  1.00 43.76 LIG-0.27  OA
BRANCH 42 45
ATOM     45  CA  THR M   7      31.487  12.143 -13.814  0.00 41.90 LIG 0.21  C 
BRANCH 45 46
ATOM     46  C   THR M   7      30.911  10.832 -14.367  0.00 41.61 LIG 0.20  C 
ATOM     47 O    THR M   7      31.191  10.462 -15.512  0.00 41.59 LIG-0.65  OA
ATOM     48 OXT  THR M   7      30.173  10.170 -13.646  0.00 41.57 LIG-0.65  OA
ENDBRANCH 45 46
BRANCH 45 49
ATOM     49  CB  THR M   7      33.016  12.070 -13.524  0.00 41.89 LIG 0.15  C 
ATOM     50  CG2 THR M   7      33.886  12.768 -14.572  0.00 41.51 LIG 0.04  C 
BRANCH 49 51
ATOM     51 OG1  THR M   7      33.208  12.672 -12.250  0.00 41.42 LIG-0.39  OA
ATOM     52 HG1  THR M   7      32.861  13.437 -12.247  0.00 41.42 LIG 0.21  HD
ENDBRANCH 49 51
ENDBRANCH 45 49
ENDBRANCH 42 45
ENDBRANCH 40 41
BRANCH 40 53
ATOM     53  CB  ASN M   6      28.202  14.441 -10.950  1.00 43.29 LIG 0.14  C 
BRANCH 53 54
ATOM     54  CG  ASN M   6      26.837  14.176 -11.612  1.00 43.53 LIG 0.22  C 
ATOM     55 OD1  ASN M   6      26.503  14.623 -12.711  1.00 39.33 LIG-0.27  OA
ATOM     56  ND2 ASN M   6      25.919  13.462 -10.979  1.00 45.48 LIG-0.37  N 
ATOM     57 22HD ASN M   6      26.093  13.124 -10.207  1.00 45.48 LIG 0.16  HD
ATOM     58 21HD ASN M   6      25.147  13.336 -11.339  1.00 45.48 LIG 0.16  HD
ENDBRANCH 53 54
ENDBRANCH 40 53
ENDBRANCH 37 40
ENDBRANCH 1 36
TORSDOF 21
ENDMDL
MODEL 5
USER: ADFR SOLUTION from run 57
USER: SCORE 15.895917 LL:  -3.276 LR: -14.567 RR:   0.000 FEB:  -8.303
USER: RMSD 4.896765
USER: SEED 56
USER: STATUS no improvement in best in 26 clusters for 5 generations
USER: GENES 23
USER: genes 0 Translation |==|  0.54486 0.37374 0.67252
USER: genes 1 Rotation |==|  0.54709 0.78117 0.58693 0.90146
USER: genes 2 Torsion [C]-CA--N-[C] |==|  0.67645
USER: genes 3 Torsion [N]-C--CA-[CB] |==|  0.17319
USER: genes 4 Torsion [N]-C--CA-[N] |==|  0.43732
USER: genes 5 Torsion [C]-CA--N-[C] |==|  0.64079
USER: genes 6 Torsion [N]-C--CA-[N] |==|  0.08808
USER: genes 7 Torsion [C]-CA--CB-[OG] |==|  0.33528
USER: genes 8 Torsion [CA]-CB--OG-[HG] |==|  0.80001
USER: genes 9 Torsion [C]-CA--CB-[CG] |==|  0.33388
USER: genes 10 Torsion [CA]-CB--CG-[CD2] |==|  0.98899
USER: genes 11 Torsion [N]-CA--CB-[CG] |==|  0.79456
USER: genes 12 Torsion [CA]-CB--CG-[CD] |==|  0.92724
USER: genes 13 Torsion [CB]-CG--CD-[NE2] |==|  0.37960
USER: genes 14 Torsion [N]-CA--C-[N] |==|  0.45159
USER: genes 15 Torsion [C]-N--CA-[CB] |==|  0.36057
USER: genes 16 Torsion [N]-CA--C-[N] |==|  0.39219
USER: genes 17 Torsion [C]-N--CA-[C] |==|  0.81295
USER: genes 18 Torsion [N]-CA--C-[O] |==|  0.84587
USER: genes 19 Torsion [N]-CA--CB-[CG2] |==|  0.40575
USER: genes 20 Torsion [CA]-CB--OG1-[HG1] |==|  0.68729
USER: genes 21 Torsion [N]-CA--CB-[CG] |==|  0.12061
USER: genes 22 Torsion [CA]-CB--CG-[OD1] |==|  0.67420
ROOT
ATOM      1  CA  GLN M   5      36.646  11.659  -6.835  1.00 40.28 LIG 0.18  C 
ENDROOT
BRANCH 1 2
ATOM      2  N   GLN M   5      35.268  12.006  -6.581  1.00 45.46 LIG-0.35  N 
ATOM      3 H    GLN M   5      34.682  11.519  -6.980  1.00 45.46 LIG 0.16  HD
ATOM      4  C   PRO M   4      34.999  13.034  -5.766  1.00 50.59 LIG 0.24  C 
ATOM      5 O    PRO M   4      35.921  13.622  -5.177  1.00 50.33 LIG-0.27  OA
BRANCH 4 6
ATOM      6  CA  PRO M   4      33.552  13.462  -5.536  1.00 53.72 LIG 0.18  C 
ATOM      7  N   PRO M   4      32.771  13.852  -6.713  1.00 55.45 LIG-0.34  N 
ATOM      8  CD  PRO M   4      31.533  13.065  -6.761  1.00 56.03 LIG 0.13  C 
ATOM      9  C   HIS M   3      33.051  14.919  -7.494  1.00 54.96 LIG 0.24  C 
ATOM     10  CG  PRO M   4      31.921  11.799  -6.040  1.00 55.72 LIG 0.02  C 
ATOM     11  CB  PRO M   4      32.703  12.374  -4.885  1.00 52.77 LIG 0.04  C 
ATOM     12 O    HIS M   3      33.968  15.707  -7.217  1.00 54.31 LIG-0.27  OA
BRANCH 9 13
ATOM     13  CA  HIS M   3      32.233  15.179  -8.761  1.00 53.95 LIG 0.18  C 
BRANCH 13 14
ATOM     14  N   HIS M   3      32.362  16.588  -9.081  1.00 55.94 LIG-0.34  N 
ATOM     15  C   SER M   2      31.289  17.336  -9.314  0.19 53.43 LIG 0.26  C 
ATOM     16 O    SER M   2      30.154  16.852  -9.418  0.19 53.78 LIG-0.27  OA
ATOM     17 H    HIS M   3      33.171  16.880  -9.103  1.00 55.94 LIG 0.16  HD
BRANCH 15 18
ATOM     18  CA  SER M   2      31.447  18.833  -9.530  0.19 52.30 LIG 0.42  C 
ATOM     19  N   SER M   2      32.742  18.938 -10.158  0.19 52.36 LIG 0.62  N 
BRANCH 18 20
ATOM     20  CB  SER M   2      30.420  19.382 -10.513  0.19 51.64 LIG 0.21  C 
BRANCH 20 21
ATOM     21 OG   SER M   2      29.654  20.382  -9.837  0.19 50.47 LIG-0.40  OA
ATOM     22 HG   SER M   2      29.142  20.015  -9.281  0.19 50.47 LIG 0.21  HD
ENDBRANCH 20 21
ENDBRANCH 18 20
ENDBRANCH 15 18
ENDBRANCH 13 14
BRANCH 13 23
ATOM     23  CB  HIS M   3      32.766  14.313  -9.897  1.00 50.96 LIG 0.10  C 
BRANCH 23 24
ATOM     24  CG  HIS M   3      31.664  13.394 -10.401  1.00 47.24 LIG 0.06  A 
ATOM     25  CD2 HIS M   3      30.410  13.287  -9.870  1.00 45.19 LIG 0.14  A 
ATOM     26 NE2  HIS M   3      29.914  12.316 -10.578  1.00 45.41 LIG-0.25  NA
ATOM     27  CE1 HIS M   3      30.792  11.878 -11.460  1.00 46.27 LIG 0.23  A 
ATOM     28 ND1  HIS M   3      31.917  12.544 -11.372  1.00 45.18 LIG-0.24  NA
ENDBRANCH 23 24
ENDBRANCH 13 23
ENDBRANCH 9 13
ENDBRANCH 4 6
ENDBRANCH 1 2
BRANCH 1 29
ATOM     29  CB  GLN M   5      36.931  10.221  -6.507  1.00 37.25 LIG 0.04  C 
BRANCH 29 30
ATOM     30  CG  GLN M   5      36.986  10.002  -4.993  1.00 28.05 LIG 0.10  C 
BRANCH 30 31
ATOM     31  CD  GLN M   5      37.374  11.264  -4.262  1.00 28.89 LIG 0.21  C 
ATOM     32  NE2 GLN M   5      36.690  11.560  -3.158  1.00 21.10 LIG-0.37  N 
ATOM     33 22HE GLN M   5      36.893  12.260  -2.701  1.00 21.10 LIG 0.16  HD
ATOM     34 21HE GLN M   5      36.045  11.052  -2.903  1.00 21.10 LIG 0.16  HD
ATOM     35 OE1  GLN M   5      38.310  11.962  -4.673  1.00 23.17 LIG-0.27  OA
ENDBRANCH 30 31
ENDBRANCH 29 30
ENDBRANCH 1 29
BRANCH 1 36
ATOM     36  C   GLN M   5      36.925  11.870  -8.302  1.00 41.58 LIG 0.24  C 
ATOM     37  N   ASN M   6      38.193  11.956  -8.705  1.00 44.37 LIG-0.35  N 
ATOM     38 H    ASN M   6      38.874  11.847  -8.190  1.00 44.37 LIG 0.16  HD
ATOM     39 O    GLN M   5      35.981  11.961  -9.082  1.00 41.62 LIG-0.27  OA
BRANCH 37 40
ATOM     40  CA  ASN M   6      38.518  12.251 -10.093  1.00 43.99 LIG 0.18  C 
BRANCH 40 41
ATOM     41  C   ASN M   6      39.083  11.011 -10.748  1.00 43.58 LIG 0.24  C 
ATOM     42  N   THR M   7      38.690  10.825 -12.001  0.00 42.61 LIG-0.34  N 
ATOM     43 H    THR M   7      38.161  11.368 -12.408  0.00 42.61 LIG 0.16  HD
ATOM     44 O    ASN M   6      39.825  10.260 -10.110  1.00 43.76 LIG-0.27  OA
BRANCH 42 45
ATOM     45  CA  THR M   7      39.098   9.712 -12.815  0.00 41.90 LIG 0.21  C 
BRANCH 45 46
ATOM     46  C   THR M   7      40.600   9.854 -13.093  0.00 41.61 LIG 0.20  C 
ATOM     47 O    THR M   7      41.044  10.886 -13.607  0.00 41.59 LIG-0.65  OA
ATOM     48 OXT  THR M   7      41.339   8.923 -12.794  0.00 41.57 LIG-0.65  OA
ENDBRANCH 45 46
BRANCH 45 49
ATOM     49  CB  THR M   7      38.226   9.751 -14.107  0.00 41.89 LIG 0.15  C 
ATOM     50  CG2 THR M   7      38.951   9.269 -15.365  0.00 41.51 LIG 0.04  C 
BRANCH 49 51
ATOM     51 OG1  THR M   7      37.097   8.928 -13.848  0.00 41.42 LIG-0.39  OA
ATOM     52 HG1  THR M   7      37.129   8.245 -14.337  0.00 41.42 LIG 0.21  HD
ENDBRANCH 49 51
ENDBRANCH 45 49
ENDBRANCH 42 45
ENDBRANCH 40 41
BRANCH 40 53
ATOM     53  CB  ASN M   6      39.537  13.400 -10.172  1.00 43.29 LIG 0.14  C 
BRANCH 53 54
ATOM     54  CG  ASN M   6      40.713  13.358  -9.180  1.00 43.53 LIG 0.22  C 
ATOM     55 OD1  ASN M   6      40.920  14.212  -8.316  1.00 39.33 LIG-0.27  OA
ATOM     56  ND2 ASN M   6      41.608  12.384  -9.250  1.00 45.48 LIG-0.37  N 
ATOM     57 22HD ASN M   6      41.518  11.758  -9.834  1.00 45.48 LIG 0.16  HD
ATOM     58 21HD ASN M   6      42.279  12.376  -8.712  1.00 45.48 LIG 0.16  HD
ENDBRANCH 53 54
ENDBRANCH 40 53
ENDBRANCH 37 40
ENDBRANCH 1 36
TORSDOF 21
ENDMDL
MODEL 6
USER: ADFR SOLUTION from run 121
USER: SCORE 17.319537 LL:  -3.668 LR: -14.523 RR:   0.000 FEB:  -8.259
USER: RMSD 9.299119
USER: SEED 120
USER: STATUS no improvement in best in 12 clusters for 5 generations
USER: GENES 23
USER: genes 0 Translation |==|  0.40296 0.66148 0.59184
USER: genes 1 Rotation |==|  0.36389 0.75322 0.89305 0.61343
USER: genes 2 Torsion [C]-CA--N-[C] |==|  0.82054
USER: genes 3 Torsion [N]-C--CA-[CB] |==|  0.39871
USER: genes 4 Torsion [N]-C--CA-[N] |==|  0.12328
USER: genes 5 Torsion [C]-CA--N-[C] |==|  0.60560
USER: genes 6 Torsion [N]-C--CA-[N] |==|  0.77290
USER: genes 7 Torsion [C]-CA--CB-[OG] |==|  0.45643
USER: genes 8 Torsion [CA]-CB--OG-[HG] |==|  0.96428
USER: genes 9 Torsion [C]-CA--CB-[CG] |==|  0.34823
USER: genes 10 Torsion [CA]-CB--CG-[CD2] |==|  0.84695
USER: genes 11 Torsion [N]-CA--CB-[CG] |==|  0.57723
USER: genes 12 Torsion [CA]-CB--CG-[CD] |==|  0.63348
USER: genes 13 Torsion [CB]-CG--CD-[NE2] |==|  0.37292
USER: genes 14 Torsion [N]-CA--C-[N] |==|  0.37231
USER: genes 15 Torsion [C]-N--CA-[CB] |==|  0.78287
USER: genes 16 Torsion [N]-CA--C-[N] |==|  0.15561
USER: genes 17 Torsion [C]-N--CA-[C] |==|  0.55116
USER: genes 18 Torsion [N]-CA--C-[O] |==|  0.40156
USER: genes 19 Torsion [N]-CA--CB-[CG2] |==|  0.43105
USER: genes 20 Torsion [CA]-CB--OG1-[HG1] |==|  0.17162
USER: genes 21 Torsion [N]-CA--CB-[CG] |==|  0.76811
USER: genes 22 Torsion [CA]-CB--CG-[OD1] |==|  0.67664
ROOT
ATOM      1  CA  GLN M   5      33.559  16.622  -8.589  1.00 40.28 LIG 0.18  C 
ENDROOT
BRANCH 1 2
ATOM      2  N   GLN M   5      33.768  15.243  -8.221  1.00 45.46 LIG-0.35  N 
ATOM      3 H    GLN M   5      34.584  14.974  -8.231  1.00 45.46 LIG 0.16  HD
ATOM      4  C   PRO M   4      32.707  14.492  -7.896  1.00 50.59 LIG 0.24  C 
ATOM      5 O    PRO M   4      31.576  15.003  -7.837  1.00 50.33 LIG-0.27  OA
BRANCH 4 6
ATOM      6  CA  PRO M   4      32.894  13.013  -7.569  1.00 53.72 LIG 0.18  C 
ATOM      7  N   PRO M   4      34.223  12.587  -7.122  1.00 55.45 LIG-0.34  N 
ATOM      8  CD  PRO M   4      34.104  11.879  -5.841  1.00 56.03 LIG 0.13  C 
ATOM      9  C   HIS M   3      35.338  12.646  -7.883  1.00 54.96 LIG 0.24  C 
ATOM     10  CG  PRO M   4      32.861  12.488  -5.244  1.00 55.72 LIG 0.02  C 
ATOM     11  CB  PRO M   4      31.967  12.525  -6.460  1.00 52.77 LIG 0.04  C 
ATOM     12 O    HIS M   3      35.300  13.005  -9.070  1.00 54.31 LIG-0.27  OA
BRANCH 9 13
ATOM     13  CA  HIS M   3      36.697  12.272  -7.285  1.00 53.95 LIG 0.18  C 
BRANCH 13 14
ATOM     14  N   HIS M   3      36.514  11.056  -6.517  1.00 55.94 LIG-0.34  N 
ATOM     15  C   SER M   2      37.153  10.872  -5.368  0.19 53.43 LIG 0.26  C 
ATOM     16 O    SER M   2      38.036  11.644  -4.969  0.19 53.78 LIG-0.27  OA
ATOM     17 H    HIS M   3      35.972  10.487  -6.866  1.00 55.94 LIG 0.16  HD
BRANCH 15 18
ATOM     18  CA  SER M   2      36.853   9.641  -4.526  0.19 52.30 LIG 0.42  C 
ATOM     19  N   SER M   2      35.654  10.016  -3.816  0.19 52.36 LIG 0.62  N 
BRANCH 18 20
ATOM     20  CB  SER M   2      36.512   8.429  -5.385  0.19 51.64 LIG 0.21  C 
BRANCH 20 21
ATOM     21 OG   SER M   2      36.609   7.265  -4.560  0.19 50.47 LIG-0.40  OA
ATOM     22 HG   SER M   2      36.997   7.462  -3.842  0.19 50.47 LIG 0.21  HD
ENDBRANCH 20 21
ENDBRANCH 18 20
ENDBRANCH 15 18
ENDBRANCH 13 14
BRANCH 13 23
ATOM     23  CB  HIS M   3      37.705  12.060  -8.409  1.00 50.96 LIG 0.10  C 
BRANCH 23 24
ATOM     24  CG  HIS M   3      38.921  12.945  -8.180  1.00 47.24 LIG 0.06  A 
ATOM     25  CD2 HIS M   3      38.900  14.299  -8.009  1.00 45.19 LIG 0.14  A 
ATOM     26 NE2  HIS M   3      40.171  14.571  -7.962  1.00 45.41 LIG-0.25  NA
ATOM     27  CE1 HIS M   3      40.894  13.475  -8.091  1.00 46.27 LIG 0.23  A 
ATOM     28 ND1  HIS M   3      40.127  12.422  -8.233  1.00 45.18 LIG-0.24  NA
ENDBRANCH 23 24
ENDBRANCH 13 23
ENDBRANCH 9 13
ENDBRANCH 4 6
ENDBRANCH 1 2
BRANCH 1 29
ATOM     29  CB  GLN M   5      34.857  17.339  -8.837  1.00 37.25 LIG 0.04  C 
BRANCH 29 30
ATOM     30  CG  GLN M   5      34.721  18.837  -8.549  1.00 28.05 LIG 0.10  C 
BRANCH 30 31
ATOM     31  CD  GLN M   5      35.292  19.672  -9.670  1.00 28.89 LIG 0.21  C 
ATOM     32  NE2 GLN M   5      34.558  20.702 -10.091  1.00 21.10 LIG-0.37  N 
ATOM     33 22HE GLN M   5      34.857  21.215 -10.713  1.00 21.10 LIG 0.16  HD
ATOM     34 21HE GLN M   5      33.788  20.853  -9.741  1.00 21.10 LIG 0.16  HD
ATOM     35 OE1  GLN M   5      36.406  19.411 -10.140  1.00 23.17 LIG-0.27  OA
ENDBRANCH 30 31
ENDBRANCH 29 30
ENDBRANCH 1 29
BRANCH 1 36
ATOM     36  C   GLN M   5      32.756  16.655  -9.866  1.00 41.58 LIG 0.24  C 
ATOM     37  N   ASN M   6      31.723  17.495  -9.948  1.00 44.37 LIG-0.35  N 
ATOM     38 H    ASN M   6      31.511  18.064  -9.339  1.00 44.37 LIG 0.16  HD
ATOM     39 O    GLN M   5      33.069  15.908 -10.788  1.00 41.62 LIG-0.27  OA
BRANCH 37 40
ATOM     40  CA  ASN M   6      30.858  17.503 -11.119  1.00 43.99 LIG 0.18  C 
BRANCH 40 41
ATOM     41  C   ASN M   6      30.556  16.079 -11.527  1.00 43.58 LIG 0.24  C 
ATOM     42  N   THR M   7      30.020  15.335 -10.569  0.00 42.61 LIG-0.34  N 
ATOM     43 H    THR M   7      29.854  15.640  -9.782  0.00 42.61 LIG 0.16  HD
ATOM     44 O    ASN M   6      30.831  15.693 -12.666  1.00 43.76 LIG-0.27  OA
BRANCH 42 45
ATOM     45  CA  THR M   7      29.657  13.953 -10.732  0.00 41.90 LIG 0.21  C 
BRANCH 45 46
ATOM     46  C   THR M   7      28.676  13.586  -9.610  0.00 41.61 LIG 0.20  C 
ATOM     47 O    THR M   7      27.753  12.794  -9.824  0.00 41.59 LIG-0.65  OA
ATOM     48 OXT  THR M   7      28.834  14.098  -8.508  0.00 41.57 LIG-0.65  OA
ENDBRANCH 45 46
BRANCH 45 49
ATOM     49  CB  THR M   7      30.979  13.129 -10.687  0.00 41.89 LIG 0.15  C 
ATOM     50  CG2 THR M   7      30.795  11.674 -10.248  0.00 41.51 LIG 0.04  C 
BRANCH 49 51
ATOM     51 OG1  THR M   7      31.523  13.178 -12.000  0.00 41.42 LIG-0.39  OA
ATOM     52 HG1  THR M   7      31.695  13.975 -12.202  0.00 41.42 LIG 0.21  HD
ENDBRANCH 49 51
ENDBRANCH 45 49
ENDBRANCH 42 45
ENDBRANCH 40 41
BRANCH 40 53
ATOM     53  CB  ASN M   6      31.532  18.252 -12.279  1.00 43.29 LIG 0.14  C 
BRANCH 53 54
ATOM     54  CG  ASN M   6      31.398  19.786 -12.291  1.00 43.53 LIG 0.22  C 
ATOM     55 OD1  ASN M   6      30.815  20.423 -13.170  1.00 39.33 LIG-0.27  OA
ATOM     56  ND2 ASN M   6      31.965  20.510 -11.337  1.00 45.48 LIG-0.37  N 
ATOM     57 22HD ASN M   6      32.387  20.122 -10.696  1.00 45.48 LIG 0.16  HD
ATOM     58 21HD ASN M   6      31.911  21.368 -11.359  1.00 45.48 LIG 0.16  HD
ENDBRANCH 53 54
ENDBRANCH 40 53
ENDBRANCH 37 40
ENDBRANCH 1 36
TORSDOF 21
ENDMDL
MODEL 7
USER: ADFR SOLUTION from run 80
USER: SCORE 16.614323 LL:  -2.994 LR: -14.458 RR:   0.000 FEB:  -8.194
USER: RMSD 8.151881
USER: SEED 79
USER: STATUS no improvement in best in 4 clusters for 5 generations
USER: GENES 23
USER: genes 0 Translation |==|  0.52859 0.48091 0.68987
USER: genes 1 Rotation |==|  0.24925 0.37659 0.91453 0.50745
USER: genes 2 Torsion [C]-CA--N-[C] |==|  0.75864
USER: genes 3 Torsion [N]-C--CA-[CB] |==|  0.96801
USER: genes 4 Torsion [N]-C--CA-[N] |==|  0.40212
USER: genes 5 Torsion [C]-CA--N-[C] |==|  0.81839
USER: genes 6 Torsion [N]-C--CA-[N] |==|  0.45281
USER: genes 7 Torsion [C]-CA--CB-[OG] |==|  0.28562
USER: genes 8 Torsion [CA]-CB--OG-[HG] |==|  0.88833
USER: genes 9 Torsion [C]-CA--CB-[CG] |==|  0.55949
USER: genes 10 Torsion [CA]-CB--CG-[CD2] |==|  0.83818
USER: genes 11 Torsion [N]-CA--CB-[CG] |==|  0.63274
USER: genes 12 Torsion [CA]-CB--CG-[CD] |==|  0.15616
USER: genes 13 Torsion [CB]-CG--CD-[NE2] |==|  0.22869
USER: genes 14 Torsion [N]-CA--C-[N] |==|  0.49444
USER: genes 15 Torsion [C]-N--CA-[CB] |==|  0.50056
USER: genes 16 Torsion [N]-CA--C-[N] |==|  0.41738
USER: genes 17 Torsion [C]-N--CA-[C] |==|  0.21089
USER: genes 18 Torsion [N]-CA--C-[O] |==|  0.56602
USER: genes 19 Torsion [N]-CA--CB-[CG2] |==|  0.53171
USER: genes 20 Torsion [CA]-CB--OG1-[HG1] |==|  0.64256
USER: genes 21 Torsion [N]-CA--CB-[CG] |==|  0.78933
USER: genes 22 Torsion [CA]-CB--CG-[OD1] |==|  0.08876
ROOT
ATOM      1  CA  GLN M   5      36.292  13.508  -6.457  1.00 40.28 LIG 0.18  C 
ENDROOT
BRANCH 1 2
ATOM      2  N   GLN M   5      37.683  13.269  -6.756  1.00 45.46 LIG-0.35  N 
ATOM      3 H    GLN M   5      38.238  13.839  -6.429  1.00 45.46 LIG 0.16  HD
ATOM      4  C   PRO M   4      38.012  12.205  -7.500  1.00 50.59 LIG 0.24  C 
ATOM      5 O    PRO M   4      37.138  11.397  -7.855  1.00 50.33 LIG-0.27  OA
BRANCH 4 6
ATOM      6  CA  PRO M   4      39.471  11.970  -7.886  1.00 53.72 LIG 0.18  C 
ATOM      7  N   PRO M   4      39.755  11.667  -9.291  1.00 55.45 LIG-0.34  N 
ATOM      8  CD  PRO M   4      40.761  12.606  -9.800  1.00 56.03 LIG 0.13  C 
ATOM      9  C   HIS M   3      39.318  10.562  -9.935  1.00 54.96 LIG 0.24  C 
ATOM     10  CG  PRO M   4      40.543  13.822  -8.936  1.00 55.72 LIG 0.02  C 
ATOM     11  CB  PRO M   4      40.368  13.167  -7.587  1.00 52.77 LIG 0.04  C 
ATOM     12 O    HIS M   3      38.694   9.666  -9.346  1.00 54.31 LIG-0.27  OA
BRANCH 9 13
ATOM     13  CA  HIS M   3      39.583  10.391 -11.433  1.00 53.95 LIG 0.18  C 
BRANCH 13 14
ATOM     14  N   HIS M   3      39.812   8.979 -11.676  1.00 55.94 LIG-0.34  N 
ATOM     15  C   SER M   2      40.871   8.362 -11.165  0.19 53.43 LIG 0.26  C 
ATOM     16 O    SER M   2      41.782   8.974 -10.590  0.19 53.78 LIG-0.27  OA
ATOM     17 H    HIS M   3      39.217   8.597 -12.165  1.00 55.94 LIG 0.16  HD
BRANCH 15 18
ATOM     18  CA  SER M   2      41.024   6.859 -11.337  0.19 52.30 LIG 0.42  C 
ATOM     19  N   SER M   2      42.419   6.636 -11.042  0.19 52.36 LIG 0.62  N 
BRANCH 18 20
ATOM     20  CB  SER M   2      40.212   6.078 -10.311  0.19 51.64 LIG 0.21  C 
BRANCH 20 21
ATOM     21 OG   SER M   2      39.039   5.583 -10.962  0.19 50.47 LIG-0.40  OA
ATOM     22 HG   SER M   2      38.737   6.171 -11.480  0.19 50.47 LIG 0.21  HD
ENDBRANCH 20 21
ENDBRANCH 18 20
ENDBRANCH 15 18
ENDBRANCH 13 14
BRANCH 13 23
ATOM     23  CB  HIS M   3      38.379  10.890 -12.223  1.00 50.96 LIG 0.10  C 
BRANCH 23 24
ATOM     24  CG  HIS M   3      38.381  10.268 -13.610  1.00 47.24 LIG 0.06  A 
ATOM     25  CD2 HIS M   3      39.384  10.376 -14.531  1.00 45.19 LIG 0.14  A 
ATOM     26 NE2  HIS M   3      38.858   9.772 -15.555  1.00 45.41 LIG-0.25  NA
ATOM     27  CE1 HIS M   3      37.645   9.336 -15.275  1.00 46.27 LIG 0.23  A 
ATOM     28 ND1  HIS M   3      37.312   9.637 -14.043  1.00 45.18 LIG-0.24  NA
ENDBRANCH 23 24
ENDBRANCH 13 23
ENDBRANCH 9 13
ENDBRANCH 4 6
ENDBRANCH 1 2
BRANCH 1 29
ATOM     29  CB  GLN M   5      36.117  14.285  -5.184  1.00 37.25 LIG 0.04  C 
BRANCH 29 30
ATOM     30  CG  GLN M   5      35.062  13.636  -4.284  1.00 28.05 LIG 0.10  C 
BRANCH 30 31
ATOM     31  CD  GLN M   5      35.399  12.196  -3.982  1.00 28.89 LIG 0.21  C 
ATOM     32  NE2 GLN M   5      36.268  11.971  -2.997  1.00 21.10 LIG-0.37  N 
ATOM     33 22HE GLN M   5      36.471  11.164  -2.779  1.00 21.10 LIG 0.16  HD
ATOM     34 21HE GLN M   5      36.625  12.632  -2.579  1.00 21.10 LIG 0.16  HD
ATOM     35 OE1  GLN M   5      34.857  11.280  -4.614  1.00 23.17 LIG-0.27  OA
ENDBRANCH 30 31
ENDBRANCH 29 30
ENDBRANCH 1 29
BRANCH 1 36
ATOM     36  C   GLN M   5      35.698  14.315  -7.585  1.00 41.58 LIG 0.24  C 
ATOM     37  N   ASN M   6      34.400  14.619  -7.537  1.00 44.37 LIG-0.35  N 
ATOM     38 H    ASN M   6      33.882  14.430  -6.877  1.00 44.37 LIG 0.16  HD
ATOM     39 O    GLN M   5      36.420  14.665  -8.514  1.00 41.62 LIG-0.27  OA
BRANCH 37 40
ATOM     40  CA  ASN M   6      33.755  15.315  -8.641  1.00 43.99 LIG 0.18  C 
BRANCH 40 41
ATOM     41  C   ASN M   6      34.449  16.638  -8.871  1.00 43.58 LIG 0.24  C 
ATOM     42  N   THR M   7      34.415  17.065 -10.126  0.00 42.61 LIG-0.34  N 
ATOM     43 H    THR M   7      34.027  16.627 -10.756  0.00 42.61 LIG 0.16  HD
ATOM     44 O    ASN M   6      35.003  17.215  -7.932  1.00 43.76 LIG-0.27  OA
BRANCH 42 45
ATOM     45  CA  THR M   7      35.014  18.294 -10.574  0.00 41.90 LIG 0.21  C 
BRANCH 45 46
ATOM     46  C   THR M   7      36.531  18.077 -10.657  0.00 41.61 LIG 0.20  C 
ATOM     47 O    THR M   7      37.302  19.039 -10.586  0.00 41.59 LIG-0.65  OA
ATOM     48 OXT  THR M   7      36.950  16.934 -10.795  0.00 41.57 LIG-0.65  OA
ENDBRANCH 45 46
BRANCH 45 49
ATOM     49  CB  THR M   7      34.604  19.397  -9.553  0.00 41.89 LIG 0.15  C 
ATOM     50  CG2 THR M   7      34.920  20.823 -10.012  0.00 41.51 LIG 0.04  C 
BRANCH 49 51
ATOM     51 OG1  THR M   7      33.205  19.248  -9.348  0.00 41.42 LIG-0.39  OA
ATOM     52 HG1  THR M   7      32.826  19.990  -9.456  0.00 41.42 LIG 0.21  HD
ENDBRANCH 49 51
ENDBRANCH 45 49
ENDBRANCH 42 45
ENDBRANCH 40 41
BRANCH 40 53
ATOM     53  CB  ASN M   6      32.267  15.546  -8.332  1.00 43.29 LIG 0.14  C 
BRANCH 53 54
ATOM     54  CG  ASN M   6      31.331  14.331  -8.457  1.00 43.53 LIG 0.22  C 
ATOM     55 OD1  ASN M   6      31.672  13.169  -8.227  1.00 39.33 LIG-0.27  OA
ATOM     56  ND2 ASN M   6      30.084  14.491  -8.876  1.00 45.48 LIG-0.37  N 
ATOM     57 22HD ASN M   6      29.789  15.280  -9.053  1.00 45.48 LIG 0.16  HD
ATOM     58 21HD ASN M   6      29.570  13.808  -8.970  1.00 45.48 LIG 0.16  HD
ENDBRANCH 53 54
ENDBRANCH 40 53
ENDBRANCH 37 40
ENDBRANCH 1 36
TORSDOF 21
ENDMDL
MODEL 8
USER: ADFR SOLUTION from run 191
USER: SCORE 17.159284 LL:  -4.343 LR: -14.444 RR:   0.000 FEB:  -8.180
USER: RMSD 9.005152
USER: SEED 190
USER: STATUS no improvement in best in 11 clusters for 5 generations
USER: GENES 23
USER: genes 0 Translation |==|  0.30990 0.50555 0.63081
USER: genes 1 Rotation |==|  0.41678 0.77323 0.91019 0.51271
USER: genes 2 Torsion [C]-CA--N-[C] |==|  0.67921
USER: genes 3 Torsion [N]-C--CA-[CB] |==|  0.60392
USER: genes 4 Torsion [N]-C--CA-[N] |==|  0.50556
USER: genes 5 Torsion [C]-CA--N-[C] |==|  0.51115
USER: genes 6 Torsion [N]-C--CA-[N] |==|  0.88222
USER: genes 7 Torsion [C]-CA--CB-[OG] |==|  0.31427
USER: genes 8 Torsion [CA]-CB--OG-[HG] |==|  0.29710
USER: genes 9 Torsion [C]-CA--CB-[CG] |==|  0.83031
USER: genes 10 Torsion [CA]-CB--CG-[CD2] |==|  0.25873
USER: genes 11 Torsion [N]-CA--CB-[CG] |==|  0.94552
USER: genes 12 Torsion [CA]-CB--CG-[CD] |==|  0.53620
USER: genes 13 Torsion [CB]-CG--CD-[NE2] |==|  0.74957
USER: genes 14 Torsion [N]-CA--C-[N] |==|  0.87403
USER: genes 15 Torsion [C]-N--CA-[CB] |==|  0.18468
USER: genes 16 Torsion [N]-CA--C-[N] |==|  0.62373
USER: genes 17 Torsion [C]-N--CA-[C] |==|  0.67864
USER: genes 18 Torsion [N]-CA--C-[O] |==|  0.93708
USER: genes 19 Torsion [N]-CA--CB-[CG2] |==|  0.82432
USER: genes 20 Torsion [CA]-CB--OG1-[HG1] |==|  0.83614
USER: genes 21 Torsion [N]-CA--CB-[CG] |==|  0.57484
USER: genes 22 Torsion [CA]-CB--CG-[OD1] |==|  0.76567
ROOT
ATOM      1  CA  GLN M   5      31.535  13.933  -7.742  1.00 40.28 LIG 0.18  C 
ENDROOT
BRANCH 1 2
ATOM      2  N   GLN M   5      32.163  12.672  -7.426  1.00 45.46 LIG-0.35  N 
ATOM      3 H    GLN M   5      32.477  12.234  -8.096  1.00 45.46 LIG 0.16  HD
ATOM      4  C   PRO M   4      32.214  12.277  -6.147  1.00 50.59 LIG 0.24  C 
ATOM      5 O    PRO M   4      31.800  13.025  -5.246  1.00 50.33 LIG-0.27  OA
BRANCH 4 6
ATOM      6  CA  PRO M   4      32.812  10.917  -5.796  1.00 53.72 LIG 0.18  C 
ATOM      7  N   PRO M   4      34.213  10.888  -5.369  1.00 55.45 LIG-0.34  N 
ATOM      8  CD  PRO M   4      34.316  10.207  -4.073  1.00 56.03 LIG 0.13  C 
ATOM      9  C   HIS M   3      35.256  11.238  -6.156  1.00 54.96 LIG 0.24  C 
ATOM     10  CG  PRO M   4      32.962  10.460  -3.462  1.00 55.72 LIG 0.02  C 
ATOM     11  CB  PRO M   4      32.075  10.216  -4.658  1.00 52.77 LIG 0.04  C 
ATOM     12 O    HIS M   3      35.101  11.543  -7.348  1.00 54.31 LIG-0.27  OA
BRANCH 9 13
ATOM     13  CA  HIS M   3      36.674  11.271  -5.580  1.00 53.95 LIG 0.18  C 
BRANCH 13 14
ATOM     14  N   HIS M   3      37.561  11.723  -6.635  1.00 55.94 LIG-0.34  N 
ATOM     15  C   SER M   2      38.875  11.774  -6.446  0.19 53.43 LIG 0.26  C 
ATOM     16 O    SER M   2      39.393  11.588  -5.337  0.19 53.78 LIG-0.27  OA
ATOM     17 H    HIS M   3      37.168  11.945  -7.367  1.00 55.94 LIG 0.16  HD
BRANCH 15 18
ATOM     18  CA  SER M   2      39.789  12.139  -7.606  0.19 52.30 LIG 0.42  C 
ATOM     19  N   SER M   2      39.229  11.396  -8.709  0.19 52.36 LIG 0.62  N 
BRANCH 18 20
ATOM     20  CB  SER M   2      39.702  13.618  -7.963  0.19 51.64 LIG 0.21  C 
BRANCH 20 21
ATOM     21 OG   SER M   2      40.959  14.221  -7.648  0.19 50.47 LIG-0.40  OA
ATOM     22 HG   SER M   2      41.375  14.390  -8.359  0.19 50.47 LIG 0.21  HD
ENDBRANCH 20 21
ENDBRANCH 18 20
ENDBRANCH 15 18
ENDBRANCH 13 14
BRANCH 13 23
ATOM     23  CB  HIS M   3      36.717  12.222  -4.389  1.00 50.96 LIG 0.10  C 
BRANCH 23 24
ATOM     24  CG  HIS M   3      36.347  13.626  -4.840  1.00 47.24 LIG 0.06  A 
ATOM     25  CD2 HIS M   3      35.094  14.168  -4.810  1.00 45.19 LIG 0.14  A 
ATOM     26 NE2  HIS M   3      35.297  15.316  -5.387  1.00 45.41 LIG-0.25  NA
ATOM     27  CE1 HIS M   3      36.564  15.453  -5.731  1.00 46.27 LIG 0.23  A 
ATOM     28 ND1  HIS M   3      37.258  14.393  -5.396  1.00 45.18 LIG-0.24  NA
ENDBRANCH 23 24
ENDBRANCH 13 23
ENDBRANCH 9 13
ENDBRANCH 4 6
ENDBRANCH 1 2
BRANCH 1 29
ATOM     29  CB  GLN M   5      32.448  14.833  -8.526  1.00 37.25 LIG 0.04  C 
BRANCH 29 30
ATOM     30  CG  GLN M   5      33.910  14.404  -8.370  1.00 28.05 LIG 0.10  C 
BRANCH 30 31
ATOM     31  CD  GLN M   5      34.857  15.463  -8.880  1.00 28.89 LIG 0.21  C 
ATOM     32  NE2 GLN M   5      35.210  15.392 -10.163  1.00 21.10 LIG-0.37  N 
ATOM     33 22HE GLN M   5      35.732  15.988 -10.498  1.00 21.10 LIG 0.16  HD
ATOM     34 21HE GLN M   5      34.917  14.751 -10.655  1.00 21.10 LIG 0.16  HD
ATOM     35 OE1  GLN M   5      35.251  16.365  -8.130  1.00 23.17 LIG-0.27  OA
ENDBRANCH 30 31
ENDBRANCH 29 30
ENDBRANCH 1 29
BRANCH 1 36
ATOM     36  C   GLN M   5      30.314  13.656  -8.583  1.00 41.58 LIG 0.24  C 
ATOM     37  N   ASN M   6      30.417  12.790  -9.591  1.00 44.37 LIG-0.35  N 
ATOM     38 H    ASN M   6      31.123  12.332  -9.767  1.00 44.37 LIG 0.16  HD
ATOM     39 O    GLN M   5      29.265  14.237  -8.322  1.00 41.62 LIG-0.27  OA
BRANCH 37 40
ATOM     40  CA  ASN M   6      29.297  12.555 -10.492  1.00 43.99 LIG 0.18  C 
BRANCH 40 41
ATOM     41  C   ASN M   6      29.627  11.400 -11.409  1.00 43.58 LIG 0.24  C 
ATOM     42  N   THR M   7      29.317  11.603 -12.682  0.00 42.61 LIG-0.34  N 
ATOM     43 H    THR M   7      28.960  12.334 -12.963  0.00 42.61 LIG 0.16  HD
ATOM     44 O    ASN M   6      30.124  10.369 -10.948  1.00 43.76 LIG-0.27  OA
BRANCH 42 45
ATOM     45  CA  THR M   7      29.537  10.641 -13.728  0.00 41.90 LIG 0.21  C 
BRANCH 45 46
ATOM     46  C   THR M   7      30.563  11.231 -14.706  0.00 41.61 LIG 0.20  C 
ATOM     47 O    THR M   7      30.729  12.453 -14.773  0.00 41.59 LIG-0.65  OA
ATOM     48 OXT  THR M   7      31.204  10.461 -15.411  0.00 41.57 LIG-0.65  OA
ENDBRANCH 45 46
BRANCH 45 49
ATOM     49  CB  THR M   7      28.152  10.359 -14.384  0.00 41.89 LIG 0.15  C 
ATOM     50  CG2 THR M   7      27.129   9.724 -13.439  0.00 41.51 LIG 0.04  C 
BRANCH 49 51
ATOM     51 OG1  THR M   7      27.673  11.612 -14.853  0.00 41.42 LIG-0.39  OA
ATOM     52 HG1  THR M   7      27.611  12.147 -14.208  0.00 41.42 LIG 0.21  HD
ENDBRANCH 49 51
ENDBRANCH 45 49
ENDBRANCH 42 45
ENDBRANCH 40 41
BRANCH 40 53
ATOM     53  CB  ASN M   6      29.000  13.817 -11.318  1.00 43.29 LIG 0.14  C 
BRANCH 53 54
ATOM     54  CG  ASN M   6      27.555  14.000 -11.817  1.00 43.53 LIG 0.22  C 
ATOM     55 OD1  ASN M   6      27.109  13.494 -12.848  1.00 39.33 LIG-0.27  OA
ATOM     56  ND2 ASN M   6      26.715  14.777 -11.148  1.00 45.48 LIG-0.37  N 
ATOM     57 22HD ASN M   6      26.969  15.159 -10.420  1.00 45.48 LIG 0.16  HD
ATOM     58 21HD ASN M   6      25.916  14.899 -11.442  1.00 45.48 LIG 0.16  HD
ENDBRANCH 53 54
ENDBRANCH 40 53
ENDBRANCH 37 40
ENDBRANCH 1 36
TORSDOF 21
ENDMDL
MODEL 9
USER: ADFR SOLUTION from run 175
USER: SCORE 17.212006 LL:  -4.129 LR: -14.366 RR:   0.000 FEB:  -8.102
USER: RMSD 5.187234
USER: SEED 174
USER: STATUS searching
USER: GENES 23
USER: genes 0 Translation |==|  0.48263 0.50703 0.72602
USER: genes 1 Rotation |==|  0.35467 0.69624 0.39644 0.92384
USER: genes 2 Torsion [C]-CA--N-[C] |==|  0.72997
USER: genes 3 Torsion [N]-C--CA-[CB] |==|  0.86336
USER: genes 4 Torsion [N]-C--CA-[N] |==|  0.28364
USER: genes 5 Torsion [C]-CA--N-[C] |==|  0.74299
USER: genes 6 Torsion [N]-C--CA-[N] |==|  0.46173
USER: genes 7 Torsion [C]-CA--CB-[OG] |==|  0.37140
USER: genes 8 Torsion [CA]-CB--OG-[HG] |==|  0.42192
USER: genes 9 Torsion [C]-CA--CB-[CG] |==|  0.50974
USER: genes 10 Torsion [CA]-CB--CG-[CD2] |==|  0.20229
USER: genes 11 Torsion [N]-CA--CB-[CG] |==|  0.23308
USER: genes 12 Torsion [CA]-CB--CG-[CD] |==|  0.81413
USER: genes 13 Torsion [CB]-CG--CD-[NE2] |==|  0.33561
USER: genes 14 Torsion [N]-CA--C-[N] |==|  0.50729
USER: genes 15 Torsion [C]-N--CA-[CB] |==|  0.82189
USER: genes 16 Torsion [N]-CA--C-[N] |==|  0.18501
USER: genes 17 Torsion [C]-N--CA-[C] |==|  0.49433
USER: genes 18 Torsion [N]-CA--C-[O] |==|  0.04735
USER: genes 19 Torsion [N]-CA--CB-[CG2] |==|  0.14623
USER: genes 20 Torsion [CA]-CB--OG1-[HG1] |==|  0.91999
USER: genes 21 Torsion [N]-CA--CB-[CG] |==|  0.85824
USER: genes 22 Torsion [CA]-CB--CG-[OD1] |==|  0.33405
ROOT
ATOM      1  CA  GLN M   5      35.292  13.958  -5.671  1.00 40.28 LIG 0.18  C 
ENDROOT
BRANCH 1 2
ATOM      2  N   GLN M   5      34.131  14.344  -6.436  1.00 45.46 LIG-0.35  N 
ATOM      3 H    GLN M   5      33.414  13.897  -6.276  1.00 45.46 LIG 0.16  HD
ATOM      4  C   PRO M   4      34.242  15.343  -7.321  1.00 50.59 LIG 0.24  C 
ATOM      5 O    PRO M   4      35.306  15.977  -7.418  1.00 50.33 LIG-0.27  OA
BRANCH 4 6
ATOM      6  CA  PRO M   4      33.046  15.724  -8.190  1.00 53.72 LIG 0.18  C 
ATOM      7  N   PRO M   4      33.287  16.659  -9.292  1.00 55.45 LIG-0.34  N 
ATOM      8  CD  PRO M   4      32.805  16.071 -10.548  1.00 56.03 LIG 0.13  C 
ATOM      9  C   HIS M   3      33.684  17.941  -9.130  1.00 54.96 LIG 0.24  C 
ATOM     10  CG  PRO M   4      32.927  14.591 -10.284  1.00 55.72 LIG 0.02  C 
ATOM     11  CB  PRO M   4      32.397  14.523  -8.873  1.00 52.77 LIG 0.04  C 
ATOM     12 O    HIS M   3      33.803  18.451  -8.006  1.00 54.31 LIG-0.27  OA
BRANCH 9 13
ATOM     13  CA  HIS M   3      34.008  18.805 -10.352  1.00 53.95 LIG 0.18  C 
BRANCH 13 14
ATOM     14  N   HIS M   3      32.873  19.681 -10.578  1.00 55.94 LIG-0.34  N 
ATOM     15  C   SER M   2      31.894  19.329 -11.403  0.19 53.43 LIG 0.26  C 
ATOM     16 O    SER M   2      31.963  18.324 -12.125  0.19 53.78 LIG-0.27  OA
ATOM     17 H    HIS M   3      32.897  20.422 -10.142  1.00 55.94 LIG 0.16  HD
BRANCH 15 18
ATOM     18  CA  SER M   2      30.662  20.212 -11.531  0.19 52.30 LIG 0.42  C 
ATOM     19  N   SER M   2      30.017  19.702 -12.717  0.19 52.36 LIG 0.62  N 
BRANCH 18 20
ATOM     20  CB  SER M   2      29.695  20.019 -10.369  0.19 51.64 LIG 0.21  C 
BRANCH 20 21
ATOM     21 OG   SER M   2      29.295  21.313  -9.910  0.19 50.47 LIG-0.40  OA
ATOM     22 HG   SER M   2      28.527  21.266  -9.572  0.19 50.47 LIG 0.21  HD
ENDBRANCH 20 21
ENDBRANCH 18 20
ENDBRANCH 15 18
ENDBRANCH 13 14
BRANCH 13 23
ATOM     23  CB  HIS M   3      35.273  19.612 -10.083  1.00 50.96 LIG 0.10  C 
BRANCH 23 24
ATOM     24  CG  HIS M   3      35.551  20.537 -11.259  1.00 47.24 LIG 0.06  A 
ATOM     25  CD2 HIS M   3      34.849  21.666 -11.567  1.00 45.19 LIG 0.14  A 
ATOM     26 NE2  HIS M   3      35.406  22.017 -12.689  1.00 45.41 LIG-0.25  NA
ATOM     27  CE1 HIS M   3      36.363  21.172 -13.024  1.00 46.27 LIG 0.23  A 
ATOM     28 ND1  HIS M   3      36.479  20.218 -12.133  1.00 45.18 LIG-0.24  NA
ENDBRANCH 23 24
ENDBRANCH 13 23
ENDBRANCH 9 13
ENDBRANCH 4 6
ENDBRANCH 1 2
BRANCH 1 29
ATOM     29  CB  GLN M   5      34.932  13.558  -4.268  1.00 37.25 LIG 0.04  C 
BRANCH 29 30
ATOM     30  CG  GLN M   5      34.488  12.093  -4.212  1.00 28.05 LIG 0.10  C 
BRANCH 30 31
ATOM     31  CD  GLN M   5      33.186  11.878  -4.944  1.00 28.89 LIG 0.21  C 
ATOM     32  NE2 GLN M   5      33.196  11.012  -5.956  1.00 21.10 LIG-0.37  N 
ATOM     33 22HE GLN M   5      32.470  10.845  -6.386  1.00 21.10 LIG 0.16  HD
ATOM     34 21HE GLN M   5      33.928  10.619  -6.179  1.00 21.10 LIG 0.16  HD
ATOM     35 OE1  GLN M   5      32.160  12.469  -4.584  1.00 23.17 LIG-0.27  OA
ENDBRANCH 30 31
ENDBRANCH 29 30
ENDBRANCH 1 29
BRANCH 1 36
ATOM     36  C   GLN M   5      35.932  12.771  -6.347  1.00 41.58 LIG 0.24  C 
ATOM     37  N   ASN M   6      36.999  12.211  -5.777  1.00 44.37 LIG-0.35  N 
ATOM     38 H    ASN M   6      37.323  12.447  -5.016  1.00 44.37 LIG 0.16  HD
ATOM     39 O    GLN M   5      35.458  12.357  -7.401  1.00 41.62 LIG-0.27  OA
BRANCH 37 40
ATOM     40  CA  ASN M   6      37.712  11.123  -6.432  1.00 43.99 LIG 0.18  C 
BRANCH 40 41
ATOM     41  C   ASN M   6      38.169  11.577  -7.799  1.00 43.58 LIG 0.24  C 
ATOM     42  N   THR M   7      39.090  12.531  -7.782  0.00 42.61 LIG-0.34  N 
ATOM     43 H    THR M   7      39.403  12.861  -7.052  0.00 42.61 LIG 0.16  HD
ATOM     44 O    ASN M   6      37.673  11.078  -8.812  1.00 43.76 LIG-0.27  OA
BRANCH 42 45
ATOM     45  CA  THR M   7      39.665  13.116  -8.963  0.00 41.90 LIG 0.21  C 
BRANCH 45 46
ATOM     46  C   THR M   7      40.645  14.211  -8.519  0.00 41.61 LIG 0.20  C 
ATOM     47 O    THR M   7      41.056  14.245  -7.355  0.00 41.59 LIG-0.65  OA
ATOM     48 OXT  THR M   7      41.002  15.043  -9.346  0.00 41.57 LIG-0.65  OA
ENDBRANCH 45 46
BRANCH 45 49
ATOM     49  CB  THR M   7      38.483  13.660  -9.821  0.00 41.89 LIG 0.15  C 
ATOM     50  CG2 THR M   7      37.531  14.586  -9.060  0.00 41.51 LIG 0.04  C 
BRANCH 49 51
ATOM     51 OG1  THR M   7      39.072  14.355 -10.912  0.00 41.42 LIG-0.39  OA
ATOM     52 HG1  THR M   7      39.819  14.661 -10.680  0.00 41.42 LIG 0.21  HD
ENDBRANCH 49 51
ENDBRANCH 45 49
ENDBRANCH 42 45
ENDBRANCH 40 41
BRANCH 40 53
ATOM     53  CB  ASN M   6      36.803   9.889  -6.563  1.00 43.29 LIG 0.14  C 
BRANCH 53 54
ATOM     54  CG  ASN M   6      36.090   9.410  -5.285  1.00 43.53 LIG 0.22  C 
ATOM     55 OD1  ASN M   6      34.866   9.337  -5.163  1.00 39.33 LIG-0.27  OA
ATOM     56  ND2 ASN M   6      36.795   9.085  -4.212  1.00 45.48 LIG-0.37  N 
ATOM     57 22HD ASN M   6      37.654   9.116  -4.236  1.00 45.48 LIG 0.16  HD
ATOM     58 21HD ASN M   6      36.394   8.842  -3.491  1.00 45.48 LIG 0.16  HD
ENDBRANCH 53 54
ENDBRANCH 40 53
ENDBRANCH 37 40
ENDBRANCH 1 36
TORSDOF 21
ENDMDL
MODEL 10
USER: ADFR SOLUTION from run 168
USER: SCORE 16.263652 LL:  -3.021 LR: -14.316 RR:   0.000 FEB:  -8.051
USER: RMSD 8.880354
USER: SEED 167
USER: STATUS no improvement in best in 11 clusters for 5 generations
USER: GENES 23
USER: genes 0 Translation |==|  0.50828 0.49513 0.66500
USER: genes 1 Rotation |==|  0.23643 0.24351 0.82251 0.60357
USER: genes 2 Torsion [C]-CA--N-[C] |==|  0.61936
USER: genes 3 Torsion [N]-C--CA-[CB] |==|  0.96935
USER: genes 4 Torsion [N]-C--CA-[N] |==|  0.42219
USER: genes 5 Torsion [C]-CA--N-[C] |==|  0.79767
USER: genes 6 Torsion [N]-C--CA-[N] |==|  0.48314
USER: genes 7 Torsion [C]-CA--CB-[OG] |==|  0.30960
USER: genes 8 Torsion [CA]-CB--OG-[HG] |==|  0.82420
USER: genes 9 Torsion [C]-CA--CB-[CG] |==|  0.55852
USER: genes 10 Torsion [CA]-CB--CG-[CD2] |==|  0.78157
USER: genes 11 Torsion [N]-CA--CB-[CG] |==|  0.80120
USER: genes 12 Torsion [CA]-CB--CG-[CD] |==|  0.29084
USER: genes 13 Torsion [CB]-CG--CD-[NE2] |==|  0.39900
USER: genes 14 Torsion [N]-CA--C-[N] |==|  0.39467
USER: genes 15 Torsion [C]-N--CA-[CB] |==|  0.17404
USER: genes 16 Torsion [N]-CA--C-[N] |==|  0.53057
USER: genes 17 Torsion [C]-N--CA-[C] |==|  0.79174
USER: genes 18 Torsion [N]-CA--C-[O] |==|  0.31268
USER: genes 19 Torsion [N]-CA--CB-[CG2] |==|  0.36635
USER: genes 20 Torsion [CA]-CB--OG1-[HG1] |==|  0.84237
USER: genes 21 Torsion [N]-CA--CB-[CG] |==|  0.56401
USER: genes 22 Torsion [CA]-CB--CG-[OD1] |==|  0.88380
ROOT
ATOM      1  CA  GLN M   5      35.850  13.753  -6.998  1.00 40.28 LIG 0.18  C 
ENDROOT
BRANCH 1 2
ATOM      2  N   GLN M   5      37.267  13.616  -7.231  1.00 45.46 LIG-0.35  N 
ATOM      3 H    GLN M   5      37.756  14.268  -6.956  1.00 45.46 LIG 0.16  HD
ATOM      4  C   PRO M   4      37.719  12.513  -7.843  1.00 50.59 LIG 0.24  C 
ATOM      5 O    PRO M   4      36.936  11.592  -8.129  1.00 50.33 LIG-0.27  OA
BRANCH 4 6
ATOM      6  CA  PRO M   4      39.206  12.376  -8.161  1.00 53.72 LIG 0.18  C 
ATOM      7  N   PRO M   4      39.568  11.961  -9.519  1.00 55.45 LIG-0.34  N 
ATOM      8  CD  PRO M   4      40.505  12.933 -10.094  1.00 56.03 LIG 0.13  C 
ATOM      9  C   HIS M   3      39.255  10.761 -10.057  1.00 54.96 LIG 0.24  C 
ATOM     10  CG  PRO M   4      40.147  14.204  -9.367  1.00 55.72 LIG 0.02  C 
ATOM     11  CB  PRO M   4      39.981  13.675  -7.963  1.00 52.77 LIG 0.04  C 
ATOM     12 O    HIS M   3      38.692   9.875  -9.396  1.00 54.31 LIG-0.27  OA
BRANCH 9 13
ATOM     13  CA  HIS M   3      39.591  10.465 -11.522  1.00 53.95 LIG 0.18  C 
BRANCH 13 14
ATOM     14  N   HIS M   3      39.785   9.033 -11.644  1.00 55.94 LIG-0.34  N 
ATOM     15  C   SER M   2      40.873   8.449 -11.155  0.19 53.43 LIG 0.26  C 
ATOM     16 O    SER M   2      41.831   9.096 -10.712  0.19 53.78 LIG-0.27  OA
ATOM     17 H    HIS M   3      39.150   8.616 -12.047  1.00 55.94 LIG 0.16  HD
BRANCH 15 18
ATOM     18  CA  SER M   2      40.995   6.933 -11.192  0.19 52.30 LIG 0.42  C 
ATOM     19  N   SER M   2      42.340   6.702 -10.723  0.19 52.36 LIG 0.62  N 
BRANCH 18 20
ATOM     20  CB  SER M   2      40.048   6.257 -10.208  0.19 51.64 LIG 0.21  C 
BRANCH 20 21
ATOM     21 OG   SER M   2      39.049   5.566 -10.962  0.19 50.47 LIG-0.40  OA
ATOM     22 HG   SER M   2      38.599   6.120 -11.405  0.19 50.47 LIG 0.21  HD
ENDBRANCH 20 21
ENDBRANCH 18 20
ENDBRANCH 15 18
ENDBRANCH 13 14
BRANCH 13 23
ATOM     23  CB  HIS M   3      38.445  10.937 -12.410  1.00 50.96 LIG 0.10  C 
BRANCH 23 24
ATOM     24  CG  HIS M   3      38.502  10.214 -13.747  1.00 47.24 LIG 0.06  A 
ATOM     25  CD2 HIS M   3      39.342  10.514 -14.780  1.00 45.19 LIG 0.14  A 
ATOM     26 NE2  HIS M   3      38.924   9.694 -15.699  1.00 45.41 LIG-0.25  NA
ATOM     27  CE1 HIS M   3      37.920   8.962 -15.255  1.00 46.27 LIG 0.23  A 
ATOM     28 ND1  HIS M   3      37.627   9.270 -14.016  1.00 45.18 LIG-0.24  NA
ENDBRANCH 23 24
ENDBRANCH 13 23
ENDBRANCH 9 13
ENDBRANCH 4 6
ENDBRANCH 1 2
BRANCH 1 29
ATOM     29  CB  GLN M   5      35.490  13.495  -5.562  1.00 37.25 LIG 0.04  C 
BRANCH 29 30
ATOM     30  CG  GLN M   5      35.620  12.007  -5.222  1.00 28.05 LIG 0.10  C 
BRANCH 30 31
ATOM     31  CD  GLN M   5      36.858  11.730  -4.405  1.00 28.89 LIG 0.21  C 
ATOM     32  NE2 GLN M   5      36.765  10.793  -3.462  1.00 21.10 LIG-0.37  N 
ATOM     33 22HE GLN M   5      37.453  10.590  -2.988  1.00 21.10 LIG 0.16  HD
ATOM     34 21HE GLN M   5      36.017  10.391  -3.328  1.00 21.10 LIG 0.16  HD
ATOM     35 OE1  GLN M   5      37.911  12.337  -4.638  1.00 23.17 LIG-0.27  OA
ENDBRANCH 30 31
ENDBRANCH 29 30
ENDBRANCH 1 29
BRANCH 1 36
ATOM     36  C   GLN M   5      35.450  15.168  -7.334  1.00 41.58 LIG 0.24  C 
ATOM     37  N   ASN M   6      34.276  15.375  -7.930  1.00 44.37 LIG-0.35  N 
ATOM     38 H    ASN M   6      33.699  14.758  -8.093  1.00 44.37 LIG 0.16  HD
ATOM     39 O    GLN M   5      36.215  16.087  -7.055  1.00 41.62 LIG-0.27  OA
BRANCH 37 40
ATOM     40  CA  ASN M   6      33.880  16.709  -8.360  1.00 43.99 LIG 0.18  C 
BRANCH 40 41
ATOM     41  C   ASN M   6      32.474  16.659  -8.912  1.00 43.58 LIG 0.24  C 
ATOM     42  N   THR M   7      32.092  17.762  -9.542  0.00 42.61 LIG-0.34  N 
ATOM     43 H    THR M   7      32.604  18.447  -9.632  0.00 42.61 LIG 0.16  HD
ATOM     44 O    ASN M   6      31.779  15.655  -8.739  1.00 43.76 LIG-0.27  OA
BRANCH 42 45
ATOM     45  CA  THR M   7      30.796  17.938 -10.141  0.00 41.90 LIG 0.21  C 
BRANCH 45 46
ATOM     46  C   THR M   7      30.761  17.124 -11.441  0.00 41.61 LIG 0.20  C 
ATOM     47 O    THR M   7      30.025  16.136 -11.538  0.00 41.59 LIG-0.65  OA
ATOM     48 OXT  THR M   7      31.476  17.479 -12.370  0.00 41.57 LIG-0.65  OA
ENDBRANCH 45 46
BRANCH 45 49
ATOM     49  CB  THR M   7      30.606  19.468 -10.368  0.00 41.89 LIG 0.15  C 
ATOM     50  CG2 THR M   7      30.111  19.836 -11.768  0.00 41.51 LIG 0.04  C 
BRANCH 49 51
ATOM     51 OG1  THR M   7      29.670  19.901  -9.389  0.00 41.42 LIG-0.39  OA
ATOM     52 HG1  THR M   7      28.961  19.457  -9.463  0.00 41.42 LIG 0.21  HD
ENDBRANCH 49 51
ENDBRANCH 45 49
ENDBRANCH 42 45
ENDBRANCH 40 41
BRANCH 40 53
ATOM     53  CB  ASN M   6      34.849  17.236  -9.431  1.00 43.29 LIG 0.14  C 
BRANCH 53 54
ATOM     54  CG  ASN M   6      34.935  18.763  -9.604  1.00 43.53 LIG 0.22  C 
ATOM     55 OD1  ASN M   6      33.959  19.516  -9.594  1.00 39.33 LIG-0.27  OA
ATOM     56  ND2 ASN M   6      36.106  19.343  -9.820  1.00 45.48 LIG-0.37  N 
ATOM     57 22HD ASN M   6      36.824  18.869  -9.839  1.00 45.48 LIG 0.16  HD
ATOM     58 21HD ASN M   6      36.149  20.194  -9.942  1.00 45.48 LIG 0.16  HD
ENDBRANCH 53 54
ENDBRANCH 40 53
ENDBRANCH 37 40
ENDBRANCH 1 36
TORSDOF 21
ENDMDL
MODEL 11
USER: ADFR SOLUTION from run 6
USER: SCORE 16.502088 LL:  -4.069 LR: -14.270 RR:   0.000 FEB:  -8.006
USER: RMSD 7.983225
USER: SEED 992954
USER: STATUS no improvement in best in 8 clusters for 5 generations
USER: GENES 23
USER: genes 0 Translation |==|  0.51562 0.49422 0.67787
USER: genes 1 Rotation |==|  0.21697 0.32403 0.86697 0.56530
USER: genes 2 Torsion [C]-CA--N-[C] |==|  0.71172
USER: genes 3 Torsion [N]-C--CA-[CB] |==|  0.95639
USER: genes 4 Torsion [N]-C--CA-[N] |==|  0.38653
USER: genes 5 Torsion [C]-CA--N-[C] |==|  0.82422
USER: genes 6 Torsion [N]-C--CA-[N] |==|  0.45774
USER: genes 7 Torsion [C]-CA--CB-[OG] |==|  0.33752
USER: genes 8 Torsion [CA]-CB--OG-[HG] |==|  0.03148
USER: genes 9 Torsion [C]-CA--CB-[CG] |==|  0.55759
USER: genes 10 Torsion [CA]-CB--CG-[CD2] |==|  0.79637
USER: genes 11 Torsion [N]-CA--CB-[CG] |==|  0.76450
USER: genes 12 Torsion [CA]-CB--CG-[CD] |==|  0.23337
USER: genes 13 Torsion [CB]-CG--CD-[NE2] |==|  0.47291
USER: genes 14 Torsion [N]-CA--C-[N] |==|  0.36199
USER: genes 15 Torsion [C]-N--CA-[CB] |==|  0.85979
USER: genes 16 Torsion [N]-CA--C-[N] |==|  0.67929
USER: genes 17 Torsion [C]-N--CA-[C] |==|  0.77415
USER: genes 18 Torsion [N]-CA--C-[O] |==|  0.13600
USER: genes 19 Torsion [N]-CA--CB-[CG2] |==|  0.73607
USER: genes 20 Torsion [CA]-CB--OG1-[HG1] |==|  0.10717
USER: genes 21 Torsion [N]-CA--CB-[CG] |==|  0.58058
USER: genes 22 Torsion [CA]-CB--CG-[OD1] |==|  0.16072
ROOT
ATOM      1  CA  GLN M   5      36.010  13.737  -6.718  1.00 40.28 LIG 0.18  C 
ENDROOT
BRANCH 1 2
ATOM      2  N   GLN M   5      37.403  13.409  -6.903  1.00 45.46 LIG-0.35  N 
ATOM      3 H    GLN M   5      37.963  13.920  -6.497  1.00 45.46 LIG 0.16  HD
ATOM      4  C   PRO M   4      37.725  12.361  -7.673  1.00 50.59 LIG 0.24  C 
ATOM      5 O    PRO M   4      36.833  11.640  -8.150  1.00 50.33 LIG-0.27  OA
BRANCH 4 6
ATOM      6  CA  PRO M   4      39.192  12.036  -7.938  1.00 53.72 LIG 0.18  C 
ATOM      7  N   PRO M   4      39.567  11.689  -9.311  1.00 55.45 LIG-0.34  N 
ATOM      8  CD  PRO M   4      40.664  12.559  -9.753  1.00 56.03 LIG 0.13  C 
ATOM      9  C   HIS M   3      39.119  10.598  -9.971  1.00 54.96 LIG 0.24  C 
ATOM     10  CG  PRO M   4      40.449  13.802  -8.928  1.00 55.72 LIG 0.02  C 
ATOM     11  CB  PRO M   4      40.132  13.186  -7.587  1.00 52.77 LIG 0.04  C 
ATOM     12 O    HIS M   3      38.399   9.751  -9.419  1.00 54.31 LIG-0.27  OA
BRANCH 9 13
ATOM     13  CA  HIS M   3      39.490  10.382 -11.440  1.00 53.95 LIG 0.18  C 
BRANCH 13 14
ATOM     14  N   HIS M   3      39.786   8.973 -11.612  1.00 55.94 LIG-0.34  N 
ATOM     15  C   SER M   2      40.805   8.407 -10.976  0.19 53.43 LIG 0.26  C 
ATOM     16 O    SER M   2      41.633   9.066 -10.332  0.19 53.78 LIG-0.27  OA
ATOM     17 H    HIS M   3      39.256   8.556 -12.146  1.00 55.94 LIG 0.16  HD
BRANCH 15 18
ATOM     18  CA  SER M   2      41.020   6.905 -11.082  0.19 52.30 LIG 0.42  C 
ATOM     19  N   SER M   2      42.369   6.734 -10.598  0.19 52.36 LIG 0.62  N 
BRANCH 18 20
ATOM     20  CB  SER M   2      40.101   6.126 -10.149  0.19 51.64 LIG 0.21  C 
BRANCH 20 21
ATOM     21 OG   SER M   2      39.317   5.236 -10.947  0.19 50.47 LIG-0.40  OA
ATOM     22 HG   SER M   2      39.626   5.212 -11.727  0.19 50.47 LIG 0.21  HD
ENDBRANCH 20 21
ENDBRANCH 18 20
ENDBRANCH 15 18
ENDBRANCH 13 14
BRANCH 13 23
ATOM     23  CB  HIS M   3      38.324  10.806 -12.326  1.00 50.96 LIG 0.10  C 
BRANCH 23 24
ATOM     24  CG  HIS M   3      38.451  10.146 -13.691  1.00 47.24 LIG 0.06  A 
ATOM     25  CD2 HIS M   3      39.351  10.487 -14.660  1.00 45.19 LIG 0.14  A 
ATOM     26 NE2  HIS M   3      38.979   9.715 -15.638  1.00 45.41 LIG-0.25  NA
ATOM     27  CE1 HIS M   3      37.946   8.973 -15.287  1.00 46.27 LIG 0.23  A 
ATOM     28 ND1  HIS M   3      37.586   9.225 -14.053  1.00 45.18 LIG-0.24  NA
ENDBRANCH 23 24
ENDBRANCH 13 23
ENDBRANCH 9 13
ENDBRANCH 4 6
ENDBRANCH 1 2
BRANCH 1 29
ATOM     29  CB  GLN M   5      35.700  14.083  -5.289  1.00 37.25 LIG 0.04  C 
BRANCH 29 30
ATOM     30  CG  GLN M   5      35.424  12.822  -4.466  1.00 28.05 LIG 0.10  C 
BRANCH 30 31
ATOM     31  CD  GLN M   5      36.703  12.192  -3.970  1.00 28.89 LIG 0.21  C 
ATOM     32  NE2 GLN M   5      36.587  11.207  -3.079  1.00 21.10 LIG-0.37  N 
ATOM     33 22HE GLN M   5      37.291  10.808  -2.787  1.00 21.10 LIG 0.16  HD
ATOM     34 21HE GLN M   5      35.810  10.972  -2.797  1.00 21.10 LIG 0.16  HD
ATOM     35 OE1  GLN M   5      37.797  12.568  -4.407  1.00 23.17 LIG-0.27  OA
ENDBRANCH 30 31
ENDBRANCH 29 30
ENDBRANCH 1 29
BRANCH 1 36
ATOM     36  C   GLN M   5      35.690  14.940  -7.571  1.00 41.58 LIG 0.24  C 
ATOM     37  N   ASN M   6      34.620  14.891  -8.367  1.00 44.37 LIG-0.35  N 
ATOM     38 H    ASN M   6      34.063  14.236  -8.391  1.00 44.37 LIG 0.16  HD
ATOM     39 O    GLN M   5      36.421  15.924  -7.515  1.00 41.62 LIG-0.27  OA
BRANCH 37 40
ATOM     40  CA  ASN M   6      34.317  15.985  -9.279  1.00 43.99 LIG 0.18  C 
BRANCH 40 41
ATOM     41  C   ASN M   6      35.333  15.999 -10.398  1.00 43.58 LIG 0.24  C 
ATOM     42  N   THR M   7      36.101  17.079 -10.430  0.00 42.61 LIG-0.34  N 
ATOM     43 H    THR M   7      36.030  17.717  -9.858  0.00 42.61 LIG 0.16  HD
ATOM     44 O    ASN M   6      35.379  15.062 -11.199  1.00 43.76 LIG-0.27  OA
BRANCH 42 45
ATOM     45  CA  THR M   7      37.130  17.306 -11.409  0.00 41.90 LIG 0.21  C 
BRANCH 45 46
ATOM     46  C   THR M   7      38.380  16.530 -10.971  0.00 41.61 LIG 0.20  C 
ATOM     47 O    THR M   7      38.293  15.343 -10.642  0.00 41.59 LIG-0.65  OA
ATOM     48 OXT  THR M   7      39.455  17.118 -10.957  0.00 41.57 LIG-0.65  OA
ENDBRANCH 45 46
BRANCH 45 49
ATOM     49  CB  THR M   7      37.356  18.846 -11.480  0.00 41.89 LIG 0.15  C 
ATOM     50  CG2 THR M   7      36.565  19.544 -12.589  0.00 41.51 LIG 0.04  C 
BRANCH 49 51
ATOM     51 OG1  THR M   7      36.977  19.362 -10.211  0.00 41.42 LIG-0.39  OA
ATOM     52 HG1  THR M   7      37.223  18.832  -9.608  0.00 41.42 LIG 0.21  HD
ENDBRANCH 49 51
ENDBRANCH 45 49
ENDBRANCH 42 45
ENDBRANCH 40 41
BRANCH 40 53
ATOM     53  CB  ASN M   6      34.339  17.328  -8.531  1.00 43.29 LIG 0.14  C 
BRANCH 53 54
ATOM     54  CG  ASN M   6      33.428  18.444  -9.074  1.00 43.53 LIG 0.22  C 
ATOM     55 OD1  ASN M   6      32.206  18.339  -9.201  1.00 39.33 LIG-0.27  OA
ATOM     56  ND2 ASN M   6      33.951  19.591  -9.480  1.00 45.48 LIG-0.37  N 
ATOM     57 22HD ASN M   6      34.799  19.723  -9.417  1.00 45.48 LIG 0.16  HD
ATOM     58 21HD ASN M   6      33.444  20.204  -9.807  1.00 45.48 LIG 0.16  HD
ENDBRANCH 53 54
ENDBRANCH 40 53
ENDBRANCH 37 40
ENDBRANCH 1 36
TORSDOF 21
ENDMDL
MODEL 12
USER: ADFR SOLUTION from run 181
USER: SCORE 16.712996 LL:  -3.734 LR: -14.274 RR:   0.000 FEB:  -8.010
USER: RMSD 8.837688
USER: SEED 180
USER: STATUS no improvement in best in 12 clusters for 5 generations
USER: GENES 23
USER: genes 0 Translation |==|  0.29455 0.54664 0.61582
USER: genes 1 Rotation |==|  0.61577 0.21185 0.11346 0.56447
USER: genes 2 Torsion [C]-CA--N-[C] |==|  0.81130
USER: genes 3 Torsion [N]-C--CA-[CB] |==|  0.48763
USER: genes 4 Torsion [N]-C--CA-[N] |==|  0.37584
USER: genes 5 Torsion [C]-CA--N-[C] |==|  0.70770
USER: genes 6 Torsion [N]-C--CA-[N] |==|  0.85639
USER: genes 7 Torsion [C]-CA--CB-[OG] |==|  0.49061
USER: genes 8 Torsion [CA]-CB--OG-[HG] |==|  0.74196
USER: genes 9 Torsion [C]-CA--CB-[CG] |==|  0.85724
USER: genes 10 Torsion [CA]-CB--CG-[CD2] |==|  0.85979
USER: genes 11 Torsion [N]-CA--CB-[CG] |==|  0.49873
USER: genes 12 Torsion [CA]-CB--CG-[CD] |==|  0.37022
USER: genes 13 Torsion [CB]-CG--CD-[NE2] |==|  0.10615
USER: genes 14 Torsion [N]-CA--C-[N] |==|  0.86680
USER: genes 15 Torsion [C]-N--CA-[CB] |==|  0.15288
USER: genes 16 Torsion [N]-CA--C-[N] |==|  0.48889
USER: genes 17 Torsion [C]-N--CA-[C] |==|  0.77604
USER: genes 18 Torsion [N]-CA--C-[O] |==|  0.42039
USER: genes 19 Torsion [N]-CA--CB-[CG2] |==|  0.67760
USER: genes 20 Torsion [CA]-CB--OG1-[HG1] |==|  0.12306
USER: genes 21 Torsion [N]-CA--CB-[CG] |==|  0.59246
USER: genes 22 Torsion [CA]-CB--CG-[OD1] |==|  0.85042
ROOT
ATOM      1  CA  GLN M   5      31.201  14.642  -8.068  1.00 40.28 LIG 0.18  C 
ENDROOT
BRANCH 1 2
ATOM      2  N   GLN M   5      32.197  13.699  -7.618  1.00 45.46 LIG-0.35  N 
ATOM      3 H    GLN M   5      32.960  13.745  -8.011  1.00 45.46 LIG 0.16  HD
ATOM      4  C   PRO M   4      31.877  12.836  -6.644  1.00 50.59 LIG 0.24  C 
ATOM      5 O    PRO M   4      30.770  12.906  -6.086  1.00 50.33 LIG-0.27  OA
BRANCH 4 6
ATOM      6  CA  PRO M   4      32.891  11.785  -6.198  1.00 53.72 LIG 0.18  C 
ATOM      7  N   PRO M   4      34.210  12.260  -5.775  1.00 55.45 LIG-0.34  N 
ATOM      8  CD  PRO M   4      34.510  11.744  -4.434  1.00 56.03 LIG 0.13  C 
ATOM      9  C   HIS M   3      35.091  12.886  -6.588  1.00 54.96 LIG 0.24  C 
ATOM     10  CG  PRO M   4      33.137  11.566  -3.837  1.00 55.72 LIG 0.02  C 
ATOM     11  CB  PRO M   4      32.409  10.957  -5.010  1.00 52.77 LIG 0.04  C 
ATOM     12 O    HIS M   3      34.868  13.038  -7.799  1.00 54.31 LIG-0.27  OA
BRANCH 9 13
ATOM     13  CA  HIS M   3      36.403  13.436  -6.021  1.00 53.95 LIG 0.18  C 
BRANCH 13 14
ATOM     14  N   HIS M   3      37.463  13.063  -6.938  1.00 55.94 LIG-0.34  N 
ATOM     15  C   SER M   2      38.313  12.088  -6.637  0.19 53.43 LIG 0.26  C 
ATOM     16 O    SER M   2      38.343  11.555  -5.519  0.19 53.78 LIG-0.27  OA
ATOM     17 H    HIS M   3      37.485  13.518  -7.668  1.00 55.94 LIG 0.16  HD
BRANCH 15 18
ATOM     18  CA  SER M   2      39.340  11.640  -7.666  0.19 52.30 LIG 0.42  C 
ATOM     19  N   SER M   2      38.538  11.389  -8.840  0.19 52.36 LIG 0.62  N 
BRANCH 18 20
ATOM     20  CB  SER M   2      40.323  12.750  -8.017  0.19 51.64 LIG 0.21  C 
BRANCH 20 21
ATOM     21 OG   SER M   2      41.289  12.212  -8.923  0.19 50.47 LIG-0.40  OA
ATOM     22 HG   SER M   2      41.953  11.931  -8.492  0.19 50.47 LIG 0.21  HD
ENDBRANCH 20 21
ENDBRANCH 18 20
ENDBRANCH 15 18
ENDBRANCH 13 14
BRANCH 13 23
ATOM     23  CB  HIS M   3      36.304  14.951  -5.890  1.00 50.96 LIG 0.10  C 
BRANCH 23 24
ATOM     24  CG  HIS M   3      35.839  15.551  -7.208  1.00 47.24 LIG 0.06  A 
ATOM     25  CD2 HIS M   3      36.380  15.294  -8.435  1.00 45.19 LIG 0.14  A 
ATOM     26 NE2  HIS M   3      35.710  16.116  -9.188  1.00 45.41 LIG-0.25  NA
ATOM     27  CE1 HIS M   3      34.839  16.805  -8.476  1.00 46.27 LIG 0.23  A 
ATOM     28 ND1  HIS M   3      34.898  16.468  -7.211  1.00 45.18 LIG-0.24  NA
ENDBRANCH 23 24
ENDBRANCH 13 23
ENDBRANCH 9 13
ENDBRANCH 4 6
ENDBRANCH 1 2
BRANCH 1 29
ATOM     29  CB  GLN M   5      31.771  15.638  -9.038  1.00 37.25 LIG 0.04  C 
BRANCH 29 30
ATOM     30  CG  GLN M   5      30.696  16.621  -9.511  1.00 28.05 LIG 0.10  C 
BRANCH 30 31
ATOM     31  CD  GLN M   5      31.186  18.048  -9.458  1.00 28.89 LIG 0.21  C 
ATOM     32  NE2 GLN M   5      32.455  18.266  -9.802  1.00 21.10 LIG-0.37  N 
ATOM     33 22HE GLN M   5      32.767  19.067  -9.806  1.00 21.10 LIG 0.16  HD
ATOM     34 21HE GLN M   5      32.961  17.606 -10.021  1.00 21.10 LIG 0.16  HD
ATOM     35 OE1  GLN M   5      30.417  18.962  -9.135  1.00 23.17 LIG-0.27  OA
ENDBRANCH 30 31
ENDBRANCH 29 30
ENDBRANCH 1 29
BRANCH 1 36
ATOM     36  C   GLN M   5      30.108  13.876  -8.771  1.00 41.58 LIG 0.24  C 
ATOM     37  N   ASN M   6      30.451  12.968  -9.686  1.00 44.37 LIG-0.35  N 
ATOM     38 H    ASN M   6      31.262  12.748  -9.869  1.00 44.37 LIG 0.16  HD
ATOM     39 O    GLN M   5      28.937  14.112  -8.488  1.00 41.62 LIG-0.27  OA
BRANCH 37 40
ATOM     40  CA  ASN M   6      29.437  12.268 -10.460  1.00 43.99 LIG 0.18  C 
BRANCH 40 41
ATOM     41  C   ASN M   6      30.112  11.375 -11.476  1.00 43.58 LIG 0.24  C 
ATOM     42  N   THR M   7      29.282  10.622 -12.184  0.00 42.61 LIG-0.34  N 
ATOM     43 H    THR M   7      28.428  10.644 -12.077  0.00 42.61 LIG 0.16  HD
ATOM     44 O    ASN M   6      31.342  11.374 -11.574  1.00 43.76 LIG-0.27  OA
BRANCH 42 45
ATOM     45  CA  THR M   7      29.703   9.696 -13.201  0.00 41.90 LIG 0.21  C 
BRANCH 45 46
ATOM     46  C   THR M   7      29.970  10.493 -14.485  0.00 41.61 LIG 0.20  C 
ATOM     47 O    THR M   7      30.800  10.092 -15.306  0.00 41.59 LIG-0.65  OA
ATOM     48 OXT  THR M   7      29.340  11.529 -14.669  0.00 41.57 LIG-0.65  OA
ENDBRANCH 45 46
BRANCH 45 49
ATOM     49  CB  THR M   7      28.565   8.643 -13.355  0.00 41.89 LIG 0.15  C 
ATOM     50  CG2 THR M   7      28.975   7.218 -12.975  0.00 41.51 LIG 0.04  C 
BRANCH 49 51
ATOM     51 OG1  THR M   7      27.501   9.084 -12.521  0.00 41.42 LIG-0.39  OA
ATOM     52 HG1  THR M   7      27.388   9.910 -12.624  0.00 41.42 LIG 0.21  HD
ENDBRANCH 49 51
ENDBRANCH 45 49
ENDBRANCH 42 45
ENDBRANCH 40 41
BRANCH 40 53
ATOM     53  CB  ASN M   6      28.516  13.273 -11.171  1.00 43.29 LIG 0.14  C 
BRANCH 53 54
ATOM     54  CG  ASN M   6      27.043  12.864 -11.350  1.00 43.53 LIG 0.22  C 
ATOM     55 OD1  ASN M   6      26.676  11.813 -11.879  1.00 39.33 LIG-0.27  OA
ATOM     56  ND2 ASN M   6      26.074  13.681 -10.962  1.00 45.48 LIG-0.37  N 
ATOM     57 22HD ASN M   6      26.268  14.430 -10.587  1.00 45.48 LIG 0.16  HD
ATOM     58 21HD ASN M   6      25.252  13.462 -11.086  1.00 45.48 LIG 0.16  HD
ENDBRANCH 53 54
ENDBRANCH 40 53
ENDBRANCH 37 40
ENDBRANCH 1 36
TORSDOF 21
ENDMDL
MODEL 13
USER: ADFR SOLUTION from run 158
USER: SCORE 16.305934 LL:  -3.898 LR: -14.212 RR:   0.000 FEB:  -7.948
USER: RMSD 8.390236
USER: SEED 157
USER: STATUS no improvement in best in 9 clusters for 5 generations
USER: GENES 23
USER: genes 0 Translation |==|  0.32110 0.46634 0.59120
USER: genes 1 Rotation |==|  0.28888 0.24160 0.86892 0.55056
USER: genes 2 Torsion [C]-CA--N-[C] |==|  0.18567
USER: genes 3 Torsion [N]-C--CA-[CB] |==|  0.14994
USER: genes 4 Torsion [N]-C--CA-[N] |==|  0.19005
USER: genes 5 Torsion [C]-CA--N-[C] |==|  0.68001
USER: genes 6 Torsion [N]-C--CA-[N] |==|  0.58711
USER: genes 7 Torsion [C]-CA--CB-[OG] |==|  0.26899
USER: genes 8 Torsion [CA]-CB--OG-[HG] |==|  0.13303
USER: genes 9 Torsion [C]-CA--CB-[CG] |==|  0.23213
USER: genes 10 Torsion [CA]-CB--CG-[CD2] |==|  0.56005
USER: genes 11 Torsion [N]-CA--CB-[CG] |==|  0.86701
USER: genes 12 Torsion [CA]-CB--CG-[CD] |==|  0.45663
USER: genes 13 Torsion [CB]-CG--CD-[NE2] |==|  0.75235
USER: genes 14 Torsion [N]-CA--C-[N] |==|  0.05867
USER: genes 15 Torsion [C]-N--CA-[CB] |==|  0.16175
USER: genes 16 Torsion [N]-CA--C-[N] |==|  0.44356
USER: genes 17 Torsion [C]-N--CA-[C] |==|  0.67623
USER: genes 18 Torsion [N]-CA--C-[O] |==|  0.73326
USER: genes 19 Torsion [N]-CA--CB-[CG2] |==|  0.12556
USER: genes 20 Torsion [CA]-CB--OG1-[HG1] |==|  0.89819
USER: genes 21 Torsion [N]-CA--CB-[CG] |==|  0.35023
USER: genes 22 Torsion [CA]-CB--CG-[OD1] |==|  0.28164
ROOT
ATOM      1  CA  GLN M   5      31.779  13.256  -8.603  1.00 40.28 LIG 0.18  C 
ENDROOT
BRANCH 1 2
ATOM      2  N   GLN M   5      33.144  13.473  -9.016  1.00 45.46 LIG-0.35  N 
ATOM      3 H    GLN M   5      33.446  12.926  -9.608  1.00 45.46 LIG 0.16  HD
ATOM      4  C   PRO M   4      33.835  14.481  -8.467  1.00 50.59 LIG 0.24  C 
ATOM      5 O    PRO M   4      33.278  15.262  -7.679  1.00 50.33 LIG-0.27  OA
BRANCH 4 6
ATOM      6  CA  PRO M   4      35.301  14.688  -8.838  1.00 53.72 LIG 0.18  C 
ATOM      7  N   PRO M   4      36.253  13.656  -8.418  1.00 55.45 LIG-0.34  N 
ATOM      8  CD  PRO M   4      37.009  13.184  -9.584  1.00 56.03 LIG 0.13  C 
ATOM      9  C   HIS M   3      36.533  13.357  -7.129  1.00 54.96 LIG 0.24  C 
ATOM     10  CG  PRO M   4      36.048  13.429 -10.719  1.00 55.72 LIG 0.02  C 
ATOM     11  CB  PRO M   4      35.528  14.795 -10.343  1.00 52.77 LIG 0.04  C 
ATOM     12 O    HIS M   3      36.048  14.004  -6.189  1.00 54.31 LIG-0.27  OA
BRANCH 9 13
ATOM     13  CA  HIS M   3      37.466  12.190  -6.797  1.00 53.95 LIG 0.18  C 
BRANCH 13 14
ATOM     14  N   HIS M   3      38.799  12.561  -7.234  1.00 55.94 LIG-0.34  N 
ATOM     15  C   SER M   2      39.407  11.894  -8.208  0.19 53.43 LIG 0.26  C 
ATOM     16 O    SER M   2      38.945  10.849  -8.686  0.19 53.78 LIG-0.27  OA
ATOM     17 H    HIS M   3      39.143  13.229  -6.816  1.00 55.94 LIG 0.16  HD
BRANCH 15 18
ATOM     18  CA  SER M   2      40.754  12.377  -8.726  0.19 52.30 LIG 0.42  C 
ATOM     19  N   SER M   2      40.729  11.986 -10.115  0.19 52.36 LIG 0.62  N 
BRANCH 18 20
ATOM     20  CB  SER M   2      40.873  13.896  -8.684  0.19 51.64 LIG 0.21  C 
BRANCH 20 21
ATOM     21 OG   SER M   2      41.563  14.250  -7.483  0.19 50.47 LIG-0.40  OA
ATOM     22 HG   SER M   2      42.251  13.774  -7.404  0.19 50.47 LIG 0.21  HD
ENDBRANCH 20 21
ENDBRANCH 18 20
ENDBRANCH 15 18
ENDBRANCH 13 14
BRANCH 13 23
ATOM     23  CB  HIS M   3      37.439  11.929  -5.296  1.00 50.96 LIG 0.10  C 
BRANCH 23 24
ATOM     24  CG  HIS M   3      36.248  11.049  -4.950  1.00 47.24 LIG 0.06  A 
ATOM     25  CD2 HIS M   3      35.663  10.947  -3.720  1.00 45.19 LIG 0.14  A 
ATOM     26 NE2  HIS M   3      34.785  10.011  -3.930  1.00 45.41 LIG-0.25  NA
ATOM     27  CE1 HIS M   3      34.836   9.588  -5.179  1.00 46.27 LIG 0.23  A 
ATOM     28 ND1  HIS M   3      35.758  10.230  -5.854  1.00 45.18 LIG-0.24  NA
ENDBRANCH 23 24
ENDBRANCH 13 23
ENDBRANCH 9 13
ENDBRANCH 4 6
ENDBRANCH 1 2
BRANCH 1 29
ATOM     29  CB  GLN M   5      31.653  13.163  -7.109  1.00 37.25 LIG 0.04  C 
BRANCH 29 30
ATOM     30  CG  GLN M   5      32.702  12.212  -6.527  1.00 28.05 LIG 0.10  C 
BRANCH 30 31
ATOM     31  CD  GLN M   5      32.846  12.389  -5.035  1.00 28.89 LIG 0.21  C 
ATOM     32  NE2 GLN M   5      33.732  13.291  -4.614  1.00 21.10 LIG-0.37  N 
ATOM     33 22HE GLN M   5      33.830  13.437  -3.772  1.00 21.10 LIG 0.16  HD
ATOM     34 21HE GLN M   5      34.206  13.727  -5.184  1.00 21.10 LIG 0.16  HD
ATOM     35 OE1  GLN M   5      32.140  11.736  -4.256  1.00 23.17 LIG-0.27  OA
ENDBRANCH 30 31
ENDBRANCH 29 30
ENDBRANCH 1 29
BRANCH 1 36
ATOM     36  C   GLN M   5      30.952  14.428  -9.071  1.00 41.58 LIG 0.24  C 
ATOM     37  N   ASN M   6      31.415  15.177 -10.073  1.00 44.37 LIG-0.35  N 
ATOM     38 H    ASN M   6      32.135  15.007 -10.512  1.00 44.37 LIG 0.16  HD
ATOM     39 O    GLN M   5      29.883  14.664  -8.516  1.00 41.62 LIG-0.27  OA
BRANCH 37 40
ATOM     40  CA  ASN M   6      30.704  16.373 -10.503  1.00 43.99 LIG 0.18  C 
BRANCH 40 41
ATOM     41  C   ASN M   6      31.461  17.023 -11.638  1.00 43.58 LIG 0.24  C 
ATOM     42  N   THR M   7      30.735  17.845 -12.383  0.00 42.61 LIG-0.34  N 
ATOM     43 H    THR M   7      29.903  17.998 -12.229  0.00 42.61 LIG 0.16  HD
ATOM     44 O    ASN M   6      32.651  16.752 -11.820  1.00 43.76 LIG-0.27  OA
BRANCH 42 45
ATOM     45  CA  THR M   7      31.246  18.567 -13.517  0.00 41.90 LIG 0.21  C 
BRANCH 45 46
ATOM     46  C   THR M   7      31.153  20.067 -13.204  0.00 41.61 LIG 0.20  C 
ATOM     47 O    THR M   7      30.186  20.727 -13.598  0.00 41.59 LIG-0.65  OA
ATOM     48 OXT  THR M   7      32.057  20.584 -12.559  0.00 41.57 LIG-0.65  OA
ENDBRANCH 45 46
BRANCH 45 49
ATOM     49  CB  THR M   7      30.391  18.141 -14.748  0.00 41.89 LIG 0.15  C 
ATOM     50  CG2 THR M   7      28.884  18.111 -14.484  0.00 41.51 LIG 0.04  C 
BRANCH 49 51
ATOM     51 OG1  THR M   7      30.688  19.074 -15.779  0.00 41.42 LIG-0.39  OA
ATOM     52 HG1  THR M   7      30.795  19.837 -15.444  0.00 41.42 LIG 0.21  HD
ENDBRANCH 49 51
ENDBRANCH 45 49
ENDBRANCH 42 45
ENDBRANCH 40 41
BRANCH 40 53
ATOM     53  CB  ASN M   6      30.559  17.359  -9.332  1.00 43.29 LIG 0.14  C 
BRANCH 53 54
ATOM     54  CG  ASN M   6      31.065  18.795  -9.563  1.00 43.53 LIG 0.22  C 
ATOM     55 OD1  ASN M   6      30.333  19.754  -9.815  1.00 39.33 LIG-0.27  OA
ATOM     56  ND2 ASN M   6      32.364  19.054  -9.540  1.00 45.48 LIG-0.37  N 
ATOM     57 22HD ASN M   6      32.925  18.424  -9.370  1.00 45.48 LIG 0.16  HD
ATOM     58 21HD ASN M   6      32.646  19.852  -9.694  1.00 45.48 LIG 0.16  HD
ENDBRANCH 53 54
ENDBRANCH 40 53
ENDBRANCH 37 40
ENDBRANCH 1 36
TORSDOF 21
ENDMDL
MODEL 14
USER: ADFR SOLUTION from run 56
USER: SCORE 17.347688 LL:  -4.004 LR: -14.158 RR:   0.000 FEB:  -7.894
USER: RMSD 8.585915
USER: SEED 55
USER: STATUS no improvement in best in 9 clusters for 5 generations
USER: GENES 23
USER: genes 0 Translation |==|  0.56045 0.39072 0.72269
USER: genes 1 Rotation |==|  0.30732 0.24917 0.88031 0.57296
USER: genes 2 Torsion [C]-CA--N-[C] |==|  0.77349
USER: genes 3 Torsion [N]-C--CA-[CB] |==|  0.83954
USER: genes 4 Torsion [N]-C--CA-[N] |==|  0.45990
USER: genes 5 Torsion [C]-CA--N-[C] |==|  0.82037
USER: genes 6 Torsion [N]-C--CA-[N] |==|  0.44724
USER: genes 7 Torsion [C]-CA--CB-[OG] |==|  0.28714
USER: genes 8 Torsion [CA]-CB--OG-[HG] |==|  0.09759
USER: genes 9 Torsion [C]-CA--CB-[CG] |==|  0.54048
USER: genes 10 Torsion [CA]-CB--CG-[CD2] |==|  0.83916
USER: genes 11 Torsion [N]-CA--CB-[CG] |==|  0.56045
USER: genes 12 Torsion [CA]-CB--CG-[CD] |==|  0.12866
USER: genes 13 Torsion [CB]-CG--CD-[NE2] |==|  0.19213
USER: genes 14 Torsion [N]-CA--C-[N] |==|  0.37673
USER: genes 15 Torsion [C]-N--CA-[CB] |==|  0.17656
USER: genes 16 Torsion [N]-CA--C-[N] |==|  0.66646
USER: genes 17 Torsion [C]-N--CA-[C] |==|  0.54493
USER: genes 18 Torsion [N]-CA--C-[O] |==|  0.96460
USER: genes 19 Torsion [N]-CA--CB-[CG2] |==|  0.19877
USER: genes 20 Torsion [CA]-CB--OG1-[HG1] |==|  0.90690
USER: genes 21 Torsion [N]-CA--CB-[CG] |==|  0.56112
USER: genes 22 Torsion [CA]-CB--CG-[OD1] |==|  0.21881
ROOT
ATOM      1  CA  GLN M   5      36.985  11.952  -5.743  1.00 40.28 LIG 0.18  C 
ENDROOT
BRANCH 1 2
ATOM      2  N   GLN M   5      38.296  12.119  -6.321  1.00 45.46 LIG-0.35  N 
ATOM      3 H    GLN M   5      38.902  12.420  -5.790  1.00 45.46 LIG 0.16  HD
ATOM      4  C   PRO M   4      38.480  11.805  -7.611  1.00 50.59 LIG 0.24  C 
ATOM      5 O    PRO M   4      37.555  11.303  -8.269  1.00 50.33 LIG-0.27  OA
BRANCH 4 6
ATOM      6  CA  PRO M   4      39.841  12.038  -8.262  1.00 53.72 LIG 0.18  C 
ATOM      7  N   PRO M   4      39.971  11.710  -9.684  1.00 55.45 LIG-0.34  N 
ATOM      8  CD  PRO M   4      40.484  12.878 -10.410  1.00 56.03 LIG 0.13  C 
ATOM      9  C   HIS M   3      39.846  10.464 -10.193  1.00 54.96 LIG 0.24  C 
ATOM     10  CG  PRO M   4      40.004  14.029  -9.563  1.00 55.72 LIG 0.02  C 
ATOM     11  CB  PRO M   4      40.301  13.491  -8.184  1.00 52.77 LIG 0.04  C 
ATOM     12 O    HIS M   3      39.683   9.474  -9.464  1.00 54.31 LIG-0.27  OA
BRANCH 9 13
ATOM     13  CA  HIS M   3      39.896  10.245 -11.708  1.00 53.95 LIG 0.18  C 
BRANCH 13 14
ATOM     14  N   HIS M   3      40.083   8.825 -11.936  1.00 55.94 LIG-0.34  N 
ATOM     15  C   SER M   2      41.196   8.212 -11.546  0.19 53.43 LIG 0.26  C 
ATOM     16 O    SER M   2      42.177   8.831 -11.112  0.19 53.78 LIG-0.27  OA
ATOM     17 H    HIS M   3      39.428   8.434 -12.332  1.00 55.94 LIG 0.16  HD
BRANCH 15 18
ATOM     18  CA  SER M   2      41.315   6.703 -11.692  0.19 52.30 LIG 0.42  C 
ATOM     19  N   SER M   2      42.740   6.480 -11.620  0.19 52.36 LIG 0.62  N 
BRANCH 18 20
ATOM     20  CB  SER M   2      40.681   5.961 -10.521  0.19 51.64 LIG 0.21  C 
BRANCH 20 21
ATOM     21 OG   SER M   2      39.422   5.443 -10.959  0.19 50.47 LIG-0.40  OA
ATOM     22 HG   SER M   2      39.479   5.212 -11.765  0.19 50.47 LIG 0.21  HD
ENDBRANCH 20 21
ENDBRANCH 18 20
ENDBRANCH 15 18
ENDBRANCH 13 14
BRANCH 13 23
ATOM     23  CB  HIS M   3      38.594  10.730 -12.335  1.00 50.96 LIG 0.10  C 
BRANCH 23 24
ATOM     24  CG  HIS M   3      38.480  10.198 -13.756  1.00 47.24 LIG 0.06  A 
ATOM     25  CD2 HIS M   3      39.379  10.413 -14.761  1.00 45.19 LIG 0.14  A 
ATOM     26 NE2  HIS M   3      38.777   9.852 -15.768  1.00 45.41 LIG-0.25  NA
ATOM     27  CE1 HIS M   3      37.617   9.342 -15.399  1.00 46.27 LIG 0.23  A 
ATOM     28 ND1  HIS M   3      37.399   9.547 -14.124  1.00 45.18 LIG-0.24  NA
ENDBRANCH 23 24
ENDBRANCH 13 23
ENDBRANCH 9 13
ENDBRANCH 4 6
ENDBRANCH 1 2
BRANCH 1 29
ATOM     29  CB  GLN M   5      37.040  11.861  -4.245  1.00 37.25 LIG 0.04  C 
BRANCH 29 30
ATOM     30  CG  GLN M   5      35.793  11.168  -3.690  1.00 28.05 LIG 0.10  C 
BRANCH 30 31
ATOM     31  CD  GLN M   5      35.465   9.912  -4.461  1.00 28.89 LIG 0.21  C 
ATOM     32  NE2 GLN M   5      36.303   8.884  -4.329  1.00 21.10 LIG-0.37  N 
ATOM     33 22HE GLN M   5      36.141   8.144  -4.735  1.00 21.10 LIG 0.16  HD
ATOM     34 21HE GLN M   5      37.004   8.962  -3.838  1.00 21.10 LIG 0.16  HD
ATOM     35 OE1  GLN M   5      34.442   9.853  -5.155  1.00 23.17 LIG-0.27  OA
ENDBRANCH 30 31
ENDBRANCH 29 30
ENDBRANCH 1 29
BRANCH 1 36
ATOM     36  C   GLN M   5      36.150  13.154  -6.109  1.00 41.58 LIG 0.24  C 
ATOM     37  N   ASN M   6      34.897  12.958  -6.524  1.00 44.37 LIG-0.35  N 
ATOM     38 H    ASN M   6      34.509  12.191  -6.549  1.00 44.37 LIG 0.16  HD
ATOM     39 O    GLN M   5      36.644  14.274  -6.021  1.00 41.62 LIG-0.27  OA
BRANCH 37 40
ATOM     40  CA  ASN M   6      34.077  14.073  -6.977  1.00 43.99 LIG 0.18  C 
BRANCH 40 41
ATOM     41  C   ASN M   6      32.680  13.577  -7.272  1.00 43.58 LIG 0.24  C 
ATOM     42  N   THR M   7      32.285  13.760  -8.524  0.00 42.61 LIG-0.34  N 
ATOM     43 H    THR M   7      32.785  14.127  -9.120  0.00 42.61 LIG 0.16  HD
ATOM     44 O    ASN M   6      32.002  13.074  -6.372  1.00 43.76 LIG-0.27  OA
BRANCH 42 45
ATOM     45  CA  THR M   7      30.994  13.371  -9.026  0.00 41.90 LIG 0.21  C 
BRANCH 45 46
ATOM     46  C   THR M   7      31.064  13.367 -10.559  0.00 41.61 LIG 0.20  C 
ATOM     47 O    THR M   7      32.023  13.885 -11.141  0.00 41.59 LIG-0.65  OA
ATOM     48 OXT  THR M   7      30.150  12.840 -11.182  0.00 41.57 LIG-0.65  OA
ENDBRANCH 45 46
BRANCH 45 49
ATOM     49  CB  THR M   7      29.962  14.392  -8.460  0.00 41.89 LIG 0.15  C 
ATOM     50  CG2 THR M   7      30.053  15.786  -9.085  0.00 41.51 LIG 0.04  C 
BRANCH 49 51
ATOM     51 OG1  THR M   7      28.677  13.832  -8.701  0.00 41.42 LIG-0.39  OA
ATOM     52 HG1  THR M   7      28.692  13.396  -9.418  0.00 41.42 LIG 0.21  HD
ENDBRANCH 49 51
ENDBRANCH 45 49
ENDBRANCH 42 45
ENDBRANCH 40 41
BRANCH 40 53
ATOM     53  CB  ASN M   6      34.688  14.709  -8.236  1.00 43.29 LIG 0.14  C 
BRANCH 53 54
ATOM     54  CG  ASN M   6      34.286  16.162  -8.549  1.00 43.53 LIG 0.22  C 
ATOM     55 OD1  ASN M   6      34.764  17.148  -7.985  1.00 39.33 LIG-0.27  OA
ATOM     56  ND2 ASN M   6      33.342  16.413  -9.444  1.00 45.48 LIG-0.37  N 
ATOM     57 22HD ASN M   6      32.971  15.764  -9.870  1.00 45.48 LIG 0.16  HD
ATOM     58 21HD ASN M   6      33.100  17.224  -9.599  1.00 45.48 LIG 0.16  HD
ENDBRANCH 53 54
ENDBRANCH 40 53
ENDBRANCH 37 40
ENDBRANCH 1 36
TORSDOF 21
ENDMDL
MODEL 15
USER: ADFR SOLUTION from run 114
USER: SCORE 17.287991 LL:  -4.738 LR: -14.059 RR:   0.000 FEB:  -7.794
USER: RMSD 7.791472
USER: SEED 113
USER: STATUS no improvement in best in 24 clusters for 5 generations
USER: GENES 23
USER: genes 0 Translation |==|  0.41701 0.63856 0.55425
USER: genes 1 Rotation |==|  0.18426 0.70381 0.80151 0.63367
USER: genes 2 Torsion [C]-CA--N-[C] |==|  0.73443
USER: genes 3 Torsion [N]-C--CA-[CB] |==|  0.34415
USER: genes 4 Torsion [N]-C--CA-[N] |==|  0.17340
USER: genes 5 Torsion [C]-CA--N-[C] |==|  0.60868
USER: genes 6 Torsion [N]-C--CA-[N] |==|  0.76650
USER: genes 7 Torsion [C]-CA--CB-[OG] |==|  0.45867
USER: genes 8 Torsion [CA]-CB--OG-[HG] |==|  0.93981
USER: genes 9 Torsion [C]-CA--CB-[CG] |==|  0.35073
USER: genes 10 Torsion [CA]-CB--CG-[CD2] |==|  0.83349
USER: genes 11 Torsion [N]-CA--CB-[CG] |==|  0.57991
USER: genes 12 Torsion [CA]-CB--CG-[CD] |==|  0.63357
USER: genes 13 Torsion [CB]-CG--CD-[NE2] |==|  0.53311
USER: genes 14 Torsion [N]-CA--C-[N] |==|  0.03021
USER: genes 15 Torsion [C]-N--CA-[CB] |==|  0.20690
USER: genes 16 Torsion [N]-CA--C-[N] |==|  0.58448
USER: genes 17 Torsion [C]-N--CA-[C] |==|  0.67852
USER: genes 18 Torsion [N]-CA--C-[O] |==|  0.02185
USER: genes 19 Torsion [N]-CA--CB-[CG2] |==|  0.17220
USER: genes 20 Torsion [CA]-CB--OG1-[HG1] |==|  0.85442
USER: genes 21 Torsion [N]-CA--CB-[CG] |==|  0.11434
USER: genes 22 Torsion [CA]-CB--CG-[OD1] |==|  0.76114
ROOT
ATOM      1  CA  GLN M   5      33.865  16.227  -9.407  1.00 40.28 LIG 0.18  C 
ENDROOT
BRANCH 1 2
ATOM      2  N   GLN M   5      33.999  15.004  -8.654  1.00 45.46 LIG-0.35  N 
ATOM      3 H    GLN M   5      34.792  14.821  -8.377  1.00 45.46 LIG 0.16  HD
ATOM      4  C   PRO M   4      32.910  14.252  -8.441  1.00 50.59 LIG 0.24  C 
ATOM      5 O    PRO M   4      31.795  14.649  -8.817  1.00 50.33 LIG-0.27  OA
BRANCH 4 6
ATOM      6  CA  PRO M   4      33.038  12.920  -7.706  1.00 53.72 LIG 0.18  C 
ATOM      7  N   PRO M   4      34.363  12.559  -7.196  1.00 55.45 LIG-0.34  N 
ATOM      8  CD  PRO M   4      34.270  12.257  -5.762  1.00 56.03 LIG 0.13  C 
ATOM      9  C   HIS M   3      35.443  12.329  -7.976  1.00 54.96 LIG 0.24  C 
ATOM     10  CG  PRO M   4      33.088  13.087  -5.329  1.00 55.72 LIG 0.02  C 
ATOM     11  CB  PRO M   4      32.141  12.829  -6.475  1.00 52.77 LIG 0.04  C 
ATOM     12 O    HIS M   3      35.368  12.334  -9.214  1.00 54.31 LIG-0.27  OA
BRANCH 9 13
ATOM     13  CA  HIS M   3      36.808  12.059  -7.337  1.00 53.95 LIG 0.18  C 
BRANCH 13 14
ATOM     14  N   HIS M   3      36.691  10.841  -6.558  1.00 55.94 LIG-0.34  N 
ATOM     15  C   SER M   2      37.292  10.724  -5.380  0.19 53.43 LIG 0.26  C 
ATOM     16 O    SER M   2      38.091  11.571  -4.956  0.19 53.78 LIG-0.27  OA
ATOM     17 H    HIS M   3      36.212  10.226  -6.921  1.00 55.94 LIG 0.16  HD
BRANCH 15 18
ATOM     18  CA  SER M   2      37.055   9.483  -4.533  0.19 52.30 LIG 0.42  C 
ATOM     19  N   SER M   2      35.828   9.792  -3.837  0.19 52.36 LIG 0.62  N 
BRANCH 18 20
ATOM     20  CB  SER M   2      36.795   8.247  -5.386  0.19 51.64 LIG 0.21  C 
BRANCH 20 21
ATOM     21 OG   SER M   2      36.933   7.097  -4.547  0.19 50.47 LIG-0.40  OA
ATOM     22 HG   SER M   2      37.400   7.293  -3.877  0.19 50.47 LIG 0.21  HD
ENDBRANCH 20 21
ENDBRANCH 18 20
ENDBRANCH 15 18
ENDBRANCH 13 14
BRANCH 13 23
ATOM     23  CB  HIS M   3      37.860  11.906  -8.430  1.00 50.96 LIG 0.10  C 
BRANCH 23 24
ATOM     24  CG  HIS M   3      39.014  12.862  -8.169  1.00 47.24 LIG 0.06  A 
ATOM     25  CD2 HIS M   3      38.921  14.222  -8.093  1.00 45.19 LIG 0.14  A 
ATOM     26 NE2  HIS M   3      40.171  14.558  -7.966  1.00 45.41 LIG-0.25  NA
ATOM     27  CE1 HIS M   3      40.948  13.492  -7.962  1.00 46.27 LIG 0.23  A 
ATOM     28 ND1  HIS M   3      40.241  12.396  -8.090  1.00 45.18 LIG-0.24  NA
ENDBRANCH 23 24
ENDBRANCH 13 23
ENDBRANCH 9 13
ENDBRANCH 4 6
ENDBRANCH 1 2
BRANCH 1 29
ATOM     29  CB  GLN M   5      34.793  17.298  -8.907  1.00 37.25 LIG 0.04  C 
BRANCH 29 30
ATOM     30  CG  GLN M   5      34.212  18.691  -9.159  1.00 28.05 LIG 0.10  C 
BRANCH 30 31
ATOM     31  CD  GLN M   5      35.228  19.612  -9.789  1.00 28.89 LIG 0.21  C 
ATOM     32  NE2 GLN M   5      34.926  20.910  -9.833  1.00 21.10 LIG-0.37  N 
ATOM     33 22HE GLN M   5      35.487  21.470 -10.165  1.00 21.10 LIG 0.16  HD
ATOM     34 21HE GLN M   5      34.170  21.185  -9.529  1.00 21.10 LIG 0.16  HD
ATOM     35 OE1  GLN M   5      36.301  19.165 -10.212  1.00 23.17 LIG-0.27  OA
ENDBRANCH 30 31
ENDBRANCH 29 30
ENDBRANCH 1 29
BRANCH 1 36
ATOM     36  C   GLN M   5      34.215  15.938 -10.846  1.00 41.58 LIG 0.24  C 
ATOM     37  N   ASN M   6      34.352  14.668 -11.226  1.00 44.37 LIG-0.35  N 
ATOM     38 H    ASN M   6      34.203  13.990 -10.718  1.00 44.37 LIG 0.16  HD
ATOM     39 O    GLN M   5      34.369  16.876 -11.623  1.00 41.62 LIG-0.27  OA
BRANCH 37 40
ATOM     40  CA  ASN M   6      34.779  14.334 -12.578  1.00 43.99 LIG 0.18  C 
BRANCH 40 41
ATOM     41  C   ASN M   6      34.481  12.878 -12.851  1.00 43.58 LIG 0.24  C 
ATOM     42  N   THR M   7      35.320  12.294 -13.696  0.00 42.61 LIG-0.34  N 
ATOM     43 H    THR M   7      35.982  12.710 -14.055  0.00 42.61 LIG 0.16  HD
ATOM     44 O    ASN M   6      33.508  12.338 -12.319  1.00 43.76 LIG-0.27  OA
BRANCH 42 45
ATOM     45  CA  THR M   7      35.224  10.919 -14.103  0.00 41.90 LIG 0.21  C 
BRANCH 45 46
ATOM     46  C   THR M   7      36.474  10.187 -13.596  0.00 41.61 LIG 0.20  C 
ATOM     47 O    THR M   7      37.265  10.756 -12.838  0.00 41.59 LIG-0.65  OA
ATOM     48 OXT  THR M   7      36.662   9.032 -13.962  0.00 41.57 LIG-0.65  OA
ENDBRANCH 45 46
BRANCH 45 49
ATOM     49  CB  THR M   7      35.096  10.913 -15.656  0.00 41.89 LIG 0.15  C 
ATOM     50  CG2 THR M   7      36.302  11.510 -16.386  0.00 41.51 LIG 0.04  C 
BRANCH 49 51
ATOM     51 OG1  THR M   7      34.920   9.554 -16.035  0.00 41.42 LIG-0.39  OA
ATOM     52 HG1  THR M   7      35.531   9.087 -15.697  0.00 41.42 LIG 0.21  HD
ENDBRANCH 49 51
ENDBRANCH 45 49
ENDBRANCH 42 45
ENDBRANCH 40 41
BRANCH 40 53
ATOM     53  CB  ASN M   6      36.283  14.606 -12.746  1.00 43.29 LIG 0.14  C 
BRANCH 53 54
ATOM     54  CG  ASN M   6      37.200  14.205 -11.577  1.00 43.53 LIG 0.22  C 
ATOM     55 OD1  ASN M   6      37.435  14.925 -10.604  1.00 39.33 LIG-0.27  OA
ATOM     56  ND2 ASN M   6      37.829  13.039 -11.594  1.00 45.48 LIG-0.37  N 
ATOM     57 22HD ASN M   6      37.705  12.493 -12.247  1.00 45.48 LIG 0.16  HD
ATOM     58 21HD ASN M   6      38.361  12.828 -10.952  1.00 45.48 LIG 0.16  HD
ENDBRANCH 53 54
ENDBRANCH 40 53
ENDBRANCH 37 40
ENDBRANCH 1 36
TORSDOF 21
ENDMDL
MODEL 16
USER: ADFR SOLUTION from run 118
USER: SCORE 16.868593 LL:  -3.205 LR: -14.057 RR:   0.000 FEB:  -7.793
USER: RMSD 8.587481
USER: SEED 117
USER: STATUS no improvement in best in 14 clusters for 5 generations
USER: GENES 23
USER: genes 0 Translation |==|  0.55748 0.44364 0.70347
USER: genes 1 Rotation |==|  0.24575 0.25134 0.81978 0.64581
USER: genes 2 Torsion [C]-CA--N-[C] |==|  0.75622
USER: genes 3 Torsion [N]-C--CA-[CB] |==|  0.81629
USER: genes 4 Torsion [N]-C--CA-[N] |==|  0.41830
USER: genes 5 Torsion [C]-CA--N-[C] |==|  0.81889
USER: genes 6 Torsion [N]-C--CA-[N] |==|  0.47186
USER: genes 7 Torsion [C]-CA--CB-[OG] |==|  0.27102
USER: genes 8 Torsion [CA]-CB--OG-[HG] |==|  0.87137
USER: genes 9 Torsion [C]-CA--CB-[CG] |==|  0.54058
USER: genes 10 Torsion [CA]-CB--CG-[CD2] |==|  0.89782
USER: genes 11 Torsion [N]-CA--CB-[CG] |==|  0.80164
USER: genes 12 Torsion [CA]-CB--CG-[CD] |==|  0.71273
USER: genes 13 Torsion [CB]-CG--CD-[NE2] |==|  0.72797
USER: genes 14 Torsion [N]-CA--C-[N] |==|  0.47783
USER: genes 15 Torsion [C]-N--CA-[CB] |==|  0.86641
USER: genes 16 Torsion [N]-CA--C-[N] |==|  0.39444
USER: genes 17 Torsion [C]-N--CA-[C] |==|  0.75349
USER: genes 18 Torsion [N]-CA--C-[O] |==|  0.89808
USER: genes 19 Torsion [N]-CA--CB-[CG2] |==|  0.85961
USER: genes 20 Torsion [CA]-CB--OG1-[HG1] |==|  0.11165
USER: genes 21 Torsion [N]-CA--CB-[CG] |==|  0.54388
USER: genes 22 Torsion [CA]-CB--CG-[OD1] |==|  0.29002
ROOT
ATOM      1  CA  GLN M   5      36.920  12.865  -6.162  1.00 40.28 LIG 0.18  C 
ENDROOT
BRANCH 1 2
ATOM      2  N   GLN M   5      38.280  12.602  -6.566  1.00 45.46 LIG-0.35  N 
ATOM      3 H    GLN M   5      38.869  12.638  -5.941  1.00 45.46 LIG 0.16  HD
ATOM      4  C   PRO M   4      38.531  12.329  -7.854  1.00 50.59 LIG 0.24  C 
ATOM      5 O    PRO M   4      37.595  12.224  -8.663  1.00 50.33 LIG-0.27  OA
BRANCH 4 6
ATOM      6  CA  PRO M   4      39.969  12.115  -8.318  1.00 53.72 LIG 0.18  C 
ATOM      7  N   PRO M   4      40.171  11.672  -9.700  1.00 55.45 LIG-0.34  N 
ATOM      8  CD  PRO M   4      41.092  12.591 -10.379  1.00 56.03 LIG 0.13  C 
ATOM      9  C   HIS M   3      39.747  10.485 -10.189  1.00 54.96 LIG 0.24  C 
ATOM     10  CG  PRO M   4      40.872  13.884  -9.636  1.00 55.72 LIG 0.02  C 
ATOM     11  CB  PRO M   4      40.824  13.375  -8.216  1.00 52.77 LIG 0.04  C 
ATOM     12 O    HIS M   3      39.211   9.634  -9.463  1.00 54.31 LIG-0.27  OA
BRANCH 9 13
ATOM     13  CA  HIS M   3      39.917  10.161 -11.676  1.00 53.95 LIG 0.18  C 
BRANCH 13 14
ATOM     14  N   HIS M   3      40.061   8.723 -11.795  1.00 55.94 LIG-0.34  N 
ATOM     15  C   SER M   2      41.113   8.098 -11.280  0.19 53.43 LIG 0.26  C 
ATOM     16 O    SER M   2      42.084   8.709 -10.811  0.19 53.78 LIG-0.27  OA
ATOM     17 H    HIS M   3      39.422   8.331 -12.215  1.00 55.94 LIG 0.16  HD
BRANCH 15 18
ATOM     18  CA  SER M   2      41.180   6.579 -11.316  0.19 52.30 LIG 0.42  C 
ATOM     19  N   SER M   2      42.536   6.302 -10.907  0.19 52.36 LIG 0.62  N 
BRANCH 18 20
ATOM     20  CB  SER M   2      40.256   5.939 -10.287  0.19 51.64 LIG 0.21  C 
BRANCH 20 21
ATOM     21 OG   SER M   2      39.045   5.570 -10.953  0.19 50.47 LIG-0.40  OA
ATOM     22 HG   SER M   2      38.784   6.207 -11.435  0.19 50.47 LIG 0.21  HD
ENDBRANCH 20 21
ENDBRANCH 18 20
ENDBRANCH 15 18
ENDBRANCH 13 14
BRANCH 13 23
ATOM     23  CB  HIS M   3      38.696  10.652 -12.445  1.00 50.96 LIG 0.10  C 
BRANCH 23 24
ATOM     24  CG  HIS M   3      38.680  10.030 -13.833  1.00 47.24 LIG 0.06  A 
ATOM     25  CD2 HIS M   3      39.777   9.782 -14.607  1.00 45.19 LIG 0.14  A 
ATOM     26 NE2  HIS M   3      39.225   9.359 -15.706  1.00 45.41 LIG-0.25  NA
ATOM     27  CE1 HIS M   3      37.910   9.350 -15.600  1.00 46.27 LIG 0.23  A 
ATOM     28 ND1  HIS M   3      37.532   9.772 -14.419  1.00 45.18 LIG-0.24  NA
ENDBRANCH 23 24
ENDBRANCH 13 23
ENDBRANCH 9 13
ENDBRANCH 4 6
ENDBRANCH 1 2
BRANCH 1 29
ATOM     29  CB  GLN M   5      36.688  12.520  -4.718  1.00 37.25 LIG 0.04  C 
BRANCH 29 30
ATOM     30  CG  GLN M   5      36.689  11.003  -4.508  1.00 28.05 LIG 0.10  C 
BRANCH 30 31
ATOM     31  CD  GLN M   5      35.289  10.465  -4.337  1.00 28.89 LIG 0.21  C 
ATOM     32  NE2 GLN M   5      34.867  10.258  -3.090  1.00 21.10 LIG-0.37  N 
ATOM     33 22HE GLN M   5      34.069   9.972  -2.949  1.00 21.10 LIG 0.16  HD
ATOM     34 21HE GLN M   5      35.393  10.411  -2.427  1.00 21.10 LIG 0.16  HD
ATOM     35 OE1  GLN M   5      34.572  10.261  -5.325  1.00 23.17 LIG-0.27  OA
ENDBRANCH 30 31
ENDBRANCH 29 30
ENDBRANCH 1 29
BRANCH 1 36
ATOM     36  C   GLN M   5      36.649  14.338  -6.340  1.00 41.58 LIG 0.24  C 
ATOM     37  N   ASN M   6      35.402  14.781  -6.180  1.00 44.37 LIG-0.35  N 
ATOM     38 H    ASN M   6      34.741  14.291  -5.928  1.00 44.37 LIG 0.16  HD
ATOM     39 O    GLN M   5      37.578  15.085  -6.633  1.00 41.62 LIG-0.27  OA
BRANCH 37 40
ATOM     40  CA  ASN M   6      35.066  16.176  -6.431  1.00 43.99 LIG 0.18  C 
BRANCH 40 41
ATOM     41  C   ASN M   6      35.070  16.430  -7.921  1.00 43.58 LIG 0.24  C 
ATOM     42  N   THR M   7      34.119  17.252  -8.341  0.00 42.61 LIG-0.34  N 
ATOM     43 H    THR M   7      33.548  17.613  -7.808  0.00 42.61 LIG 0.16  HD
ATOM     44 O    ASN M   6      35.904  15.872  -8.639  1.00 43.76 LIG-0.27  OA
BRANCH 42 45
ATOM     45  CA  THR M   7      33.931  17.631  -9.716  0.00 41.90 LIG 0.21  C 
BRANCH 45 46
ATOM     46  C   THR M   7      34.791  18.874  -9.985  0.00 41.61 LIG 0.20  C 
ATOM     47 O    THR M   7      34.926  19.739  -9.115  0.00 41.59 LIG-0.65  OA
ATOM     48 OXT  THR M   7      35.335  18.980 -11.078  0.00 41.57 LIG-0.65  OA
ENDBRANCH 45 46
BRANCH 45 49
ATOM     49  CB  THR M   7      32.406  17.884  -9.913  0.00 41.89 LIG 0.15  C 
ATOM     50  CG2 THR M   7      31.513  16.749  -9.407  0.00 41.51 LIG 0.04  C 
BRANCH 49 51
ATOM     51 OG1  THR M   7      32.110  19.087  -9.216  0.00 41.42 LIG-0.39  OA
ATOM     52 HG1  THR M   7      32.731  19.640  -9.335  0.00 41.42 LIG 0.21  HD
ENDBRANCH 49 51
ENDBRANCH 45 49
ENDBRANCH 42 45
ENDBRANCH 40 41
BRANCH 40 53
ATOM     53  CB  ASN M   6      36.074  17.103  -5.734  1.00 43.29 LIG 0.14  C 
BRANCH 53 54
ATOM     54  CG  ASN M   6      35.670  18.580  -5.577  1.00 43.53 LIG 0.22  C 
ATOM     55 OD1  ASN M   6      35.295  19.087  -4.518  1.00 39.33 LIG-0.27  OA
ATOM     56  ND2 ASN M   6      35.672  19.385  -6.630  1.00 45.48 LIG-0.37  N 
ATOM     57 22HD ASN M   6      35.924  19.089  -7.397  1.00 45.48 LIG 0.16  HD
ATOM     58 21HD ASN M   6      35.421  20.204  -6.546  1.00 45.48 LIG 0.16  HD
ENDBRANCH 53 54
ENDBRANCH 40 53
ENDBRANCH 37 40
ENDBRANCH 1 36
TORSDOF 21
ENDMDL
MODEL 17
USER: ADFR SOLUTION from run 144
USER: SCORE 17.250467 LL:  -3.819 LR: -13.998 RR:   0.000 FEB:  -7.734
USER: RMSD 7.806900
USER: SEED 143
USER: STATUS no improvement in best in 4 clusters for 5 generations
USER: GENES 23
USER: genes 0 Translation |==|  0.52946 0.48184 0.68502
USER: genes 1 Rotation |==|  0.24730 0.35074 0.90363 0.53073
USER: genes 2 Torsion [C]-CA--N-[C] |==|  0.75561
USER: genes 3 Torsion [N]-C--CA-[CB] |==|  0.93925
USER: genes 4 Torsion [N]-C--CA-[N] |==|  0.39945
USER: genes 5 Torsion [C]-CA--N-[C] |==|  0.83546
USER: genes 6 Torsion [N]-C--CA-[N] |==|  0.44672
USER: genes 7 Torsion [C]-CA--CB-[OG] |==|  0.28037
USER: genes 8 Torsion [CA]-CB--OG-[HG] |==|  0.85974
USER: genes 9 Torsion [C]-CA--CB-[CG] |==|  0.11443
USER: genes 10 Torsion [CA]-CB--CG-[CD2] |==|  0.21410
USER: genes 11 Torsion [N]-CA--CB-[CG] |==|  0.72529
USER: genes 12 Torsion [CA]-CB--CG-[CD] |==|  0.16680
USER: genes 13 Torsion [CB]-CG--CD-[NE2] |==|  0.54157
USER: genes 14 Torsion [N]-CA--C-[N] |==|  0.46480
USER: genes 15 Torsion [C]-N--CA-[CB] |==|  0.52374
USER: genes 16 Torsion [N]-CA--C-[N] |==|  0.39643
USER: genes 17 Torsion [C]-N--CA-[C] |==|  0.66945
USER: genes 18 Torsion [N]-CA--C-[O] |==|  0.93748
USER: genes 19 Torsion [N]-CA--CB-[CG2] |==|  0.29338
USER: genes 20 Torsion [CA]-CB--OG1-[HG1] |==|  0.08909
USER: genes 21 Torsion [N]-CA--CB-[CG] |==|  0.86031
USER: genes 22 Torsion [CA]-CB--CG-[OD1] |==|  0.08379
ROOT
ATOM      1  CA  GLN M   5      36.311  13.524  -6.563  1.00 40.28 LIG 0.18  C 
ENDROOT
BRANCH 1 2
ATOM      2  N   GLN M   5      37.698  13.291  -6.885  1.00 45.46 LIG-0.35  N 
ATOM      3 H    GLN M   5      38.264  13.803  -6.489  1.00 45.46 LIG 0.16  HD
ATOM      4  C   PRO M   4      38.006  12.320  -7.756  1.00 50.59 LIG 0.24  C 
ATOM      5 O    PRO M   4      37.115  11.584  -8.211  1.00 50.33 LIG-0.27  OA
BRANCH 4 6
ATOM      6  CA  PRO M   4      39.460  12.100  -8.164  1.00 53.72 LIG 0.18  C 
ATOM      7  N   PRO M   4      39.719  11.737  -9.560  1.00 55.45 LIG-0.34  N 
ATOM      8  CD  PRO M   4      40.692  12.673 -10.136  1.00 56.03 LIG 0.13  C 
ATOM      9  C   HIS M   3      39.294  10.592 -10.141  1.00 54.96 LIG 0.24  C 
ATOM     10  CG  PRO M   4      40.464  13.923  -9.325  1.00 55.72 LIG 0.02  C 
ATOM     11  CB  PRO M   4      40.336  13.330  -7.944  1.00 52.77 LIG 0.04  C 
ATOM     12 O    HIS M   3      38.705   9.712  -9.495  1.00 54.31 LIG-0.27  OA
BRANCH 9 13
ATOM     13  CA  HIS M   3      39.530  10.356 -11.635  1.00 53.95 LIG 0.18  C 
BRANCH 13 14
ATOM     14  N   HIS M   3      39.809   8.944 -11.814  1.00 55.94 LIG-0.34  N 
ATOM     15  C   SER M   2      40.838   8.370 -11.201  0.19 53.43 LIG 0.26  C 
ATOM     16 O    SER M   2      41.686   9.022 -10.576  0.19 53.78 LIG-0.27  OA
ATOM     17 H    HIS M   3      39.264   8.532 -12.335  1.00 55.94 LIG 0.16  HD
BRANCH 15 18
ATOM     18  CA  SER M   2      41.038   6.866 -11.312  0.19 52.30 LIG 0.42  C 
ATOM     19  N   SER M   2      42.425   6.694 -10.952  0.19 52.36 LIG 0.62  N 
BRANCH 18 20
ATOM     20  CB  SER M   2      40.205   6.099 -10.292  0.19 51.64 LIG 0.21  C 
BRANCH 20 21
ATOM     21 OG   SER M   2      39.051   5.586 -10.962  0.19 50.47 LIG-0.40  OA
ATOM     22 HG   SER M   2      38.677   6.205 -11.389  0.19 50.47 LIG 0.21  HD
ENDBRANCH 20 21
ENDBRANCH 18 20
ENDBRANCH 15 18
ENDBRANCH 13 14
BRANCH 13 23
ATOM     23  CB  HIS M   3      38.287  10.768 -12.416  1.00 50.96 LIG 0.10  C 
BRANCH 23 24
ATOM     24  CG  HIS M   3      37.726  12.060 -11.844  1.00 47.24 LIG 0.06  A 
ATOM     25  CD2 HIS M   3      38.230  13.311 -12.056  1.00 45.19 LIG 0.14  A 
ATOM     26 NE2  HIS M   3      37.473  14.028 -11.278  1.00 45.41 LIG-0.25  NA
ATOM     27  CE1 HIS M   3      36.588  13.274 -10.655  1.00 46.27 LIG 0.23  A 
ATOM     28 ND1  HIS M   3      36.723  12.015 -10.994  1.00 45.18 LIG-0.24  NA
ENDBRANCH 23 24
ENDBRANCH 13 23
ENDBRANCH 9 13
ENDBRANCH 4 6
ENDBRANCH 1 2
BRANCH 1 29
ATOM     29  CB  GLN M   5      36.146  14.117  -5.192  1.00 37.25 LIG 0.04  C 
BRANCH 29 30
ATOM     30  CG  GLN M   5      35.776  13.040  -4.168  1.00 28.05 LIG 0.10  C 
BRANCH 30 31
ATOM     31  CD  GLN M   5      36.839  11.972  -4.076  1.00 28.89 LIG 0.21  C 
ATOM     32  NE2 GLN M   5      36.507  10.837  -3.462  1.00 21.10 LIG-0.37  N 
ATOM     33 22HE GLN M   5      37.077  10.196  -3.407  1.00 21.10 LIG 0.16  HD
ATOM     34 21HE GLN M   5      35.722  10.747  -3.121  1.00 21.10 LIG 0.16  HD
ATOM     35 OE1  GLN M   5      37.953  12.152  -4.583  1.00 23.17 LIG-0.27  OA
ENDBRANCH 30 31
ENDBRANCH 29 30
ENDBRANCH 1 29
BRANCH 1 36
ATOM     36  C   GLN M   5      35.749  14.500  -7.566  1.00 41.58 LIG 0.24  C 
ATOM     37  N   ASN M   6      34.427  14.668  -7.622  1.00 44.37 LIG-0.35  N 
ATOM     38 H    ASN M   6      33.868  14.294  -7.087  1.00 44.37 LIG 0.16  HD
ATOM     39 O    GLN M   5      36.519  15.108  -8.304  1.00 41.62 LIG-0.27  OA
BRANCH 37 40
ATOM     40  CA  ASN M   6      33.825  15.526  -8.633  1.00 43.99 LIG 0.18  C 
BRANCH 40 41
ATOM     41  C   ASN M   6      34.526  16.866  -8.632  1.00 43.58 LIG 0.24  C 
ATOM     42  N   THR M   7      34.681  17.405  -9.834  0.00 42.61 LIG-0.34  N 
ATOM     43 H    THR M   7      34.401  17.025 -10.553  0.00 42.61 LIG 0.16  HD
ATOM     44 O    ASN M   6      34.920  17.355  -7.571  1.00 43.76 LIG-0.27  OA
BRANCH 42 45
ATOM     45  CA  THR M   7      35.323  18.670 -10.071  0.00 41.90 LIG 0.21  C 
BRANCH 45 46
ATOM     46  C   THR M   7      34.296  19.607 -10.722  0.00 41.61 LIG 0.20  C 
ATOM     47 O    THR M   7      33.320  19.144 -11.319  0.00 41.59 LIG-0.65  OA
ATOM     48 OXT  THR M   7      34.472  20.817 -10.631  0.00 41.57 LIG-0.65  OA
ENDBRANCH 45 46
BRANCH 45 49
ATOM     49  CB  THR M   7      36.559  18.388 -10.977  0.00 41.89 LIG 0.15  C 
ATOM     50  CG2 THR M   7      36.379  18.822 -12.434  0.00 41.51 LIG 0.04  C 
BRANCH 49 51
ATOM     51 OG1  THR M   7      37.649  19.087 -10.390  0.00 41.42 LIG-0.39  OA
ATOM     52 HG1  THR M   7      37.551  19.109  -9.556  0.00 41.42 LIG 0.21  HD
ENDBRANCH 49 51
ENDBRANCH 45 49
ENDBRANCH 42 45
ENDBRANCH 40 41
BRANCH 40 53
ATOM     53  CB  ASN M   6      32.326  15.715  -8.350  1.00 43.29 LIG 0.14  C 
BRANCH 53 54
ATOM     54  CG  ASN M   6      31.497  14.442  -8.104  1.00 43.53 LIG 0.22  C 
ATOM     55 OD1  ASN M   6      31.945  13.411  -7.601  1.00 39.33 LIG-0.27  OA
ATOM     56  ND2 ASN M   6      30.226  14.394  -8.478  1.00 45.48 LIG-0.37  N 
ATOM     57 22HD ASN M   6      29.857  15.084  -8.835  1.00 45.48 LIG 0.16  HD
ATOM     58 21HD ASN M   6      29.771  13.673  -8.362  1.00 45.48 LIG 0.16  HD
ENDBRANCH 53 54
ENDBRANCH 40 53
ENDBRANCH 37 40
ENDBRANCH 1 36
TORSDOF 21
ENDMDL
MODEL 18
USER: ADFR SOLUTION from run 7
USER: SCORE 17.009223 LL:  -3.818 LR: -13.969 RR:   0.000 FEB:  -7.705
USER: RMSD 8.836296
USER: SEED 135663
USER: STATUS no improvement in best in 8 clusters for 5 generations
USER: GENES 23
USER: genes 0 Translation |==|  0.31689 0.52719 0.60517
USER: genes 1 Rotation |==|  0.25014 0.68406 0.88836 0.55354
USER: genes 2 Torsion [C]-CA--N-[C] |==|  0.63024
USER: genes 3 Torsion [N]-C--CA-[CB] |==|  0.54607
USER: genes 4 Torsion [N]-C--CA-[N] |==|  0.47855
USER: genes 5 Torsion [C]-CA--N-[C] |==|  0.58920
USER: genes 6 Torsion [N]-C--CA-[N] |==|  0.84215
USER: genes 7 Torsion [C]-CA--CB-[OG] |==|  0.30607
USER: genes 8 Torsion [CA]-CB--OG-[HG] |==|  0.05716
USER: genes 9 Torsion [C]-CA--CB-[CG] |==|  0.80670
USER: genes 10 Torsion [CA]-CB--CG-[CD2] |==|  0.66926
USER: genes 11 Torsion [N]-CA--CB-[CG] |==|  0.21526
USER: genes 12 Torsion [CA]-CB--CG-[CD] |==|  0.44876
USER: genes 13 Torsion [CB]-CG--CD-[NE2] |==|  0.40323
USER: genes 14 Torsion [N]-CA--C-[N] |==|  0.52375
USER: genes 15 Torsion [C]-N--CA-[CB] |==|  0.17755
USER: genes 16 Torsion [N]-CA--C-[N] |==|  0.10779
USER: genes 17 Torsion [C]-N--CA-[C] |==|  0.76913
USER: genes 18 Torsion [N]-CA--C-[O] |==|  0.94123
USER: genes 19 Torsion [N]-CA--CB-[CG2] |==|  0.30777
USER: genes 20 Torsion [CA]-CB--OG1-[HG1] |==|  0.07023
USER: genes 21 Torsion [N]-CA--CB-[CG] |==|  0.11974
USER: genes 22 Torsion [CA]-CB--CG-[OD1] |==|  0.77213
ROOT
ATOM      1  CA  GLN M   5      31.687  14.306  -8.300  1.00 40.28 LIG 0.18  C 
ENDROOT
BRANCH 1 2
ATOM      2  N   GLN M   5      32.412  13.148  -7.835  1.00 45.46 LIG-0.35  N 
ATOM      3 H    GLN M   5      33.055  12.883  -8.341  1.00 45.46 LIG 0.16  HD
ATOM      4  C   PRO M   4      32.049  12.578  -6.679  1.00 50.59 LIG 0.24  C 
ATOM      5 O    PRO M   4      31.156  13.090  -5.984  1.00 50.33 LIG-0.27  OA
BRANCH 4 6
ATOM      6  CA  PRO M   4      32.756  11.312  -6.201  1.00 53.72 LIG 0.18  C 
ATOM      7  N   PRO M   4      34.097  11.466  -5.631  1.00 55.45 LIG-0.34  N 
ATOM      8  CD  PRO M   4      34.137  10.850  -4.299  1.00 56.03 LIG 0.13  C 
ATOM      9  C   HIS M   3      35.172  11.907  -6.322  1.00 54.96 LIG 0.24  C 
ATOM     10  CG  PRO M   4      32.704  10.963  -3.844  1.00 55.72 LIG 0.02  C 
ATOM     11  CB  PRO M   4      31.985  10.572  -5.112  1.00 52.77 LIG 0.04  C 
ATOM     12 O    HIS M   3      35.114  12.147  -7.538  1.00 54.31 LIG-0.27  OA
BRANCH 9 13
ATOM     13  CA  HIS M   3      36.507  12.130  -5.606  1.00 53.95 LIG 0.18  C 
BRANCH 13 14
ATOM     14  N   HIS M   3      37.502  12.419  -6.621  1.00 55.94 LIG-0.34  N 
ATOM     15  C   SER M   2      38.768  12.051  -6.459  0.19 53.43 LIG 0.26  C 
ATOM     16 O    SER M   2      39.192  11.585  -5.393  0.19 53.78 LIG-0.27  OA
ATOM     17 H    HIS M   3      37.203  12.836  -7.311  1.00 55.94 LIG 0.16  HD
BRANCH 15 18
ATOM     18  CA  SER M   2      39.764  12.262  -7.589  0.19 52.30 LIG 0.42  C 
ATOM     19  N   SER M   2      39.165  11.547  -8.690  0.19 52.36 LIG 0.62  N 
BRANCH 18 20
ATOM     20  CB  SER M   2      39.865  13.727  -7.999  0.19 51.64 LIG 0.21  C 
BRANCH 20 21
ATOM     21 OG   SER M   2      41.145  14.212  -7.587  0.19 50.47 LIG-0.40  OA
ATOM     22 HG   SER M   2      41.667  13.564  -7.473  0.19 50.47 LIG 0.21  HD
ENDBRANCH 20 21
ENDBRANCH 18 20
ENDBRANCH 15 18
ENDBRANCH 13 14
BRANCH 13 23
ATOM     23  CB  HIS M   3      36.371  13.293  -4.629  1.00 50.96 LIG 0.10  C 
BRANCH 23 24
ATOM     24  CG  HIS M   3      36.223  14.595  -5.400  1.00 47.24 LIG 0.06  A 
ATOM     25  CD2 HIS M   3      37.077  15.659  -5.337  1.00 45.19 LIG 0.14  A 
ATOM     26 NE2  HIS M   3      36.457  16.529  -6.079  1.00 45.41 LIG-0.25  NA
ATOM     27  CE1 HIS M   3      35.330  16.031  -6.550  1.00 46.27 LIG 0.23  A 
ATOM     28 ND1  HIS M   3      35.153  14.800  -6.135  1.00 45.18 LIG-0.24  NA
ENDBRANCH 23 24
ENDBRANCH 13 23
ENDBRANCH 9 13
ENDBRANCH 4 6
ENDBRANCH 1 2
BRANCH 1 29
ATOM     29  CB  GLN M   5      32.499  15.564  -8.171  1.00 37.25 LIG 0.04  C 
BRANCH 29 30
ATOM     30  CG  GLN M   5      33.539  15.664  -9.290  1.00 28.05 LIG 0.10  C 
BRANCH 30 31
ATOM     31  CD  GLN M   5      34.045  17.077  -9.454  1.00 28.89 LIG 0.21  C 
ATOM     32  NE2 GLN M   5      35.324  17.227  -9.796  1.00 21.10 LIG-0.37  N 
ATOM     33 22HE GLN M   5      35.646  18.014  -9.920  1.00 21.10 LIG 0.16  HD
ATOM     34 21HE GLN M   5      35.827  16.536  -9.893  1.00 21.10 LIG 0.16  HD
ATOM     35 OE1  GLN M   5      33.280  18.038  -9.302  1.00 23.17 LIG-0.27  OA
ENDBRANCH 30 31
ENDBRANCH 29 30
ENDBRANCH 1 29
BRANCH 1 36
ATOM     36  C   GLN M   5      31.361  14.106  -9.759  1.00 41.58 LIG 0.24  C 
ATOM     37  N   ASN M   6      30.843  15.127 -10.442  1.00 44.37 LIG-0.35  N 
ATOM     38 H    ASN M   6      30.728  15.917 -10.122  1.00 44.37 LIG 0.16  HD
ATOM     39 O    GLN M   5      31.575  13.013 -10.274  1.00 41.62 LIG-0.27  OA
BRANCH 37 40
ATOM     40  CA  ASN M   6      30.424  14.964 -11.827  1.00 43.99 LIG 0.18  C 
BRANCH 40 41
ATOM     41  C   ASN M   6      29.998  16.304 -12.382  1.00 43.58 LIG 0.24  C 
ATOM     42  N   THR M   7      30.747  17.324 -11.987  0.00 42.61 LIG-0.34  N 
ATOM     43 H    THR M   7      31.421  17.230 -11.462  0.00 42.61 LIG 0.16  HD
ATOM     44 O    ASN M   6      29.013  16.381 -13.120  1.00 43.76 LIG-0.27  OA
BRANCH 42 45
ATOM     45  CA  THR M   7      30.524  18.688 -12.386  0.00 41.90 LIG 0.21  C 
BRANCH 45 46
ATOM     46  C   THR M   7      31.180  18.893 -13.759  0.00 41.61 LIG 0.20  C 
ATOM     47 O    THR M   7      32.074  18.132 -14.142  0.00 41.59 LIG-0.65  OA
ATOM     48 OXT  THR M   7      30.793  19.824 -14.455  0.00 41.57 LIG-0.65  OA
ENDBRANCH 45 46
BRANCH 45 49
ATOM     49  CB  THR M   7      31.132  19.592 -11.272  0.00 41.89 LIG 0.15  C 
ATOM     50  CG2 THR M   7      32.382  20.363 -11.705  0.00 41.51 LIG 0.04  C 
BRANCH 49 51
ATOM     51 OG1  THR M   7      30.105  20.499 -10.893  0.00 41.42 LIG-0.39  OA
ATOM     52 HG1  THR M   7      29.356  20.160 -11.060  0.00 41.42 LIG 0.21  HD
ENDBRANCH 49 51
ENDBRANCH 45 49
ENDBRANCH 42 45
ENDBRANCH 40 41
BRANCH 40 53
ATOM     53  CB  ASN M   6      29.262  13.961 -11.920  1.00 43.29 LIG 0.14  C 
BRANCH 53 54
ATOM     54  CG  ASN M   6      28.147  14.086 -10.865  1.00 43.53 LIG 0.22  C 
ATOM     55 OD1  ASN M   6      28.215  13.614  -9.728  1.00 39.33 LIG-0.27  OA
ATOM     56  ND2 ASN M   6      27.010  14.694 -11.168  1.00 45.48 LIG-0.37  N 
ATOM     57 22HD ASN M   6      26.903  15.043 -11.947  1.00 45.48 LIG 0.16  HD
ATOM     58 21HD ASN M   6      26.378  14.740 -10.586  1.00 45.48 LIG 0.16  HD
ENDBRANCH 53 54
ENDBRANCH 40 53
ENDBRANCH 37 40
ENDBRANCH 1 36
TORSDOF 21
ENDMDL
MODEL 19
USER: ADFR SOLUTION from run 46
USER: SCORE 15.412391 LL:  -2.579 LR: -13.960 RR:   0.000 FEB:  -7.696
USER: RMSD 4.676107
USER: SEED 45
USER: STATUS no improvement in best in 8 clusters for 5 generations
USER: GENES 23
USER: genes 0 Translation |==|  0.54941 0.37556 0.67866
USER: genes 1 Rotation |==|  0.55683 0.76267 0.56409 0.91673
USER: genes 2 Torsion [C]-CA--N-[C] |==|  0.77505
USER: genes 3 Torsion [N]-C--CA-[CB] |==|  0.05266
USER: genes 4 Torsion [N]-C--CA-[N] |==|  0.11074
USER: genes 5 Torsion [C]-CA--N-[C] |==|  0.63750
USER: genes 6 Torsion [N]-C--CA-[N] |==|  0.40786
USER: genes 7 Torsion [C]-CA--CB-[OG] |==|  0.30115
USER: genes 8 Torsion [CA]-CB--OG-[HG] |==|  0.82258
USER: genes 9 Torsion [C]-CA--CB-[CG] |==|  0.64567
USER: genes 10 Torsion [CA]-CB--CG-[CD2] |==|  0.21729
USER: genes 11 Torsion [N]-CA--CB-[CG] |==|  0.76858
USER: genes 12 Torsion [CA]-CB--CG-[CD] |==|  0.97170
USER: genes 13 Torsion [CB]-CG--CD-[NE2] |==|  0.37183
USER: genes 14 Torsion [N]-CA--C-[N] |==|  0.32222
USER: genes 15 Torsion [C]-N--CA-[CB] |==|  0.50125
USER: genes 16 Torsion [N]-CA--C-[N] |==|  0.41129
USER: genes 17 Torsion [C]-N--CA-[C] |==|  0.73290
USER: genes 18 Torsion [N]-CA--C-[O] |==|  0.98916
USER: genes 19 Torsion [N]-CA--CB-[CG2] |==|  0.28305
USER: genes 20 Torsion [CA]-CB--OG1-[HG1] |==|  0.96117
USER: genes 21 Torsion [N]-CA--CB-[CG] |==|  0.13485
USER: genes 22 Torsion [CA]-CB--CG-[OD1] |==|  0.69662
ROOT
ATOM      1  CA  GLN M   5      36.745  11.690  -6.701  1.00 40.28 LIG 0.18  C 
ENDROOT
BRANCH 1 2
ATOM      2  N   GLN M   5      35.400  12.193  -6.560  1.00 45.46 LIG-0.35  N 
ATOM      3 H    GLN M   5      34.778  11.600  -6.559  1.00 45.46 LIG 0.16  HD
ATOM      4  C   PRO M   4      35.212  13.515  -6.445  1.00 50.59 LIG 0.24  C 
ATOM      5 O    PRO M   4      36.187  14.281  -6.378  1.00 50.33 LIG-0.27  OA
BRANCH 4 6
ATOM      6  CA  PRO M   4      33.794  14.076  -6.363  1.00 53.72 LIG 0.18  C 
ATOM      7  N   PRO M   4      33.236  14.672  -7.579  1.00 55.45 LIG-0.34  N 
ATOM      8  CD  PRO M   4      31.949  14.038  -7.888  1.00 56.03 LIG 0.13  C 
ATOM      9  C   HIS M   3      33.729  15.778  -8.181  1.00 54.96 LIG 0.24  C 
ATOM     10  CG  PRO M   4      32.103  12.668  -7.279  1.00 55.72 LIG 0.02  C 
ATOM     11  CB  PRO M   4      32.759  13.027  -5.967  1.00 52.77 LIG 0.04  C 
ATOM     12 O    HIS M   3      34.667  16.425  -7.691  1.00 54.31 LIG-0.27  OA
BRANCH 9 13
ATOM     13  CA  HIS M   3      33.135  16.260  -9.507  1.00 53.95 LIG 0.18  C 
BRANCH 13 14
ATOM     14  N   HIS M   3      31.697  16.089  -9.427  1.00 55.94 LIG-0.34  N 
ATOM     15  C   SER M   2      31.027  15.481 -10.399  0.19 53.43 LIG 0.26  C 
ATOM     16 O    SER M   2      31.558  15.166 -11.474  0.19 53.78 LIG-0.27  OA
ATOM     17 H    HIS M   3      31.335  16.407  -8.715  1.00 55.94 LIG 0.16  HD
BRANCH 15 18
ATOM     18  CA  SER M   2      29.539  15.210 -10.235  0.19 52.30 LIG 0.42  C 
ATOM     19  N   SER M   2      29.035  15.334 -11.582  0.19 52.36 LIG 0.62  N 
BRANCH 18 20
ATOM     20  CB  SER M   2      29.262  13.784  -9.776  0.19 51.64 LIG 0.21  C 
BRANCH 20 21
ATOM     21 OG   SER M   2      28.826  13.837  -8.415  0.19 50.47 LIG-0.40  OA
ATOM     22 HG   SER M   2      29.447  14.134  -7.933  0.19 50.47 LIG 0.21  HD
ENDBRANCH 20 21
ENDBRANCH 18 20
ENDBRANCH 15 18
ENDBRANCH 13 14
BRANCH 13 23
ATOM     23  CB  HIS M   3      33.497  17.725  -9.723  1.00 50.96 LIG 0.10  C 
BRANCH 23 24
ATOM     24  CG  HIS M   3      32.238  18.527 -10.015  1.00 47.24 LIG 0.06  A 
ATOM     25  CD2 HIS M   3      31.329  18.947  -9.087  1.00 45.19 LIG 0.14  A 
ATOM     26 NE2  HIS M   3      30.416  19.480  -9.845  1.00 45.41 LIG-0.25  NA
ATOM     27  CE1 HIS M   3      30.749  19.390 -11.119  1.00 46.27 LIG 0.23  A 
ATOM     28 ND1  HIS M   3      31.905  18.788 -11.259  1.00 45.18 LIG-0.24  NA
ENDBRANCH 23 24
ENDBRANCH 13 23
ENDBRANCH 9 13
ENDBRANCH 4 6
ENDBRANCH 1 2
BRANCH 1 29
ATOM     29  CB  GLN M   5      36.840  10.235  -6.340  1.00 37.25 LIG 0.04  C 
BRANCH 29 30
ATOM     30  CG  GLN M   5      36.984  10.052  -4.827  1.00 28.05 LIG 0.10  C 
BRANCH 30 31
ATOM     31  CD  GLN M   5      37.240  11.367  -4.130  1.00 28.89 LIG 0.21  C 
ATOM     32  NE2 GLN M   5      36.528  11.619  -3.032  1.00 21.10 LIG-0.37  N 
ATOM     33 22HE GLN M   5      36.659  12.348  -2.594  1.00 21.10 LIG 0.16  HD
ATOM     34 21HE GLN M   5      35.939  11.054  -2.762  1.00 21.10 LIG 0.16  HD
ATOM     35 OE1  GLN M   5      38.100  12.146  -4.560  1.00 23.17 LIG-0.27  OA
ENDBRANCH 30 31
ENDBRANCH 29 30
ENDBRANCH 1 29
BRANCH 1 36
ATOM     36  C   GLN M   5      37.159  11.843  -8.144  1.00 41.58 LIG 0.24  C 
ATOM     37  N   ASN M   6      38.171  12.660  -8.434  1.00 44.37 LIG-0.35  N 
ATOM     38 H    ASN M   6      38.646  13.072  -7.846  1.00 44.37 LIG 0.16  HD
ATOM     39 O    GLN M   5      36.551  11.218  -9.009  1.00 41.62 LIG-0.27  OA
BRANCH 37 40
ATOM     40  CA  ASN M   6      38.553  12.917  -9.816  1.00 43.99 LIG 0.18  C 
BRANCH 40 41
ATOM     41  C   ASN M   6      38.906  11.610 -10.487  1.00 43.58 LIG 0.24  C 
ATOM     42  N   THR M   7      38.627  11.564 -11.783  0.00 42.61 LIG-0.34  N 
ATOM     43 H    THR M   7      38.277  12.226 -12.206  0.00 42.61 LIG 0.16  HD
ATOM     44 O    ASN M   6      39.392  10.689  -9.826  1.00 43.76 LIG-0.27  OA
BRANCH 42 45
ATOM     45  CA  THR M   7      38.874  10.421 -12.619  0.00 41.90 LIG 0.21  C 
BRANCH 45 46
ATOM     46  C   THR M   7      40.223  10.631 -13.321  0.00 41.61 LIG 0.20  C 
ATOM     47 O    THR M   7      40.848  11.685 -13.168  0.00 41.59 LIG-0.65  OA
ATOM     48 OXT  THR M   7      40.656   9.730 -14.031  0.00 41.57 LIG-0.65  OA
ENDBRANCH 45 46
BRANCH 45 49
ATOM     49  CB  THR M   7      37.675  10.316 -13.610  0.00 41.89 LIG 0.15  C 
ATOM     50  CG2 THR M   7      37.978  10.836 -15.017  0.00 41.51 LIG 0.04  C 
BRANCH 49 51
ATOM     51 OG1  THR M   7      37.323   8.940 -13.662  0.00 41.42 LIG-0.39  OA
ATOM     52 HG1  THR M   7      37.936   8.481 -13.318  0.00 41.42 LIG 0.21  HD
ENDBRANCH 49 51
ENDBRANCH 45 49
ENDBRANCH 42 45
ENDBRANCH 40 41
BRANCH 40 53
ATOM     53  CB  ASN M   6      39.750  13.880  -9.871  1.00 43.29 LIG 0.14  C 
BRANCH 53 54
ATOM     54  CG  ASN M   6      40.947  13.557  -8.960  1.00 43.53 LIG 0.22  C 
ATOM     55 OD1  ASN M   6      41.254  14.212  -7.962  1.00 39.33 LIG-0.27  OA
ATOM     56  ND2 ASN M   6      41.751  12.544  -9.251  1.00 45.48 LIG-0.37  N 
ATOM     57 22HD ASN M   6      41.589  12.050  -9.936  1.00 45.48 LIG 0.16  HD
ATOM     58 21HD ASN M   6      42.435  12.381  -8.755  1.00 45.48 LIG 0.16  HD
ENDBRANCH 53 54
ENDBRANCH 40 53
ENDBRANCH 37 40
ENDBRANCH 1 36
TORSDOF 21
ENDMDL
MODEL 20
USER: ADFR SOLUTION from run 147
USER: SCORE 15.302580 LL:  -3.252 LR: -13.910 RR:   0.000 FEB:  -7.646
USER: RMSD 7.812636
USER: SEED 146
USER: STATUS no improvement in best in 7 clusters for 5 generations
USER: GENES 23
USER: genes 0 Translation |==|  0.43196 0.53160 0.65679
USER: genes 1 Rotation |==|  0.35280 0.62824 0.95119 0.59116
USER: genes 2 Torsion [C]-CA--N-[C] |==|  0.18079
USER: genes 3 Torsion [N]-C--CA-[CB] |==|  0.88443
USER: genes 4 Torsion [N]-C--CA-[N] |==|  0.40917
USER: genes 5 Torsion [C]-CA--N-[C] |==|  0.80000
USER: genes 6 Torsion [N]-C--CA-[N] |==|  0.38479
USER: genes 7 Torsion [C]-CA--CB-[OG] |==|  0.85604
USER: genes 8 Torsion [CA]-CB--OG-[HG] |==|  0.72973
USER: genes 9 Torsion [C]-CA--CB-[CG] |==|  0.19992
USER: genes 10 Torsion [CA]-CB--CG-[CD2] |==|  0.70681
USER: genes 11 Torsion [N]-CA--CB-[CG] |==|  0.91001
USER: genes 12 Torsion [CA]-CB--CG-[CD] |==|  0.83949
USER: genes 13 Torsion [CB]-CG--CD-[NE2] |==|  0.49131
USER: genes 14 Torsion [N]-CA--C-[N] |==|  0.53576
USER: genes 15 Torsion [C]-N--CA-[CB] |==|  0.23636
USER: genes 16 Torsion [N]-CA--C-[N] |==|  0.40775
USER: genes 17 Torsion [C]-N--CA-[C] |==|  0.54646
USER: genes 18 Torsion [N]-CA--C-[O] |==|  0.34005
USER: genes 19 Torsion [N]-CA--CB-[CG2] |==|  0.45268
USER: genes 20 Torsion [CA]-CB--OG1-[HG1] |==|  0.88173
USER: genes 21 Torsion [N]-CA--CB-[CG] |==|  0.78867
USER: genes 22 Torsion [CA]-CB--CG-[OD1] |==|  0.43061
ROOT
ATOM      1  CA  GLN M   5      34.190  14.382  -7.177  1.00 40.28 LIG 0.18  C 
ENDROOT
BRANCH 1 2
ATOM      2  N   GLN M   5      34.786  13.097  -7.452  1.00 45.46 LIG-0.35  N 
ATOM      3 H    GLN M   5      34.520  12.448  -6.955  1.00 45.46 LIG 0.16  HD
ATOM      4  C   PRO M   4      35.691  13.001  -8.435  1.00 50.59 LIG 0.24  C 
ATOM      5 O    PRO M   4      35.947  13.987  -9.147  1.00 50.33 LIG-0.27  OA
BRANCH 4 6
ATOM      6  CA  PRO M   4      36.386  11.668  -8.701  1.00 53.72 LIG 0.18  C 
ATOM      7  N   PRO M   4      37.622  11.698  -9.486  1.00 55.45 LIG-0.34  N 
ATOM      8  CD  PRO M   4      38.692  11.024  -8.740  1.00 56.03 LIG 0.13  C 
ATOM      9  C   HIS M   3      37.694  12.089 -10.778  1.00 54.96 LIG 0.24  C 
ATOM     10  CG  PRO M   4      38.268  11.222  -7.307  1.00 55.72 LIG 0.02  C 
ATOM     11  CB  PRO M   4      36.789  10.940  -7.422  1.00 52.77 LIG 0.04  C 
ATOM     12 O    HIS M   3      36.680  12.385 -11.428  1.00 54.31 LIG-0.27  OA
BRANCH 9 13
ATOM     13  CA  HIS M   3      39.053  12.182 -11.478  1.00 53.95 LIG 0.18  C 
BRANCH 13 14
ATOM     14  N   HIS M   3      38.848  11.845 -12.873  1.00 55.94 LIG-0.34  N 
ATOM     15  C   SER M   2      38.596  10.594 -13.243  0.19 53.43 LIG 0.26  C 
ATOM     16 O    SER M   2      38.669   9.642 -12.454  0.19 53.78 LIG-0.27  OA
ATOM     17 H    HIS M   3      38.904  12.509 -13.417  1.00 55.94 LIG 0.16  HD
BRANCH 15 18
ATOM     18  CA  SER M   2      38.269  10.289 -14.697  0.19 52.30 LIG 0.42  C 
ATOM     19  N   SER M   2      39.003   9.072 -14.948  0.19 52.36 LIG 0.62  N 
BRANCH 18 20
ATOM     20  CB  SER M   2      36.791   9.978 -14.899  0.19 51.64 LIG 0.21  C 
BRANCH 20 21
ATOM     21 OG   SER M   2      36.423   8.963 -13.962  0.19 50.47 LIG-0.40  OA
ATOM     22 HG   SER M   2      36.445   8.213 -14.338  0.19 50.47 LIG 0.21  HD
ENDBRANCH 20 21
ENDBRANCH 18 20
ENDBRANCH 15 18
ENDBRANCH 13 14
BRANCH 13 23
ATOM     23  CB  HIS M   3      39.602  13.597 -11.335  1.00 50.96 LIG 0.10  C 
BRANCH 23 24
ATOM     24  CG  HIS M   3      40.046  13.832  -9.900  1.00 47.24 LIG 0.06  A 
ATOM     25  CD2 HIS M   3      39.384  14.587  -8.974  1.00 45.19 LIG 0.14  A 
ATOM     26 NE2  HIS M   3      40.215  14.553  -7.974  1.00 45.41 LIG-0.25  NA
ATOM     27  CE1 HIS M   3      41.282  13.838  -8.271  1.00 46.27 LIG 0.23  A 
ATOM     28 ND1  HIS M   3      41.205  13.365  -9.491  1.00 45.18 LIG-0.24  NA
ENDBRANCH 23 24
ENDBRANCH 13 23
ENDBRANCH 9 13
ENDBRANCH 4 6
ENDBRANCH 1 2
BRANCH 1 29
ATOM     29  CB  GLN M   5      35.228  15.442  -6.935  1.00 37.25 LIG 0.04  C 
BRANCH 29 30
ATOM     30  CG  GLN M   5      36.473  14.850  -6.269  1.00 28.05 LIG 0.10  C 
BRANCH 30 31
ATOM     31  CD  GLN M   5      36.136  14.174  -4.962  1.00 28.89 LIG 0.21  C 
ATOM     32  NE2 GLN M   5      37.133  13.565  -4.320  1.00 21.10 LIG-0.37  N 
ATOM     33 22HE GLN M   5      36.987  13.186  -3.562  1.00 21.10 LIG 0.16  HD
ATOM     34 21HE GLN M   5      37.920  13.551  -4.664  1.00 21.10 LIG 0.16  HD
ATOM     35 OE1  GLN M   5      34.985  14.223  -4.510  1.00 23.17 LIG-0.27  OA
ENDBRANCH 30 31
ENDBRANCH 29 30
ENDBRANCH 1 29
BRANCH 1 36
ATOM     36  C   GLN M   5      33.373  14.792  -8.377  1.00 41.58 LIG 0.24  C 
ATOM     37  N   ASN M   6      32.944  16.052  -8.457  1.00 44.37 LIG-0.35  N 
ATOM     38 H    ASN M   6      33.145  16.669  -7.893  1.00 44.37 LIG 0.16  HD
ATOM     39 O    GLN M   5      33.122  13.957  -9.241  1.00 41.62 LIG-0.27  OA
BRANCH 37 40
ATOM     40  CA  ASN M   6      32.075  16.478  -9.545  1.00 43.99 LIG 0.18  C 
BRANCH 40 41
ATOM     41  C   ASN M   6      32.261  17.959  -9.782  1.00 43.58 LIG 0.24  C 
ATOM     42  N   THR M   7      32.127  18.334 -11.046  0.00 42.61 LIG-0.34  N 
ATOM     43 H    THR M   7      31.946  17.780 -11.679  0.00 42.61 LIG 0.16  HD
ATOM     44 O    ASN M   6      32.535  18.704  -8.838  1.00 43.76 LIG-0.27  OA
BRANCH 42 45
ATOM     45  CA  THR M   7      32.266  19.691 -11.502  0.00 41.90 LIG 0.21  C 
BRANCH 45 46
ATOM     46  C   THR M   7      31.640  19.787 -12.900  0.00 41.61 LIG 0.20  C 
ATOM     47 O    THR M   7      30.725  20.587 -13.119  0.00 41.59 LIG-0.65  OA
ATOM     48 OXT  THR M   7      32.070  19.053 -13.783  0.00 41.57 LIG-0.65  OA
ENDBRANCH 45 46
BRANCH 45 49
ATOM     49  CB  THR M   7      33.789  20.020 -11.487  0.00 41.89 LIG 0.15  C 
ATOM     50  CG2 THR M   7      34.172  21.251 -12.313  0.00 41.51 LIG 0.04  C 
BRANCH 49 51
ATOM     51 OG1  THR M   7      34.138  20.220 -10.123  0.00 41.42 LIG-0.39  OA
ATOM     52 HG1  THR M   7      33.543  20.676  -9.745  0.00 41.42 LIG 0.21  HD
ENDBRANCH 49 51
ENDBRANCH 45 49
ENDBRANCH 42 45
ENDBRANCH 40 41
BRANCH 40 53
ATOM     53  CB  ASN M   6      30.606  16.178  -9.206  1.00 43.29 LIG 0.14  C 
BRANCH 53 54
ATOM     54  CG  ASN M   6      30.147  14.713  -9.325  1.00 43.53 LIG 0.22  C 
ATOM     55 OD1  ASN M   6      29.199  14.232  -8.702  1.00 39.33 LIG-0.27  OA
ATOM     56  ND2 ASN M   6      30.810  13.870 -10.103  1.00 45.48 LIG-0.37  N 
ATOM     57 22HD ASN M   6      31.482  14.147 -10.563  1.00 45.48 LIG 0.16  HD
ATOM     58 21HD ASN M   6      30.568  13.046 -10.149  1.00 45.48 LIG 0.16  HD
ENDBRANCH 53 54
ENDBRANCH 40 53
ENDBRANCH 37 40
ENDBRANCH 1 36
TORSDOF 21
ENDMDL
MODEL 21
USER: ADFR SOLUTION from run 121
USER: SCORE 16.095438 LL:  -3.450 LR: -13.874 RR:   0.000 FEB:  -7.609
USER: RMSD 8.792003
USER: SEED 120
USER: STATUS no improvement in best in 12 clusters for 5 generations
USER: GENES 23
USER: genes 0 Translation |==|  0.39422 0.65223 0.58947
USER: genes 1 Rotation |==|  0.42086 0.78040 0.89846 0.57964
USER: genes 2 Torsion [C]-CA--N-[C] |==|  0.84545
USER: genes 3 Torsion [N]-C--CA-[CB] |==|  0.41344
USER: genes 4 Torsion [N]-C--CA-[N] |==|  0.12900
USER: genes 5 Torsion [C]-CA--N-[C] |==|  0.61274
USER: genes 6 Torsion [N]-C--CA-[N] |==|  0.76972
USER: genes 7 Torsion [C]-CA--CB-[OG] |==|  0.47455
USER: genes 8 Torsion [CA]-CB--OG-[HG] |==|  0.92076
USER: genes 9 Torsion [C]-CA--CB-[CG] |==|  0.35783
USER: genes 10 Torsion [CA]-CB--CG-[CD2] |==|  0.81168
USER: genes 11 Torsion [N]-CA--CB-[CG] |==|  0.63387
USER: genes 12 Torsion [CA]-CB--CG-[CD] |==|  0.61443
USER: genes 13 Torsion [CB]-CG--CD-[NE2] |==|  0.30235
USER: genes 14 Torsion [N]-CA--C-[N] |==|  0.89293
USER: genes 15 Torsion [C]-N--CA-[CB] |==|  0.81186
USER: genes 16 Torsion [N]-CA--C-[N] |==|  0.17555
USER: genes 17 Torsion [C]-N--CA-[C] |==|  0.53151
USER: genes 18 Torsion [N]-CA--C-[O] |==|  0.45099
USER: genes 19 Torsion [N]-CA--CB-[CG2] |==|  0.38836
USER: genes 20 Torsion [CA]-CB--OG1-[HG1] |==|  0.07755
USER: genes 21 Torsion [N]-CA--CB-[CG] |==|  0.89244
USER: genes 22 Torsion [CA]-CB--CG-[OD1] |==|  0.39023
ROOT
ATOM      1  CA  GLN M   5      33.369  16.463  -8.641  1.00 40.28 LIG 0.18  C 
ENDROOT
BRANCH 1 2
ATOM      2  N   GLN M   5      33.636  15.098  -8.257  1.00 45.46 LIG-0.35  N 
ATOM      3 H    GLN M   5      34.447  14.832  -8.364  1.00 45.46 LIG 0.16  HD
ATOM      4  C   PRO M   4      32.633  14.354  -7.772  1.00 50.59 LIG 0.24  C 
ATOM      5 O    PRO M   4      31.515  14.861  -7.583  1.00 50.33 LIG-0.27  OA
BRANCH 4 6
ATOM      6  CA  PRO M   4      32.876  12.888  -7.422  1.00 53.72 LIG 0.18  C 
ATOM      7  N   PRO M   4      34.233  12.507  -7.022  1.00 55.45 LIG-0.34  N 
ATOM      8  CD  PRO M   4      34.186  11.825  -5.723  1.00 56.03 LIG 0.13  C 
ATOM      9  C   HIS M   3      35.314  12.581  -7.830  1.00 54.96 LIG 0.24  C 
ATOM     10  CG  PRO M   4      32.951  12.412  -5.088  1.00 55.72 LIG 0.02  C 
ATOM     11  CB  PRO M   4      32.008  12.398  -6.266  1.00 52.77 LIG 0.04  C 
ATOM     12 O    HIS M   3      35.218  12.912  -9.021  1.00 54.31 LIG-0.27  OA
BRANCH 9 13
ATOM     13  CA  HIS M   3      36.706  12.257  -7.281  1.00 53.95 LIG 0.18  C 
BRANCH 13 14
ATOM     14  N   HIS M   3      36.599  11.026  -6.522  1.00 55.94 LIG-0.34  N 
ATOM     15  C   SER M   2      37.243  10.876  -5.370  0.19 53.43 LIG 0.26  C 
ATOM     16 O    SER M   2      38.072  11.701  -4.962  0.19 53.78 LIG-0.27  OA
ATOM     17 H    HIS M   3      36.096  10.425  -6.878  1.00 55.94 LIG 0.16  HD
BRANCH 15 18
ATOM     18  CA  SER M   2      37.019   9.622  -4.538  0.19 52.30 LIG 0.42  C 
ATOM     19  N   SER M   2      35.810   9.925  -3.811  0.19 52.36 LIG 0.62  N 
BRANCH 18 20
ATOM     20  CB  SER M   2      36.733   8.402  -5.406  0.19 51.64 LIG 0.21  C 
BRANCH 20 21
ATOM     21 OG   SER M   2      36.752   7.249  -4.561  0.19 50.47 LIG-0.40  OA
ATOM     22 HG   SER M   2      37.266   7.385  -3.911  0.19 50.47 LIG 0.21  HD
ENDBRANCH 20 21
ENDBRANCH 18 20
ENDBRANCH 15 18
ENDBRANCH 13 14
BRANCH 13 23
ATOM     23  CB  HIS M   3      37.685  12.098  -8.439  1.00 50.96 LIG 0.10  C 
BRANCH 23 24
ATOM     24  CG  HIS M   3      38.910  12.966  -8.197  1.00 47.24 LIG 0.06  A 
ATOM     25  CD2 HIS M   3      38.933  14.331  -8.199  1.00 45.19 LIG 0.14  A 
ATOM     26 NE2  HIS M   3      40.204  14.567  -8.055  1.00 45.41 LIG-0.25  NA
ATOM     27  CE1 HIS M   3      40.886  13.441  -7.970  1.00 46.27 LIG 0.23  A 
ATOM     28 ND1  HIS M   3      40.090  12.404  -8.058  1.00 45.18 LIG-0.24  NA
ENDBRANCH 23 24
ENDBRANCH 13 23
ENDBRANCH 9 13
ENDBRANCH 4 6
ENDBRANCH 1 2
BRANCH 1 29
ATOM     29  CB  GLN M   5      34.566  17.110  -9.280  1.00 37.25 LIG 0.04  C 
BRANCH 29 30
ATOM     30  CG  GLN M   5      34.838  18.487  -8.668  1.00 28.05 LIG 0.10  C 
BRANCH 30 31
ATOM     31  CD  GLN M   5      35.216  19.499  -9.722  1.00 28.89 LIG 0.21  C 
ATOM     32  NE2 GLN M   5      34.321  20.445 -10.003  1.00 21.10 LIG-0.37  N 
ATOM     33 22HE GLN M   5      34.506  21.053 -10.582  1.00 21.10 LIG 0.16  HD
ATOM     34 21HE GLN M   5      33.559  20.448  -9.604  1.00 21.10 LIG 0.16  HD
ATOM     35 OE1  GLN M   5      36.326  19.450 -10.267  1.00 23.17 LIG-0.27  OA
ENDBRANCH 30 31
ENDBRANCH 29 30
ENDBRANCH 1 29
BRANCH 1 36
ATOM     36  C   GLN M   5      32.245  16.460  -9.647  1.00 41.58 LIG 0.24  C 
ATOM     37  N   ASN M   6      32.208  15.488 -10.560  1.00 44.37 LIG-0.35  N 
ATOM     38 H    ASN M   6      32.756  14.825 -10.585  1.00 44.37 LIG 0.16  HD
ATOM     39 O    GLN M   5      31.402  17.351  -9.603  1.00 41.62 LIG-0.27  OA
BRANCH 37 40
ATOM     40  CA  ASN M   6      31.201  15.488 -11.611  1.00 43.99 LIG 0.18  C 
BRANCH 40 41
ATOM     41  C   ASN M   6      31.234  16.814 -12.335  1.00 43.58 LIG 0.24  C 
ATOM     42  N   THR M   7      32.372  17.067 -12.966  0.00 42.61 LIG-0.34  N 
ATOM     43 H    THR M   7      33.035  16.519 -12.966  0.00 42.61 LIG 0.16  HD
ATOM     44 O    ASN M   6      30.258  17.567 -12.287  1.00 43.76 LIG-0.27  OA
BRANCH 42 45
ATOM     45  CA  THR M   7      32.628  18.268 -13.714  0.00 41.90 LIG 0.21  C 
BRANCH 45 46
ATOM     46  C   THR M   7      33.920  18.060 -14.517  0.00 41.61 LIG 0.20  C 
ATOM     47 O    THR M   7      34.185  18.795 -15.473  0.00 41.59 LIG-0.65  OA
ATOM     48 OXT  THR M   7      34.672  17.152 -14.184  0.00 41.57 LIG-0.65  OA
ENDBRANCH 45 46
BRANCH 45 49
ATOM     49  CB  THR M   7      32.725  19.433 -12.683  0.00 41.89 LIG 0.15  C 
ATOM     50  CG2 THR M   7      33.829  20.448 -12.988  0.00 41.51 LIG 0.04  C 
BRANCH 49 51
ATOM     51 OG1  THR M   7      31.456  20.074 -12.689  0.00 41.42 LIG-0.39  OA
ATOM     52 HG1  THR M   7      30.863  19.520 -12.904  0.00 41.42 LIG 0.21  HD
ENDBRANCH 49 51
ENDBRANCH 45 49
ENDBRANCH 42 45
ENDBRANCH 40 41
BRANCH 40 53
ATOM     53  CB  ASN M   6      29.805  15.247 -11.015  1.00 43.29 LIG 0.14  C 
BRANCH 53 54
ATOM     54  CG  ASN M   6      29.703  14.229  -9.865  1.00 43.53 LIG 0.22  C 
ATOM     55 OD1  ASN M   6      28.984  14.374  -8.875  1.00 39.33 LIG-0.27  OA
ATOM     56  ND2 ASN M   6      30.449  13.134  -9.878  1.00 45.48 LIG-0.37  N 
ATOM     57 22HD ASN M   6      30.972  12.978 -10.543  1.00 45.48 LIG 0.16  HD
ATOM     58 21HD ASN M   6      30.410  12.579  -9.222  1.00 45.48 LIG 0.16  HD
ENDBRANCH 53 54
ENDBRANCH 40 53
ENDBRANCH 37 40
ENDBRANCH 1 36
TORSDOF 21
ENDMDL
MODEL 22
USER: ADFR SOLUTION from run 162
USER: SCORE 16.234593 LL:  -4.174 LR: -13.859 RR:   0.000 FEB:  -7.595
USER: RMSD 8.564390
USER: SEED 161
USER: STATUS no improvement in best in 3 clusters for 5 generations
USER: GENES 23
USER: genes 0 Translation |==|  0.39662 0.53014 0.64771
USER: genes 1 Rotation |==|  0.35870 0.69292 0.93721 0.54079
USER: genes 2 Torsion [C]-CA--N-[C] |==|  0.63715
USER: genes 3 Torsion [N]-C--CA-[CB] |==|  0.49838
USER: genes 4 Torsion [N]-C--CA-[N] |==|  0.49867
USER: genes 5 Torsion [C]-CA--N-[C] |==|  0.66080
USER: genes 6 Torsion [N]-C--CA-[N] |==|  0.24761
USER: genes 7 Torsion [C]-CA--CB-[OG] |==|  0.29355
USER: genes 8 Torsion [CA]-CB--OG-[HG] |==|  0.60619
USER: genes 9 Torsion [C]-CA--CB-[CG] |==|  0.66524
USER: genes 10 Torsion [CA]-CB--CG-[CD2] |==|  0.65899
USER: genes 11 Torsion [N]-CA--CB-[CG] |==|  0.96975
USER: genes 12 Torsion [CA]-CB--CG-[CD] |==|  0.69652
USER: genes 13 Torsion [CB]-CG--CD-[NE2] |==|  0.45121
USER: genes 14 Torsion [N]-CA--C-[N] |==|  0.46637
USER: genes 15 Torsion [C]-N--CA-[CB] |==|  0.82680
USER: genes 16 Torsion [N]-CA--C-[N] |==|  0.70556
USER: genes 17 Torsion [C]-N--CA-[C] |==|  0.55171
USER: genes 18 Torsion [N]-CA--C-[O] |==|  0.90140
USER: genes 19 Torsion [N]-CA--CB-[CG2] |==|  0.42324
USER: genes 20 Torsion [CA]-CB--OG1-[HG1] |==|  0.51736
USER: genes 21 Torsion [N]-CA--CB-[CG] |==|  0.51482
USER: genes 22 Torsion [CA]-CB--CG-[OD1] |==|  0.20705
ROOT
ATOM      1  CA  GLN M   5      33.421  14.357  -7.374  1.00 40.28 LIG 0.18  C 
ENDROOT
BRANCH 1 2
ATOM      2  N   GLN M   5      34.121  13.096  -7.327  1.00 45.46 LIG-0.35  N 
ATOM      3 H    GLN M   5      34.464  12.831  -8.070  1.00 45.46 LIG 0.16  HD
ATOM      4  C   PRO M   4      34.191  12.438  -6.162  1.00 50.59 LIG 0.24  C 
ATOM      5 O    PRO M   4      33.730  12.948  -5.128  1.00 50.33 LIG-0.27  OA
BRANCH 4 6
ATOM      6  CA  PRO M   4      34.867  11.070  -6.102  1.00 53.72 LIG 0.18  C 
ATOM      7  N   PRO M   4      36.270  10.995  -6.515  1.00 55.45 LIG-0.34  N 
ATOM      8  CD  PRO M   4      37.063  10.379  -5.444  1.00 56.03 LIG 0.13  C 
ATOM      9  C   HIS M   3      36.711  11.251  -7.767  1.00 54.96 LIG 0.24  C 
ATOM     10  CG  PRO M   4      36.273  10.729  -4.208  1.00 55.72 LIG 0.02  C 
ATOM     11  CB  PRO M   4      34.871  10.467  -4.700  1.00 52.77 LIG 0.04  C 
ATOM     12 O    HIS M   3      35.928  11.501  -8.696  1.00 54.31 LIG-0.27  OA
BRANCH 9 13
ATOM     13  CA  HIS M   3      38.212  11.246  -8.069  1.00 53.95 LIG 0.18  C 
BRANCH 13 14
ATOM     14  N   HIS M   3      38.372  11.539  -9.480  1.00 55.94 LIG-0.34  N 
ATOM     15  C   SER M   2      39.005  10.693 -10.285  0.19 53.43 LIG 0.26  C 
ATOM     16 O    SER M   2      39.611   9.700  -9.859  0.19 53.78 LIG-0.27  OA
ATOM     17 H    HIS M   3      38.030  12.286  -9.735  1.00 55.94 LIG 0.16  HD
BRANCH 15 18
ATOM     18  CA  SER M   2      39.056  10.970 -11.780  0.19 52.30 LIG 0.42  C 
ATOM     19  N   SER M   2      40.248  11.772 -11.923  0.19 52.36 LIG 0.62  N 
BRANCH 18 20
ATOM     20  CB  SER M   2      39.265   9.698 -12.592  0.19 51.64 LIG 0.21  C 
BRANCH 20 21
ATOM     21 OG   SER M   2      38.021   9.362 -13.212  0.19 50.47 LIG-0.40  OA
ATOM     22 HG   SER M   2      37.920   8.528 -13.204  0.19 50.47 LIG 0.21  HD
ENDBRANCH 20 21
ENDBRANCH 18 20
ENDBRANCH 15 18
ENDBRANCH 13 14
BRANCH 13 23
ATOM     23  CB  HIS M   3      38.907  12.297  -7.212  1.00 50.96 LIG 0.10  C 
BRANCH 23 24
ATOM     24  CG  HIS M   3      39.604  13.310  -8.107  1.00 47.24 LIG 0.06  A 
ATOM     25  CD2 HIS M   3      40.935  13.615  -8.078  1.00 45.19 LIG 0.14  A 
ATOM     26 NE2  HIS M   3      40.993  14.587  -8.941  1.00 45.41 LIG-0.25  NA
ATOM     27  CE1 HIS M   3      39.802  14.842  -9.447  1.00 46.27 LIG 0.23  A 
ATOM     28 ND1  HIS M   3      38.896  14.045  -8.935  1.00 45.18 LIG-0.24  NA
ENDBRANCH 23 24
ENDBRANCH 13 23
ENDBRANCH 9 13
ENDBRANCH 4 6
ENDBRANCH 1 2
BRANCH 1 29
ATOM     29  CB  GLN M   5      34.361  15.512  -7.577  1.00 37.25 LIG 0.04  C 
BRANCH 29 30
ATOM     30  CG  GLN M   5      35.818  15.072  -7.410  1.00 28.05 LIG 0.10  C 
BRANCH 30 31
ATOM     31  CD  GLN M   5      36.423  15.623  -6.141  1.00 28.89 LIG 0.21  C 
ATOM     32  NE2 GLN M   5      37.536  15.040  -5.698  1.00 21.10 LIG-0.37  N 
ATOM     33 22HE GLN M   5      37.924  15.337  -4.990  1.00 21.10 LIG 0.16  HD
ATOM     34 21HE GLN M   5      37.866  14.367  -6.119  1.00 21.10 LIG 0.16  HD
ATOM     35 OE1  GLN M   5      35.908  16.594  -5.573  1.00 23.17 LIG-0.27  OA
ENDBRANCH 30 31
ENDBRANCH 29 30
ENDBRANCH 1 29
BRANCH 1 36
ATOM     36  C   GLN M   5      32.463  14.323  -8.539  1.00 41.58 LIG 0.24  C 
ATOM     37  N   ASN M   6      31.539  15.279  -8.632  1.00 44.37 LIG-0.35  N 
ATOM     38 H    ASN M   6      31.481  15.952  -8.099  1.00 44.37 LIG 0.16  HD
ATOM     39 O    GLN M   5      32.556  13.417  -9.362  1.00 41.62 LIG-0.27  OA
BRANCH 37 40
ATOM     40  CA  ASN M   6      30.530  15.244  -9.683  1.00 43.99 LIG 0.18  C 
BRANCH 40 41
ATOM     41  C   ASN M   6      29.737  13.963  -9.570  1.00 43.58 LIG 0.24  C 
ATOM     42  N   THR M   7      30.019  13.059 -10.498  0.00 42.61 LIG-0.34  N 
ATOM     43 H    THR M   7      30.608  13.190 -11.111  0.00 42.61 LIG 0.16  HD
ATOM     44 O    ASN M   6      28.893  13.837  -8.680  1.00 43.76 LIG-0.27  OA
BRANCH 42 45
ATOM     45  CA  THR M   7      29.383  11.772 -10.587  0.00 41.90 LIG 0.21  C 
BRANCH 45 46
ATOM     46  C   THR M   7      30.271  10.864 -11.450  0.00 41.61 LIG 0.20  C 
ATOM     47 O    THR M   7      30.893  11.331 -12.409  0.00 41.59 LIG-0.65  OA
ATOM     48 OXT  THR M   7      30.342   9.675 -11.162  0.00 41.57 LIG-0.65  OA
ENDBRANCH 45 46
BRANCH 45 49
ATOM     49  CB  THR M   7      27.967  12.006 -11.195  0.00 41.89 LIG 0.15  C 
ATOM     50  CG2 THR M   7      27.412  10.807 -11.968  0.00 41.51 LIG 0.04  C 
BRANCH 49 51
ATOM     51 OG1  THR M   7      27.114  12.321 -10.103  0.00 41.42 LIG-0.39  OA
ATOM     52 HG1  THR M   7      26.320  12.372 -10.373  0.00 41.42 LIG 0.21  HD
ENDBRANCH 49 51
ENDBRANCH 45 49
ENDBRANCH 42 45
ENDBRANCH 40 41
BRANCH 40 53
ATOM     53  CB  ASN M   6      31.195  15.334 -11.066  1.00 43.29 LIG 0.14  C 
BRANCH 53 54
ATOM     54  CG  ASN M   6      30.259  15.437 -12.284  1.00 43.53 LIG 0.22  C 
ATOM     55 OD1  ASN M   6      29.638  16.455 -12.595  1.00 39.33 LIG-0.27  OA
ATOM     56  ND2 ASN M   6      30.046  14.378 -13.050  1.00 45.48 LIG-0.37  N 
ATOM     57 22HD ASN M   6      30.451  13.637 -12.883  1.00 45.48 LIG 0.16  HD
ATOM     58 21HD ASN M   6      29.503  14.430 -13.716  1.00 45.48 LIG 0.16  HD
ENDBRANCH 53 54
ENDBRANCH 40 53
ENDBRANCH 37 40
ENDBRANCH 1 36
TORSDOF 21
ENDMDL
