MODEL 1
USER: ADFR SOLUTION from run 58
USER: SCORE 22.683194 LL:  -5.540 LR: -17.466 RR:   0.000 FEB: -11.202
USER: RMSD 2.810028
USER: SEED 57
USER: STATUS no improvement in best in 5 clusters for 5 generations
USER: GENES 23
USER: genes 0 Translation |==|  0.50573 0.55356 0.49068
USER: genes 1 Rotation |==|  0.58451 0.51403 0.67069 0.96209
USER: genes 2 Torsion [C]-CA--N-[C] |==|  0.54474
USER: genes 3 Torsion [N]-C--CA-[N] |==|  0.36267
USER: genes 4 Torsion [C]-CA--CB-[CG] |==|  0.80441
USER: genes 5 Torsion [CA]-CB--CG-[CD] |==|  0.68778
USER: genes 6 Torsion [CB]-CG--CD-[OE2] |==|  0.22531
USER: genes 7 Torsion [C]-CA--N-[C] |==|  0.83413
USER: genes 8 Torsion [N]-C--CA-[N] |==|  0.24744
USER: genes 9 Torsion [C]-CA--CB-[CG] |==|  0.58623
USER: genes 10 Torsion [CA]-CB--CG-[OD1] |==|  0.26882
USER: genes 11 Torsion [N]-CA--C-[N] |==|  0.48876
USER: genes 12 Torsion [C]-N--CA-[C] |==|  0.77145
USER: genes 13 Torsion [N]-CA--C-[N] |==|  0.42778
USER: genes 14 Torsion [C]-N--CA-[C] |==|  0.61205
USER: genes 15 Torsion [N]-CA--C-[O] |==|  0.41447
USER: genes 16 Torsion [N]-CA--CB-[CG] |==|  0.72345
USER: genes 17 Torsion [CA]-CB--CG-[CD2] |==|  0.50166
USER: genes 18 Torsion [N]-CA--CB-[CG] |==|  0.51951
USER: genes 19 Torsion [CA]-CB--CG-[CD2] |==|  0.03695
USER: genes 20 Torsion [CE1]-CZ--OH-[HH] |==|  0.09688
USER: genes 21 Torsion [N]-CA--CB-[CG] |==|  0.10970
USER: genes 22 Torsion [CA]-CB--CG-[CD1] |==|  0.09424
ROOT
ATOM      1  CA  PHE S   4      43.971  54.858  53.582  1.00 21.41 LIG 0.18  C 
ENDROOT
BRANCH 1 2
ATOM      2  N   PHE S   4      44.086  53.961  54.725  1.00 22.57 LIG-0.35  N 
ATOM      3 H    PHE S   4      43.871  53.146  54.554  1.00 22.57 LIG 0.16  HD
ATOM      4  C   GLU S   3      44.491  54.377  55.925  1.00 26.46 LIG 0.24  C 
ATOM      5 O    GLU S   3      44.794  55.551  56.168  1.00 26.71 LIG-0.27  OA
BRANCH 4 6
ATOM      6  CA  GLU S   3      44.493  53.333  57.029  1.00 28.27 LIG 0.18  C 
BRANCH 6 7
ATOM      7  CB  GLU S   3      43.379  53.764  57.968  1.00 28.84 LIG 0.04  C 
BRANCH 7 8
ATOM      8  CG  GLU S   3      43.597  54.993  58.782  1.00 31.31 LIG 0.12  C 
BRANCH 8 9
ATOM      9  CD  GLU S   3      43.708  54.619  60.240  1.00 32.39 LIG 0.17  C 
ATOM     10 OE2  GLU S   3      44.794  54.199  60.640  1.00 38.97 LIG-0.65  OA
ATOM     11 OE1  GLU S   3      42.691  54.726  60.977  1.00 34.38 LIG-0.65  OA
ENDBRANCH 8 9
ENDBRANCH 7 8
ENDBRANCH 6 7
BRANCH 6 12
ATOM     12  N   GLU S   3      45.802  53.372  57.713  1.00 29.65 LIG-0.35  N 
ATOM     13 H    GLU S   3      45.746  53.551  58.552  1.00 29.65 LIG 0.16  HD
ATOM     14  C   ASN S   2      46.950  53.152  57.095  1.00 31.60 LIG 0.26  C 
ATOM     15 O    ASN S   2      47.035  52.682  55.968  1.00 31.89 LIG-0.27  OA
BRANCH 14 16
ATOM     16  CA  ASN S   2      48.206  53.554  57.888  1.00 33.47 LIG 0.41  C 
ATOM     17  N   ASN S   2      48.741  52.476  58.760  1.00 34.35 LIG 0.61  N 
BRANCH 16 18
ATOM     18  CB  ASN S   2      49.320  54.069  56.996  1.00 34.36 LIG 0.15  C 
BRANCH 18 19
ATOM     19  CG  ASN S   2      50.696  53.754  57.572  1.00 36.60 LIG 0.22  C 
ATOM     20 OD1  ASN S   2      51.354  52.746  57.195  1.00 40.55 LIG-0.27  OA
ATOM     21  ND2 ASN S   2      51.145  54.604  58.484  1.00 40.03 LIG-0.37  N 
ATOM     22 22HD ASN S   2      50.667  55.280  58.715  1.00 40.03 LIG 0.16  HD
ATOM     23 21HD ASN S   2      51.916  54.479  58.845  1.00 40.03 LIG 0.16  HD
ENDBRANCH 18 19
ENDBRANCH 16 18
ENDBRANCH 14 16
ENDBRANCH 6 12
ENDBRANCH 4 6
ENDBRANCH 1 2
BRANCH 1 24
ATOM     24  C   PHE S   4      43.127  54.220  52.481  1.00 20.14 LIG 0.24  C 
ATOM     25  N   TYR S   5      42.892  54.992  51.427  1.00 19.70 LIG-0.35  N 
ATOM     26 H    TYR S   5      43.139  55.815  51.378  1.00 19.70 LIG 0.16  HD
ATOM     27 O    PHE S   4      42.743  53.059  52.563  1.00 18.43 LIG-0.27  OA
BRANCH 25 28
ATOM     28  CA  TYR S   5      42.184  54.514  50.241  1.00 19.15 LIG 0.18  C 
BRANCH 28 29
ATOM     29  C   TYR S   5      43.212  53.784  49.391  1.00 19.17 LIG 0.24  C 
ATOM     30  N   PHE S   6      42.734  52.842  48.583  1.00 19.00 LIG-0.34  N 
ATOM     31 H    PHE S   6      41.900  52.635  48.544  1.00 19.00 LIG 0.16  HD
ATOM     32 O    TYR S   5      44.416  54.032  49.494  1.00 19.39 LIG-0.27  OA
BRANCH 30 33
ATOM     33  CA  PHE S   6      43.572  52.065  47.678  1.00 19.20 LIG 0.19  C 
BRANCH 33 34
ATOM     34  C   PHE S   6      42.939  51.832  46.314  1.00 19.81 LIG 0.20  C 
ATOM     35 O    PHE S   6      43.656  51.725  45.303  1.00 18.53 LIG-0.65  OA
ATOM     36 OXT  PHE S   6      41.680  51.778  46.292  1.00 20.48 LIG-0.65  OA
ENDBRANCH 33 34
BRANCH 33 37
ATOM     37  CB  PHE S   6      43.913  50.723  48.332  1.00 19.81 LIG 0.07  C 
BRANCH 37 38
ATOM     38  CG  PHE S   6      45.304  50.679  48.974  1.00 21.45 LIG-0.06  A 
ATOM     39  CD2 PHE S   6      45.758  49.530  49.591  1.00 24.56 LIG 0.01  A 
ATOM     40  CE2 PHE S   6      47.028  49.487  50.184  1.00 25.95 LIG 0.00  A 
ATOM     41  CZ  PHE S   6      47.844  50.583  50.110  1.00 23.46 LIG 0.00  A 
ATOM     42  CE1 PHE S   6      47.419  51.723  49.475  1.00 24.74 LIG 0.00  A 
ATOM     43  CD1 PHE S   6      46.173  51.778  48.912  1.00 22.31 LIG 0.01  A 
ENDBRANCH 37 38
ENDBRANCH 33 37
ENDBRANCH 30 33
ENDBRANCH 28 29
BRANCH 28 44
ATOM     44  CB  TYR S   5      41.567  55.711  49.495  1.00 19.45 LIG 0.07  C 
BRANCH 44 45
ATOM     45  CG  TYR S   5      40.660  55.396  48.335  1.00 19.88 LIG-0.06  A 
ATOM     46  CD1 TYR S   5      40.258  56.369  47.426  1.00 18.15 LIG 0.01  A 
ATOM     47  CE1 TYR S   5      39.412  56.070  46.389  1.00 18.26 LIG 0.04  A 
ATOM     48  CZ  TYR S   5      38.966  54.767  46.227  1.00 18.69 LIG 0.07  A 
ATOM     49  CE2 TYR S   5      39.360  53.791  47.095  1.00 19.96 LIG 0.04  A 
ATOM     50  CD2 TYR S   5      40.198  54.106  48.153  1.00 21.89 LIG 0.01  A 
BRANCH 48 51
ATOM     51 OH   TYR S   5      38.124  54.445  45.198  1.00 21.24 LIG-0.36  OA
ATOM     52 HH   TYR S   5      38.315  54.908  44.524  1.00 21.24 LIG 0.22  HD
ENDBRANCH 48 51
ENDBRANCH 44 45
ENDBRANCH 28 44
ENDBRANCH 25 28
ENDBRANCH 1 24
BRANCH 1 53
ATOM     53  CB  PHE S   4      45.359  55.140  53.050  1.00 21.76 LIG 0.07  C 
BRANCH 53 54
ATOM     54  CG  PHE S   4      46.253  53.947  53.058  1.00 21.60 LIG-0.06  A 
ATOM     55  CD2 PHE S   4      47.602  54.086  53.295  1.00 23.13 LIG 0.01  A 
ATOM     56  CE2 PHE S   4      48.432  53.005  53.270  1.00 23.23 LIG 0.00  A 
ATOM     57  CZ  PHE S   4      47.915  51.759  53.087  1.00 22.51 LIG 0.00  A 
ATOM     58  CE1 PHE S   4      46.568  51.594  52.845  1.00 22.53 LIG 0.00  A 
ATOM     59  CD1 PHE S   4      45.735  52.684  52.830  1.00 22.71 LIG 0.01  A 
ENDBRANCH 53 54
ENDBRANCH 1 53
TORSDOF 21
ENDMDL
MODEL 2
USER: ADFR SOLUTION from run 145
USER: SCORE 22.436051 LL:  -5.615 LR: -17.121 RR:   0.000 FEB: -10.857
USER: RMSD 2.966203
USER: SEED 144
USER: STATUS no improvement in best in 2 clusters for 5 generations
USER: GENES 23
USER: genes 0 Translation |==|  0.51120 0.53970 0.49193
USER: genes 1 Rotation |==|  0.57034 0.51393 0.64168 0.97412
USER: genes 2 Torsion [C]-CA--N-[C] |==|  0.60327
USER: genes 3 Torsion [N]-C--CA-[N] |==|  0.35002
USER: genes 4 Torsion [C]-CA--CB-[CG] |==|  0.79161
USER: genes 5 Torsion [CA]-CB--CG-[CD] |==|  0.73377
USER: genes 6 Torsion [CB]-CG--CD-[OE2] |==|  0.72793
USER: genes 7 Torsion [C]-CA--N-[C] |==|  0.82778
USER: genes 8 Torsion [N]-C--CA-[N] |==|  0.99879
USER: genes 9 Torsion [C]-CA--CB-[CG] |==|  0.77169
USER: genes 10 Torsion [CA]-CB--CG-[OD1] |==|  0.05609
USER: genes 11 Torsion [N]-CA--C-[N] |==|  0.46385
USER: genes 12 Torsion [C]-N--CA-[C] |==|  0.71281
USER: genes 13 Torsion [N]-CA--C-[N] |==|  0.40439
USER: genes 14 Torsion [C]-N--CA-[C] |==|  0.53315
USER: genes 15 Torsion [N]-CA--C-[O] |==|  0.96559
USER: genes 16 Torsion [N]-CA--CB-[CG] |==|  0.62812
USER: genes 17 Torsion [CA]-CB--CG-[CD2] |==|  0.38025
USER: genes 18 Torsion [N]-CA--CB-[CG] |==|  0.45904
USER: genes 19 Torsion [CA]-CB--CG-[CD2] |==|  0.11556
USER: genes 20 Torsion [CE1]-CZ--OH-[HH] |==|  0.10808
USER: genes 21 Torsion [N]-CA--CB-[CG] |==|  0.18159
USER: genes 22 Torsion [CA]-CB--CG-[CD1] |==|  0.25101
ROOT
ATOM      1  CA  PHE S   4      44.077  54.629  53.614  1.00 21.41 LIG 0.18  C 
ENDROOT
BRANCH 1 2
ATOM      2  N   PHE S   4      44.086  53.800  54.812  1.00 22.57 LIG-0.35  N 
ATOM      3 H    PHE S   4      44.052  52.955  54.653  1.00 22.57 LIG 0.16  HD
ATOM      4  C   GLU S   3      44.141  54.314  56.040  1.00 26.46 LIG 0.24  C 
ATOM      5 O    GLU S   3      44.184  55.529  56.264  1.00 26.71 LIG-0.27  OA
BRANCH 4 6
ATOM      6  CA  GLU S   3      44.073  53.318  57.186  1.00 28.27 LIG 0.18  C 
BRANCH 6 7
ATOM      7  CB  GLU S   3      42.777  53.649  57.907  1.00 28.84 LIG 0.04  C 
BRANCH 7 8
ATOM      8  CG  GLU S   3      42.753  54.870  58.761  1.00 31.31 LIG 0.12  C 
BRANCH 8 9
ATOM      9  CD  GLU S   3      43.029  54.487  60.195  1.00 32.39 LIG 0.17  C 
ATOM     10 OE2  GLU S   3      42.062  54.350  60.945  1.00 38.97 LIG-0.65  OA
ATOM     11 OE1  GLU S   3      44.224  54.349  60.571  1.00 34.38 LIG-0.65  OA
ENDBRANCH 8 9
ENDBRANCH 7 8
ENDBRANCH 6 7
BRANCH 6 12
ATOM     12  N   GLU S   3      45.237  53.536  58.070  1.00 29.65 LIG-0.35  N 
ATOM     13 H    GLU S   3      45.022  53.768  58.870  1.00 29.65 LIG 0.16  HD
ATOM     14  C   ASN S   2      46.489  53.388  57.670  1.00 31.60 LIG 0.26  C 
ATOM     15 O    ASN S   2      46.806  52.850  56.618  1.00 31.89 LIG-0.27  OA
BRANCH 14 16
ATOM     16  CA  ASN S   2      47.550  53.969  58.622  1.00 33.47 LIG 0.41  C 
ATOM     17  N   ASN S   2      46.985  54.614  59.836  1.00 34.35 LIG 0.61  N 
BRANCH 16 18
ATOM     18  CB  ASN S   2      48.583  52.940  59.042  1.00 34.36 LIG 0.15  C 
BRANCH 18 19
ATOM     19  CG  ASN S   2      48.082  52.075  60.193  1.00 36.60 LIG 0.22  C 
ATOM     20 OD1  ASN S   2      46.852  51.967  60.451  1.00 40.55 LIG-0.27  OA
ATOM     21  ND2 ASN S   2      49.019  51.453  60.895  1.00 40.03 LIG-0.37  N 
ATOM     22 22HD ASN S   2      49.848  51.552  60.688  1.00 40.03 LIG 0.16  HD
ATOM     23 21HD ASN S   2      48.798  50.950  61.557  1.00 40.03 LIG 0.16  HD
ENDBRANCH 18 19
ENDBRANCH 16 18
ENDBRANCH 14 16
ENDBRANCH 6 12
ENDBRANCH 4 6
ENDBRANCH 1 2
BRANCH 1 24
ATOM     24  C   PHE S   4      43.160  54.030  52.551  1.00 20.14 LIG 0.24  C 
ATOM     25  N   TYR S   5      42.869  54.833  51.535  1.00 19.70 LIG-0.35  N 
ATOM     26 H    TYR S   5      43.123  55.654  51.492  1.00 19.70 LIG 0.16  HD
ATOM     27 O    PHE S   4      42.768  52.871  52.626  1.00 18.43 LIG-0.27  OA
BRANCH 25 28
ATOM     28  CA  TYR S   5      42.083  54.394  50.382  1.00 19.15 LIG 0.18  C 
BRANCH 28 29
ATOM     29  C   TYR S   5      43.071  54.170  49.248  1.00 19.17 LIG 0.24  C 
ATOM     30  N   PHE S   6      42.782  53.175  48.415  1.00 19.00 LIG-0.34  N 
ATOM     31 H    PHE S   6      42.092  52.669  48.508  1.00 19.00 LIG 0.16  HD
ATOM     32 O    TYR S   5      44.096  54.850  49.151  1.00 19.39 LIG-0.27  OA
BRANCH 30 33
ATOM     33  CA  PHE S   6      43.601  52.839  47.257  1.00 19.20 LIG 0.19  C 
BRANCH 33 34
ATOM     34  C   PHE S   6      42.929  51.864  46.300  1.00 19.81 LIG 0.20  C 
ATOM     35 O    PHE S   6      41.899  51.260  46.647  1.00 18.53 LIG-0.65  OA
ATOM     36 OXT  PHE S   6      43.490  51.713  45.182  1.00 20.48 LIG-0.65  OA
ENDBRANCH 33 34
BRANCH 33 37
ATOM     37  CB  PHE S   6      44.938  52.263  47.734  1.00 19.81 LIG 0.07  C 
BRANCH 37 38
ATOM     38  CG  PHE S   6      46.158  52.849  47.014  1.00 21.45 LIG-0.06  A 
ATOM     39  CD2 PHE S   6      47.292  53.198  47.723  1.00 24.56 LIG 0.01  A 
ATOM     40  CE2 PHE S   6      48.409  53.738  47.070  1.00 25.95 LIG 0.00  A 
ATOM     41  CZ  PHE S   6      48.390  53.881  45.710  1.00 23.46 LIG 0.00  A 
ATOM     42  CE1 PHE S   6      47.283  53.513  44.988  1.00 24.74 LIG 0.00  A 
ATOM     43  CD1 PHE S   6      46.182  53.002  45.621  1.00 22.31 LIG 0.01  A 
ENDBRANCH 37 38
ENDBRANCH 33 37
ENDBRANCH 30 33
ENDBRANCH 28 29
BRANCH 28 44
ATOM     44  CB  TYR S   5      41.041  55.471  50.033  1.00 19.45 LIG 0.07  C 
BRANCH 44 45
ATOM     45  CG  TYR S   5      40.374  55.363  48.688  1.00 19.88 LIG-0.06  A 
ATOM     46  CD1 TYR S   5      40.133  56.476  47.889  1.00 18.15 LIG 0.01  A 
ATOM     47  CE1 TYR S   5      39.503  56.362  46.678  1.00 18.26 LIG 0.04  A 
ATOM     48  CZ  TYR S   5      39.118  55.110  46.224  1.00 18.69 LIG 0.07  A 
ATOM     49  CE2 TYR S   5      39.358  54.000  46.980  1.00 19.96 LIG 0.04  A 
ATOM     50  CD2 TYR S   5      39.976  54.126  48.214  1.00 21.89 LIG 0.01  A 
BRANCH 48 51
ATOM     51 OH   TYR S   5      38.490  54.972  45.017  1.00 21.24 LIG-0.36  OA
ATOM     52 HH   TYR S   5      38.834  55.498  44.460  1.00 21.24 LIG 0.22  HD
ENDBRANCH 48 51
ENDBRANCH 44 45
ENDBRANCH 28 44
ENDBRANCH 25 28
ENDBRANCH 1 24
BRANCH 1 53
ATOM     53  CB  PHE S   4      45.489  54.706  53.072  1.00 21.76 LIG 0.07  C 
BRANCH 53 54
ATOM     54  CG  PHE S   4      46.011  53.396  52.589  1.00 21.60 LIG-0.06  A 
ATOM     55  CD2 PHE S   4      46.676  52.549  53.448  1.00 23.13 LIG 0.01  A 
ATOM     56  CE2 PHE S   4      47.188  51.366  53.007  1.00 23.23 LIG 0.00  A 
ATOM     57  CZ  PHE S   4      46.975  50.973  51.721  1.00 22.51 LIG 0.00  A 
ATOM     58  CE1 PHE S   4      46.315  51.804  50.842  1.00 22.53 LIG 0.00  A 
ATOM     59  CD1 PHE S   4      45.832  53.015  51.271  1.00 22.71 LIG 0.01  A 
ENDBRANCH 53 54
ENDBRANCH 1 53
TORSDOF 21
ENDMDL
MODEL 3
USER: ADFR SOLUTION from run 67
USER: SCORE 22.097251 LL:  -5.415 LR: -17.051 RR:   0.000 FEB: -10.787
USER: RMSD 2.092604
USER: SEED 66
USER: STATUS 1 or 2 clusters left
USER: GENES 23
USER: genes 0 Translation |==|  0.54315 0.50267 0.49264
USER: genes 1 Rotation |==|  0.49015 0.50753 0.49830 0.99984
USER: genes 2 Torsion [C]-CA--N-[C] |==|  0.81032
USER: genes 3 Torsion [N]-C--CA-[N] |==|  0.11309
USER: genes 4 Torsion [C]-CA--CB-[CG] |==|  0.66010
USER: genes 5 Torsion [CA]-CB--CG-[CD] |==|  0.81076
USER: genes 6 Torsion [CB]-CG--CD-[OE2] |==|  0.34914
USER: genes 7 Torsion [C]-CA--N-[C] |==|  0.14039
USER: genes 8 Torsion [N]-C--CA-[N] |==|  0.73170
USER: genes 9 Torsion [C]-CA--CB-[CG] |==|  0.54958
USER: genes 10 Torsion [CA]-CB--CG-[OD1] |==|  0.17421
USER: genes 11 Torsion [N]-CA--C-[N] |==|  0.45368
USER: genes 12 Torsion [C]-N--CA-[C] |==|  0.63823
USER: genes 13 Torsion [N]-CA--C-[N] |==|  0.32844
USER: genes 14 Torsion [C]-N--CA-[C] |==|  0.69807
USER: genes 15 Torsion [N]-CA--C-[O] |==|  0.41530
USER: genes 16 Torsion [N]-CA--CB-[CG] |==|  0.82761
USER: genes 17 Torsion [CA]-CB--CG-[CD2] |==|  0.95404
USER: genes 18 Torsion [N]-CA--CB-[CG] |==|  0.47037
USER: genes 19 Torsion [CA]-CB--CG-[CD2] |==|  0.56537
USER: genes 20 Torsion [CE1]-CZ--OH-[HH] |==|  0.78306
USER: genes 21 Torsion [N]-CA--CB-[CG] |==|  0.79701
USER: genes 22 Torsion [CA]-CB--CG-[CD1] |==|  0.68792
ROOT
ATOM      1  CA  PHE S   4      44.701  54.018  53.632  1.00 21.41 LIG 0.18  C 
ENDROOT
BRANCH 1 2
ATOM      2  N   PHE S   4      44.327  53.746  55.014  1.00 22.57 LIG-0.35  N 
ATOM      3 H    PHE S   4      44.748  53.083  55.366  1.00 22.57 LIG 0.16  HD
ATOM      4  C   GLU S   3      43.413  54.465  55.665  1.00 26.46 LIG 0.24  C 
ATOM      5 O    GLU S   3      42.807  55.413  55.153  1.00 26.71 LIG-0.27  OA
BRANCH 4 6
ATOM      6  CA  GLU S   3      43.088  54.011  57.078  1.00 28.27 LIG 0.18  C 
BRANCH 6 7
ATOM      7  CB  GLU S   3      42.477  55.234  57.744  1.00 28.84 LIG 0.04  C 
BRANCH 7 8
ATOM      8  CG  GLU S   3      43.131  55.746  58.982  1.00 31.31 LIG 0.12  C 
BRANCH 8 9
ATOM      9  CD  GLU S   3      42.942  54.749  60.099  1.00 32.39 LIG 0.17  C 
ATOM     10 OE2  GLU S   3      43.949  54.349  60.684  1.00 38.97 LIG-0.65  OA
ATOM     11 OE1  GLU S   3      41.778  54.349  60.372  1.00 34.38 LIG-0.65  OA
ENDBRANCH 8 9
ENDBRANCH 7 8
ENDBRANCH 6 7
BRANCH 6 12
ATOM     12  N   GLU S   3      44.344  53.620  57.750  1.00 29.65 LIG-0.35  N 
ATOM     13 H    GLU S   3      44.308  52.845  58.122  1.00 29.65 LIG 0.16  HD
ATOM     14  C   ASN S   2      45.421  54.386  57.777  1.00 31.60 LIG 0.26  C 
ATOM     15 O    ASN S   2      45.566  55.378  57.075  1.00 31.89 LIG-0.27  OA
BRANCH 14 16
ATOM     16  CA  ASN S   2      46.500  53.959  58.787  1.00 33.47 LIG 0.41  C 
ATOM     17  N   ASN S   2      46.438  54.685  60.083  1.00 34.35 LIG 0.61  N 
BRANCH 16 18
ATOM     18  CB  ASN S   2      46.489  52.465  59.056  1.00 34.36 LIG 0.15  C 
BRANCH 18 19
ATOM     19  CG  ASN S   2      47.232  52.116  60.341  1.00 36.60 LIG 0.22  C 
ATOM     20 OD1  ASN S   2      46.843  52.538  61.464  1.00 40.55 LIG-0.27  OA
ATOM     21  ND2 ASN S   2      48.303  51.349  60.195  1.00 40.03 LIG-0.37  N 
ATOM     22 22HD ASN S   2      48.537  51.082  59.412  1.00 40.03 LIG 0.16  HD
ATOM     23 21HD ASN S   2      48.764  51.119  60.884  1.00 40.03 LIG 0.16  HD
ENDBRANCH 18 19
ENDBRANCH 16 18
ENDBRANCH 14 16
ENDBRANCH 6 12
ENDBRANCH 4 6
ENDBRANCH 1 2
BRANCH 1 24
ATOM     24  C   PHE S   4      43.545  53.694  52.688  1.00 20.14 LIG 0.24  C 
ATOM     25  N   TYR S   5      43.642  54.217  51.472  1.00 19.70 LIG-0.35  N 
ATOM     26 H    TYR S   5      44.274  54.751  51.235  1.00 19.70 LIG 0.16  HD
ATOM     27 O    PHE S   4      42.625  52.961  53.034  1.00 18.43 LIG-0.27  OA
BRANCH 25 28
ATOM     28  CA  TYR S   5      42.676  53.934  50.412  1.00 19.15 LIG 0.18  C 
BRANCH 28 29
ATOM     29  C   TYR S   5      43.486  53.538  49.187  1.00 19.17 LIG 0.24  C 
ATOM     30  N   PHE S   6      43.280  52.307  48.728  1.00 19.00 LIG-0.34  N 
ATOM     31 H    PHE S   6      42.740  51.751  49.100  1.00 19.00 LIG 0.16  HD
ATOM     32 O    TYR S   5      44.311  54.310  48.691  1.00 19.39 LIG-0.27  OA
BRANCH 30 33
ATOM     33  CA  PHE S   6      43.948  51.773  47.548  1.00 19.20 LIG 0.19  C 
BRANCH 33 34
ATOM     34  C   PHE S   6      43.023  51.611  46.349  1.00 19.81 LIG 0.20  C 
ATOM     35 O    PHE S   6      43.473  51.724  45.195  1.00 18.53 LIG-0.65  OA
ATOM     36 OXT  PHE S   6      41.813  51.381  46.613  1.00 20.48 LIG-0.65  OA
ENDBRANCH 33 34
BRANCH 33 37
ATOM     37  CB  PHE S   6      44.592  50.428  47.895  1.00 19.81 LIG 0.07  C 
BRANCH 37 38
ATOM     38  CG  PHE S   6      45.673  50.518  48.978  1.00 21.45 LIG-0.06  A 
ATOM     39  CD2 PHE S   6      46.236  51.736  49.309  1.00 24.56 LIG 0.01  A 
ATOM     40  CE2 PHE S   6      47.229  51.823  50.296  1.00 25.95 LIG 0.00  A 
ATOM     41  CZ  PHE S   6      47.612  50.695  50.968  1.00 23.46 LIG 0.00  A 
ATOM     42  CE1 PHE S   6      47.043  49.483  50.670  1.00 24.74 LIG 0.00  A 
ATOM     43  CD1 PHE S   6      46.087  49.387  49.695  1.00 22.31 LIG 0.01  A 
ENDBRANCH 37 38
ENDBRANCH 33 37
ENDBRANCH 30 33
ENDBRANCH 28 29
BRANCH 28 44
ATOM     44  CB  TYR S   5      41.817  55.184  50.154  1.00 19.45 LIG 0.07  C 
BRANCH 44 45
ATOM     45  CG  TYR S   5      40.936  55.166  48.934  1.00 19.88 LIG-0.06  A 
ATOM     46  CD1 TYR S   5      40.514  53.979  48.343  1.00 18.15 LIG 0.01  A 
ATOM     47  CE1 TYR S   5      39.733  53.981  47.217  1.00 18.26 LIG 0.04  A 
ATOM     48  CZ  TYR S   5      39.332  55.189  46.667  1.00 18.69 LIG 0.07  A 
ATOM     49  CE2 TYR S   5      39.718  56.367  47.237  1.00 19.96 LIG 0.04  A 
ATOM     50  CD2 TYR S   5      40.526  56.357  48.363  1.00 21.89 LIG 0.01  A 
BRANCH 48 51
ATOM     51 OH   TYR S   5      38.549  55.215  45.545  1.00 21.24 LIG-0.36  OA
ATOM     52 HH   TYR S   5      39.025  55.066  44.868  1.00 21.24 LIG 0.22  HD
ENDBRANCH 48 51
ENDBRANCH 44 45
ENDBRANCH 28 44
ENDBRANCH 25 28
ENDBRANCH 1 24
BRANCH 1 53
ATOM     53  CB  PHE S   4      45.894  53.157  53.278  1.00 21.76 LIG 0.07  C 
BRANCH 53 54
ATOM     54  CG  PHE S   4      47.164  53.614  53.910  1.00 21.60 LIG-0.06  A 
ATOM     55  CD2 PHE S   4      47.337  53.526  55.274  1.00 23.13 LIG 0.01  A 
ATOM     56  CE2 PHE S   4      48.481  53.974  55.864  1.00 23.23 LIG 0.00  A 
ATOM     57  CZ  PHE S   4      49.502  54.442  55.094  1.00 22.51 LIG 0.00  A 
ATOM     58  CE1 PHE S   4      49.352  54.541  53.728  1.00 22.53 LIG 0.00  A 
ATOM     59  CD1 PHE S   4      48.187  54.129  53.132  1.00 22.71 LIG 0.01  A 
ENDBRANCH 53 54
ENDBRANCH 1 53
TORSDOF 21
ENDMDL
MODEL 4
USER: ADFR SOLUTION from run 185
USER: SCORE 20.126181 LL:  -4.717 LR: -16.268 RR:   0.000 FEB: -10.004
USER: RMSD 7.375305
USER: SEED 184
USER: STATUS no improvement in best in 1 clusters for 5 generations
USER: GENES 23
USER: genes 0 Translation |==|  0.37726 0.50835 0.29753
USER: genes 1 Rotation |==|  0.40058 0.46316 0.96722 0.64305
USER: genes 2 Torsion [C]-CA--N-[C] |==|  0.15604
USER: genes 3 Torsion [N]-C--CA-[N] |==|  0.36111
USER: genes 4 Torsion [C]-CA--CB-[CG] |==|  0.60567
USER: genes 5 Torsion [CA]-CB--CG-[CD] |==|  0.85090
USER: genes 6 Torsion [CB]-CG--CD-[OE2] |==|  0.78808
USER: genes 7 Torsion [C]-CA--N-[C] |==|  0.83267
USER: genes 8 Torsion [N]-C--CA-[N] |==|  0.79501
USER: genes 9 Torsion [C]-CA--CB-[CG] |==|  0.41126
USER: genes 10 Torsion [CA]-CB--CG-[OD1] |==|  0.19052
USER: genes 11 Torsion [N]-CA--C-[N] |==|  0.22488
USER: genes 12 Torsion [C]-N--CA-[C] |==|  0.77837
USER: genes 13 Torsion [N]-CA--C-[N] |==|  0.41300
USER: genes 14 Torsion [C]-N--CA-[C] |==|  0.79407
USER: genes 15 Torsion [N]-CA--C-[O] |==|  0.48436
USER: genes 16 Torsion [N]-CA--CB-[CG] |==|  0.91885
USER: genes 17 Torsion [CA]-CB--CG-[CD2] |==|  0.82687
USER: genes 18 Torsion [N]-CA--CB-[CG] |==|  0.69539
USER: genes 19 Torsion [CA]-CB--CG-[CD2] |==|  0.04253
USER: genes 20 Torsion [CE1]-CZ--OH-[HH] |==|  0.35142
USER: genes 21 Torsion [N]-CA--CB-[CG] |==|  0.64636
USER: genes 22 Torsion [CA]-CB--CG-[CD1] |==|  0.94929
ROOT
ATOM      1  CA  PHE S   4      41.466  54.112  48.657  1.00 21.41 LIG 0.18  C 
ENDROOT
BRANCH 1 2
ATOM      2  N   PHE S   4      41.383  54.118  50.112  1.00 22.57 LIG-0.35  N 
ATOM      3 H    PHE S   4      40.774  53.600  50.429  1.00 22.57 LIG 0.16  HD
ATOM      4  C   GLU S   3      42.183  54.863  50.873  1.00 26.46 LIG 0.24  C 
ATOM      5 O    GLU S   3      43.053  55.610  50.411  1.00 26.71 LIG-0.27  OA
BRANCH 4 6
ATOM      6  CA  GLU S   3      41.925  54.808  52.369  1.00 28.27 LIG 0.18  C 
BRANCH 6 7
ATOM      7  CB  GLU S   3      41.396  56.189  52.719  1.00 28.84 LIG 0.04  C 
BRANCH 7 8
ATOM      8  CG  GLU S   3      41.827  56.787  54.015  1.00 31.31 LIG 0.12  C 
BRANCH 8 9
ATOM      9  CD  GLU S   3      41.529  55.822  55.137  1.00 32.39 LIG 0.17  C 
ATOM     10 OE2  GLU S   3      40.360  55.724  55.510  1.00 38.97 LIG-0.65  OA
ATOM     11 OE1  GLU S   3      42.480  55.181  55.660  1.00 34.38 LIG-0.65  OA
ENDBRANCH 8 9
ENDBRANCH 7 8
ENDBRANCH 6 7
BRANCH 6 12
ATOM     12  N   GLU S   3      43.204  54.545  53.060  1.00 29.65 LIG-0.35  N 
ATOM     13 H    GLU S   3      43.432  55.165  53.610  1.00 29.65 LIG 0.16  HD
ATOM     14  C   ASN S   2      43.930  53.459  52.853  1.00 31.60 LIG 0.26  C 
ATOM     15 O    ASN S   2      43.521  52.474  52.252  1.00 31.89 LIG-0.27  OA
BRANCH 14 16
ATOM     16  CA  ASN S   2      45.365  53.518  53.406  1.00 33.47 LIG 0.41  C 
ATOM     17  N   ASN S   2      46.281  54.386  52.620  1.00 34.35 LIG 0.61  N 
BRANCH 16 18
ATOM     18  CB  ASN S   2      45.411  53.940  54.863  1.00 34.36 LIG 0.15  C 
BRANCH 18 19
ATOM     19  CG  ASN S   2      46.575  53.290  55.603  1.00 36.60 LIG 0.22  C 
ATOM     20 OD1  ASN S   2      47.772  53.599  55.350  1.00 40.55 LIG-0.27  OA
ATOM     21  ND2 ASN S   2      46.245  52.390  56.517  1.00 40.03 LIG-0.37  N 
ATOM     22 22HD ASN S   2      45.417  52.206  56.660  1.00 40.03 LIG 0.16  HD
ATOM     23 21HD ASN S   2      46.858  51.989  56.967  1.00 40.03 LIG 0.16  HD
ENDBRANCH 18 19
ENDBRANCH 16 18
ENDBRANCH 14 16
ENDBRANCH 6 12
ENDBRANCH 4 6
ENDBRANCH 1 2
BRANCH 1 24
ATOM     24  C   PHE S   4      42.875  53.744  48.199  1.00 20.14 LIG 0.24  C 
ATOM     25  N   TYR S   5      43.150  52.446  48.197  1.00 19.70 LIG-0.35  N 
ATOM     26 H    TYR S   5      42.606  51.845  48.485  1.00 19.70 LIG 0.16  HD
ATOM     27 O    PHE S   4      43.667  54.601  47.821  1.00 18.43 LIG-0.27  OA
BRANCH 25 28
ATOM     28  CA  TYR S   5      44.416  51.909  47.700  1.00 19.15 LIG 0.18  C 
BRANCH 28 29
ATOM     29  C   TYR S   5      44.303  51.873  46.184  1.00 19.17 LIG 0.24  C 
ATOM     30  N   PHE S   6      45.438  52.051  45.514  1.00 19.00 LIG-0.34  N 
ATOM     31 H    PHE S   6      46.193  52.197  45.898  1.00 19.00 LIG 0.16  HD
ATOM     32 O    TYR S   5      43.211  51.733  45.629  1.00 19.39 LIG-0.27  OA
BRANCH 30 33
ATOM     33  CA  PHE S   6      45.519  52.018  44.059  1.00 19.20 LIG 0.19  C 
BRANCH 33 34
ATOM     34  C   PHE S   6      45.410  50.616  43.476  1.00 19.81 LIG 0.20  C 
ATOM     35 O    PHE S   6      45.359  50.454  42.245  1.00 18.53 LIG-0.65  OA
ATOM     36 OXT  PHE S   6      45.359  49.674  44.312  1.00 20.48 LIG-0.65  OA
ENDBRANCH 33 34
BRANCH 33 37
ATOM     37  CB  PHE S   6      46.830  52.669  43.610  1.00 19.81 LIG 0.07  C 
BRANCH 37 38
ATOM     38  CG  PHE S   6      47.345  53.752  44.564  1.00 21.45 LIG-0.06  A 
ATOM     39  CD2 PHE S   6      46.602  54.893  44.799  1.00 24.56 LIG 0.01  A 
ATOM     40  CE2 PHE S   6      47.071  55.889  45.669  1.00 25.95 LIG 0.00  A 
ATOM     41  CZ  PHE S   6      48.257  55.706  46.325  1.00 23.46 LIG 0.00  A 
ATOM     42  CE1 PHE S   6      48.993  54.566  46.124  1.00 24.74 LIG 0.00  A 
ATOM     43  CD1 PHE S   6      48.551  53.599  45.262  1.00 22.31 LIG 0.01  A 
ENDBRANCH 37 38
ENDBRANCH 33 37
ENDBRANCH 30 33
ENDBRANCH 28 29
BRANCH 28 44
ATOM     44  CB  TYR S   5      44.646  50.507  48.293  1.00 19.45 LIG 0.07  C 
BRANCH 44 45
ATOM     45  CG  TYR S   5      45.743  50.371  49.315  1.00 19.88 LIG-0.06  A 
ATOM     46  CD1 TYR S   5      46.252  49.134  49.695  1.00 18.15 LIG 0.01  A 
ATOM     47  CE1 TYR S   5      47.234  49.028  50.645  1.00 18.26 LIG 0.04  A 
ATOM     48  CZ  TYR S   5      47.750  50.177  51.225  1.00 18.69 LIG 0.07  A 
ATOM     49  CE2 TYR S   5      47.279  51.403  50.858  1.00 19.96 LIG 0.04  A 
ATOM     50  CD2 TYR S   5      46.271  51.502  49.912  1.00 21.89 LIG 0.01  A 
BRANCH 48 51
ATOM     51 OH   TYR S   5      48.732  50.095  52.174  1.00 21.24 LIG-0.36  OA
ATOM     52 HH   TYR S   5      49.381  50.579  51.948  1.00 21.24 LIG 0.22  HD
ENDBRANCH 48 51
ENDBRANCH 44 45
ENDBRANCH 28 44
ENDBRANCH 25 28
ENDBRANCH 1 24
BRANCH 1 53
ATOM     53  CB  PHE S   4      41.119  55.495  48.149  1.00 21.76 LIG 0.07  C 
BRANCH 53 54
ATOM     54  CG  PHE S   4      40.048  55.496  47.112  1.00 21.60 LIG-0.06  A 
ATOM     55  CD2 PHE S   4      39.360  56.652  46.818  1.00 23.13 LIG 0.01  A 
ATOM     56  CE2 PHE S   4      38.356  56.654  45.897  1.00 23.23 LIG 0.00  A 
ATOM     57  CZ  PHE S   4      38.077  55.519  45.197  1.00 22.51 LIG 0.00  A 
ATOM     58  CE1 PHE S   4      38.750  54.349  45.474  1.00 22.53 LIG 0.00  A 
ATOM     59  CD1 PHE S   4      39.735  54.332  46.430  1.00 22.71 LIG 0.01  A 
ENDBRANCH 53 54
ENDBRANCH 1 53
TORSDOF 21
ENDMDL
MODEL 5
USER: ADFR SOLUTION from run 87
USER: SCORE 21.202748 LL:  -5.814 LR: -15.692 RR:   0.000 FEB:  -9.428
USER: RMSD 4.327151
USER: SEED 86
USER: STATUS no improvement in best in 1 clusters for 5 generations
USER: GENES 23
USER: genes 0 Translation |==|  0.57356 0.48639 0.50278
USER: genes 1 Rotation |==|  0.48136 0.53966 0.45365 0.99591
USER: genes 2 Torsion [C]-CA--N-[C] |==|  0.78892
USER: genes 3 Torsion [N]-C--CA-[N] |==|  0.10173
USER: genes 4 Torsion [C]-CA--CB-[CG] |==|  0.35792
USER: genes 5 Torsion [CA]-CB--CG-[CD] |==|  0.20973
USER: genes 6 Torsion [CB]-CG--CD-[OE2] |==|  0.00706
USER: genes 7 Torsion [C]-CA--N-[C] |==|  0.17694
USER: genes 8 Torsion [N]-C--CA-[N] |==|  0.57448
USER: genes 9 Torsion [C]-CA--CB-[CG] |==|  0.69935
USER: genes 10 Torsion [CA]-CB--CG-[OD1] |==|  0.17163
USER: genes 11 Torsion [N]-CA--C-[N] |==|  0.41292
USER: genes 12 Torsion [C]-N--CA-[C] |==|  0.63140
USER: genes 13 Torsion [N]-CA--C-[N] |==|  0.39128
USER: genes 14 Torsion [C]-N--CA-[C] |==|  0.54654
USER: genes 15 Torsion [N]-CA--C-[O] |==|  0.26250
USER: genes 16 Torsion [N]-CA--CB-[CG] |==|  0.53826
USER: genes 17 Torsion [CA]-CB--CG-[CD2] |==|  0.27486
USER: genes 18 Torsion [N]-CA--CB-[CG] |==|  0.92319
USER: genes 19 Torsion [CA]-CB--CG-[CD2] |==|  0.26227
USER: genes 20 Torsion [CE1]-CZ--OH-[HH] |==|  0.36427
USER: genes 21 Torsion [N]-CA--CB-[CG] |==|  0.49278
USER: genes 22 Torsion [CA]-CB--CG-[CD1] |==|  0.65682
ROOT
ATOM      1  CA  PHE S   4      45.293  53.749  53.891  1.00 21.41 LIG 0.18  C 
ENDROOT
BRANCH 1 2
ATOM      2  N   PHE S   4      45.057  53.586  55.319  1.00 22.57 LIG-0.35  N 
ATOM      3 H    PHE S   4      45.303  52.822  55.629  1.00 22.57 LIG 0.16  HD
ATOM      4  C   GLU S   3      44.509  54.541  56.070  1.00 26.46 LIG 0.24  C 
ATOM      5 O    GLU S   3      44.153  55.635  55.619  1.00 26.71 LIG-0.27  OA
BRANCH 4 6
ATOM      6  CA  GLU S   3      44.268  54.190  57.528  1.00 28.27 LIG 0.18  C 
BRANCH 6 7
ATOM      7  CB  GLU S   3      44.264  55.527  58.251  1.00 28.84 LIG 0.04  C 
BRANCH 7 8
ATOM      8  CG  GLU S   3      43.112  55.824  59.149  1.00 31.31 LIG 0.12  C 
BRANCH 8 9
ATOM      9  CD  GLU S   3      43.258  55.039  60.430  1.00 32.39 LIG 0.17  C 
ATOM     10 OE2  GLU S   3      44.268  54.348  60.564  1.00 38.97 LIG-0.65  OA
ATOM     11 OE1  GLU S   3      42.340  55.099  61.292  1.00 34.38 LIG-0.65  OA
ENDBRANCH 8 9
ENDBRANCH 7 8
ENDBRANCH 6 7
BRANCH 6 12
ATOM     12  N   GLU S   3      45.381  53.341  58.000  1.00 29.65 LIG-0.35  N 
ATOM     13 H    GLU S   3      45.136  52.548  58.228  1.00 29.65 LIG 0.16  HD
ATOM     14  C   ASN S   2      46.634  53.758  58.066  1.00 31.60 LIG 0.26  C 
ATOM     15 O    ASN S   2      47.034  54.789  57.543  1.00 31.89 LIG-0.27  OA
BRANCH 14 16
ATOM     16  CA  ASN S   2      47.580  52.857  58.879  1.00 33.47 LIG 0.41  C 
ATOM     17  N   ASN S   2      48.739  53.575  59.472  1.00 34.35 LIG 0.61  N 
BRANCH 16 18
ATOM     18  CB  ASN S   2      46.859  52.091  59.973  1.00 34.36 LIG 0.15  C 
BRANCH 18 19
ATOM     19  CG  ASN S   2      47.200  52.630  61.358  1.00 36.60 LIG 0.22  C 
ATOM     20 OD1  ASN S   2      46.926  53.815  61.691  1.00 40.55 LIG-0.27  OA
ATOM     21  ND2 ASN S   2      47.798  51.774  62.176  1.00 40.03 LIG-0.37  N 
ATOM     22 22HD ASN S   2      47.968  50.974  61.911  1.00 40.03 LIG 0.16  HD
ATOM     23 21HD ASN S   2      48.015  52.021  62.971  1.00 40.03 LIG 0.16  HD
ENDBRANCH 18 19
ENDBRANCH 16 18
ENDBRANCH 14 16
ENDBRANCH 6 12
ENDBRANCH 4 6
ENDBRANCH 1 2
BRANCH 1 24
ATOM     24  C   PHE S   4      43.988  53.616  53.110  1.00 20.14 LIG 0.24  C 
ATOM     25  N   TYR S   5      43.915  54.338  51.999  1.00 19.70 LIG-0.35  N 
ATOM     26 H    TYR S   5      44.526  54.891  51.752  1.00 19.70 LIG 0.16  HD
ATOM     27 O    PHE S   4      43.100  52.855  53.478  1.00 18.43 LIG-0.27  OA
BRANCH 25 28
ATOM     28  CA  TYR S   5      42.780  54.260  51.081  1.00 19.15 LIG 0.18  C 
BRANCH 28 29
ATOM     29  C   TYR S   5      43.364  54.125  49.684  1.00 19.17 LIG 0.24  C 
ATOM     30  N   PHE S   6      42.725  53.295  48.865  1.00 19.00 LIG-0.34  N 
ATOM     31 H    PHE S   6      42.033  52.841  49.101  1.00 19.00 LIG 0.16  HD
ATOM     32 O    TYR S   5      44.395  54.722  49.363  1.00 19.39 LIG-0.27  OA
BRANCH 30 33
ATOM     33  CA  PHE S   6      43.129  53.068  47.483  1.00 19.20 LIG 0.19  C 
BRANCH 33 34
ATOM     34  C   PHE S   6      42.048  52.413  46.634  1.00 19.81 LIG 0.20  C 
ATOM     35 O    PHE S   6      41.281  53.115  45.951  1.00 18.53 LIG-0.65  OA
ATOM     36 OXT  PHE S   6      41.984  51.156  46.695  1.00 20.48 LIG-0.65  OA
ENDBRANCH 33 34
BRANCH 33 37
ATOM     37  CB  PHE S   6      44.399  52.211  47.461  1.00 19.81 LIG 0.07  C 
BRANCH 37 38
ATOM     38  CG  PHE S   6      45.105  52.182  46.101  1.00 21.45 LIG-0.06  A 
ATOM     39  CD2 PHE S   6      46.196  52.994  45.858  1.00 24.56 LIG 0.01  A 
ATOM     40  CE2 PHE S   6      46.842  52.974  44.613  1.00 25.95 LIG 0.00  A 
ATOM     41  CZ  PHE S   6      46.413  52.108  43.645  1.00 23.46 LIG 0.00  A 
ATOM     42  CE1 PHE S   6      45.349  51.276  43.881  1.00 24.74 LIG 0.00  A 
ATOM     43  CD1 PHE S   6      44.701  51.304  45.086  1.00 22.31 LIG 0.01  A 
ENDBRANCH 37 38
ENDBRANCH 33 37
ENDBRANCH 30 33
ENDBRANCH 28 29
BRANCH 28 44
ATOM     44  CB  TYR S   5      41.918  55.528  51.224  1.00 19.45 LIG 0.07  C 
BRANCH 44 45
ATOM     45  CG  TYR S   5      41.942  56.221  52.561  1.00 19.88 LIG-0.06  A 
ATOM     46  CD1 TYR S   5      41.103  55.846  53.604  1.00 18.15 LIG 0.01  A 
ATOM     47  CE1 TYR S   5      41.122  56.505  54.806  1.00 18.26 LIG 0.04  A 
ATOM     48  CZ  TYR S   5      42.012  57.550  54.998  1.00 18.69 LIG 0.07  A 
ATOM     49  CE2 TYR S   5      42.858  57.926  53.995  1.00 19.96 LIG 0.04  A 
ATOM     50  CD2 TYR S   5      42.818  57.270  52.775  1.00 21.89 LIG 0.01  A 
BRANCH 48 51
ATOM     51 OH   TYR S   5      42.050  58.220  56.190  1.00 21.24 LIG-0.36  OA
ATOM     52 HH   TYR S   5      42.846  58.278  56.453  1.00 21.24 LIG 0.22  HD
ENDBRANCH 48 51
ENDBRANCH 44 45
ENDBRANCH 28 44
ENDBRANCH 25 28
ENDBRANCH 1 24
BRANCH 1 53
ATOM     53  CB  PHE S   4      46.260  52.677  53.437  1.00 21.76 LIG 0.07  C 
BRANCH 53 54
ATOM     54  CG  PHE S   4      46.533  52.705  51.971  1.00 21.60 LIG-0.06  A 
ATOM     55  CD2 PHE S   4      47.015  53.847  51.372  1.00 23.13 LIG 0.01  A 
ATOM     56  CE2 PHE S   4      47.233  53.893  50.027  1.00 23.23 LIG 0.00  A 
ATOM     57  CZ  PHE S   4      47.049  52.775  49.273  1.00 22.51 LIG 0.00  A 
ATOM     58  CE1 PHE S   4      46.565  51.620  49.849  1.00 22.53 LIG 0.00  A 
ATOM     59  CD1 PHE S   4      46.305  51.581  51.196  1.00 22.71 LIG 0.01  A 
ENDBRANCH 53 54
ENDBRANCH 1 53
TORSDOF 21
ENDMDL
