MODEL 1
USER: ADFR SOLUTION from run 41
USER: SCORE 14.756990 LL:  -2.501 LR: -12.256 RR:   0.000 FEB:  -9.571
USER: RMSD 0.869029
USER: SEED 40
USER: STATUS 1 or 2 clusters left
USER: GENES 11
USER: genes 0 Translation |==|  0.60000 0.63513 0.46774
USER: genes 1 Rotation |==|  0.51740 0.48471 0.50737 0.99941
USER: genes 2 Torsion [N]-CA--C-[O] |==|  0.70730
USER: genes 3 Torsion [C]-N--CA-[C] |==|  0.51253
USER: genes 4 Torsion [N]-CA--C-[OXT] |==|  0.53888
USER: genes 5 Torsion [N]-CA--CB-[CG2] |==|  0.21702
USER: genes 6 Torsion [CA]-CB--CG1-[CD1] |==|  0.08646
USER: genes 7 Torsion [N]-C--CA-[N] |==|  0.38561
USER: genes 8 Torsion [C]-CA--CB-[CG2] |==|  0.21123
USER: genes 9 Torsion [CA]-CB--CG1-[CD1] |==|  0.78222
USER: genes 10 Torsion [C]-CA--N-[H3] |==|  0.79262
ROOT
ATOM      1  C   ILE C   1      56.526  63.664  35.818  1.00 27.75 LIG 0.25  C 
ATOM      2 O    ILE C   1      56.997  62.664  35.269  1.00 26.33 LIG-0.27  OA
ATOM      3  N   PRO C   2      56.819  63.982  37.084  1.00 28.60 LIG-0.34  N 
ATOM      4  CA  PRO C   2      57.692  63.126  37.884  1.00 29.30 LIG 0.18  C 
ATOM      5  CB  PRO C   2      58.126  64.048  39.020  1.00 28.96 LIG 0.04  C 
ATOM      6  CG  PRO C   2      56.930  64.909  39.213  1.00 29.77 LIG 0.02  C 
ATOM      7  CD  PRO C   2      56.526  65.238  37.788  1.00 29.26 LIG 0.13  C 
ENDROOT
BRANCH 4 8
ATOM      8  C   PRO C   2      56.896  61.918  38.370  1.00 30.63 LIG 0.24  C 
ATOM      9 O    PRO C   2      56.526  61.832  39.543  1.00 29.31 LIG-0.27  OA
ATOM     10  N   ILE C   3      56.626  61.001  37.447  1.00 30.96 LIG-0.34  N 
ATOM     11 H    ILE C   3      56.865  61.072  36.624  1.00 30.96 LIG 0.16  HD
BRANCH 10 12
ATOM     12  CA  ILE C   3      55.891  59.778  37.744  1.00 33.52 LIG 0.19  C 
BRANCH 12 13
ATOM     13  C   ILE C   3      55.855  58.901  36.493  1.00 34.53 LIG 0.20  C 
ATOM     14 OXT  ILE C   3      55.051  57.942  36.468  1.00 37.77 LIG-0.65  OA
ATOM     15 O    ILE C   3      56.628  59.184  35.552  1.00 32.63 LIG-0.65  OA
ENDBRANCH 12 13
BRANCH 12 16
ATOM     16  CB  ILE C   3      54.439  60.083  38.177  1.00 35.15 LIG 0.01  C 
ATOM     17  CG2 ILE C   3      53.582  60.400  36.952  1.00 35.36 LIG 0.01  C 
BRANCH 16 18
ATOM     18  CG1 ILE C   3      53.847  58.877  38.911  1.00 35.72 LIG 0.00  C 
ATOM     19  CD1 ILE C   3      54.881  58.058  39.689  1.00 34.66 LIG 0.01  C 
ENDBRANCH 16 18
ENDBRANCH 12 16
ENDBRANCH 10 12
ENDBRANCH 4 8
BRANCH 1 20
ATOM     20  CA  ILE C   1      55.602  64.611  35.071  1.00 26.33 LIG 0.28  C 
BRANCH 20 21
ATOM     21  CB  ILE C   1      54.176  64.010  35.114  1.00 27.81 LIG 0.02  C 
ATOM     22  CG2 ILE C   1      53.562  64.225  36.493  1.00 28.56 LIG 0.01  C 
BRANCH 21 23
ATOM     23  CG1 ILE C   1      53.288  64.666  34.054  1.00 27.24 LIG 0.00  C 
ATOM     24  CD1 ILE C   1      52.776  66.046  34.462  1.00 25.82 LIG 0.01  C 
ENDBRANCH 21 23
ENDBRANCH 20 21
BRANCH 20 25
ATOM     25  N   ILE C   1      56.073  64.808  33.677  1.00 24.71 LIG-0.07  N 
ATOM     26 H1   ILE C   1      56.288  64.021  33.322  1.00 24.71 LIG 0.28  HD
ATOM     27 H3   ILE C   1      56.788  65.339  33.677  1.00 24.71 LIG 0.28  HD
ATOM     28 H2   ILE C   1      55.426  65.184  33.195  1.00 24.71 LIG 0.28  HD
ENDBRANCH 20 25
ENDBRANCH 1 20
TORSDOF 9
ENDMDL
MODEL 2
USER: ADFR SOLUTION from run 160
USER: SCORE 13.975550 LL:  -2.654 LR: -11.322 RR:   0.000 FEB:  -8.637
USER: RMSD 1.812928
USER: SEED 159
USER: STATUS 1 or 2 clusters left
USER: GENES 11
USER: genes 0 Translation |==|  0.59988 0.64697 0.47317
USER: genes 1 Rotation |==|  0.50155 0.50791 0.45583 0.99798
USER: genes 2 Torsion [N]-CA--C-[O] |==|  0.71103
USER: genes 3 Torsion [C]-N--CA-[C] |==|  0.78046
USER: genes 4 Torsion [N]-CA--C-[OXT] |==|  0.34545
USER: genes 5 Torsion [N]-CA--CB-[CG2] |==|  0.46935
USER: genes 6 Torsion [CA]-CB--CG1-[CD1] |==|  0.37507
USER: genes 7 Torsion [N]-C--CA-[N] |==|  0.41462
USER: genes 8 Torsion [C]-CA--CB-[CG2] |==|  0.71763
USER: genes 9 Torsion [CA]-CB--CG1-[CD1] |==|  0.41415
USER: genes 10 Torsion [C]-CA--N-[H3] |==|  0.44048
ROOT
ATOM      1  C   ILE C   1      56.524  63.859  35.900  1.00 27.75 LIG 0.25  C 
ATOM      2 O    ILE C   1      56.725  62.759  35.378  1.00 26.33 LIG-0.27  OA
ATOM      3  N   PRO C   2      57.005  64.170  37.108  1.00 28.60 LIG-0.34  N 
ATOM      4  CA  PRO C   2      57.767  63.192  37.881  1.00 29.30 LIG 0.18  C 
ATOM      5  CB  PRO C   2      58.493  64.057  38.907  1.00 28.96 LIG 0.04  C 
ATOM      6  CG  PRO C   2      57.520  65.155  39.150  1.00 29.77 LIG 0.02  C 
ATOM      7  CD  PRO C   2      57.044  65.492  37.750  1.00 29.26 LIG 0.13  C 
ENDROOT
BRANCH 4 8
ATOM      8  C   PRO C   2      56.801  62.199  38.519  1.00 30.63 LIG 0.24  C 
ATOM      9 O    PRO C   2      56.526  62.262  39.720  1.00 29.31 LIG-0.27  OA
ATOM     10  N   ILE C   3      56.279  61.296  37.694  1.00 30.96 LIG-0.34  N 
ATOM     11 H    ILE C   3      56.454  61.266  36.853  1.00 30.96 LIG 0.16  HD
BRANCH 10 12
ATOM     12  CA  ILE C   3      55.353  60.264  38.141  1.00 33.52 LIG 0.19  C 
BRANCH 12 13
ATOM     13  C   ILE C   3      56.142  59.139  38.809  1.00 34.53 LIG 0.20  C 
ATOM     14 OXT  ILE C   3      55.836  58.818  39.979  1.00 37.77 LIG-0.65  OA
ATOM     15 O    ILE C   3      57.056  58.592  38.155  1.00 32.63 LIG-0.65  OA
ENDBRANCH 12 13
BRANCH 12 16
ATOM     16  CB  ILE C   3      54.554  59.672  36.958  1.00 35.15 LIG 0.01  C 
ATOM     17  CG2 ILE C   3      53.801  58.421  37.406  1.00 35.36 LIG 0.01  C 
BRANCH 16 18
ATOM     18  CG1 ILE C   3      53.552  60.705  36.433  1.00 35.72 LIG 0.00  C 
ATOM     19  CD1 ILE C   3      53.521  60.816  34.906  1.00 34.66 LIG 0.01  C 
ENDBRANCH 16 18
ENDBRANCH 12 16
ENDBRANCH 10 12
ENDBRANCH 4 8
BRANCH 1 20
ATOM     20  CA  ILE C   1      55.736  64.940  35.178  1.00 26.33 LIG 0.28  C 
BRANCH 20 21
ATOM     21  CB  ILE C   1      54.254  64.809  35.607  1.00 27.81 LIG 0.02  C 
ATOM     22  CG2 ILE C   1      53.456  64.108  34.514  1.00 28.56 LIG 0.01  C 
BRANCH 21 23
ATOM     23  CG1 ILE C   1      54.143  64.011  36.908  1.00 27.24 LIG 0.00  C 
ATOM     24  CD1 ILE C   1      52.959  64.430  37.776  1.00 25.82 LIG 0.01  C 
ENDBRANCH 21 23
ENDBRANCH 20 21
BRANCH 20 25
ATOM     25  N   ILE C   1      55.896  64.809  33.708  1.00 24.71 LIG-0.07  N 
ATOM     26 H1   ILE C   1      56.664  65.183  33.458  1.00 24.71 LIG 0.28  HD
ATOM     27 H3   ILE C   1      55.219  65.218  33.299  1.00 24.71 LIG 0.28  HD
ATOM     28 H2   ILE C   1      55.899  63.947  33.485  1.00 24.71 LIG 0.28  HD
ENDBRANCH 20 25
ENDBRANCH 1 20
TORSDOF 9
ENDMDL
MODEL 3
USER: ADFR SOLUTION from run 171
USER: SCORE 13.081008 LL:  -2.009 LR: -11.072 RR:   0.000 FEB:  -8.387
USER: RMSD 2.271350
USER: SEED 170
USER: STATUS 1 or 2 clusters left
USER: GENES 11
USER: genes 0 Translation |==|  0.59601 0.62964 0.46445
USER: genes 1 Rotation |==|  0.53806 0.48016 0.51511 0.99793
USER: genes 2 Torsion [N]-CA--C-[O] |==|  0.70614
USER: genes 3 Torsion [C]-N--CA-[C] |==|  0.18379
USER: genes 4 Torsion [N]-CA--C-[OXT] |==|  0.00733
USER: genes 5 Torsion [N]-CA--CB-[CG2] |==|  0.27804
USER: genes 6 Torsion [CA]-CB--CG1-[CD1] |==|  0.31256
USER: genes 7 Torsion [N]-C--CA-[N] |==|  0.39547
USER: genes 8 Torsion [C]-CA--CB-[CG2] |==|  0.33765
USER: genes 9 Torsion [CA]-CB--CG1-[CD1] |==|  0.34362
USER: genes 10 Torsion [C]-CA--N-[H3] |==|  0.49918
ROOT
ATOM      1  C   ILE C   1      56.466  63.573  35.769  1.00 27.75 LIG 0.25  C 
ATOM      2 O    ILE C   1      56.979  62.638  35.149  1.00 26.33 LIG-0.27  OA
ATOM      3  N   PRO C   2      56.727  63.795  37.062  1.00 28.60 LIG-0.34  N 
ATOM      4  CA  PRO C   2      57.615  62.905  37.806  1.00 29.30 LIG 0.18  C 
ATOM      5  CB  PRO C   2      57.998  63.743  39.022  1.00 28.96 LIG 0.04  C 
ATOM      6  CG  PRO C   2      56.771  64.547  39.261  1.00 29.77 LIG 0.02  C 
ATOM      7  CD  PRO C   2      56.380  64.979  37.861  1.00 29.26 LIG 0.13  C 
ENDROOT
BRANCH 4 8
ATOM      8  C   PRO C   2      56.852  61.636  38.177  1.00 30.63 LIG 0.24  C 
ATOM      9 O    PRO C   2      56.472  61.438  39.333  1.00 29.31 LIG-0.27  OA
ATOM     10  N   ILE C   3      56.620  60.794  37.174  1.00 30.96 LIG-0.34  N 
ATOM     11 H    ILE C   3      56.866  60.942  36.364  1.00 30.96 LIG 0.16  HD
BRANCH 10 12
ATOM     12  CA  ILE C   3      55.921  59.529  37.356  1.00 33.52 LIG 0.19  C 
BRANCH 12 13
ATOM     13  C   ILE C   3      54.471  59.810  37.747  1.00 34.53 LIG 0.20  C 
ATOM     14 OXT  ILE C   3      54.096  61.003  37.802  1.00 37.77 LIG-0.65  OA
ATOM     15 O    ILE C   3      53.727  58.835  37.992  1.00 32.63 LIG-0.65  OA
ENDBRANCH 12 13
BRANCH 12 16
ATOM     16  CB  ILE C   3      56.577  58.676  38.465  1.00 35.15 LIG 0.01  C 
ATOM     17  CG2 ILE C   3      55.786  58.809  39.766  1.00 35.36 LIG 0.01  C 
BRANCH 16 18
ATOM     18  CG1 ILE C   3      56.614  57.205  38.043  1.00 35.72 LIG 0.00  C 
ATOM     19  CD1 ILE C   3      58.026  56.668  37.794  1.00 34.66 LIG 0.01  C 
ENDBRANCH 16 18
ENDBRANCH 12 16
ENDBRANCH 10 12
ENDBRANCH 4 8
BRANCH 1 20
ATOM     20  CA  ILE C   1      55.524  64.549  35.084  1.00 26.33 LIG 0.28  C 
BRANCH 20 21
ATOM     21  CB  ILE C   1      54.101  63.941  35.130  1.00 27.81 LIG 0.02  C 
ATOM     22  CG2 ILE C   1      53.152  64.890  35.852  1.00 28.56 LIG 0.01  C 
BRANCH 21 23
ATOM     23  CG1 ILE C   1      53.583  63.685  33.713  1.00 27.24 LIG 0.00  C 
ATOM     24  CD1 ILE C   1      53.172  62.235  33.470  1.00 25.82 LIG 0.01  C 
ENDBRANCH 21 23
ENDBRANCH 20 21
BRANCH 20 25
ATOM     25  N   ILE C   1      55.964  64.809  33.690  1.00 24.71 LIG-0.07  N 
ATOM     26 H1   ILE C   1      56.783  65.160  33.697  1.00 24.71 LIG 0.28  HD
ATOM     27 H3   ILE C   1      55.401  65.378  33.302  1.00 24.71 LIG 0.28  HD
ATOM     28 H2   ILE C   1      55.974  64.045  33.234  1.00 24.71 LIG 0.28  HD
ENDBRANCH 20 25
ENDBRANCH 1 20
TORSDOF 9
ENDMDL
MODEL 4
USER: ADFR SOLUTION from run 28
USER: SCORE 12.523830 LL:  -1.769 LR: -10.754 RR:   0.000 FEB:  -8.070
USER: RMSD 7.100045
USER: SEED 27
USER: STATUS no improvement in best in 13 clusters for 5 generations
USER: GENES 11
USER: genes 0 Translation |==|  0.46744 0.63764 0.38904
USER: genes 1 Rotation |==|  0.57364 0.22844 0.16622 0.74378
USER: genes 2 Torsion [N]-CA--C-[O] |==|  0.56340
USER: genes 3 Torsion [C]-N--CA-[C] |==|  0.19596
USER: genes 4 Torsion [N]-CA--C-[OXT] |==|  0.55916
USER: genes 5 Torsion [N]-CA--CB-[CG2] |==|  0.54871
USER: genes 6 Torsion [CA]-CB--CG1-[CD1] |==|  0.36296
USER: genes 7 Torsion [N]-C--CA-[N] |==|  0.82792
USER: genes 8 Torsion [C]-CA--CB-[CG2] |==|  0.30106
USER: genes 9 Torsion [CA]-CB--CG1-[CD1] |==|  0.41473
USER: genes 10 Torsion [C]-CA--N-[H3] |==|  0.61466
ROOT
ATOM      1  C   ILE C   1      54.538  63.705  34.638  1.00 27.75 LIG 0.25  C 
ATOM      2 O    ILE C   1      54.193  63.012  33.677  1.00 26.33 LIG-0.27  OA
ATOM      3  N   PRO C   2      53.663  64.132  35.555  1.00 28.60 LIG-0.34  N 
ATOM      4  CA  PRO C   2      52.241  63.819  35.431  1.00 29.30 LIG 0.18  C 
ATOM      5  CB  PRO C   2      51.714  64.059  36.842  1.00 28.96 LIG 0.04  C 
ATOM      6  CG  PRO C   2      52.570  65.176  37.322  1.00 29.77 LIG 0.02  C 
ATOM      7  CD  PRO C   2      53.951  64.759  36.852  1.00 29.26 LIG 0.13  C 
ENDROOT
BRANCH 4 8
ATOM      8  C   PRO C   2      51.614  64.749  34.396  1.00 30.63 LIG 0.24  C 
ATOM      9 O    PRO C   2      50.403  64.981  34.402  1.00 29.31 LIG-0.27  OA
ATOM     10  N   ILE C   3      52.459  65.289  33.523  1.00 30.96 LIG-0.34  N 
ATOM     11 H    ILE C   3      53.307  65.144  33.533  1.00 30.96 LIG 0.16  HD
BRANCH 10 12
ATOM     12  CA  ILE C   3      52.027  66.184  32.459  1.00 33.52 LIG 0.19  C 
BRANCH 12 13
ATOM     13  C   ILE C   3      51.596  67.517  33.072  1.00 34.53 LIG 0.20  C 
ATOM     14 OXT  ILE C   3      50.833  68.252  32.407  1.00 37.77 LIG-0.65  OA
ATOM     15 O    ILE C   3      52.026  67.808  34.209  1.00 32.63 LIG-0.65  OA
ENDBRANCH 12 13
BRANCH 12 16
ATOM     16  CB  ILE C   3      50.834  65.593  31.674  1.00 35.15 LIG 0.01  C 
ATOM     17  CG2 ILE C   3      50.681  66.309  30.333  1.00 35.36 LIG 0.01  C 
BRANCH 16 18
ATOM     18  CG1 ILE C   3      51.059  64.098  31.427  1.00 35.72 LIG 0.00  C 
ATOM     19  CD1 ILE C   3      49.860  63.222  31.802  1.00 34.66 LIG 0.01  C 
ENDBRANCH 16 18
ENDBRANCH 12 16
ENDBRANCH 10 12
ENDBRANCH 4 8
BRANCH 1 20
ATOM     20  CA  ILE C   1      55.992  64.090  34.849  1.00 26.33 LIG 0.28  C 
BRANCH 20 21
ATOM     21  CB  ILE C   1      56.447  63.491  36.203  1.00 27.81 LIG 0.02  C 
ATOM     22  CG2 ILE C   1      57.404  62.330  35.963  1.00 28.56 LIG 0.01  C 
BRANCH 21 23
ATOM     23  CG1 ILE C   1      57.143  64.557  37.052  1.00 27.24 LIG 0.00  C 
ATOM     24  CD1 ILE C   1      56.963  64.348  38.554  1.00 25.82 LIG 0.01  C 
ENDBRANCH 21 23
ENDBRANCH 20 21
BRANCH 20 25
ATOM     25  N   ILE C   1      56.151  65.566  34.821  1.00 24.71 LIG-0.07  N 
ATOM     26 H1   ILE C   1      55.443  65.934  34.427  1.00 24.71 LIG 0.28  HD
ATOM     27 H3   ILE C   1      56.887  65.777  34.367  1.00 24.71 LIG 0.28  HD
ATOM     28 H2   ILE C   1      56.219  65.873  35.654  1.00 24.71 LIG 0.28  HD
ENDBRANCH 20 25
ENDBRANCH 1 20
TORSDOF 9
ENDMDL
MODEL 5
USER: ADFR SOLUTION from run 153
USER: SCORE 12.199094 LL:  -1.768 LR: -10.431 RR:   0.000 FEB:  -7.747
USER: RMSD 4.328863
USER: SEED 152
USER: STATUS no improvement in best in 10 clusters for 5 generations
USER: GENES 11
USER: genes 0 Translation |==|  0.62500 0.57051 0.64322
USER: genes 1 Rotation |==|  0.49477 0.01361 0.60168 0.55535
USER: genes 2 Torsion [N]-CA--C-[O] |==|  0.85044
USER: genes 3 Torsion [C]-N--CA-[C] |==|  0.78364
USER: genes 4 Torsion [N]-CA--C-[OXT] |==|  0.22840
USER: genes 5 Torsion [N]-CA--CB-[CG2] |==|  0.55405
USER: genes 6 Torsion [CA]-CB--CG1-[CD1] |==|  0.44744
USER: genes 7 Torsion [N]-C--CA-[N] |==|  0.87178
USER: genes 8 Torsion [C]-CA--CB-[CG2] |==|  0.06420
USER: genes 9 Torsion [CA]-CB--CG1-[CD1] |==|  0.90921
USER: genes 10 Torsion [C]-CA--N-[H3] |==|  0.87977
ROOT
ATOM      1  C   ILE C   1      56.901  62.597  38.450  1.00 27.75 LIG 0.25  C 
ATOM      2 O    ILE C   1      56.640  61.861  39.405  1.00 26.33 LIG-0.27  OA
ATOM      3  N   PRO C   2      56.253  62.505  37.284  1.00 28.60 LIG-0.34  N 
ATOM      4  CA  PRO C   2      55.221  61.489  37.083  1.00 29.30 LIG 0.18  C 
ATOM      5  CB  PRO C   2      54.453  62.016  35.875  1.00 28.96 LIG 0.04  C 
ATOM      6  CG  PRO C   2      55.515  62.695  35.088  1.00 29.77 LIG 0.02  C 
ATOM      7  CD  PRO C   2      56.292  63.444  36.154  1.00 29.26 LIG 0.13  C 
ENDROOT
BRANCH 4 8
ATOM      8  C   PRO C   2      55.892  60.143  36.820  1.00 30.63 LIG 0.24  C 
ATOM      9 O    PRO C   2      56.732  60.016  35.927  1.00 29.31 LIG-0.27  OA
ATOM     10  N   ILE C   3      55.519  59.151  37.623  1.00 30.96 LIG-0.34  N 
ATOM     11 H    ILE C   3      54.949  59.246  38.261  1.00 30.96 LIG 0.16  HD
BRANCH 10 12
ATOM     12  CA  ILE C   3      56.046  57.799  37.499  1.00 33.52 LIG 0.19  C 
BRANCH 12 13
ATOM     13  C   ILE C   3      55.351  57.096  36.334  1.00 34.53 LIG 0.20  C 
ATOM     14 OXT  ILE C   3      55.776  57.312  35.177  1.00 37.77 LIG-0.65  OA
ATOM     15 O    ILE C   3      54.391  56.337  36.591  1.00 32.63 LIG-0.65  OA
ENDBRANCH 12 13
BRANCH 12 16
ATOM     16  CB  ILE C   3      55.804  56.979  38.787  1.00 35.15 LIG 0.01  C 
ATOM     17  CG2 ILE C   3      56.750  55.781  38.832  1.00 35.36 LIG 0.01  C 
BRANCH 16 18
ATOM     18  CG1 ILE C   3      56.039  57.857  40.020  1.00 35.72 LIG 0.00  C 
ATOM     19  CD1 ILE C   3      55.401  57.309  41.299  1.00 34.66 LIG 0.01  C 
ENDBRANCH 16 18
ENDBRANCH 12 16
ENDBRANCH 10 12
ENDBRANCH 4 8
BRANCH 1 20
ATOM     20  CA  ILE C   1      57.963  63.679  38.558  1.00 26.33 LIG 0.28  C 
BRANCH 20 21
ATOM     21  CB  ILE C   1      57.237  65.036  38.735  1.00 27.81 LIG 0.02  C 
ATOM     22  CG2 ILE C   1      55.840  64.809  39.302  1.00 28.56 LIG 0.01  C 
BRANCH 21 23
ATOM     23  CG1 ILE C   1      58.027  65.946  39.677  1.00 27.24 LIG 0.00  C 
ATOM     24  CD1 ILE C   1      58.776  65.184  40.768  1.00 25.82 LIG 0.01  C 
ENDBRANCH 21 23
ENDBRANCH 20 21
BRANCH 20 25
ATOM     25  N   ILE C   1      58.835  63.676  37.357  1.00 24.71 LIG-0.07  N 
ATOM     26 H1   ILE C   1      58.406  64.059  36.677  1.00 24.71 LIG 0.28  HD
ATOM     27 H3   ILE C   1      59.042  62.838  37.143  1.00 24.71 LIG 0.28  HD
ATOM     28 H2   ILE C   1      59.581  64.130  37.530  1.00 24.71 LIG 0.28  HD
ENDBRANCH 20 25
ENDBRANCH 1 20
TORSDOF 9
ENDMDL
MODEL 6
USER: ADFR SOLUTION from run 28
USER: SCORE 12.458144 LL:  -2.071 LR: -10.388 RR:   0.000 FEB:  -7.703
USER: RMSD 4.552847
USER: SEED 27
USER: STATUS no improvement in best in 13 clusters for 5 generations
USER: GENES 11
USER: genes 0 Translation |==|  0.40819 0.65147 0.43553
USER: genes 1 Rotation |==|  0.62829 0.11268 0.78750 0.52950
USER: genes 2 Torsion [N]-CA--C-[O] |==|  0.69218
USER: genes 3 Torsion [C]-N--CA-[C] |==|  0.69810
USER: genes 4 Torsion [N]-CA--C-[OXT] |==|  0.71912
USER: genes 5 Torsion [N]-CA--CB-[CG2] |==|  0.70931
USER: genes 6 Torsion [CA]-CB--CG1-[CD1] |==|  0.30269
USER: genes 7 Torsion [N]-C--CA-[N] |==|  0.85911
USER: genes 8 Torsion [C]-CA--CB-[CG2] |==|  0.06325
USER: genes 9 Torsion [CA]-CB--CG1-[CD1] |==|  0.42605
USER: genes 10 Torsion [C]-CA--N-[H3] |==|  0.36802
ROOT
ATOM      1  C   ILE C   1      53.649  63.933  35.335  1.00 27.75 LIG 0.25  C 
ATOM      2 O    ILE C   1      53.683  64.047  36.563  1.00 26.33 LIG-0.27  OA
ATOM      3  N   PRO C   2      53.386  62.766  34.737  1.00 28.60 LIG-0.34  N 
ATOM      4  CA  PRO C   2      53.162  61.558  35.527  1.00 29.30 LIG 0.18  C 
ATOM      5  CB  PRO C   2      52.461  60.629  34.541  1.00 28.96 LIG 0.04  C 
ATOM      6  CG  PRO C   2      53.076  61.012  33.243  1.00 29.77 LIG 0.02  C 
ATOM      7  CD  PRO C   2      53.090  62.527  33.317  1.00 29.26 LIG 0.13  C 
ENDROOT
BRANCH 4 8
ATOM      8  C   PRO C   2      54.507  61.015  36.001  1.00 30.63 LIG 0.24  C 
ATOM      9 O    PRO C   2      54.959  59.958  35.553  1.00 29.31 LIG-0.27  OA
ATOM     10  N   ILE C   3      55.144  61.763  36.897  1.00 30.96 LIG-0.34  N 
ATOM     11 H    ILE C   3      54.839  62.511  37.192  1.00 30.96 LIG 0.16  HD
BRANCH 10 12
ATOM     12  CA  ILE C   3      56.430  61.385  37.467  1.00 33.52 LIG 0.19  C 
BRANCH 12 13
ATOM     13  C   ILE C   3      56.229  60.979  38.927  1.00 34.53 LIG 0.20  C 
ATOM     14 OXT  ILE C   3      56.526  61.809  39.815  1.00 37.77 LIG-0.65  OA
ATOM     15 O    ILE C   3      55.776  59.838  39.164  1.00 32.63 LIG-0.65  OA
ENDBRANCH 12 13
BRANCH 12 16
ATOM     16  CB  ILE C   3      57.438  62.555  37.412  1.00 35.15 LIG 0.01  C 
ATOM     17  CG2 ILE C   3      58.460  62.316  36.302  1.00 35.36 LIG 0.01  C 
BRANCH 16 18
ATOM     18  CG1 ILE C   3      56.700  63.870  37.147  1.00 35.72 LIG 0.00  C 
ATOM     19  CD1 ILE C   3      56.656  64.809  38.356  1.00 34.66 LIG 0.01  C 
ENDBRANCH 16 18
ENDBRANCH 12 16
ENDBRANCH 10 12
ENDBRANCH 4 8
BRANCH 1 20
ATOM     20  CA  ILE C   1      53.877  65.130  34.427  1.00 26.33 LIG 0.28  C 
BRANCH 20 21
ATOM     21  CB  ILE C   1      52.512  65.520  33.809  1.00 27.81 LIG 0.02  C 
ATOM     22  CG2 ILE C   1      51.377  65.006  34.688  1.00 28.56 LIG 0.01  C 
BRANCH 21 23
ATOM     23  CG1 ILE C   1      52.401  67.040  33.673  1.00 27.24 LIG 0.00  C 
ATOM     24  CD1 ILE C   1      51.463  67.482  32.552  1.00 25.82 LIG 0.01  C 
ENDBRANCH 21 23
ENDBRANCH 20 21
BRANCH 20 25
ATOM     25  N   ILE C   1      54.881  64.809  33.381  1.00 24.71 LIG-0.07  N 
ATOM     26 H1   ILE C   1      55.643  65.232  33.561  1.00 24.71 LIG 0.28  HD
ATOM     27 H3   ILE C   1      54.576  65.071  32.587  1.00 24.71 LIG 0.28  HD
ATOM     28 H2   ILE C   1      55.025  63.931  33.368  1.00 24.71 LIG 0.28  HD
ENDBRANCH 20 25
ENDBRANCH 1 20
TORSDOF 9
ENDMDL
