MODEL 1
USER: ADFR SOLUTION from run 126
USER: SCORE 15.040633 LL:  -2.750 LR: -12.416 RR:   0.000 FEB:  -9.134
USER: RMSD 2.612879
USER: SEED 125
USER: STATUS no improvement in best in 4 clusters for 5 generations
USER: GENES 13
USER: genes 0 Translation |==|  0.51606 0.59410 0.42259
USER: genes 1 Rotation |==|  0.47371 0.44238 0.52906 0.99512
USER: genes 2 Torsion [N]-CA--C-[N] |==|  0.24868
USER: genes 3 Torsion [C]-N--CA-[C] |==|  0.81162
USER: genes 4 Torsion [N]-CA--C-[N] |==|  0.93468
USER: genes 5 Torsion [C]-N--CA-[CB] |==|  0.24448
USER: genes 6 Torsion [N]-CA--C-[O] |==|  0.71508
USER: genes 7 Torsion [N]-CA--CB-[CG2] |==|  0.29414
USER: genes 8 Torsion [CA]-CB--CG1-[CD1] |==|  0.06516
USER: genes 9 Torsion [N]-C--CA-[N] |==|  0.43248
USER: genes 10 Torsion [C]-CA--CB-[CG1] |==|  0.56376
USER: genes 11 Torsion [C]-CA--N-[C] |==|  0.66790
USER: genes 12 Torsion [N]-C--CA-[N] |==|  0.40689
ROOT
ATOM      1  C   VAL J 902     119.601  78.187 -20.215  1.00 24.50 LIG 0.24  C 
ATOM      2 O    VAL J 902     120.232  78.743 -19.318  1.00 24.73 LIG-0.27  OA
ATOM      3  N   PRO J 903     118.358  77.718 -20.018  1.00 25.43 LIG-0.34  N 
ATOM      4  CA  PRO J 903     117.722  77.851 -18.702  1.00 29.14 LIG 0.18  C 
ATOM      5  CB  PRO J 903     116.269  77.454 -18.972  1.00 28.66 LIG 0.04  C 
ATOM      6  CG  PRO J 903     116.366  76.554 -20.159  1.00 26.54 LIG 0.02  C 
ATOM      7  CD  PRO J 903     117.396  77.229 -21.019  1.00 24.21 LIG 0.13  C 
ENDROOT
BRANCH 4 8
ATOM      8  C   PRO J 903     118.353  76.999 -17.605  1.00 32.58 LIG 0.24  C 
ATOM      9 O    PRO J 903     117.958  75.851 -17.380  1.00 31.49 LIG-0.27  OA
ATOM     10  N   ILE J 904     119.342  77.578 -16.930  1.00 35.09 LIG-0.35  N 
ATOM     11 H    ILE J 904     119.629  78.371 -17.094  1.00 35.09 LIG 0.16  HD
BRANCH 10 12
ATOM     12  CA  ILE J 904     120.039  76.908 -15.837  1.00 39.23 LIG 0.18  C 
BRANCH 12 13
ATOM     13  C   ILE J 904     119.058  76.752 -14.678  1.00 42.17 LIG 0.24  C 
ATOM     14 O    ILE J 904     119.229  75.870 -13.833  1.00 43.90 LIG-0.27  OA
ATOM     15  N   ALA J 905     118.034  77.597 -14.637  1.00 45.29 LIG-0.35  N 
ATOM     16 H    ALA J 905     117.895  78.218 -15.216  1.00 45.29 LIG 0.16  HD
BRANCH 15 17
ATOM     17  CA  ALA J 905     117.040  77.524 -13.568  1.00 47.78 LIG 0.16  C 
ATOM     18  CB  ALA J 905     117.488  78.368 -12.374  1.00 47.43 LIG 0.04  C 
BRANCH 17 19
ATOM     19  C   ALA J 905     115.671  77.993 -14.062  1.00 48.37 LIG 0.22  C 
ATOM     20 O    ALA J 905     115.247  79.118 -13.776  1.00 49.70 LIG-0.29  OA
ENDBRANCH 17 19
ENDBRANCH 15 17
ENDBRANCH 12 13
BRANCH 12 21
ATOM     21  CB  ILE J 904     121.221  77.748 -15.322  1.00 39.00 LIG 0.01  C 
ATOM     22  CG2 ILE J 904     120.868  78.368 -13.979  1.00 39.92 LIG 0.01  C 
BRANCH 21 23
ATOM     23  CG1 ILE J 904     122.476  76.887 -15.206  1.00 38.87 LIG 0.00  C 
ATOM     24  CD1 ILE J 904     122.443  75.669 -16.100  1.00 39.28 LIG 0.01  C 
ENDBRANCH 21 23
ENDBRANCH 12 21
ENDBRANCH 10 12
ENDBRANCH 4 8
BRANCH 1 25
ATOM     25  CA  VAL J 902     120.207  78.013 -21.609  1.00 23.95 LIG 0.18  C 
BRANCH 25 26
ATOM     26  CB  VAL J 902     120.784  76.573 -21.769  1.00 25.73 LIG 0.01  C 
ATOM     27  CG1 VAL J 902     121.836  76.531 -22.841  1.00 28.26 LIG 0.01  C 
ATOM     28  CG2 VAL J 902     121.388  76.115 -20.449  1.00 25.58 LIG 0.01  C 
ENDBRANCH 25 26
BRANCH 25 29
ATOM     29  N   VAL J 902     121.247  78.987 -21.906  1.00 22.50 LIG-0.34  N 
ATOM     30  C   ALA J 901     121.121  79.827 -22.927  1.00 20.52 LIG 0.26  C 
ATOM     31 O    ALA J 901     120.122  79.868 -23.629  1.00 24.49 LIG-0.27  OA
ATOM     32 H    VAL J 902     121.924  78.965 -21.376  1.00 22.50 LIG 0.16  HD
BRANCH 30 33
ATOM     33  CA  ALA J 901     122.267  80.786 -23.190  1.00 20.76 LIG 0.40  C 
ATOM     34  CB  ALA J 901     122.014  82.118 -22.449  1.00 20.79 LIG 0.06  C 
ATOM     35  N   ALA J 901     122.344  80.993 -24.648  1.00 14.38 LIG 0.61  N 
ENDBRANCH 30 33
ENDBRANCH 25 29
ENDBRANCH 1 25
TORSDOF 11
ENDMDL
MODEL 2
USER: ADFR SOLUTION from run 67
USER: SCORE 14.111129 LL:  -2.428 LR: -11.937 RR:   0.000 FEB:  -8.656
USER: RMSD 9.128746
USER: SEED 66
USER: STATUS no improvement in best in 7 clusters for 5 generations
USER: GENES 13
USER: genes 0 Translation |==|  0.39694 0.54110 0.47358
USER: genes 1 Rotation |==|  0.71028 0.82524 0.80101 0.59691
USER: genes 2 Torsion [N]-CA--C-[N] |==|  0.54628
USER: genes 3 Torsion [C]-N--CA-[C] |==|  0.71592
USER: genes 4 Torsion [N]-CA--C-[N] |==|  0.38228
USER: genes 5 Torsion [C]-N--CA-[CB] |==|  0.18663
USER: genes 6 Torsion [N]-CA--C-[O] |==|  0.84136
USER: genes 7 Torsion [N]-CA--CB-[CG2] |==|  0.36690
USER: genes 8 Torsion [CA]-CB--CG1-[CD1] |==|  0.89487
USER: genes 9 Torsion [N]-C--CA-[N] |==|  0.40817
USER: genes 10 Torsion [C]-CA--CB-[CG1] |==|  0.43605
USER: genes 11 Torsion [C]-CA--N-[C] |==|  0.68619
USER: genes 12 Torsion [N]-C--CA-[N] |==|  0.83842
ROOT
ATOM      1  C   VAL J 902     117.903  77.233 -19.106  1.00 24.50 LIG 0.24  C 
ATOM      2 O    VAL J 902     118.105  78.368 -18.677  1.00 24.73 LIG-0.27  OA
ATOM      3  N   PRO J 903     118.819  76.583 -19.842  1.00 25.43 LIG-0.34  N 
ATOM      4  CA  PRO J 903     120.096  77.231 -20.167  1.00 29.14 LIG 0.18  C 
ATOM      5  CB  PRO J 903     120.927  76.092 -20.760  1.00 28.66 LIG 0.04  C 
ATOM      6  CG  PRO J 903     119.901  75.153 -21.300  1.00 26.54 LIG 0.02  C 
ATOM      7  CD  PRO J 903     118.832  75.167 -20.245  1.00 24.21 LIG 0.13  C 
ENDROOT
BRANCH 4 8
ATOM      8  C   PRO J 903     119.980  78.413 -21.124  1.00 32.58 LIG 0.24  C 
ATOM      9 O    PRO J 903     118.895  78.966 -21.330  1.00 31.49 LIG-0.27  OA
ATOM     10  N   ILE J 904     121.116  78.794 -21.701  1.00 35.09 LIG-0.35  N 
ATOM     11 H    ILE J 904     121.875  78.421 -21.548  1.00 35.09 LIG 0.16  HD
BRANCH 10 12
ATOM     12  CA  ILE J 904     121.176  79.895 -22.657  1.00 39.23 LIG 0.18  C 
BRANCH 12 13
ATOM     13  C   ILE J 904     121.266  79.298 -24.059  1.00 42.17 LIG 0.24  C 
ATOM     14 O    ILE J 904     122.001  78.334 -24.278  1.00 43.90 LIG-0.27  OA
ATOM     15  N   ALA J 905     120.526  79.868 -25.004  1.00 45.29 LIG-0.35  N 
ATOM     16 H    ALA J 905     120.007  80.541 -24.873  1.00 45.29 LIG 0.16  HD
BRANCH 15 17
ATOM     17  CA  ALA J 905     120.547  79.369 -26.377  1.00 47.78 LIG 0.16  C 
ATOM     18  CB  ALA J 905     119.924  77.974 -26.441  1.00 47.43 LIG 0.04  C 
BRANCH 17 19
ATOM     19  C   ALA J 905     119.803  80.322 -27.315  1.00 48.37 LIG 0.22  C 
ATOM     20 O    ALA J 905     118.622  80.619 -27.109  1.00 49.70 LIG-0.29  OA
ENDBRANCH 17 19
ENDBRANCH 15 17
ENDBRANCH 12 13
BRANCH 12 21
ATOM     21  CB  ILE J 904     122.435  80.756 -22.447  1.00 39.00 LIG 0.01  C 
ATOM     22  CG2 ILE J 904     123.126  80.993 -23.782  1.00 39.92 LIG 0.01  C 
BRANCH 21 23
ATOM     23  CG1 ILE J 904     122.069  82.083 -21.786  1.00 38.87 LIG 0.00  C 
ATOM     24  CD1 ILE J 904     120.758  82.649 -22.281  1.00 39.28 LIG 0.01  C 
ENDBRANCH 21 23
ENDBRANCH 12 21
ENDBRANCH 10 12
ENDBRANCH 4 8
BRANCH 1 25
ATOM     25  CA  VAL J 902     116.593  76.502 -18.806  1.00 23.95 LIG 0.18  C 
BRANCH 25 26
ATOM     26  CB  VAL J 902     115.543  76.803 -19.919  1.00 25.73 LIG 0.01  C 
ATOM     27  CG1 VAL J 902     114.498  75.724 -19.979  1.00 28.26 LIG 0.01  C 
ATOM     28  CG2 VAL J 902     114.872  78.141 -19.639  1.00 25.58 LIG 0.01  C 
ENDBRANCH 25 26
BRANCH 25 29
ATOM     29  N   VAL J 902     116.033  76.842 -17.506  1.00 22.50 LIG-0.34  N 
ATOM     30  C   ALA J 901     115.969  75.937 -16.535  1.00 20.52 LIG 0.26  C 
ATOM     31 O    ALA J 901     116.416  74.807 -16.655  1.00 24.49 LIG-0.27  OA
ATOM     32 H    VAL J 902     115.758  77.653 -17.432  1.00 22.50 LIG 0.16  HD
BRANCH 30 33
ATOM     33  CA  ALA J 901     115.337  76.364 -15.223  1.00 20.76 LIG 0.40  C 
ATOM     34  CB  ALA J 901     113.855  76.734 -15.454  1.00 20.79 LIG 0.06  C 
ATOM     35  N   ALA J 901     116.102  77.520 -14.720  1.00 14.38 LIG 0.61  N 
ENDBRANCH 30 33
ENDBRANCH 25 29
ENDBRANCH 1 25
TORSDOF 11
ENDMDL
MODEL 3
USER: ADFR SOLUTION from run 184
USER: SCORE 13.887674 LL:  -2.839 LR: -11.872 RR:   0.000 FEB:  -8.591
USER: RMSD 3.351925
USER: SEED 183
USER: STATUS no improvement in best in 7 clusters for 5 generations
USER: GENES 13
USER: genes 0 Translation |==|  0.50407 0.59731 0.41385
USER: genes 1 Rotation |==|  0.48628 0.45593 0.52334 0.99732
USER: genes 2 Torsion [N]-CA--C-[N] |==|  0.25959
USER: genes 3 Torsion [C]-N--CA-[C] |==|  0.64037
USER: genes 4 Torsion [N]-CA--C-[N] |==|  0.66087
USER: genes 5 Torsion [C]-N--CA-[CB] |==|  0.29026
USER: genes 6 Torsion [N]-CA--C-[O] |==|  0.05309
USER: genes 7 Torsion [N]-CA--CB-[CG2] |==|  0.58750
USER: genes 8 Torsion [CA]-CB--CG1-[CD1] |==|  0.64033
USER: genes 9 Torsion [N]-C--CA-[N] |==|  0.44628
USER: genes 10 Torsion [C]-CA--CB-[CG1] |==|  0.37240
USER: genes 11 Torsion [C]-CA--N-[C] |==|  0.63862
USER: genes 12 Torsion [N]-C--CA-[N] |==|  0.38237
ROOT
ATOM      1  C   VAL J 902     119.430  78.245 -20.405  1.00 24.50 LIG 0.24  C 
ATOM      2 O    VAL J 902     120.122  78.743 -19.519  1.00 24.73 LIG-0.27  OA
ATOM      3  N   PRO J 903     118.191  77.790 -20.161  1.00 25.43 LIG-0.34  N 
ATOM      4  CA  PRO J 903     117.632  77.868 -18.806  1.00 29.14 LIG 0.18  C 
ATOM      5  CB  PRO J 903     116.158  77.513 -19.012  1.00 28.66 LIG 0.04  C 
ATOM      6  CG  PRO J 903     116.169  76.672 -20.245  1.00 26.54 LIG 0.02  C 
ATOM      7  CD  PRO J 903     117.163  77.370 -21.129  1.00 24.21 LIG 0.13  C 
ENDROOT
BRANCH 4 8
ATOM      8  C   PRO J 903     118.304  76.951 -17.790  1.00 32.58 LIG 0.24  C 
ATOM      9 O    PRO J 903     117.944  75.778 -17.650  1.00 31.49 LIG-0.27  OA
ATOM     10  N   ILE J 904     119.289  77.502 -17.087  1.00 35.09 LIG-0.35  N 
ATOM     11 H    ILE J 904     119.553  78.314 -17.192  1.00 35.09 LIG 0.16  HD
BRANCH 10 12
ATOM     12  CA  ILE J 904     120.023  76.768 -16.060  1.00 39.23 LIG 0.18  C 
BRANCH 12 13
ATOM     13  C   ILE J 904     120.036  77.617 -14.792  1.00 42.17 LIG 0.24  C 
ATOM     14 O    ILE J 904     118.977  77.976 -14.273  1.00 43.90 LIG-0.27  OA
ATOM     15  N   ALA J 905     121.226  77.939 -14.296  1.00 45.29 LIG-0.35  N 
ATOM     16 H    ALA J 905     121.976  77.700 -14.641  1.00 45.29 LIG 0.16  HD
BRANCH 15 17
ATOM     17  CA  ALA J 905     121.341  78.752 -13.087  1.00 47.78 LIG 0.16  C 
ATOM     18  CB  ALA J 905     121.730  77.873 -11.897  1.00 47.43 LIG 0.04  C 
BRANCH 17 19
ATOM     19  C   ALA J 905     122.368  79.869 -13.275  1.00 48.37 LIG 0.22  C 
ATOM     20 O    ALA J 905     122.715  80.225 -14.406  1.00 49.70 LIG-0.29  OA
ENDBRANCH 17 19
ENDBRANCH 15 17
ENDBRANCH 12 13
BRANCH 12 21
ATOM     21  CB  ILE J 904     121.488  76.538 -16.470  1.00 39.00 LIG 0.01  C 
ATOM     22  CG2 ILE J 904     121.989  75.227 -15.881  1.00 39.92 LIG 0.01  C 
BRANCH 21 23
ATOM     23  CG1 ILE J 904     121.622  76.532 -17.991  1.00 38.87 LIG 0.00  C 
ATOM     24  CD1 ILE J 904     122.374  75.331 -18.514  1.00 39.28 LIG 0.01  C 
ENDBRANCH 21 23
ENDBRANCH 12 21
ENDBRANCH 10 12
ENDBRANCH 4 8
BRANCH 1 25
ATOM     25  CA  VAL J 902     119.953  78.130 -21.838  1.00 23.95 LIG 0.18  C 
BRANCH 25 26
ATOM     26  CB  VAL J 902     120.372  76.659 -22.141  1.00 25.73 LIG 0.01  C 
ATOM     27  CG1 VAL J 902     119.843  76.212 -23.475  1.00 28.26 LIG 0.01  C 
ATOM     28  CG2 VAL J 902     121.891  76.549 -22.137  1.00 25.58 LIG 0.01  C 
ENDBRANCH 25 26
BRANCH 25 29
ATOM     29  N   VAL J 902     121.073  79.018 -22.111  1.00 22.50 LIG-0.34  N 
ATOM     30  C   ALA J 901     121.072  79.805 -23.181  1.00 20.52 LIG 0.26  C 
ATOM     31 O    ALA J 901     120.128  79.868 -23.953  1.00 24.49 LIG-0.27  OA
ATOM     32 H    VAL J 902     121.710  78.985 -21.534  1.00 22.50 LIG 0.16  HD
BRANCH 30 33
ATOM     33  CA  ALA J 901     122.295  80.674 -23.411  1.00 20.76 LIG 0.40  C 
ATOM     34  CB  ALA J 901     121.999  82.122 -22.961  1.00 20.79 LIG 0.06  C 
ATOM     35  N   ALA J 901     122.611  80.618 -24.851  1.00 14.38 LIG 0.61  N 
ENDBRANCH 30 33
ENDBRANCH 25 29
ENDBRANCH 1 25
TORSDOF 11
ENDMDL
MODEL 4
USER: ADFR SOLUTION from run 73
USER: SCORE 13.605971 LL:  -2.548 LR: -11.511 RR:   0.000 FEB:  -8.229
USER: RMSD 2.378463
USER: SEED 72
USER: STATUS no improvement in best in 8 clusters for 5 generations
USER: GENES 13
USER: genes 0 Translation |==|  0.50956 0.59161 0.42091
USER: genes 1 Rotation |==|  0.46454 0.39473 0.52564 0.98683
USER: genes 2 Torsion [N]-CA--C-[N] |==|  0.40966
USER: genes 3 Torsion [C]-N--CA-[C] |==|  0.63333
USER: genes 4 Torsion [N]-CA--C-[N] |==|  0.29137
USER: genes 5 Torsion [C]-N--CA-[CB] |==|  0.48725
USER: genes 6 Torsion [N]-CA--C-[O] |==|  0.43262
USER: genes 7 Torsion [N]-CA--CB-[CG2] |==|  0.47770
USER: genes 8 Torsion [CA]-CB--CG1-[CD1] |==|  0.48774
USER: genes 9 Torsion [N]-C--CA-[N] |==|  0.39519
USER: genes 10 Torsion [C]-CA--CB-[CG1] |==|  0.88092
USER: genes 11 Torsion [C]-CA--N-[C] |==|  0.69136
USER: genes 12 Torsion [N]-C--CA-[N] |==|  0.43281
ROOT
ATOM      1  C   VAL J 902     119.508  78.142 -20.251  1.00 24.50 LIG 0.24  C 
ATOM      2 O    VAL J 902     119.957  78.719 -19.262  1.00 24.73 LIG-0.27  OA
ATOM      3  N   PRO J 903     118.247  77.683 -20.288  1.00 25.43 LIG-0.34  N 
ATOM      4  CA  PRO J 903     117.368  77.852 -19.125  1.00 29.14 LIG 0.18  C 
ATOM      5  CB  PRO J 903     115.993  77.452 -19.663  1.00 28.66 LIG 0.04  C 
ATOM      6  CG  PRO J 903     116.311  76.522 -20.785  1.00 26.54 LIG 0.02  C 
ATOM      7  CD  PRO J 903     117.494  77.171 -21.445  1.00 24.21 LIG 0.13  C 
ENDROOT
BRANCH 4 8
ATOM      8  C   PRO J 903     117.767  77.027 -17.905  1.00 32.58 LIG 0.24  C 
ATOM      9 O    PRO J 903     118.306  75.923 -18.029  1.00 31.49 LIG-0.27  OA
ATOM     10  N   ILE J 904     117.498  77.582 -16.727  1.00 35.09 LIG-0.35  N 
ATOM     11 H    ILE J 904     117.137  78.357 -16.638  1.00 35.09 LIG 0.16  HD
BRANCH 10 12
ATOM     12  CA  ILE J 904     117.797  76.917 -15.463  1.00 39.23 LIG 0.18  C 
BRANCH 12 13
ATOM     13  C   ILE J 904     116.558  77.008 -14.577  1.00 42.17 LIG 0.24  C 
ATOM     14 O    ILE J 904     116.265  78.071 -14.024  1.00 43.90 LIG-0.27  OA
ATOM     15  N   ALA J 905     115.834  75.903 -14.438  1.00 45.29 LIG-0.35  N 
ATOM     16 H    ALA J 905     116.020  75.152 -14.814  1.00 45.29 LIG 0.16  HD
BRANCH 15 17
ATOM     17  CA  ALA J 905     114.632  75.890 -13.608  1.00 47.78 LIG 0.16  C 
ATOM     18  CB  ALA J 905     113.933  74.534 -13.714  1.00 47.43 LIG 0.04  C 
BRANCH 17 19
ATOM     19  C   ALA J 905     114.973  76.195 -12.149  1.00 48.37 LIG 0.22  C 
ATOM     20 O    ALA J 905     114.122  76.664 -11.386  1.00 49.70 LIG-0.29  OA
ENDBRANCH 17 19
ENDBRANCH 15 17
ENDBRANCH 12 13
BRANCH 12 21
ATOM     21  CB  ILE J 904     118.945  77.618 -14.715  1.00 39.00 LIG 0.01  C 
ATOM     22  CG2 ILE J 904     119.093  77.022 -13.323  1.00 39.92 LIG 0.01  C 
BRANCH 21 23
ATOM     23  CG1 ILE J 904     120.249  77.490 -15.498  1.00 38.87 LIG 0.00  C 
ATOM     24  CD1 ILE J 904     121.394  78.249 -14.869  1.00 39.28 LIG 0.01  C 
ENDBRANCH 21 23
ENDBRANCH 12 21
ENDBRANCH 10 12
ENDBRANCH 4 8
BRANCH 1 25
ATOM     25  CA  VAL J 902     120.372  77.930 -21.496  1.00 23.95 LIG 0.18  C 
BRANCH 25 26
ATOM     26  CB  VAL J 902     121.222  76.631 -21.346  1.00 25.73 LIG 0.01  C 
ATOM     27  CG1 VAL J 902     121.806  76.526 -19.965  1.00 28.26 LIG 0.01  C 
ATOM     28  CG2 VAL J 902     120.349  75.415 -21.621  1.00 25.58 LIG 0.01  C 
ENDBRANCH 25 26
BRANCH 25 29
ATOM     29  N   VAL J 902     121.252  79.055 -21.780  1.00 22.50 LIG-0.34  N 
ATOM     30  C   ALA J 901     121.051  79.824 -22.843  1.00 20.52 LIG 0.26  C 
ATOM     31 O    ALA J 901     120.105  79.671 -23.600  1.00 24.49 LIG-0.27  OA
ATOM     32 H    VAL J 902     121.889  79.166 -21.213  1.00 22.50 LIG 0.16  HD
BRANCH 30 33
ATOM     33  CA  ALA J 901     122.036  80.953 -23.086  1.00 20.76 LIG 0.40  C 
ATOM     34  CB  ALA J 901     121.644  82.180 -22.234  1.00 20.79 LIG 0.06  C 
ATOM     35  N   ALA J 901     121.997  81.270 -24.526  1.00 14.38 LIG 0.61  N 
ENDBRANCH 30 33
ENDBRANCH 25 29
ENDBRANCH 1 25
TORSDOF 11
ENDMDL
MODEL 5
USER: ADFR SOLUTION from run 127
USER: SCORE 13.930982 LL:  -2.519 LR: -11.446 RR:   0.000 FEB:  -8.165
USER: RMSD 8.668230
USER: SEED 126
USER: STATUS no improvement in best in 8 clusters for 5 generations
USER: GENES 13
USER: genes 0 Translation |==|  0.49553 0.56036 0.48568
USER: genes 1 Rotation |==|  0.85551 0.79332 0.67546 0.58240
USER: genes 2 Torsion [N]-CA--C-[N] |==|  0.29715
USER: genes 3 Torsion [C]-N--CA-[C] |==|  0.83829
USER: genes 4 Torsion [N]-CA--C-[N] |==|  0.38225
USER: genes 5 Torsion [C]-N--CA-[CB] |==|  0.18629
USER: genes 6 Torsion [N]-CA--C-[O] |==|  0.85302
USER: genes 7 Torsion [N]-CA--CB-[CG2] |==|  0.37815
USER: genes 8 Torsion [CA]-CB--CG1-[CD1] |==|  0.85344
USER: genes 9 Torsion [N]-C--CA-[N] |==|  0.89581
USER: genes 10 Torsion [C]-CA--CB-[CG1] |==|  0.07241
USER: genes 11 Torsion [C]-CA--N-[C] |==|  0.83645
USER: genes 12 Torsion [N]-C--CA-[N] |==|  0.77777
ROOT
ATOM      1  C   VAL J 902     119.308  77.579 -18.843  1.00 24.50 LIG 0.24  C 
ATOM      2 O    VAL J 902     120.172  78.455 -18.868  1.00 24.73 LIG-0.27  OA
ATOM      3  N   PRO J 903     119.275  76.593 -19.753  1.00 25.43 LIG-0.34  N 
ATOM      4  CA  PRO J 903     120.279  76.546 -20.823  1.00 29.14 LIG 0.18  C 
ATOM      5  CB  PRO J 903     120.058  75.169 -21.452  1.00 28.66 LIG 0.04  C 
ATOM      6  CG  PRO J 903     118.627  74.873 -21.153  1.00 26.54 LIG 0.02  C 
ATOM      7  CD  PRO J 903     118.459  75.368 -19.745  1.00 24.21 LIG 0.13  C 
ENDROOT
BRANCH 4 8
ATOM      8  C   PRO J 903     120.164  77.669 -21.849  1.00 32.58 LIG 0.24  C 
ATOM      9 O    PRO J 903     119.250  77.684 -22.680  1.00 31.49 LIG-0.27  OA
ATOM     10  N   ILE J 904     121.100  78.610 -21.775  1.00 35.09 LIG-0.35  N 
ATOM     11 H    ILE J 904     121.729  78.610 -21.188  1.00 35.09 LIG 0.16  HD
BRANCH 10 12
ATOM     12  CA  ILE J 904     121.146  79.742 -22.694  1.00 39.23 LIG 0.18  C 
BRANCH 12 13
ATOM     13  C   ILE J 904     121.253  79.193 -24.115  1.00 42.17 LIG 0.24  C 
ATOM     14 O    ILE J 904     122.007  78.249 -24.361  1.00 43.90 LIG-0.27  OA
ATOM     15  N   ALA J 905     120.508  79.779 -25.045  1.00 45.29 LIG-0.35  N 
ATOM     16 H    ALA J 905     119.976  80.438 -24.895  1.00 45.29 LIG 0.16  HD
BRANCH 15 17
ATOM     17  CA  ALA J 905     120.544  79.326 -26.434  1.00 47.78 LIG 0.16  C 
ATOM     18  CB  ALA J 905     119.950  77.922 -26.545  1.00 47.43 LIG 0.04  C 
BRANCH 17 19
ATOM     19  C   ALA J 905     119.786  80.293 -27.344  1.00 48.37 LIG 0.22  C 
ATOM     20 O    ALA J 905     118.622  80.620 -27.090  1.00 49.70 LIG-0.29  OA
ENDBRANCH 17 19
ENDBRANCH 15 17
ENDBRANCH 12 13
BRANCH 12 21
ATOM     21  CB  ILE J 904     122.387  80.618 -22.450  1.00 39.00 LIG 0.01  C 
ATOM     22  CG2 ILE J 904     123.024  80.994 -23.780  1.00 39.92 LIG 0.01  C 
BRANCH 21 23
ATOM     23  CG1 ILE J 904     122.010  81.869 -21.660  1.00 38.87 LIG 0.00  C 
ATOM     24  CD1 ILE J 904     120.868  82.639 -22.281  1.00 39.28 LIG 0.01  C 
ENDBRANCH 21 23
ENDBRANCH 12 21
ENDBRANCH 10 12
ENDBRANCH 4 8
BRANCH 1 25
ATOM     25  CA  VAL J 902     118.231  77.571 -17.756  1.00 23.95 LIG 0.18  C 
BRANCH 25 26
ATOM     26  CB  VAL J 902     118.669  76.656 -16.571  1.00 25.73 LIG 0.01  C 
ATOM     27  CG1 VAL J 902     120.167  76.558 -16.492  1.00 28.26 LIG 0.01  C 
ATOM     28  CG2 VAL J 902     118.129  77.220 -15.264  1.00 25.58 LIG 0.01  C 
ENDBRANCH 25 26
BRANCH 25 29
ATOM     29  N   VAL J 902     116.929  77.141 -18.244  1.00 22.50 LIG-0.34  N 
ATOM     30  C   ALA J 901     116.322  77.795 -19.228  1.00 20.52 LIG 0.26  C 
ATOM     31 O    ALA J 901     116.833  78.742 -19.806  1.00 24.49 LIG-0.27  OA
ATOM     32 H    VAL J 902     116.605  76.450 -17.848  1.00 22.50 LIG 0.16  HD
BRANCH 30 33
ATOM     33  CA  ALA J 901     114.950  77.302 -19.652  1.00 20.76 LIG 0.40  C 
ATOM     34  CB  ALA J 901     114.124  76.922 -18.404  1.00 20.79 LIG 0.06  C 
ATOM     35  N   ALA J 901     115.153  76.137 -20.533  1.00 14.38 LIG 0.61  N 
ENDBRANCH 30 33
ENDBRANCH 25 29
ENDBRANCH 1 25
TORSDOF 11
ENDMDL
MODEL 6
USER: ADFR SOLUTION from run 111
USER: SCORE 13.976522 LL:  -2.668 LR: -11.396 RR:   0.000 FEB:  -8.114
USER: RMSD 9.139493
USER: SEED 110
USER: STATUS searching
USER: GENES 13
USER: genes 0 Translation |==|  0.53713 0.56129 0.44207
USER: genes 1 Rotation |==|  0.80932 0.82646 0.71273 0.54992
USER: genes 2 Torsion [N]-CA--C-[N] |==|  0.35218
USER: genes 3 Torsion [C]-N--CA-[C] |==|  0.80088
USER: genes 4 Torsion [N]-CA--C-[N] |==|  0.34080
USER: genes 5 Torsion [C]-N--CA-[CB] |==|  0.18738
USER: genes 6 Torsion [N]-CA--C-[O] |==|  0.92420
USER: genes 7 Torsion [N]-CA--CB-[CG2] |==|  0.60228
USER: genes 8 Torsion [CA]-CB--CG1-[CD1] |==|  0.83122
USER: genes 9 Torsion [N]-C--CA-[N] |==|  0.39994
USER: genes 10 Torsion [C]-CA--CB-[CG1] |==|  0.02250
USER: genes 11 Torsion [C]-CA--N-[C] |==|  0.82736
USER: genes 12 Torsion [N]-C--CA-[N] |==|  0.30143
ROOT
ATOM      1  C   VAL J 902     119.901  77.596 -19.791  1.00 24.50 LIG 0.24  C 
ATOM      2 O    VAL J 902     120.493  78.667 -19.662  1.00 24.73 LIG-0.27  OA
ATOM      3  N   PRO J 903     120.192  76.745 -20.787  1.00 25.43 LIG-0.34  N 
ATOM      4  CA  PRO J 903     121.230  77.087 -21.767  1.00 29.14 LIG 0.18  C 
ATOM      5  CB  PRO J 903     121.431  75.779 -22.537  1.00 28.66 LIG 0.04  C 
ATOM      6  CG  PRO J 903     120.121  75.081 -22.390  1.00 26.54 LIG 0.02  C 
ATOM      7  CD  PRO J 903     119.743  75.354 -20.962  1.00 24.21 LIG 0.13  C 
ENDROOT
BRANCH 4 8
ATOM      8  C   PRO J 903     120.872  78.245 -22.692  1.00 32.58 LIG 0.24  C 
ATOM      9 O    PRO J 903     119.819  78.246 -23.338  1.00 31.49 LIG-0.27  OA
ATOM     10  N   ILE J 904     121.761  79.233 -22.741  1.00 35.09 LIG-0.35  N 
ATOM     11 H    ILE J 904     122.487  79.243 -22.282  1.00 35.09 LIG 0.16  HD
BRANCH 10 12
ATOM     12  CA  ILE J 904     121.580  80.406 -23.591  1.00 39.23 LIG 0.18  C 
BRANCH 12 13
ATOM     13  C   ILE J 904     121.782  79.974 -25.041  1.00 42.17 LIG 0.24  C 
ATOM     14 O    ILE J 904     122.840  79.446 -25.390  1.00 43.90 LIG-0.27  OA
ATOM     15  N   ALA J 905     120.778  80.199 -25.882  1.00 45.29 LIG-0.35  N 
ATOM     16 H    ALA J 905     120.033  80.566 -25.659  1.00 45.29 LIG 0.16  HD
BRANCH 15 17
ATOM     17  CA  ALA J 905     120.879  79.823 -27.290  1.00 47.78 LIG 0.16  C 
ATOM     18  CB  ALA J 905     120.919  78.301 -27.428  1.00 47.43 LIG 0.04  C 
BRANCH 17 19
ATOM     19  C   ALA J 905     119.709  80.395 -28.093  1.00 48.37 LIG 0.22  C 
ATOM     20 O    ALA J 905     118.622  80.622 -27.551  1.00 49.70 LIG-0.29  OA
ENDBRANCH 17 19
ENDBRANCH 15 17
ENDBRANCH 12 13
BRANCH 12 21
ATOM     21  CB  ILE J 904     122.630  81.489 -23.288  1.00 39.00 LIG 0.01  C 
ATOM     22  CG2 ILE J 904     121.997  82.868 -23.406  1.00 39.92 LIG 0.01  C 
BRANCH 21 23
ATOM     23  CG1 ILE J 904     123.220  81.284 -21.895  1.00 38.87 LIG 0.00  C 
ATOM     24  CD1 ILE J 904     122.187  81.368 -20.796  1.00 39.28 LIG 0.01  C 
ENDBRANCH 21 23
ENDBRANCH 12 21
ENDBRANCH 10 12
ENDBRANCH 4 8
BRANCH 1 25
ATOM     25  CA  VAL J 902     118.806  77.181 -18.807  1.00 23.95 LIG 0.18  C 
BRANCH 25 26
ATOM     26  CB  VAL J 902     117.428  77.749 -19.264  1.00 25.73 LIG 0.01  C 
ATOM     27  CG1 VAL J 902     117.528  78.370 -20.629  1.00 28.26 LIG 0.01  C 
ATOM     28  CG2 VAL J 902     116.397  76.629 -19.291  1.00 25.58 LIG 0.01  C 
ENDBRANCH 25 26
BRANCH 25 29
ATOM     29  N   VAL J 902     119.075  77.604 -17.440  1.00 22.50 LIG-0.34  N 
ATOM     30  C   ALA J 901     120.142  77.158 -16.787  1.00 20.52 LIG 0.26  C 
ATOM     31 O    ALA J 901     120.972  76.424 -17.302  1.00 24.49 LIG-0.27  OA
ATOM     32 H    VAL J 902     118.497  78.149 -17.111  1.00 22.50 LIG 0.16  HD
BRANCH 30 33
ATOM     33  CA  ALA J 901     120.328  77.619 -15.353  1.00 20.76 LIG 0.40  C 
ATOM     34  CB  ALA J 901     121.769  78.141 -15.156  1.00 20.79 LIG 0.06  C 
ATOM     35  N   ALA J 901     120.056  76.463 -14.479  1.00 14.38 LIG 0.61  N 
ENDBRANCH 30 33
ENDBRANCH 25 29
ENDBRANCH 1 25
TORSDOF 11
ENDMDL
MODEL 7
USER: ADFR SOLUTION from run 74
USER: SCORE 13.294052 LL:  -2.381 LR: -11.279 RR:   0.000 FEB:  -7.998
USER: RMSD 5.110675
USER: SEED 73
USER: STATUS no improvement in best in 9 clusters for 5 generations
USER: GENES 13
USER: genes 0 Translation |==|  0.60666 0.65373 0.29348
USER: genes 1 Rotation |==|  0.35662 0.28842 0.85400 0.74364
USER: genes 2 Torsion [N]-CA--C-[N] |==|  0.44142
USER: genes 3 Torsion [C]-N--CA-[C] |==|  0.79132
USER: genes 4 Torsion [N]-CA--C-[N] |==|  0.48889
USER: genes 5 Torsion [C]-N--CA-[CB] |==|  0.17710
USER: genes 6 Torsion [N]-CA--C-[O] |==|  0.00989
USER: genes 7 Torsion [N]-CA--CB-[CG2] |==|  0.77190
USER: genes 8 Torsion [CA]-CB--CG1-[CD1] |==|  0.49710
USER: genes 9 Torsion [N]-C--CA-[N] |==|  0.35671
USER: genes 10 Torsion [C]-CA--CB-[CG1] |==|  0.71669
USER: genes 11 Torsion [C]-CA--N-[C] |==|  0.87174
USER: genes 12 Torsion [N]-C--CA-[N] |==|  0.20901
ROOT
ATOM      1  C   VAL J 902     120.892  79.260 -23.023  1.00 24.50 LIG 0.24  C 
ATOM      2 O    VAL J 902     119.774  79.771 -22.982  1.00 24.73 LIG-0.27  OA
ATOM      3  N   PRO J 903     121.132  78.044 -22.506  1.00 25.43 LIG-0.34  N 
ATOM      4  CA  PRO J 903     120.049  77.293 -21.860  1.00 29.14 LIG 0.18  C 
ATOM      5  CB  PRO J 903     120.654  75.902 -21.664  1.00 28.66 LIG 0.04  C 
ATOM      6  CG  PRO J 903     122.122  76.164 -21.597  1.00 26.54 LIG 0.02  C 
ATOM      7  CD  PRO J 903     122.334  77.208 -22.657  1.00 24.21 LIG 0.13  C 
ENDROOT
BRANCH 4 8
ATOM      8  C   PRO J 903     119.558  77.893 -20.546  1.00 32.58 LIG 0.24  C 
ATOM      9 O    PRO J 903     120.261  78.674 -19.898  1.00 31.49 LIG-0.27  OA
ATOM     10  N   ILE J 904     118.339  77.521 -20.168  1.00 35.09 LIG-0.35  N 
ATOM     11 H    ILE J 904     117.841  76.990 -20.625  1.00 35.09 LIG 0.16  HD
BRANCH 10 12
ATOM     12  CA  ILE J 904     117.728  77.988 -18.928  1.00 39.23 LIG 0.18  C 
BRANCH 12 13
ATOM     13  C   ILE J 904     118.383  77.241 -17.769  1.00 42.17 LIG 0.24  C 
ATOM     14 O    ILE J 904     119.211  76.354 -17.990  1.00 43.90 LIG-0.27  OA
ATOM     15  N   ALA J 905     118.014  77.590 -16.542  1.00 45.29 LIG-0.35  N 
ATOM     16 H    ALA J 905     117.439  78.205 -16.366  1.00 45.29 LIG 0.16  HD
BRANCH 15 17
ATOM     17  CA  ALA J 905     118.582  76.930 -15.369  1.00 47.78 LIG 0.16  C 
ATOM     18  CB  ALA J 905     120.086  77.200 -15.289  1.00 47.43 LIG 0.04  C 
BRANCH 17 19
ATOM     19  C   ALA J 905     117.894  77.403 -14.088  1.00 48.37 LIG 0.22  C 
ATOM     20 O    ALA J 905     116.941  78.189 -14.136  1.00 49.70 LIG-0.29  OA
ENDBRANCH 17 19
ENDBRANCH 15 17
ENDBRANCH 12 13
BRANCH 12 21
ATOM     21  CB  ILE J 904     116.224  77.668 -18.884  1.00 39.00 LIG 0.01  C 
ATOM     22  CG2 ILE J 904     115.449  78.726 -19.656  1.00 39.92 LIG 0.01  C 
BRANCH 21 23
ATOM     23  CG1 ILE J 904     115.957  76.279 -19.458  1.00 38.87 LIG 0.00  C 
ATOM     24  CD1 ILE J 904     114.497  75.893 -19.421  1.00 39.28 LIG 0.01  C 
ENDBRANCH 21 23
ENDBRANCH 12 21
ENDBRANCH 10 12
ENDBRANCH 4 8
BRANCH 1 25
ATOM     25  CA  VAL J 902     122.065  79.991 -23.679  1.00 23.95 LIG 0.18  C 
BRANCH 25 26
ATOM     26  CB  VAL J 902     122.516  81.191 -22.791  1.00 25.73 LIG 0.01  C 
ATOM     27  CG1 VAL J 902     121.998  82.491 -23.340  1.00 28.26 LIG 0.01  C 
ATOM     28  CG2 VAL J 902     121.998  81.000 -21.372  1.00 25.58 LIG 0.01  C 
ENDBRANCH 25 26
BRANCH 25 29
ATOM     29  N   VAL J 902     121.764  80.467 -25.021  1.00 22.50 LIG-0.34  N 
ATOM     30  C   ALA J 901     121.162  79.678 -25.904  1.00 20.52 LIG 0.26  C 
ATOM     31 O    ALA J 901     120.786  78.549 -25.632  1.00 24.49 LIG-0.27  OA
ATOM     32 H    VAL J 902     122.004  81.278 -25.179  1.00 22.50 LIG 0.16  HD
BRANCH 30 33
ATOM     33  CA  ALA J 901     120.918  80.241 -27.293  1.00 20.76 LIG 0.40  C 
ATOM     34  CB  ALA J 901     119.877  79.372 -28.032  1.00 20.79 LIG 0.06  C 
ATOM     35  N   ALA J 901     122.211  80.243 -28.002  1.00 14.38 LIG 0.61  N 
ENDBRANCH 30 33
ENDBRANCH 25 29
ENDBRANCH 1 25
TORSDOF 11
ENDMDL
MODEL 8
USER: ADFR SOLUTION from run 152
USER: SCORE 13.024487 LL:  -2.503 LR: -11.093 RR:   0.000 FEB:  -7.812
USER: RMSD 4.262315
USER: SEED 151
USER: STATUS no improvement in best in 5 clusters for 5 generations
USER: GENES 13
USER: genes 0 Translation |==|  0.52924 0.52457 0.34300
USER: genes 1 Rotation |==|  0.34068 0.38105 0.95160 0.58078
USER: genes 2 Torsion [N]-CA--C-[N] |==|  0.40724
USER: genes 3 Torsion [C]-N--CA-[C] |==|  0.70400
USER: genes 4 Torsion [N]-CA--C-[N] |==|  0.32818
USER: genes 5 Torsion [C]-N--CA-[CB] |==|  0.33747
USER: genes 6 Torsion [N]-CA--C-[O] |==|  0.95264
USER: genes 7 Torsion [N]-CA--CB-[CG2] |==|  0.42959
USER: genes 8 Torsion [CA]-CB--CG1-[CD1] |==|  0.95290
USER: genes 9 Torsion [N]-C--CA-[N] |==|  0.85556
USER: genes 10 Torsion [C]-CA--CB-[CG1] |==|  0.25331
USER: genes 11 Torsion [C]-CA--N-[C] |==|  0.68810
USER: genes 12 Torsion [N]-C--CA-[N] |==|  0.25176
ROOT
ATOM      1  C   VAL J 902     119.789  76.935 -21.946  1.00 24.50 LIG 0.24  C 
ATOM      2 O    VAL J 902     118.577  76.757 -22.059  1.00 24.73 LIG-0.27  OA
ATOM      3  N   PRO J 903     120.459  76.551 -20.848  1.00 25.43 LIG-0.34  N 
ATOM      4  CA  PRO J 903     119.744  75.911 -19.737  1.00 29.14 LIG 0.18  C 
ATOM      5  CB  PRO J 903     120.874  75.401 -18.839  1.00 28.66 LIG 0.04  C 
ATOM      6  CG  PRO J 903     122.010  76.318 -19.150  1.00 26.54 LIG 0.02  C 
ATOM      7  CD  PRO J 903     121.915  76.492 -20.639  1.00 24.21 LIG 0.13  C 
ENDROOT
BRANCH 4 8
ATOM      8  C   PRO J 903     118.789  76.832 -18.985  1.00 32.58 LIG 0.24  C 
ATOM      9 O    PRO J 903     119.035  78.034 -18.847  1.00 31.49 LIG-0.27  OA
ATOM     10  N   ILE J 904     117.693  76.250 -18.506  1.00 35.09 LIG-0.35  N 
ATOM     11 H    ILE J 904     117.512  75.417 -18.613  1.00 35.09 LIG 0.16  HD
BRANCH 10 12
ATOM     12  CA  ILE J 904     116.686  76.984 -17.746  1.00 39.23 LIG 0.18  C 
BRANCH 12 13
ATOM     13  C   ILE J 904     116.812  76.577 -16.280  1.00 42.17 LIG 0.24  C 
ATOM     14 O    ILE J 904     116.624  75.407 -15.941  1.00 43.90 LIG-0.27  OA
ATOM     15  N   ALA J 905     117.124  77.535 -15.414  1.00 45.29 LIG-0.35  N 
ATOM     16 H    ALA J 905     117.259  78.357 -15.628  1.00 45.29 LIG 0.16  HD
BRANCH 15 17
ATOM     17  CA  ALA J 905     117.264  77.244 -13.989  1.00 47.78 LIG 0.16  C 
ATOM     18  CB  ALA J 905     118.666  77.621 -13.509  1.00 47.43 LIG 0.04  C 
BRANCH 17 19
ATOM     19  C   ALA J 905     116.209  77.992 -13.172  1.00 48.37 LIG 0.22  C 
ATOM     20 O    ALA J 905     115.595  78.948 -13.657  1.00 49.70 LIG-0.29  OA
ENDBRANCH 17 19
ENDBRANCH 15 17
ENDBRANCH 12 13
BRANCH 12 21
ATOM     21  CB  ILE J 904     115.261  76.621 -18.199  1.00 39.00 LIG 0.01  C 
ATOM     22  CG2 ILE J 904     114.280  76.867 -17.062  1.00 39.92 LIG 0.01  C 
BRANCH 21 23
ATOM     23  CG1 ILE J 904     114.872  77.430 -19.433  1.00 38.87 LIG 0.00  C 
ATOM     24  CD1 ILE J 904     115.758  78.633 -19.656  1.00 39.28 LIG 0.01  C 
ENDBRANCH 21 23
ENDBRANCH 12 21
ENDBRANCH 10 12
ENDBRANCH 4 8
BRANCH 1 25
ATOM     25  CA  VAL J 902     120.593  77.599 -23.066  1.00 23.95 LIG 0.18  C 
BRANCH 25 26
ATOM     26  CB  VAL J 902     121.502  76.546 -23.771  1.00 25.73 LIG 0.01  C 
ATOM     27  CG1 VAL J 902     120.795  75.921 -24.940  1.00 28.26 LIG 0.01  C 
ATOM     28  CG2 VAL J 902     122.781  77.217 -24.253  1.00 25.58 LIG 0.01  C 
ENDBRANCH 25 26
BRANCH 25 29
ATOM     29  N   VAL J 902     121.409  78.711 -22.602  1.00 22.50 LIG-0.34  N 
ATOM     30  C   ALA J 901     121.133  79.957 -22.971  1.00 20.52 LIG 0.26  C 
ATOM     31 O    ALA J 901     120.168  80.243 -23.661  1.00 24.49 LIG-0.27  OA
ATOM     32 H    VAL J 902     122.061  78.490 -22.087  1.00 22.50 LIG 0.16  HD
BRANCH 30 33
ATOM     33  CA  ALA J 901     122.056  81.054 -22.472  1.00 20.76 LIG 0.40  C 
ATOM     34  CB  ALA J 901     121.256  82.362 -22.281  1.00 20.79 LIG 0.06  C 
ATOM     35  N   ALA J 901     123.122  81.224 -23.478  1.00 14.38 LIG 0.61  N 
ENDBRANCH 30 33
ENDBRANCH 25 29
ENDBRANCH 1 25
TORSDOF 11
ENDMDL
MODEL 9
USER: ADFR SOLUTION from run 126
USER: SCORE 13.583332 LL:  -2.873 LR: -10.958 RR:   0.000 FEB:  -7.677
USER: RMSD 3.472784
USER: SEED 125
USER: STATUS no improvement in best in 4 clusters for 5 generations
USER: GENES 13
USER: genes 0 Translation |==|  0.50544 0.58720 0.41839
USER: genes 1 Rotation |==|  0.45304 0.39511 0.54363 0.98465
USER: genes 2 Torsion [N]-CA--C-[N] |==|  0.40698
USER: genes 3 Torsion [C]-N--CA-[C] |==|  0.16677
USER: genes 4 Torsion [N]-CA--C-[N] |==|  0.06749
USER: genes 5 Torsion [C]-N--CA-[CB] |==|  0.81492
USER: genes 6 Torsion [N]-CA--C-[O] |==|  0.56675
USER: genes 7 Torsion [N]-CA--CB-[CG2] |==|  0.56063
USER: genes 8 Torsion [CA]-CB--CG1-[CD1] |==|  0.82161
USER: genes 9 Torsion [N]-C--CA-[N] |==|  0.41407
USER: genes 10 Torsion [C]-CA--CB-[CG1] |==|  0.54680
USER: genes 11 Torsion [C]-CA--N-[C] |==|  0.69485
USER: genes 12 Torsion [N]-C--CA-[N] |==|  0.40506
ROOT
ATOM      1  C   VAL J 902     119.450  78.063 -20.306  1.00 24.50 LIG 0.24  C 
ATOM      2 O    VAL J 902     119.863  78.725 -19.356  1.00 24.73 LIG-0.27  OA
ATOM      3  N   PRO J 903     118.219  77.526 -20.310  1.00 25.43 LIG-0.34  N 
ATOM      4  CA  PRO J 903     117.332  77.712 -19.155  1.00 29.14 LIG 0.18  C 
ATOM      5  CB  PRO J 903     115.983  77.198 -19.662  1.00 28.66 LIG 0.04  C 
ATOM      6  CG  PRO J 903     116.356  76.223 -20.727  1.00 26.54 LIG 0.02  C 
ATOM      7  CD  PRO J 903     117.497  76.901 -21.431  1.00 24.21 LIG 0.13  C 
ENDROOT
BRANCH 4 8
ATOM      8  C   PRO J 903     117.780  76.988 -17.890  1.00 32.58 LIG 0.24  C 
ATOM      9 O    PRO J 903     118.370  75.905 -17.947  1.00 31.49 LIG-0.27  OA
ATOM     10  N   ILE J 904     117.497  77.606 -16.747  1.00 35.09 LIG-0.35  N 
ATOM     11 H    ILE J 904     117.100  78.368 -16.704  1.00 35.09 LIG 0.16  HD
BRANCH 10 12
ATOM     12  CA  ILE J 904     117.839  77.041 -15.446  1.00 39.23 LIG 0.18  C 
BRANCH 12 13
ATOM     13  C   ILE J 904     119.354  76.863 -15.392  1.00 42.17 LIG 0.24  C 
ATOM     14 O    ILE J 904     119.856  76.030 -14.634  1.00 43.90 LIG-0.27  OA
ATOM     15  N   ALA J 905     120.080  77.641 -16.187  1.00 45.29 LIG-0.35  N 
ATOM     16 H    ALA J 905     119.751  78.228 -16.723  1.00 45.29 LIG 0.16  HD
BRANCH 15 17
ATOM     17  CA  ALA J 905     121.538  77.547 -16.204  1.00 47.78 LIG 0.16  C 
ATOM     18  CB  ALA J 905     122.112  78.010 -14.864  1.00 47.43 LIG 0.04  C 
BRANCH 17 19
ATOM     19  C   ALA J 905     121.990  76.118 -16.505  1.00 48.37 LIG 0.22  C 
ATOM     20 O    ALA J 905     123.103  75.717 -16.146  1.00 49.70 LIG-0.29  OA
ENDBRANCH 17 19
ENDBRANCH 15 17
ENDBRANCH 12 13
BRANCH 12 21
ATOM     21  CB  ILE J 904     117.210  75.650 -15.253  1.00 39.00 LIG 0.01  C 
ATOM     22  CG2 ILE J 904     117.115  75.328 -13.768  1.00 39.92 LIG 0.01  C 
BRANCH 21 23
ATOM     23  CG1 ILE J 904     115.832  75.592 -15.906  1.00 38.87 LIG 0.00  C 
ATOM     24  CD1 ILE J 904     114.835  76.530 -15.267  1.00 39.28 LIG 0.01  C 
ENDBRANCH 21 23
ENDBRANCH 12 21
ENDBRANCH 10 12
ENDBRANCH 4 8
BRANCH 1 25
ATOM     25  CA  VAL J 902     120.324  77.829 -21.539  1.00 23.95 LIG 0.18  C 
BRANCH 25 26
ATOM     26  CB  VAL J 902     121.125  76.500 -21.386  1.00 25.73 LIG 0.01  C 
ATOM     27  CG1 VAL J 902     122.270  76.446 -22.358  1.00 28.26 LIG 0.01  C 
ATOM     28  CG2 VAL J 902     121.662  76.387 -19.965  1.00 25.58 LIG 0.01  C 
ENDBRANCH 25 26
BRANCH 25 29
ATOM     29  N   VAL J 902     121.247  78.923 -21.802  1.00 22.50 LIG-0.34  N 
ATOM     30  C   ALA J 901     121.075  79.721 -22.849  1.00 20.52 LIG 0.26  C 
ATOM     31 O    ALA J 901     120.122  79.621 -23.607  1.00 24.49 LIG-0.27  OA
ATOM     32 H    VAL J 902     121.889  78.998 -21.235  1.00 22.50 LIG 0.16  HD
BRANCH 30 33
ATOM     33  CA  ALA J 901     122.103  80.815 -23.072  1.00 20.76 LIG 0.40  C 
ATOM     34  CB  ALA J 901     121.631  82.121 -22.395  1.00 20.79 LIG 0.06  C 
ATOM     35  N   ALA J 901     122.250  80.993 -24.529  1.00 14.38 LIG 0.61  N 
ENDBRANCH 30 33
ENDBRANCH 25 29
ENDBRANCH 1 25
TORSDOF 11
ENDMDL
MODEL 10
USER: ADFR SOLUTION from run 36
USER: SCORE 13.477483 LL:  -2.873 LR: -10.802 RR:   0.000 FEB:  -7.520
USER: RMSD 4.374726
USER: SEED 35
USER: STATUS no improvement in best in 6 clusters for 5 generations
USER: GENES 13
USER: genes 0 Translation |==|  0.48207 0.58623 0.38419
USER: genes 1 Rotation |==|  0.27698 0.25305 0.69750 0.81665
USER: genes 2 Torsion [N]-CA--C-[N] |==|  0.75315
USER: genes 3 Torsion [C]-N--CA-[C] |==|  0.67398
USER: genes 4 Torsion [N]-CA--C-[N] |==|  0.41324
USER: genes 5 Torsion [C]-N--CA-[CB] |==|  0.19466
USER: genes 6 Torsion [N]-CA--C-[O] |==|  0.99156
USER: genes 7 Torsion [N]-CA--CB-[CG2] |==|  0.61224
USER: genes 8 Torsion [CA]-CB--CG1-[CD1] |==|  0.25202
USER: genes 9 Torsion [N]-C--CA-[N] |==|  0.46544
USER: genes 10 Torsion [C]-CA--CB-[CG1] |==|  0.96872
USER: genes 11 Torsion [C]-CA--N-[C] |==|  0.77814
USER: genes 12 Torsion [N]-C--CA-[N] |==|  0.49225
ROOT
ATOM      1  C   VAL J 902     119.116  78.045 -21.050  1.00 24.50 LIG 0.24  C 
ATOM      2 O    VAL J 902     118.516  79.118 -21.083  1.00 24.73 LIG-0.27  OA
ATOM      3  N   PRO J 903     118.465  76.873 -20.990  1.00 25.43 LIG-0.34  N 
ATOM      4  CA  PRO J 903     116.998  76.848 -20.950  1.00 29.14 LIG 0.18  C 
ATOM      5  CB  PRO J 903     116.665  75.369 -21.158  1.00 28.66 LIG 0.04  C 
ATOM      6  CG  PRO J 903     117.879  74.662 -20.653  1.00 26.54 LIG 0.02  C 
ATOM      7  CD  PRO J 903     119.009  75.515 -21.158  1.00 24.21 LIG 0.13  C 
ENDROOT
BRANCH 4 8
ATOM      8  C   PRO J 903     116.390  77.395 -19.662  1.00 32.58 LIG 0.24  C 
ATOM      9 O    PRO J 903     116.084  78.586 -19.556  1.00 31.49 LIG-0.27  OA
ATOM     10  N   ILE J 904     116.216  76.505 -18.690  1.00 35.09 LIG-0.35  N 
ATOM     11 H    ILE J 904     116.415  75.672 -18.766  1.00 35.09 LIG 0.16  HD
BRANCH 10 12
ATOM     12  CA  ILE J 904     115.665  76.868 -17.388  1.00 39.23 LIG 0.18  C 
BRANCH 12 13
ATOM     13  C   ILE J 904     116.732  76.595 -16.331  1.00 42.17 LIG 0.24  C 
ATOM     14 O    ILE J 904     117.540  75.677 -16.486  1.00 43.90 LIG-0.27  OA
ATOM     15  N   ALA J 905     116.735  77.382 -15.261  1.00 45.29 LIG-0.35  N 
ATOM     16 H    ALA J 905     116.181  78.026 -15.132  1.00 45.29 LIG 0.16  HD
BRANCH 15 17
ATOM     17  CA  ALA J 905     117.715  77.196 -14.193  1.00 47.78 LIG 0.16  C 
ATOM     18  CB  ALA J 905     119.107  77.603 -14.680  1.00 47.43 LIG 0.04  C 
BRANCH 17 19
ATOM     19  C   ALA J 905     117.333  78.006 -12.954  1.00 48.37 LIG 0.22  C 
ATOM     20 O    ALA J 905     116.342  78.743 -12.961  1.00 49.70 LIG-0.29  OA
ENDBRANCH 17 19
ENDBRANCH 15 17
ENDBRANCH 12 13
BRANCH 12 21
ATOM     21  CB  ILE J 904     114.441  76.005 -17.033  1.00 39.00 LIG 0.01  C 
ATOM     22  CG2 ILE J 904     113.374  76.868 -16.376  1.00 39.92 LIG 0.01  C 
BRANCH 21 23
ATOM     23  CG1 ILE J 904     113.890  75.323 -18.283  1.00 38.87 LIG 0.00  C 
ATOM     24  CD1 ILE J 904     114.497  73.962 -18.531  1.00 39.28 LIG 0.01  C 
ENDBRANCH 21 23
ENDBRANCH 12 21
ENDBRANCH 10 12
ENDBRANCH 4 8
BRANCH 1 25
ATOM     25  CA  VAL J 902     120.645  78.001 -21.086  1.00 23.95 LIG 0.18  C 
BRANCH 25 26
ATOM     26  CB  VAL J 902     121.202  77.526 -19.708  1.00 25.73 LIG 0.01  C 
ATOM     27  CG1 VAL J 902     120.119  77.511 -18.666  1.00 28.26 LIG 0.01  C 
ATOM     28  CG2 VAL J 902     121.788  76.128 -19.848  1.00 25.58 LIG 0.01  C 
ENDBRANCH 25 26
BRANCH 25 29
ATOM     29  N   VAL J 902     121.247  79.279 -21.437  1.00 22.50 LIG-0.34  N 
ATOM     30  C   ALA J 901     121.312  79.675 -22.702  1.00 20.52 LIG 0.26  C 
ATOM     31 O    ALA J 901     120.833  79.030 -23.622  1.00 24.49 LIG-0.27  OA
ATOM     32 H    VAL J 902     121.544  79.733 -20.770  1.00 22.50 LIG 0.16  HD
BRANCH 30 33
ATOM     33  CA  ALA J 901     121.988  81.004 -22.985  1.00 20.76 LIG 0.40  C 
ATOM     34  CB  ALA J 901     121.216  82.142 -22.281  1.00 20.79 LIG 0.06  C 
ATOM     35  N   ALA J 901     121.997  81.192 -24.448  1.00 14.38 LIG 0.61  N 
ENDBRANCH 30 33
ENDBRANCH 25 29
ENDBRANCH 1 25
TORSDOF 11
ENDMDL
MODEL 11
USER: ADFR SOLUTION from run 132
USER: SCORE 13.564472 LL:  -3.051 LR: -10.657 RR:   0.000 FEB:  -7.376
USER: RMSD 3.500109
USER: SEED 131
USER: STATUS no improvement in best in 3 clusters for 5 generations
USER: GENES 13
USER: genes 0 Translation |==|  0.51066 0.58989 0.41812
USER: genes 1 Rotation |==|  0.44385 0.39548 0.51961 0.98532
USER: genes 2 Torsion [N]-CA--C-[N] |==|  0.55678
USER: genes 3 Torsion [C]-N--CA-[C] |==|  0.79230
USER: genes 4 Torsion [N]-CA--C-[N] |==|  0.97222
USER: genes 5 Torsion [C]-N--CA-[CB] |==|  0.21740
USER: genes 6 Torsion [N]-CA--C-[O] |==|  0.07571
USER: genes 7 Torsion [N]-CA--CB-[CG2] |==|  0.71895
USER: genes 8 Torsion [CA]-CB--CG1-[CD1] |==|  0.20724
USER: genes 9 Torsion [N]-C--CA-[N] |==|  0.39650
USER: genes 10 Torsion [C]-CA--CB-[CG1] |==|  0.53581
USER: genes 11 Torsion [C]-CA--N-[C] |==|  0.70107
USER: genes 12 Torsion [N]-C--CA-[N] |==|  0.44677
ROOT
ATOM      1  C   VAL J 902     119.524  78.111 -20.312  1.00 24.50 LIG 0.24  C 
ATOM      2 O    VAL J 902     119.994  78.743 -19.367  1.00 24.73 LIG-0.27  OA
ATOM      3  N   PRO J 903     118.245  77.702 -20.322  1.00 25.43 LIG-0.34  N 
ATOM      4  CA  PRO J 903     117.371  77.994 -19.180  1.00 29.14 LIG 0.18  C 
ATOM      5  CB  PRO J 903     115.981  77.611 -19.693  1.00 28.66 LIG 0.04  C 
ATOM      6  CG  PRO J 903     116.265  76.586 -20.740  1.00 26.54 LIG 0.02  C 
ATOM      7  CD  PRO J 903     117.475  77.135 -21.441  1.00 24.21 LIG 0.13  C 
ENDROOT
BRANCH 4 8
ATOM      8  C   PRO J 903     117.732  77.249 -17.898  1.00 32.58 LIG 0.24  C 
ATOM      9 O    PRO J 903     118.862  76.781 -17.728  1.00 31.49 LIG-0.27  OA
ATOM     10  N   ILE J 904     116.756  77.152 -17.000  1.00 35.09 LIG-0.35  N 
ATOM     11 H    ILE J 904     115.973  77.489 -17.110  1.00 35.09 LIG 0.16  HD
BRANCH 10 12
ATOM     12  CA  ILE J 904     116.930  76.454 -15.730  1.00 39.23 LIG 0.18  C 
BRANCH 12 13
ATOM     13  C   ILE J 904     116.916  74.953 -16.010  1.00 42.17 LIG 0.24  C 
ATOM     14 O    ILE J 904     117.231  74.153 -15.127  1.00 43.90 LIG-0.27  OA
ATOM     15  N   ALA J 905     116.557  74.572 -17.231  1.00 45.29 LIG-0.35  N 
ATOM     16 H    ALA J 905     116.334  75.113 -17.861  1.00 45.29 LIG 0.16  HD
BRANCH 15 17
ATOM     17  CA  ALA J 905     116.516  73.158 -17.596  1.00 47.78 LIG 0.16  C 
ATOM     18  CB  ALA J 905     115.247  72.508 -17.042  1.00 47.43 LIG 0.04  C 
BRANCH 17 19
ATOM     19  C   ALA J 905     116.579  72.983 -19.114  1.00 48.37 LIG 0.22  C 
ATOM     20 O    ALA J 905     117.134  73.827 -19.825  1.00 49.70 LIG-0.29  OA
ENDBRANCH 17 19
ENDBRANCH 15 17
ENDBRANCH 12 13
BRANCH 12 21
ATOM     21  CB  ILE J 904     115.770  76.748 -14.762  1.00 39.00 LIG 0.01  C 
ATOM     22  CG2 ILE J 904     116.204  77.785 -13.737  1.00 39.92 LIG 0.01  C 
BRANCH 21 23
ATOM     23  CG1 ILE J 904     114.543  77.229 -15.531  1.00 38.87 LIG 0.00  C 
ATOM     24  CD1 ILE J 904     113.832  76.118 -16.267  1.00 39.28 LIG 0.01  C 
ENDBRANCH 21 23
ENDBRANCH 12 21
ENDBRANCH 10 12
ENDBRANCH 4 8
BRANCH 1 25
ATOM     25  CA  VAL J 902     120.382  77.770 -21.532  1.00 23.95 LIG 0.18  C 
BRANCH 25 26
ATOM     26  CB  VAL J 902     121.169  76.447 -21.284  1.00 25.73 LIG 0.01  C 
ATOM     27  CG1 VAL J 902     122.241  76.256 -22.319  1.00 28.26 LIG 0.01  C 
ATOM     28  CG2 VAL J 902     121.802  76.481 -19.899  1.00 25.58 LIG 0.01  C 
ENDBRANCH 25 26
BRANCH 25 29
ATOM     29  N   VAL J 902     121.315  78.829 -21.889  1.00 22.50 LIG-0.34  N 
ATOM     30  C   ALA J 901     121.117  79.575 -22.970  1.00 20.52 LIG 0.26  C 
ATOM     31 O    ALA J 901     120.133  79.455 -23.683  1.00 24.49 LIG-0.27  OA
ATOM     32 H    VAL J 902     121.981  78.919 -21.352  1.00 22.50 LIG 0.16  HD
BRANCH 30 33
ATOM     33  CA  ALA J 901     122.158  80.632 -23.290  1.00 20.76 LIG 0.40  C 
ATOM     34  CB  ALA J 901     121.952  81.860 -22.375  1.00 20.79 LIG 0.06  C 
ATOM     35  N   ALA J 901     121.997  80.993 -24.711  1.00 14.38 LIG 0.61  N 
ENDBRANCH 30 33
ENDBRANCH 25 29
ENDBRANCH 1 25
TORSDOF 11
ENDMDL
MODEL 12
USER: ADFR SOLUTION from run 188
USER: SCORE 13.297588 LL:  -3.021 LR: -10.473 RR:   0.000 FEB:  -7.192
USER: RMSD 3.254137
USER: SEED 187
USER: STATUS no improvement in best in 9 clusters for 5 generations
USER: GENES 13
USER: genes 0 Translation |==|  0.51151 0.59302 0.40965
USER: genes 1 Rotation |==|  0.47152 0.44888 0.55287 0.99374
USER: genes 2 Torsion [N]-CA--C-[N] |==|  0.25134
USER: genes 3 Torsion [C]-N--CA-[C] |==|  0.15805
USER: genes 4 Torsion [N]-CA--C-[N] |==|  0.11989
USER: genes 5 Torsion [C]-N--CA-[CB] |==|  0.34973
USER: genes 6 Torsion [N]-CA--C-[O] |==|  0.20615
USER: genes 7 Torsion [N]-CA--CB-[CG2] |==|  0.55329
USER: genes 8 Torsion [CA]-CB--CG1-[CD1] |==|  0.33706
USER: genes 9 Torsion [N]-C--CA-[N] |==|  0.45864
USER: genes 10 Torsion [C]-CA--CB-[CG1] |==|  0.33792
USER: genes 11 Torsion [C]-CA--N-[C] |==|  0.65760
USER: genes 12 Torsion [N]-C--CA-[N] |==|  0.36936
ROOT
ATOM      1  C   VAL J 902     119.536  78.167 -20.496  1.00 24.50 LIG 0.24  C 
ATOM      2 O    VAL J 902     120.138  78.800 -19.630  1.00 24.73 LIG-0.27  OA
ATOM      3  N   PRO J 903     118.348  77.591 -20.252  1.00 25.43 LIG-0.34  N 
ATOM      4  CA  PRO J 903     117.740  77.695 -18.920  1.00 29.14 LIG 0.18  C 
ATOM      5  CB  PRO J 903     116.323  77.160 -19.138  1.00 28.66 LIG 0.04  C 
ATOM      6  CG  PRO J 903     116.469  76.246 -20.309  1.00 26.54 LIG 0.02  C 
ATOM      7  CD  PRO J 903     117.407  76.993 -21.214  1.00 24.21 LIG 0.13  C 
ENDROOT
BRANCH 4 8
ATOM      8  C   PRO J 903     118.478  76.930 -17.826  1.00 32.58 LIG 0.24  C 
ATOM      9 O    PRO J 903     118.210  75.751 -17.578  1.00 31.49 LIG-0.27  OA
ATOM     10  N   ILE J 904     119.415  77.618 -17.180  1.00 35.09 LIG-0.35  N 
ATOM     11 H    ILE J 904     119.614  78.435 -17.360  1.00 35.09 LIG 0.16  HD
BRANCH 10 12
ATOM     12  CA  ILE J 904     120.199  77.041 -16.093  1.00 39.23 LIG 0.18  C 
BRANCH 12 13
ATOM     13  C   ILE J 904     120.893  75.790 -16.625  1.00 42.17 LIG 0.24  C 
ATOM     14 O    ILE J 904     120.930  74.763 -15.944  1.00 43.90 LIG-0.27  OA
ATOM     15  N   ALA J 905     121.444  75.873 -17.831  1.00 45.29 LIG-0.35  N 
ATOM     16 H    ALA J 905     121.430  76.579 -18.322  1.00 45.29 LIG 0.16  HD
BRANCH 15 17
ATOM     17  CA  ALA J 905     122.134  74.729 -18.423  1.00 47.78 LIG 0.16  C 
ATOM     18  CB  ALA J 905     121.552  74.421 -19.804  1.00 47.43 LIG 0.04  C 
BRANCH 17 19
ATOM     19  C   ALA J 905     123.636  74.993 -18.531  1.00 48.37 LIG 0.22  C 
ATOM     20 O    ALA J 905     124.357  74.964 -17.528  1.00 49.70 LIG-0.29  OA
ENDBRANCH 17 19
ENDBRANCH 15 17
ENDBRANCH 12 13
BRANCH 12 21
ATOM     21  CB  ILE J 904     119.303  76.602 -14.922  1.00 39.00 LIG 0.01  C 
ATOM     22  CG2 ILE J 904     120.139  76.458 -13.658  1.00 39.92 LIG 0.01  C 
BRANCH 21 23
ATOM     23  CG1 ILE J 904     118.173  77.606 -14.710  1.00 38.87 LIG 0.00  C 
ATOM     24  CD1 ILE J 904     116.800  76.987 -14.831  1.00 39.28 LIG 0.01  C 
ENDBRANCH 21 23
ENDBRANCH 12 21
ENDBRANCH 10 12
ENDBRANCH 4 8
BRANCH 1 25
ATOM     25  CA  VAL J 902     120.115  78.018 -21.904  1.00 23.95 LIG 0.18  C 
BRANCH 25 26
ATOM     26  CB  VAL J 902     120.605  76.555 -22.132  1.00 25.73 LIG 0.01  C 
ATOM     27  CG1 VAL J 902     119.906  75.930 -23.306  1.00 28.26 LIG 0.01  C 
ATOM     28  CG2 VAL J 902     122.108  76.552 -22.378  1.00 25.58 LIG 0.01  C 
ENDBRANCH 25 26
BRANCH 25 29
ATOM     29  N   VAL J 902     121.207  78.942 -22.174  1.00 22.50 LIG-0.34  N 
ATOM     30  C   ALA J 901     121.150  79.781 -23.202  1.00 20.52 LIG 0.26  C 
ATOM     31 O    ALA J 901     120.176  79.863 -23.934  1.00 24.49 LIG-0.27  OA
ATOM     32 H    VAL J 902     121.867  78.893 -21.624  1.00 22.50 LIG 0.16  HD
BRANCH 30 33
ATOM     33  CA  ALA J 901     122.347  80.685 -23.435  1.00 20.76 LIG 0.40  C 
ATOM     34  CB  ALA J 901     122.000  82.129 -23.009  1.00 20.79 LIG 0.06  C 
ATOM     35  N   ALA J 901     122.678  80.618 -24.871  1.00 14.38 LIG 0.61  N 
ENDBRANCH 30 33
ENDBRANCH 25 29
ENDBRANCH 1 25
TORSDOF 11
ENDMDL
MODEL 13
USER: ADFR SOLUTION from run 131
USER: SCORE 12.618183 LL:  -2.559 LR: -10.465 RR:   0.000 FEB:  -7.184
USER: RMSD 8.562218
USER: SEED 130
USER: STATUS no improvement in best in 9 clusters for 5 generations
USER: GENES 13
USER: genes 0 Translation |==|  0.37344 0.55888 0.47687
USER: genes 1 Rotation |==|  0.55087 0.91927 0.72241 0.64884
USER: genes 2 Torsion [N]-CA--C-[N] |==|  0.52281
USER: genes 3 Torsion [C]-N--CA-[C] |==|  0.78247
USER: genes 4 Torsion [N]-CA--C-[N] |==|  0.86915
USER: genes 5 Torsion [C]-N--CA-[CB] |==|  0.82594
USER: genes 6 Torsion [N]-CA--C-[O] |==|  0.10101
USER: genes 7 Torsion [N]-CA--CB-[CG2] |==|  0.54905
USER: genes 8 Torsion [CA]-CB--CG1-[CD1] |==|  0.75283
USER: genes 9 Torsion [N]-C--CA-[N] |==|  0.28333
USER: genes 10 Torsion [C]-CA--CB-[CG1] |==|  0.46150
USER: genes 11 Torsion [C]-CA--N-[C] |==|  0.74174
USER: genes 12 Torsion [N]-C--CA-[N] |==|  0.75065
ROOT
ATOM      1  C   VAL J 902     117.568  77.553 -19.034  1.00 24.50 LIG 0.24  C 
ATOM      2 O    VAL J 902     117.282  78.686 -19.417  1.00 24.73 LIG-0.27  OA
ATOM      3  N   PRO J 903     118.837  77.115 -19.013  1.00 25.43 LIG-0.34  N 
ATOM      4  CA  PRO J 903     119.925  77.990 -19.467  1.00 29.14 LIG 0.18  C 
ATOM      5  CB  PRO J 903     121.185  77.236 -19.036  1.00 28.66 LIG 0.04  C 
ATOM      6  CG  PRO J 903     120.746  75.811 -18.997  1.00 26.54 LIG 0.02  C 
ATOM      7  CD  PRO J 903     119.372  75.890 -18.394  1.00 24.21 LIG 0.13  C 
ENDROOT
BRANCH 4 8
ATOM      8  C   PRO J 903     119.919  78.284 -20.964  1.00 32.58 LIG 0.24  C 
ATOM      9 O    PRO J 903     118.973  77.940 -21.679  1.00 31.49 LIG-0.27  OA
ATOM     10  N   ILE J 904     120.985  78.931 -21.423  1.00 35.09 LIG-0.35  N 
ATOM     11 H    ILE J 904     121.639  79.185 -20.925  1.00 35.09 LIG 0.16  HD
BRANCH 10 12
ATOM     12  CA  ILE J 904     121.146  79.272 -22.833  1.00 39.23 LIG 0.18  C 
BRANCH 12 13
ATOM     13  C   ILE J 904     121.593  78.015 -23.575  1.00 42.17 LIG 0.24  C 
ATOM     14 O    ILE J 904     121.043  77.685 -24.627  1.00 43.90 LIG-0.27  OA
ATOM     15  N   ALA J 905     122.583  77.316 -23.031  1.00 45.29 LIG-0.35  N 
ATOM     16 H    ALA J 905     122.981  77.528 -22.299  1.00 45.29 LIG 0.16  HD
BRANCH 15 17
ATOM     17  CA  ALA J 905     123.079  76.096 -23.665  1.00 47.78 LIG 0.16  C 
ATOM     18  CB  ALA J 905     121.971  75.044 -23.721  1.00 47.43 LIG 0.04  C 
BRANCH 17 19
ATOM     19  C   ALA J 905     123.602  76.386 -25.073  1.00 48.37 LIG 0.22  C 
ATOM     20 O    ALA J 905     124.193  77.442 -25.322  1.00 49.70 LIG-0.29  OA
ENDBRANCH 17 19
ENDBRANCH 15 17
ENDBRANCH 12 13
BRANCH 12 21
ATOM     21  CB  ILE J 904     122.240  80.335 -23.036  1.00 39.00 LIG 0.01  C 
ATOM     22  CG2 ILE J 904     122.088  80.976 -24.407  1.00 39.92 LIG 0.01  C 
BRANCH 21 23
ATOM     23  CG1 ILE J 904     122.168  81.391 -21.935  1.00 38.87 LIG 0.00  C 
ATOM     24  CD1 ILE J 904     121.247  82.539 -22.276  1.00 39.28 LIG 0.01  C 
ENDBRANCH 21 23
ENDBRANCH 12 21
ENDBRANCH 10 12
ENDBRANCH 4 8
BRANCH 1 25
ATOM     25  CA  VAL J 902     116.483  76.590 -18.551  1.00 23.95 LIG 0.18  C 
BRANCH 25 26
ATOM     26  CB  VAL J 902     115.270  76.611 -19.531  1.00 25.73 LIG 0.01  C 
ATOM     27  CG1 VAL J 902     114.350  75.450 -19.275  1.00 28.26 LIG 0.01  C 
ATOM     28  CG2 VAL J 902     114.499  77.914 -19.362  1.00 25.58 LIG 0.01  C 
ENDBRANCH 25 26
BRANCH 25 29
ATOM     29  N   VAL J 902     116.020  76.879 -17.202  1.00 22.50 LIG-0.34  N 
ATOM     30  C   ALA J 901     116.567  76.278 -16.151  1.00 20.52 LIG 0.26  C 
ATOM     31 O    ALA J 901     117.506  75.504 -16.249  1.00 24.49 LIG-0.27  OA
ATOM     32 H    VAL J 902     115.383  77.455 -17.154  1.00 22.50 LIG 0.16  HD
BRANCH 30 33
ATOM     33  CA  ALA J 901     116.001  76.610 -14.782  1.00 20.76 LIG 0.40  C 
ATOM     34  CB  ALA J 901     114.495  76.933 -14.905  1.00 20.79 LIG 0.06  C 
ATOM     35  N   ALA J 901     116.754  77.767 -14.262  1.00 14.38 LIG 0.61  N 
ENDBRANCH 30 33
ENDBRANCH 25 29
ENDBRANCH 1 25
TORSDOF 11
ENDMDL
