MODEL 1
USER: ADFR SOLUTION from run 192
USER: SCORE 16.973915 LL:  -3.587 LR: -14.496 RR:   0.000 FEB:  -9.724
USER: RMSD 2.167712
USER: SEED 191
USER: STATUS no improvement in best in 8 clusters for 5 generations
USER: GENES 18
USER: genes 0 Translation |==|  0.42806 0.47209 0.49712
USER: genes 1 Rotation |==|  0.48607 0.49441 0.53552 0.99851
USER: genes 2 Torsion [C]-N--CA-[C] |==|  0.60736
USER: genes 3 Torsion [N]-CA--C-[N] |==|  0.92590
USER: genes 4 Torsion [C]-N--CA-[C] |==|  0.22055
USER: genes 5 Torsion [N]-CA--C-[O] |==|  0.43852
USER: genes 6 Torsion [N]-CA--CB-[CG] |==|  0.75835
USER: genes 7 Torsion [CA]-CB--CG-[CD1] |==|  0.91419
USER: genes 8 Torsion [N]-CA--CB-[CG] |==|  0.80146
USER: genes 9 Torsion [CA]-CB--CG-[OD1] |==|  0.76820
USER: genes 10 Torsion [N]-C--CA-[N] |==|  0.31216
USER: genes 11 Torsion [C]-CA--N-[C] |==|  0.56244
USER: genes 12 Torsion [N]-C--CA-[N] |==|  0.11388
USER: genes 13 Torsion [C]-CA--CB-[OG] |==|  0.47099
USER: genes 14 Torsion [CA]-CB--OG-[HG] |==|  0.71892
USER: genes 15 Torsion [C]-CA--N-[C] |==|  0.17222
USER: genes 16 Torsion [C]-CA--CB-[CG] |==|  0.21650
USER: genes 17 Torsion [CA]-CB--CG-[CD2] |==|  0.07383
ROOT
ATOM      1  C   LEU I   2       2.647   3.028  10.408  1.00 17.40 LIG 0.24  C 
ATOM      2 O    LEU I   2       2.236   3.919  11.127  1.00 17.46 LIG-0.27  OA
ATOM      3  N   ASN I   3       2.790   1.771  10.785  1.00 16.24 LIG-0.35  N 
ATOM      4 H    ASN I   3       3.154   1.164  10.296  1.00 16.24 LIG 0.16  HD
ENDROOT
BRANCH 3 5
ATOM      5  CA  ASN I   3       2.339   1.306  12.070  1.00 15.86 LIG 0.18  C 
BRANCH 5 6
ATOM      6  C   ASN I   3       3.335   0.311  12.628  1.00 15.05 LIG 0.24  C 
ATOM      7  N   PHE I   4       4.050  -0.346  11.705  1.00 14.49 LIG-0.34  N 
ATOM      8 H    PHE I   4       3.950  -0.232  10.858  1.00 14.49 LIG 0.16  HD
ATOM      9 O    ASN I   3       3.422   0.138  13.868  1.00 16.10 LIG-0.27  OA
BRANCH 7 10
ATOM     10  CA  PHE I   4       5.073  -1.326  12.057  1.00 12.92 LIG 0.19  C 
BRANCH 10 11
ATOM     11  C   PHE I   4       4.396  -2.628  12.405  1.00 14.32 LIG 0.20  C 
ATOM     12 OXT  PHE I   4       3.198  -2.600  12.645  1.00 16.91 LIG-0.65  OA
ATOM     13 O    PHE I   4       5.012  -3.694  12.341  1.00 15.04 LIG-0.65  OA
ENDBRANCH 10 11
BRANCH 10 14
ATOM     14  CB  PHE I   4       5.888  -0.819  13.234  1.00 13.46 LIG 0.07  C 
BRANCH 14 15
ATOM     15  CG  PHE I   4       7.032   0.040  12.758  1.00 17.43 LIG-0.06  A 
ATOM     16  CD1 PHE I   4       7.622  -0.222  11.513  1.00 19.70 LIG 0.01  A 
ATOM     17  CE1 PHE I   4       8.657   0.579  11.064  1.00 18.46 LIG 0.00  A 
ATOM     18  CZ  PHE I   4       9.105   1.635  11.847  1.00 20.27 LIG 0.00  A 
ATOM     19  CE2 PHE I   4       8.526   1.904  13.085  1.00 19.92 LIG 0.00  A 
ATOM     20  CD2 PHE I   4       7.482   1.103  13.551  1.00 19.48 LIG 0.01  A 
ENDBRANCH 14 15
ENDBRANCH 10 14
ENDBRANCH 7 10
ENDBRANCH 5 6
BRANCH 5 21
ATOM     21  CB  ASN I   3       0.973   0.661  11.890  1.00 15.02 LIG 0.14  C 
BRANCH 21 22
ATOM     22  CG  ASN I   3      -0.064   1.745  11.608  1.00 21.09 LIG 0.22  C 
ATOM     23  ND2 ASN I   3      -0.321   2.100  10.359  1.00 19.37 LIG-0.37  N 
ATOM     24 22HD ASN I   3       0.039   1.671   9.707  1.00 19.37 LIG 0.16  HD
ATOM     25 21HD ASN I   3      -0.849   2.760  10.199  1.00 19.37 LIG 0.16  HD
ATOM     26 OD1  ASN I   3      -0.601   2.385  12.509  1.00 22.58 LIG-0.27  OA
ENDBRANCH 21 22
ENDBRANCH 5 21
ENDBRANCH 3 5
BRANCH 1 27
ATOM     27  CA  LEU I   2       2.954   3.343   9.002  1.00 19.34 LIG 0.18  C 
BRANCH 27 28
ATOM     28  N   LEU I   2       1.679   3.696   8.419  1.00 20.62 LIG-0.35  N 
ATOM     29 H    LEU I   2       1.076   3.959   8.972  1.00 20.62 LIG 0.16  HD
ATOM     30  C   SER I   1       1.525   3.597   7.102  1.00 28.29 LIG 0.24  C 
ATOM     31 O    SER I   1       2.418   3.135   6.357  1.00 21.19 LIG-0.27  OA
BRANCH 30 32
ATOM     32  CA  SER I   1       0.201   4.148   6.586  1.00 32.71 LIG 0.20  C 
BRANCH 32 33
ATOM     33  CB  SER I   1       0.360   4.390   5.112  1.00 35.86 LIG 0.20  C 
BRANCH 33 34
ATOM     34 OG   SER I   1      -0.987   4.634   4.818  1.00 39.84 LIG-0.40  OA
ATOM     35 HG   SER I   1      -1.328   3.947   4.475  1.00 39.84 LIG 0.21  HD
ENDBRANCH 33 34
ENDBRANCH 32 33
BRANCH 32 36
ATOM     36  N   SER I   1       0.054   5.363   7.381  1.00 41.50 LIG-0.35  N 
ATOM     37  C   ACE I   0       0.823   6.468   7.448  1.00 42.61 LIG 0.21  C 
ATOM     38 O    ACE I   0       1.817   6.711   6.763  0.00 41.61 LIG-0.27  OA
ATOM     39  CH3 ACE I   0       0.311   7.489   8.452  0.00 41.50 LIG 0.12  C 
ATOM     40 H    SER I   1      -0.654   5.313   7.867  1.00 41.50 LIG 0.16  HD
ENDBRANCH 32 36
ENDBRANCH 30 32
ENDBRANCH 27 28
BRANCH 27 41
ATOM     41  CB  LEU I   2       3.917   4.478   8.935  1.00 22.58 LIG 0.04  C 
BRANCH 41 42
ATOM     42  CG  LEU I   2       5.338   3.991   9.243  1.00 27.49 LIG-0.02  C 
ATOM     43  CD2 LEU I   2       5.502   2.504   8.886  1.00 25.10 LIG 0.01  C 
ATOM     44  CD1 LEU I   2       5.629   4.294  10.697  1.00 31.16 LIG 0.01  C 
ENDBRANCH 41 42
ENDBRANCH 27 41
ENDBRANCH 1 27
TORSDOF 16
ENDMDL
MODEL 2
USER: ADFR SOLUTION from run 19
USER: SCORE 15.549718 LL:  -3.156 LR: -14.101 RR:   0.000 FEB:  -9.329
USER: RMSD 3.370798
USER: SEED 18
USER: STATUS no improvement in best in 9 clusters for 5 generations
USER: GENES 18
USER: genes 0 Translation |==|  0.44727 0.47782 0.49480
USER: genes 1 Rotation |==|  0.47033 0.51031 0.53292 0.99793
USER: genes 2 Torsion [C]-N--CA-[C] |==|  0.61982
USER: genes 3 Torsion [N]-CA--C-[N] |==|  0.71504
USER: genes 4 Torsion [C]-N--CA-[C] |==|  0.55056
USER: genes 5 Torsion [N]-CA--C-[O] |==|  0.78904
USER: genes 6 Torsion [N]-CA--CB-[CG] |==|  0.56346
USER: genes 7 Torsion [CA]-CB--CG-[CD1] |==|  0.09764
USER: genes 8 Torsion [N]-CA--CB-[CG] |==|  0.79172
USER: genes 9 Torsion [CA]-CB--CG-[OD1] |==|  0.75807
USER: genes 10 Torsion [N]-C--CA-[N] |==|  0.30365
USER: genes 11 Torsion [C]-CA--N-[C] |==|  0.54574
USER: genes 12 Torsion [N]-C--CA-[N] |==|  0.10965
USER: genes 13 Torsion [C]-CA--CB-[OG] |==|  0.45803
USER: genes 14 Torsion [CA]-CB--OG-[HG] |==|  0.58092
USER: genes 15 Torsion [C]-CA--N-[C] |==|  0.19444
USER: genes 16 Torsion [C]-CA--CB-[CG] |==|  0.22100
USER: genes 17 Torsion [CA]-CB--CG-[CD2] |==|  0.07475
ROOT
ATOM      1  C   LEU I   2       2.978   3.127  10.361  1.00 17.40 LIG 0.24  C 
ATOM      2 O    LEU I   2       2.620   4.070  11.041  1.00 17.46 LIG-0.27  OA
ATOM      3  N   ASN I   3       3.129   1.897  10.813  1.00 16.24 LIG-0.35  N 
ATOM      4 H    ASN I   3       3.458   1.252  10.346  1.00 16.24 LIG 0.16  HD
ENDROOT
BRANCH 3 5
ATOM      5  CA  ASN I   3       2.750   1.524  12.150  1.00 15.86 LIG 0.18  C 
BRANCH 5 6
ATOM      6  C   ASN I   3       3.823   0.642  12.756  1.00 15.05 LIG 0.24  C 
ATOM      7  N   PHE I   4       3.527  -0.664  12.780  1.00 14.49 LIG-0.34  N 
ATOM      8 H    PHE I   4       2.785  -0.988  12.491  1.00 14.49 LIG 0.16  HD
ATOM      9 O    ASN I   3       4.875   1.155  13.209  1.00 16.10 LIG-0.27  OA
BRANCH 7 10
ATOM     10  CA  PHE I   4       4.450  -1.667  13.306  1.00 12.92 LIG 0.19  C 
BRANCH 10 11
ATOM     11  C   PHE I   4       4.034  -3.022  12.792  1.00 14.32 LIG 0.20  C 
ATOM     12 OXT  PHE I   4       4.755  -3.562  11.966  1.00 16.91 LIG-0.65  OA
ATOM     13 O    PHE I   4       3.060  -3.606  13.271  1.00 15.04 LIG-0.65  OA
ENDBRANCH 10 11
BRANCH 10 14
ATOM     14  CB  PHE I   4       4.425  -1.643  14.824  1.00 13.46 LIG 0.07  C 
BRANCH 14 15
ATOM     15  CG  PHE I   4       5.700  -2.220  15.385  1.00 17.43 LIG-0.06  A 
ATOM     16  CD1 PHE I   4       6.911  -2.006  14.712  1.00 19.70 LIG 0.01  A 
ATOM     17  CE1 PHE I   4       8.086  -2.515  15.237  1.00 18.46 LIG 0.00  A 
ATOM     18  CZ  PHE I   4       8.059  -3.234  16.425  1.00 20.27 LIG 0.00  A 
ATOM     19  CE2 PHE I   4       6.861  -3.452  17.103  1.00 19.92 LIG 0.00  A 
ATOM     20  CD2 PHE I   4       5.669  -2.945  16.583  1.00 19.48 LIG 0.01  A 
ENDBRANCH 14 15
ENDBRANCH 10 14
ENDBRANCH 7 10
ENDBRANCH 5 6
BRANCH 5 21
ATOM     21  CB  ASN I   3       1.421   0.789  12.081  1.00 15.02 LIG 0.14  C 
BRANCH 21 22
ATOM     22  CG  ASN I   3       0.300   1.795  11.831  1.00 21.09 LIG 0.22  C 
ATOM     23  ND2 ASN I   3      -0.008   2.140  10.590  1.00 19.37 LIG-0.37  N 
ATOM     24 22HD ASN I   3       0.370   1.746   9.927  1.00 19.37 LIG 0.16  HD
ATOM     25 21HD ASN I   3      -0.587   2.760  10.448  1.00 19.37 LIG 0.16  HD
ATOM     26 OD1  ASN I   3      -0.265   2.385  12.749  1.00 22.58 LIG-0.27  OA
ENDBRANCH 21 22
ENDBRANCH 5 21
ENDBRANCH 3 5
BRANCH 1 27
ATOM     27  CA  LEU I   2       3.206   3.343   8.922  1.00 19.34 LIG 0.18  C 
BRANCH 27 28
ATOM     28  N   LEU I   2       1.891   3.602   8.378  1.00 20.62 LIG-0.35  N 
ATOM     29 H    LEU I   2       1.284   3.807   8.952  1.00 20.62 LIG 0.16  HD
ATOM     30  C   SER I   1       1.709   3.512   7.065  1.00 28.29 LIG 0.24  C 
ATOM     31 O    SER I   1       2.616   3.135   6.288  1.00 21.19 LIG-0.27  OA
BRANCH 30 32
ATOM     32  CA  SER I   1       0.332   3.964   6.593  1.00 32.71 LIG 0.20  C 
BRANCH 32 33
ATOM     33  CB  SER I   1       0.439   4.277   5.128  1.00 35.86 LIG 0.20  C 
BRANCH 33 34
ATOM     34 OG   SER I   1      -0.931   4.302   4.842  1.00 39.84 LIG-0.40  OA
ATOM     35 HG   SER I   1      -1.054   4.074   4.043  1.00 39.84 LIG 0.21  HD
ENDBRANCH 33 34
ENDBRANCH 32 33
BRANCH 32 36
ATOM     36  N   SER I   1       0.094   5.128   7.440  1.00 41.50 LIG-0.35  N 
ATOM     37  C   ACE I   0       0.673   6.345   7.444  1.00 42.61 LIG 0.21  C 
ATOM     38 O    ACE I   0       1.514   6.759   6.644  0.00 41.61 LIG-0.27  OA
ATOM     39  CH3 ACE I   0       0.138   7.255   8.538  0.00 41.50 LIG 0.12  C 
ATOM     40 H    SER I   1      -0.525   4.955   8.011  1.00 41.50 LIG 0.16  HD
ENDBRANCH 32 36
ENDBRANCH 30 32
ENDBRANCH 27 28
BRANCH 27 41
ATOM     41  CB  LEU I   2       4.117   4.504   8.720  1.00 22.58 LIG 0.04  C 
BRANCH 41 42
ATOM     42  CG  LEU I   2       5.574   4.085   8.953  1.00 27.49 LIG-0.02  C 
ATOM     43  CD2 LEU I   2       5.771   2.588   8.664  1.00 25.10 LIG 0.01  C 
ATOM     44  CD1 LEU I   2       5.950   4.478  10.365  1.00 31.16 LIG 0.01  C 
ENDBRANCH 41 42
ENDBRANCH 27 41
ENDBRANCH 1 27
TORSDOF 16
ENDMDL
MODEL 3
USER: ADFR SOLUTION from run 106
USER: SCORE 16.306661 LL:  -2.893 LR: -14.023 RR:   0.000 FEB:  -9.250
USER: RMSD 3.366832
USER: SEED 105
USER: STATUS no improvement in best in 14 clusters for 5 generations
USER: GENES 18
USER: genes 0 Translation |==|  0.47999 0.47008 0.51126
USER: genes 1 Rotation |==|  0.50720 0.42963 0.48135 0.99462
USER: genes 2 Torsion [C]-N--CA-[C] |==|  0.62836
USER: genes 3 Torsion [N]-CA--C-[N] |==|  0.96363
USER: genes 4 Torsion [C]-N--CA-[C] |==|  0.21876
USER: genes 5 Torsion [N]-CA--C-[O] |==|  0.88207
USER: genes 6 Torsion [N]-CA--CB-[CG] |==|  0.55885
USER: genes 7 Torsion [CA]-CB--CG-[CD1] |==|  0.58695
USER: genes 8 Torsion [N]-CA--CB-[CG] |==|  0.76093
USER: genes 9 Torsion [CA]-CB--CG-[OD1] |==|  0.83364
USER: genes 10 Torsion [N]-C--CA-[N] |==|  0.35974
USER: genes 11 Torsion [C]-CA--N-[C] |==|  0.73498
USER: genes 12 Torsion [N]-C--CA-[N] |==|  0.44207
USER: genes 13 Torsion [C]-CA--CB-[OG] |==|  0.37141
USER: genes 14 Torsion [CA]-CB--OG-[HG] |==|  0.79088
USER: genes 15 Torsion [C]-CA--N-[C] |==|  0.81783
USER: genes 16 Torsion [C]-CA--CB-[CG] |==|  0.02900
USER: genes 17 Torsion [CA]-CB--CG-[CD2] |==|  0.65888
ROOT
ATOM      1  C   LEU I   2       3.543   2.994  10.694  1.00 17.40 LIG 0.24  C 
ATOM      2 O    LEU I   2       3.133   3.895  11.401  1.00 17.46 LIG-0.27  OA
ATOM      3  N   ASN I   3       3.338   1.711  10.928  1.00 16.24 LIG-0.35  N 
ATOM      4 H    ASN I   3       3.697   1.078  10.469  1.00 16.24 LIG 0.16  HD
ENDROOT
BRANCH 3 5
ATOM      5  CA  ASN I   3       2.483   1.258  11.992  1.00 15.86 LIG 0.18  C 
BRANCH 5 6
ATOM      6  C   ASN I   3       3.172   0.149  12.762  1.00 15.05 LIG 0.24  C 
ATOM      7  N   PHE I   4       4.255  -0.361  12.162  1.00 14.49 LIG-0.34  N 
ATOM      8 H    PHE I   4       4.540  -0.099  11.393  1.00 14.49 LIG 0.16  HD
ATOM      9 O    ASN I   3       2.702  -0.239  13.859  1.00 16.10 LIG-0.27  OA
BRANCH 7 10
ATOM     10  CA  PHE I   4       5.060  -1.419  12.764  1.00 12.92 LIG 0.19  C 
BRANCH 10 11
ATOM     11  C   PHE I   4       4.357  -2.738  12.559  1.00 14.32 LIG 0.20  C 
ATOM     12 OXT  PHE I   4       5.047  -3.722  12.340  1.00 16.91 LIG-0.65  OA
ATOM     13 O    PHE I   4       3.138  -2.832  12.716  1.00 15.04 LIG-0.65  OA
ENDBRANCH 10 11
BRANCH 10 14
ATOM     14  CB  PHE I   4       5.249  -1.142  14.245  1.00 13.46 LIG 0.07  C 
BRANCH 14 15
ATOM     15  CG  PHE I   4       6.452  -1.882  14.776  1.00 17.43 LIG-0.06  A 
ATOM     16  CD1 PHE I   4       6.461  -2.322  16.107  1.00 19.70 LIG 0.01  A 
ATOM     17  CE1 PHE I   4       7.553  -3.021  16.590  1.00 18.46 LIG 0.00  A 
ATOM     18  CZ  PHE I   4       8.632  -3.282  15.755  1.00 20.27 LIG 0.00  A 
ATOM     19  CE2 PHE I   4       8.633  -2.850  14.430  1.00 19.92 LIG 0.00  A 
ATOM     20  CD2 PHE I   4       7.538  -2.142  13.931  1.00 19.48 LIG 0.01  A 
ENDBRANCH 14 15
ENDBRANCH 10 14
ENDBRANCH 7 10
ENDBRANCH 5 6
BRANCH 5 21
ATOM     21  CB  ASN I   3       1.182   0.762  11.379  1.00 15.02 LIG 0.14  C 
BRANCH 21 22
ATOM     22  CG  ASN I   3       0.228   1.941  11.200  1.00 21.09 LIG 0.22  C 
ATOM     23  ND2 ASN I   3      -0.118   2.327   9.982  1.00 19.37 LIG-0.37  N 
ATOM     24 22HD ASN I   3       0.135   1.872   9.298  1.00 19.37 LIG 0.16  HD
ATOM     25 21HD ASN I   3      -0.595   3.034   9.874  1.00 19.37 LIG 0.16  HD
ATOM     26 OD1  ASN I   3      -0.155   2.621  12.149  1.00 22.58 LIG-0.27  OA
ENDBRANCH 21 22
ENDBRANCH 5 21
ENDBRANCH 3 5
BRANCH 1 27
ATOM     27  CA  LEU I   2       4.266   3.341   9.459  1.00 19.34 LIG 0.18  C 
BRANCH 27 28
ATOM     28  N   LEU I   2       3.442   4.342   8.821  1.00 20.62 LIG-0.35  N 
ATOM     29 H    LEU I   2       3.562   5.151   9.089  1.00 20.62 LIG 0.16  HD
ATOM     30  C   SER I   1       2.576   3.963   7.886  1.00 28.29 LIG 0.24  C 
ATOM     31 O    SER I   1       2.394   2.760   7.593  1.00 21.19 LIG-0.27  OA
BRANCH 30 32
ATOM     32  CA  SER I   1       1.882   5.117   7.172  1.00 32.71 LIG 0.20  C 
BRANCH 32 33
ATOM     33  CB  SER I   1       0.767   5.590   8.060  1.00 35.86 LIG 0.20  C 
BRANCH 33 34
ATOM     34 OG   SER I   1       1.021   6.963   7.962  1.00 39.84 LIG-0.40  OA
ATOM     35 HG   SER I   1       1.693   7.158   8.428  1.00 39.84 LIG 0.21  HD
ENDBRANCH 33 34
ENDBRANCH 32 33
BRANCH 32 36
ATOM     36  N   SER I   1       1.438   4.479   5.938  1.00 41.50 LIG-0.35  N 
ATOM     37  C   ACE I   0       2.143   3.960   4.913  1.00 42.61 LIG 0.21  C 
ATOM     38 O    ACE I   0       3.369   3.855   4.846  0.00 41.61 LIG-0.27  OA
ATOM     39  CH3 ACE I   0       1.263   3.421   3.797  0.00 41.50 LIG 0.12  C 
ATOM     40 H    SER I   1       0.579   4.457   5.910  1.00 41.50 LIG 0.16  HD
ENDBRANCH 32 36
ENDBRANCH 30 32
ENDBRANCH 27 28
BRANCH 27 41
ATOM     41  CB  LEU I   2       5.614   3.878   9.795  1.00 22.58 LIG 0.04  C 
BRANCH 41 42
ATOM     42  CG  LEU I   2       5.920   3.660  11.282  1.00 27.49 LIG-0.02  C 
ATOM     43  CD2 LEU I   2       6.232   4.992  11.983  1.00 25.10 LIG 0.01  C 
ATOM     44  CD1 LEU I   2       7.045   2.653  11.381  1.00 31.16 LIG 0.01  C 
ENDBRANCH 41 42
ENDBRANCH 27 41
ENDBRANCH 1 27
TORSDOF 16
ENDMDL
MODEL 4
USER: ADFR SOLUTION from run 156
USER: SCORE 15.669463 LL:  -2.894 LR: -13.657 RR:   0.000 FEB:  -8.885
USER: RMSD 4.355456
USER: SEED 155
USER: STATUS no improvement in best in 9 clusters for 5 generations
USER: GENES 18
USER: genes 0 Translation |==|  0.47122 0.45609 0.51662
USER: genes 1 Rotation |==|  0.53663 0.41023 0.50173 0.99051
USER: genes 2 Torsion [C]-N--CA-[C] |==|  0.57239
USER: genes 3 Torsion [N]-CA--C-[N] |==|  0.27676
USER: genes 4 Torsion [C]-N--CA-[C] |==|  0.15631
USER: genes 5 Torsion [N]-CA--C-[O] |==|  0.15036
USER: genes 6 Torsion [N]-CA--CB-[CG] |==|  0.63322
USER: genes 7 Torsion [CA]-CB--CG-[CD1] |==|  0.28412
USER: genes 8 Torsion [N]-CA--CB-[CG] |==|  0.79766
USER: genes 9 Torsion [CA]-CB--CG-[OD1] |==|  0.83387
USER: genes 10 Torsion [N]-C--CA-[N] |==|  0.35600
USER: genes 11 Torsion [C]-CA--N-[C] |==|  0.71426
USER: genes 12 Torsion [N]-C--CA-[N] |==|  0.50064
USER: genes 13 Torsion [C]-CA--CB-[OG] |==|  0.64291
USER: genes 14 Torsion [CA]-CB--OG-[HG] |==|  0.45522
USER: genes 15 Torsion [C]-CA--N-[C] |==|  0.76941
USER: genes 16 Torsion [C]-CA--CB-[CG] |==|  0.23806
USER: genes 17 Torsion [CA]-CB--CG-[CD2] |==|  0.04615
ROOT
ATOM      1  C   LEU I   2       3.392   2.753  10.803  1.00 17.40 LIG 0.24  C 
ATOM      2 O    LEU I   2       2.839   3.532  11.555  1.00 17.46 LIG-0.27  OA
ATOM      3  N   ASN I   3       3.298   1.439  10.891  1.00 16.24 LIG-0.35  N 
ATOM      4 H    ASN I   3       3.753   0.893  10.405  1.00 16.24 LIG 0.16  HD
ENDROOT
BRANCH 3 5
ATOM      5  CA  ASN I   3       2.410   0.799  11.825  1.00 15.86 LIG 0.18  C 
BRANCH 5 6
ATOM      6  C   ASN I   3       2.938  -0.579  12.167  1.00 15.05 LIG 0.24  C 
ATOM      7  N   PHE I   4       3.599  -0.653  13.330  1.00 14.49 LIG-0.34  N 
ATOM      8 H    PHE I   4       3.733   0.023  13.844  1.00 14.49 LIG 0.16  HD
ATOM      9 O    ASN I   3       2.763  -1.534  11.371  1.00 16.10 LIG-0.27  OA
BRANCH 7 10
ATOM     10  CA  PHE I   4       4.158  -1.904  13.835  1.00 12.92 LIG 0.19  C 
BRANCH 10 11
ATOM     11  C   PHE I   4       5.093  -2.470  12.795  1.00 14.32 LIG 0.20  C 
ATOM     12 OXT  PHE I   4       4.839  -3.578  12.346  1.00 16.91 LIG-0.65  OA
ATOM     13 O    PHE I   4       6.015  -1.790  12.341  1.00 15.04 LIG-0.65  OA
ENDBRANCH 10 11
BRANCH 10 14
ATOM     14  CB  PHE I   4       3.038  -2.885  14.134  1.00 13.46 LIG 0.07  C 
BRANCH 14 15
ATOM     15  CG  PHE I   4       3.221  -3.501  15.498  1.00 17.43 LIG-0.06  A 
ATOM     16  CD1 PHE I   4       2.446  -3.043  16.573  1.00 19.70 LIG 0.01  A 
ATOM     17  CE1 PHE I   4       2.596  -3.622  17.821  1.00 18.46 LIG 0.00  A 
ATOM     18  CZ  PHE I   4       3.511  -4.652  18.001  1.00 20.27 LIG 0.00  A 
ATOM     19  CE2 PHE I   4       4.285  -5.115  16.940  1.00 19.92 LIG 0.00  A 
ATOM     20  CD2 PHE I   4       4.145  -4.539  15.676  1.00 19.48 LIG 0.01  A 
ENDBRANCH 14 15
ENDBRANCH 10 14
ENDBRANCH 7 10
ENDBRANCH 5 6
BRANCH 5 21
ATOM     21  CB  ASN I   3       1.033   0.707  11.186  1.00 15.02 LIG 0.14  C 
BRANCH 21 22
ATOM     22  CG  ASN I   3       0.397   2.095  11.153  1.00 21.09 LIG 0.22  C 
ATOM     23  ND2 ASN I   3       0.166   2.685   9.990  1.00 19.37 LIG-0.37  N 
ATOM     24 22HD ASN I   3       0.305   2.258   9.257  1.00 19.37 LIG 0.16  HD
ATOM     25 21HD ASN I   3      -0.122   3.494   9.969  1.00 19.37 LIG 0.16  HD
ATOM     26 OD1  ASN I   3       0.186   2.741  12.177  1.00 22.58 LIG-0.27  OA
ENDBRANCH 21 22
ENDBRANCH 5 21
ENDBRANCH 3 5
BRANCH 1 27
ATOM     27  CA  LEU I   2       4.173   3.293   9.677  1.00 19.34 LIG 0.18  C 
BRANCH 27 28
ATOM     28  N   LEU I   2       3.294   4.254   9.049  1.00 20.62 LIG-0.35  N 
ATOM     29 H    LEU I   2       3.218   5.009   9.453  1.00 20.62 LIG 0.16  HD
ATOM     30  C   SER I   1       2.677   3.920   7.920  1.00 28.29 LIG 0.24  C 
ATOM     31 O    SER I   1       2.769   2.776   7.421  1.00 21.19 LIG-0.27  OA
BRANCH 30 32
ATOM     32  CA  SER I   1       1.910   5.064   7.267  1.00 32.71 LIG 0.20  C 
BRANCH 32 33
ATOM     33  CB  SER I   1       0.883   5.538   8.255  1.00 35.86 LIG 0.20  C 
BRANCH 33 34
ATOM     34 OG   SER I   1      -0.230   5.481   7.408  1.00 39.84 LIG-0.40  OA
ATOM     35 HG   SER I   1      -0.933   5.508   7.868  1.00 39.84 LIG 0.21  HD
ENDBRANCH 33 34
ENDBRANCH 32 33
BRANCH 32 36
ATOM     36  N   SER I   1       1.351   4.412   6.087  1.00 41.50 LIG-0.35  N 
ATOM     37  C   ACE I   0       1.896   4.164   4.879  1.00 42.61 LIG 0.21  C 
ATOM     38 O    ACE I   0       3.058   4.391   4.539  0.00 41.61 LIG-0.27  OA
ATOM     39  CH3 ACE I   0       0.932   3.484   3.920  0.00 41.50 LIG 0.12  C 
ATOM     40 H    SER I   1       0.542   4.165   6.242  1.00 41.50 LIG 0.16  HD
ENDBRANCH 32 36
ENDBRANCH 30 32
ENDBRANCH 27 28
BRANCH 27 41
ATOM     41  CB  LEU I   2       5.414   3.941  10.186  1.00 22.58 LIG 0.04  C 
BRANCH 41 42
ATOM     42  CG  LEU I   2       6.528   2.900  10.354  1.00 27.49 LIG-0.02  C 
ATOM     43  CD2 LEU I   2       6.200   1.610   9.585  1.00 25.10 LIG 0.01  C 
ATOM     44  CD1 LEU I   2       6.735   2.678  11.837  1.00 31.16 LIG 0.01  C 
ENDBRANCH 41 42
ENDBRANCH 27 41
ENDBRANCH 1 27
TORSDOF 16
ENDMDL
MODEL 5
USER: ADFR SOLUTION from run 73
USER: SCORE 15.986394 LL:  -3.176 LR: -13.599 RR:   0.000 FEB:  -8.826
USER: RMSD 8.259914
USER: SEED 72
USER: STATUS no improvement in best in 3 clusters for 5 generations
USER: GENES 18
USER: genes 0 Translation |==|  0.47654 0.40274 0.55664
USER: genes 1 Rotation |==|  0.37833 0.85923 0.80235 0.62140
USER: genes 2 Torsion [C]-N--CA-[C] |==|  0.50585
USER: genes 3 Torsion [N]-CA--C-[N] |==|  0.40885
USER: genes 4 Torsion [C]-N--CA-[C] |==|  0.53878
USER: genes 5 Torsion [N]-CA--C-[O] |==|  0.78300
USER: genes 6 Torsion [N]-CA--CB-[CG] |==|  0.70898
USER: genes 7 Torsion [CA]-CB--CG-[CD1] |==|  0.80437
USER: genes 8 Torsion [N]-CA--CB-[CG] |==|  0.62769
USER: genes 9 Torsion [CA]-CB--CG-[OD1] |==|  0.75105
USER: genes 10 Torsion [N]-C--CA-[N] |==|  0.36880
USER: genes 11 Torsion [C]-CA--N-[C] |==|  0.79626
USER: genes 12 Torsion [N]-C--CA-[N] |==|  0.14729
USER: genes 13 Torsion [C]-CA--CB-[OG] |==|  0.50572
USER: genes 14 Torsion [CA]-CB--OG-[HG] |==|  0.71115
USER: genes 15 Torsion [C]-CA--N-[C] |==|  0.13339
USER: genes 16 Torsion [C]-CA--CB-[CG] |==|  0.94122
USER: genes 17 Torsion [CA]-CB--CG-[CD2] |==|  0.67550
ROOT
ATOM      1  C   LEU I   2       3.483   1.832  11.613  1.00 17.40 LIG 0.24  C 
ATOM      2 O    LEU I   2       3.153   2.749  12.341  1.00 17.46 LIG-0.27  OA
ATOM      3  N   ASN I   3       4.350   1.942  10.623  1.00 16.24 LIG-0.35  N 
ATOM      4 H    ASN I   3       4.520   1.310  10.064  1.00 16.24 LIG 0.16  HD
ENDROOT
BRANCH 3 5
ATOM      5  CA  ASN I   3       5.095   3.151  10.393  1.00 15.86 LIG 0.18  C 
BRANCH 5 6
ATOM      6  C   ASN I   3       5.962   2.988   9.162  1.00 15.05 LIG 0.24  C 
ATOM      7  N   PHE I   4       6.147   4.110   8.453  1.00 14.49 LIG-0.34  N 
ATOM      8 H    PHE I   4       5.794   4.866   8.661  1.00 14.49 LIG 0.16  HD
ATOM      9 O    ASN I   3       6.423   1.859   8.864  1.00 16.10 LIG-0.27  OA
BRANCH 7 10
ATOM     10  CA  PHE I   4       6.972   4.149   7.249  1.00 12.92 LIG 0.19  C 
BRANCH 10 11
ATOM     11  C   PHE I   4       7.250   5.589   6.900  1.00 14.32 LIG 0.20  C 
ATOM     12 OXT  PHE I   4       8.380   6.013   7.091  1.00 16.91 LIG-0.65  OA
ATOM     13 O    PHE I   4       6.393   6.278   6.341  1.00 15.04 LIG-0.65  OA
ENDBRANCH 10 11
BRANCH 10 14
ATOM     14  CB  PHE I   4       6.251   3.454   6.108  1.00 13.46 LIG 0.07  C 
BRANCH 14 15
ATOM     15  CG  PHE I   4       6.852   2.096   5.846  1.00 17.43 LIG-0.06  A 
ATOM     16  CD1 PHE I   4       8.130   2.003   5.279  1.00 19.70 LIG 0.01  A 
ATOM     17  CE1 PHE I   4       8.693   0.759   5.059  1.00 18.46 LIG 0.00  A 
ATOM     18  CZ  PHE I   4       7.991  -0.389   5.401  1.00 20.27 LIG 0.00  A 
ATOM     19  CE2 PHE I   4       6.720  -0.309   5.966  1.00 19.92 LIG 0.00  A 
ATOM     20  CD2 PHE I   4       6.140   0.940   6.191  1.00 19.48 LIG 0.01  A 
ENDBRANCH 14 15
ENDBRANCH 10 14
ENDBRANCH 7 10
ENDBRANCH 5 6
BRANCH 5 21
ATOM     21  CB  ASN I   3       5.947   3.426  11.622  1.00 15.02 LIG 0.14  C 
BRANCH 21 22
ATOM     22  CG  ASN I   3       5.819   4.898  12.007  1.00 21.09 LIG 0.22  C 
ATOM     23  ND2 ASN I   3       4.804   5.295  12.759  1.00 19.37 LIG-0.37  N 
ATOM     24 22HD ASN I   3       4.262   4.715  13.091  1.00 19.37 LIG 0.16  HD
ATOM     25 21HD ASN I   3       4.687   6.132  12.917  1.00 19.37 LIG 0.16  HD
ATOM     26 OD1  ASN I   3       6.568   5.760  11.554  1.00 22.58 LIG-0.27  OA
ENDBRANCH 21 22
ENDBRANCH 5 21
ENDBRANCH 3 5
BRANCH 1 27
ATOM     27  CA  LEU I   2       2.937   0.491  11.877  1.00 19.34 LIG 0.18  C 
BRANCH 27 28
ATOM     28  N   LEU I   2       3.051   0.323  13.308  1.00 20.62 LIG-0.35  N 
ATOM     29 H    LEU I   2       2.314   0.370  13.749  1.00 20.62 LIG 0.16  HD
ATOM     30  C   SER I   1       4.252   0.113  13.837  1.00 28.29 LIG 0.24  C 
ATOM     31 O    SER I   1       5.298   0.131  13.150  1.00 21.19 LIG-0.27  OA
BRANCH 30 32
ATOM     32  CA  SER I   1       4.230  -0.210  15.327  1.00 32.71 LIG 0.20  C 
BRANCH 32 33
ATOM     33  CB  SER I   1       5.630  -0.577  15.728  1.00 35.86 LIG 0.20  C 
BRANCH 33 34
ATOM     34 OG   SER I   1       5.368  -0.872  17.071  1.00 39.84 LIG-0.40  OA
ATOM     35 HG   SER I   1       5.638  -0.240  17.555  1.00 39.84 LIG 0.21  HD
ENDBRANCH 33 34
ENDBRANCH 32 33
BRANCH 32 36
ATOM     36  N   SER I   1       3.281  -1.317  15.377  1.00 41.50 LIG-0.35  N 
ATOM     37  C   ACE I   0       3.197  -2.437  14.632  1.00 42.61 LIG 0.21  C 
ATOM     38 O    ACE I   0       3.988  -2.798  13.760  0.00 41.61 LIG-0.27  OA
ATOM     39  CH3 ACE I   0       2.013  -3.314  15.007  0.00 41.50 LIG 0.12  C 
ATOM     40 H    SER I   1       2.704  -1.183  16.001  1.00 41.50 LIG 0.16  HD
ENDBRANCH 32 36
ENDBRANCH 30 32
ENDBRANCH 27 28
BRANCH 27 41
ATOM     41  CB  LEU I   2       1.516   0.425  11.433  1.00 22.58 LIG 0.04  C 
BRANCH 41 42
ATOM     42  CG  LEU I   2       0.920   1.836  11.344  1.00 27.49 LIG-0.02  C 
ATOM     43  CD2 LEU I   2      -0.237   2.010  12.341  1.00 25.10 LIG 0.01  C 
ATOM     44  CD1 LEU I   2       0.515   2.079   9.907  1.00 31.16 LIG 0.01  C 
ENDBRANCH 41 42
ENDBRANCH 27 41
ENDBRANCH 1 27
TORSDOF 16
ENDMDL
MODEL 6
USER: ADFR SOLUTION from run 106
USER: SCORE 16.138109 LL:  -3.305 LR: -13.590 RR:   0.000 FEB:  -8.817
USER: RMSD 6.949969
USER: SEED 105
USER: STATUS no improvement in best in 14 clusters for 5 generations
USER: GENES 18
USER: genes 0 Translation |==|  0.61637 0.38446 0.54272
USER: genes 1 Rotation |==|  0.84031 0.29689 0.80191 0.54221
USER: genes 2 Torsion [C]-N--CA-[C] |==|  0.14470
USER: genes 3 Torsion [N]-CA--C-[N] |==|  0.18311
USER: genes 4 Torsion [C]-N--CA-[C] |==|  0.50917
USER: genes 5 Torsion [N]-CA--C-[O] |==|  0.71863
USER: genes 6 Torsion [N]-CA--CB-[CG] |==|  0.70584
USER: genes 7 Torsion [CA]-CB--CG-[CD1] |==|  0.89493
USER: genes 8 Torsion [N]-CA--CB-[CG] |==|  0.50068
USER: genes 9 Torsion [CA]-CB--CG-[OD1] |==|  0.19508
USER: genes 10 Torsion [N]-C--CA-[N] |==|  0.39031
USER: genes 11 Torsion [C]-CA--N-[C] |==|  0.61782
USER: genes 12 Torsion [N]-C--CA-[N] |==|  0.32333
USER: genes 13 Torsion [C]-CA--CB-[OG] |==|  0.31045
USER: genes 14 Torsion [CA]-CB--OG-[HG] |==|  0.95976
USER: genes 15 Torsion [C]-CA--N-[C] |==|  0.78326
USER: genes 16 Torsion [C]-CA--CB-[CG] |==|  0.79540
USER: genes 17 Torsion [CA]-CB--CG-[CD2] |==|  0.62808
ROOT
ATOM      1  C   LEU I   2       5.895   1.517  11.331  1.00 17.40 LIG 0.24  C 
ATOM      2 O    LEU I   2       5.909   0.579  10.557  1.00 17.46 LIG-0.27  OA
ATOM      3  N   ASN I   3       6.968   2.188  11.708  1.00 16.24 LIG-0.35  N 
ATOM      4 H    ASN I   3       6.962   2.799  12.314  1.00 16.24 LIG 0.16  HD
ENDROOT
BRANCH 3 5
ATOM      5  CA  ASN I   3       8.261   1.948  11.123  1.00 15.86 LIG 0.18  C 
BRANCH 5 6
ATOM      6  C   ASN I   3       8.158   2.025   9.613  1.00 15.05 LIG 0.24  C 
ATOM      7  N   PHE I   4       7.855   3.238   9.133  1.00 14.49 LIG-0.34  N 
ATOM      8 H    PHE I   4       7.712   3.925   9.632  1.00 14.49 LIG 0.16  HD
ATOM      9 O    ASN I   3       8.328   0.993   8.919  1.00 16.10 LIG-0.27  OA
BRANCH 7 10
ATOM     10  CA  PHE I   4       7.737   3.508   7.702  1.00 12.92 LIG 0.19  C 
BRANCH 10 11
ATOM     11  C   PHE I   4       7.469   4.979   7.508  1.00 14.32 LIG 0.20  C 
ATOM     12 OXT  PHE I   4       8.429   5.734   7.486  1.00 16.91 LIG-0.65  OA
ATOM     13 O    PHE I   4       6.329   5.385   7.272  1.00 15.04 LIG-0.65  OA
ENDBRANCH 10 11
BRANCH 10 14
ATOM     14  CB  PHE I   4       6.609   2.679   7.114  1.00 13.46 LIG 0.07  C 
BRANCH 14 15
ATOM     15  CG  PHE I   4       7.159   1.535   6.298  1.00 17.43 LIG-0.06  A 
ATOM     16  CD1 PHE I   4       8.307   1.732   5.517  1.00 19.70 LIG 0.01  A 
ATOM     17  CE1 PHE I   4       8.826   0.679   4.786  1.00 18.46 LIG 0.00  A 
ATOM     18  CZ  PHE I   4       8.209  -0.564   4.828  1.00 20.27 LIG 0.00  A 
ATOM     19  CE2 PHE I   4       7.068  -0.771   5.601  1.00 19.92 LIG 0.00  A 
ATOM     20  CD2 PHE I   4       6.533   0.283   6.342  1.00 19.48 LIG 0.01  A 
ENDBRANCH 14 15
ENDBRANCH 10 14
ENDBRANCH 7 10
ENDBRANCH 5 6
BRANCH 5 21
ATOM     21  CB  ASN I   3       8.734   0.572  11.563  1.00 15.02 LIG 0.14  C 
BRANCH 21 22
ATOM     22  CG  ASN I   3      10.110   0.295  10.961  1.00 21.09 LIG 0.22  C 
ATOM     23  ND2 ASN I   3      10.259  -0.692  10.091  1.00 19.37 LIG-0.37  N 
ATOM     24 22HD ASN I   3       9.573  -1.127   9.812  1.00 19.37 LIG 0.16  HD
ATOM     25 21HD ASN I   3      11.044  -0.899   9.806  1.00 19.37 LIG 0.16  HD
ATOM     26 OD1  ASN I   3      11.118   0.890  11.333  1.00 22.58 LIG-0.27  OA
ENDBRANCH 21 22
ENDBRANCH 5 21
ENDBRANCH 3 5
BRANCH 1 27
ATOM     27  CA  LEU I   2       4.598   1.987  11.846  1.00 19.34 LIG 0.18  C 
BRANCH 27 28
ATOM     28  N   LEU I   2       3.689   1.847  10.730  1.00 20.62 LIG-0.35  N 
ATOM     29 H    LEU I   2       3.766   1.121  10.275  1.00 20.62 LIG 0.16  HD
ATOM     30  C   SER I   1       2.816   2.819  10.486  1.00 28.29 LIG 0.24  C 
ATOM     31 O    SER I   1       2.804   3.886  11.139  1.00 21.19 LIG-0.27  OA
BRANCH 30 32
ATOM     32  CA  SER I   1       1.806   2.490   9.392  1.00 32.71 LIG 0.20  C 
BRANCH 32 33
ATOM     33  CB  SER I   1       1.918   3.557   8.342  1.00 35.86 LIG 0.20  C 
BRANCH 33 34
ATOM     34 OG   SER I   1       2.455   2.760   7.324  1.00 39.84 LIG-0.40  OA
ATOM     35 HG   SER I   1       2.726   2.035   7.650  1.00 39.84 LIG 0.21  HD
ENDBRANCH 33 34
ENDBRANCH 32 33
BRANCH 32 36
ATOM     36  N   SER I   1       0.549   2.508  10.134  1.00 41.50 LIG-0.35  N 
ATOM     37  C   ACE I   0       0.001   1.591  10.956  1.00 42.61 LIG 0.21  C 
ATOM     38 O    ACE I   0       0.513   0.530  11.315  0.00 41.61 LIG-0.27  OA
ATOM     39  CH3 ACE I   0      -1.358   2.010  11.493  0.00 41.50 LIG 0.12  C 
ATOM     40 H    SER I   1       0.131   3.244   9.987  1.00 41.50 LIG 0.16  HD
ENDBRANCH 32 36
ENDBRANCH 30 32
ENDBRANCH 27 28
BRANCH 27 41
ATOM     41  CB  LEU I   2       4.176   1.147  13.001  1.00 22.58 LIG 0.04  C 
BRANCH 41 42
ATOM     42  CG  LEU I   2       3.710  -0.231  12.516  1.00 27.49 LIG-0.02  C 
ATOM     43  CD2 LEU I   2       2.388  -0.637  13.188  1.00 25.10 LIG 0.01  C 
ATOM     44  CD1 LEU I   2       4.834  -1.215  12.762  1.00 31.16 LIG 0.01  C 
ENDBRANCH 41 42
ENDBRANCH 27 41
ENDBRANCH 1 27
TORSDOF 16
ENDMDL
MODEL 7
USER: ADFR SOLUTION from run 40
USER: SCORE 15.889065 LL:  -4.127 LR: -13.442 RR:   0.000 FEB:  -8.669
USER: RMSD 7.154880
USER: SEED 39
USER: STATUS no improvement in best in 1 clusters for 5 generations
USER: GENES 18
USER: genes 0 Translation |==|  0.46827 0.46726 0.50000
USER: genes 1 Rotation |==|  0.60662 0.07953 0.25292 0.52811
USER: genes 2 Torsion [C]-N--CA-[C] |==|  0.20000
USER: genes 3 Torsion [N]-CA--C-[N] |==|  0.33192
USER: genes 4 Torsion [C]-N--CA-[C] |==|  0.70606
USER: genes 5 Torsion [N]-CA--C-[O] |==|  0.99587
USER: genes 6 Torsion [N]-CA--CB-[CG] |==|  0.97459
USER: genes 7 Torsion [CA]-CB--CG-[CD1] |==|  0.28645
USER: genes 8 Torsion [N]-CA--CB-[CG] |==|  0.77727
USER: genes 9 Torsion [CA]-CB--CG-[OD1] |==|  0.94731
USER: genes 10 Torsion [N]-C--CA-[N] |==|  0.28421
USER: genes 11 Torsion [C]-CA--N-[C] |==|  0.73962
USER: genes 12 Torsion [N]-C--CA-[N] |==|  0.84016
USER: genes 13 Torsion [C]-CA--CB-[OG] |==|  0.39905
USER: genes 14 Torsion [CA]-CB--OG-[HG] |==|  0.37249
USER: genes 15 Torsion [C]-CA--N-[C] |==|  0.81913
USER: genes 16 Torsion [C]-CA--CB-[CG] |==|  0.15245
USER: genes 17 Torsion [CA]-CB--CG-[CD2] |==|  0.49795
ROOT
ATOM      1  C   LEU I   2       3.341   2.945  10.466  1.00 17.40 LIG 0.24  C 
ATOM      2 O    LEU I   2       3.073   4.060  10.872  1.00 17.46 LIG-0.27  OA
ATOM      3  N   ASN I   3       3.665   2.664   9.218  1.00 16.24 LIG-0.35  N 
ATOM      4 H    ASN I   3       3.776   1.864   8.921  1.00 16.24 LIG 0.16  HD
ENDROOT
BRANCH 3 5
ATOM      5  CA  ASN I   3       3.861   3.693   8.231  1.00 15.86 LIG 0.18  C 
BRANCH 5 6
ATOM      6  C   ASN I   3       5.156   4.427   8.513  1.00 15.05 LIG 0.24  C 
ATOM      7  N   PHE I   4       6.063   4.363   7.529  1.00 14.49 LIG-0.34  N 
ATOM      8 H    PHE I   4       5.938   3.930   6.796  1.00 14.49 LIG 0.16  HD
ATOM      9 O    ASN I   3       5.321   5.010   9.613  1.00 16.10 LIG-0.27  OA
BRANCH 7 10
ATOM     10  CA  PHE I   4       7.360   5.029   7.614  1.00 12.92 LIG 0.19  C 
BRANCH 10 11
ATOM     11  C   PHE I   4       7.340   6.241   6.716  1.00 14.32 LIG 0.20  C 
ATOM     12 OXT  PHE I   4       8.377   6.878   6.600  1.00 16.91 LIG-0.65  OA
ATOM     13 O    PHE I   4       6.344   6.509   6.042  1.00 15.04 LIG-0.65  OA
ENDBRANCH 10 11
BRANCH 10 14
ATOM     14  CB  PHE I   4       8.459   4.070   7.190  1.00 13.46 LIG 0.07  C 
BRANCH 14 15
ATOM     15  CG  PHE I   4       7.914   2.674   7.028  1.00 17.43 LIG-0.06  A 
ATOM     16  CD1 PHE I   4       7.673   2.170   5.742  1.00 19.70 LIG 0.01  A 
ATOM     17  CE1 PHE I   4       7.194   0.881   5.590  1.00 18.46 LIG 0.00  A 
ATOM     18  CZ  PHE I   4       6.955   0.094   6.710  1.00 20.27 LIG 0.00  A 
ATOM     19  CE2 PHE I   4       7.190   0.585   7.992  1.00 19.92 LIG 0.00  A 
ATOM     20  CD2 PHE I   4       7.672   1.884   8.160  1.00 19.48 LIG 0.01  A 
ENDBRANCH 14 15
ENDBRANCH 10 14
ENDBRANCH 7 10
ENDBRANCH 5 6
BRANCH 5 21
ATOM     21  CB  ASN I   3       2.676   4.645   8.294  1.00 15.02 LIG 0.14  C 
BRANCH 21 22
ATOM     22  CG  ASN I   3       1.500   4.036   7.534  1.00 21.09 LIG 0.22  C 
ATOM     23  ND2 ASN I   3       0.263   4.395   7.841  1.00 19.37 LIG-0.37  N 
ATOM     24 22HD ASN I   3       0.127   5.021   8.413  1.00 19.37 LIG 0.16  HD
ATOM     25 21HD ASN I   3      -0.404   4.001   7.468  1.00 19.37 LIG 0.16  HD
ATOM     26 OD1  ASN I   3       1.649   3.136   6.711  1.00 22.58 LIG-0.27  OA
ENDBRANCH 21 22
ENDBRANCH 5 21
ENDBRANCH 3 5
BRANCH 1 27
ATOM     27  CA  LEU I   2       3.369   1.833  11.431  1.00 19.34 LIG 0.18  C 
BRANCH 27 28
ATOM     28  N   LEU I   2       4.601   2.016  12.166  1.00 20.62 LIG-0.35  N 
ATOM     29 H    LEU I   2       4.555   2.543  12.844  1.00 20.62 LIG 0.16  HD
ATOM     30  C   SER I   1       5.694   1.379  11.759  1.00 28.29 LIG 0.24  C 
ATOM     31 O    SER I   1       5.715   0.685  10.717  1.00 21.19 LIG-0.27  OA
BRANCH 30 32
ATOM     32  CA  SER I   1       6.885   1.519  12.700  1.00 32.71 LIG 0.20  C 
BRANCH 32 33
ATOM     33  CB  SER I   1       6.500   0.886  14.007  1.00 35.86 LIG 0.20  C 
BRANCH 33 34
ATOM     34 OG   SER I   1       7.750   0.341  14.324  1.00 39.84 LIG-0.40  OA
ATOM     35 HG   SER I   1       7.931   0.506  15.128  1.00 39.84 LIG 0.21  HD
ENDBRANCH 33 34
ENDBRANCH 32 33
BRANCH 32 36
ATOM     36  N   SER I   1       7.049   2.967  12.759  1.00 41.50 LIG-0.35  N 
ATOM     37  C   ACE I   0       7.392   3.853  11.803  1.00 42.61 LIG 0.21  C 
ATOM     38 O    ACE I   0       7.577   3.607  10.610  0.00 41.61 LIG-0.27  OA
ATOM     39  CH3 ACE I   0       7.481   5.280  12.317  0.00 41.50 LIG 0.12  C 
ATOM     40 H    SER I   1       6.888   3.250  13.555  1.00 41.50 LIG 0.16  HD
ENDBRANCH 32 36
ENDBRANCH 30 32
ENDBRANCH 27 28
BRANCH 27 41
ATOM     41  CB  LEU I   2       2.183   1.909  12.328  1.00 22.58 LIG 0.04  C 
BRANCH 41 42
ATOM     42  CG  LEU I   2       0.891   1.949  11.503  1.00 27.49 LIG-0.02  C 
ATOM     43  CD2 LEU I   2      -0.346   2.010  12.413  1.00 25.10 LIG 0.01  C 
ATOM     44  CD1 LEU I   2       0.895   0.753  10.576  1.00 31.16 LIG 0.01  C 
ENDBRANCH 41 42
ENDBRANCH 27 41
ENDBRANCH 1 27
TORSDOF 16
ENDMDL
MODEL 8
USER: ADFR SOLUTION from run 89
USER: SCORE 15.832068 LL:  -3.274 LR: -13.378 RR:   0.000 FEB:  -8.605
USER: RMSD 6.827019
USER: SEED 88
USER: STATUS no improvement in best in 14 clusters for 5 generations
USER: GENES 18
USER: genes 0 Translation |==|  0.51463 0.51207 0.43808
USER: genes 1 Rotation |==|  0.47056 0.04481 0.32234 0.60186
USER: genes 2 Torsion [C]-N--CA-[C] |==|  0.17994
USER: genes 3 Torsion [N]-CA--C-[N] |==|  0.00834
USER: genes 4 Torsion [C]-N--CA-[C] |==|  0.20640
USER: genes 5 Torsion [N]-CA--C-[O] |==|  0.39472
USER: genes 6 Torsion [N]-CA--CB-[CG] |==|  0.79620
USER: genes 7 Torsion [CA]-CB--CG-[CD1] |==|  0.14292
USER: genes 8 Torsion [N]-CA--CB-[CG] |==|  0.86922
USER: genes 9 Torsion [CA]-CB--CG-[OD1] |==|  0.85015
USER: genes 10 Torsion [N]-C--CA-[N] |==|  0.88526
USER: genes 11 Torsion [C]-CA--N-[C] |==|  0.78105
USER: genes 12 Torsion [N]-C--CA-[N] |==|  0.18906
USER: genes 13 Torsion [C]-CA--CB-[OG] |==|  0.81567
USER: genes 14 Torsion [CA]-CB--OG-[HG] |==|  0.57513
USER: genes 15 Torsion [C]-CA--N-[C] |==|  0.75433
USER: genes 16 Torsion [C]-CA--CB-[CG] |==|  0.31110
USER: genes 17 Torsion [CA]-CB--CG-[CD2] |==|  0.86220
ROOT
ATOM      1  C   LEU I   2       4.140   3.718   9.212  1.00 17.40 LIG 0.24  C 
ATOM      2 O    LEU I   2       4.354   4.914   9.144  1.00 17.46 LIG-0.27  OA
ATOM      3  N   ASN I   3       3.745   2.973   8.197  1.00 16.24 LIG-0.35  N 
ATOM      4 H    ASN I   3       3.521   2.145   8.270  1.00 16.24 LIG 0.16  HD
ENDROOT
BRANCH 3 5
ATOM      5  CA  ASN I   3       3.654   3.495   6.859  1.00 15.86 LIG 0.18  C 
BRANCH 5 6
ATOM      6  C   ASN I   3       5.036   3.871   6.365  1.00 15.05 LIG 0.24  C 
ATOM      7  N   PHE I   4       6.031   3.592   7.216  1.00 14.49 LIG-0.34  N 
ATOM      8 H    PHE I   4       5.908   3.240   7.992  1.00 14.49 LIG 0.16  HD
ATOM      9 O    ASN I   3       5.173   4.425   5.247  1.00 16.10 LIG-0.27  OA
BRANCH 7 10
ATOM     10  CA  PHE I   4       7.431   3.863   6.902  1.00 12.92 LIG 0.19  C 
BRANCH 10 11
ATOM     11  C   PHE I   4       7.671   5.348   7.004  1.00 14.32 LIG 0.20  C 
ATOM     12 OXT  PHE I   4       6.747   6.094   6.716  1.00 16.91 LIG-0.65  OA
ATOM     13 O    PHE I   4       8.727   5.785   7.466  1.00 15.04 LIG-0.65  OA
ENDBRANCH 10 11
BRANCH 10 14
ATOM     14  CB  PHE I   4       7.749   3.368   5.502  1.00 13.46 LIG 0.07  C 
BRANCH 14 15
ATOM     15  CG  PHE I   4       7.826   1.862   5.475  1.00 17.43 LIG-0.06  A 
ATOM     16  CD1 PHE I   4       6.773   1.106   6.010  1.00 19.70 LIG 0.01  A 
ATOM     17  CE1 PHE I   4       6.831  -0.275   5.966  1.00 18.46 LIG 0.00  A 
ATOM     18  CZ  PHE I   4       7.929  -0.905   5.393  1.00 20.27 LIG 0.00  A 
ATOM     19  CE2 PHE I   4       8.980  -0.163   4.858  1.00 19.92 LIG 0.00  A 
ATOM     20  CD2 PHE I   4       8.935   1.231   4.897  1.00 19.48 LIG 0.01  A 
ENDBRANCH 14 15
ENDBRANCH 10 14
ENDBRANCH 7 10
ENDBRANCH 5 6
BRANCH 5 21
ATOM     21  CB  ASN I   3       2.739   4.709   6.883  1.00 15.02 LIG 0.14  C 
BRANCH 21 22
ATOM     22  CG  ASN I   3       1.475   4.373   7.670  1.00 21.09 LIG 0.22  C 
ATOM     23  ND2 ASN I   3       1.168   5.074   8.751  1.00 19.37 LIG-0.37  N 
ATOM     24 22HD ASN I   3       1.638   5.761   8.966  1.00 19.37 LIG 0.16  HD
ATOM     25 21HD ASN I   3       0.499   4.842   9.238  1.00 19.37 LIG 0.16  HD
ATOM     26 OD1  ASN I   3       0.776   3.399   7.400  1.00 22.58 LIG-0.27  OA
ENDBRANCH 21 22
ENDBRANCH 5 21
ENDBRANCH 3 5
BRANCH 1 27
ATOM     27  CA  LEU I   2       4.393   3.029  10.489  1.00 19.34 LIG 0.18  C 
BRANCH 27 28
ATOM     28  N   LEU I   2       3.314   2.074  10.609  1.00 20.62 LIG-0.35  N 
ATOM     29 H    LEU I   2       3.511   1.261  10.408  1.00 20.62 LIG 0.16  HD
ATOM     30  C   SER I   1       2.121   2.499  11.011  1.00 28.29 LIG 0.24  C 
ATOM     31 O    SER I   1       1.876   3.709  11.216  1.00 21.19 LIG-0.27  OA
BRANCH 30 32
ATOM     32  CA  SER I   1       1.111   1.383  11.256  1.00 32.71 LIG 0.20  C 
BRANCH 32 33
ATOM     33  CB  SER I   1      -0.223   2.030  11.496  1.00 35.86 LIG 0.20  C 
BRANCH 33 34
ATOM     34 OG   SER I   1       0.091   2.662  12.705  1.00 39.84 LIG-0.40  OA
ATOM     35 HG   SER I   1      -0.609   2.760  13.159  1.00 39.84 LIG 0.21  HD
ENDBRANCH 33 34
ENDBRANCH 32 33
BRANCH 32 36
ATOM     36  N   SER I   1       1.677   0.722  12.427  1.00 41.50 LIG-0.35  N 
ATOM     37  C   ACE I   0       2.575  -0.278  12.524  1.00 42.61 LIG 0.21  C 
ATOM     38 O    ACE I   0       3.179  -0.813  11.593  0.00 41.61 LIG-0.27  OA
ATOM     39  CH3 ACE I   0       2.857  -0.688  13.960  0.00 41.50 LIG 0.12  C 
ATOM     40 H    SER I   1       1.350   1.065  13.145  1.00 41.50 LIG 0.16  HD
ENDBRANCH 32 36
ENDBRANCH 30 32
ENDBRANCH 27 28
BRANCH 27 41
ATOM     41  CB  LEU I   2       5.718   2.350  10.445  1.00 22.58 LIG 0.04  C 
BRANCH 41 42
ATOM     42  CG  LEU I   2       6.697   3.028  11.411  1.00 27.49 LIG-0.02  C 
ATOM     43  CD2 LEU I   2       6.707   4.552  11.209  1.00 25.10 LIG 0.01  C 
ATOM     44  CD1 LEU I   2       8.055   2.389  11.221  1.00 31.16 LIG 0.01  C 
ENDBRANCH 41 42
ENDBRANCH 27 41
ENDBRANCH 1 27
TORSDOF 16
ENDMDL
MODEL 9
USER: ADFR SOLUTION from run 172
USER: SCORE 15.176260 LL:  -3.751 LR: -13.337 RR:   0.000 FEB:  -8.564
USER: RMSD 8.438856
USER: SEED 171
USER: STATUS no improvement in best in 12 clusters for 5 generations
USER: GENES 18
USER: genes 0 Translation |==|  0.47501 0.46424 0.54721
USER: genes 1 Rotation |==|  0.23503 0.85395 0.63913 0.68748
USER: genes 2 Torsion [C]-N--CA-[C] |==|  0.67501
USER: genes 3 Torsion [N]-CA--C-[N] |==|  0.27877
USER: genes 4 Torsion [C]-N--CA-[C] |==|  0.70035
USER: genes 5 Torsion [N]-CA--C-[O] |==|  0.74226
USER: genes 6 Torsion [N]-CA--CB-[CG] |==|  0.01581
USER: genes 7 Torsion [CA]-CB--CG-[CD1] |==|  0.25433
USER: genes 8 Torsion [N]-CA--CB-[CG] |==|  0.64855
USER: genes 9 Torsion [CA]-CB--CG-[OD1] |==|  0.62298
USER: genes 10 Torsion [N]-C--CA-[N] |==|  0.13752
USER: genes 11 Torsion [C]-CA--N-[C] |==|  0.62778
USER: genes 12 Torsion [N]-C--CA-[N] |==|  0.34315
USER: genes 13 Torsion [C]-CA--CB-[OG] |==|  0.30953
USER: genes 14 Torsion [CA]-CB--OG-[HG] |==|  0.25125
USER: genes 15 Torsion [C]-CA--N-[C] |==|  0.17808
USER: genes 16 Torsion [C]-CA--CB-[CG] |==|  0.34904
USER: genes 17 Torsion [CA]-CB--CG-[CD2] |==|  0.99080
ROOT
ATOM      1  C   LEU I   2       3.457   2.893  11.422  1.00 17.40 LIG 0.24  C 
ATOM      2 O    LEU I   2       2.822   3.907  11.201  1.00 17.46 LIG-0.27  OA
ATOM      3  N   ASN I   3       4.765   2.787  11.280  1.00 16.24 LIG-0.35  N 
ATOM      4 H    ASN I   3       5.197   2.047  11.362  1.00 16.24 LIG 0.16  HD
ENDROOT
BRANCH 3 5
ATOM      5  CA  ASN I   3       5.592   3.923  10.970  1.00 15.86 LIG 0.18  C 
BRANCH 5 6
ATOM      6  C   ASN I   3       6.256   3.717   9.623  1.00 15.05 LIG 0.24  C 
ATOM      7  N   PHE I   4       5.672   4.363   8.605  1.00 14.49 LIG-0.34  N 
ATOM      8 H    PHE I   4       4.967   4.848   8.693  1.00 14.49 LIG 0.16  HD
ATOM      9 O    ASN I   3       7.256   2.965   9.525  1.00 16.10 LIG-0.27  OA
BRANCH 7 10
ATOM     10  CA  PHE I   4       6.186   4.300   7.240  1.00 12.92 LIG 0.19  C 
BRANCH 10 11
ATOM     11  C   PHE I   4       6.811   5.629   6.897  1.00 14.32 LIG 0.20  C 
ATOM     12 OXT  PHE I   4       8.010   5.760   7.091  1.00 16.91 LIG-0.65  OA
ATOM     13 O    PHE I   4       6.152   6.510   6.341  1.00 15.04 LIG-0.65  OA
ENDBRANCH 10 11
BRANCH 10 14
ATOM     14  CB  PHE I   4       5.054   3.981   6.279  1.00 13.46 LIG 0.07  C 
BRANCH 14 15
ATOM     15  CG  PHE I   4       3.731   3.963   7.002  1.00 17.43 LIG-0.06  A 
ATOM     16  CD1 PHE I   4       2.968   5.137   7.076  1.00 19.70 LIG 0.01  A 
ATOM     17  CE1 PHE I   4       1.743   5.117   7.719  1.00 18.46 LIG 0.00  A 
ATOM     18  CZ  PHE I   4       1.277   3.938   8.287  1.00 20.27 LIG 0.00  A 
ATOM     19  CE2 PHE I   4       2.028   2.766   8.219  1.00 19.92 LIG 0.00  A 
ATOM     20  CD2 PHE I   4       3.265   2.772   7.575  1.00 19.48 LIG 0.01  A 
ENDBRANCH 14 15
ENDBRANCH 10 14
ENDBRANCH 7 10
ENDBRANCH 5 6
BRANCH 5 21
ATOM     21  CB  ASN I   3       6.633   4.068  12.069  1.00 15.02 LIG 0.14  C 
BRANCH 21 22
ATOM     22  CG  ASN I   3       6.583   5.489  12.627  1.00 21.09 LIG 0.22  C 
ATOM     23  ND2 ASN I   3       5.416   6.096  12.774  1.00 19.37 LIG-0.37  N 
ATOM     24 22HD ASN I   3       4.686   5.667  12.627  1.00 19.37 LIG 0.16  HD
ATOM     25 21HD ASN I   3       5.388   6.920  13.018  1.00 19.37 LIG 0.16  HD
ATOM     26 OD1  ASN I   3       7.602   6.140  12.848  1.00 22.58 LIG-0.27  OA
ENDBRANCH 21 22
ENDBRANCH 5 21
ENDBRANCH 3 5
BRANCH 1 27
ATOM     27  CA  LEU I   2       2.744   1.714  11.940  1.00 19.34 LIG 0.18  C 
BRANCH 27 28
ATOM     28  N   LEU I   2       3.488   1.322  13.116  1.00 20.62 LIG-0.35  N 
ATOM     29 H    LEU I   2       3.702   1.960  13.652  1.00 20.62 LIG 0.16  HD
ATOM     30  C   SER I   1       3.787   0.039  13.290  1.00 28.29 LIG 0.24  C 
ATOM     31 O    SER I   1       3.513  -0.834  12.436  1.00 21.19 LIG-0.27  OA
BRANCH 30 32
ATOM     32  CA  SER I   1       4.428  -0.276  14.638  1.00 32.71 LIG 0.20  C 
BRANCH 32 33
ATOM     33  CB  SER I   1       5.818  -0.774  14.368  1.00 35.86 LIG 0.20  C 
BRANCH 33 34
ATOM     34 OG   SER I   1       6.514   0.317  14.902  1.00 39.84 LIG-0.40  OA
ATOM     35 HG   SER I   1       6.669   0.179  15.716  1.00 39.84 LIG 0.21  HD
ENDBRANCH 33 34
ENDBRANCH 32 33
BRANCH 32 36
ATOM     36  N   SER I   1       3.520  -1.286  15.170  1.00 41.50 LIG-0.35  N 
ATOM     37  C   ACE I   0       3.228  -2.525  14.728  1.00 42.61 LIG 0.21  C 
ATOM     38 O    ACE I   0       3.749  -3.105  13.775  0.00 41.61 LIG-0.27  OA
ATOM     39  CH3 ACE I   0       2.183  -3.230  15.580  0.00 41.50 LIG 0.12  C 
ATOM     40 H    SER I   1       3.136  -0.992  15.881  1.00 41.50 LIG 0.16  HD
ENDBRANCH 32 36
ENDBRANCH 30 32
ENDBRANCH 27 28
BRANCH 27 41
ATOM     41  CB  LEU I   2       1.340   2.079  12.282  1.00 22.58 LIG 0.04  C 
BRANCH 41 42
ATOM     42  CG  LEU I   2       0.357   1.148  11.563  1.00 27.49 LIG-0.02  C 
ATOM     43  CD2 LEU I   2       1.098   0.167  10.640  1.00 25.10 LIG 0.01  C 
ATOM     44  CD1 LEU I   2      -0.652   2.010  10.834  1.00 31.16 LIG 0.01  C 
ENDBRANCH 41 42
ENDBRANCH 27 41
ENDBRANCH 1 27
TORSDOF 16
ENDMDL
MODEL 10
USER: ADFR SOLUTION from run 67
USER: SCORE 15.095846 LL:  -3.514 LR: -13.328 RR:   0.000 FEB:  -8.555
USER: RMSD 6.345959
USER: SEED 66
USER: STATUS no improvement in best in 11 clusters for 5 generations
USER: GENES 18
USER: genes 0 Translation |==|  0.62559 0.43571 0.49192
USER: genes 1 Rotation |==|  0.48160 0.24698 0.21677 0.82468
USER: genes 2 Torsion [C]-N--CA-[C] |==|  0.70558
USER: genes 3 Torsion [N]-CA--C-[N] |==|  0.86805
USER: genes 4 Torsion [C]-N--CA-[C] |==|  0.13597
USER: genes 5 Torsion [N]-CA--C-[O] |==|  0.21397
USER: genes 6 Torsion [N]-CA--CB-[CG] |==|  0.85501
USER: genes 7 Torsion [CA]-CB--CG-[CD1] |==|  0.27126
USER: genes 8 Torsion [N]-CA--CB-[CG] |==|  0.41354
USER: genes 9 Torsion [CA]-CB--CG-[OD1] |==|  0.71746
USER: genes 10 Torsion [N]-C--CA-[N] |==|  0.13214
USER: genes 11 Torsion [C]-CA--N-[C] |==|  0.53340
USER: genes 12 Torsion [N]-C--CA-[N] |==|  0.53364
USER: genes 13 Torsion [C]-CA--CB-[OG] |==|  0.69922
USER: genes 14 Torsion [CA]-CB--OG-[HG] |==|  0.17062
USER: genes 15 Torsion [C]-CA--N-[C] |==|  0.64673
USER: genes 16 Torsion [C]-CA--CB-[CG] |==|  0.31940
USER: genes 17 Torsion [CA]-CB--CG-[CD2] |==|  0.68994
ROOT
ATOM      1  C   LEU I   2       6.055   2.401  10.302  1.00 17.40 LIG 0.24  C 
ATOM      2 O    LEU I   2       6.311   3.389  10.964  1.00 17.46 LIG-0.27  OA
ATOM      3  N   ASN I   3       4.879   2.156   9.754  1.00 16.24 LIG-0.35  N 
ATOM      4 H    ASN I   3       4.682   1.420   9.354  1.00 16.24 LIG 0.16  HD
ENDROOT
BRANCH 3 5
ATOM      5  CA  ASN I   3       3.810   3.118   9.781  1.00 15.86 LIG 0.18  C 
BRANCH 5 6
ATOM      6  C   ASN I   3       2.758   2.682  10.780  1.00 15.05 LIG 0.24  C 
ATOM      7  N   PHE I   4       2.388   1.398  10.681  1.00 14.49 LIG-0.34  N 
ATOM      8 H    PHE I   4       2.704   0.857  10.091  1.00 14.49 LIG 0.16  HD
ATOM      9 O    ASN I   3       2.286   3.510  11.597  1.00 16.10 LIG-0.27  OA
BRANCH 7 10
ATOM     10  CA  PHE I   4       1.403   0.795  11.574  1.00 12.92 LIG 0.19  C 
BRANCH 10 11
ATOM     11  C   PHE I   4       0.194   1.693  11.638  1.00 14.32 LIG 0.20  C 
ATOM     12 OXT  PHE I   4       0.111   2.469  12.579  1.00 16.91 LIG-0.65  OA
ATOM     13 O    PHE I   4      -0.623   1.716  10.715  1.00 15.04 LIG-0.65  OA
ENDBRANCH 10 11
BRANCH 10 14
ATOM     14  CB  PHE I   4       2.005   0.614  12.956  1.00 13.46 LIG 0.07  C 
BRANCH 14 15
ATOM     15  CG  PHE I   4       3.319  -0.122  12.872  1.00 17.43 LIG-0.06  A 
ATOM     16  CD1 PHE I   4       4.519   0.603  12.879  1.00 19.70 LIG 0.01  A 
ATOM     17  CE1 PHE I   4       5.726  -0.070  12.825  1.00 18.46 LIG 0.00  A 
ATOM     18  CZ  PHE I   4       5.743  -1.458  12.764  1.00 20.27 LIG 0.00  A 
ATOM     19  CE2 PHE I   4       4.557  -2.188  12.756  1.00 19.92 LIG 0.00  A 
ATOM     20  CD2 PHE I   4       3.332  -1.521  12.809  1.00 19.48 LIG 0.01  A 
ENDBRANCH 14 15
ENDBRANCH 10 14
ENDBRANCH 7 10
ENDBRANCH 5 6
BRANCH 5 21
ATOM     21  CB  ASN I   3       3.220   3.214   8.382  1.00 15.02 LIG 0.14  C 
BRANCH 21 22
ATOM     22  CG  ASN I   3       1.734   3.548   8.483  1.00 21.09 LIG 0.22  C 
ATOM     23  ND2 ASN I   3       1.356   4.763   8.848  1.00 19.37 LIG-0.37  N 
ATOM     24 22HD ASN I   3       1.943   5.382   8.956  1.00 19.37 LIG 0.16  HD
ATOM     25 21HD ASN I   3       0.524   4.934   8.977  1.00 19.37 LIG 0.16  HD
ATOM     26 OD1  ASN I   3       0.861   2.694   8.341  1.00 22.58 LIG-0.27  OA
ENDBRANCH 21 22
ENDBRANCH 5 21
ENDBRANCH 3 5
BRANCH 1 27
ATOM     27  CA  LEU I   2       7.132   1.433  10.035  1.00 19.34 LIG 0.18  C 
BRANCH 27 28
ATOM     28  N   LEU I   2       7.086   1.220   8.606  1.00 20.62 LIG-0.35  N 
ATOM     29 H    LEU I   2       6.598   1.772   8.161  1.00 20.62 LIG 0.16  HD
ATOM     30  C   SER I   1       7.779   0.213   8.083  1.00 28.29 LIG 0.24  C 
ATOM     31 O    SER I   1       8.410  -0.603   8.792  1.00 21.19 LIG-0.27  OA
BRANCH 30 32
ATOM     32  CA  SER I   1       7.786   0.185   6.559  1.00 32.71 LIG 0.20  C 
BRANCH 32 33
ATOM     33  CB  SER I   1       6.368   0.370   6.100  1.00 35.86 LIG 0.20  C 
BRANCH 33 34
ATOM     34 OG   SER I   1       6.145  -0.937   5.653  1.00 39.84 LIG-0.40  OA
ATOM     35 HG   SER I   1       6.226  -1.471   6.296  1.00 39.84 LIG 0.21  HD
ENDBRANCH 33 34
ENDBRANCH 32 33
BRANCH 32 36
ATOM     36  N   SER I   1       8.337  -1.139   6.289  1.00 41.50 LIG-0.35  N 
ATOM     37  C   ACE I   0       9.374  -1.518   5.516  1.00 42.61 LIG 0.21  C 
ATOM     38 O    ACE I   0      10.146  -0.774   4.908  0.00 41.61 LIG-0.27  OA
ATOM     39  CH3 ACE I   0       9.580  -3.024   5.493  0.00 41.50 LIG 0.12  C 
ATOM     40 H    SER I   1       7.890  -1.737   6.716  1.00 41.50 LIG 0.16  HD
ENDBRANCH 32 36
ENDBRANCH 30 32
ENDBRANCH 27 28
BRANCH 27 41
ATOM     41  CB  LEU I   2       8.442   2.003  10.458  1.00 22.58 LIG 0.04  C 
BRANCH 41 42
ATOM     42  CG  LEU I   2       9.027   1.189  11.618  1.00 27.49 LIG-0.02  C 
ATOM     43  CD2 LEU I   2       9.033   2.006  12.920  1.00 25.10 LIG 0.01  C 
ATOM     44  CD1 LEU I   2      10.403   0.712  11.203  1.00 31.16 LIG 0.01  C 
ENDBRANCH 41 42
ENDBRANCH 27 41
ENDBRANCH 1 27
TORSDOF 16
ENDMDL
MODEL 11
USER: ADFR SOLUTION from run 50
USER: SCORE 16.835833 LL:  -3.971 LR: -13.309 RR:   0.000 FEB:  -8.536
USER: RMSD 4.792181
USER: SEED 49
USER: STATUS no improvement in best in 10 clusters for 5 generations
USER: GENES 18
USER: genes 0 Translation |==|  0.51025 0.34509 0.59054
USER: genes 1 Rotation |==|  0.33861 0.75996 0.11352 0.58372
USER: genes 2 Torsion [C]-N--CA-[C] |==|  0.17222
USER: genes 3 Torsion [N]-CA--C-[N] |==|  0.07549
USER: genes 4 Torsion [C]-N--CA-[C] |==|  0.58149
USER: genes 5 Torsion [N]-CA--C-[O] |==|  0.99479
USER: genes 6 Torsion [N]-CA--CB-[CG] |==|  0.76964
USER: genes 7 Torsion [CA]-CB--CG-[CD1] |==|  0.40348
USER: genes 8 Torsion [N]-CA--CB-[CG] |==|  0.86921
USER: genes 9 Torsion [CA]-CB--CG-[OD1] |==|  0.37888
USER: genes 10 Torsion [N]-C--CA-[N] |==|  0.35834
USER: genes 11 Torsion [C]-CA--N-[C] |==|  0.66078
USER: genes 12 Torsion [N]-C--CA-[N] |==|  0.35009
USER: genes 13 Torsion [C]-CA--CB-[OG] |==|  0.60262
USER: genes 14 Torsion [CA]-CB--OG-[HG] |==|  0.24162
USER: genes 15 Torsion [C]-CA--N-[C] |==|  0.68568
USER: genes 16 Torsion [C]-CA--CB-[CG] |==|  0.46036
USER: genes 17 Torsion [CA]-CB--CG-[CD2] |==|  0.21837
ROOT
ATOM      1  C   LEU I   2       4.065   0.838  12.299  1.00 17.40 LIG 0.24  C 
ATOM      2 O    LEU I   2       4.715   0.094  11.590  1.00 17.46 LIG-0.27  OA
ATOM      3  N   ASN I   3       4.391   1.162  13.537  1.00 16.24 LIG-0.35  N 
ATOM      4 H    ASN I   3       3.888   1.625  14.059  1.00 16.24 LIG 0.16  HD
ENDROOT
BRANCH 3 5
ATOM      5  CA  ASN I   3       5.641   0.759  14.125  1.00 15.86 LIG 0.18  C 
BRANCH 5 6
ATOM      6  C   ASN I   3       6.790   1.366  13.344  1.00 15.05 LIG 0.24  C 
ATOM      7  N   PHE I   4       6.497   2.512  12.716  1.00 14.49 LIG-0.34  N 
ATOM      8 H    PHE I   4       5.719   2.879  12.735  1.00 14.49 LIG 0.16  HD
ATOM      9 O    ASN I   3       7.899   0.779  13.302  1.00 16.10 LIG-0.27  OA
BRANCH 7 10
ATOM     10  CA  PHE I   4       7.485   3.252  11.934  1.00 12.92 LIG 0.19  C 
BRANCH 10 11
ATOM     11  C   PHE I   4       7.137   4.718  11.980  1.00 14.32 LIG 0.20  C 
ATOM     12 OXT  PHE I   4       7.820   5.485  11.316  1.00 16.91 LIG-0.65  OA
ATOM     13 O    PHE I   4       6.134   5.110  12.580  1.00 15.04 LIG-0.65  OA
ENDBRANCH 10 11
BRANCH 10 14
ATOM     14  CB  PHE I   4       7.487   2.750  10.501  1.00 13.46 LIG 0.07  C 
BRANCH 14 15
ATOM     15  CG  PHE I   4       8.338   1.511  10.373  1.00 17.43 LIG-0.06  A 
ATOM     16  CD1 PHE I   4       7.961   0.504   9.473  1.00 19.70 LIG 0.01  A 
ATOM     17  CE1 PHE I   4       8.752  -0.623   9.337  1.00 18.46 LIG 0.00  A 
ATOM     18  CZ  PHE I   4       9.912  -0.751  10.091  1.00 20.27 LIG 0.00  A 
ATOM     19  CE2 PHE I   4      10.295   0.244  10.987  1.00 19.92 LIG 0.00  A 
ATOM     20  CD2 PHE I   4       9.506   1.385  11.136  1.00 19.48 LIG 0.01  A 
ENDBRANCH 14 15
ENDBRANCH 10 14
ENDBRANCH 7 10
ENDBRANCH 5 6
BRANCH 5 21
ATOM     21  CB  ASN I   3       5.712  -0.759  14.099  1.00 15.02 LIG 0.14  C 
BRANCH 21 22
ATOM     22  CG  ASN I   3       4.395  -1.335  14.612  1.00 21.09 LIG 0.22  C 
ATOM     23  ND2 ASN I   3       3.883  -0.892  15.750  1.00 19.37 LIG-0.37  N 
ATOM     24 22HD ASN I   3       4.251  -0.232  16.159  1.00 19.37 LIG 0.16  HD
ATOM     25 21HD ASN I   3       3.181  -1.263  16.080  1.00 19.37 LIG 0.16  HD
ATOM     26 OD1  ASN I   3       3.836  -2.280  14.061  1.00 22.58 LIG-0.27  OA
ENDBRANCH 21 22
ENDBRANCH 5 21
ENDBRANCH 3 5
BRANCH 1 27
ATOM     27  CA  LEU I   2       2.862   1.475  11.737  1.00 19.34 LIG 0.18  C 
BRANCH 27 28
ATOM     28  N   LEU I   2       3.293   2.015  10.467  1.00 20.62 LIG-0.35  N 
ATOM     29 H    LEU I   2       3.624   1.447   9.913  1.00 20.62 LIG 0.16  HD
ATOM     30  C   SER I   1       3.157   3.318  10.243  1.00 28.29 LIG 0.24  C 
ATOM     31 O    SER I   1       2.738   4.108  11.120  1.00 21.19 LIG-0.27  OA
BRANCH 30 32
ATOM     32  CA  SER I   1       3.492   3.745   8.818  1.00 32.71 LIG 0.20  C 
BRANCH 32 33
ATOM     33  CB  SER I   1       4.720   4.607   8.885  1.00 35.86 LIG 0.20  C 
BRANCH 33 34
ATOM     34 OG   SER I   1       4.364   5.516   7.882  1.00 39.84 LIG-0.40  OA
ATOM     35 HG   SER I   1       3.906   6.136   8.215  1.00 39.84 LIG 0.21  HD
ENDBRANCH 33 34
ENDBRANCH 32 33
BRANCH 32 36
ATOM     36  N   SER I   1       2.279   4.457   8.428  1.00 41.50 LIG-0.35  N 
ATOM     37  C   ACE I   0       1.343   4.158   7.506  1.00 42.61 LIG 0.21  C 
ATOM     38 O    ACE I   0       1.288   3.135   6.822  0.00 41.61 LIG-0.27  OA
ATOM     39  CH3 ACE I   0       0.252   5.212   7.402  0.00 41.50 LIG 0.12  C 
ATOM     40 H    SER I   1       2.197   5.176   8.893  1.00 41.50 LIG 0.16  HD
ENDBRANCH 32 36
ENDBRANCH 30 32
ENDBRANCH 27 28
BRANCH 27 41
ATOM     41  CB  LEU I   2       1.786   0.460  11.559  1.00 22.58 LIG 0.04  C 
BRANCH 41 42
ATOM     42  CG  LEU I   2       0.438   1.149  11.318  1.00 27.49 LIG-0.02  C 
ATOM     43  CD2 LEU I   2       0.319   1.637   9.865  1.00 25.10 LIG 0.01  C 
ATOM     44  CD1 LEU I   2       0.295   2.259  12.337  1.00 31.16 LIG 0.01  C 
ENDBRANCH 41 42
ENDBRANCH 27 41
ENDBRANCH 1 27
TORSDOF 16
ENDMDL
MODEL 12
USER: ADFR SOLUTION from run 159
USER: SCORE 16.831120 LL:  -4.053 LR: -13.301 RR:   0.000 FEB:  -8.528
USER: RMSD 6.997938
USER: SEED 158
USER: STATUS no improvement in best in 3 clusters for 5 generations
USER: GENES 18
USER: genes 0 Translation |==|  0.43725 0.43286 0.54715
USER: genes 1 Rotation |==|  0.40549 0.90578 0.76802 0.56762
USER: genes 2 Torsion [C]-N--CA-[C] |==|  0.14486
USER: genes 3 Torsion [N]-CA--C-[N] |==|  0.13889
USER: genes 4 Torsion [C]-N--CA-[C] |==|  0.81211
USER: genes 5 Torsion [N]-CA--C-[O] |==|  0.95650
USER: genes 6 Torsion [N]-CA--CB-[CG] |==|  0.17397
USER: genes 7 Torsion [CA]-CB--CG-[CD1] |==|  0.28917
USER: genes 8 Torsion [N]-CA--CB-[CG] |==|  0.83606
USER: genes 9 Torsion [CA]-CB--CG-[OD1] |==|  0.87672
USER: genes 10 Torsion [N]-C--CA-[N] |==|  0.31500
USER: genes 11 Torsion [C]-CA--N-[C] |==|  0.76890
USER: genes 12 Torsion [N]-C--CA-[N] |==|  0.16656
USER: genes 13 Torsion [C]-CA--CB-[OG] |==|  0.56910
USER: genes 14 Torsion [CA]-CB--OG-[HG] |==|  0.79598
USER: genes 15 Torsion [C]-CA--N-[C] |==|  0.14554
USER: genes 16 Torsion [C]-CA--CB-[CG] |==|  0.24040
USER: genes 17 Torsion [CA]-CB--CG-[CD2] |==|  0.02681
ROOT
ATOM      1  C   LEU I   2       2.805   2.352  11.421  1.00 17.40 LIG 0.24  C 
ATOM      2 O    LEU I   2       2.651   3.428  11.966  1.00 17.46 LIG-0.27  OA
ATOM      3  N   ASN I   3       3.418   2.184  10.264  1.00 16.24 LIG-0.35  N 
ATOM      4 H    ASN I   3       3.455   1.432   9.847  1.00 16.24 LIG 0.16  HD
ENDROOT
BRANCH 3 5
ATOM      5  CA  ASN I   3       4.088   3.265   9.592  1.00 15.86 LIG 0.18  C 
BRANCH 5 6
ATOM      6  C   ASN I   3       5.055   3.936  10.547  1.00 15.05 LIG 0.24  C 
ATOM      7  N   PHE I   4       5.877   3.099  11.193  1.00 14.49 LIG-0.34  N 
ATOM      8 H    PHE I   4       5.858   2.245  11.094  1.00 14.49 LIG 0.16  HD
ATOM      9 O    ASN I   3       5.023   5.181  10.700  1.00 16.10 LIG-0.27  OA
BRANCH 7 10
ATOM     10  CA  PHE I   4       6.890   3.567  12.135  1.00 12.92 LIG 0.19  C 
BRANCH 10 11
ATOM     11  C   PHE I   4       7.943   4.331  11.372  1.00 14.32 LIG 0.20  C 
ATOM     12 OXT  PHE I   4       8.773   4.954  12.018  1.00 16.91 LIG-0.65  OA
ATOM     13 O    PHE I   4       8.024   4.237  10.146  1.00 15.04 LIG-0.65  OA
ENDBRANCH 10 11
BRANCH 10 14
ATOM     14  CB  PHE I   4       7.509   2.382  12.855  1.00 13.46 LIG 0.07  C 
BRANCH 14 15
ATOM     15  CG  PHE I   4       8.216   1.475  11.878  1.00 17.43 LIG-0.06  A 
ATOM     16  CD1 PHE I   4       9.616   1.494  11.806  1.00 19.70 LIG 0.01  A 
ATOM     17  CE1 PHE I   4      10.267   0.648  10.926  1.00 18.46 LIG 0.00  A 
ATOM     18  CZ  PHE I   4       9.532  -0.214  10.122  1.00 20.27 LIG 0.00  A 
ATOM     19  CE2 PHE I   4       8.141  -0.241  10.186  1.00 19.92 LIG 0.00  A 
ATOM     20  CD2 PHE I   4       7.471   0.609  11.068  1.00 19.48 LIG 0.01  A 
ENDBRANCH 14 15
ENDBRANCH 10 14
ENDBRANCH 7 10
ENDBRANCH 5 6
BRANCH 5 21
ATOM     21  CB  ASN I   3       3.035   4.250   9.108  1.00 15.02 LIG 0.14  C 
BRANCH 21 22
ATOM     22  CG  ASN I   3       2.071   3.535   8.165  1.00 21.09 LIG 0.22  C 
ATOM     23  ND2 ASN I   3       0.765   3.638   8.359  1.00 19.37 LIG-0.37  N 
ATOM     24 22HD ASN I   3       0.461   4.164   8.966  1.00 19.37 LIG 0.16  HD
ATOM     25 21HD ASN I   3       0.221   3.179   7.876  1.00 19.37 LIG 0.16  HD
ATOM     26 OD1  ASN I   3       2.463   2.771   7.286  1.00 22.58 LIG-0.27  OA
ENDBRANCH 21 22
ENDBRANCH 5 21
ENDBRANCH 3 5
BRANCH 1 27
ATOM     27  CA  LEU I   2       2.337   1.139  12.111  1.00 19.34 LIG 0.18  C 
BRANCH 27 28
ATOM     28  N   LEU I   2       3.147   1.061  13.306  1.00 20.62 LIG-0.35  N 
ATOM     29 H    LEU I   2       2.791   1.382  14.020  1.00 20.62 LIG 0.16  HD
ATOM     30  C   SER I   1       4.356   0.514  13.229  1.00 28.29 LIG 0.24  C 
ATOM     31 O    SER I   1       4.849   0.132  12.144  1.00 21.19 LIG-0.27  OA
BRANCH 30 32
ATOM     32  CA  SER I   1       5.049   0.339  14.576  1.00 32.71 LIG 0.20  C 
BRANCH 32 33
ATOM     33  CB  SER I   1       6.393  -0.277  14.312  1.00 35.86 LIG 0.20  C 
BRANCH 33 34
ATOM     34 OG   SER I   1       6.572  -0.876  15.565  1.00 39.84 LIG-0.40  OA
ATOM     35 HG   SER I   1       6.746  -0.284  16.136  1.00 39.84 LIG 0.21  HD
ENDBRANCH 33 34
ENDBRANCH 32 33
BRANCH 32 36
ATOM     36  N   SER I   1       4.115  -0.534  15.279  1.00 41.50 LIG-0.35  N 
ATOM     37  C   ACE I   0       3.571  -1.713  14.918  1.00 42.61 LIG 0.21  C 
ATOM     38 O    ACE I   0       3.823  -2.353  13.895  0.00 41.61 LIG-0.27  OA
ATOM     39  CH3 ACE I   0       2.607  -2.267  15.955  0.00 41.50 LIG 0.12  C 
ATOM     40 H    SER I   1       3.912  -0.194  16.043  1.00 41.50 LIG 0.16  HD
ENDBRANCH 32 36
ENDBRANCH 30 32
ENDBRANCH 27 28
BRANCH 27 41
ATOM     41  CB  LEU I   2       0.890   1.270  12.442  1.00 22.58 LIG 0.04  C 
BRANCH 41 42
ATOM     42  CG  LEU I   2       0.029   0.809  11.260  1.00 27.49 LIG-0.02  C 
ATOM     43  CD2 LEU I   2       0.888   0.128  10.183  1.00 25.10 LIG 0.01  C 
ATOM     44  CD1 LEU I   2      -0.736   2.010  10.746  1.00 31.16 LIG 0.01  C 
ENDBRANCH 41 42
ENDBRANCH 27 41
ENDBRANCH 1 27
TORSDOF 16
ENDMDL
MODEL 13
USER: ADFR SOLUTION from run 15
USER: SCORE 15.067453 LL:  -3.056 LR: -13.275 RR:   0.000 FEB:  -8.502
USER: RMSD 5.605259
USER: SEED 309194
USER: STATUS no improvement in best in 14 clusters for 5 generations
USER: GENES 18
USER: genes 0 Translation |==|  0.46226 0.46881 0.50435
USER: genes 1 Rotation |==|  0.51333 0.50854 0.50232 0.99974
USER: genes 2 Torsion [C]-N--CA-[C] |==|  0.60987
USER: genes 3 Torsion [N]-CA--C-[N] |==|  0.50728
USER: genes 4 Torsion [C]-N--CA-[C] |==|  0.80105
USER: genes 5 Torsion [N]-CA--C-[O] |==|  0.74957
USER: genes 6 Torsion [N]-CA--CB-[CG] |==|  0.55466
USER: genes 7 Torsion [CA]-CB--CG-[CD1] |==|  0.14015
USER: genes 8 Torsion [N]-CA--CB-[CG] |==|  0.82571
USER: genes 9 Torsion [CA]-CB--CG-[OD1] |==|  0.80834
USER: genes 10 Torsion [N]-C--CA-[N] |==|  0.88965
USER: genes 11 Torsion [C]-CA--N-[C] |==|  0.74721
USER: genes 12 Torsion [N]-C--CA-[N] |==|  0.75000
USER: genes 13 Torsion [C]-CA--CB-[OG] |==|  0.57197
USER: genes 14 Torsion [CA]-CB--OG-[HG] |==|  0.27067
USER: genes 15 Torsion [C]-CA--N-[C] |==|  0.70810
USER: genes 16 Torsion [C]-CA--CB-[CG] |==|  0.39073
USER: genes 17 Torsion [CA]-CB--CG-[CD2] |==|  0.58584
ROOT
ATOM      1  C   LEU I   2       3.237   2.972  10.554  1.00 17.40 LIG 0.24  C 
ATOM      2 O    LEU I   2       2.989   3.824  11.386  1.00 17.46 LIG-0.27  OA
ATOM      3  N   ASN I   3       3.227   1.673  10.791  1.00 16.24 LIG-0.35  N 
ATOM      4 H    ASN I   3       3.479   1.081  10.220  1.00 16.24 LIG 0.16  HD
ENDROOT
BRANCH 3 5
ATOM      5  CA  ASN I   3       2.786   1.132  12.049  1.00 15.86 LIG 0.18  C 
BRANCH 5 6
ATOM      6  C   ASN I   3       3.680  -0.026  12.446  1.00 15.05 LIG 0.24  C 
ATOM      7  N   PHE I   4       3.327  -0.644  13.580  1.00 14.49 LIG-0.34  N 
ATOM      8 H    PHE I   4       2.656  -0.404  14.062  1.00 14.49 LIG 0.16  HD
ATOM      9 O    ASN I   3       4.677  -0.319  11.742  1.00 16.10 LIG-0.27  OA
BRANCH 7 10
ATOM     10  CA  PHE I   4       4.057  -1.794  14.106  1.00 12.92 LIG 0.19  C 
BRANCH 10 11
ATOM     11  C   PHE I   4       3.778  -2.987  13.226  1.00 14.32 LIG 0.20  C 
ATOM     12 OXT  PHE I   4       4.582  -3.240  12.341  1.00 16.91 LIG-0.65  OA
ATOM     13 O    PHE I   4       2.831  -3.738  13.466  1.00 15.04 LIG-0.65  OA
ENDBRANCH 10 11
BRANCH 10 14
ATOM     14  CB  PHE I   4       3.619  -2.072  15.533  1.00 13.46 LIG 0.07  C 
BRANCH 14 15
ATOM     15  CG  PHE I   4       4.651  -2.904  16.253  1.00 17.43 LIG-0.06  A 
ATOM     16  CD1 PHE I   4       5.997  -2.511  16.228  1.00 19.70 LIG 0.01  A 
ATOM     17  CE1 PHE I   4       6.941  -3.261  16.906  1.00 18.46 LIG 0.00  A 
ATOM     18  CZ  PHE I   4       6.552  -4.396  17.607  1.00 20.27 LIG 0.00  A 
ATOM     19  CE2 PHE I   4       5.218  -4.795  17.638  1.00 19.92 LIG 0.00  A 
ATOM     20  CD2 PHE I   4       4.255  -4.049  16.957  1.00 19.48 LIG 0.01  A 
ENDBRANCH 14 15
ENDBRANCH 10 14
ENDBRANCH 7 10
ENDBRANCH 5 6
BRANCH 5 21
ATOM     21  CB  ASN I   3       1.345   0.671  11.890  1.00 15.02 LIG 0.14  C 
BRANCH 21 22
ATOM     22  CG  ASN I   3       0.464   1.875  11.563  1.00 21.09 LIG 0.22  C 
ATOM     23  ND2 ASN I   3       0.020   2.047  10.328  1.00 19.37 LIG-0.37  N 
ATOM     24 22HD ASN I   3       0.164   1.447   9.731  1.00 19.37 LIG 0.16  HD
ATOM     25 21HD ASN I   3      -0.414   2.761  10.123  1.00 19.37 LIG 0.16  HD
ATOM     26 OD1  ASN I   3       0.235   2.759  12.385  1.00 22.58 LIG-0.27  OA
ENDBRANCH 21 22
ENDBRANCH 5 21
ENDBRANCH 3 5
BRANCH 1 27
ATOM     27  CA  LEU I   2       3.509   3.397   9.171  1.00 19.34 LIG 0.18  C 
BRANCH 27 28
ATOM     28  N   LEU I   2       4.544   2.499   8.708  1.00 20.62 LIG-0.35  N 
ATOM     29 H    LEU I   2       4.270   1.770   8.344  1.00 20.62 LIG 0.16  HD
ATOM     30  C   SER I   1       5.816   2.847   8.871  1.00 28.29 LIG 0.24  C 
ATOM     31 O    SER I   1       6.153   3.889   9.478  1.00 21.19 LIG-0.27  OA
BRANCH 30 32
ATOM     32  CA  SER I   1       6.811   1.905   8.202  1.00 32.71 LIG 0.20  C 
BRANCH 32 33
ATOM     33  CB  SER I   1       6.138   1.327   6.991  1.00 35.86 LIG 0.20  C 
BRANCH 33 34
ATOM     34 OG   SER I   1       6.874   0.139   6.918  1.00 39.84 LIG-0.40  OA
ATOM     35 HG   SER I   1       6.440  -0.482   7.283  1.00 39.84 LIG 0.21  HD
ENDBRANCH 33 34
ENDBRANCH 32 33
BRANCH 32 36
ATOM     36  N   SER I   1       7.067   0.939   9.265  1.00 41.50 LIG-0.35  N 
ATOM     37  C   ACE I   0       8.135   0.783  10.073  1.00 42.61 LIG 0.21  C 
ATOM     38 O    ACE I   0       9.130   1.507  10.120  0.00 41.61 LIG-0.27  OA
ATOM     39  CH3 ACE I   0       7.992  -0.392  11.028  0.00 41.50 LIG 0.12  C 
ATOM     40 H    SER I   1       6.396   0.408   9.348  1.00 41.50 LIG 0.16  HD
ENDBRANCH 32 36
ENDBRANCH 30 32
ENDBRANCH 27 28
BRANCH 27 41
ATOM     41  CB  LEU I   2       2.272   3.271   8.349  1.00 22.58 LIG 0.04  C 
BRANCH 41 42
ATOM     42  CG  LEU I   2       2.151   4.456   7.383  1.00 27.49 LIG-0.02  C 
ATOM     43  CD2 LEU I   2       0.678   4.796   7.107  1.00 25.10 LIG 0.01  C 
ATOM     44  CD1 LEU I   2       2.933   4.116   6.132  1.00 31.16 LIG 0.01  C 
ENDBRANCH 41 42
ENDBRANCH 27 41
ENDBRANCH 1 27
TORSDOF 16
ENDMDL
MODEL 14
USER: ADFR SOLUTION from run 193
USER: SCORE 17.144201 LL:  -3.982 LR: -13.280 RR:   0.000 FEB:  -8.507
USER: RMSD 7.485035
USER: SEED 192
USER: STATUS no improvement in best in 2 clusters for 5 generations
USER: GENES 18
USER: genes 0 Translation |==|  0.53125 0.32694 0.62083
USER: genes 1 Rotation |==|  0.01353 0.43050 0.41107 0.52460
USER: genes 2 Torsion [C]-N--CA-[C] |==|  0.72259
USER: genes 3 Torsion [N]-CA--C-[N] |==|  0.97450
USER: genes 4 Torsion [C]-N--CA-[C] |==|  0.23236
USER: genes 5 Torsion [N]-CA--C-[O] |==|  0.50007
USER: genes 6 Torsion [N]-CA--CB-[CG] |==|  0.80004
USER: genes 7 Torsion [CA]-CB--CG-[CD1] |==|  0.33594
USER: genes 8 Torsion [N]-CA--CB-[CG] |==|  0.78358
USER: genes 9 Torsion [CA]-CB--CG-[OD1] |==|  0.38735
USER: genes 10 Torsion [N]-C--CA-[N] |==|  0.42927
USER: genes 11 Torsion [C]-CA--N-[C] |==|  0.80003
USER: genes 12 Torsion [N]-C--CA-[N] |==|  0.98361
USER: genes 13 Torsion [C]-CA--CB-[OG] |==|  0.39550
USER: genes 14 Torsion [CA]-CB--OG-[HG] |==|  0.66122
USER: genes 15 Torsion [C]-CA--N-[C] |==|  0.75663
USER: genes 16 Torsion [C]-CA--CB-[CG] |==|  0.91521
USER: genes 17 Torsion [CA]-CB--CG-[CD2] |==|  0.71303
ROOT
ATOM      1  C   LEU I   2       4.427   0.525  12.913  1.00 17.40 LIG 0.24  C 
ATOM      2 O    LEU I   2       4.704  -0.288  12.051  1.00 17.46 LIG-0.27  OA
ATOM      3  N   ASN I   3       4.131   1.789  12.677  1.00 16.24 LIG-0.35  N 
ATOM      4 H    ASN I   3       4.013   2.376  13.295  1.00 16.24 LIG 0.16  HD
ENDROOT
BRANCH 3 5
ATOM      5  CA  ASN I   3       3.978   2.299  11.340  1.00 15.86 LIG 0.18  C 
BRANCH 5 6
ATOM      6  C   ASN I   3       5.246   3.016  10.921  1.00 15.05 LIG 0.24  C 
ATOM      7  N   PHE I   4       6.138   3.198  11.904  1.00 14.49 LIG-0.34  N 
ATOM      8 H    PHE I   4       6.008   2.946  12.716  1.00 14.49 LIG 0.16  HD
ATOM      9 O    ASN I   3       5.382   3.410   9.738  1.00 16.10 LIG-0.27  OA
BRANCH 7 10
ATOM     10  CA  PHE I   4       7.427   3.848  11.682  1.00 12.92 LIG 0.19  C 
BRANCH 10 11
ATOM     11  C   PHE I   4       7.233   5.342  11.754  1.00 14.32 LIG 0.20  C 
ATOM     12 OXT  PHE I   4       6.130   5.757  12.078  1.00 16.91 LIG-0.65  OA
ATOM     13 O    PHE I   4       8.185   6.108  11.596  1.00 15.04 LIG-0.65  OA
ENDBRANCH 10 11
BRANCH 10 14
ATOM     14  CB  PHE I   4       7.978   3.447  10.325  1.00 13.46 LIG 0.07  C 
BRANCH 14 15
ATOM     15  CG  PHE I   4       8.444   2.013  10.343  1.00 17.43 LIG-0.06  A 
ATOM     16  CD1 PHE I   4       7.874   1.090   9.454  1.00 19.70 LIG 0.01  A 
ATOM     17  CE1 PHE I   4       8.316  -0.221   9.452  1.00 18.46 LIG 0.00  A 
ATOM     18  CZ  PHE I   4       9.318  -0.615  10.329  1.00 20.27 LIG 0.00  A 
ATOM     19  CE2 PHE I   4       9.891   0.293  11.216  1.00 19.92 LIG 0.00  A 
ATOM     20  CD2 PHE I   4       9.454   1.619  11.229  1.00 19.48 LIG 0.01  A 
ENDBRANCH 14 15
ENDBRANCH 10 14
ENDBRANCH 7 10
ENDBRANCH 5 6
BRANCH 5 21
ATOM     21  CB  ASN I   3       2.791   3.249  11.326  1.00 15.02 LIG 0.14  C 
BRANCH 21 22
ATOM     22  CG  ASN I   3       1.497   2.439  11.303  1.00 21.09 LIG 0.22  C 
ATOM     23  ND2 ASN I   3       1.372   1.424  10.463  1.00 19.37 LIG-0.37  N 
ATOM     24 22HD ASN I   3       2.042   1.176   9.985  1.00 19.37 LIG 0.16  HD
ATOM     25 21HD ASN I   3       0.620   1.012  10.394  1.00 19.37 LIG 0.16  HD
ATOM     26 OD1  ASN I   3       0.513   2.760  11.966  1.00 22.58 LIG-0.27  OA
ENDBRANCH 21 22
ENDBRANCH 5 21
ENDBRANCH 3 5
BRANCH 1 27
ATOM     27  CA  LEU I   2       4.354   0.071  14.312  1.00 19.34 LIG 0.18  C 
BRANCH 27 28
ATOM     28  N   LEU I   2       4.109  -1.351  14.224  1.00 20.62 LIG-0.35  N 
ATOM     29 H    LEU I   2       4.770  -1.858  14.438  1.00 20.62 LIG 0.16  HD
ATOM     30  C   SER I   1       2.912  -1.774  13.830  1.00 28.29 LIG 0.24  C 
ATOM     31 O    SER I   1       2.013  -0.986  13.458  1.00 21.19 LIG-0.27  OA
BRANCH 30 32
ATOM     32  CA  SER I   1       2.718  -3.283  13.931  1.00 32.71 LIG 0.20  C 
BRANCH 32 33
ATOM     33  CB  SER I   1       1.659  -3.531  14.966  1.00 35.86 LIG 0.20  C 
BRANCH 33 34
ATOM     34 OG   SER I   1       1.029  -4.608  14.333  1.00 39.84 LIG-0.40  OA
ATOM     35 HG   SER I   1       0.219  -4.424  14.205  1.00 39.84 LIG 0.21  HD
ENDBRANCH 33 34
ENDBRANCH 32 33
BRANCH 32 36
ATOM     36  N   SER I   1       4.053  -3.728  14.318  1.00 41.50 LIG-0.35  N 
ATOM     37  C   ACE I   0       5.123  -4.055  13.567  1.00 42.61 LIG 0.21  C 
ATOM     38 O    ACE I   0       5.210  -3.972  12.341  0.00 41.61 LIG-0.27  OA
ATOM     39  CH3 ACE I   0       6.316  -4.507  14.394  0.00 41.50 LIG 0.12  C 
ATOM     40 H    SER I   1       4.112  -3.772  15.175  1.00 41.50 LIG 0.16  HD
ENDBRANCH 32 36
ENDBRANCH 30 32
ENDBRANCH 27 28
BRANCH 27 41
ATOM     41  CB  LEU I   2       5.640   0.360  15.006  1.00 22.58 LIG 0.04  C 
BRANCH 41 42
ATOM     42  CG  LEU I   2       6.807   0.300  14.013  1.00 27.49 LIG-0.02  C 
ATOM     43  CD2 LEU I   2       7.599  -1.009  14.168  1.00 25.10 LIG 0.01  C 
ATOM     44  CD1 LEU I   2       7.652   1.539  14.216  1.00 31.16 LIG 0.01  C 
ENDBRANCH 41 42
ENDBRANCH 27 41
ENDBRANCH 1 27
TORSDOF 16
ENDMDL
MODEL 15
USER: ADFR SOLUTION from run 177
USER: SCORE 16.005125 LL:  -4.066 LR: -13.274 RR:   0.000 FEB:  -8.501
USER: RMSD 5.303148
USER: SEED 176
USER: STATUS no improvement in best in 4 clusters for 5 generations
USER: GENES 18
USER: genes 0 Translation |==|  0.47981 0.33133 0.59045
USER: genes 1 Rotation |==|  0.67093 0.26406 0.90627 0.50747
USER: genes 2 Torsion [C]-N--CA-[C] |==|  0.14097
USER: genes 3 Torsion [N]-CA--C-[N] |==|  0.20556
USER: genes 4 Torsion [C]-N--CA-[C] |==|  0.74042
USER: genes 5 Torsion [N]-CA--C-[O] |==|  0.86346
USER: genes 6 Torsion [N]-CA--CB-[CG] |==|  0.06596
USER: genes 7 Torsion [CA]-CB--CG-[CD1] |==|  0.25550
USER: genes 8 Torsion [N]-CA--CB-[CG] |==|  0.62866
USER: genes 9 Torsion [CA]-CB--CG-[OD1] |==|  0.71498
USER: genes 10 Torsion [N]-C--CA-[N] |==|  0.29656
USER: genes 11 Torsion [C]-CA--N-[C] |==|  0.64067
USER: genes 12 Torsion [N]-C--CA-[N] |==|  0.92080
USER: genes 13 Torsion [C]-CA--CB-[OG] |==|  0.67253
USER: genes 14 Torsion [CA]-CB--OG-[HG] |==|  0.17515
USER: genes 15 Torsion [C]-CA--N-[C] |==|  0.64700
USER: genes 16 Torsion [C]-CA--CB-[CG] |==|  0.43988
USER: genes 17 Torsion [CA]-CB--CG-[CD2] |==|  0.22835
ROOT
ATOM      1  C   LEU I   2       3.540   0.600  12.298  1.00 17.40 LIG 0.24  C 
ATOM      2 O    LEU I   2       3.854  -0.421  11.716  1.00 17.46 LIG-0.27  OA
ATOM      3  N   ASN I   3       4.174   1.084  13.349  1.00 16.24 LIG-0.35  N 
ATOM      4 H    ASN I   3       3.901   1.763  13.802  1.00 16.24 LIG 0.16  HD
ENDROOT
BRANCH 3 5
ATOM      5  CA  ASN I   3       5.399   0.505  13.834  1.00 15.86 LIG 0.18  C 
BRANCH 5 6
ATOM      6  C   ASN I   3       6.379   0.355  12.688  1.00 15.05 LIG 0.24  C 
ATOM      7  N   PHE I   4       6.935   1.501  12.272  1.00 14.49 LIG-0.34  N 
ATOM      8 H    PHE I   4       6.749   2.269  12.611  1.00 14.49 LIG 0.16  HD
ATOM      9 O    ASN I   3       6.592  -0.776  12.188  1.00 16.10 LIG-0.27  OA
BRANCH 7 10
ATOM     10  CA  PHE I   4       7.919   1.549  11.195  1.00 12.92 LIG 0.19  C 
BRANCH 10 11
ATOM     11  C   PHE I   4       9.300   1.485  11.798  1.00 14.32 LIG 0.20  C 
ATOM     12 OXT  PHE I   4      10.122   0.757  11.260  1.00 16.91 LIG-0.65  OA
ATOM     13 O    PHE I   4       9.613   2.224  12.733  1.00 15.04 LIG-0.65  OA
ENDBRANCH 10 11
BRANCH 10 14
ATOM     14  CB  PHE I   4       7.746   2.829  10.397  1.00 13.46 LIG 0.07  C 
BRANCH 14 15
ATOM     15  CG  PHE I   4       7.073   3.889  11.231  1.00 17.43 LIG-0.06  A 
ATOM     16  CD1 PHE I   4       7.855   4.790  11.968  1.00 19.70 LIG 0.01  A 
ATOM     17  CE1 PHE I   4       7.240   5.778  12.716  1.00 18.46 LIG 0.00  A 
ATOM     18  CZ  PHE I   4       5.854   5.871  12.734  1.00 20.27 LIG 0.00  A 
ATOM     19  CE2 PHE I   4       5.067   4.982  12.006  1.00 19.92 LIG 0.00  A 
ATOM     20  CD2 PHE I   4       5.675   3.980  11.248  1.00 19.48 LIG 0.01  A 
ENDBRANCH 14 15
ENDBRANCH 10 14
ENDBRANCH 7 10
ENDBRANCH 5 6
BRANCH 5 21
ATOM     21  CB  ASN I   3       5.075  -0.849  14.447  1.00 15.02 LIG 0.14  C 
BRANCH 21 22
ATOM     22  CG  ASN I   3       5.779  -0.972  15.797  1.00 21.09 LIG 0.22  C 
ATOM     23  ND2 ASN I   3       5.354  -0.258  16.827  1.00 19.37 LIG-0.37  N 
ATOM     24 22HD ASN I   3       4.641   0.216  16.757  1.00 19.37 LIG 0.16  HD
ATOM     25 21HD ASN I   3       5.792  -0.269  17.567  1.00 19.37 LIG 0.16  HD
ATOM     26 OD1  ASN I   3       6.803  -1.636  15.941  1.00 22.58 LIG-0.27  OA
ENDBRANCH 21 22
ENDBRANCH 5 21
ENDBRANCH 3 5
BRANCH 1 27
ATOM     27  CA  LEU I   2       2.417   1.394  11.771  1.00 19.34 LIG 0.18  C 
BRANCH 27 28
ATOM     28  N   LEU I   2       2.919   1.970  10.543  1.00 20.62 LIG-0.35  N 
ATOM     29 H    LEU I   2       3.285   1.418   9.995  1.00 20.62 LIG 0.16  HD
ATOM     30  C   SER I   1       2.787   3.278  10.345  1.00 28.29 LIG 0.24  C 
ATOM     31 O    SER I   1       2.312   4.042  11.216  1.00 21.19 LIG-0.27  OA
BRANCH 30 32
ATOM     32  CA  SER I   1       3.203   3.743   8.954  1.00 32.71 LIG 0.20  C 
BRANCH 32 33
ATOM     33  CB  SER I   1       1.977   3.719   8.087  1.00 35.86 LIG 0.20  C 
BRANCH 33 34
ATOM     34 OG   SER I   1       2.423   2.767   7.162  1.00 39.84 LIG-0.40  OA
ATOM     35 HG   SER I   1       2.551   2.035   7.554  1.00 39.84 LIG 0.21  HD
ENDBRANCH 33 34
ENDBRANCH 32 33
BRANCH 32 36
ATOM     36  N   SER I   1       4.211   2.751   8.598  1.00 41.50 LIG-0.35  N 
ATOM     37  C   ACE I   0       5.481   2.902   8.170  1.00 42.61 LIG 0.21  C 
ATOM     38 O    ACE I   0       6.094   3.964   8.056  0.00 41.61 LIG-0.27  OA
ATOM     39  CH3 ACE I   0       6.171   1.579   7.876  0.00 41.50 LIG 0.12  C 
ATOM     40 H    SER I   1       3.892   1.958   8.694  1.00 41.50 LIG 0.16  HD
ENDBRANCH 32 36
ENDBRANCH 30 32
ENDBRANCH 27 28
BRANCH 27 41
ATOM     41  CB  LEU I   2       1.245   0.510  11.518  1.00 22.58 LIG 0.04  C 
BRANCH 41 42
ATOM     42  CG  LEU I   2      -0.049   1.333  11.496  1.00 27.49 LIG-0.02  C 
ATOM     43  CD2 LEU I   2      -0.262   1.991  10.123  1.00 25.10 LIG 0.01  C 
ATOM     44  CD1 LEU I   2       0.014   2.328  12.634  1.00 31.16 LIG 0.01  C 
ENDBRANCH 41 42
ENDBRANCH 27 41
ENDBRANCH 1 27
TORSDOF 16
ENDMDL
MODEL 16
USER: ADFR SOLUTION from run 9
USER: SCORE 16.784103 LL:  -3.953 LR: -13.262 RR:   0.000 FEB:  -8.489
USER: RMSD 8.014861
USER: SEED 701190
USER: STATUS no improvement in best in 1 clusters for 5 generations
USER: GENES 18
USER: genes 0 Translation |==|  0.55499 0.34157 0.59524
USER: genes 1 Rotation |==|  0.03788 0.33697 0.59484 0.52954
USER: genes 2 Torsion [C]-N--CA-[C] |==|  0.67263
USER: genes 3 Torsion [N]-CA--C-[N] |==|  0.34202
USER: genes 4 Torsion [C]-N--CA-[C] |==|  0.57097
USER: genes 5 Torsion [N]-CA--C-[O] |==|  0.18630
USER: genes 6 Torsion [N]-CA--CB-[CG] |==|  0.08895
USER: genes 7 Torsion [CA]-CB--CG-[CD1] |==|  0.74191
USER: genes 8 Torsion [N]-CA--CB-[CG] |==|  0.51985
USER: genes 9 Torsion [CA]-CB--CG-[OD1] |==|  0.27434
USER: genes 10 Torsion [N]-C--CA-[N] |==|  0.31667
USER: genes 11 Torsion [C]-CA--N-[C] |==|  0.77939
USER: genes 12 Torsion [N]-C--CA-[N] |==|  0.94031
USER: genes 13 Torsion [C]-CA--CB-[OG] |==|  0.80858
USER: genes 14 Torsion [CA]-CB--OG-[HG] |==|  0.28612
USER: genes 15 Torsion [C]-CA--N-[C] |==|  0.75832
USER: genes 16 Torsion [C]-CA--CB-[CG] |==|  0.79020
USER: genes 17 Torsion [CA]-CB--CG-[CD2] |==|  0.76106
ROOT
ATOM      1  C   LEU I   2       4.837   0.777  12.395  1.00 17.40 LIG 0.24  C 
ATOM      2 O    LEU I   2       4.864  -0.101  11.553  1.00 17.46 LIG-0.27  OA
ATOM      3  N   ASN I   3       3.951   1.755  12.422  1.00 16.24 LIG-0.35  N 
ATOM      4 H    ASN I   3       3.984   2.416  12.973  1.00 16.24 LIG 0.16  HD
ENDROOT
BRANCH 3 5
ATOM      5  CA  ASN I   3       2.834   1.798  11.516  1.00 15.86 LIG 0.18  C 
BRANCH 5 6
ATOM      6  C   ASN I   3       2.931   3.037  10.648  1.00 15.05 LIG 0.24  C 
ATOM      7  N   PHE I   4       2.942   2.799   9.330  1.00 14.49 LIG-0.34  N 
ATOM      8 H    PHE I   4       2.913   2.009   8.990  1.00 14.49 LIG 0.16  HD
ATOM      9 O    ASN I   3       3.017   4.170  11.180  1.00 16.10 LIG-0.27  OA
BRANCH 7 10
ATOM     10  CA  PHE I   4       3.007   3.871   8.341  1.00 12.92 LIG 0.19  C 
BRANCH 10 11
ATOM     11  C   PHE I   4       2.390   3.381   7.055  1.00 14.32 LIG 0.20  C 
ATOM     12 OXT  PHE I   4       3.141   3.135   6.122  1.00 16.91 LIG-0.65  OA
ATOM     13 O    PHE I   4       1.185   3.135   6.989  1.00 15.04 LIG-0.65  OA
ENDBRANCH 10 11
BRANCH 10 14
ATOM     14  CB  PHE I   4       4.453   4.277   8.116  1.00 13.46 LIG 0.07  C 
BRANCH 14 15
ATOM     15  CG  PHE I   4       5.371   3.093   8.289  1.00 17.43 LIG-0.06  A 
ATOM     16  CD1 PHE I   4       5.952   2.845   9.541  1.00 19.70 LIG 0.01  A 
ATOM     17  CE1 PHE I   4       6.777   1.747   9.708  1.00 18.46 LIG 0.00  A 
ATOM     18  CZ  PHE I   4       7.024   0.897   8.636  1.00 20.27 LIG 0.00  A 
ATOM     19  CE2 PHE I   4       6.451   1.134   7.389  1.00 19.92 LIG 0.00  A 
ATOM     20  CD2 PHE I   4       5.619   2.239   7.206  1.00 19.48 LIG 0.01  A 
ENDBRANCH 14 15
ENDBRANCH 10 14
ENDBRANCH 7 10
ENDBRANCH 5 6
BRANCH 5 21
ATOM     21  CB  ASN I   3       1.554   1.811  12.337  1.00 15.02 LIG 0.14  C 
BRANCH 21 22
ATOM     22  CG  ASN I   3       0.354   1.677  11.403  1.00 21.09 LIG 0.22  C 
ATOM     23  ND2 ASN I   3      -0.179   2.760  10.858  1.00 19.37 LIG-0.37  N 
ATOM     24 22HD ASN I   3       0.193   3.526  10.971  1.00 19.37 LIG 0.16  HD
ATOM     25 21HD ASN I   3      -0.899   2.697  10.391  1.00 19.37 LIG 0.16  HD
ATOM     26 OD1  ASN I   3      -0.212   0.602  11.216  1.00 22.58 LIG-0.27  OA
ENDBRANCH 21 22
ENDBRANCH 5 21
ENDBRANCH 3 5
BRANCH 1 27
ATOM     27  CA  LEU I   2       5.812   0.728  13.497  1.00 19.34 LIG 0.18  C 
BRANCH 27 28
ATOM     28  N   LEU I   2       5.495  -0.488  14.212  1.00 20.62 LIG-0.35  N 
ATOM     29 H    LEU I   2       6.002  -1.163  14.044  1.00 20.62 LIG 0.16  HD
ATOM     30  C   SER I   1       4.472  -0.487  15.060  1.00 28.29 LIG 0.24  C 
ATOM     31 O    SER I   1       3.724   0.506  15.205  1.00 21.19 LIG-0.27  OA
BRANCH 30 32
ATOM     32  CA  SER I   1       4.334  -1.769  15.874  1.00 32.71 LIG 0.20  C 
BRANCH 32 33
ATOM     33  CB  SER I   1       4.948  -1.514  17.221  1.00 35.86 LIG 0.20  C 
BRANCH 33 34
ATOM     34 OG   SER I   1       6.281  -1.422  16.803  1.00 39.84 LIG-0.40  OA
ATOM     35 HG   SER I   1       6.513  -0.614  16.782  1.00 39.84 LIG 0.21  HD
ENDBRANCH 33 34
ENDBRANCH 32 33
BRANCH 32 36
ATOM     36  N   SER I   1       5.068  -2.724  15.051  1.00 41.50 LIG-0.35  N 
ATOM     37  C   ACE I   0       4.661  -3.488  14.017  1.00 42.61 LIG 0.21  C 
ATOM     38 O    ACE I   0       3.547  -3.478  13.492  0.00 41.61 LIG-0.27  OA
ATOM     39  CH3 ACE I   0       5.763  -4.379  13.466  0.00 41.50 LIG 0.12  C 
ATOM     40 H    SER I   1       5.887  -2.768  15.309  1.00 41.50 LIG 0.16  HD
ENDBRANCH 32 36
ENDBRANCH 30 32
ENDBRANCH 27 28
BRANCH 27 41
ATOM     41  CB  LEU I   2       7.197   0.691  12.947  1.00 22.58 LIG 0.04  C 
BRANCH 41 42
ATOM     42  CG  LEU I   2       7.514  -0.704  12.395  1.00 27.49 LIG-0.02  C 
ATOM     43  CD2 LEU I   2       8.035  -1.632  13.504  1.00 25.10 LIG 0.01  C 
ATOM     44  CD1 LEU I   2       8.485  -0.538  11.246  1.00 31.16 LIG 0.01  C 
ENDBRANCH 41 42
ENDBRANCH 27 41
ENDBRANCH 1 27
TORSDOF 16
ENDMDL
MODEL 17
USER: ADFR SOLUTION from run 26
USER: SCORE 16.407752 LL:  -3.547 LR: -13.235 RR:   0.000 FEB:  -8.462
USER: RMSD 8.202834
USER: SEED 25
USER: STATUS no improvement in best in 3 clusters for 5 generations
USER: GENES 18
USER: genes 0 Translation |==|  0.60712 0.35490 0.61592
USER: genes 1 Rotation |==|  0.95771 0.67796 0.40927 0.52456
USER: genes 2 Torsion [C]-N--CA-[C] |==|  0.63822
USER: genes 3 Torsion [N]-CA--C-[N] |==|  0.34731
USER: genes 4 Torsion [C]-N--CA-[C] |==|  0.62833
USER: genes 5 Torsion [N]-CA--C-[O] |==|  0.64657
USER: genes 6 Torsion [N]-CA--CB-[CG] |==|  0.10997
USER: genes 7 Torsion [CA]-CB--CG-[CD1] |==|  0.74917
USER: genes 8 Torsion [N]-CA--CB-[CG] |==|  0.40648
USER: genes 9 Torsion [CA]-CB--CG-[OD1] |==|  0.66915
USER: genes 10 Torsion [N]-C--CA-[N] |==|  0.35802
USER: genes 11 Torsion [C]-CA--N-[C] |==|  0.81400
USER: genes 12 Torsion [N]-C--CA-[N] |==|  0.02731
USER: genes 13 Torsion [C]-CA--CB-[OG] |==|  0.28958
USER: genes 14 Torsion [CA]-CB--OG-[HG] |==|  0.70476
USER: genes 15 Torsion [C]-CA--N-[C] |==|  0.66765
USER: genes 16 Torsion [C]-CA--CB-[CG] |==|  0.03957
USER: genes 17 Torsion [CA]-CB--CG-[CD2] |==|  0.62286
ROOT
ATOM      1  C   LEU I   2       5.736   1.007  12.813  1.00 17.40 LIG 0.24  C 
ATOM      2 O    LEU I   2       5.924   0.002  12.154  1.00 17.46 LIG-0.27  OA
ATOM      3  N   ASN I   3       4.764   1.873  12.592  1.00 16.24 LIG-0.35  N 
ATOM      4 H    ASN I   3       4.685   2.620  13.012  1.00 16.24 LIG 0.16  HD
ENDROOT
BRANCH 3 5
ATOM      5  CA  ASN I   3       3.740   1.634  11.611  1.00 15.86 LIG 0.18  C 
BRANCH 5 6
ATOM      6  C   ASN I   3       3.598   2.849  10.716  1.00 15.05 LIG 0.24  C 
ATOM      7  N   PHE I   4       3.723   2.599   9.406  1.00 14.49 LIG-0.34  N 
ATOM      8 H    PHE I   4       3.886   1.817   9.086  1.00 14.49 LIG 0.16  HD
ATOM      9 O    ASN I   3       3.406   3.981  11.222  1.00 16.10 LIG-0.27  OA
BRANCH 7 10
ATOM     10  CA  PHE I   4       3.594   3.643   8.393  1.00 12.92 LIG 0.19  C 
BRANCH 10 11
ATOM     11  C   PHE I   4       2.703   3.135   7.287  1.00 14.32 LIG 0.20  C 
ATOM     12 OXT  PHE I   4       1.570   2.788   7.584  1.00 16.91 LIG-0.65  OA
ATOM     13 O    PHE I   4       3.075   3.173   6.113  1.00 15.04 LIG-0.65  OA
ENDBRANCH 10 11
BRANCH 10 14
ATOM     14  CB  PHE I   4       4.964   4.005   7.850  1.00 13.46 LIG 0.07  C 
BRANCH 14 15
ATOM     15  CG  PHE I   4       5.814   2.770   7.684  1.00 17.43 LIG-0.06  A 
ATOM     16  CD1 PHE I   4       6.625   2.341   8.744  1.00 19.70 LIG 0.01  A 
ATOM     17  CE1 PHE I   4       7.388   1.196   8.602  1.00 18.46 LIG 0.00  A 
ATOM     18  CZ  PHE I   4       7.347   0.479   7.413  1.00 20.27 LIG 0.00  A 
ATOM     19  CE2 PHE I   4       6.545   0.896   6.354  1.00 19.92 LIG 0.00  A 
ATOM     20  CD2 PHE I   4       5.771   2.050   6.483  1.00 19.48 LIG 0.01  A 
ENDBRANCH 14 15
ENDBRANCH 10 14
ENDBRANCH 7 10
ENDBRANCH 5 6
BRANCH 5 21
ATOM     21  CB  ASN I   3       2.438   1.346  12.342  1.00 15.02 LIG 0.14  C 
BRANCH 21 22
ATOM     22  CG  ASN I   3       1.269   1.895  11.527  1.00 21.09 LIG 0.22  C 
ATOM     23  ND2 ASN I   3       1.117   1.524  10.265  1.00 19.37 LIG-0.37  N 
ATOM     24 22HD ASN I   3       1.629   0.921   9.929  1.00 19.37 LIG 0.16  HD
ATOM     25 21HD ASN I   3       0.505   1.886   9.781  1.00 19.37 LIG 0.16  HD
ATOM     26 OD1  ASN I   3       0.515   2.760  11.966  1.00 22.58 LIG-0.27  OA
ENDBRANCH 21 22
ENDBRANCH 5 21
ENDBRANCH 3 5
BRANCH 1 27
ATOM     27  CA  LEU I   2       6.603   1.259  13.977  1.00 19.34 LIG 0.18  C 
BRANCH 27 28
ATOM     28  N   LEU I   2       6.612   0.010  14.704  1.00 20.62 LIG-0.35  N 
ATOM     29 H    LEU I   2       7.366  -0.405  14.724  1.00 20.62 LIG 0.16  HD
ATOM     30  C   SER I   1       5.490  -0.407  15.280  1.00 28.29 LIG 0.24  C 
ATOM     31 O    SER I   1       4.405   0.204  15.152  1.00 21.19 LIG-0.27  OA
BRANCH 30 32
ATOM     32  CA  SER I   1       5.659  -1.647  16.152  1.00 32.71 LIG 0.20  C 
BRANCH 32 33
ATOM     33  CB  SER I   1       5.013  -1.356  17.476  1.00 35.86 LIG 0.20  C 
BRANCH 33 34
ATOM     34 OG   SER I   1       3.852  -2.115  17.288  1.00 39.84 LIG-0.40  OA
ATOM     35 HG   SER I   1       3.201  -1.602  17.150  1.00 39.84 LIG 0.21  HD
ENDBRANCH 33 34
ENDBRANCH 32 33
BRANCH 32 36
ATOM     36  N   SER I   1       7.111  -1.776  16.207  1.00 41.50 LIG-0.35  N 
ATOM     37  C   ACE I   0       7.920  -2.777  15.806  1.00 42.61 LIG 0.21  C 
ATOM     38 O    ACE I   0       7.578  -3.805  15.220  0.00 41.61 LIG-0.27  OA
ATOM     39  CH3 ACE I   0       9.389  -2.505  16.091  0.00 41.50 LIG 0.12  C 
ATOM     40 H    SER I   1       7.456  -1.073  16.561  1.00 41.50 LIG 0.16  HD
ENDBRANCH 32 36
ENDBRANCH 30 32
ENDBRANCH 27 28
BRANCH 27 41
ATOM     41  CB  LEU I   2       7.971   1.632  13.518  1.00 22.58 LIG 0.04  C 
BRANCH 41 42
ATOM     42  CG  LEU I   2       7.956   1.980  12.025  1.00 27.49 LIG-0.02  C 
ATOM     43  CD2 LEU I   2       9.146   1.336  11.296  1.00 25.10 LIG 0.01  C 
ATOM     44  CD1 LEU I   2       7.920   3.487  11.899  1.00 31.16 LIG 0.01  C 
ENDBRANCH 41 42
ENDBRANCH 27 41
ENDBRANCH 1 27
TORSDOF 16
ENDMDL
MODEL 18
USER: ADFR SOLUTION from run 50
USER: SCORE 16.645411 LL:  -4.106 LR: -13.214 RR:   0.000 FEB:  -8.441
USER: RMSD 5.231278
USER: SEED 49
USER: STATUS no improvement in best in 10 clusters for 5 generations
USER: GENES 18
USER: genes 0 Translation |==|  0.51440 0.34311 0.58603
USER: genes 1 Rotation |==|  0.33071 0.78595 0.13827 0.59341
USER: genes 2 Torsion [C]-N--CA-[C] |==|  0.17620
USER: genes 3 Torsion [N]-CA--C-[N] |==|  0.06111
USER: genes 4 Torsion [C]-N--CA-[C] |==|  0.57010
USER: genes 5 Torsion [N]-CA--C-[O] |==|  0.97544
USER: genes 6 Torsion [N]-CA--CB-[CG] |==|  0.79419
USER: genes 7 Torsion [CA]-CB--CG-[CD1] |==|  0.36315
USER: genes 8 Torsion [N]-CA--CB-[CG] |==|  0.50848
USER: genes 9 Torsion [CA]-CB--CG-[OD1] |==|  0.62202
USER: genes 10 Torsion [N]-C--CA-[N] |==|  0.38203
USER: genes 11 Torsion [C]-CA--N-[C] |==|  0.69601
USER: genes 12 Torsion [N]-C--CA-[N] |==|  0.88598
USER: genes 13 Torsion [C]-CA--CB-[OG] |==|  0.69179
USER: genes 14 Torsion [CA]-CB--OG-[HG] |==|  0.19961
USER: genes 15 Torsion [C]-CA--N-[C] |==|  0.67464
USER: genes 16 Torsion [C]-CA--CB-[CG] |==|  0.48034
USER: genes 17 Torsion [CA]-CB--CG-[CD2] |==|  0.21785
ROOT
ATOM      1  C   LEU I   2       4.136   0.804  12.208  1.00 17.40 LIG 0.24  C 
ATOM      2 O    LEU I   2       4.765   0.187  11.369  1.00 17.46 LIG-0.27  OA
ATOM      3  N   ASN I   3       4.523   0.965  13.460  1.00 16.24 LIG-0.35  N 
ATOM      4 H    ASN I   3       4.037   1.334  14.067  1.00 16.24 LIG 0.16  HD
ENDROOT
BRANCH 3 5
ATOM      5  CA  ASN I   3       5.813   0.527  13.921  1.00 15.86 LIG 0.18  C 
BRANCH 5 6
ATOM      6  C   ASN I   3       6.900   1.297  13.200  1.00 15.05 LIG 0.24  C 
ATOM      7  N   PHE I   4       6.508   2.470  12.683  1.00 14.49 LIG-0.34  N 
ATOM      8 H    PHE I   4       5.702   2.766  12.738  1.00 14.49 LIG 0.16  HD
ATOM      9 O    ASN I   3       8.054   0.813  13.101  1.00 16.10 LIG-0.27  OA
BRANCH 7 10
ATOM     10  CA  PHE I   4       7.423   3.359  11.974  1.00 12.92 LIG 0.19  C 
BRANCH 10 11
ATOM     11  C   PHE I   4       6.900   4.770  12.073  1.00 14.32 LIG 0.20  C 
ATOM     12 OXT  PHE I   4       7.575   5.662  11.582  1.00 16.91 LIG-0.65  OA
ATOM     13 O    PHE I   4       5.781   4.995  12.538  1.00 15.04 LIG-0.65  OA
ENDBRANCH 10 11
BRANCH 10 14
ATOM     14  CB  PHE I   4       7.532   2.933  10.521  1.00 13.46 LIG 0.07  C 
BRANCH 14 15
ATOM     15  CG  PHE I   4       8.360   1.679  10.394  1.00 17.43 LIG-0.06  A 
ATOM     16  CD1 PHE I   4       7.872   0.601   9.641  1.00 19.70 LIG 0.01  A 
ATOM     17  CE1 PHE I   4       8.640  -0.542   9.505  1.00 18.46 LIG 0.00  A 
ATOM     18  CZ  PHE I   4       9.886  -0.616  10.114  1.00 20.27 LIG 0.00  A 
ATOM     19  CE2 PHE I   4      10.380   0.449  10.865  1.00 19.92 LIG 0.00  A 
ATOM     20  CD2 PHE I   4       9.615   1.607  11.011  1.00 19.48 LIG 0.01  A 
ENDBRANCH 14 15
ENDBRANCH 10 14
ENDBRANCH 7 10
ENDBRANCH 5 6
BRANCH 5 21
ATOM     21  CB  ASN I   3       5.936  -0.964  13.648  1.00 15.02 LIG 0.14  C 
BRANCH 21 22
ATOM     22  CG  ASN I   3       7.267  -1.471  14.197  1.00 21.09 LIG 0.22  C 
ATOM     23  ND2 ASN I   3       7.731  -0.991  15.341  1.00 19.37 LIG-0.37  N 
ATOM     24 22HD ASN I   3       7.251  -0.453  15.808  1.00 19.37 LIG 0.16  HD
ATOM     25 21HD ASN I   3       8.513  -1.218  15.617  1.00 19.37 LIG 0.16  HD
ATOM     26 OD1  ASN I   3       7.988  -2.237  13.561  1.00 22.58 LIG-0.27  OA
ENDBRANCH 21 22
ENDBRANCH 5 21
ENDBRANCH 3 5
BRANCH 1 27
ATOM     27  CA  LEU I   2       2.888   1.472  11.803  1.00 19.34 LIG 0.18  C 
BRANCH 27 28
ATOM     28  N   LEU I   2       3.176   2.025  10.498  1.00 20.62 LIG-0.35  N 
ATOM     29 H    LEU I   2       3.259   1.454   9.861  1.00 20.62 LIG 0.16  HD
ATOM     30  C   SER I   1       3.290   3.343  10.369  1.00 28.29 LIG 0.24  C 
ATOM     31 O    SER I   1       3.233   4.119  11.350  1.00 21.19 LIG-0.27  OA
BRANCH 30 32
ATOM     32  CA  SER I   1       3.431   3.819   8.928  1.00 32.71 LIG 0.20  C 
BRANCH 32 33
ATOM     33  CB  SER I   1       2.058   3.820   8.319  1.00 35.86 LIG 0.20  C 
BRANCH 33 34
ATOM     34 OG   SER I   1       2.249   2.758   7.428  1.00 39.84 LIG-0.40  OA
ATOM     35 HG   SER I   1       2.286   2.036   7.856  1.00 39.84 LIG 0.21  HD
ENDBRANCH 33 34
ENDBRANCH 32 33
BRANCH 32 36
ATOM     36  N   SER I   1       4.334   2.818   8.371  1.00 41.50 LIG-0.35  N 
ATOM     37  C   ACE I   0       5.575   2.942   7.861  1.00 42.61 LIG 0.21  C 
ATOM     38 O    ACE I   0       6.255   3.969   7.825  0.00 41.61 LIG-0.27  OA
ATOM     39  CH3 ACE I   0       6.143   1.626   7.352  0.00 41.50 LIG 0.12  C 
ATOM     40 H    SER I   1       3.965   2.042   8.397  1.00 41.50 LIG 0.16  HD
ENDBRANCH 32 36
ENDBRANCH 30 32
ENDBRANCH 27 28
BRANCH 27 41
ATOM     41  CB  LEU I   2       1.778   0.480  11.741  1.00 22.58 LIG 0.04  C 
BRANCH 41 42
ATOM     42  CG  LEU I   2       0.442   1.191  11.493  1.00 27.49 LIG-0.02  C 
ATOM     43  CD2 LEU I   2       0.287   1.574  10.012  1.00 25.10 LIG 0.01  C 
ATOM     44  CD1 LEU I   2       0.366   2.377  12.430  1.00 31.16 LIG 0.01  C 
ENDBRANCH 41 42
ENDBRANCH 27 41
ENDBRANCH 1 27
TORSDOF 16
ENDMDL
MODEL 19
USER: ADFR SOLUTION from run 79
USER: SCORE 15.876709 LL:  -4.330 LR: -13.213 RR:   0.000 FEB:  -8.440
USER: RMSD 6.916856
USER: SEED 78
USER: STATUS no improvement in best in 2 clusters for 5 generations
USER: GENES 18
USER: genes 0 Translation |==|  0.49314 0.33297 0.59749
USER: genes 1 Rotation |==|  0.64066 0.20149 0.25063 0.78094
USER: genes 2 Torsion [C]-N--CA-[C] |==|  0.18333
USER: genes 3 Torsion [N]-CA--C-[N] |==|  0.28684
USER: genes 4 Torsion [C]-N--CA-[C] |==|  0.55992
USER: genes 5 Torsion [N]-CA--C-[O] |==|  0.97425
USER: genes 6 Torsion [N]-CA--CB-[CG] |==|  0.11945
USER: genes 7 Torsion [CA]-CB--CG-[CD1] |==|  0.23185
USER: genes 8 Torsion [N]-CA--CB-[CG] |==|  0.42872
USER: genes 9 Torsion [CA]-CB--CG-[OD1] |==|  0.67585
USER: genes 10 Torsion [N]-C--CA-[N] |==|  0.31697
USER: genes 11 Torsion [C]-CA--N-[C] |==|  0.62101
USER: genes 12 Torsion [N]-C--CA-[N] |==|  0.92786
USER: genes 13 Torsion [C]-CA--CB-[OG] |==|  0.83238
USER: genes 14 Torsion [CA]-CB--OG-[HG] |==|  0.41590
USER: genes 15 Torsion [C]-CA--N-[C] |==|  0.69447
USER: genes 16 Torsion [C]-CA--CB-[CG] |==|  0.21935
USER: genes 17 Torsion [CA]-CB--CG-[CD2] |==|  0.06842
ROOT
ATOM      1  C   LEU I   2       3.770   0.629  12.440  1.00 17.40 LIG 0.24  C 
ATOM      2 O    LEU I   2       3.288   1.394  13.254  1.00 17.46 LIG-0.27  OA
ATOM      3  N   ASN I   3       3.198   0.300  11.297  1.00 16.24 LIG-0.35  N 
ATOM      4 H    ASN I   3       3.506  -0.301  10.763  1.00 16.24 LIG 0.16  HD
ENDROOT
BRANCH 3 5
ATOM      5  CA  ASN I   3       1.988   0.931  10.841  1.00 15.86 LIG 0.18  C 
BRANCH 5 6
ATOM      6  C   ASN I   3       2.257   2.392  10.544  1.00 15.05 LIG 0.24  C 
ATOM      7  N   PHE I   4       2.365   2.689   9.242  1.00 14.49 LIG-0.34  N 
ATOM      8 H    PHE I   4       2.304   2.103   8.615  1.00 14.49 LIG 0.16  HD
ATOM      9 O    ASN I   3       2.386   3.211  11.486  1.00 16.10 LIG-0.27  OA
BRANCH 7 10
ATOM     10  CA  PHE I   4       2.601   4.048   8.765  1.00 12.92 LIG 0.19  C 
BRANCH 10 11
ATOM     11  C   PHE I   4       2.152   4.141   7.328  1.00 14.32 LIG 0.20  C 
ATOM     12 OXT  PHE I   4       2.215   5.234   6.783  1.00 16.91 LIG-0.65  OA
ATOM     13 O    PHE I   4       1.837   3.129   6.700  1.00 15.04 LIG-0.65  OA
ENDBRANCH 10 11
BRANCH 10 14
ATOM     14  CB  PHE I   4       4.077   4.387   8.884  1.00 13.46 LIG 0.07  C 
BRANCH 14 15
ATOM     15  CG  PHE I   4       4.927   3.229   8.425  1.00 17.43 LIG-0.06  A 
ATOM     16  CD1 PHE I   4       5.192   3.066   7.057  1.00 19.70 LIG 0.01  A 
ATOM     17  CE1 PHE I   4       5.990   2.018   6.635  1.00 18.46 LIG 0.00  A 
ATOM     18  CZ  PHE I   4       6.523   1.135   7.566  1.00 20.27 LIG 0.00  A 
ATOM     19  CE2 PHE I   4       6.267   1.288   8.927  1.00 19.92 LIG 0.00  A 
ATOM     20  CD2 PHE I   4       5.462   2.340   9.366  1.00 19.48 LIG 0.01  A 
ENDBRANCH 14 15
ENDBRANCH 10 14
ENDBRANCH 7 10
ENDBRANCH 5 6
BRANCH 5 21
ATOM     21  CB  ASN I   3       0.936   0.786  11.930  1.00 15.02 LIG 0.14  C 
BRANCH 21 22
ATOM     22  CG  ASN I   3      -0.081   1.918  11.803  1.00 21.09 LIG 0.22  C 
ATOM     23  ND2 ASN I   3      -0.744   2.082  10.669  1.00 19.37 LIG-0.37  N 
ATOM     24 22HD ASN I   3      -0.658   1.509  10.034  1.00 19.37 LIG 0.16  HD
ATOM     25 21HD ASN I   3      -1.262   2.760  10.568  1.00 19.37 LIG 0.16  HD
ATOM     26 OD1  ASN I   3      -0.234   2.760  12.685  1.00 22.58 LIG-0.27  OA
ENDBRANCH 21 22
ENDBRANCH 5 21
ENDBRANCH 3 5
BRANCH 1 27
ATOM     27  CA  LEU I   2       5.106   0.070  12.704  1.00 19.34 LIG 0.18  C 
BRANCH 27 28
ATOM     28  N   LEU I   2       5.988   1.216  12.713  1.00 20.62 LIG-0.35  N 
ATOM     29 H    LEU I   2       5.699   1.905  13.137  1.00 20.62 LIG 0.16  HD
ATOM     30  C   SER I   1       7.155   1.134  12.084  1.00 28.29 LIG 0.24  C 
ATOM     31 O    SER I   1       7.488   0.127  11.418  1.00 21.19 LIG-0.27  OA
BRANCH 30 32
ATOM     32  CA  SER I   1       8.066   2.338  12.298  1.00 32.71 LIG 0.20  C 
BRANCH 32 33
ATOM     33  CB  SER I   1       8.983   2.010  13.441  1.00 35.86 LIG 0.20  C 
BRANCH 33 34
ATOM     34 OG   SER I   1       7.999   1.820  14.419  1.00 39.84 LIG-0.40  OA
ATOM     35 HG   SER I   1       8.269   1.257  14.981  1.00 39.84 LIG 0.21  HD
ENDBRANCH 33 34
ENDBRANCH 32 33
BRANCH 32 36
ATOM     36  N   SER I   1       7.100   3.393  12.586  1.00 41.50 LIG-0.35  N 
ATOM     37  C   ACE I   0       6.726   4.465  11.859  1.00 42.61 LIG 0.21  C 
ATOM     38 O    ACE I   0       7.097   4.741  10.717  0.00 41.61 LIG-0.27  OA
ATOM     39  CH3 ACE I   0       5.701   5.336  12.567  0.00 41.50 LIG 0.12  C 
ATOM     40 H    SER I   1       6.740   3.261  13.356  1.00 41.50 LIG 0.16  HD
ENDBRANCH 32 36
ENDBRANCH 30 32
ENDBRANCH 27 28
BRANCH 27 41
ATOM     41  CB  LEU I   2       5.112  -0.632  14.018  1.00 22.58 LIG 0.04  C 
BRANCH 41 42
ATOM     42  CG  LEU I   2       4.473  -2.020  13.885  1.00 27.49 LIG-0.02  C 
ATOM     43  CD2 LEU I   2       4.571  -2.536  12.440  1.00 25.10 LIG 0.01  C 
ATOM     44  CD1 LEU I   2       3.051  -1.926  14.393  1.00 31.16 LIG 0.01  C 
ENDBRANCH 41 42
ENDBRANCH 27 41
ENDBRANCH 1 27
TORSDOF 16
ENDMDL
MODEL 20
USER: ADFR SOLUTION from run 126
USER: SCORE 15.267837 LL:  -3.940 LR: -13.206 RR:   0.000 FEB:  -8.433
USER: RMSD 7.665368
USER: SEED 125
USER: STATUS no improvement in best in 7 clusters for 5 generations
USER: GENES 18
USER: genes 0 Translation |==|  0.48622 0.44662 0.51965
USER: genes 1 Rotation |==|  0.58695 0.09063 0.22931 0.53982
USER: genes 2 Torsion [C]-N--CA-[C] |==|  0.18938
USER: genes 3 Torsion [N]-CA--C-[N] |==|  0.32152
USER: genes 4 Torsion [C]-N--CA-[C] |==|  0.67311
USER: genes 5 Torsion [N]-CA--C-[O] |==|  0.51600
USER: genes 6 Torsion [N]-CA--CB-[CG] |==|  0.89724
USER: genes 7 Torsion [CA]-CB--CG-[CD1] |==|  0.77548
USER: genes 8 Torsion [N]-CA--CB-[CG] |==|  0.75447
USER: genes 9 Torsion [CA]-CB--CG-[OD1] |==|  0.97645
USER: genes 10 Torsion [N]-C--CA-[N] |==|  0.34832
USER: genes 11 Torsion [C]-CA--N-[C] |==|  0.62790
USER: genes 12 Torsion [N]-C--CA-[N] |==|  0.31138
USER: genes 13 Torsion [C]-CA--CB-[OG] |==|  0.68769
USER: genes 14 Torsion [CA]-CB--OG-[HG] |==|  0.78715
USER: genes 15 Torsion [C]-CA--N-[C] |==|  0.87487
USER: genes 16 Torsion [C]-CA--CB-[CG] |==|  0.08502
USER: genes 17 Torsion [CA]-CB--CG-[CD2] |==|  0.59931
ROOT
ATOM      1  C   LEU I   2       3.650   2.589  10.864  1.00 17.40 LIG 0.24  C 
ATOM      2 O    LEU I   2       3.472   3.673  11.388  1.00 17.46 LIG-0.27  OA
ATOM      3  N   ASN I   3       3.837   2.409   9.570  1.00 16.24 LIG-0.35  N 
ATOM      4 H    ASN I   3       3.884   1.635   9.196  1.00 16.24 LIG 0.16  HD
ENDROOT
BRANCH 3 5
ATOM      5  CA  ASN I   3       3.979   3.514   8.659  1.00 15.86 LIG 0.18  C 
BRANCH 5 6
ATOM      6  C   ASN I   3       5.285   4.233   8.932  1.00 15.05 LIG 0.24  C 
ATOM      7  N   PHE I   4       6.171   4.185   7.928  1.00 14.49 LIG-0.34  N 
ATOM      8 H    PHE I   4       6.029   3.771   7.188  1.00 14.49 LIG 0.16  HD
ATOM      9 O    ASN I   3       5.476   4.789  10.041  1.00 16.10 LIG-0.27  OA
BRANCH 7 10
ATOM     10  CA  PHE I   4       7.474   4.841   8.002  1.00 12.92 LIG 0.19  C 
BRANCH 10 11
ATOM     11  C   PHE I   4       7.548   5.892   6.923  1.00 14.32 LIG 0.20  C 
ATOM     12 OXT  PHE I   4       6.513   6.182   6.341  1.00 16.91 LIG-0.65  OA
ATOM     13 O    PHE I   4       8.594   6.510   6.717  1.00 15.04 LIG-0.65  OA
ENDBRANCH 10 11
BRANCH 10 14
ATOM     14  CB  PHE I   4       8.577   3.813   7.820  1.00 13.46 LIG 0.07  C 
BRANCH 14 15
ATOM     15  CG  PHE I   4       8.208   2.512   8.486  1.00 17.43 LIG-0.06  A 
ATOM     16  CD1 PHE I   4       8.387   2.368   9.869  1.00 19.70 LIG 0.01  A 
ATOM     17  CE1 PHE I   4       8.028   1.183  10.486  1.00 18.46 LIG 0.00  A 
ATOM     18  CZ  PHE I   4       7.493   0.145   9.734  1.00 20.27 LIG 0.00  A 
ATOM     19  CE2 PHE I   4       7.310   0.278   8.359  1.00 19.92 LIG 0.00  A 
ATOM     20  CD2 PHE I   4       7.670   1.467   7.724  1.00 19.48 LIG 0.01  A 
ENDBRANCH 14 15
ENDBRANCH 10 14
ENDBRANCH 7 10
ENDBRANCH 5 6
BRANCH 5 21
ATOM     21  CB  ASN I   3       2.796   4.449   8.857  1.00 15.02 LIG 0.14  C 
BRANCH 21 22
ATOM     22  CG  ASN I   3       1.647   4.008   7.953  1.00 21.09 LIG 0.22  C 
ATOM     23  ND2 ASN I   3       0.429   4.486   8.157  1.00 19.37 LIG-0.37  N 
ATOM     24 22HD ASN I   3       0.301   5.097   8.748  1.00 19.37 LIG 0.16  HD
ATOM     25 21HD ASN I   3      -0.233   4.185   7.699  1.00 19.37 LIG 0.16  HD
ATOM     26 OD1  ASN I   3       1.786   3.135   7.099  1.00 22.58 LIG-0.27  OA
ENDBRANCH 21 22
ENDBRANCH 5 21
ENDBRANCH 3 5
BRANCH 1 27
ATOM     27  CA  LEU I   2       3.726   1.395  11.723  1.00 19.34 LIG 0.18  C 
BRANCH 27 28
ATOM     28  N   LEU I   2       4.714   1.727  12.725  1.00 20.62 LIG-0.35  N 
ATOM     29 H    LEU I   2       4.636   2.504  13.083  1.00 20.62 LIG 0.16  HD
ATOM     30  C   SER I   1       5.654   0.835  13.020  1.00 28.29 LIG 0.24  C 
ATOM     31 O    SER I   1       5.761  -0.252  12.409  1.00 21.19 LIG-0.27  OA
BRANCH 30 32
ATOM     32  CA  SER I   1       6.537   1.226  14.200  1.00 32.71 LIG 0.20  C 
BRANCH 32 33
ATOM     33  CB  SER I   1       7.965   1.120  13.746  1.00 35.86 LIG 0.20  C 
BRANCH 33 34
ATOM     34 OG   SER I   1       8.336   0.038  14.553  1.00 39.84 LIG-0.40  OA
ATOM     35 HG   SER I   1       8.455   0.303  15.341  1.00 39.84 LIG 0.21  HD
ENDBRANCH 33 34
ENDBRANCH 32 33
BRANCH 32 36
ATOM     36  N   SER I   1       6.150   0.239  15.202  1.00 41.50 LIG-0.35  N 
ATOM     37  C   ACE I   0       4.933  -0.202  15.577  1.00 42.61 LIG 0.21  C 
ATOM     38 O    ACE I   0       3.853   0.110  15.073  0.00 41.61 LIG-0.27  OA
ATOM     39  CH3 ACE I   0       4.991  -1.224  16.701  0.00 41.50 LIG 0.12  C 
ATOM     40 H    SER I   1       6.850  -0.083  15.584  1.00 41.50 LIG 0.16  HD
ENDBRANCH 32 36
ENDBRANCH 30 32
ENDBRANCH 27 28
BRANCH 27 41
ATOM     41  CB  LEU I   2       2.396   1.128  12.338  1.00 22.58 LIG 0.04  C 
BRANCH 41 42
ATOM     42  CG  LEU I   2       1.273   1.597  11.404  1.00 27.49 LIG-0.02  C 
ATOM     43  CD2 LEU I   2       0.091   2.167  12.205  1.00 25.10 LIG 0.01  C 
ATOM     44  CD1 LEU I   2       0.890   0.432  10.517  1.00 31.16 LIG 0.01  C 
ENDBRANCH 41 42
ENDBRANCH 27 41
ENDBRANCH 1 27
TORSDOF 16
ENDMDL
MODEL 21
USER: ADFR SOLUTION from run 71
USER: SCORE 15.913700 LL:  -3.492 LR: -13.195 RR:   0.000 FEB:  -8.422
USER: RMSD 7.803234
USER: SEED 70
USER: STATUS no improvement in best in 11 clusters for 5 generations
USER: GENES 18
USER: genes 0 Translation |==|  0.52958 0.43674 0.53612
USER: genes 1 Rotation |==|  0.08490 0.69452 0.40643 0.67636
USER: genes 2 Torsion [C]-N--CA-[C] |==|  0.84190
USER: genes 3 Torsion [N]-CA--C-[N] |==|  0.33822
USER: genes 4 Torsion [C]-N--CA-[C] |==|  0.60981
USER: genes 5 Torsion [N]-CA--C-[O] |==|  0.28333
USER: genes 6 Torsion [N]-CA--CB-[CG] |==|  0.68397
USER: genes 7 Torsion [CA]-CB--CG-[CD1] |==|  0.16169
USER: genes 8 Torsion [N]-CA--CB-[CG] |==|  0.75650
USER: genes 9 Torsion [CA]-CB--CG-[OD1] |==|  0.58565
USER: genes 10 Torsion [N]-C--CA-[N] |==|  0.91895
USER: genes 11 Torsion [C]-CA--N-[C] |==|  0.63500
USER: genes 12 Torsion [N]-C--CA-[N] |==|  0.86686
USER: genes 13 Torsion [C]-CA--CB-[OG] |==|  0.51085
USER: genes 14 Torsion [CA]-CB--OG-[HG] |==|  0.37169
USER: genes 15 Torsion [C]-CA--N-[C] |==|  0.85556
USER: genes 16 Torsion [C]-CA--CB-[CG] |==|  0.27248
USER: genes 17 Torsion [CA]-CB--CG-[CD2] |==|  0.47512
ROOT
ATOM      1  C   LEU I   2       4.398   2.419  11.197  1.00 17.40 LIG 0.24  C 
ATOM      2 O    LEU I   2       4.224   2.566  10.002  1.00 17.46 LIG-0.27  OA
ATOM      3  N   ASN I   3       5.217   3.153  11.927  1.00 16.24 LIG-0.35  N 
ATOM      4 H    ASN I   3       5.394   2.993  12.754  1.00 16.24 LIG 0.16  HD
ENDROOT
BRANCH 3 5
ATOM      5  CA  ASN I   3       5.895   4.303  11.389  1.00 15.86 LIG 0.18  C 
BRANCH 5 6
ATOM      6  C   ASN I   3       6.710   3.892  10.179  1.00 15.05 LIG 0.24  C 
ATOM      7  N   PHE I   4       6.397   4.537   9.047  1.00 14.49 LIG-0.34  N 
ATOM      8 H    PHE I   4       5.775   5.129   8.994  1.00 14.49 LIG 0.16  HD
ATOM      9 O    ASN I   3       7.578   2.993  10.283  1.00 16.10 LIG-0.27  OA
BRANCH 7 10
ATOM     10  CA  PHE I   4       7.091   4.290   7.787  1.00 12.92 LIG 0.19  C 
BRANCH 10 11
ATOM     11  C   PHE I   4       7.285   5.606   7.076  1.00 14.32 LIG 0.20  C 
ATOM     12 OXT  PHE I   4       6.300   6.134   6.580  1.00 16.91 LIG-0.65  OA
ATOM     13 O    PHE I   4       8.378   6.175   7.091  1.00 15.04 LIG-0.65  OA
ENDBRANCH 10 11
BRANCH 10 14
ATOM     14  CB  PHE I   4       6.278   3.336   6.930  1.00 13.46 LIG 0.07  C 
BRANCH 14 15
ATOM     15  CG  PHE I   4       7.004   2.025   6.758  1.00 17.43 LIG-0.06  A 
ATOM     16  CD1 PHE I   4       7.357   1.276   7.890  1.00 19.70 LIG 0.01  A 
ATOM     17  CE1 PHE I   4       8.002   0.063   7.734  1.00 18.46 LIG 0.00  A 
ATOM     18  CZ  PHE I   4       8.297  -0.406   6.460  1.00 20.27 LIG 0.00  A 
ATOM     19  CE2 PHE I   4       7.951   0.330   5.329  1.00 19.92 LIG 0.00  A 
ATOM     20  CD2 PHE I   4       7.301   1.556   5.472  1.00 19.48 LIG 0.01  A 
ENDBRANCH 14 15
ENDBRANCH 10 14
ENDBRANCH 7 10
ENDBRANCH 5 6
BRANCH 5 21
ATOM     21  CB  ASN I   3       6.791   4.879  12.474  1.00 15.02 LIG 0.14  C 
BRANCH 21 22
ATOM     22  CG  ASN I   3       5.991   5.871  13.315  1.00 21.09 LIG 0.22  C 
ATOM     23  ND2 ASN I   3       4.674   5.760  13.387  1.00 19.37 LIG-0.37  N 
ATOM     24 22HD ASN I   3       4.278   5.089  13.023  1.00 19.37 LIG 0.16  HD
ATOM     25 21HD ASN I   3       4.214   6.359  13.798  1.00 19.37 LIG 0.16  HD
ATOM     26 OD1  ASN I   3       6.515   6.846  13.849  1.00 22.58 LIG-0.27  OA
ENDBRANCH 21 22
ENDBRANCH 5 21
ENDBRANCH 3 5
BRANCH 1 27
ATOM     27  CA  LEU I   2       3.606   1.398  11.904  1.00 19.34 LIG 0.18  C 
BRANCH 27 28
ATOM     28  N   LEU I   2       4.422   1.020  13.036  1.00 20.62 LIG-0.35  N 
ATOM     29 H    LEU I   2       4.743   1.670  13.499  1.00 20.62 LIG 0.16  HD
ATOM     30  C   SER I   1       4.620  -0.271  13.283  1.00 28.29 LIG 0.24  C 
ATOM     31 O    SER I   1       4.189  -1.171  12.528  1.00 21.19 LIG-0.27  OA
BRANCH 30 32
ATOM     32  CA  SER I   1       5.357  -0.551  14.589  1.00 32.71 LIG 0.20  C 
BRANCH 32 33
ATOM     33  CB  SER I   1       4.402  -0.265  15.713  1.00 35.86 LIG 0.20  C 
BRANCH 33 34
ATOM     34 OG   SER I   1       5.290  -0.488  16.772  1.00 39.84 LIG-0.40  OA
ATOM     35 HG   SER I   1       5.221   0.135  17.331  1.00 39.84 LIG 0.21  HD
ENDBRANCH 33 34
ENDBRANCH 32 33
BRANCH 32 36
ATOM     36  N   SER I   1       6.478   0.379  14.503  1.00 41.50 LIG-0.35  N 
ATOM     37  C   ACE I   0       7.384   0.575  13.524  1.00 42.61 LIG 0.21  C 
ATOM     38 O    ACE I   0       7.402   0.025  12.421  0.00 41.61 LIG-0.27  OA
ATOM     39  CH3 ACE I   0       8.416   1.635  13.872  0.00 41.50 LIG 0.12  C 
ATOM     40 H    SER I   1       6.523   0.854  15.218  1.00 41.50 LIG 0.16  HD
ENDBRANCH 32 36
ENDBRANCH 30 32
ENDBRANCH 27 28
BRANCH 27 41
ATOM     41  CB  LEU I   2       2.305   1.978  12.341  1.00 22.58 LIG 0.04  C 
BRANCH 41 42
ATOM     42  CG  LEU I   2       1.198   1.612  11.345  1.00 27.49 LIG-0.02  C 
ATOM     43  CD2 LEU I   2      -0.185   2.008  11.887  1.00 25.10 LIG 0.01  C 
ATOM     44  CD1 LEU I   2       1.320   0.135  11.037  1.00 31.16 LIG 0.01  C 
ENDBRANCH 41 42
ENDBRANCH 27 41
ENDBRANCH 1 27
TORSDOF 16
ENDMDL
MODEL 22
USER: ADFR SOLUTION from run 13
USER: SCORE 16.258579 LL:  -3.661 LR: -13.192 RR:   0.000 FEB:  -8.419
USER: RMSD 7.055675
USER: SEED 492223
USER: STATUS no improvement in best in 10 clusters for 5 generations
USER: GENES 18
USER: genes 0 Translation |==|  0.62833 0.40267 0.48661
USER: genes 1 Rotation |==|  0.01999 0.37086 0.55371 0.50537
USER: genes 2 Torsion [C]-N--CA-[C] |==|  0.75556
USER: genes 3 Torsion [N]-CA--C-[N] |==|  0.01557
USER: genes 4 Torsion [C]-N--CA-[C] |==|  0.21283
USER: genes 5 Torsion [N]-CA--C-[O] |==|  0.30613
USER: genes 6 Torsion [N]-CA--CB-[CG] |==|  0.82023
USER: genes 7 Torsion [CA]-CB--CG-[CD1] |==|  0.25213
USER: genes 8 Torsion [N]-CA--CB-[CG] |==|  0.58134
USER: genes 9 Torsion [CA]-CB--CG-[OD1] |==|  0.97462
USER: genes 10 Torsion [N]-C--CA-[N] |==|  0.17776
USER: genes 11 Torsion [C]-CA--N-[C] |==|  0.16626
USER: genes 12 Torsion [N]-C--CA-[N] |==|  0.33074
USER: genes 13 Torsion [C]-CA--CB-[OG] |==|  0.54124
USER: genes 14 Torsion [CA]-CB--OG-[HG] |==|  0.64188
USER: genes 15 Torsion [C]-CA--N-[C] |==|  0.76643
USER: genes 16 Torsion [C]-CA--CB-[CG] |==|  0.18923
USER: genes 17 Torsion [CA]-CB--CG-[CD2] |==|  0.64698
ROOT
ATOM      1  C   LEU I   2       6.102   1.831  10.195  1.00 17.40 LIG 0.24  C 
ATOM      2 O    LEU I   2       6.155   0.894   9.421  1.00 17.46 LIG-0.27  OA
ATOM      3  N   ASN I   3       5.377   2.917  10.001  1.00 16.24 LIG-0.35  N 
ATOM      4 H    ASN I   3       5.405   3.608  10.513  1.00 16.24 LIG 0.16  HD
ENDROOT
BRANCH 3 5
ATOM      5  CA  ASN I   3       4.464   3.037   8.895  1.00 15.86 LIG 0.18  C 
BRANCH 5 6
ATOM      6  C   ASN I   3       5.196   3.585   7.688  1.00 15.05 LIG 0.24  C 
ATOM      7  N   PHE I   4       6.518   3.727   7.850  1.00 14.49 LIG-0.34  N 
ATOM      8 H    PHE I   4       6.930   3.540   8.582  1.00 14.49 LIG 0.16  HD
ATOM      9 O    ASN I   3       4.557   3.891   6.652  1.00 16.10 LIG-0.27  OA
BRANCH 7 10
ATOM     10  CA  PHE I   4       7.390   4.220   6.788  1.00 12.92 LIG 0.19  C 
BRANCH 10 11
ATOM     11  C   PHE I   4       7.223   5.715   6.679  1.00 14.32 LIG 0.20  C 
ATOM     12 OXT  PHE I   4       6.128   6.141   6.344  1.00 16.91 LIG-0.65  OA
ATOM     13 O    PHE I   4       8.130   6.476   7.022  1.00 15.04 LIG-0.65  OA
ENDBRANCH 10 11
BRANCH 10 14
ATOM     14  CB  PHE I   4       7.031   3.548   5.474  1.00 13.46 LIG 0.07  C 
BRANCH 14 15
ATOM     15  CG  PHE I   4       7.304   2.066   5.543  1.00 17.43 LIG-0.06  A 
ATOM     16  CD1 PHE I   4       6.289   1.195   5.966  1.00 19.70 LIG 0.01  A 
ATOM     17  CE1 PHE I   4       6.530  -0.167   6.009  1.00 18.46 LIG 0.00  A 
ATOM     18  CZ  PHE I   4       7.772  -0.663   5.632  1.00 20.27 LIG 0.00  A 
ATOM     19  CE2 PHE I   4       8.786   0.194   5.210  1.00 19.92 LIG 0.00  A 
ATOM     20  CD2 PHE I   4       8.557   1.570   5.164  1.00 19.48 LIG 0.01  A 
ENDBRANCH 14 15
ENDBRANCH 10 14
ENDBRANCH 7 10
ENDBRANCH 5 6
BRANCH 5 21
ATOM     21  CB  ASN I   3       3.333   3.966   9.310  1.00 15.02 LIG 0.14  C 
BRANCH 21 22
ATOM     22  CG  ASN I   3       2.061   3.578   8.560  1.00 21.09 LIG 0.22  C 
ATOM     23  ND2 ASN I   3       0.890   4.040   8.970  1.00 19.37 LIG-0.37  N 
ATOM     24 22HD ASN I   3       0.854   4.613   9.609  1.00 19.37 LIG 0.16  HD
ATOM     25 21HD ASN I   3       0.165   3.767   8.596  1.00 19.37 LIG 0.16  HD
ATOM     26 OD1  ASN I   3       2.067   2.760   7.643  1.00 22.58 LIG-0.27  OA
ENDBRANCH 21 22
ENDBRANCH 5 21
ENDBRANCH 3 5
BRANCH 1 27
ATOM     27  CA  LEU I   2       6.841   1.739  11.465  1.00 19.34 LIG 0.18  C 
BRANCH 27 28
ATOM     28  N   LEU I   2       5.816   1.699  12.484  1.00 20.62 LIG-0.35  N 
ATOM     29 H    LEU I   2       5.840   2.335  13.062  1.00 20.62 LIG 0.16  HD
ATOM     30  C   SER I   1       4.927   0.711  12.463  1.00 28.29 LIG 0.24  C 
ATOM     31 O    SER I   1       4.991  -0.229  11.640  1.00 21.19 LIG-0.27  OA
BRANCH 30 32
ATOM     32  CA  SER I   1       3.803   0.862  13.482  1.00 32.71 LIG 0.20  C 
BRANCH 32 33
ATOM     33  CB  SER I   1       3.849  -0.339  14.383  1.00 35.86 LIG 0.20  C 
BRANCH 33 34
ATOM     34 OG   SER I   1       2.584  -0.185  14.962  1.00 39.84 LIG-0.40  OA
ATOM     35 HG   SER I   1       2.653  -0.218  15.799  1.00 39.84 LIG 0.21  HD
ENDBRANCH 33 34
ENDBRANCH 32 33
BRANCH 32 36
ATOM     36  N   SER I   1       2.627   0.922  12.620  1.00 41.50 LIG-0.35  N 
ATOM     37  C   ACE I   0       2.070   1.960  11.965  1.00 42.61 LIG 0.21  C 
ATOM     38 O    ACE I   0       2.507   3.110  11.907  0.00 41.61 LIG-0.27  OA
ATOM     39  CH3 ACE I   0       0.812   1.575  11.201  0.00 41.50 LIG 0.12  C 
ATOM     40 H    SER I   1       2.271   0.142  12.553  1.00 41.50 LIG 0.16  HD
ENDBRANCH 32 36
ENDBRANCH 30 32
ENDBRANCH 27 28
BRANCH 27 41
ATOM     41  CB  LEU I   2       7.672   0.502  11.480  1.00 22.58 LIG 0.04  C 
BRANCH 41 42
ATOM     42  CG  LEU I   2       8.806   0.609  10.454  1.00 27.49 LIG-0.02  C 
ATOM     43  CD2 LEU I   2       8.815  -0.604   9.510  1.00 25.10 LIG 0.01  C 
ATOM     44  CD1 LEU I   2      10.103   0.789  11.212  1.00 31.16 LIG 0.01  C 
ENDBRANCH 41 42
ENDBRANCH 27 41
ENDBRANCH 1 27
TORSDOF 16
ENDMDL
MODEL 23
USER: ADFR SOLUTION from run 23
USER: SCORE 14.987279 LL:  -2.916 LR: -13.163 RR:   0.000 FEB:  -8.391
USER: RMSD 4.760309
USER: SEED 22
USER: STATUS no improvement in best in 16 clusters for 5 generations
USER: GENES 18
USER: genes 0 Translation |==|  0.45034 0.49415 0.50561
USER: genes 1 Rotation |==|  0.56525 0.58490 0.47120 0.98755
USER: genes 2 Torsion [C]-N--CA-[C] |==|  0.65910
USER: genes 3 Torsion [N]-CA--C-[N] |==|  0.50494
USER: genes 4 Torsion [C]-N--CA-[C] |==|  0.72773
USER: genes 5 Torsion [N]-CA--C-[O] |==|  0.85296
USER: genes 6 Torsion [N]-CA--CB-[CG] |==|  0.53936
USER: genes 7 Torsion [CA]-CB--CG-[CD1] |==|  0.76605
USER: genes 8 Torsion [N]-CA--CB-[CG] |==|  0.83534
USER: genes 9 Torsion [CA]-CB--CG-[OD1] |==|  0.77730
USER: genes 10 Torsion [N]-C--CA-[N] |==|  0.67750
USER: genes 11 Torsion [C]-CA--N-[C] |==|  0.17541
USER: genes 12 Torsion [N]-C--CA-[N] |==|  0.35209
USER: genes 13 Torsion [C]-CA--CB-[OG] |==|  0.28011
USER: genes 14 Torsion [CA]-CB--OG-[HG] |==|  0.00717
USER: genes 15 Torsion [C]-CA--N-[C] |==|  0.75043
USER: genes 16 Torsion [C]-CA--CB-[CG] |==|  0.36355
USER: genes 17 Torsion [CA]-CB--CG-[CD2] |==|  0.32503
ROOT
ATOM      1  C   LEU I   2       3.031   3.409  10.580  1.00 17.40 LIG 0.24  C 
ATOM      2 O    LEU I   2       3.168   4.075  11.589  1.00 17.46 LIG-0.27  OA
ATOM      3  N   ASN I   3       2.898   2.096  10.566  1.00 16.24 LIG-0.35  N 
ATOM      4 H    ASN I   3       2.880   1.625   9.846  1.00 16.24 LIG 0.16  HD
ENDROOT
BRANCH 3 5
ATOM      5  CA  ASN I   3       2.768   1.331  11.777  1.00 15.86 LIG 0.18  C 
BRANCH 5 6
ATOM      6  C   ASN I   3       3.867   0.289  11.841  1.00 15.05 LIG 0.24  C 
ATOM      7  N   PHE I   4       3.820  -0.510  12.915  1.00 14.49 LIG-0.34  N 
ATOM      8 H    PHE I   4       3.228  -0.438  13.535  1.00 14.49 LIG 0.16  HD
ATOM      9 O    ASN I   3       4.741   0.244  10.942  1.00 16.10 LIG-0.27  OA
BRANCH 7 10
ATOM     10  CA  PHE I   4       4.783  -1.585  13.134  1.00 12.92 LIG 0.19  C 
BRANCH 10 11
ATOM     11  C   PHE I   4       4.170  -2.884  12.675  1.00 14.32 LIG 0.20  C 
ATOM     12 OXT  PHE I   4       4.848  -3.614  11.967  1.00 16.91 LIG-0.65  OA
ATOM     13 O    PHE I   4       3.066  -3.241  13.091  1.00 15.04 LIG-0.65  OA
ENDBRANCH 10 11
BRANCH 10 14
ATOM     14  CB  PHE I   4       5.146  -1.660  14.607  1.00 13.46 LIG 0.07  C 
BRANCH 14 15
ATOM     15  CG  PHE I   4       6.374  -2.511  14.810  1.00 17.43 LIG-0.06  A 
ATOM     16  CD1 PHE I   4       6.242  -3.904  14.905  1.00 19.70 LIG 0.01  A 
ATOM     17  CE1 PHE I   4       7.369  -4.689  15.069  1.00 18.46 LIG 0.00  A 
ATOM     18  CZ  PHE I   4       8.623  -4.095  15.138  1.00 20.27 LIG 0.00  A 
ATOM     19  CE2 PHE I   4       8.765  -2.713  15.044  1.00 19.92 LIG 0.00  A 
ATOM     20  CD2 PHE I   4       7.636  -1.909  14.881  1.00 19.48 LIG 0.01  A 
ENDBRANCH 14 15
ENDBRANCH 10 14
ENDBRANCH 7 10
ENDBRANCH 5 6
BRANCH 5 21
ATOM     21  CB  ASN I   3       1.397   0.671  11.779  1.00 15.02 LIG 0.14  C 
BRANCH 21 22
ATOM     22  CG  ASN I   3       0.319   1.748  11.701  1.00 21.09 LIG 0.22  C 
ATOM     23  ND2 ASN I   3      -0.174   2.101  10.524  1.00 19.37 LIG-0.37  N 
ATOM     24 22HD ASN I   3       0.058   1.674   9.815  1.00 19.37 LIG 0.16  HD
ATOM     25 21HD ASN I   3      -0.727   2.757  10.468  1.00 19.37 LIG 0.16  HD
ATOM     26 OD1  ASN I   3      -0.041   2.386  12.688  1.00 22.58 LIG-0.27  OA
ENDBRANCH 21 22
ENDBRANCH 5 21
ENDBRANCH 3 5
BRANCH 1 27
ATOM     27  CA  LEU I   2       2.947   4.103   9.283  1.00 19.34 LIG 0.18  C 
BRANCH 27 28
ATOM     28  N   LEU I   2       4.255   4.690   9.097  1.00 20.62 LIG-0.35  N 
ATOM     29 H    LEU I   2       4.278   5.549   9.063  1.00 20.62 LIG 0.16  HD
ATOM     30  C   SER I   1       5.311   3.889   8.992  1.00 28.29 LIG 0.24  C 
ATOM     31 O    SER I   1       5.205   2.642   8.972  1.00 21.19 LIG-0.27  OA
BRANCH 30 32
ATOM     32  CA  SER I   1       6.649   4.620   8.962  1.00 32.71 LIG 0.20  C 
BRANCH 32 33
ATOM     33  CB  SER I   1       7.236   4.426   7.594  1.00 35.86 LIG 0.20  C 
BRANCH 33 34
ATOM     34 OG   SER I   1       6.890   5.674   7.064  1.00 39.84 LIG-0.40  OA
ATOM     35 HG   SER I   1       6.513   6.135   7.656  1.00 39.84 LIG 0.21  HD
ENDBRANCH 33 34
ENDBRANCH 32 33
BRANCH 32 36
ATOM     36  N   SER I   1       7.379   3.947  10.031  1.00 41.50 LIG-0.35  N 
ATOM     37  C   ACE I   0       7.460   4.220  11.348  1.00 42.61 LIG 0.21  C 
ATOM     38 O    ACE I   0       6.845   5.100  11.953  0.00 41.61 LIG-0.27  OA
ATOM     39  CH3 ACE I   0       8.377   3.268  12.099  0.00 41.50 LIG 0.12  C 
ATOM     40 H    SER I   1       7.810   3.273   9.714  1.00 41.50 LIG 0.16  HD
ENDBRANCH 32 36
ENDBRANCH 30 32
ENDBRANCH 27 28
BRANCH 27 41
ATOM     41  CB  LEU I   2       2.630   3.126   8.204  1.00 22.58 LIG 0.04  C 
BRANCH 41 42
ATOM     42  CG  LEU I   2       1.470   3.640   7.344  1.00 27.49 LIG-0.02  C 
ATOM     43  CD2 LEU I   2       1.920   3.873   5.892  1.00 25.10 LIG 0.01  C 
ATOM     44  CD1 LEU I   2       0.916   4.883   8.006  1.00 31.16 LIG 0.01  C 
ENDBRANCH 41 42
ENDBRANCH 27 41
ENDBRANCH 1 27
TORSDOF 16
ENDMDL
MODEL 24
USER: ADFR SOLUTION from run 158
USER: SCORE 15.901791 LL:  -3.594 LR: -13.109 RR:   0.000 FEB:  -8.337
USER: RMSD 5.949663
USER: SEED 157
USER: STATUS no improvement in best in 2 clusters for 5 generations
USER: GENES 18
USER: genes 0 Translation |==|  0.57722 0.36754 0.56852
USER: genes 1 Rotation |==|  0.66035 0.79680 0.67003 0.82755
USER: genes 2 Torsion [C]-N--CA-[C] |==|  0.13971
USER: genes 3 Torsion [N]-CA--C-[N] |==|  0.10594
USER: genes 4 Torsion [C]-N--CA-[C] |==|  0.68158
USER: genes 5 Torsion [N]-CA--C-[O] |==|  0.43139
USER: genes 6 Torsion [N]-CA--CB-[CG] |==|  0.33552
USER: genes 7 Torsion [CA]-CB--CG-[CD1] |==|  0.25165
USER: genes 8 Torsion [N]-CA--CB-[CG] |==|  0.55537
USER: genes 9 Torsion [CA]-CB--CG-[OD1] |==|  0.60415
USER: genes 10 Torsion [N]-C--CA-[N] |==|  0.87172
USER: genes 11 Torsion [C]-CA--N-[C] |==|  0.65851
USER: genes 12 Torsion [N]-C--CA-[N] |==|  0.90751
USER: genes 13 Torsion [C]-CA--CB-[OG] |==|  0.69346
USER: genes 14 Torsion [CA]-CB--OG-[HG] |==|  0.19595
USER: genes 15 Torsion [C]-CA--N-[C] |==|  0.71128
USER: genes 16 Torsion [C]-CA--CB-[CG] |==|  0.57257
USER: genes 17 Torsion [CA]-CB--CG-[CD2] |==|  0.66774
ROOT
ATOM      1  C   LEU I   2       5.220   1.225  11.854  1.00 17.40 LIG 0.24  C 
ATOM      2 O    LEU I   2       5.919   1.497  12.812  1.00 17.46 LIG-0.27  OA
ATOM      3  N   ASN I   3       5.605   0.472  10.840  1.00 16.24 LIG-0.35  N 
ATOM      4 H    ASN I   3       5.135   0.348  10.130  1.00 16.24 LIG 0.16  HD
ENDROOT
BRANCH 3 5
ATOM      5  CA  ASN I   3       6.868  -0.218  10.840  1.00 15.86 LIG 0.18  C 
BRANCH 5 6
ATOM      6  C   ASN I   3       7.024  -0.993  12.133  1.00 15.05 LIG 0.24  C 
ATOM      7  N   PHE I   4       5.900  -1.564  12.584  1.00 14.49 LIG-0.34  N 
ATOM      8 H    PHE I   4       5.139  -1.493  12.188  1.00 14.49 LIG 0.16  HD
ATOM      9 O    ASN I   3       8.139  -1.038  12.707  1.00 16.10 LIG-0.27  OA
BRANCH 7 10
ATOM     10  CA  PHE I   4       5.863  -2.369  13.802  1.00 12.92 LIG 0.19  C 
BRANCH 10 11
ATOM     11  C   PHE I   4       5.530  -3.793  13.431  1.00 14.32 LIG 0.20  C 
ATOM     12 OXT  PHE I   4       5.013  -3.990  12.341  1.00 16.91 LIG-0.65  OA
ATOM     13 O    PHE I   4       5.869  -4.728  14.158  1.00 15.04 LIG-0.65  OA
ENDBRANCH 10 11
BRANCH 10 14
ATOM     14  CB  PHE I   4       4.822  -1.811  14.756  1.00 13.46 LIG 0.07  C 
BRANCH 14 15
ATOM     15  CG  PHE I   4       3.775  -2.851  15.069  1.00 17.43 LIG-0.06  A 
ATOM     16  CD1 PHE I   4       3.954  -3.703  16.168  1.00 19.70 LIG 0.01  A 
ATOM     17  CE1 PHE I   4       2.984  -4.642  16.470  1.00 18.46 LIG 0.00  A 
ATOM     18  CZ  PHE I   4       1.842  -4.736  15.685  1.00 20.27 LIG 0.00  A 
ATOM     19  CE2 PHE I   4       1.655  -3.894  14.591  1.00 19.92 LIG 0.00  A 
ATOM     20  CD2 PHE I   4       2.626  -2.943  14.274  1.00 19.48 LIG 0.01  A 
ENDBRANCH 14 15
ENDBRANCH 10 14
ENDBRANCH 7 10
ENDBRANCH 5 6
BRANCH 5 21
ATOM     21  CB  ASN I   3       7.974   0.815  10.692  1.00 15.02 LIG 0.14  C 
BRANCH 21 22
ATOM     22  CG  ASN I   3       9.244   0.126  10.198  1.00 21.09 LIG 0.22  C 
ATOM     23  ND2 ASN I   3       9.153  -0.931   9.407  1.00 19.37 LIG-0.37  N 
ATOM     24 22HD ASN I   3       8.386  -1.184   9.114  1.00 19.37 LIG 0.16  HD
ATOM     25 21HD ASN I   3       9.861  -1.366   9.186  1.00 19.37 LIG 0.16  HD
ATOM     26 OD1  ASN I   3      10.361   0.453  10.594  1.00 22.58 LIG-0.27  OA
ENDBRANCH 21 22
ENDBRANCH 5 21
ENDBRANCH 3 5
BRANCH 1 27
ATOM     27  CA  LEU I   2       3.830   1.711  11.835  1.00 19.34 LIG 0.18  C 
BRANCH 27 28
ATOM     28  N   LEU I   2       3.630   2.199  10.488  1.00 20.62 LIG-0.35  N 
ATOM     29 H    LEU I   2       3.771   1.629   9.860  1.00 20.62 LIG 0.16  HD
ATOM     30  C   SER I   1       3.253   3.461  10.311  1.00 28.29 LIG 0.24  C 
ATOM     31 O    SER I   1       3.138   4.265  11.263  1.00 21.19 LIG-0.27  OA
BRANCH 30 32
ATOM     32  CA  SER I   1       2.917   3.815   8.867  1.00 32.71 LIG 0.20  C 
BRANCH 32 33
ATOM     33  CB  SER I   1       1.471   3.475   8.646  1.00 35.86 LIG 0.20  C 
BRANCH 33 34
ATOM     34 OG   SER I   1       1.665   2.385   7.789  1.00 39.84 LIG-0.40  OA
ATOM     35 HG   SER I   1       1.983   1.740   8.224  1.00 39.84 LIG 0.21  HD
ENDBRANCH 33 34
ENDBRANCH 32 33
BRANCH 32 36
ATOM     36  N   SER I   1       3.852   2.972   8.129  1.00 41.50 LIG-0.35  N 
ATOM     37  C   ACE I   0       5.000   3.279   7.494  1.00 42.61 LIG 0.21  C 
ATOM     38 O    ACE I   0       5.551   4.381   7.468  0.00 41.61 LIG-0.27  OA
ATOM     39  CH3 ACE I   0       5.644   2.081   6.815  0.00 41.50 LIG 0.12  C 
ATOM     40 H    SER I   1       3.578   2.156   8.131  1.00 41.50 LIG 0.16  HD
ENDBRANCH 32 36
ENDBRANCH 30 32
ENDBRANCH 27 28
BRANCH 27 41
ATOM     41  CB  LEU I   2       2.898   0.593  12.152  1.00 22.58 LIG 0.04  C 
BRANCH 41 42
ATOM     42  CG  LEU I   2       1.520   0.856  11.532  1.00 27.49 LIG-0.02  C 
ATOM     43  CD2 LEU I   2       0.431   0.929  12.616  1.00 25.10 LIG 0.01  C 
ATOM     44  CD1 LEU I   2       1.264  -0.218  10.497  1.00 31.16 LIG 0.01  C 
ENDBRANCH 41 42
ENDBRANCH 27 41
ENDBRANCH 1 27
TORSDOF 16
ENDMDL
MODEL 25
USER: ADFR SOLUTION from run 54
USER: SCORE 16.091156 LL:  -4.441 LR: -13.109 RR:   0.000 FEB:  -8.336
USER: RMSD 7.480761
USER: SEED 53
USER: STATUS no improvement in best in 12 clusters for 5 generations
USER: GENES 18
USER: genes 0 Translation |==|  0.52252 0.50255 0.53602
USER: genes 1 Rotation |==|  0.13317 0.73783 0.47760 0.74160
USER: genes 2 Torsion [C]-N--CA-[C] |==|  0.76542
USER: genes 3 Torsion [N]-CA--C-[N] |==|  0.15206
USER: genes 4 Torsion [C]-N--CA-[C] |==|  0.68752
USER: genes 5 Torsion [N]-CA--C-[O] |==|  0.84169
USER: genes 6 Torsion [N]-CA--CB-[CG] |==|  0.86237
USER: genes 7 Torsion [CA]-CB--CG-[CD1] |==|  0.30112
USER: genes 8 Torsion [N]-CA--CB-[CG] |==|  0.77335
USER: genes 9 Torsion [CA]-CB--CG-[OD1] |==|  0.03236
USER: genes 10 Torsion [N]-C--CA-[N] |==|  0.97359
USER: genes 11 Torsion [C]-CA--N-[C] |==|  0.58639
USER: genes 12 Torsion [N]-C--CA-[N] |==|  0.88613
USER: genes 13 Torsion [C]-CA--CB-[OG] |==|  0.65474
USER: genes 14 Torsion [CA]-CB--OG-[HG] |==|  0.54056
USER: genes 15 Torsion [C]-CA--N-[C] |==|  0.66111
USER: genes 16 Torsion [C]-CA--CB-[CG] |==|  0.40567
USER: genes 17 Torsion [CA]-CB--CG-[CD2] |==|  0.76865
ROOT
ATOM      1  C   LEU I   2       4.276   3.554  11.195  1.00 17.40 LIG 0.24  C 
ATOM      2 O    LEU I   2       3.952   4.198  10.215  1.00 17.46 LIG-0.27  OA
ATOM      3  N   ASN I   3       5.260   3.884  12.011  1.00 16.24 LIG-0.35  N 
ATOM      4 H    ASN I   3       5.534   3.384  12.656  1.00 16.24 LIG 0.16  HD
ENDROOT
BRANCH 3 5
ATOM      5  CA  ASN I   3       5.969   5.130  11.886  1.00 15.86 LIG 0.18  C 
BRANCH 5 6
ATOM      6  C   ASN I   3       7.073   4.985  10.859  1.00 15.05 LIG 0.24  C 
ATOM      7  N   PHE I   4       6.670   4.548   9.659  1.00 14.49 LIG-0.34  N 
ATOM      8 H    PHE I   4       5.853   4.347   9.477  1.00 14.49 LIG 0.16  HD
ATOM      9 O    ASN I   3       8.261   5.244  11.173  1.00 16.10 LIG-0.27  OA
BRANCH 7 10
ATOM     10  CA  PHE I   4       7.590   4.370   8.539  1.00 12.92 LIG 0.19  C 
BRANCH 10 11
ATOM     11  C   PHE I   4       7.259   5.386   7.475  1.00 14.32 LIG 0.20  C 
ATOM     12 OXT  PHE I   4       8.172   6.074   7.042  1.00 16.91 LIG-0.65  OA
ATOM     13 O    PHE I   4       6.128   5.442   6.987  1.00 15.04 LIG-0.65  OA
ENDBRANCH 10 11
BRANCH 10 14
ATOM     14  CB  PHE I   4       7.462   2.961   7.987  1.00 13.46 LIG 0.07  C 
BRANCH 14 15
ATOM     15  CG  PHE I   4       7.538   1.945   9.099  1.00 17.43 LIG-0.06  A 
ATOM     16  CD1 PHE I   4       6.382   1.249   9.479  1.00 19.70 LIG 0.01  A 
ATOM     17  CE1 PHE I   4       6.453   0.301  10.484  1.00 18.46 LIG 0.00  A 
ATOM     18  CZ  PHE I   4       7.667   0.043  11.108  1.00 20.27 LIG 0.00  A 
ATOM     19  CE2 PHE I   4       8.822   0.728  10.737  1.00 19.92 LIG 0.00  A 
ATOM     20  CD2 PHE I   4       8.763   1.689   9.726  1.00 19.48 LIG 0.01  A 
ENDBRANCH 14 15
ENDBRANCH 10 14
ENDBRANCH 7 10
ENDBRANCH 5 6
BRANCH 5 21
ATOM     21  CB  ASN I   3       6.542   5.491  13.248  1.00 15.02 LIG 0.14  C 
BRANCH 21 22
ATOM     22  CG  ASN I   3       5.454   6.146  14.095  1.00 21.09 LIG 0.22  C 
ATOM     23  ND2 ASN I   3       5.757   6.646  15.283  1.00 19.37 LIG-0.37  N 
ATOM     24 22HD ASN I   3       6.576   6.668  15.544  1.00 19.37 LIG 0.16  HD
ATOM     25 21HD ASN I   3       5.136   6.949  15.793  1.00 19.37 LIG 0.16  HD
ATOM     26 OD1  ASN I   3       4.271   6.135  13.762  1.00 22.58 LIG-0.27  OA
ENDBRANCH 21 22
ENDBRANCH 5 21
ENDBRANCH 3 5
BRANCH 1 27
ATOM     27  CA  LEU I   2       3.492   2.358  11.544  1.00 19.34 LIG 0.18  C 
BRANCH 27 28
ATOM     28  N   LEU I   2       4.221   1.745  12.631  1.00 20.62 LIG-0.35  N 
ATOM     29 H    LEU I   2       4.652   2.285  13.144  1.00 20.62 LIG 0.16  HD
ATOM     30  C   SER I   1       4.183   0.423  12.767  1.00 28.29 LIG 0.24  C 
ATOM     31 O    SER I   1       3.600  -0.317  11.944  1.00 21.19 LIG-0.27  OA
BRANCH 30 32
ATOM     32  CA  SER I   1       4.851  -0.093  14.037  1.00 32.71 LIG 0.20  C 
BRANCH 32 33
ATOM     33  CB  SER I   1       3.883   0.109  15.167  1.00 35.86 LIG 0.20  C 
BRANCH 33 34
ATOM     34 OG   SER I   1       4.721   0.864  15.996  1.00 39.84 LIG-0.40  OA
ATOM     35 HG   SER I   1       4.395   0.896  16.770  1.00 39.84 LIG 0.21  HD
ENDBRANCH 33 34
ENDBRANCH 32 33
BRANCH 32 36
ATOM     36  N   SER I   1       6.042   0.746  14.108  1.00 41.50 LIG-0.35  N 
ATOM     37  C   ACE I   0       7.349   0.417  14.138  1.00 42.61 LIG 0.21  C 
ATOM     38 O    ACE I   0       7.822  -0.716  14.037  0.00 41.61 LIG-0.27  OA
ATOM     39  CH3 ACE I   0       8.265   1.625  14.253  0.00 41.50 LIG 0.12  C 
ATOM     40 H    SER I   1       5.817   1.575  14.133  1.00 41.50 LIG 0.16  HD
ENDBRANCH 32 36
ENDBRANCH 30 32
ENDBRANCH 27 28
BRANCH 27 41
ATOM     41  CB  LEU I   2       2.119   2.756  11.966  1.00 22.58 LIG 0.04  C 
BRANCH 41 42
ATOM     42  CG  LEU I   2       1.100   1.696  11.534  1.00 27.49 LIG-0.02  C 
ATOM     43  CD2 LEU I   2       0.672   1.903  10.072  1.00 25.10 LIG 0.01  C 
ATOM     44  CD1 LEU I   2      -0.057   1.740  12.509  1.00 31.16 LIG 0.01  C 
ENDBRANCH 41 42
ENDBRANCH 27 41
ENDBRANCH 1 27
TORSDOF 16
ENDMDL
MODEL 26
USER: ADFR SOLUTION from run 50
USER: SCORE 16.135204 LL:  -3.689 LR: -13.099 RR:   0.000 FEB:  -8.326
USER: RMSD 5.289548
USER: SEED 49
USER: STATUS no improvement in best in 10 clusters for 5 generations
USER: GENES 18
USER: genes 0 Translation |==|  0.48435 0.31598 0.59607
USER: genes 1 Rotation |==|  0.67036 0.28674 0.91503 0.55699
USER: genes 2 Torsion [C]-N--CA-[C] |==|  0.16111
USER: genes 3 Torsion [N]-CA--C-[N] |==|  0.13043
USER: genes 4 Torsion [C]-N--CA-[C] |==|  0.77703
USER: genes 5 Torsion [N]-CA--C-[O] |==|  0.89899
USER: genes 6 Torsion [N]-CA--CB-[CG] |==|  0.62908
USER: genes 7 Torsion [CA]-CB--CG-[CD1] |==|  0.90722
USER: genes 8 Torsion [N]-CA--CB-[CG] |==|  0.66017
USER: genes 9 Torsion [CA]-CB--CG-[OD1] |==|  0.72395
USER: genes 10 Torsion [N]-C--CA-[N] |==|  0.25704
USER: genes 11 Torsion [C]-CA--N-[C] |==|  0.65538
USER: genes 12 Torsion [N]-C--CA-[N] |==|  0.32485
USER: genes 13 Torsion [C]-CA--CB-[OG] |==|  0.59429
USER: genes 14 Torsion [CA]-CB--OG-[HG] |==|  0.25417
USER: genes 15 Torsion [C]-CA--N-[C] |==|  0.72461
USER: genes 16 Torsion [C]-CA--CB-[CG] |==|  0.43271
USER: genes 17 Torsion [CA]-CB--CG-[CD2] |==|  0.22385
ROOT
ATOM      1  C   LEU I   2       3.618   0.336  12.411  1.00 17.40 LIG 0.24  C 
ATOM      2 O    LEU I   2       3.750  -0.795  11.983  1.00 17.46 LIG-0.27  OA
ATOM      3  N   ASN I   3       4.400   0.883  13.324  1.00 16.24 LIG-0.35  N 
ATOM      4 H    ASN I   3       4.255   1.653  13.678  1.00 16.24 LIG 0.16  HD
ENDROOT
BRANCH 3 5
ATOM      5  CA  ASN I   3       5.583   0.222  13.808  1.00 15.86 LIG 0.18  C 
BRANCH 5 6
ATOM      6  C   ASN I   3       6.513  -0.072  12.649  1.00 15.05 LIG 0.24  C 
ATOM      7  N   PHE I   4       6.707   0.955  11.811  1.00 14.49 LIG-0.34  N 
ATOM      8 H    PHE I   4       6.329   1.722  11.905  1.00 14.49 LIG 0.16  HD
ATOM      9 O    ASN I   3       7.011  -1.217  12.519  1.00 16.10 LIG-0.27  OA
BRANCH 7 10
ATOM     10  CA  PHE I   4       7.589   0.864  10.651  1.00 12.92 LIG 0.19  C 
BRANCH 10 11
ATOM     11  C   PHE I   4       9.014   1.043  11.111  1.00 14.32 LIG 0.20  C 
ATOM     12 OXT  PHE I   4       9.890   0.467  10.483  1.00 16.91 LIG-0.65  OA
ATOM     13 O    PHE I   4       9.288   1.828  12.021  1.00 15.04 LIG-0.65  OA
ENDBRANCH 10 11
BRANCH 10 14
ATOM     14  CB  PHE I   4       7.219   1.934   9.639  1.00 13.46 LIG 0.07  C 
BRANCH 14 15
ATOM     15  CG  PHE I   4       7.145   1.350   8.250  1.00 17.43 LIG-0.06  A 
ATOM     16  CD1 PHE I   4       8.007   0.304   7.893  1.00 19.70 LIG 0.01  A 
ATOM     17  CE1 PHE I   4       7.926  -0.249   6.628  1.00 18.46 LIG 0.00  A 
ATOM     18  CZ  PHE I   4       6.992   0.234   5.720  1.00 20.27 LIG 0.00  A 
ATOM     19  CE2 PHE I   4       6.130   1.273   6.064  1.00 19.92 LIG 0.00  A 
ATOM     20  CD2 PHE I   4       6.203   1.840   7.337  1.00 19.48 LIG 0.01  A 
ENDBRANCH 14 15
ENDBRANCH 10 14
ENDBRANCH 7 10
ENDBRANCH 5 6
BRANCH 5 21
ATOM     21  CB  ASN I   3       5.160  -1.064  14.501  1.00 15.02 LIG 0.14  C 
BRANCH 21 22
ATOM     22  CG  ASN I   3       5.660  -1.048  15.944  1.00 21.09 LIG 0.22  C 
ATOM     23  ND2 ASN I   3       5.057  -0.283  16.840  1.00 19.37 LIG-0.37  N 
ATOM     24 22HD ASN I   3       4.342   0.145  16.629  1.00 19.37 LIG 0.16  HD
ATOM     25 21HD ASN I   3       5.379  -0.215  17.634  1.00 19.37 LIG 0.16  HD
ATOM     26 OD1  ASN I   3       6.679  -1.642  16.288  1.00 22.58 LIG-0.27  OA
ENDBRANCH 21 22
ENDBRANCH 5 21
ENDBRANCH 3 5
BRANCH 1 27
ATOM     27  CA  LEU I   2       2.558   1.186  11.843  1.00 19.34 LIG 0.18  C 
BRANCH 27 28
ATOM     28  N   LEU I   2       3.153   1.771  10.662  1.00 20.62 LIG-0.35  N 
ATOM     29 H    LEU I   2       3.466   1.214  10.087  1.00 20.62 LIG 0.16  HD
ATOM     30  C   SER I   1       3.176   3.095  10.543  1.00 28.29 LIG 0.24  C 
ATOM     31 O    SER I   1       2.772   3.856  11.451  1.00 21.19 LIG-0.27  OA
BRANCH 30 32
ATOM     32  CA  SER I   1       3.676   3.591   9.191  1.00 32.71 LIG 0.20  C 
BRANCH 32 33
ATOM     33  CB  SER I   1       4.854   4.487   9.448  1.00 35.86 LIG 0.20  C 
BRANCH 33 34
ATOM     34 OG   SER I   1       4.637   5.385   8.397  1.00 39.84 LIG-0.40  OA
ATOM     35 HG   SER I   1       4.165   6.025   8.668  1.00 39.84 LIG 0.21  HD
ENDBRANCH 33 34
ENDBRANCH 32 33
BRANCH 32 36
ATOM     36  N   SER I   1       2.499   4.281   8.673  1.00 41.50 LIG-0.35  N 
ATOM     37  C   ACE I   0       1.558   3.877   7.796  1.00 42.61 LIG 0.21  C 
ATOM     38 O    ACE I   0       1.465   2.761   7.284  0.00 41.61 LIG-0.27  OA
ATOM     39  CH3 ACE I   0       0.515   4.945   7.509  0.00 41.50 LIG 0.12  C 
ATOM     40 H    SER I   1       2.444   5.067   9.016  1.00 41.50 LIG 0.16  HD
ENDBRANCH 32 36
ENDBRANCH 30 32
ENDBRANCH 27 28
BRANCH 27 41
ATOM     41  CB  LEU I   2       1.371   0.355  11.500  1.00 22.58 LIG 0.04  C 
BRANCH 41 42
ATOM     42  CG  LEU I   2       0.102   1.216  11.489  1.00 27.49 LIG-0.02  C 
ATOM     43  CD2 LEU I   2      -0.026   1.995  10.169  1.00 25.10 LIG 0.01  C 
ATOM     44  CD1 LEU I   2       0.137   2.109  12.710  1.00 31.16 LIG 0.01  C 
ENDBRANCH 41 42
ENDBRANCH 27 41
ENDBRANCH 1 27
TORSDOF 16
ENDMDL
MODEL 27
USER: ADFR SOLUTION from run 15
USER: SCORE 16.380190 LL:  -3.947 LR: -13.100 RR:   0.000 FEB:  -8.327
USER: RMSD 6.178399
USER: SEED 309194
USER: STATUS no improvement in best in 14 clusters for 5 generations
USER: GENES 18
USER: genes 0 Translation |==|  0.60190 0.46304 0.57398
USER: genes 1 Rotation |==|  0.22062 0.40399 0.11316 0.61440
USER: genes 2 Torsion [C]-N--CA-[C] |==|  0.11678
USER: genes 3 Torsion [N]-CA--C-[N] |==|  0.12415
USER: genes 4 Torsion [C]-N--CA-[C] |==|  0.71015
USER: genes 5 Torsion [N]-CA--C-[O] |==|  0.33709
USER: genes 6 Torsion [N]-CA--CB-[CG] |==|  0.77684
USER: genes 7 Torsion [CA]-CB--CG-[CD1] |==|  0.49718
USER: genes 8 Torsion [N]-CA--CB-[CG] |==|  0.75551
USER: genes 9 Torsion [CA]-CB--CG-[OD1] |==|  0.59652
USER: genes 10 Torsion [N]-C--CA-[N] |==|  0.15735
USER: genes 11 Torsion [C]-CA--N-[C] |==|  0.76662
USER: genes 12 Torsion [N]-C--CA-[N] |==|  0.35769
USER: genes 13 Torsion [C]-CA--CB-[OG] |==|  0.58070
USER: genes 14 Torsion [CA]-CB--OG-[HG] |==|  0.20711
USER: genes 15 Torsion [C]-CA--N-[C] |==|  0.83668
USER: genes 16 Torsion [C]-CA--CB-[CG] |==|  0.28767
USER: genes 17 Torsion [CA]-CB--CG-[CD2] |==|  0.09620
ROOT
ATOM      1  C   LEU I   2       5.646   2.872  11.964  1.00 17.40 LIG 0.24  C 
ATOM      2 O    LEU I   2       6.832   2.602  11.981  1.00 17.46 LIG-0.27  OA
ATOM      3  N   ASN I   3       5.161   4.100  11.973  1.00 16.24 LIG-0.35  N 
ATOM      4 H    ASN I   3       4.323   4.283  12.040  1.00 16.24 LIG 0.16  HD
ENDROOT
BRANCH 3 5
ATOM      5  CA  ASN I   3       6.012   5.256  11.871  1.00 15.86 LIG 0.18  C 
BRANCH 5 6
ATOM      6  C   ASN I   3       7.082   5.009  10.827  1.00 15.05 LIG 0.24  C 
ATOM      7  N   PHE I   4       6.640   4.455   9.691  1.00 14.49 LIG-0.34  N 
ATOM      8 H    PHE I   4       5.818   4.237   9.557  1.00 14.49 LIG 0.16  HD
ATOM      9 O    ASN I   3       8.278   5.297  11.074  1.00 16.10 LIG-0.27  OA
BRANCH 7 10
ATOM     10  CA  PHE I   4       7.522   4.165   8.564  1.00 12.92 LIG 0.19  C 
BRANCH 10 11
ATOM     11  C   PHE I   4       7.292   5.200   7.491  1.00 14.32 LIG 0.20  C 
ATOM     12 OXT  PHE I   4       6.144   5.378   7.111  1.00 16.91 LIG-0.65  OA
ATOM     13 O    PHE I   4       8.216   5.912   7.094  1.00 15.04 LIG-0.65  OA
ENDBRANCH 10 11
BRANCH 10 14
ATOM     14  CB  PHE I   4       7.236   2.772   8.031  1.00 13.46 LIG 0.07  C 
BRANCH 14 15
ATOM     15  CG  PHE I   4       7.911   1.727   8.883  1.00 17.43 LIG-0.06  A 
ATOM     16  CD1 PHE I   4       7.752   0.370   8.569  1.00 19.70 LIG 0.01  A 
ATOM     17  CE1 PHE I   4       8.388  -0.589   9.336  1.00 18.46 LIG 0.00  A 
ATOM     18  CZ  PHE I   4       9.180  -0.204  10.411  1.00 20.27 LIG 0.00  A 
ATOM     19  CE2 PHE I   4       9.345   1.141  10.731  1.00 19.92 LIG 0.00  A 
ATOM     20  CD2 PHE I   4       8.707   2.120   9.967  1.00 19.48 LIG 0.01  A 
ENDBRANCH 14 15
ENDBRANCH 10 14
ENDBRANCH 7 10
ENDBRANCH 5 6
BRANCH 5 21
ATOM     21  CB  ASN I   3       6.636   5.510  13.235  1.00 15.02 LIG 0.14  C 
BRANCH 21 22
ATOM     22  CG  ASN I   3       5.708   6.403  14.055  1.00 21.09 LIG 0.22  C 
ATOM     23  ND2 ASN I   3       4.402   6.367  13.841  1.00 19.37 LIG-0.37  N 
ATOM     24 22HD ASN I   3       4.072   5.791  13.295  1.00 19.37 LIG 0.16  HD
ATOM     25 21HD ASN I   3       3.884   6.920  14.248  1.00 19.37 LIG 0.16  HD
ATOM     26 OD1  ASN I   3       6.138   7.242  14.843  1.00 22.58 LIG-0.27  OA
ENDBRANCH 21 22
ENDBRANCH 5 21
ENDBRANCH 3 5
BRANCH 1 27
ATOM     27  CA  LEU I   2       4.673   1.771  11.865  1.00 19.34 LIG 0.18  C 
BRANCH 27 28
ATOM     28  N   LEU I   2       3.931   2.045  10.655  1.00 20.62 LIG-0.35  N 
ATOM     29 H    LEU I   2       4.204   1.636   9.950  1.00 20.62 LIG 0.16  HD
ATOM     30  C   SER I   1       2.903   2.886  10.708  1.00 28.29 LIG 0.24  C 
ATOM     31 O    SER I   1       2.602   3.509  11.751  1.00 21.19 LIG-0.27  OA
BRANCH 30 32
ATOM     32  CA  SER I   1       2.099   2.971   9.416  1.00 32.71 LIG 0.20  C 
BRANCH 32 33
ATOM     33  CB  SER I   1       2.343   4.331   8.825  1.00 35.86 LIG 0.20  C 
BRANCH 33 34
ATOM     34 OG   SER I   1       1.115   4.469   8.167  1.00 39.84 LIG-0.40  OA
ATOM     35 HG   SER I   1       0.512   4.632   8.729  1.00 39.84 LIG 0.21  HD
ENDBRANCH 33 34
ENDBRANCH 32 33
BRANCH 32 36
ATOM     36  N   SER I   1       0.739   2.761   9.897  1.00 41.50 LIG-0.35  N 
ATOM     37  C   ACE I   0       0.194   1.726  10.568  1.00 42.61 LIG 0.21  C 
ATOM     38 O    ACE I   0       0.787   0.731  10.988  0.00 41.61 LIG-0.27  OA
ATOM     39  CH3 ACE I   0      -1.290   1.909  10.841  0.00 41.50 LIG 0.12  C 
ATOM     40 H    SER I   1       0.246   3.436   9.694  1.00 41.50 LIG 0.16  HD
ENDBRANCH 32 36
ENDBRANCH 30 32
ENDBRANCH 27 28
BRANCH 27 41
ATOM     41  CB  LEU I   2       5.390   0.467  11.781  1.00 22.58 LIG 0.04  C 
BRANCH 41 42
ATOM     42  CG  LEU I   2       5.327  -0.264  13.127  1.00 27.49 LIG-0.02  C 
ATOM     43  CD2 LEU I   2       3.990  -0.000  13.837  1.00 25.10 LIG 0.01  C 
ATOM     44  CD1 LEU I   2       6.532   0.158  13.941  1.00 31.16 LIG 0.01  C 
ENDBRANCH 41 42
ENDBRANCH 27 41
ENDBRANCH 1 27
TORSDOF 16
ENDMDL
MODEL 28
USER: ADFR SOLUTION from run 167
USER: SCORE 16.218599 LL:  -3.682 LR: -13.101 RR:   0.000 FEB:  -8.328
USER: RMSD 3.327978
USER: SEED 166
USER: STATUS no improvement in best in 4 clusters for 5 generations
USER: GENES 18
USER: genes 0 Translation |==|  0.55392 0.46757 0.56726
USER: genes 1 Rotation |==|  0.75216 0.73468 0.28582 0.79234
USER: genes 2 Torsion [C]-N--CA-[C] |==|  0.87523
USER: genes 3 Torsion [N]-CA--C-[N] |==|  0.40502
USER: genes 4 Torsion [C]-N--CA-[C] |==|  0.63121
USER: genes 5 Torsion [N]-CA--C-[O] |==|  0.99483
USER: genes 6 Torsion [N]-CA--CB-[CG] |==|  0.80149
USER: genes 7 Torsion [CA]-CB--CG-[CD1] |==|  0.84228
USER: genes 8 Torsion [N]-CA--CB-[CG] |==|  0.88974
USER: genes 9 Torsion [CA]-CB--CG-[OD1] |==|  0.85847
USER: genes 10 Torsion [N]-C--CA-[N] |==|  0.90559
USER: genes 11 Torsion [C]-CA--N-[C] |==|  0.79703
USER: genes 12 Torsion [N]-C--CA-[N] |==|  0.46111
USER: genes 13 Torsion [C]-CA--CB-[OG] |==|  0.76020
USER: genes 14 Torsion [CA]-CB--OG-[HG] |==|  0.30299
USER: genes 15 Torsion [C]-CA--N-[C] |==|  0.78218
USER: genes 16 Torsion [C]-CA--CB-[CG] |==|  0.35220
USER: genes 17 Torsion [CA]-CB--CG-[CD2] |==|  0.91416
ROOT
ATOM      1  C   LEU I   2       4.818   2.951  11.828  1.00 17.40 LIG 0.24  C 
ATOM      2 O    LEU I   2       5.731   2.299  12.298  1.00 17.46 LIG-0.27  OA
ATOM      3  N   ASN I   3       3.597   2.489  11.633  1.00 16.24 LIG-0.35  N 
ATOM      4 H    ASN I   3       2.978   2.930  11.229  1.00 16.24 LIG 0.16  HD
ENDROOT
BRANCH 3 5
ATOM      5  CA  ASN I   3       3.193   1.186  12.089  1.00 15.86 LIG 0.18  C 
BRANCH 5 6
ATOM      6  C   ASN I   3       4.266   0.172  11.746  1.00 15.05 LIG 0.24  C 
ATOM      7  N   PHE I   4       4.412  -0.814  12.641  1.00 14.49 LIG-0.34  N 
ATOM      8 H    PHE I   4       3.950  -0.871  13.364  1.00 14.49 LIG 0.16  HD
ATOM      9 O    ASN I   3       4.952   0.312  10.705  1.00 16.10 LIG-0.27  OA
BRANCH 7 10
ATOM     10  CA  PHE I   4       5.380  -1.893  12.467  1.00 12.92 LIG 0.19  C 
BRANCH 10 11
ATOM     11  C   PHE I   4       4.695  -3.207  12.743  1.00 14.32 LIG 0.20  C 
ATOM     12 OXT  PHE I   4       5.377  -4.221  12.716  1.00 16.91 LIG-0.65  OA
ATOM     13 O    PHE I   4       3.513  -3.240  13.091  1.00 15.04 LIG-0.65  OA
ENDBRANCH 10 11
BRANCH 10 14
ATOM     14  CB  PHE I   4       6.549  -1.693  13.415  1.00 13.46 LIG 0.07  C 
BRANCH 14 15
ATOM     15  CG  PHE I   4       7.401  -0.530  12.972  1.00 17.43 LIG-0.06  A 
ATOM     16  CD1 PHE I   4       7.951  -0.527  11.683  1.00 19.70 LIG 0.01  A 
ATOM     17  CE1 PHE I   4       8.714   0.549  11.266  1.00 18.46 LIG 0.00  A 
ATOM     18  CZ  PHE I   4       8.930   1.619  12.125  1.00 20.27 LIG 0.00  A 
ATOM     19  CE2 PHE I   4       8.388   1.627  13.408  1.00 19.92 LIG 0.00  A 
ATOM     20  CD2 PHE I   4       7.618   0.547  13.842  1.00 19.48 LIG 0.01  A 
ENDBRANCH 14 15
ENDBRANCH 10 14
ENDBRANCH 7 10
ENDBRANCH 5 6
BRANCH 5 21
ATOM     21  CB  ASN I   3       1.878   0.830  11.411  1.00 15.02 LIG 0.14  C 
BRANCH 21 22
ATOM     22  CG  ASN I   3       0.991   2.072  11.350  1.00 21.09 LIG 0.22  C 
ATOM     23  ND2 ASN I   3       0.542   2.500  10.180  1.00 19.37 LIG-0.37  N 
ATOM     24 22HD ASN I   3       0.687   2.041   9.469  1.00 19.37 LIG 0.16  HD
ATOM     25 21HD ASN I   3       0.104   3.239  10.132  1.00 19.37 LIG 0.16  HD
ATOM     26 OD1  ASN I   3       0.760   2.760  12.341  1.00 22.58 LIG-0.27  OA
ENDBRANCH 21 22
ENDBRANCH 5 21
ENDBRANCH 3 5
BRANCH 1 27
ATOM     27  CA  LEU I   2       5.056   4.368  11.506  1.00 19.34 LIG 0.18  C 
BRANCH 27 28
ATOM     28  N   LEU I   2       4.199   4.635  10.373  1.00 20.62 LIG-0.35  N 
ATOM     29 H    LEU I   2       3.504   5.114  10.536  1.00 20.62 LIG 0.16  HD
ATOM     30  C   SER I   1       4.530   4.138   9.185  1.00 28.29 LIG 0.24  C 
ATOM     31 O    SER I   1       5.515   3.383   9.026  1.00 21.19 LIG-0.27  OA
BRANCH 30 32
ATOM     32  CA  SER I   1       3.645   4.619   8.040  1.00 32.71 LIG 0.20  C 
BRANCH 32 33
ATOM     33  CB  SER I   1       2.322   3.920   8.171  1.00 35.86 LIG 0.20  C 
BRANCH 33 34
ATOM     34 OG   SER I   1       2.655   2.758   7.466  1.00 39.84 LIG-0.40  OA
ATOM     35 HG   SER I   1       2.714   2.113   8.001  1.00 39.84 LIG 0.21  HD
ENDBRANCH 33 34
ENDBRANCH 32 33
BRANCH 32 36
ATOM     36  N   SER I   1       4.424   4.216   6.874  1.00 41.50 LIG-0.35  N 
ATOM     37  C   ACE I   0       5.507   4.779   6.303  1.00 42.61 LIG 0.21  C 
ATOM     38 O    ACE I   0       6.127   5.760   6.716  0.00 41.61 LIG-0.27  OA
ATOM     39  CH3 ACE I   0       5.981   4.036   5.063  0.00 41.50 LIG 0.12  C 
ATOM     40 H    SER I   1       4.096   3.497   6.535  1.00 41.50 LIG 0.16  HD
ENDBRANCH 32 36
ENDBRANCH 30 32
ENDBRANCH 27 28
BRANCH 27 41
ATOM     41  CB  LEU I   2       4.697   5.221  12.673  1.00 22.58 LIG 0.04  C 
BRANCH 41 42
ATOM     42  CG  LEU I   2       5.869   6.138  13.044  1.00 27.49 LIG-0.02  C 
ATOM     43  CD2 LEU I   2       7.216   5.474  12.716  1.00 25.10 LIG 0.01  C 
ATOM     44  CD1 LEU I   2       5.724   6.510  14.504  1.00 31.16 LIG 0.01  C 
ENDBRANCH 41 42
ENDBRANCH 27 41
ENDBRANCH 1 27
TORSDOF 16
ENDMDL
MODEL 29
USER: ADFR SOLUTION from run 30
USER: SCORE 16.370018 LL:  -3.652 LR: -13.087 RR:   0.000 FEB:  -8.314
USER: RMSD 8.931316
USER: SEED 29
USER: STATUS no improvement in best in 6 clusters for 5 generations
USER: GENES 18
USER: genes 0 Translation |==|  0.37256 0.52581 0.36442
USER: genes 1 Rotation |==|  0.02180 0.44282 0.62358 0.55279
USER: genes 2 Torsion [C]-N--CA-[C] |==|  0.78699
USER: genes 3 Torsion [N]-CA--C-[N] |==|  0.35655
USER: genes 4 Torsion [C]-N--CA-[C] |==|  0.60661
USER: genes 5 Torsion [N]-CA--C-[O] |==|  0.29075
USER: genes 6 Torsion [N]-CA--CB-[CG] |==|  0.79909
USER: genes 7 Torsion [CA]-CB--CG-[CD1] |==|  0.75144
USER: genes 8 Torsion [N]-CA--CB-[CG] |==|  0.52725
USER: genes 9 Torsion [CA]-CB--CG-[OD1] |==|  0.83450
USER: genes 10 Torsion [N]-C--CA-[N] |==|  0.33421
USER: genes 11 Torsion [C]-CA--N-[C] |==|  0.70628
USER: genes 12 Torsion [N]-C--CA-[N] |==|  0.31800
USER: genes 13 Torsion [C]-CA--CB-[OG] |==|  0.83060
USER: genes 14 Torsion [CA]-CB--OG-[HG] |==|  0.62734
USER: genes 15 Torsion [C]-CA--N-[C] |==|  0.72793
USER: genes 16 Torsion [C]-CA--CB-[CG] |==|  0.42015
USER: genes 17 Torsion [CA]-CB--CG-[CD2] |==|  0.29920
ROOT
ATOM      1  C   LEU I   2       1.690   3.955   7.721  1.00 17.40 LIG 0.24  C 
ATOM      2 O    LEU I   2       1.226   3.142   6.944  1.00 17.46 LIG-0.27  OA
ATOM      3  N   ASN I   3       1.298   5.213   7.805  1.00 16.24 LIG-0.35  N 
ATOM      4 H    ASN I   3       1.683   5.801   8.301  1.00 16.24 LIG 0.16  HD
ENDROOT
BRANCH 3 5
ATOM      5  CA  ASN I   3       0.173   5.712   7.061  1.00 15.86 LIG 0.18  C 
BRANCH 5 6
ATOM      6  C   ASN I   3       0.573   5.925   5.615  1.00 15.05 LIG 0.24  C 
ATOM      7  N   PHE I   4      -0.238   5.349   4.717  1.00 14.49 LIG-0.34  N 
ATOM      8 H    PHE I   4      -0.927   4.881   4.932  1.00 14.49 LIG 0.16  HD
ATOM      9 O    ASN I   3       1.611   6.575   5.340  1.00 16.10 LIG-0.27  OA
BRANCH 7 10
ATOM     10  CA  PHE I   4      -0.023   5.466   3.278  1.00 12.92 LIG 0.19  C 
BRANCH 10 11
ATOM     11  C   PHE I   4      -1.362   5.609   2.599  1.00 14.32 LIG 0.20  C 
ATOM     12 OXT  PHE I   4      -2.100   4.635   2.587  1.00 16.91 LIG-0.65  OA
ATOM     13 O    PHE I   4      -1.736   6.702   2.169  1.00 15.04 LIG-0.65  OA
ENDBRANCH 10 11
BRANCH 10 14
ATOM     14  CB  PHE I   4       0.705   4.236   2.765  1.00 13.46 LIG 0.07  C 
BRANCH 14 15
ATOM     15  CG  PHE I   4       2.147   4.247   3.208  1.00 17.43 LIG-0.06  A 
ATOM     16  CD1 PHE I   4       3.113   4.867   2.402  1.00 19.70 LIG 0.01  A 
ATOM     17  CE1 PHE I   4       4.432   4.898   2.816  1.00 18.46 LIG 0.00  A 
ATOM     18  CZ  PHE I   4       4.792   4.318   4.026  1.00 20.27 LIG 0.00  A 
ATOM     19  CE2 PHE I   4       3.841   3.701   4.835  1.00 19.92 LIG 0.00  A 
ATOM     20  CD2 PHE I   4       2.506   3.660   4.428  1.00 19.48 LIG 0.01  A 
ENDBRANCH 14 15
ENDBRANCH 10 14
ENDBRANCH 7 10
ENDBRANCH 5 6
BRANCH 5 21
ATOM     21  CB  ASN I   3      -0.276   7.020   7.695  1.00 15.02 LIG 0.14  C 
BRANCH 21 22
ATOM     22  CG  ASN I   3      -1.608   7.446   7.083  1.00 21.09 LIG 0.22  C 
ATOM     23  ND2 ASN I   3      -2.696   7.482   7.838  1.00 19.37 LIG-0.37  N 
ATOM     24 22HD ASN I   3      -2.638   7.338   8.683  1.00 19.37 LIG 0.16  HD
ATOM     25 21HD ASN I   3      -3.460   7.650   7.482  1.00 19.37 LIG 0.16  HD
ATOM     26 OD1  ASN I   3      -1.737   7.658   5.880  1.00 22.58 LIG-0.27  OA
ENDBRANCH 21 22
ENDBRANCH 5 21
ENDBRANCH 3 5
BRANCH 1 27
ATOM     27  CA  LEU I   2       2.715   3.509   8.678  1.00 19.34 LIG 0.18  C 
BRANCH 27 28
ATOM     28  N   LEU I   2       2.090   2.430   9.409  1.00 20.62 LIG-0.35  N 
ATOM     29 H    LEU I   2       2.009   1.687   8.982  1.00 20.62 LIG 0.16  HD
ATOM     30  C   SER I   1       1.690   2.646  10.658  1.00 28.29 LIG 0.24  C 
ATOM     31 O    SER I   1       1.766   3.772  11.199  1.00 21.19 LIG-0.27  OA
BRANCH 30 32
ATOM     32  CA  SER I   1       1.196   1.397  11.380  1.00 32.71 LIG 0.20  C 
BRANCH 32 33
ATOM     33  CB  SER I   1      -0.189   1.688  11.883  1.00 35.86 LIG 0.20  C 
BRANCH 33 34
ATOM     34 OG   SER I   1       0.138   2.760  12.721  1.00 39.84 LIG-0.40  OA
ATOM     35 HG   SER I   1      -0.247   2.664  13.462  1.00 39.84 LIG 0.21  HD
ENDBRANCH 33 34
ENDBRANCH 32 33
BRANCH 32 36
ATOM     36  N   SER I   1       2.197   1.246  12.431  1.00 41.50 LIG-0.35  N 
ATOM     37  C   ACE I   0       3.292   0.463  12.496  1.00 42.61 LIG 0.21  C 
ATOM     38 O    ACE I   0       3.723  -0.268  11.604  0.00 41.61 LIG-0.27  OA
ATOM     39  CH3 ACE I   0       4.043   0.597  13.811  0.00 41.50 LIG 0.12  C 
ATOM     40 H    SER I   1       2.010   1.763  13.092  1.00 41.50 LIG 0.16  HD
ENDBRANCH 32 36
ENDBRANCH 30 32
ENDBRANCH 27 28
BRANCH 27 41
ATOM     41  CB  LEU I   2       3.925   3.040   7.945  1.00 22.58 LIG 0.04  C 
BRANCH 41 42
ATOM     42  CG  LEU I   2       5.181   3.250   8.799  1.00 27.49 LIG-0.02  C 
ATOM     43  CD2 LEU I   2       5.722   1.911   9.325  1.00 25.10 LIG 0.01  C 
ATOM     44  CD1 LEU I   2       4.836   4.231   9.899  1.00 31.16 LIG 0.01  C 
ENDBRANCH 41 42
ENDBRANCH 27 41
ENDBRANCH 1 27
TORSDOF 16
ENDMDL
MODEL 30
USER: ADFR SOLUTION from run 19
USER: SCORE 15.547209 LL:  -3.219 LR: -13.087 RR:   0.000 FEB:  -8.315
USER: RMSD 4.227169
USER: SEED 18
USER: STATUS no improvement in best in 9 clusters for 5 generations
USER: GENES 18
USER: genes 0 Translation |==|  0.45491 0.48564 0.50647
USER: genes 1 Rotation |==|  0.54907 0.57843 0.46839 0.99035
USER: genes 2 Torsion [C]-N--CA-[C] |==|  0.65766
USER: genes 3 Torsion [N]-CA--C-[N] |==|  0.51093
USER: genes 4 Torsion [C]-N--CA-[C] |==|  0.74734
USER: genes 5 Torsion [N]-CA--C-[O] |==|  0.86335
USER: genes 6 Torsion [N]-CA--CB-[CG] |==|  0.56871
USER: genes 7 Torsion [CA]-CB--CG-[CD1] |==|  0.07377
USER: genes 8 Torsion [N]-CA--CB-[CG] |==|  0.83592
USER: genes 9 Torsion [CA]-CB--CG-[OD1] |==|  0.77056
USER: genes 10 Torsion [N]-C--CA-[N] |==|  0.90753
USER: genes 11 Torsion [C]-CA--N-[C] |==|  0.73937
USER: genes 12 Torsion [N]-C--CA-[N] |==|  0.32420
USER: genes 13 Torsion [C]-CA--CB-[OG] |==|  0.45608
USER: genes 14 Torsion [CA]-CB--OG-[HG] |==|  0.68736
USER: genes 15 Torsion [C]-CA--N-[C] |==|  0.78997
USER: genes 16 Torsion [C]-CA--CB-[CG] |==|  0.49921
USER: genes 17 Torsion [CA]-CB--CG-[CD2] |==|  0.26897
ROOT
ATOM      1  C   LEU I   2       3.110   3.262  10.597  1.00 17.40 LIG 0.24  C 
ATOM      2 O    LEU I   2       3.227   3.995  11.561  1.00 17.46 LIG-0.27  OA
ATOM      3  N   ASN I   3       2.972   1.951  10.669  1.00 16.24 LIG-0.35  N 
ATOM      4 H    ASN I   3       2.969   1.432   9.983  1.00 16.24 LIG 0.16  HD
ENDROOT
BRANCH 3 5
ATOM      5  CA  ASN I   3       2.813   1.270  11.927  1.00 15.86 LIG 0.18  C 
BRANCH 5 6
ATOM      6  C   ASN I   3       3.899   0.225  12.080  1.00 15.05 LIG 0.24  C 
ATOM      7  N   PHE I   4       3.800  -0.530  13.182  1.00 14.49 LIG-0.34  N 
ATOM      8 H    PHE I   4       3.182  -0.430  13.772  1.00 14.49 LIG 0.16  HD
ATOM      9 O    ASN I   3       4.812   0.138  11.222  1.00 16.10 LIG-0.27  OA
BRANCH 7 10
ATOM     10  CA  PHE I   4       4.743  -1.603  13.485  1.00 12.92 LIG 0.19  C 
BRANCH 10 11
ATOM     11  C   PHE I   4       4.218  -2.888  12.897  1.00 14.32 LIG 0.20  C 
ATOM     12 OXT  PHE I   4       5.013  -3.614  12.318  1.00 16.91 LIG-0.65  OA
ATOM     13 O    PHE I   4       3.053  -3.240  13.091  1.00 15.04 LIG-0.65  OA
ENDBRANCH 10 11
BRANCH 10 14
ATOM     14  CB  PHE I   4       4.908  -1.734  14.989  1.00 13.46 LIG 0.07  C 
BRANCH 14 15
ATOM     15  CG  PHE I   4       6.241  -2.353  15.326  1.00 17.43 LIG-0.06  A 
ATOM     16  CD1 PHE I   4       7.315  -2.210  14.437  1.00 19.70 LIG 0.01  A 
ATOM     17  CE1 PHE I   4       8.544  -2.758  14.754  1.00 18.46 LIG 0.00  A 
ATOM     18  CZ  PHE I   4       8.708  -3.446  15.950  1.00 20.27 LIG 0.00  A 
ATOM     19  CE2 PHE I   4       7.648  -3.594  16.841  1.00 19.92 LIG 0.00  A 
ATOM     20  CD2 PHE I   4       6.401  -3.048  16.532  1.00 19.48 LIG 0.01  A 
ENDBRANCH 14 15
ENDBRANCH 10 14
ENDBRANCH 7 10
ENDBRANCH 5 6
BRANCH 5 21
ATOM     21  CB  ASN I   3       1.436   0.626  11.948  1.00 15.02 LIG 0.14  C 
BRANCH 21 22
ATOM     22  CG  ASN I   3       0.371   1.706  11.774  1.00 21.09 LIG 0.22  C 
ATOM     23  ND2 ASN I   3      -0.061   2.013  10.561  1.00 19.37 LIG-0.37  N 
ATOM     24 22HD ASN I   3       0.202   1.556   9.882  1.00 19.37 LIG 0.16  HD
ATOM     25 21HD ASN I   3      -0.606   2.670  10.452  1.00 19.37 LIG 0.16  HD
ATOM     26 OD1  ASN I   3      -0.031   2.385  12.716  1.00 22.58 LIG-0.27  OA
ENDBRANCH 21 22
ENDBRANCH 5 21
ENDBRANCH 3 5
BRANCH 1 27
ATOM     27  CA  LEU I   2       3.057   3.867   9.255  1.00 19.34 LIG 0.18  C 
BRANCH 27 28
ATOM     28  N   LEU I   2       3.645   2.875   8.383  1.00 20.62 LIG-0.35  N 
ATOM     29 H    LEU I   2       3.107   2.274   8.085  1.00 20.62 LIG 0.16  HD
ATOM     30  C   SER I   1       4.943   2.952   8.105  1.00 28.29 LIG 0.24  C 
ATOM     31 O    SER I   1       5.690   3.806   8.631  1.00 21.19 LIG-0.27  OA
BRANCH 30 32
ATOM     32  CA  SER I   1       5.415   1.956   7.052  1.00 32.71 LIG 0.20  C 
BRANCH 32 33
ATOM     33  CB  SER I   1       6.512   1.136   7.669  1.00 35.86 LIG 0.20  C 
BRANCH 33 34
ATOM     34 OG   SER I   1       6.520   0.099   6.729  1.00 39.84 LIG-0.40  OA
ATOM     35 HG   SER I   1       6.250  -0.610   7.091  1.00 39.84 LIG 0.21  HD
ENDBRANCH 33 34
ENDBRANCH 32 33
BRANCH 32 36
ATOM     36  N   SER I   1       5.858   2.843   5.981  1.00 41.50 LIG-0.35  N 
ATOM     37  C   ACE I   0       5.151   3.561   5.086  1.00 42.61 LIG 0.21  C 
ATOM     38 O    ACE I   0       3.925   3.668   5.037  0.00 41.61 LIG-0.27  OA
ATOM     39  CH3 ACE I   0       6.030   4.329   4.112  0.00 41.50 LIG 0.12  C 
ATOM     40 H    SER I   1       6.717   2.877   5.963  1.00 41.50 LIG 0.16  HD
ENDBRANCH 32 36
ENDBRANCH 30 32
ENDBRANCH 27 28
BRANCH 27 41
ATOM     41  CB  LEU I   2       1.643   4.150   8.882  1.00 22.58 LIG 0.04  C 
BRANCH 41 42
ATOM     42  CG  LEU I   2       1.576   4.786   7.488  1.00 27.49 LIG-0.02  C 
ATOM     43  CD2 LEU I   2       1.278   3.730   6.412  1.00 25.10 LIG 0.01  C 
ATOM     44  CD1 LEU I   2       2.874   5.530   7.256  1.00 31.16 LIG 0.01  C 
ENDBRANCH 41 42
ENDBRANCH 27 41
ENDBRANCH 1 27
TORSDOF 16
ENDMDL
MODEL 31
USER: ADFR SOLUTION from run 104
USER: SCORE 15.886828 LL:  -3.842 LR: -13.002 RR:   0.000 FEB:  -8.229
USER: RMSD 8.102268
USER: SEED 103
USER: STATUS no improvement in best in 13 clusters for 5 generations
USER: GENES 18
USER: genes 0 Translation |==|  0.46455 0.21761 0.61029
USER: genes 1 Rotation |==|  0.02928 0.37871 0.46339 0.61121
USER: genes 2 Torsion [C]-N--CA-[C] |==|  0.70938
USER: genes 3 Torsion [N]-CA--C-[N] |==|  0.40608
USER: genes 4 Torsion [C]-N--CA-[C] |==|  0.53740
USER: genes 5 Torsion [N]-CA--C-[O] |==|  0.97984
USER: genes 6 Torsion [N]-CA--CB-[CG] |==|  0.68402
USER: genes 7 Torsion [CA]-CB--CG-[CD1] |==|  0.52499
USER: genes 8 Torsion [N]-CA--CB-[CG] |==|  0.42463
USER: genes 9 Torsion [CA]-CB--CG-[OD1] |==|  0.76090
USER: genes 10 Torsion [N]-C--CA-[N] |==|  0.72914
USER: genes 11 Torsion [C]-CA--N-[C] |==|  0.73889
USER: genes 12 Torsion [N]-C--CA-[N] |==|  0.89179
USER: genes 13 Torsion [C]-CA--CB-[OG] |==|  0.59152
USER: genes 14 Torsion [CA]-CB--OG-[HG] |==|  0.21298
USER: genes 15 Torsion [C]-CA--N-[C] |==|  0.82189
USER: genes 16 Torsion [C]-CA--CB-[CG] |==|  0.37518
USER: genes 17 Torsion [CA]-CB--CG-[CD2] |==|  0.29853
ROOT
ATOM      1  C   LEU I   2       3.276  -1.361  12.699  1.00 17.40 LIG 0.24  C 
ATOM      2 O    LEU I   2       3.506  -1.824  11.598  1.00 17.46 LIG-0.27  OA
ATOM      3  N   ASN I   3       2.630  -0.230  12.912  1.00 16.24 LIG-0.35  N 
ATOM      4 H    ASN I   3       2.540   0.130  13.689  1.00 16.24 LIG 0.16  HD
ENDROOT
BRANCH 3 5
ATOM      5  CA  ASN I   3       2.012   0.507  11.843  1.00 15.86 LIG 0.18  C 
BRANCH 5 6
ATOM      6  C   ASN I   3       2.854   1.722  11.509  1.00 15.05 LIG 0.24  C 
ATOM      7  N   PHE I   4       2.852   2.068  10.215  1.00 14.49 LIG-0.34  N 
ATOM      8 H    PHE I   4       2.423   1.634   9.608  1.00 14.49 LIG 0.16  HD
ATOM      9 O    ASN I   3       3.504   2.303  12.413  1.00 16.10 LIG-0.27  OA
BRANCH 7 10
ATOM     10  CA  PHE I   4       3.587   3.225   9.712  1.00 12.92 LIG 0.19  C 
BRANCH 10 11
ATOM     11  C   PHE I   4       3.117   3.525   8.311  1.00 14.32 LIG 0.20  C 
ATOM     12 OXT  PHE I   4       3.609   4.487   7.740  1.00 16.91 LIG-0.65  OA
ATOM     13 O    PHE I   4       2.345   2.760   7.729  1.00 15.04 LIG-0.65  OA
ENDBRANCH 10 11
BRANCH 10 14
ATOM     14  CB  PHE I   4       5.077   2.931   9.721  1.00 13.46 LIG 0.07  C 
BRANCH 14 15
ATOM     15  CG  PHE I   4       5.787   3.815  10.716  1.00 17.43 LIG-0.06  A 
ATOM     16  CD1 PHE I   4       7.189   3.837  10.744  1.00 19.70 LIG 0.01  A 
ATOM     17  CE1 PHE I   4       7.843   4.664  11.640  1.00 18.46 LIG 0.00  A 
ATOM     18  CZ  PHE I   4       7.109   5.466  12.504  1.00 20.27 LIG 0.00  A 
ATOM     19  CE2 PHE I   4       5.716   5.453  12.484  1.00 19.92 LIG 0.00  A 
ATOM     20  CD2 PHE I   4       5.044   4.622  11.586  1.00 19.48 LIG 0.01  A 
ENDBRANCH 14 15
ENDBRANCH 10 14
ENDBRANCH 7 10
ENDBRANCH 5 6
BRANCH 5 21
ATOM     21  CB  ASN I   3       0.620   0.922  12.292  1.00 15.02 LIG 0.14  C 
BRANCH 21 22
ATOM     22  CG  ASN I   3       0.210   2.195  11.556  1.00 21.09 LIG 0.22  C 
ATOM     23  ND2 ASN I   3      -0.390   2.109  10.379  1.00 19.37 LIG-0.37  N 
ATOM     24 22HD ASN I   3      -0.615   1.341  10.066  1.00 19.37 LIG 0.16  HD
ATOM     25 21HD ASN I   3      -0.556   2.822   9.928  1.00 19.37 LIG 0.16  HD
ATOM     26 OD1  ASN I   3       0.513   3.313  11.966  1.00 22.58 LIG-0.27  OA
ENDBRANCH 21 22
ENDBRANCH 5 21
ENDBRANCH 3 5
BRANCH 1 27
ATOM     27  CA  LEU I   2       3.687  -2.130  13.887  1.00 19.34 LIG 0.18  C 
BRANCH 27 28
ATOM     28  N   LEU I   2       5.069  -1.765  14.100  1.00 20.62 LIG-0.35  N 
ATOM     29 H    LEU I   2       5.199  -1.055  14.568  1.00 20.62 LIG 0.16  HD
ATOM     30  C   SER I   1       6.024  -2.527  13.576  1.00 28.29 LIG 0.24  C 
ATOM     31 O    SER I   1       5.769  -3.506  12.840  1.00 21.19 LIG-0.27  OA
BRANCH 30 32
ATOM     32  CA  SER I   1       7.436  -2.139  14.002  1.00 32.71 LIG 0.20  C 
BRANCH 32 33
ATOM     33  CB  SER I   1       7.679  -2.744  15.355  1.00 35.86 LIG 0.20  C 
BRANCH 33 34
ATOM     34 OG   SER I   1       8.510  -1.738  15.862  1.00 39.84 LIG-0.40  OA
ATOM     35 HG   SER I   1       8.043  -1.075  16.083  1.00 39.84 LIG 0.21  HD
ENDBRANCH 33 34
ENDBRANCH 32 33
BRANCH 32 36
ATOM     36  N   SER I   1       7.357  -0.682  14.001  1.00 41.50 LIG-0.35  N 
ATOM     37  C   ACE I   0       7.144   0.186  12.993  1.00 42.61 LIG 0.21  C 
ATOM     38 O    ACE I   0       6.893  -0.099  11.821  0.00 41.61 LIG-0.27  OA
ATOM     39  CH3 ACE I   0       7.177   1.639  13.441  0.00 41.50 LIG 0.12  C 
ATOM     40 H    SER I   1       7.471  -0.380  14.799  1.00 41.50 LIG 0.16  HD
ENDBRANCH 32 36
ENDBRANCH 30 32
ENDBRANCH 27 28
BRANCH 27 41
ATOM     41  CB  LEU I   2       2.838  -1.755  15.052  1.00 22.58 LIG 0.04  C 
BRANCH 41 42
ATOM     42  CG  LEU I   2       2.385  -3.010  15.808  1.00 27.49 LIG-0.02  C 
ATOM     43  CD2 LEU I   2       3.123  -3.143  17.150  1.00 25.10 LIG 0.01  C 
ATOM     44  CD1 LEU I   2       2.584  -4.199  14.894  1.00 31.16 LIG 0.01  C 
ENDBRANCH 41 42
ENDBRANCH 27 41
ENDBRANCH 1 27
TORSDOF 16
ENDMDL
MODEL 32
USER: ADFR SOLUTION from run 192
USER: SCORE 16.158933 LL:  -3.996 LR: -12.986 RR:   0.000 FEB:  -8.213
USER: RMSD 7.968497
USER: SEED 191
USER: STATUS no improvement in best in 8 clusters for 5 generations
USER: GENES 18
USER: genes 0 Translation |==|  0.58136 0.36225 0.52654
USER: genes 1 Rotation |==|  0.14801 0.21270 0.54687 0.70337
USER: genes 2 Torsion [C]-N--CA-[C] |==|  0.79232
USER: genes 3 Torsion [N]-CA--C-[N] |==|  0.27977
USER: genes 4 Torsion [C]-N--CA-[C] |==|  0.64375
USER: genes 5 Torsion [N]-CA--C-[O] |==|  0.33709
USER: genes 6 Torsion [N]-CA--CB-[CG] |==|  0.87421
USER: genes 7 Torsion [CA]-CB--CG-[CD1] |==|  0.36192
USER: genes 8 Torsion [N]-CA--CB-[CG] |==|  0.41288
USER: genes 9 Torsion [CA]-CB--CG-[OD1] |==|  0.65397
USER: genes 10 Torsion [N]-C--CA-[N] |==|  0.09839
USER: genes 11 Torsion [C]-CA--N-[C] |==|  0.65229
USER: genes 12 Torsion [N]-C--CA-[N] |==|  0.30558
USER: genes 13 Torsion [C]-CA--CB-[OG] |==|  0.62362
USER: genes 14 Torsion [CA]-CB--OG-[HG] |==|  0.35684
USER: genes 15 Torsion [C]-CA--N-[C] |==|  0.73817
USER: genes 16 Torsion [C]-CA--CB-[CG] |==|  0.44143
USER: genes 17 Torsion [CA]-CB--CG-[CD2] |==|  0.87953
ROOT
ATOM      1  C   LEU I   2       5.291   1.134  11.003  1.00 17.40 LIG 0.24  C 
ATOM      2 O    LEU I   2       5.397   1.251   9.797  1.00 17.46 LIG-0.27  OA
ATOM      3  N   ASN I   3       4.158   1.259  11.668  1.00 16.24 LIG-0.35  N 
ATOM      4 H    ASN I   3       4.104   1.253  12.527  1.00 16.24 LIG 0.16  HD
ENDROOT
BRANCH 3 5
ATOM      5  CA  ASN I   3       2.895   1.421  10.997  1.00 15.86 LIG 0.18  C 
BRANCH 5 6
ATOM      6  C   ASN I   3       2.787   2.829  10.449  1.00 15.05 LIG 0.24  C 
ATOM      7  N   PHE I   4       3.040   2.942   9.138  1.00 14.49 LIG-0.34  N 
ATOM      8 H    PHE I   4       3.263   2.278   8.639  1.00 14.49 LIG 0.16  HD
ATOM      9 O    ASN I   3       2.505   3.781  11.216  1.00 16.10 LIG-0.27  OA
BRANCH 7 10
ATOM     10  CA  PHE I   4       2.962   4.217   8.432  1.00 12.92 LIG 0.19  C 
BRANCH 10 11
ATOM     11  C   PHE I   4       2.083   4.045   7.219  1.00 14.32 LIG 0.20  C 
ATOM     12 OXT  PHE I   4       2.350   3.135   6.448  1.00 16.91 LIG-0.65  OA
ATOM     13 O    PHE I   4       1.069   4.731   7.073  1.00 15.04 LIG-0.65  OA
ENDBRANCH 10 11
BRANCH 10 14
ATOM     14  CB  PHE I   4       4.354   4.664   8.020  1.00 13.46 LIG 0.07  C 
BRANCH 14 15
ATOM     15  CG  PHE I   4       5.326   4.493   9.161  1.00 17.43 LIG-0.06  A 
ATOM     16  CD1 PHE I   4       6.543   3.833   8.938  1.00 19.70 LIG 0.01  A 
ATOM     17  CE1 PHE I   4       7.447   3.694   9.976  1.00 18.46 LIG 0.00  A 
ATOM     18  CZ  PHE I   4       7.144   4.208  11.231  1.00 20.27 LIG 0.00  A 
ATOM     19  CE2 PHE I   4       5.937   4.865  11.463  1.00 19.92 LIG 0.00  A 
ATOM     20  CD2 PHE I   4       5.016   5.010  10.425  1.00 19.48 LIG 0.01  A 
ENDBRANCH 14 15
ENDBRANCH 10 14
ENDBRANCH 7 10
ENDBRANCH 5 6
BRANCH 5 21
ATOM     21  CB  ASN I   3       1.785   1.144  11.999  1.00 15.02 LIG 0.14  C 
BRANCH 21 22
ATOM     22  CG  ASN I   3       0.567   1.996  11.650  1.00 21.09 LIG 0.22  C 
ATOM     23  ND2 ASN I   3       0.111   2.013  10.407  1.00 19.37 LIG-0.37  N 
ATOM     24 22HD ASN I   3       0.452   1.491   9.817  1.00 19.37 LIG 0.16  HD
ATOM     25 21HD ASN I   3      -0.528   2.547  10.191  1.00 19.37 LIG 0.16  HD
ATOM     26 OD1  ASN I   3       0.050   2.760  12.462  1.00 22.58 LIG-0.27  OA
ENDBRANCH 21 22
ENDBRANCH 5 21
ENDBRANCH 3 5
BRANCH 1 27
ATOM     27  CA  LEU I   2       6.486   0.769  11.783  1.00 19.34 LIG 0.18  C 
BRANCH 27 28
ATOM     28  N   LEU I   2       5.996  -0.130  12.805  1.00 20.62 LIG-0.35  N 
ATOM     29 H    LEU I   2       5.557  -0.813  12.522  1.00 20.62 LIG 0.16  HD
ATOM     30  C   SER I   1       6.249   0.148  14.080  1.00 28.29 LIG 0.24  C 
ATOM     31 O    SER I   1       6.829   1.199  14.434  1.00 21.19 LIG-0.27  OA
BRANCH 30 32
ATOM     32  CA  SER I   1       5.828  -0.948  15.053  1.00 32.71 LIG 0.20  C 
BRANCH 32 33
ATOM     33  CB  SER I   1       5.011  -0.300  16.133  1.00 35.86 LIG 0.20  C 
BRANCH 33 34
ATOM     34 OG   SER I   1       5.600  -0.948  17.225  1.00 39.84 LIG-0.40  OA
ATOM     35 HG   SER I   1       5.839  -0.377  17.794  1.00 39.84 LIG 0.21  HD
ENDBRANCH 33 34
ENDBRANCH 32 33
BRANCH 32 36
ATOM     36  N   SER I   1       7.118  -1.461  15.500  1.00 41.50 LIG-0.35  N 
ATOM     37  C   ACE I   0       7.856  -2.495  15.052  1.00 42.61 LIG 0.21  C 
ATOM     38 O    ACE I   0       7.605  -3.208  14.079  0.00 41.61 LIG-0.27  OA
ATOM     39  CH3 ACE I   0       9.138  -2.700  15.844  0.00 41.50 LIG 0.12  C 
ATOM     40 H    SER I   1       7.410  -0.990  16.158  1.00 41.50 LIG 0.16  HD
ENDBRANCH 32 36
ENDBRANCH 30 32
ENDBRANCH 27 28
BRANCH 27 41
ATOM     41  CB  LEU I   2       7.482   0.098  10.901  1.00 22.58 LIG 0.04  C 
BRANCH 41 42
ATOM     42  CG  LEU I   2       8.883   0.182  11.519  1.00 27.49 LIG-0.02  C 
ATOM     43  CD2 LEU I   2       9.154   1.585  12.086  1.00 25.10 LIG 0.01  C 
ATOM     44  CD1 LEU I   2       9.882  -0.242  10.464  1.00 31.16 LIG 0.01  C 
ENDBRANCH 41 42
ENDBRANCH 27 41
ENDBRANCH 1 27
TORSDOF 16
ENDMDL
MODEL 33
USER: ADFR SOLUTION from run 178
USER: SCORE 15.409819 LL:  -3.375 LR: -12.958 RR:   0.000 FEB:  -8.186
USER: RMSD 6.664128
USER: SEED 177
USER: STATUS no improvement in best in 9 clusters for 5 generations
USER: GENES 18
USER: genes 0 Translation |==|  0.57652 0.37409 0.55736
USER: genes 1 Rotation |==|  0.62110 0.84890 0.78631 0.67784
USER: genes 2 Torsion [C]-N--CA-[C] |==|  0.62357
USER: genes 3 Torsion [N]-CA--C-[N] |==|  0.48307
USER: genes 4 Torsion [C]-N--CA-[C] |==|  0.22496
USER: genes 5 Torsion [N]-CA--C-[O] |==|  0.74795
USER: genes 6 Torsion [N]-CA--CB-[CG] |==|  0.83670
USER: genes 7 Torsion [CA]-CB--CG-[CD1] |==|  0.81931
USER: genes 8 Torsion [N]-CA--CB-[CG] |==|  0.63104
USER: genes 9 Torsion [CA]-CB--CG-[OD1] |==|  0.03931
USER: genes 10 Torsion [N]-C--CA-[N] |==|  0.86143
USER: genes 11 Torsion [C]-CA--N-[C] |==|  0.79573
USER: genes 12 Torsion [N]-C--CA-[N] |==|  0.81629
USER: genes 13 Torsion [C]-CA--CB-[OG] |==|  0.23287
USER: genes 14 Torsion [CA]-CB--OG-[HG] |==|  0.18777
USER: genes 15 Torsion [C]-CA--N-[C] |==|  0.69778
USER: genes 16 Torsion [C]-CA--CB-[CG] |==|  0.25874
USER: genes 17 Torsion [CA]-CB--CG-[CD2] |==|  0.03666
ROOT
ATOM      1  C   LEU I   2       5.208   1.338  11.628  1.00 17.40 LIG 0.24  C 
ATOM      2 O    LEU I   2       5.915   1.830  12.487  1.00 17.46 LIG-0.27  OA
ATOM      3  N   ASN I   3       5.553   1.215  10.359  1.00 16.24 LIG-0.35  N 
ATOM      4 H    ASN I   3       5.019   0.939   9.743  1.00 16.24 LIG 0.16  HD
ENDROOT
BRANCH 3 5
ATOM      5  CA  ASN I   3       6.875   1.539   9.894  1.00 15.86 LIG 0.18  C 
BRANCH 5 6
ATOM      6  C   ASN I   3       6.781   2.340   8.611  1.00 15.05 LIG 0.24  C 
ATOM      7  N   PHE I   4       7.950   2.808   8.155  1.00 14.49 LIG-0.34  N 
ATOM      8 H    PHE I   4       8.700   2.683   8.556  1.00 14.49 LIG 0.16  HD
ATOM      9 O    ASN I   3       5.663   2.541   8.077  1.00 16.10 LIG-0.27  OA
BRANCH 7 10
ATOM     10  CA  PHE I   4       8.057   3.581   6.920  1.00 12.92 LIG 0.19  C 
BRANCH 10 11
ATOM     11  C   PHE I   4       7.679   5.011   7.212  1.00 14.32 LIG 0.20  C 
ATOM     12 OXT  PHE I   4       8.581   5.798   7.461  1.00 16.91 LIG-0.65  OA
ATOM     13 O    PHE I   4       6.513   5.391   7.094  1.00 15.04 LIG-0.65  OA
ENDBRANCH 10 11
BRANCH 10 14
ATOM     14  CB  PHE I   4       7.138   2.993   5.864  1.00 13.46 LIG 0.07  C 
BRANCH 14 15
ATOM     15  CG  PHE I   4       7.492   1.552   5.593  1.00 17.43 LIG-0.06  A 
ATOM     16  CD1 PHE I   4       8.736   1.240   5.026  1.00 19.70 LIG 0.01  A 
ATOM     17  CE1 PHE I   4       9.073  -0.082   4.798  1.00 18.46 LIG 0.00  A 
ATOM     18  CZ  PHE I   4       8.178  -1.091   5.130  1.00 20.27 LIG 0.00  A 
ATOM     19  CE2 PHE I   4       6.940  -0.793   5.694  1.00 19.92 LIG 0.00  A 
ATOM     20  CD2 PHE I   4       6.587   0.537   5.929  1.00 19.48 LIG 0.01  A 
ENDBRANCH 14 15
ENDBRANCH 10 14
ENDBRANCH 7 10
ENDBRANCH 5 6
BRANCH 5 21
ATOM     21  CB  ASN I   3       7.631   0.240   9.665  1.00 15.02 LIG 0.14  C 
BRANCH 21 22
ATOM     22  CG  ASN I   3       9.015   0.342  10.303  1.00 21.09 LIG 0.22  C 
ATOM     23  ND2 ASN I   3       9.909  -0.611  10.090  1.00 19.37 LIG-0.37  N 
ATOM     24 22HD ASN I   3       9.737  -1.246   9.537  1.00 19.37 LIG 0.16  HD
ATOM     25 21HD ASN I   3      10.661  -0.595  10.505  1.00 19.37 LIG 0.16  HD
ATOM     26 OD1  ASN I   3       9.302   1.231  11.102  1.00 22.58 LIG-0.27  OA
ENDBRANCH 21 22
ENDBRANCH 5 21
ENDBRANCH 3 5
BRANCH 1 27
ATOM     27  CA  LEU I   2       3.902   0.784  12.022  1.00 19.34 LIG 0.18  C 
BRANCH 27 28
ATOM     28  N   LEU I   2       2.970   1.318  11.054  1.00 20.62 LIG-0.35  N 
ATOM     29 H    LEU I   2       2.682   0.760  10.466  1.00 20.62 LIG 0.16  HD
ATOM     30  C   SER I   1       2.626   2.599  11.132  1.00 28.29 LIG 0.24  C 
ATOM     31 O    SER I   1       3.137   3.380  11.966  1.00 21.19 LIG-0.27  OA
BRANCH 30 32
ATOM     32  CA  SER I   1       1.519   3.008  10.167  1.00 32.71 LIG 0.20  C 
BRANCH 32 33
ATOM     33  CB  SER I   1       0.360   2.081  10.394  1.00 35.86 LIG 0.20  C 
BRANCH 33 34
ATOM     34 OG   SER I   1      -0.213   2.762  11.475  1.00 39.84 LIG-0.40  OA
ATOM     35 HG   SER I   1      -0.516   3.500  11.213  1.00 39.84 LIG 0.21  HD
ENDBRANCH 33 34
ENDBRANCH 32 33
BRANCH 32 36
ATOM     36  N   SER I   1       2.176   2.843   8.874  1.00 41.50 LIG-0.35  N 
ATOM     37  C   ACE I   0       2.602   3.758   7.981  1.00 42.61 LIG 0.21  C 
ATOM     38 O    ACE I   0       2.581   4.982   8.120  0.00 41.61 LIG-0.27  OA
ATOM     39  CH3 ACE I   0       3.206   3.135   6.733  0.00 41.50 LIG 0.12  C 
ATOM     40 H    SER I   1       2.285   2.007   8.704  1.00 41.50 LIG 0.16  HD
ENDBRANCH 32 36
ENDBRANCH 30 32
ENDBRANCH 27 28
BRANCH 27 41
ATOM     41  CB  LEU I   2       3.946  -0.705  11.971  1.00 22.58 LIG 0.04  C 
BRANCH 41 42
ATOM     42  CG  LEU I   2       4.315  -1.274  13.347  1.00 27.49 LIG-0.02  C 
ATOM     43  CD2 LEU I   2       4.211  -0.196  14.437  1.00 25.10 LIG 0.01  C 
ATOM     44  CD1 LEU I   2       5.694  -1.888  13.240  1.00 31.16 LIG 0.01  C 
ENDBRANCH 41 42
ENDBRANCH 27 41
ENDBRANCH 1 27
TORSDOF 16
ENDMDL
MODEL 34
USER: ADFR SOLUTION from run 72
USER: SCORE 15.709920 LL:  -3.339 LR: -12.928 RR:   0.000 FEB:  -8.155
USER: RMSD 5.204438
USER: SEED 71
USER: STATUS no improvement in best in 11 clusters for 5 generations
USER: GENES 18
USER: genes 0 Translation |==|  0.49265 0.45265 0.52318
USER: genes 1 Rotation |==|  0.51177 0.42612 0.45223 0.99206
USER: genes 2 Torsion [C]-N--CA-[C] |==|  0.63342
USER: genes 3 Torsion [N]-CA--C-[N] |==|  0.00039
USER: genes 4 Torsion [C]-N--CA-[C] |==|  0.21063
USER: genes 5 Torsion [N]-CA--C-[O] |==|  0.81272
USER: genes 6 Torsion [N]-CA--CB-[CG] |==|  0.57116
USER: genes 7 Torsion [CA]-CB--CG-[CD1] |==|  0.60733
USER: genes 8 Torsion [N]-CA--CB-[CG] |==|  0.75560
USER: genes 9 Torsion [CA]-CB--CG-[OD1] |==|  0.87829
USER: genes 10 Torsion [N]-C--CA-[N] |==|  0.90817
USER: genes 11 Torsion [C]-CA--N-[C] |==|  0.76144
USER: genes 12 Torsion [N]-C--CA-[N] |==|  0.11111
USER: genes 13 Torsion [C]-CA--CB-[OG] |==|  0.48195
USER: genes 14 Torsion [CA]-CB--OG-[HG] |==|  0.53662
USER: genes 15 Torsion [C]-CA--N-[C] |==|  0.17125
USER: genes 16 Torsion [C]-CA--CB-[CG] |==|  0.53803
USER: genes 17 Torsion [CA]-CB--CG-[CD2] |==|  0.81936
ROOT
ATOM      1  C   LEU I   2       3.761   2.693  10.935  1.00 17.40 LIG 0.24  C 
ATOM      2 O    LEU I   2       3.444   3.611  11.668  1.00 17.46 LIG-0.27  OA
ATOM      3  N   ASN I   3       3.410   1.435  11.122  1.00 16.24 LIG-0.35  N 
ATOM      4 H    ASN I   3       3.702   0.781  10.645  1.00 16.24 LIG 0.16  HD
ENDROOT
BRANCH 3 5
ATOM      5  CA  ASN I   3       2.491   1.046  12.159  1.00 15.86 LIG 0.18  C 
BRANCH 5 6
ATOM      6  C   ASN I   3       3.059  -0.131  12.927  1.00 15.05 LIG 0.24  C 
ATOM      7  N   PHE I   4       4.257  -0.552  12.502  1.00 14.49 LIG-0.34  N 
ATOM      8 H    PHE I   4       4.676  -0.201  11.837  1.00 14.49 LIG 0.16  HD
ATOM      9 O    ASN I   3       2.400  -0.647  13.862  1.00 16.10 LIG-0.27  OA
BRANCH 7 10
ATOM     10  CA  PHE I   4       4.969  -1.658  13.135  1.00 12.92 LIG 0.19  C 
BRANCH 10 11
ATOM     11  C   PHE I   4       4.324  -2.954  12.712  1.00 14.32 LIG 0.20  C 
ATOM     12 OXT  PHE I   4       5.008  -3.753  12.090  1.00 16.91 LIG-0.65  OA
ATOM     13 O    PHE I   4       3.181  -3.237  13.078  1.00 15.04 LIG-0.65  OA
ENDBRANCH 10 11
BRANCH 10 14
ATOM     14  CB  PHE I   4       4.917  -1.506  14.646  1.00 13.46 LIG 0.07  C 
BRANCH 14 15
ATOM     15  CG  PHE I   4       6.090  -2.200  15.291  1.00 17.43 LIG-0.06  A 
ATOM     16  CD1 PHE I   4       5.907  -2.892  16.496  1.00 19.70 LIG 0.01  A 
ATOM     17  CE1 PHE I   4       6.977  -3.548  17.078  1.00 18.46 LIG 0.00  A 
ATOM     18  CZ  PHE I   4       8.224  -3.517  16.467  1.00 20.27 LIG 0.00  A 
ATOM     19  CE2 PHE I   4       8.417  -2.832  15.270  1.00 19.92 LIG 0.00  A 
ATOM     20  CD2 PHE I   4       7.347  -2.165  14.672  1.00 19.48 LIG 0.01  A 
ENDBRANCH 14 15
ENDBRANCH 10 14
ENDBRANCH 7 10
ENDBRANCH 5 6
BRANCH 5 21
ATOM     21  CB  ASN I   3       1.166   0.678  11.509  1.00 15.02 LIG 0.14  C 
BRANCH 21 22
ATOM     22  CG  ASN I   3       0.307   1.933  11.370  1.00 21.09 LIG 0.22  C 
ATOM     23  ND2 ASN I   3      -0.254   2.219  10.205  1.00 19.37 LIG-0.37  N 
ATOM     24 22HD ASN I   3      -0.196   1.664   9.552  1.00 19.37 LIG 0.16  HD
ATOM     25 21HD ASN I   3      -0.677   2.961  10.103  1.00 19.37 LIG 0.16  HD
ATOM     26 OD1  ASN I   3       0.199   2.755  12.277  1.00 22.58 LIG-0.27  OA
ENDBRANCH 21 22
ENDBRANCH 5 21
ENDBRANCH 3 5
BRANCH 1 27
ATOM     27  CA  LEU I   2       4.539   2.997   9.722  1.00 19.34 LIG 0.18  C 
BRANCH 27 28
ATOM     28  N   LEU I   2       5.345   1.817   9.499  1.00 20.62 LIG-0.35  N 
ATOM     29 H    LEU I   2       5.013   1.235   8.960  1.00 20.62 LIG 0.16  HD
ATOM     30  C   SER I   1       6.514   1.710  10.122  1.00 28.29 LIG 0.24  C 
ATOM     31 O    SER I   1       6.909   2.557  10.954  1.00 21.19 LIG-0.27  OA
BRANCH 30 32
ATOM     32  CA  SER I   1       7.345   0.508   9.686  1.00 32.71 LIG 0.20  C 
BRANCH 32 33
ATOM     33  CB  SER I   1       8.768   0.779  10.082  1.00 35.86 LIG 0.20  C 
BRANCH 33 34
ATOM     34 OG   SER I   1       9.297  -0.472   9.744  1.00 39.84 LIG-0.40  OA
ATOM     35 HG   SER I   1      10.066  -0.549  10.073  1.00 39.84 LIG 0.21  HD
ENDBRANCH 33 34
ENDBRANCH 32 33
BRANCH 32 36
ATOM     36  N   SER I   1       7.115   0.494   8.246  1.00 41.50 LIG-0.35  N 
ATOM     37  C   ACE I   0       7.402   1.411   7.300  1.00 42.61 LIG 0.21  C 
ATOM     38 O    ACE I   0       8.010   2.469   7.467  0.00 41.61 LIG-0.27  OA
ATOM     39  CH3 ACE I   0       6.948   0.996   5.910  0.00 41.50 LIG 0.12  C 
ATOM     40 H    SER I   1       6.732  -0.241   8.016  1.00 41.50 LIG 0.16  HD
ENDBRANCH 32 36
ENDBRANCH 30 32
ENDBRANCH 27 28
BRANCH 27 41
ATOM     41  CB  LEU I   2       3.617   3.251   8.579  1.00 22.58 LIG 0.04  C 
BRANCH 41 42
ATOM     42  CG  LEU I   2       4.392   3.231   7.256  1.00 27.49 LIG-0.02  C 
ATOM     43  CD2 LEU I   2       5.402   4.388   7.189  1.00 25.10 LIG 0.01  C 
ATOM     44  CD1 LEU I   2       3.383   3.249   6.128  1.00 31.16 LIG 0.01  C 
ENDBRANCH 41 42
ENDBRANCH 27 41
ENDBRANCH 1 27
TORSDOF 16
ENDMDL
MODEL 35
USER: ADFR SOLUTION from run 161
USER: SCORE 15.853055 LL:  -3.846 LR: -12.922 RR:   0.000 FEB:  -8.150
USER: RMSD 6.184460
USER: SEED 160
USER: STATUS no improvement in best in 9 clusters for 5 generations
USER: GENES 18
USER: genes 0 Translation |==|  0.51292 0.51023 0.47279
USER: genes 1 Rotation |==|  0.61610 0.51477 0.98397 0.54557
USER: genes 2 Torsion [C]-N--CA-[C] |==|  0.15903
USER: genes 3 Torsion [N]-CA--C-[N] |==|  0.11439
USER: genes 4 Torsion [C]-N--CA-[C] |==|  0.60412
USER: genes 5 Torsion [N]-CA--C-[O] |==|  0.54091
USER: genes 6 Torsion [N]-CA--CB-[CG] |==|  0.78016
USER: genes 7 Torsion [CA]-CB--CG-[CD1] |==|  0.31923
USER: genes 8 Torsion [N]-CA--CB-[CG] |==|  0.59085
USER: genes 9 Torsion [CA]-CB--CG-[OD1] |==|  0.82326
USER: genes 10 Torsion [N]-C--CA-[N] |==|  0.60636
USER: genes 11 Torsion [C]-CA--N-[C] |==|  0.16111
USER: genes 12 Torsion [N]-C--CA-[N] |==|  0.27795
USER: genes 13 Torsion [C]-CA--CB-[OG] |==|  0.80534
USER: genes 14 Torsion [CA]-CB--OG-[HG] |==|  0.58759
USER: genes 15 Torsion [C]-CA--N-[C] |==|  0.73091
USER: genes 16 Torsion [C]-CA--CB-[CG] |==|  0.39236
USER: genes 17 Torsion [CA]-CB--CG-[CD2] |==|  0.27125
ROOT
ATOM      1  C   LEU I   2       4.111   3.686   9.915  1.00 17.40 LIG 0.24  C 
ATOM      2 O    LEU I   2       4.552   2.767  10.578  1.00 17.46 LIG-0.27  OA
ATOM      3  N   ASN I   3       4.486   4.945  10.045  1.00 16.24 LIG-0.35  N 
ATOM      4 H    ASN I   3       4.114   5.601   9.629  1.00 16.24 LIG 0.16  HD
ENDROOT
BRANCH 3 5
ATOM      5  CA  ASN I   3       5.568   5.333  10.911  1.00 15.86 LIG 0.18  C 
BRANCH 5 6
ATOM      6  C   ASN I   3       6.829   4.594  10.511  1.00 15.05 LIG 0.24  C 
ATOM      7  N   PHE I   4       7.025   4.495   9.189  1.00 14.49 LIG-0.34  N 
ATOM      8 H    PHE I   4       6.479   4.808   8.603  1.00 14.49 LIG 0.16  HD
ATOM      9 O    ASN I   3       7.579   4.110  11.393  1.00 16.10 LIG-0.27  OA
BRANCH 7 10
ATOM     10  CA  PHE I   4       8.197   3.838   8.618  1.00 12.92 LIG 0.19  C 
BRANCH 10 11
ATOM     11  C   PHE I   4       8.631   4.602   7.393  1.00 14.32 LIG 0.20  C 
ATOM     12 OXT  PHE I   4       8.259   5.761   7.285  1.00 16.91 LIG-0.65  OA
ATOM     13 O    PHE I   4       9.421   4.105   6.588  1.00 15.04 LIG-0.65  OA
ENDBRANCH 10 11
BRANCH 10 14
ATOM     14  CB  PHE I   4       7.858   2.402   8.258  1.00 13.46 LIG 0.07  C 
BRANCH 14 15
ATOM     15  CG  PHE I   4       7.878   1.526   9.485  1.00 17.43 LIG-0.06  A 
ATOM     16  CD1 PHE I   4       6.689   0.929   9.928  1.00 19.70 LIG 0.01  A 
ATOM     17  CE1 PHE I   4       6.708   0.108  11.041  1.00 18.46 LIG 0.00  A 
ATOM     18  CZ  PHE I   4       7.903  -0.122  11.711  1.00 20.27 LIG 0.00  A 
ATOM     19  CE2 PHE I   4       9.090   0.466  11.280  1.00 19.92 LIG 0.00  A 
ATOM     20  CD2 PHE I   4       9.084   1.299  10.160  1.00 19.48 LIG 0.01  A 
ENDBRANCH 14 15
ENDBRANCH 10 14
ENDBRANCH 7 10
ENDBRANCH 5 6
BRANCH 5 21
ATOM     21  CB  ASN I   3       5.176   4.997  12.342  1.00 15.02 LIG 0.14  C 
BRANCH 21 22
ATOM     22  CG  ASN I   3       5.792   6.025  13.288  1.00 21.09 LIG 0.22  C 
ATOM     23  ND2 ASN I   3       5.013   6.895  13.911  1.00 19.37 LIG-0.37  N 
ATOM     24 22HD ASN I   3       4.159   6.834  13.841  1.00 19.37 LIG 0.16  HD
ATOM     25 21HD ASN I   3       5.362   7.521  14.386  1.00 19.37 LIG 0.16  HD
ATOM     26 OD1  ASN I   3       7.008   6.148  13.416  1.00 22.58 LIG-0.27  OA
ENDBRANCH 21 22
ENDBRANCH 5 21
ENDBRANCH 3 5
BRANCH 1 27
ATOM     27  CA  LEU I   2       3.137   3.385   8.852  1.00 19.34 LIG 0.18  C 
BRANCH 27 28
ATOM     28  N   LEU I   2       2.265   2.386   9.426  1.00 20.62 LIG-0.35  N 
ATOM     29 H    LEU I   2       2.218   1.641   8.999  1.00 20.62 LIG 0.16  HD
ATOM     30  C   SER I   1       1.609   2.672  10.546  1.00 28.29 LIG 0.24  C 
ATOM     31 O    SER I   1       1.659   3.803  11.081  1.00 21.19 LIG-0.27  OA
BRANCH 30 32
ATOM     32  CA  SER I   1       0.851   1.492  11.144  1.00 32.71 LIG 0.20  C 
BRANCH 32 33
ATOM     33  CB  SER I   1      -0.470   2.011  11.637  1.00 35.86 LIG 0.20  C 
BRANCH 33 34
ATOM     34 OG   SER I   1       0.015   2.758  12.717  1.00 39.84 LIG-0.40  OA
ATOM     35 HG   SER I   1      -0.556   2.763  13.333  1.00 39.84 LIG 0.21  HD
ENDBRANCH 33 34
ENDBRANCH 32 33
BRANCH 32 36
ATOM     36  N   SER I   1       1.759   1.060  12.201  1.00 41.50 LIG-0.35  N 
ATOM     37  C   ACE I   0       2.689   0.085  12.217  1.00 42.61 LIG 0.21  C 
ATOM     38 O    ACE I   0       3.019  -0.628  11.268  0.00 41.61 LIG-0.27  OA
ATOM     39  CH3 ACE I   0       3.392  -0.046  13.559  0.00 41.50 LIG 0.12  C 
ATOM     40 H    SER I   1       1.640   1.539  12.906  1.00 41.50 LIG 0.16  HD
ENDBRANCH 32 36
ENDBRANCH 30 32
ENDBRANCH 27 28
BRANCH 27 41
ATOM     41  CB  LEU I   2       2.386   4.620   8.488  1.00 22.58 LIG 0.04  C 
BRANCH 41 42
ATOM     42  CG  LEU I   2       2.154   4.675   6.973  1.00 27.49 LIG-0.02  C 
ATOM     43  CD2 LEU I   2       0.751   4.162   6.610  1.00 25.10 LIG 0.01  C 
ATOM     44  CD1 LEU I   2       3.268   3.899   6.304  1.00 31.16 LIG 0.01  C 
ENDBRANCH 41 42
ENDBRANCH 27 41
ENDBRANCH 1 27
TORSDOF 16
ENDMDL
MODEL 36
USER: ADFR SOLUTION from run 65
USER: SCORE 16.274872 LL:  -4.175 LR: -12.836 RR:   0.000 FEB:  -8.063
USER: RMSD 3.884068
USER: SEED 64
USER: STATUS no improvement in best in 5 clusters for 5 generations
USER: GENES 18
USER: genes 0 Translation |==|  0.47480 0.47636 0.52605
USER: genes 1 Rotation |==|  0.55998 0.51661 0.42829 0.99090
USER: genes 2 Torsion [C]-N--CA-[C] |==|  0.68520
USER: genes 3 Torsion [N]-CA--C-[N] |==|  0.91228
USER: genes 4 Torsion [C]-N--CA-[C] |==|  0.21226
USER: genes 5 Torsion [N]-CA--C-[O] |==|  0.93858
USER: genes 6 Torsion [N]-CA--CB-[CG] |==|  0.77495
USER: genes 7 Torsion [CA]-CB--CG-[CD1] |==|  0.82186
USER: genes 8 Torsion [N]-CA--CB-[CG] |==|  0.80801
USER: genes 9 Torsion [CA]-CB--CG-[OD1] |==|  0.79803
USER: genes 10 Torsion [N]-C--CA-[N] |==|  0.91116
USER: genes 11 Torsion [C]-CA--N-[C] |==|  0.75295
USER: genes 12 Torsion [N]-C--CA-[N] |==|  0.25157
USER: genes 13 Torsion [C]-CA--CB-[OG] |==|  0.55287
USER: genes 14 Torsion [CA]-CB--OG-[HG] |==|  0.80329
USER: genes 15 Torsion [C]-CA--N-[C] |==|  0.76633
USER: genes 16 Torsion [C]-CA--CB-[CG] |==|  0.62207
USER: genes 17 Torsion [CA]-CB--CG-[CD2] |==|  0.73534
ROOT
ATOM      1  C   LEU I   2       3.453   3.102  10.994  1.00 17.40 LIG 0.24  C 
ATOM      2 O    LEU I   2       3.482   3.819  11.976  1.00 17.46 LIG-0.27  OA
ATOM      3  N   ASN I   3       3.061   1.842  11.002  1.00 16.24 LIG-0.35  N 
ATOM      4 H    ASN I   3       3.118   1.319  10.321  1.00 16.24 LIG 0.16  HD
ENDROOT
BRANCH 3 5
ATOM      5  CA  ASN I   3       2.496   1.227  12.174  1.00 15.86 LIG 0.18  C 
BRANCH 5 6
ATOM      6  C   ASN I   3       3.435   0.155  12.688  1.00 15.05 LIG 0.24  C 
ATOM      7  N   PHE I   4       4.151  -0.465  11.741  1.00 14.49 LIG-0.34  N 
ATOM      8 H    PHE I   4       4.082  -0.289  10.902  1.00 14.49 LIG 0.16  HD
ATOM      9 O    ASN I   3       3.476  -0.108  13.915  1.00 16.10 LIG-0.27  OA
BRANCH 7 10
ATOM     10  CA  PHE I   4       5.123  -1.510  12.051  1.00 12.92 LIG 0.19  C 
BRANCH 10 11
ATOM     11  C   PHE I   4       4.381  -2.786  12.359  1.00 14.32 LIG 0.20  C 
ATOM     12 OXT  PHE I   4       5.015  -3.830  12.341  1.00 16.91 LIG-0.65  OA
ATOM     13 O    PHE I   4       3.203  -2.757  12.720  1.00 15.04 LIG-0.65  OA
ENDBRANCH 10 11
BRANCH 10 14
ATOM     14  CB  PHE I   4       5.971  -1.088  13.239  1.00 13.46 LIG 0.07  C 
BRANCH 14 15
ATOM     15  CG  PHE I   4       7.072  -0.154  12.802  1.00 17.43 LIG-0.06  A 
ATOM     16  CD1 PHE I   4       8.068  -0.620  11.932  1.00 19.70 LIG 0.01  A 
ATOM     17  CE1 PHE I   4       9.066   0.241  11.511  1.00 18.46 LIG 0.00  A 
ATOM     18  CZ  PHE I   4       9.076   1.558  11.953  1.00 20.27 LIG 0.00  A 
ATOM     19  CE2 PHE I   4       8.092   2.031  12.817  1.00 19.92 LIG 0.00  A 
ATOM     20  CD2 PHE I   4       7.080   1.173  13.250  1.00 19.48 LIG 0.01  A 
ENDBRANCH 14 15
ENDBRANCH 10 14
ENDBRANCH 7 10
ENDBRANCH 5 6
BRANCH 5 21
ATOM     21  CB  ASN I   3       1.149   0.631  11.797  1.00 15.02 LIG 0.14  C 
BRANCH 21 22
ATOM     22  CG  ASN I   3       0.162   1.759  11.507  1.00 21.09 LIG 0.22  C 
ATOM     23  ND2 ASN I   3      -0.116   2.083  10.254  1.00 19.37 LIG-0.37  N 
ATOM     24 22HD ASN I   3       0.200   1.613   9.608  1.00 19.37 LIG 0.16  HD
ATOM     25 21HD ASN I   3      -0.614   2.764  10.086  1.00 19.37 LIG 0.16  HD
ATOM     26 OD1  ASN I   3      -0.312   2.458  12.400  1.00 22.58 LIG-0.27  OA
ENDBRANCH 21 22
ENDBRANCH 5 21
ENDBRANCH 3 5
BRANCH 1 27
ATOM     27  CA  LEU I   2       3.820   3.679   9.689  1.00 19.34 LIG 0.18  C 
BRANCH 27 28
ATOM     28  N   LEU I   2       4.367   2.571   8.939  1.00 20.62 LIG-0.35  N 
ATOM     29 H    LEU I   2       3.804   2.129   8.463  1.00 20.62 LIG 0.16  HD
ATOM     30  C   SER I   1       5.668   2.313   9.030  1.00 28.29 LIG 0.24  C 
ATOM     31 O    SER I   1       6.423   2.946   9.801  1.00 21.19 LIG-0.27  OA
BRANCH 30 32
ATOM     32  CA  SER I   1       6.158   1.230   8.075  1.00 32.71 LIG 0.20  C 
BRANCH 32 33
ATOM     33  CB  SER I   1       7.305   0.528   8.742  1.00 35.86 LIG 0.20  C 
BRANCH 33 34
ATOM     34 OG   SER I   1       7.863  -0.048   7.595  1.00 39.84 LIG-0.40  OA
ATOM     35 HG   SER I   1       7.361  -0.661   7.316  1.00 39.84 LIG 0.21  HD
ENDBRANCH 33 34
ENDBRANCH 32 33
BRANCH 32 36
ATOM     36  N   SER I   1       6.533   2.015   6.904  1.00 41.50 LIG-0.35  N 
ATOM     37  C   ACE I   0       5.789   2.475   5.878  1.00 42.61 LIG 0.21  C 
ATOM     38 O    ACE I   0       4.567   2.376   5.758  0.00 41.61 LIG-0.27  OA
ATOM     39  CH3 ACE I   0       6.606   3.228   4.840  0.00 41.50 LIG 0.12  C 
ATOM     40 H    SER I   1       7.376   2.184   6.920  1.00 41.50 LIG 0.16  HD
ENDBRANCH 32 36
ENDBRANCH 30 32
ENDBRANCH 27 28
BRANCH 27 41
ATOM     41  CB  LEU I   2       2.611   4.241   9.025  1.00 22.58 LIG 0.04  C 
BRANCH 41 42
ATOM     42  CG  LEU I   2       2.587   3.852   7.542  1.00 27.49 LIG-0.02  C 
ATOM     43  CD2 LEU I   2       3.194   4.962   6.669  1.00 25.10 LIG 0.01  C 
ATOM     44  CD1 LEU I   2       1.159   3.512   7.174  1.00 31.16 LIG 0.01  C 
ENDBRANCH 41 42
ENDBRANCH 27 41
ENDBRANCH 1 27
TORSDOF 16
ENDMDL
MODEL 37
USER: ADFR SOLUTION from run 156
USER: SCORE 15.546849 LL:  -3.344 LR: -12.839 RR:   0.000 FEB:  -8.066
USER: RMSD 4.738898
USER: SEED 155
USER: STATUS no improvement in best in 9 clusters for 5 generations
USER: GENES 18
USER: genes 0 Translation |==|  0.55681 0.40243 0.52872
USER: genes 1 Rotation |==|  0.53988 0.41743 0.31637 0.95593
USER: genes 2 Torsion [C]-N--CA-[C] |==|  0.70267
USER: genes 3 Torsion [N]-CA--C-[N] |==|  0.06111
USER: genes 4 Torsion [C]-N--CA-[C] |==|  0.22240
USER: genes 5 Torsion [N]-CA--C-[O] |==|  0.22426
USER: genes 6 Torsion [N]-CA--CB-[CG] |==|  0.51230
USER: genes 7 Torsion [CA]-CB--CG-[CD1] |==|  0.13806
USER: genes 8 Torsion [N]-CA--CB-[CG] |==|  0.67900
USER: genes 9 Torsion [CA]-CB--CG-[OD1] |==|  0.94235
USER: genes 10 Torsion [N]-C--CA-[N] |==|  0.27051
USER: genes 11 Torsion [C]-CA--N-[C] |==|  0.60979
USER: genes 12 Torsion [N]-C--CA-[N] |==|  0.87444
USER: genes 13 Torsion [C]-CA--CB-[OG] |==|  0.51285
USER: genes 14 Torsion [CA]-CB--OG-[HG] |==|  0.03232
USER: genes 15 Torsion [C]-CA--N-[C] |==|  0.80957
USER: genes 16 Torsion [C]-CA--CB-[CG] |==|  0.30469
USER: genes 17 Torsion [CA]-CB--CG-[CD2] |==|  0.12399
ROOT
ATOM      1  C   LEU I   2       4.868   1.827  11.048  1.00 17.40 LIG 0.24  C 
ATOM      2 O    LEU I   2       4.985   2.638  11.947  1.00 17.46 LIG-0.27  OA
ATOM      3  N   ASN I   3       3.911   0.920  10.982  1.00 16.24 LIG-0.35  N 
ATOM      4 H    ASN I   3       3.879   0.301  10.385  1.00 16.24 LIG 0.16  HD
ENDROOT
BRANCH 3 5
ATOM      5  CA  ASN I   3       2.822   0.892  11.922  1.00 15.86 LIG 0.18  C 
BRANCH 5 6
ATOM      6  C   ASN I   3       3.000  -0.273  12.873  1.00 15.05 LIG 0.24  C 
ATOM      7  N   PHE I   4       4.258  -0.723  12.979  1.00 14.49 LIG-0.34  N 
ATOM      8 H    PHE I   4       4.918  -0.395  12.536  1.00 14.49 LIG 0.16  HD
ATOM      9 O    ASN I   3       2.006  -0.755  13.469  1.00 16.10 LIG-0.27  OA
BRANCH 7 10
ATOM     10  CA  PHE I   4       4.624  -1.824  13.865  1.00 12.92 LIG 0.19  C 
BRANCH 10 11
ATOM     11  C   PHE I   4       4.269  -3.126  13.192  1.00 14.32 LIG 0.20  C 
ATOM     12 OXT  PHE I   4       3.177  -3.615  13.440  1.00 16.91 LIG-0.65  OA
ATOM     13 O    PHE I   4       5.013  -3.617  12.341  1.00 15.04 LIG-0.65  OA
ENDBRANCH 10 11
BRANCH 10 14
ATOM     14  CB  PHE I   4       3.885  -1.690  15.185  1.00 13.46 LIG 0.07  C 
BRANCH 14 15
ATOM     15  CG  PHE I   4       4.330  -2.756  16.155  1.00 17.43 LIG-0.06  A 
ATOM     16  CD1 PHE I   4       5.700  -2.963  16.374  1.00 19.70 LIG 0.01  A 
ATOM     17  CE1 PHE I   4       6.110  -3.925  17.280  1.00 18.46 LIG 0.00  A 
ATOM     18  CZ  PHE I   4       5.166  -4.678  17.966  1.00 20.27 LIG 0.00  A 
ATOM     19  CE2 PHE I   4       3.803  -4.480  17.756  1.00 19.92 LIG 0.00  A 
ATOM     20  CD2 PHE I   4       3.375  -3.514  16.844  1.00 19.48 LIG 0.01  A 
ENDBRANCH 14 15
ENDBRANCH 10 14
ENDBRANCH 7 10
ENDBRANCH 5 6
BRANCH 5 21
ATOM     21  CB  ASN I   3       1.523   0.759  11.141  1.00 15.02 LIG 0.14  C 
BRANCH 21 22
ATOM     22  CG  ASN I   3       0.680   2.015  11.346  1.00 21.09 LIG 0.22  C 
ATOM     23  ND2 ASN I   3      -0.188   2.382  10.417  1.00 19.37 LIG-0.37  N 
ATOM     24 22HD ASN I   3      -0.330   1.877   9.736  1.00 19.37 LIG 0.16  HD
ATOM     25 21HD ASN I   3      -0.611   3.127  10.494  1.00 19.37 LIG 0.16  HD
ATOM     26 OD1  ASN I   3       0.851   2.768  12.302  1.00 22.58 LIG-0.27  OA
ENDBRANCH 21 22
ENDBRANCH 5 21
ENDBRANCH 3 5
BRANCH 1 27
ATOM     27  CA  LEU I   2       5.812   1.886   9.919  1.00 19.34 LIG 0.18  C 
BRANCH 27 28
ATOM     28  N   LEU I   2       5.311   2.949   9.077  1.00 20.62 LIG-0.35  N 
ATOM     29 H    LEU I   2       5.008   3.640   9.490  1.00 20.62 LIG 0.16  HD
ATOM     30  C   SER I   1       5.350   2.798   7.757  1.00 28.29 LIG 0.24  C 
ATOM     31 O    SER I   1       5.734   1.736   7.217  1.00 21.19 LIG-0.27  OA
BRANCH 30 32
ATOM     32  CA  SER I   1       4.950   4.043   6.974  1.00 32.71 LIG 0.20  C 
BRANCH 32 33
ATOM     33  CB  SER I   1       6.097   5.009   7.049  1.00 35.86 LIG 0.20  C 
BRANCH 33 34
ATOM     34 OG   SER I   1       5.484   6.078   6.385  1.00 39.84 LIG-0.40  OA
ATOM     35 HG   SER I   1       4.662   5.923   6.304  1.00 39.84 LIG 0.21  HD
ENDBRANCH 33 34
ENDBRANCH 32 33
BRANCH 32 36
ATOM     36  N   SER I   1       3.754   4.474   7.691  1.00 41.50 LIG-0.35  N 
ATOM     37  C   ACE I   0       2.533   3.911   7.783  1.00 42.61 LIG 0.21  C 
ATOM     38 O    ACE I   0       2.189   2.827   7.309  0.00 41.61 LIG-0.27  OA
ATOM     39  CH3 ACE I   0       1.561   4.729   8.618  0.00 41.50 LIG 0.12  C 
ATOM     40 H    SER I   1       3.909   5.211   8.106  1.00 41.50 LIG 0.16  HD
ENDBRANCH 32 36
ENDBRANCH 30 32
ENDBRANCH 27 28
BRANCH 27 41
ATOM     41  CB  LEU I   2       7.183   2.186  10.418  1.00 22.58 LIG 0.04  C 
BRANCH 41 42
ATOM     42  CG  LEU I   2       8.084   0.953  10.277  1.00 27.49 LIG-0.02  C 
ATOM     43  CD2 LEU I   2       7.899   0.288   8.903  1.00 25.10 LIG 0.01  C 
ATOM     44  CD1 LEU I   2       7.788   0.027  11.436  1.00 31.16 LIG 0.01  C 
ENDBRANCH 41 42
ENDBRANCH 27 41
ENDBRANCH 1 27
TORSDOF 16
ENDMDL
MODEL 38
USER: ADFR SOLUTION from run 129
USER: SCORE 16.305232 LL:  -3.773 LR: -12.816 RR:   0.000 FEB:  -8.043
USER: RMSD 8.111558
USER: SEED 128
USER: STATUS no improvement in best in 5 clusters for 5 generations
USER: GENES 18
USER: genes 0 Translation |==|  0.53745 0.31007 0.60775
USER: genes 1 Rotation |==|  0.03577 0.31582 0.50457 0.52342
USER: genes 2 Torsion [C]-N--CA-[C] |==|  0.64444
USER: genes 3 Torsion [N]-CA--C-[N] |==|  0.41654
USER: genes 4 Torsion [C]-N--CA-[C] |==|  0.58194
USER: genes 5 Torsion [N]-CA--C-[O] |==|  0.89356
USER: genes 6 Torsion [N]-CA--CB-[CG] |==|  0.06821
USER: genes 7 Torsion [CA]-CB--CG-[CD1] |==|  0.23045
USER: genes 8 Torsion [N]-CA--CB-[CG] |==|  0.30666
USER: genes 9 Torsion [CA]-CB--CG-[OD1] |==|  0.78612
USER: genes 10 Torsion [N]-C--CA-[N] |==|  0.39503
USER: genes 11 Torsion [C]-CA--N-[C] |==|  0.82643
USER: genes 12 Torsion [N]-C--CA-[N] |==|  0.48880
USER: genes 13 Torsion [C]-CA--CB-[OG] |==|  0.87323
USER: genes 14 Torsion [CA]-CB--OG-[HG] |==|  0.30836
USER: genes 15 Torsion [C]-CA--N-[C] |==|  0.77076
USER: genes 16 Torsion [C]-CA--CB-[CG] |==|  0.93997
USER: genes 17 Torsion [CA]-CB--CG-[CD2] |==|  0.75037
ROOT
ATOM      1  C   LEU I   2       4.534   0.234  12.648  1.00 17.40 LIG 0.24  C 
ATOM      2 O    LEU I   2       4.912  -0.536  11.786  1.00 17.46 LIG-0.27  OA
ATOM      3  N   ASN I   3       3.619   1.167  12.464  1.00 16.24 LIG-0.35  N 
ATOM      4 H    ASN I   3       3.413   1.758  13.055  1.00 16.24 LIG 0.16  HD
ENDROOT
BRANCH 3 5
ATOM      5  CA  ASN I   3       2.876   1.274  11.236  1.00 15.86 LIG 0.18  C 
BRANCH 5 6
ATOM      6  C   ASN I   3       2.964   2.693  10.711  1.00 15.05 LIG 0.24  C 
ATOM      7  N   PHE I   4       2.898   2.802   9.378  1.00 14.49 LIG-0.34  N 
ATOM      8 H    PHE I   4       2.826   2.127   8.849  1.00 14.49 LIG 0.16  HD
ATOM      9 O    ASN I   3       3.115   3.649  11.509  1.00 16.10 LIG-0.27  OA
BRANCH 7 10
ATOM     10  CA  PHE I   4       2.943   4.092   8.694  1.00 12.92 LIG 0.19  C 
BRANCH 10 11
ATOM     11  C   PHE I   4       2.160   3.986   7.410  1.00 14.32 LIG 0.20  C 
ATOM     12 OXT  PHE I   4       1.572   4.983   7.019  1.00 16.91 LIG-0.65  OA
ATOM     13 O    PHE I   4       2.204   2.960   6.728  1.00 15.04 LIG-0.65  OA
ENDBRANCH 10 11
BRANCH 10 14
ATOM     14  CB  PHE I   4       4.385   4.472   8.408  1.00 13.46 LIG 0.07  C 
BRANCH 14 15
ATOM     15  CG  PHE I   4       5.256   3.243   8.341  1.00 17.43 LIG-0.06  A 
ATOM     16  CD1 PHE I   4       5.323   2.506   7.150  1.00 19.70 LIG 0.01  A 
ATOM     17  CE1 PHE I   4       6.139   1.391   7.079  1.00 18.46 LIG 0.00  A 
ATOM     18  CZ  PHE I   4       6.886   1.008   8.186  1.00 20.27 LIG 0.00  A 
ATOM     19  CE2 PHE I   4       6.827   1.733   9.375  1.00 19.92 LIG 0.00  A 
ATOM     20  CD2 PHE I   4       6.006   2.859   9.460  1.00 19.48 LIG 0.01  A 
ENDBRANCH 14 15
ENDBRANCH 10 14
ENDBRANCH 7 10
ENDBRANCH 5 6
BRANCH 5 21
ATOM     21  CB  ASN I   3       1.432   0.891  11.519  1.00 15.02 LIG 0.14  C 
BRANCH 21 22
ATOM     22  CG  ASN I   3       0.551   2.134  11.416  1.00 21.09 LIG 0.22  C 
ATOM     23  ND2 ASN I   3      -0.103   2.385  10.292  1.00 19.37 LIG-0.37  N 
ATOM     24 22HD ASN I   3      -0.091   1.813   9.651  1.00 19.37 LIG 0.16  HD
ATOM     25 21HD ASN I   3      -0.541   3.120  10.204  1.00 19.37 LIG 0.16  HD
ATOM     26 OD1  ASN I   3       0.506   2.979  12.307  1.00 22.58 LIG-0.27  OA
ENDBRANCH 21 22
ENDBRANCH 5 21
ENDBRANCH 3 5
BRANCH 1 27
ATOM     27  CA  LEU I   2       5.079   0.091  14.009  1.00 19.34 LIG 0.18  C 
BRANCH 27 28
ATOM     28  N   LEU I   2       5.251  -1.333  14.187  1.00 20.62 LIG-0.35  N 
ATOM     29 H    LEU I   2       6.060  -1.599  14.313  1.00 20.62 LIG 0.16  HD
ATOM     30  C   SER I   1       4.181  -2.121  14.147  1.00 28.29 LIG 0.24  C 
ATOM     31 O    SER I   1       3.038  -1.683  13.884  1.00 21.19 LIG-0.27  OA
BRANCH 30 32
ATOM     32  CA  SER I   1       4.462  -3.575  14.508  1.00 32.71 LIG 0.20  C 
BRANCH 32 33
ATOM     33  CB  SER I   1       5.397  -4.123  13.468  1.00 35.86 LIG 0.20  C 
BRANCH 33 34
ATOM     34 OG   SER I   1       4.739  -3.618  12.341  1.00 39.84 LIG-0.40  OA
ATOM     35 HG   SER I   1       5.209  -3.018  11.987  1.00 39.84 LIG 0.21  HD
ENDBRANCH 33 34
ENDBRANCH 32 33
BRANCH 32 36
ATOM     36  N   SER I   1       3.123  -4.153  14.476  1.00 41.50 LIG-0.35  N 
ATOM     37  C   ACE I   0       2.147  -4.162  15.406  1.00 42.61 LIG 0.21  C 
ATOM     38 O    ACE I   0       2.171  -3.594  16.498  0.00 41.61 LIG-0.27  OA
ATOM     39  CH3 ACE I   0       0.908  -4.922  14.960  0.00 41.50 LIG 0.12  C 
ATOM     40 H    SER I   1       2.986  -4.538  13.719  1.00 41.50 LIG 0.16  HD
ENDBRANCH 32 36
ENDBRANCH 30 32
ENDBRANCH 27 28
BRANCH 27 41
ATOM     41  CB  LEU I   2       6.378   0.814  14.113  1.00 22.58 LIG 0.04  C 
BRANCH 41 42
ATOM     42  CG  LEU I   2       6.994   1.006  12.723  1.00 27.49 LIG-0.02  C 
ATOM     43  CD2 LEU I   2       7.900  -0.179  12.351  1.00 25.10 LIG 0.01  C 
ATOM     44  CD1 LEU I   2       7.714   2.337  12.714  1.00 31.16 LIG 0.01  C 
ENDBRANCH 41 42
ENDBRANCH 27 41
ENDBRANCH 1 27
TORSDOF 16
ENDMDL
MODEL 39
USER: ADFR SOLUTION from run 109
USER: SCORE 15.845881 LL:  -3.410 LR: -12.822 RR:   0.000 FEB:  -8.049
USER: RMSD 8.099562
USER: SEED 108
USER: STATUS no improvement in best in 12 clusters for 5 generations
USER: GENES 18
USER: genes 0 Translation |==|  0.65400 0.35533 0.52859
USER: genes 1 Rotation |==|  0.00418 0.51250 0.54355 0.54597
USER: genes 2 Torsion [C]-N--CA-[C] |==|  0.68173
USER: genes 3 Torsion [N]-CA--C-[N] |==|  0.35672
USER: genes 4 Torsion [C]-N--CA-[C] |==|  0.80986
USER: genes 5 Torsion [N]-CA--C-[O] |==|  0.35879
USER: genes 6 Torsion [N]-CA--CB-[CG] |==|  0.86037
USER: genes 7 Torsion [CA]-CB--CG-[CD1] |==|  0.22385
USER: genes 8 Torsion [N]-CA--CB-[CG] |==|  0.73011
USER: genes 9 Torsion [CA]-CB--CG-[OD1] |==|  0.46503
USER: genes 10 Torsion [N]-C--CA-[N] |==|  0.36729
USER: genes 11 Torsion [C]-CA--N-[C] |==|  0.81113
USER: genes 12 Torsion [N]-C--CA-[N] |==|  0.07162
USER: genes 13 Torsion [C]-CA--CB-[OG] |==|  0.80367
USER: genes 14 Torsion [CA]-CB--OG-[HG] |==|  0.49843
USER: genes 15 Torsion [C]-CA--N-[C] |==|  0.71267
USER: genes 16 Torsion [C]-CA--CB-[CG] |==|  0.06012
USER: genes 17 Torsion [CA]-CB--CG-[CD2] |==|  0.69449
ROOT
ATOM      1  C   LEU I   2       6.544   1.015  11.045  1.00 17.40 LIG 0.24  C 
ATOM      2 O    LEU I   2       6.092   0.288  10.181  1.00 17.46 LIG-0.27  OA
ATOM      3  N   ASN I   3       6.547   2.333  10.984  1.00 16.24 LIG-0.35  N 
ATOM      4 H    ASN I   3       6.938   2.838  11.561  1.00 16.24 LIG 0.16  HD
ENDROOT
BRANCH 3 5
ATOM      5  CA  ASN I   3       5.883   3.048   9.926  1.00 15.86 LIG 0.18  C 
BRANCH 5 6
ATOM      6  C   ASN I   3       6.910   3.781   9.086  1.00 15.05 LIG 0.24  C 
ATOM      7  N   PHE I   4       6.818   3.558   7.768  1.00 14.49 LIG-0.34  N 
ATOM      8 H    PHE I   4       6.237   3.031   7.415  1.00 14.49 LIG 0.16  HD
ATOM      9 O    ASN I   3       7.772   4.506   9.639  1.00 16.10 LIG-0.27  OA
BRANCH 7 10
ATOM     10  CA  PHE I   4       7.708   4.196   6.802  1.00 12.92 LIG 0.19  C 
BRANCH 10 11
ATOM     11  C   PHE I   4       7.398   5.671   6.760  1.00 14.32 LIG 0.20  C 
ATOM     12 OXT  PHE I   4       6.222   6.004   6.716  1.00 16.91 LIG-0.65  OA
ATOM     13 O    PHE I   4       8.296   6.507   6.876  1.00 15.04 LIG-0.65  OA
ENDBRANCH 10 11
BRANCH 10 14
ATOM     14  CB  PHE I   4       7.511   3.572   5.431  1.00 13.46 LIG 0.07  C 
BRANCH 14 15
ATOM     15  CG  PHE I   4       7.584   2.068   5.516  1.00 17.43 LIG-0.06  A 
ATOM     16  CD1 PHE I   4       6.462   1.344   5.943  1.00 19.70 LIG 0.01  A 
ATOM     17  CE1 PHE I   4       6.520  -0.037   6.000  1.00 18.46 LIG 0.00  A 
ATOM     18  CZ  PHE I   4       7.686  -0.697   5.635  1.00 20.27 LIG 0.00  A 
ATOM     19  CE2 PHE I   4       8.807   0.012   5.208  1.00 19.92 LIG 0.00  A 
ATOM     20  CD2 PHE I   4       8.763   1.406   5.148  1.00 19.48 LIG 0.01  A 
ENDBRANCH 14 15
ENDBRANCH 10 14
ENDBRANCH 7 10
ENDBRANCH 5 6
BRANCH 5 21
ATOM     21  CB  ASN I   3       4.902   4.025  10.554  1.00 15.02 LIG 0.14  C 
BRANCH 21 22
ATOM     22  CG  ASN I   3       3.507   3.404  10.563  1.00 21.09 LIG 0.22  C 
ATOM     23  ND2 ASN I   3       3.237   2.385   9.762  1.00 19.37 LIG-0.37  N 
ATOM     24 22HD ASN I   3       3.863   2.028   9.294  1.00 19.37 LIG 0.16  HD
ATOM     25 21HD ASN I   3       2.435   2.080   9.709  1.00 19.37 LIG 0.16  HD
ATOM     26 OD1  ASN I   3       2.582   3.885  11.213  1.00 22.58 LIG-0.27  OA
ENDBRANCH 21 22
ENDBRANCH 5 21
ENDBRANCH 3 5
BRANCH 1 27
ATOM     27  CA  LEU I   2       7.074   0.402  12.275  1.00 19.34 LIG 0.18  C 
BRANCH 27 28
ATOM     28  N   LEU I   2       6.084  -0.584  12.648  1.00 20.62 LIG-0.35  N 
ATOM     29 H    LEU I   2       6.332  -1.405  12.583  1.00 20.62 LIG 0.16  HD
ATOM     30  C   SER I   1       4.889  -0.172  13.058  1.00 28.29 LIG 0.24  C 
ATOM     31 O    SER I   1       4.562   1.036  13.060  1.00 21.19 LIG-0.27  OA
BRANCH 30 32
ATOM     32  CA  SER I   1       3.989  -1.287  13.578  1.00 32.71 LIG 0.20  C 
BRANCH 32 33
ATOM     33  CB  SER I   1       3.155  -0.711  14.687  1.00 35.86 LIG 0.20  C 
BRANCH 33 34
ATOM     34 OG   SER I   1       4.177  -0.571  15.634  1.00 39.84 LIG-0.40  OA
ATOM     35 HG   SER I   1       3.861  -0.240  16.339  1.00 39.84 LIG 0.21  HD
ENDBRANCH 33 34
ENDBRANCH 32 33
BRANCH 32 36
ATOM     36  N   SER I   1       4.966  -2.279  14.014  1.00 41.50 LIG-0.35  N 
ATOM     37  C   ACE I   0       5.365  -3.431  13.440  1.00 42.61 LIG 0.21  C 
ATOM     38 O    ACE I   0       5.013  -3.863  12.341  0.00 41.61 LIG-0.27  OA
ATOM     39  CH3 ACE I   0       6.393  -4.185  14.269  0.00 41.50 LIG 0.12  C 
ATOM     40 H    SER I   1       5.313  -2.041  14.764  1.00 41.50 LIG 0.16  HD
ENDBRANCH 32 36
ENDBRANCH 30 32
ENDBRANCH 27 28
BRANCH 27 41
ATOM     41  CB  LEU I   2       8.394  -0.230  11.999  1.00 22.58 LIG 0.04  C 
BRANCH 41 42
ATOM     42  CG  LEU I   2       9.028   0.385  10.746  1.00 27.49 LIG-0.02  C 
ATOM     43  CD2 LEU I   2       9.040  -0.619   9.582  1.00 25.10 LIG 0.01  C 
ATOM     44  CD1 LEU I   2      10.407   0.885  11.120  1.00 31.16 LIG 0.01  C 
ENDBRANCH 41 42
ENDBRANCH 27 41
ENDBRANCH 1 27
TORSDOF 16
ENDMDL
MODEL 40
USER: ADFR SOLUTION from run 195
USER: SCORE 15.109323 LL:  -3.364 LR: -12.814 RR:   0.000 FEB:  -8.041
USER: RMSD 7.106629
USER: SEED 194
USER: STATUS no improvement in best in 14 clusters for 5 generations
USER: GENES 18
USER: genes 0 Translation |==|  0.61999 0.41529 0.55691
USER: genes 1 Rotation |==|  0.59725 0.89160 0.67134 0.74048
USER: genes 2 Torsion [C]-N--CA-[C] |==|  0.65642
USER: genes 3 Torsion [N]-CA--C-[N] |==|  0.79451
USER: genes 4 Torsion [C]-N--CA-[C] |==|  0.81311
USER: genes 5 Torsion [N]-CA--C-[O] |==|  0.88722
USER: genes 6 Torsion [N]-CA--CB-[CG] |==|  0.74595
USER: genes 7 Torsion [CA]-CB--CG-[CD1] |==|  0.61997
USER: genes 8 Torsion [N]-CA--CB-[CG] |==|  0.51039
USER: genes 9 Torsion [CA]-CB--CG-[OD1] |==|  0.64648
USER: genes 10 Torsion [N]-C--CA-[N] |==|  0.89205
USER: genes 11 Torsion [C]-CA--N-[C] |==|  0.67665
USER: genes 12 Torsion [N]-C--CA-[N] |==|  0.32314
USER: genes 13 Torsion [C]-CA--CB-[OG] |==|  0.36732
USER: genes 14 Torsion [CA]-CB--OG-[HG] |==|  0.90771
USER: genes 15 Torsion [C]-CA--N-[C] |==|  0.75472
USER: genes 16 Torsion [C]-CA--CB-[CG] |==|  0.68649
USER: genes 17 Torsion [CA]-CB--CG-[CD2] |==|  0.69591
ROOT
ATOM      1  C   LEU I   2       5.958   2.049  11.618  1.00 17.40 LIG 0.24  C 
ATOM      2 O    LEU I   2       6.748   2.770  12.198  1.00 17.46 LIG-0.27  OA
ATOM      3  N   ASN I   3       6.275   1.251  10.616  1.00 16.24 LIG-0.35  N 
ATOM      4 H    ASN I   3       5.698   0.803  10.160  1.00 16.24 LIG 0.16  HD
ENDROOT
BRANCH 3 5
ATOM      5  CA  ASN I   3       7.637   1.060  10.195  1.00 15.86 LIG 0.18  C 
BRANCH 5 6
ATOM      6  C   ASN I   3       7.768   1.402   8.725  1.00 15.05 LIG 0.24  C 
ATOM      7  N   PHE I   4       7.248   0.494   7.889  1.00 14.49 LIG-0.34  N 
ATOM      8 H    PHE I   4       6.879  -0.237   8.152  1.00 14.49 LIG 0.16  HD
ATOM      9 O    ASN I   3       8.353   2.457   8.375  1.00 16.10 LIG-0.27  OA
BRANCH 7 10
ATOM     10  CA  PHE I   4       7.260   0.665   6.439  1.00 12.92 LIG 0.19  C 
BRANCH 10 11
ATOM     11  C   PHE I   4       6.356   1.817   6.080  1.00 14.32 LIG 0.20  C 
ATOM     12 OXT  PHE I   4       6.681   2.522   5.136  1.00 16.91 LIG-0.65  OA
ATOM     13 O    PHE I   4       5.276   1.971   6.653  1.00 15.04 LIG-0.65  OA
ENDBRANCH 10 11
BRANCH 10 14
ATOM     14  CB  PHE I   4       6.788  -0.612   5.766  1.00 13.46 LIG 0.07  C 
BRANCH 14 15
ATOM     15  CG  PHE I   4       7.957  -1.512   5.455  1.00 17.43 LIG-0.06  A 
ATOM     16  CD1 PHE I   4       8.019  -2.160   4.213  1.00 19.70 LIG 0.01  A 
ATOM     17  CE1 PHE I   4       9.101  -2.969   3.916  1.00 18.46 LIG 0.00  A 
ATOM     18  CZ  PHE I   4      10.118  -3.135   4.847  1.00 20.27 LIG 0.00  A 
ATOM     19  CE2 PHE I   4      10.067  -2.495   6.084  1.00 19.92 LIG 0.00  A 
ATOM     20  CD2 PHE I   4       8.980  -1.678   6.397  1.00 19.48 LIG 0.01  A 
ENDBRANCH 14 15
ENDBRANCH 10 14
ENDBRANCH 7 10
ENDBRANCH 5 6
BRANCH 5 21
ATOM     21  CB  ASN I   3       8.015  -0.391  10.448  1.00 15.02 LIG 0.14  C 
BRANCH 21 22
ATOM     22  CG  ASN I   3       9.487  -0.598  10.096  1.00 21.09 LIG 0.22  C 
ATOM     23  ND2 ASN I   3      10.393   0.265  10.529  1.00 19.37 LIG-0.37  N 
ATOM     24 22HD ASN I   3      10.165   0.896  11.065  1.00 19.37 LIG 0.16  HD
ATOM     25 21HD ASN I   3      11.211   0.194  10.273  1.00 19.37 LIG 0.16  HD
ATOM     26 OD1  ASN I   3       9.857  -1.484   9.330  1.00 22.58 LIG-0.27  OA
ENDBRANCH 21 22
ENDBRANCH 5 21
ENDBRANCH 3 5
BRANCH 1 27
ATOM     27  CA  LEU I   2       4.564   2.006  12.092  1.00 19.34 LIG 0.18  C 
BRANCH 27 28
ATOM     28  N   LEU I   2       3.773   1.872  10.889  1.00 20.62 LIG-0.35  N 
ATOM     29 H    LEU I   2       3.895   1.149  10.441  1.00 20.62 LIG 0.16  HD
ATOM     30  C   SER I   1       2.931   2.847  10.562  1.00 28.29 LIG 0.24  C 
ATOM     31 O    SER I   1       2.853   3.912  11.215  1.00 21.19 LIG-0.27  OA
BRANCH 30 32
ATOM     32  CA  SER I   1       2.036   2.525   9.370  1.00 32.71 LIG 0.20  C 
BRANCH 32 33
ATOM     33  CB  SER I   1       2.255   3.598   8.341  1.00 35.86 LIG 0.20  C 
BRANCH 33 34
ATOM     34 OG   SER I   1       2.423   2.760   7.232  1.00 39.84 LIG-0.40  OA
ATOM     35 HG   SER I   1       2.796   2.047   7.474  1.00 39.84 LIG 0.21  HD
ENDBRANCH 33 34
ENDBRANCH 32 33
BRANCH 32 36
ATOM     36  N   SER I   1       0.711   2.540   9.980  1.00 41.50 LIG-0.35  N 
ATOM     37  C   ACE I   0       0.009   1.559  10.581  1.00 42.61 LIG 0.21  C 
ATOM     38 O    ACE I   0       0.398   0.411  10.805  0.00 41.61 LIG-0.27  OA
ATOM     39  CH3 ACE I   0      -1.366   2.010  11.048  0.00 41.50 LIG 0.12  C 
ATOM     40 H    SER I   1       0.367   3.326   9.919  1.00 41.50 LIG 0.16  HD
ENDBRANCH 32 36
ENDBRANCH 30 32
ENDBRANCH 27 28
BRANCH 27 41
ATOM     41  CB  LEU I   2       4.373   0.842  13.002  1.00 22.58 LIG 0.04  C 
BRANCH 41 42
ATOM     42  CG  LEU I   2       3.439  -0.190  12.357  1.00 27.49 LIG-0.02  C 
ATOM     43  CD2 LEU I   2       2.079  -0.227  13.073  1.00 25.10 LIG 0.01  C 
ATOM     44  CD1 LEU I   2       4.152  -1.525  12.356  1.00 31.16 LIG 0.01  C 
ENDBRANCH 41 42
ENDBRANCH 27 41
ENDBRANCH 1 27
TORSDOF 16
ENDMDL
MODEL 41
USER: ADFR SOLUTION from run 11
USER: SCORE 15.213438 LL:  -3.503 LR: -12.802 RR:   0.000 FEB:  -8.029
USER: RMSD 4.804938
USER: SEED 120909
USER: STATUS no improvement in best in 12 clusters for 5 generations
USER: GENES 18
USER: genes 0 Translation |==|  0.41216 0.48157 0.50962
USER: genes 1 Rotation |==|  0.46793 0.81462 0.58528 0.87777
USER: genes 2 Torsion [C]-N--CA-[C] |==|  0.75887
USER: genes 3 Torsion [N]-CA--C-[N] |==|  0.84516
USER: genes 4 Torsion [C]-N--CA-[C] |==|  0.67219
USER: genes 5 Torsion [N]-CA--C-[O] |==|  0.83317
USER: genes 6 Torsion [N]-CA--CB-[CG] |==|  0.80701
USER: genes 7 Torsion [CA]-CB--CG-[CD1] |==|  0.94017
USER: genes 8 Torsion [N]-CA--CB-[CG] |==|  0.76879
USER: genes 9 Torsion [CA]-CB--CG-[OD1] |==|  0.39875
USER: genes 10 Torsion [N]-C--CA-[N] |==|  0.67492
USER: genes 11 Torsion [C]-CA--N-[C] |==|  0.18199
USER: genes 12 Torsion [N]-C--CA-[N] |==|  0.02222
USER: genes 13 Torsion [C]-CA--CB-[OG] |==|  0.66826
USER: genes 14 Torsion [CA]-CB--OG-[HG] |==|  0.20365
USER: genes 15 Torsion [C]-CA--N-[C] |==|  0.69357
USER: genes 16 Torsion [C]-CA--CB-[CG] |==|  0.22907
USER: genes 17 Torsion [CA]-CB--CG-[CD2] |==|  0.01972
ROOT
ATOM      1  C   LEU I   2       2.373   3.192  10.661  1.00 17.40 LIG 0.24  C 
ATOM      2 O    LEU I   2       2.751   4.224  11.181  1.00 17.46 LIG-0.27  OA
ATOM      3  N   ASN I   3       3.086   2.083  10.601  1.00 16.24 LIG-0.35  N 
ATOM      4 H    ASN I   3       2.845   1.382  10.164  1.00 16.24 LIG 0.16  HD
ENDROOT
BRANCH 3 5
ATOM      5  CA  ASN I   3       4.351   1.953  11.275  1.00 15.86 LIG 0.18  C 
BRANCH 5 6
ATOM      6  C   ASN I   3       5.459   2.474  10.382  1.00 15.05 LIG 0.24  C 
ATOM      7  N   PHE I   4       5.523   1.897   9.174  1.00 14.49 LIG-0.34  N 
ATOM      8 H    PHE I   4       4.993   1.270   8.919  1.00 14.49 LIG 0.16  HD
ATOM      9 O    ASN I   3       6.242   3.358  10.805  1.00 16.10 LIG-0.27  OA
BRANCH 7 10
ATOM     10  CA  PHE I   4       6.511   2.287   8.172  1.00 12.92 LIG 0.19  C 
BRANCH 10 11
ATOM     11  C   PHE I   4       5.787   2.822   6.962  1.00 14.32 LIG 0.20  C 
ATOM     12 OXT  PHE I   4       6.096   3.935   6.562  1.00 16.91 LIG-0.65  OA
ATOM     13 O    PHE I   4       4.993   2.114   6.340  1.00 15.04 LIG-0.65  OA
ENDBRANCH 10 11
BRANCH 10 14
ATOM     14  CB  PHE I   4       7.362   1.087   7.795  1.00 13.46 LIG 0.07  C 
BRANCH 14 15
ATOM     15  CG  PHE I   4       8.259   0.690   8.940  1.00 17.43 LIG-0.06  A 
ATOM     16  CD1 PHE I   4       8.564   1.628   9.937  1.00 19.70 LIG 0.01  A 
ATOM     17  CE1 PHE I   4       9.368   1.260  11.001  1.00 18.46 LIG 0.00  A 
ATOM     18  CZ  PHE I   4       9.869  -0.034  11.075  1.00 20.27 LIG 0.00  A 
ATOM     19  CE2 PHE I   4       9.572  -0.974  10.091  1.00 19.92 LIG 0.00  A 
ATOM     20  CD2 PHE I   4       8.763  -0.615   9.012  1.00 19.48 LIG 0.01  A 
ENDBRANCH 14 15
ENDBRANCH 10 14
ENDBRANCH 7 10
ENDBRANCH 5 6
BRANCH 5 21
ATOM     21  CB  ASN I   3       4.566   0.484  11.603  1.00 15.02 LIG 0.14  C 
BRANCH 21 22
ATOM     22  CG  ASN I   3       3.836   0.144  12.900  1.00 21.09 LIG 0.22  C 
ATOM     23  ND2 ASN I   3       3.888   0.984  13.922  1.00 19.37 LIG-0.37  N 
ATOM     24 22HD ASN I   3       4.268   1.749  13.831  1.00 19.37 LIG 0.16  HD
ATOM     25 21HD ASN I   3       3.541   0.764  14.678  1.00 19.37 LIG 0.16  HD
ATOM     26 OD1  ASN I   3       3.284  -0.940  13.075  1.00 22.58 LIG-0.27  OA
ENDBRANCH 21 22
ENDBRANCH 5 21
ENDBRANCH 3 5
BRANCH 1 27
ATOM     27  CA  LEU I   2       1.009   3.140  10.109  1.00 19.34 LIG 0.18  C 
BRANCH 27 28
ATOM     28  N   LEU I   2       1.021   4.080   9.010  1.00 20.62 LIG-0.35  N 
ATOM     29 H    LEU I   2       0.519   4.771   9.105  1.00 20.62 LIG 0.16  HD
ATOM     30  C   SER I   1       1.786   3.823   7.954  1.00 28.29 LIG 0.24  C 
ATOM     31 O    SER I   1       2.437   2.760   7.841  1.00 21.19 LIG-0.27  OA
BRANCH 30 32
ATOM     32  CA  SER I   1       1.845   4.957   6.936  1.00 32.71 LIG 0.20  C 
BRANCH 32 33
ATOM     33  CB  SER I   1       3.294   5.241   6.663  1.00 35.86 LIG 0.20  C 
BRANCH 33 34
ATOM     34 OG   SER I   1       3.306   6.573   7.091  1.00 39.84 LIG-0.40  OA
ATOM     35 HG   SER I   1       3.264   6.599   7.929  1.00 39.84 LIG 0.21  HD
ENDBRANCH 33 34
ENDBRANCH 32 33
BRANCH 32 36
ATOM     36  N   SER I   1       1.146   6.026   7.641  1.00 41.50 LIG-0.35  N 
ATOM     37  C   ACE I   0      -0.057   6.590   7.412  1.00 42.61 LIG 0.21  C 
ATOM     38 O    ACE I   0      -0.875   6.249   6.557  0.00 41.61 LIG-0.27  OA
ATOM     39  CH3 ACE I   0      -0.382   7.713   8.384  0.00 41.50 LIG 0.12  C 
ATOM     40 H    SER I   1       1.622   6.304   8.300  1.00 41.50 LIG 0.16  HD
ENDBRANCH 32 36
ENDBRANCH 30 32
ENDBRANCH 27 28
BRANCH 27 41
ATOM     41  CB  LEU I   2       0.703   1.759   9.640  1.00 22.58 LIG 0.04  C 
BRANCH 41 42
ATOM     42  CG  LEU I   2       0.256   0.883  10.817  1.00 27.49 LIG-0.02  C 
ATOM     43  CD2 LEU I   2       0.084   1.721  12.095  1.00 25.10 LIG 0.01  C 
ATOM     44  CD1 LEU I   2       1.260  -0.240  10.968  1.00 31.16 LIG 0.01  C 
ENDBRANCH 41 42
ENDBRANCH 27 41
ENDBRANCH 1 27
TORSDOF 16
ENDMDL
MODEL 42
USER: ADFR SOLUTION from run 98
USER: SCORE 16.005931 LL:  -4.187 LR: -12.760 RR:   0.000 FEB:  -7.987
USER: RMSD 8.082618
USER: SEED 97
USER: STATUS no improvement in best in 6 clusters for 5 generations
USER: GENES 18
USER: genes 0 Translation |==|  0.47738 0.46805 0.53458
USER: genes 1 Rotation |==|  0.21325 0.84189 0.64522 0.67262
USER: genes 2 Torsion [C]-N--CA-[C] |==|  0.67233
USER: genes 3 Torsion [N]-CA--C-[N] |==|  0.29875
USER: genes 4 Torsion [C]-N--CA-[C] |==|  0.71487
USER: genes 5 Torsion [N]-CA--C-[O] |==|  0.24818
USER: genes 6 Torsion [N]-CA--CB-[CG] |==|  0.99672
USER: genes 7 Torsion [CA]-CB--CG-[CD1] |==|  0.28725
USER: genes 8 Torsion [N]-CA--CB-[CG] |==|  0.73305
USER: genes 9 Torsion [CA]-CB--CG-[OD1] |==|  0.62977
USER: genes 10 Torsion [N]-C--CA-[N] |==|  0.10655
USER: genes 11 Torsion [C]-CA--N-[C] |==|  0.60296
USER: genes 12 Torsion [N]-C--CA-[N] |==|  0.87778
USER: genes 13 Torsion [C]-CA--CB-[OG] |==|  0.56862
USER: genes 14 Torsion [CA]-CB--OG-[HG] |==|  0.42684
USER: genes 15 Torsion [C]-CA--N-[C] |==|  0.78085
USER: genes 16 Torsion [C]-CA--CB-[CG] |==|  0.34127
USER: genes 17 Torsion [CA]-CB--CG-[CD2] |==|  0.98953
ROOT
ATOM      1  C   LEU I   2       3.498   2.959  11.166  1.00 17.40 LIG 0.24  C 
ATOM      2 O    LEU I   2       2.750   3.887  10.922  1.00 17.46 LIG-0.27  OA
ATOM      3  N   ASN I   3       4.808   2.996  11.009  1.00 16.24 LIG-0.35  N 
ATOM      4 H    ASN I   3       5.321   2.313  11.109  1.00 16.24 LIG 0.16  HD
ENDROOT
BRANCH 3 5
ATOM      5  CA  ASN I   3       5.498   4.207  10.650  1.00 15.86 LIG 0.18  C 
BRANCH 5 6
ATOM      6  C   ASN I   3       6.186   4.022   9.312  1.00 15.05 LIG 0.24  C 
ATOM      7  N   PHE I   4       5.616   4.679   8.293  1.00 14.49 LIG-0.34  N 
ATOM      8 H    PHE I   4       4.907   5.159   8.375  1.00 14.49 LIG 0.16  HD
ATOM      9 O    ASN I   3       7.192   3.278   9.222  1.00 16.10 LIG-0.27  OA
BRANCH 7 10
ATOM     10  CA  PHE I   4       6.154   4.638   6.936  1.00 12.92 LIG 0.19  C 
BRANCH 10 11
ATOM     11  C   PHE I   4       6.889   5.927   6.668  1.00 14.32 LIG 0.20  C 
ATOM     12 OXT  PHE I   4       6.235   6.885   6.282  1.00 16.91 LIG-0.65  OA
ATOM     13 O    PHE I   4       8.087   6.036   6.935  1.00 15.04 LIG-0.65  OA
ENDBRANCH 10 11
BRANCH 10 14
ATOM     14  CB  PHE I   4       5.022   4.454   5.940  1.00 13.46 LIG 0.07  C 
BRANCH 14 15
ATOM     15  CG  PHE I   4       3.699   4.341   6.653  1.00 17.43 LIG-0.06  A 
ATOM     16  CD1 PHE I   4       2.825   5.437   6.668  1.00 19.70 LIG 0.01  A 
ATOM     17  CE1 PHE I   4       1.600   5.329   7.302  1.00 18.46 LIG 0.00  A 
ATOM     18  CZ  PHE I   4       1.244   4.137   7.920  1.00 20.27 LIG 0.00  A 
ATOM     19  CE2 PHE I   4       2.104   3.041   7.912  1.00 19.92 LIG 0.00  A 
ATOM     20  CD2 PHE I   4       3.343   3.138   7.277  1.00 19.48 LIG 0.01  A 
ENDBRANCH 14 15
ENDBRANCH 10 14
ENDBRANCH 7 10
ENDBRANCH 5 6
BRANCH 5 21
ATOM     21  CB  ASN I   3       6.511   4.519  11.740  1.00 15.02 LIG 0.14  C 
BRANCH 21 22
ATOM     22  CG  ASN I   3       5.904   5.517  12.722  1.00 21.09 LIG 0.22  C 
ATOM     23  ND2 ASN I   3       4.638   5.390  13.091  1.00 19.37 LIG-0.37  N 
ATOM     24 22HD ASN I   3       4.183   4.706  12.837  1.00 19.37 LIG 0.16  HD
ATOM     25 21HD ASN I   3       4.272   5.990  13.585  1.00 19.37 LIG 0.16  HD
ATOM     26 OD1  ASN I   3       6.517   6.509  13.109  1.00 22.58 LIG-0.27  OA
ENDBRANCH 21 22
ENDBRANCH 5 21
ENDBRANCH 3 5
BRANCH 1 27
ATOM     27  CA  LEU I   2       2.928   1.725  11.733  1.00 19.34 LIG 0.18  C 
BRANCH 27 28
ATOM     28  N   LEU I   2       3.878   1.312  12.742  1.00 20.62 LIG-0.35  N 
ATOM     29 H    LEU I   2       4.248   1.947  13.188  1.00 20.62 LIG 0.16  HD
ATOM     30  C   SER I   1       4.113   0.015  12.911  1.00 28.29 LIG 0.24  C 
ATOM     31 O    SER I   1       3.600  -0.859  12.177  1.00 21.19 LIG-0.27  OA
BRANCH 30 32
ATOM     32  CA  SER I   1       5.004  -0.307  14.105  1.00 32.71 LIG 0.20  C 
BRANCH 32 33
ATOM     33  CB  SER I   1       4.164  -0.172  15.342  1.00 35.86 LIG 0.20  C 
BRANCH 33 34
ATOM     34 OG   SER I   1       5.202   0.089  16.244  1.00 39.84 LIG-0.40  OA
ATOM     35 HG   SER I   1       4.904   0.533  16.893  1.00 39.84 LIG 0.21  HD
ENDBRANCH 33 34
ENDBRANCH 32 33
BRANCH 32 36
ATOM     36  N   SER I   1       6.051   0.701  13.976  1.00 41.50 LIG-0.35  N 
ATOM     37  C   ACE I   0       7.128   0.752  13.168  1.00 42.61 LIG 0.21  C 
ATOM     38 O    ACE I   0       7.420  -0.055  12.284  0.00 41.61 LIG-0.27  OA
ATOM     39  CH3 ACE I   0       7.986   1.986  13.396  0.00 41.50 LIG 0.12  C 
ATOM     40 H    SER I   1       5.908   1.346  14.527  1.00 41.50 LIG 0.16  HD
ENDBRANCH 32 36
ENDBRANCH 30 32
ENDBRANCH 27 28
BRANCH 27 41
ATOM     41  CB  LEU I   2       1.592   2.010  12.328  1.00 22.58 LIG 0.04  C 
BRANCH 41 42
ATOM     42  CG  LEU I   2       0.522   1.118  11.687  1.00 27.49 LIG-0.02  C 
ATOM     43  CD2 LEU I   2       1.119   0.261  10.559  1.00 25.10 LIG 0.01  C 
ATOM     44  CD1 LEU I   2      -0.611   2.010  11.227  1.00 31.16 LIG 0.01  C 
ENDBRANCH 41 42
ENDBRANCH 27 41
ENDBRANCH 1 27
TORSDOF 16
ENDMDL
MODEL 43
USER: ADFR SOLUTION from run 88
USER: SCORE 14.851315 LL:  -3.143 LR: -12.756 RR:   0.000 FEB:  -7.983
USER: RMSD 4.041153
USER: SEED 87
USER: STATUS no improvement in best in 9 clusters for 5 generations
USER: GENES 18
USER: genes 0 Translation |==|  0.50945 0.48645 0.53291
USER: genes 1 Rotation |==|  0.50036 0.34006 0.52524 0.97306
USER: genes 2 Torsion [C]-N--CA-[C] |==|  0.58889
USER: genes 3 Torsion [N]-CA--C-[N] |==|  0.95061
USER: genes 4 Torsion [C]-N--CA-[C] |==|  0.21427
USER: genes 5 Torsion [N]-CA--C-[O] |==|  0.35207
USER: genes 6 Torsion [N]-CA--CB-[CG] |==|  0.55475
USER: genes 7 Torsion [CA]-CB--CG-[CD1] |==|  0.67197
USER: genes 8 Torsion [N]-CA--CB-[CG] |==|  0.73356
USER: genes 9 Torsion [CA]-CB--CG-[OD1] |==|  0.88644
USER: genes 10 Torsion [N]-C--CA-[N] |==|  0.28167
USER: genes 11 Torsion [C]-CA--N-[C] |==|  0.63559
USER: genes 12 Torsion [N]-C--CA-[N] |==|  0.96831
USER: genes 13 Torsion [C]-CA--CB-[OG] |==|  0.81385
USER: genes 14 Torsion [CA]-CB--OG-[HG] |==|  0.03202
USER: genes 15 Torsion [C]-CA--N-[C] |==|  0.76302
USER: genes 16 Torsion [C]-CA--CB-[CG] |==|  0.16500
USER: genes 17 Torsion [CA]-CB--CG-[CD2] |==|  0.64892
ROOT
ATOM      1  C   LEU I   2       4.051   3.276  11.132  1.00 17.40 LIG 0.24  C 
ATOM      2 O    LEU I   2       3.284   4.117  11.561  1.00 17.46 LIG-0.27  OA
ATOM      3  N   ASN I   3       3.965   1.986  11.396  1.00 16.24 LIG-0.35  N 
ATOM      4 H    ASN I   3       4.555   1.408  11.154  1.00 16.24 LIG 0.16  HD
ENDROOT
BRANCH 3 5
ATOM      5  CA  ASN I   3       2.856   1.429  12.124  1.00 15.86 LIG 0.18  C 
BRANCH 5 6
ATOM      6  C   ASN I   3       3.326   0.237  12.933  1.00 15.05 LIG 0.24  C 
ATOM      7  N   PHE I   4       4.500  -0.277  12.545  1.00 14.49 LIG-0.34  N 
ATOM      8 H    PHE I   4       4.955   0.027  11.881  1.00 14.49 LIG 0.16  HD
ATOM      9 O    ASN I   3       2.614  -0.207  13.867  1.00 16.10 LIG-0.27  OA
BRANCH 7 10
ATOM     10  CA  PHE I   4       5.121  -1.412  13.222  1.00 12.92 LIG 0.19  C 
BRANCH 10 11
ATOM     11  C   PHE I   4       4.417  -2.675  12.793  1.00 14.32 LIG 0.20  C 
ATOM     12 OXT  PHE I   4       3.195  -2.677  12.810  1.00 16.91 LIG-0.65  OA
ATOM     13 O    PHE I   4       5.053  -3.628  12.341  1.00 15.04 LIG-0.65  OA
ENDBRANCH 10 11
BRANCH 10 14
ATOM     14  CB  PHE I   4       5.021  -1.232  14.727  1.00 13.46 LIG 0.07  C 
BRANCH 14 15
ATOM     15  CG  PHE I   4       6.035  -2.095  15.434  1.00 17.43 LIG-0.06  A 
ATOM     16  CD1 PHE I   4       5.598  -3.095  16.314  1.00 19.70 LIG 0.01  A 
ATOM     17  CE1 PHE I   4       6.526  -3.903  16.947  1.00 18.46 LIG 0.00  A 
ATOM     18  CZ  PHE I   4       7.882  -3.719  16.709  1.00 20.27 LIG 0.00  A 
ATOM     19  CE2 PHE I   4       8.327  -2.728  15.837  1.00 19.92 LIG 0.00  A 
ATOM     20  CD2 PHE I   4       7.402  -1.905  15.193  1.00 19.48 LIG 0.01  A 
ENDBRANCH 14 15
ENDBRANCH 10 14
ENDBRANCH 7 10
ENDBRANCH 5 6
BRANCH 5 21
ATOM     21  CB  ASN I   3       1.789   1.015  11.122  1.00 15.02 LIG 0.14  C 
BRANCH 21 22
ATOM     22  CG  ASN I   3       0.756   2.132  10.995  1.00 21.09 LIG 0.22  C 
ATOM     23  ND2 ASN I   3       0.363   2.529   9.794  1.00 19.37 LIG-0.37  N 
ATOM     24 22HD ASN I   3       0.631   2.110   9.093  1.00 19.37 LIG 0.16  HD
ATOM     25 21HD ASN I   3      -0.162   3.206   9.716  1.00 19.37 LIG 0.16  HD
ATOM     26 OD1  ASN I   3       0.349   2.760  11.969  1.00 22.58 LIG-0.27  OA
ENDBRANCH 21 22
ENDBRANCH 5 21
ENDBRANCH 3 5
BRANCH 1 27
ATOM     27  CA  LEU I   2       5.117   3.700  10.209  1.00 19.34 LIG 0.18  C 
BRANCH 27 28
ATOM     28  N   LEU I   2       4.445   3.909   8.946  1.00 20.62 LIG-0.35  N 
ATOM     29 H    LEU I   2       3.731   4.387   8.977  1.00 20.62 LIG 0.16  HD
ATOM     30  C   SER I   1       4.958   3.365   7.847  1.00 28.29 LIG 0.24  C 
ATOM     31 O    SER I   1       5.959   2.615   7.876  1.00 21.19 LIG-0.27  OA
BRANCH 30 32
ATOM     32  CA  SER I   1       4.260   3.786   6.558  1.00 32.71 LIG 0.20  C 
BRANCH 32 33
ATOM     33  CB  SER I   1       5.200   4.689   5.813  1.00 35.86 LIG 0.20  C 
BRANCH 33 34
ATOM     34 OG   SER I   1       5.185   5.759   6.716  1.00 39.84 LIG-0.40  OA
ATOM     35 HG   SER I   1       4.813   5.517   7.430  1.00 39.84 LIG 0.21  HD
ENDBRANCH 33 34
ENDBRANCH 32 33
BRANCH 32 36
ATOM     36  N   SER I   1       3.067   4.451   7.069  1.00 41.50 LIG-0.35  N 
ATOM     37  C   ACE I   0       1.871   3.951   7.438  1.00 42.61 LIG 0.21  C 
ATOM     38 O    ACE I   0       1.557   2.760   7.482  0.00 41.61 LIG-0.27  OA
ATOM     39  CH3 ACE I   0       0.888   5.022   7.883  0.00 41.50 LIG 0.12  C 
ATOM     40 H    SER I   1       3.203   5.298   7.125  1.00 41.50 LIG 0.16  HD
ENDBRANCH 32 36
ENDBRANCH 30 32
ENDBRANCH 27 28
BRANCH 27 41
ATOM     41  CB  LEU I   2       5.747   4.956  10.704  1.00 22.58 LIG 0.04  C 
BRANCH 41 42
ATOM     42  CG  LEU I   2       6.344   4.738  12.100  1.00 27.49 LIG-0.02  C 
ATOM     43  CD2 LEU I   2       5.818   5.785  13.095  1.00 25.10 LIG 0.01  C 
ATOM     44  CD1 LEU I   2       7.852   4.743  11.966  1.00 31.16 LIG 0.01  C 
ENDBRANCH 41 42
ENDBRANCH 27 41
ENDBRANCH 1 27
TORSDOF 16
ENDMDL
MODEL 44
USER: ADFR SOLUTION from run 132
USER: SCORE 15.370885 LL:  -3.467 LR: -12.754 RR:   0.000 FEB:  -7.981
USER: RMSD 7.740083
USER: SEED 131
USER: STATUS no improvement in best in 8 clusters for 5 generations
USER: GENES 18
USER: genes 0 Translation |==|  0.49099 0.24437 0.60255
USER: genes 1 Rotation |==|  0.01245 0.58333 0.51715 0.57111
USER: genes 2 Torsion [C]-N--CA-[C] |==|  0.65447
USER: genes 3 Torsion [N]-CA--C-[N] |==|  0.82525
USER: genes 4 Torsion [C]-N--CA-[C] |==|  0.31368
USER: genes 5 Torsion [N]-CA--C-[O] |==|  0.52862
USER: genes 6 Torsion [N]-CA--CB-[CG] |==|  0.74889
USER: genes 7 Torsion [CA]-CB--CG-[CD1] |==|  0.85581
USER: genes 8 Torsion [N]-CA--CB-[CG] |==|  0.67244
USER: genes 9 Torsion [CA]-CB--CG-[OD1] |==|  0.43572
USER: genes 10 Torsion [N]-C--CA-[N] |==|  0.86114
USER: genes 11 Torsion [C]-CA--N-[C] |==|  0.72138
USER: genes 12 Torsion [N]-C--CA-[N] |==|  0.92938
USER: genes 13 Torsion [C]-CA--CB-[OG] |==|  0.76940
USER: genes 14 Torsion [CA]-CB--OG-[HG] |==|  0.79781
USER: genes 15 Torsion [C]-CA--N-[C] |==|  0.83044
USER: genes 16 Torsion [C]-CA--CB-[CG] |==|  0.42434
USER: genes 17 Torsion [CA]-CB--CG-[CD2] |==|  0.22118
ROOT
ATOM      1  C   LEU I   2       3.733  -0.900  12.543  1.00 17.40 LIG 0.24  C 
ATOM      2 O    LEU I   2       3.166  -1.402  11.591  1.00 17.46 LIG-0.27  OA
ATOM      3  N   ASN I   3       4.127   0.359  12.596  1.00 16.24 LIG-0.35  N 
ATOM      4 H    ASN I   3       4.596   0.686  13.239  1.00 16.24 LIG 0.16  HD
ENDROOT
BRANCH 3 5
ATOM      5  CA  ASN I   3       3.799   1.304  11.562  1.00 15.86 LIG 0.18  C 
BRANCH 5 6
ATOM      6  C   ASN I   3       5.070   1.928  11.022  1.00 15.05 LIG 0.24  C 
ATOM      7  N   PHE I   4       5.769   2.641  11.915  1.00 14.49 LIG-0.34  N 
ATOM      8 H    PHE I   4       5.520   2.755  12.731  1.00 14.49 LIG 0.16  HD
ATOM      9 O    ASN I   3       5.379   1.778   9.814  1.00 16.10 LIG-0.27  OA
BRANCH 7 10
ATOM     10  CA  PHE I   4       7.031   3.295  11.581  1.00 12.92 LIG 0.19  C 
BRANCH 10 11
ATOM     11  C   PHE I   4       6.832   4.788  11.640  1.00 14.32 LIG 0.20  C 
ATOM     12 OXT  PHE I   4       5.838   5.207  12.216  1.00 16.91 LIG-0.65  OA
ATOM     13 O    PHE I   4       7.698   5.556  11.216  1.00 15.04 LIG-0.65  OA
ENDBRANCH 10 11
BRANCH 10 14
ATOM     14  CB  PHE I   4       7.478   2.872  10.193  1.00 13.46 LIG 0.07  C 
BRANCH 14 15
ATOM     15  CG  PHE I   4       8.353   1.645  10.267  1.00 17.43 LIG-0.06  A 
ATOM     16  CD1 PHE I   4       9.458   1.635  11.130  1.00 19.70 LIG 0.01  A 
ATOM     17  CE1 PHE I   4      10.249   0.503  11.216  1.00 18.46 LIG 0.00  A 
ATOM     18  CZ  PHE I   4       9.944  -0.615  10.449  1.00 20.27 LIG 0.00  A 
ATOM     19  CE2 PHE I   4       8.849  -0.615   9.589  1.00 19.92 LIG 0.00  A 
ATOM     20  CD2 PHE I   4       8.044   0.521   9.491  1.00 19.48 LIG 0.01  A 
ENDBRANCH 14 15
ENDBRANCH 10 14
ENDBRANCH 7 10
ENDBRANCH 5 6
BRANCH 5 21
ATOM     21  CB  ASN I   3       2.888   2.365  12.159  1.00 15.02 LIG 0.14  C 
BRANCH 21 22
ATOM     22  CG  ASN I   3       1.539   2.332  11.444  1.00 21.09 LIG 0.22  C 
ATOM     23  ND2 ASN I   3       1.474   1.939  10.181  1.00 19.37 LIG-0.37  N 
ATOM     24 22HD ASN I   3       2.175   1.634   9.789  1.00 19.37 LIG 0.16  HD
ATOM     25 21HD ASN I   3       0.730   1.988   9.754  1.00 19.37 LIG 0.16  HD
ATOM     26 OD1  ASN I   3       0.512   2.760  11.966  1.00 22.58 LIG-0.27  OA
ENDBRANCH 21 22
ENDBRANCH 5 21
ENDBRANCH 3 5
BRANCH 1 27
ATOM     27  CA  LEU I   2       3.948  -1.719  13.748  1.00 19.34 LIG 0.18  C 
BRANCH 27 28
ATOM     28  N   LEU I   2       5.334  -1.502  14.095  1.00 20.62 LIG-0.35  N 
ATOM     29 H    LEU I   2       5.504  -0.770  14.514  1.00 20.62 LIG 0.16  HD
ATOM     30  C   SER I   1       6.233  -2.420  13.756  1.00 28.29 LIG 0.24  C 
ATOM     31 O    SER I   1       5.935  -3.430  13.079  1.00 21.19 LIG-0.27  OA
BRANCH 30 32
ATOM     32  CA  SER I   1       7.628  -2.164  14.315  1.00 32.71 LIG 0.20  C 
BRANCH 32 33
ATOM     33  CB  SER I   1       7.751  -2.946  15.591  1.00 35.86 LIG 0.20  C 
BRANCH 33 34
ATOM     34 OG   SER I   1       7.127  -2.020  16.437  1.00 39.84 LIG-0.40  OA
ATOM     35 HG   SER I   1       7.638  -1.365  16.559  1.00 39.84 LIG 0.21  HD
ENDBRANCH 33 34
ENDBRANCH 32 33
BRANCH 32 36
ATOM     36  N   SER I   1       7.615  -0.716  14.496  1.00 41.50 LIG-0.35  N 
ATOM     37  C   ACE I   0       7.457   0.280  13.602  1.00 42.61 LIG 0.21  C 
ATOM     38 O    ACE I   0       7.211   0.155  12.401  0.00 41.61 LIG-0.27  OA
ATOM     39  CH3 ACE I   0       7.549   1.662  14.228  0.00 41.50 LIG 0.12  C 
ATOM     40 H    SER I   1       7.731  -0.522  15.325  1.00 41.50 LIG 0.16  HD
ENDBRANCH 32 36
ENDBRANCH 30 32
ENDBRANCH 27 28
BRANCH 27 41
ATOM     41  CB  LEU I   2       3.036  -1.268  14.837  1.00 22.58 LIG 0.04  C 
BRANCH 41 42
ATOM     42  CG  LEU I   2       2.734  -2.428  15.793  1.00 27.49 LIG-0.02  C 
ATOM     43  CD2 LEU I   2       3.891  -2.644  16.782  1.00 25.10 LIG 0.01  C 
ATOM     44  CD1 LEU I   2       2.424  -3.650  14.957  1.00 31.16 LIG 0.01  C 
ENDBRANCH 41 42
ENDBRANCH 27 41
ENDBRANCH 1 27
TORSDOF 16
ENDMDL
MODEL 45
USER: ADFR SOLUTION from run 11
USER: SCORE 15.428019 LL:  -3.678 LR: -12.737 RR:   0.000 FEB:  -7.965
USER: RMSD 5.465878
USER: SEED 120909
USER: STATUS no improvement in best in 12 clusters for 5 generations
USER: GENES 18
USER: genes 0 Translation |==|  0.44253 0.49024 0.48423
USER: genes 1 Rotation |==|  0.45451 0.86639 0.52202 0.83645
USER: genes 2 Torsion [C]-N--CA-[C] |==|  0.75000
USER: genes 3 Torsion [N]-CA--C-[N] |==|  0.19981
USER: genes 4 Torsion [C]-N--CA-[C] |==|  0.53201
USER: genes 5 Torsion [N]-CA--C-[O] |==|  0.78494
USER: genes 6 Torsion [N]-CA--CB-[CG] |==|  0.67953
USER: genes 7 Torsion [CA]-CB--CG-[CD1] |==|  0.29385
USER: genes 8 Torsion [N]-CA--CB-[CG] |==|  0.84296
USER: genes 9 Torsion [CA]-CB--CG-[OD1] |==|  0.38944
USER: genes 10 Torsion [N]-C--CA-[N] |==|  0.62832
USER: genes 11 Torsion [C]-CA--N-[C] |==|  0.16514
USER: genes 12 Torsion [N]-C--CA-[N] |==|  0.00346
USER: genes 13 Torsion [C]-CA--CB-[OG] |==|  0.69672
USER: genes 14 Torsion [CA]-CB--OG-[HG] |==|  0.24069
USER: genes 15 Torsion [C]-CA--N-[C] |==|  0.67805
USER: genes 16 Torsion [C]-CA--CB-[CG] |==|  0.29833
USER: genes 17 Torsion [CA]-CB--CG-[CD2] |==|  0.01886
ROOT
ATOM      1  C   LEU I   2       2.897   3.342  10.147  1.00 17.40 LIG 0.24  C 
ATOM      2 O    LEU I   2       3.505   4.385  10.290  1.00 17.46 LIG-0.27  OA
ATOM      3  N   ASN I   3       3.445   2.143  10.224  1.00 16.24 LIG-0.35  N 
ATOM      4 H    ASN I   3       3.026   1.413  10.045  1.00 16.24 LIG 0.16  HD
ENDROOT
BRANCH 3 5
ATOM      5  CA  ASN I   3       4.815   1.956  10.623  1.00 15.86 LIG 0.18  C 
BRANCH 5 6
ATOM      6  C   ASN I   3       5.709   1.990   9.400  1.00 15.05 LIG 0.24  C 
ATOM      7  N   PHE I   4       5.859   3.201   8.848  1.00 14.49 LIG-0.34  N 
ATOM      8 H    PHE I   4       5.472   3.909   9.145  1.00 14.49 LIG 0.16  HD
ATOM      9 O    ASN I   3       6.221   0.928   8.967  1.00 16.10 LIG-0.27  OA
BRANCH 7 10
ATOM     10  CA  PHE I   4       6.703   3.430   7.678  1.00 12.92 LIG 0.19  C 
BRANCH 10 11
ATOM     11  C   PHE I   4       6.877   4.916   7.491  1.00 14.32 LIG 0.20  C 
ATOM     12 OXT  PHE I   4       7.972   5.396   7.744  1.00 16.91 LIG-0.65  OA
ATOM     13 O    PHE I   4       5.977   5.598   6.997  1.00 15.04 LIG-0.65  OA
ENDBRANCH 10 11
BRANCH 10 14
ATOM     14  CB  PHE I   4       6.058   2.811   6.450  1.00 13.46 LIG 0.07  C 
BRANCH 14 15
ATOM     15  CG  PHE I   4       6.910   1.690   5.910  1.00 17.43 LIG-0.06  A 
ATOM     16  CD1 PHE I   4       6.509   0.361   6.105  1.00 19.70 LIG 0.01  A 
ATOM     17  CE1 PHE I   4       7.277  -0.669   5.591  1.00 18.46 LIG 0.00  A 
ATOM     18  CZ  PHE I   4       8.439  -0.381   4.886  1.00 20.27 LIG 0.00  A 
ATOM     19  CE2 PHE I   4       8.846   0.936   4.686  1.00 19.92 LIG 0.00  A 
ATOM     20  CD2 PHE I   4       8.082   1.984   5.201  1.00 19.48 LIG 0.01  A 
ENDBRANCH 14 15
ENDBRANCH 10 14
ENDBRANCH 7 10
ENDBRANCH 5 6
BRANCH 5 21
ATOM     21  CB  ASN I   3       4.924   0.618  11.336  1.00 15.02 LIG 0.14  C 
BRANCH 21 22
ATOM     22  CG  ASN I   3       3.952   0.592  12.513  1.00 21.09 LIG 0.22  C 
ATOM     23  ND2 ASN I   3       3.878   1.633  13.328  1.00 19.37 LIG-0.37  N 
ATOM     24 22HD ASN I   3       4.321   2.349  13.152  1.00 19.37 LIG 0.16  HD
ATOM     25 21HD ASN I   3       3.387   1.594  14.032  1.00 19.37 LIG 0.16  HD
ATOM     26 OD1  ASN I   3       3.302  -0.410  12.802  1.00 22.58 LIG-0.27  OA
ENDBRANCH 21 22
ENDBRANCH 5 21
ENDBRANCH 3 5
BRANCH 1 27
ATOM     27  CA  LEU I   2       1.441   3.398   9.931  1.00 19.34 LIG 0.18  C 
BRANCH 27 28
ATOM     28  N   LEU I   2       1.263   4.382   8.888  1.00 20.62 LIG-0.35  N 
ATOM     29 H    LEU I   2       0.778   5.062   9.094  1.00 20.62 LIG 0.16  HD
ATOM     30  C   SER I   1       1.843   4.182   7.709  1.00 28.29 LIG 0.24  C 
ATOM     31 O    SER I   1       2.475   3.135   7.444  1.00 21.19 LIG-0.27  OA
BRANCH 30 32
ATOM     32  CA  SER I   1       1.721   5.357   6.745  1.00 32.71 LIG 0.20  C 
BRANCH 32 33
ATOM     33  CB  SER I   1       3.114   5.782   6.378  1.00 35.86 LIG 0.20  C 
BRANCH 33 34
ATOM     34 OG   SER I   1       3.129   6.994   7.078  1.00 39.84 LIG-0.40  OA
ATOM     35 HG   SER I   1       3.371   6.856   7.871  1.00 39.84 LIG 0.21  HD
ENDBRANCH 33 34
ENDBRANCH 32 33
BRANCH 32 36
ATOM     36  N   SER I   1       0.990   6.328   7.552  1.00 41.50 LIG-0.35  N 
ATOM     37  C   ACE I   0      -0.235   6.864   7.385  1.00 42.61 LIG 0.21  C 
ATOM     38 O    ACE I   0      -1.050   6.572   6.508  0.00 41.61 LIG-0.27  OA
ATOM     39  CH3 ACE I   0      -0.593   7.879   8.460  0.00 41.50 LIG 0.12  C 
ATOM     40 H    SER I   1       1.463   6.563   8.231  1.00 41.50 LIG 0.16  HD
ENDBRANCH 32 36
ENDBRANCH 30 32
ENDBRANCH 27 28
BRANCH 27 41
ATOM     41  CB  LEU I   2       0.938   2.060   9.510  1.00 22.58 LIG 0.04  C 
BRANCH 41 42
ATOM     42  CG  LEU I   2       0.152   1.403  10.650  1.00 27.49 LIG-0.02  C 
ATOM     43  CD2 LEU I   2      -0.033   2.375  11.827  1.00 25.10 LIG 0.01  C 
ATOM     44  CD1 LEU I   2       0.870   0.127  11.034  1.00 31.16 LIG 0.01  C 
ENDBRANCH 41 42
ENDBRANCH 27 41
ENDBRANCH 1 27
TORSDOF 16
ENDMDL
MODEL 46
USER: ADFR SOLUTION from run 72
USER: SCORE 15.123322 LL:  -3.955 LR: -12.743 RR:   0.000 FEB:  -7.970
USER: RMSD 7.728561
USER: SEED 71
USER: STATUS no improvement in best in 11 clusters for 5 generations
USER: GENES 18
USER: genes 0 Translation |==|  0.45485 0.45996 0.54965
USER: genes 1 Rotation |==|  0.20166 0.83129 0.62313 0.68994
USER: genes 2 Torsion [C]-N--CA-[C] |==|  0.73013
USER: genes 3 Torsion [N]-CA--C-[N] |==|  0.03846
USER: genes 4 Torsion [C]-N--CA-[C] |==|  0.61812
USER: genes 5 Torsion [N]-CA--C-[O] |==|  0.48861
USER: genes 6 Torsion [N]-CA--CB-[CG] |==|  0.95262
USER: genes 7 Torsion [CA]-CB--CG-[CD1] |==|  0.73417
USER: genes 8 Torsion [N]-CA--CB-[CG] |==|  0.62517
USER: genes 9 Torsion [CA]-CB--CG-[OD1] |==|  0.62111
USER: genes 10 Torsion [N]-C--CA-[N] |==|  0.11463
USER: genes 11 Torsion [C]-CA--N-[C] |==|  0.64673
USER: genes 12 Torsion [N]-C--CA-[N] |==|  0.31505
USER: genes 13 Torsion [C]-CA--CB-[OG] |==|  0.31743
USER: genes 14 Torsion [CA]-CB--OG-[HG] |==|  0.25707
USER: genes 15 Torsion [C]-CA--N-[C] |==|  0.17226
USER: genes 16 Torsion [C]-CA--CB-[CG] |==|  0.32116
USER: genes 17 Torsion [CA]-CB--CG-[CD2] |==|  0.00110
ROOT
ATOM      1  C   LEU I   2       3.109   2.819  11.471  1.00 17.40 LIG 0.24  C 
ATOM      2 O    LEU I   2       2.395   3.736  11.112  1.00 17.46 LIG-0.27  OA
ATOM      3  N   ASN I   3       4.428   2.862  11.479  1.00 16.24 LIG-0.35  N 
ATOM      4 H    ASN I   3       4.928   2.185  11.660  1.00 16.24 LIG 0.16  HD
ENDROOT
BRANCH 3 5
ATOM      5  CA  ASN I   3       5.154   4.068  11.180  1.00 15.86 LIG 0.18  C 
BRANCH 5 6
ATOM      6  C   ASN I   3       5.583   4.056   9.727  1.00 15.05 LIG 0.24  C 
ATOM      7  N   PHE I   4       4.980   3.128   8.971  1.00 14.49 LIG-0.34  N 
ATOM      8 H    PHE I   4       4.404   2.568   9.278  1.00 14.49 LIG 0.16  HD
ATOM      9 O    ASN I   3       6.460   4.859   9.325  1.00 16.10 LIG-0.27  OA
BRANCH 7 10
ATOM     10  CA  PHE I   4       5.250   2.983   7.544  1.00 12.92 LIG 0.19  C 
BRANCH 10 11
ATOM     11  C   PHE I   4       3.944   2.761   6.825  1.00 14.32 LIG 0.20  C 
ATOM     12 OXT  PHE I   4       2.920   2.767   7.492  1.00 16.91 LIG-0.65  OA
ATOM     13 O    PHE I   4       3.907   2.684   5.595  1.00 15.04 LIG-0.65  OA
ENDBRANCH 10 11
BRANCH 10 14
ATOM     14  CB  PHE I   4       6.190   1.813   7.314  1.00 13.46 LIG 0.07  C 
BRANCH 14 15
ATOM     15  CG  PHE I   4       6.880   1.425   8.598  1.00 17.43 LIG-0.06  A 
ATOM     16  CD1 PHE I   4       8.157   1.932   8.878  1.00 19.70 LIG 0.01  A 
ATOM     17  CE1 PHE I   4       8.782   1.595  10.065  1.00 18.46 LIG 0.00  A 
ATOM     18  CZ  PHE I   4       8.143   0.759  10.972  1.00 20.27 LIG 0.00  A 
ATOM     19  CE2 PHE I   4       6.874   0.250  10.704  1.00 19.92 LIG 0.00  A 
ATOM     20  CD2 PHE I   4       6.233   0.580   9.509  1.00 19.48 LIG 0.01  A 
ENDBRANCH 14 15
ENDBRANCH 10 14
ENDBRANCH 7 10
ENDBRANCH 5 6
BRANCH 5 21
ATOM     21  CB  ASN I   3       6.363   4.138  12.100  1.00 15.02 LIG 0.14  C 
BRANCH 21 22
ATOM     22  CG  ASN I   3       6.482   5.549  12.670  1.00 21.09 LIG 0.22  C 
ATOM     23  ND2 ASN I   3       5.389   6.221  12.995  1.00 19.37 LIG-0.37  N 
ATOM     24 22HD ASN I   3       4.620   5.838  12.954  1.00 19.37 LIG 0.16  HD
ATOM     25 21HD ASN I   3       5.447   7.041  13.246  1.00 19.37 LIG 0.16  HD
ATOM     26 OD1  ASN I   3       7.560   6.135  12.743  1.00 22.58 LIG-0.27  OA
ENDBRANCH 21 22
ENDBRANCH 5 21
ENDBRANCH 3 5
BRANCH 1 27
ATOM     27  CA  LEU I   2       2.477   1.596  11.992  1.00 19.34 LIG 0.18  C 
BRANCH 27 28
ATOM     28  N   LEU I   2       3.252   1.253  13.164  1.00 20.62 LIG-0.35  N 
ATOM     29 H    LEU I   2       3.349   1.880  13.744  1.00 20.62 LIG 0.16  HD
ATOM     30  C   SER I   1       3.751   0.025  13.268  1.00 28.29 LIG 0.24  C 
ATOM     31 O    SER I   1       3.639  -0.822  12.354  1.00 21.19 LIG-0.27  OA
BRANCH 30 32
ATOM     32  CA  SER I   1       4.407  -0.269  14.612  1.00 32.71 LIG 0.20  C 
BRANCH 32 33
ATOM     33  CB  SER I   1       5.798  -0.763  14.334  1.00 35.86 LIG 0.20  C 
BRANCH 33 34
ATOM     34 OG   SER I   1       6.494   0.307  14.909  1.00 39.84 LIG-0.40  OA
ATOM     35 HG   SER I   1       6.669   0.129  15.711  1.00 39.84 LIG 0.21  HD
ENDBRANCH 33 34
ENDBRANCH 32 33
BRANCH 32 36
ATOM     36  N   SER I   1       3.511  -1.279  15.166  1.00 41.50 LIG-0.35  N 
ATOM     37  C   ACE I   0       3.194  -2.511  14.722  1.00 42.61 LIG 0.21  C 
ATOM     38 O    ACE I   0       3.677  -3.084  13.744  0.00 41.61 LIG-0.27  OA
ATOM     39  CH3 ACE I   0       2.175  -3.218  15.602  0.00 41.50 LIG 0.12  C 
ATOM     40 H    SER I   1       3.155  -0.990  15.893  1.00 41.50 LIG 0.16  HD
ENDBRANCH 32 36
ENDBRANCH 30 32
ENDBRANCH 27 28
BRANCH 27 41
ATOM     41  CB  LEU I   2       1.054   1.869  12.342  1.00 22.58 LIG 0.04  C 
BRANCH 41 42
ATOM     42  CG  LEU I   2       0.119   1.049  11.445  1.00 27.49 LIG-0.02  C 
ATOM     43  CD2 LEU I   2       0.918   0.181  10.459  1.00 25.10 LIG 0.01  C 
ATOM     44  CD1 LEU I   2      -0.832   2.010  10.764  1.00 31.16 LIG 0.01  C 
ENDBRANCH 41 42
ENDBRANCH 27 41
ENDBRANCH 1 27
TORSDOF 16
ENDMDL
MODEL 47
USER: ADFR SOLUTION from run 192
USER: SCORE 15.384078 LL:  -3.691 LR: -12.694 RR:   0.000 FEB:  -7.922
USER: RMSD 3.658876
USER: SEED 191
USER: STATUS no improvement in best in 8 clusters for 5 generations
USER: GENES 18
USER: genes 0 Translation |==|  0.43169 0.47691 0.49900
USER: genes 1 Rotation |==|  0.47819 0.49529 0.52231 0.99900
USER: genes 2 Torsion [C]-N--CA-[C] |==|  0.62688
USER: genes 3 Torsion [N]-CA--C-[N] |==|  0.97222
USER: genes 4 Torsion [C]-N--CA-[C] |==|  0.56608
USER: genes 5 Torsion [N]-CA--C-[O] |==|  0.49014
USER: genes 6 Torsion [N]-CA--CB-[CG] |==|  0.74621
USER: genes 7 Torsion [CA]-CB--CG-[CD1] |==|  0.90723
USER: genes 8 Torsion [N]-CA--CB-[CG] |==|  0.78327
USER: genes 9 Torsion [CA]-CB--CG-[OD1] |==|  0.78787
USER: genes 10 Torsion [N]-C--CA-[N] |==|  0.30082
USER: genes 11 Torsion [C]-CA--N-[C] |==|  0.55437
USER: genes 12 Torsion [N]-C--CA-[N] |==|  0.10358
USER: genes 13 Torsion [C]-CA--CB-[OG] |==|  0.46946
USER: genes 14 Torsion [CA]-CB--OG-[HG] |==|  0.71785
USER: genes 15 Torsion [C]-CA--N-[C] |==|  0.17201
USER: genes 16 Torsion [C]-CA--CB-[CG] |==|  0.23245
USER: genes 17 Torsion [CA]-CB--CG-[CD2] |==|  0.07958
ROOT
ATOM      1  C   LEU I   2       2.710   3.112  10.446  1.00 17.40 LIG 0.24  C 
ATOM      2 O    LEU I   2       2.347   4.045  11.137  1.00 17.46 LIG-0.27  OA
ATOM      3  N   ASN I   3       2.785   1.861  10.862  1.00 16.24 LIG-0.35  N 
ATOM      4 H    ASN I   3       3.116   1.220  10.393  1.00 16.24 LIG 0.16  HD
ENDROOT
BRANCH 3 5
ATOM      5  CA  ASN I   3       2.311   1.460  12.160  1.00 15.86 LIG 0.18  C 
BRANCH 5 6
ATOM      6  C   ASN I   3       3.338   0.566  12.823  1.00 15.05 LIG 0.24  C 
ATOM      7  N   PHE I   4       4.335   0.167  12.022  1.00 14.49 LIG-0.34  N 
ATOM      8 H    PHE I   4       4.392   0.383  11.191  1.00 14.49 LIG 0.16  HD
ATOM      9 O    ASN I   3       3.200   0.234  14.026  1.00 16.10 LIG-0.27  OA
BRANCH 7 10
ATOM     10  CA  PHE I   4       5.428  -0.679  12.492  1.00 12.92 LIG 0.19  C 
BRANCH 10 11
ATOM     11  C   PHE I   4       6.623  -0.469  11.596  1.00 14.32 LIG 0.20  C 
ATOM     12 OXT  PHE I   4       6.522   0.354  10.698  1.00 16.91 LIG-0.65  OA
ATOM     13 O    PHE I   4       7.694  -1.030  11.834  1.00 15.04 LIG-0.65  OA
ENDBRANCH 10 11
BRANCH 10 14
ATOM     14  CB  PHE I   4       4.997  -2.135  12.471  1.00 13.46 LIG 0.07  C 
BRANCH 14 15
ATOM     15  CG  PHE I   4       4.401  -2.533  13.798  1.00 17.43 LIG-0.06  A 
ATOM     16  CD1 PHE I   4       4.893  -1.956  14.978  1.00 19.70 LIG 0.01  A 
ATOM     17  CE1 PHE I   4       4.333  -2.302  16.194  1.00 18.46 LIG 0.00  A 
ATOM     18  CZ  PHE I   4       3.288  -3.217  16.241  1.00 20.27 LIG 0.00  A 
ATOM     19  CE2 PHE I   4       2.792  -3.796  15.075  1.00 19.92 LIG 0.00  A 
ATOM     20  CD2 PHE I   4       3.349  -3.457  13.841  1.00 19.48 LIG 0.01  A 
ENDBRANCH 14 15
ENDBRANCH 10 14
ENDBRANCH 7 10
ENDBRANCH 5 6
BRANCH 5 21
ATOM     21  CB  ASN I   3       0.991   0.726  11.979  1.00 15.02 LIG 0.14  C 
BRANCH 21 22
ATOM     22  CG  ASN I   3      -0.124   1.742  11.746  1.00 21.09 LIG 0.22  C 
ATOM     23  ND2 ASN I   3      -0.520   2.011  10.511  1.00 19.37 LIG-0.37  N 
ATOM     24 22HD ASN I   3      -0.204   1.562   9.850  1.00 19.37 LIG 0.16  HD
ATOM     25 21HD ASN I   3      -1.095   2.635  10.370  1.00 19.37 LIG 0.16  HD
ATOM     26 OD1  ASN I   3      -0.602   2.409  12.660  1.00 22.58 LIG-0.27  OA
ENDBRANCH 21 22
ENDBRANCH 5 21
ENDBRANCH 3 5
BRANCH 1 27
ATOM     27  CA  LEU I   2       3.032   3.366   9.032  1.00 19.34 LIG 0.18  C 
BRANCH 27 28
ATOM     28  N   LEU I   2       1.761   3.672   8.415  1.00 20.62 LIG-0.35  N 
ATOM     29 H    LEU I   2       1.134   3.914   8.952  1.00 20.62 LIG 0.16  HD
ATOM     30  C   SER I   1       1.644   3.566   7.096  1.00 28.29 LIG 0.24  C 
ATOM     31 O    SER I   1       2.572   3.136   6.374  1.00 21.19 LIG-0.27  OA
BRANCH 30 32
ATOM     32  CA  SER I   1       0.314   4.069   6.544  1.00 32.71 LIG 0.20  C 
BRANCH 32 33
ATOM     33  CB  SER I   1       0.526   4.401   5.095  1.00 35.86 LIG 0.20  C 
BRANCH 33 34
ATOM     34 OG   SER I   1      -0.818   4.571   4.745  1.00 39.84 LIG-0.40  OA
ATOM     35 HG   SER I   1      -1.093   3.885   4.345  1.00 39.84 LIG 0.21  HD
ENDBRANCH 33 34
ENDBRANCH 32 33
BRANCH 32 36
ATOM     36  N   SER I   1       0.058   5.226   7.395  1.00 41.50 LIG-0.35  N 
ATOM     37  C   ACE I   0       0.756   6.367   7.560  1.00 42.61 LIG 0.21  C 
ATOM     38 O    ACE I   0       1.766   6.705   6.940  0.00 41.61 LIG-0.27  OA
ATOM     39  CH3 ACE I   0       0.138   7.300   8.589  0.00 41.50 LIG 0.12  C 
ATOM     40 H    SER I   1      -0.667   5.109   7.841  1.00 41.50 LIG 0.16  HD
ENDBRANCH 32 36
ENDBRANCH 30 32
ENDBRANCH 27 28
BRANCH 27 41
ATOM     41  CB  LEU I   2       3.979   4.511   8.925  1.00 22.58 LIG 0.04  C 
BRANCH 41 42
ATOM     42  CG  LEU I   2       5.421   4.032   9.134  1.00 27.49 LIG-0.02  C 
ATOM     43  CD2 LEU I   2       5.586   2.569   8.693  1.00 25.10 LIG 0.01  C 
ATOM     44  CD1 LEU I   2       5.782   4.265  10.585  1.00 31.16 LIG 0.01  C 
ENDBRANCH 41 42
ENDBRANCH 27 41
ENDBRANCH 1 27
TORSDOF 16
ENDMDL
MODEL 48
USER: ADFR SOLUTION from run 87
USER: SCORE 15.355541 LL:  -3.109 LR: -12.686 RR:   0.000 FEB:  -7.913
USER: RMSD 8.616773
USER: SEED 86
USER: STATUS no improvement in best in 6 clusters for 5 generations
USER: GENES 18
USER: genes 0 Translation |==|  0.55955 0.34447 0.59964
USER: genes 1 Rotation |==|  0.97343 0.62198 0.39571 0.51022
USER: genes 2 Torsion [C]-N--CA-[C] |==|  0.64384
USER: genes 3 Torsion [N]-CA--C-[N] |==|  0.29249
USER: genes 4 Torsion [C]-N--CA-[C] |==|  0.21624
USER: genes 5 Torsion [N]-CA--C-[O] |==|  0.94643
USER: genes 6 Torsion [N]-CA--CB-[CG] |==|  0.69685
USER: genes 7 Torsion [CA]-CB--CG-[CD1] |==|  0.45659
USER: genes 8 Torsion [N]-CA--CB-[CG] |==|  0.53016
USER: genes 9 Torsion [CA]-CB--CG-[OD1] |==|  0.26216
USER: genes 10 Torsion [N]-C--CA-[N] |==|  0.35707
USER: genes 11 Torsion [C]-CA--N-[C] |==|  0.81305
USER: genes 12 Torsion [N]-C--CA-[N] |==|  0.89651
USER: genes 13 Torsion [C]-CA--CB-[OG] |==|  0.79863
USER: genes 14 Torsion [CA]-CB--OG-[HG] |==|  0.31745
USER: genes 15 Torsion [C]-CA--N-[C] |==|  0.78889
USER: genes 16 Torsion [C]-CA--CB-[CG] |==|  0.83450
USER: genes 17 Torsion [CA]-CB--CG-[CD2] |==|  0.75911
ROOT
ATOM      1  C   LEU I   2       4.915   0.827  12.484  1.00 17.40 LIG 0.24  C 
ATOM      2 O    LEU I   2       4.826  -0.193  11.826  1.00 17.46 LIG-0.27  OA
ATOM      3  N   ASN I   3       4.169   1.900  12.299  1.00 16.24 LIG-0.35  N 
ATOM      4 H    ASN I   3       4.290   2.644  12.714  1.00 16.24 LIG 0.16  HD
ENDROOT
BRANCH 3 5
ATOM      5  CA  ASN I   3       3.071   1.914  11.369  1.00 15.86 LIG 0.18  C 
BRANCH 5 6
ATOM      6  C   ASN I   3       3.208   3.102  10.438  1.00 15.05 LIG 0.24  C 
ATOM      7  N   PHE I   4       3.612   2.798   9.197  1.00 14.49 LIG-0.34  N 
ATOM      8 H    PHE I   4       3.797   1.998   8.941  1.00 14.49 LIG 0.16  HD
ATOM      9 O    ASN I   3       2.973   4.260  10.860  1.00 16.10 LIG-0.27  OA
BRANCH 7 10
ATOM     10  CA  PHE I   4       3.777   3.809   8.158  1.00 12.92 LIG 0.19  C 
BRANCH 10 11
ATOM     11  C   PHE I   4       5.075   4.540   8.395  1.00 14.32 LIG 0.20  C 
ATOM     12 OXT  PHE I   4       5.505   5.243   7.493  1.00 16.91 LIG-0.65  OA
ATOM     13 O    PHE I   4       5.621   4.510   9.500  1.00 15.04 LIG-0.65  OA
ENDBRANCH 10 11
BRANCH 10 14
ATOM     14  CB  PHE I   4       2.608   4.778   8.191  1.00 13.46 LIG 0.07  C 
BRANCH 14 15
ATOM     15  CG  PHE I   4       1.717   4.578   6.991  1.00 17.43 LIG-0.06  A 
ATOM     16  CD1 PHE I   4       0.427   5.126   6.989  1.00 19.70 LIG 0.01  A 
ATOM     17  CE1 PHE I   4      -0.384   4.964   5.880  1.00 18.46 LIG 0.00  A 
ATOM     18  CZ  PHE I   4       0.083   4.260   4.777  1.00 20.27 LIG 0.00  A 
ATOM     19  CE2 PHE I   4       1.364   3.712   4.769  1.00 19.92 LIG 0.00  A 
ATOM     20  CD2 PHE I   4       2.192   3.867   5.881  1.00 19.48 LIG 0.01  A 
ENDBRANCH 14 15
ENDBRANCH 10 14
ENDBRANCH 7 10
ENDBRANCH 5 6
BRANCH 5 21
ATOM     21  CB  ASN I   3       1.776   1.996  12.163  1.00 15.02 LIG 0.14  C 
BRANCH 21 22
ATOM     22  CG  ASN I   3       0.595   1.741  11.229  1.00 21.09 LIG 0.22  C 
ATOM     23  ND2 ASN I   3       0.001   2.760  10.628  1.00 19.37 LIG-0.37  N 
ATOM     24 22HD ASN I   3       0.324   3.553  10.705  1.00 19.37 LIG 0.16  HD
ATOM     25 21HD ASN I   3      -0.709   2.629  10.161  1.00 19.37 LIG 0.16  HD
ATOM     26 OD1  ASN I   3       0.099   0.625  11.092  1.00 22.58 LIG-0.27  OA
ENDBRANCH 21 22
ENDBRANCH 5 21
ENDBRANCH 3 5
BRANCH 1 27
ATOM     27  CA  LEU I   2       5.872   0.863  13.602  1.00 19.34 LIG 0.18  C 
BRANCH 27 28
ATOM     28  N   LEU I   2       5.612  -0.349  14.346  1.00 20.62 LIG-0.35  N 
ATOM     29 H    LEU I   2       6.240  -0.937  14.333  1.00 20.62 LIG 0.16  HD
ATOM     30  C   SER I   1       4.453  -0.476  14.984  1.00 28.29 LIG 0.24  C 
ATOM     31 O    SER I   1       3.547   0.383  14.903  1.00 21.19 LIG-0.27  OA
BRANCH 30 32
ATOM     32  CA  SER I   1       4.358  -1.719  15.863  1.00 32.71 LIG 0.20  C 
BRANCH 32 33
ATOM     33  CB  SER I   1       5.013  -1.392  17.175  1.00 35.86 LIG 0.20  C 
BRANCH 33 34
ATOM     34 OG   SER I   1       6.339  -1.391  16.725  1.00 39.84 LIG-0.40  OA
ATOM     35 HG   SER I   1       6.655  -0.615  16.786  1.00 39.84 LIG 0.21  HD
ENDBRANCH 33 34
ENDBRANCH 32 33
BRANCH 32 36
ATOM     36  N   SER I   1       5.075  -2.705  15.063  1.00 41.50 LIG-0.35  N 
ATOM     37  C   ACE I   0       4.701  -3.381  13.958  1.00 42.61 LIG 0.21  C 
ATOM     38 O    ACE I   0       3.648  -3.240  13.335  0.00 41.61 LIG-0.27  OA
ATOM     39  CH3 ACE I   0       5.763  -4.352  13.466  0.00 41.50 LIG 0.12  C 
ATOM     40 H    SER I   1       5.858  -2.840  15.393  1.00 41.50 LIG 0.16  HD
ENDBRANCH 32 36
ENDBRANCH 30 32
ENDBRANCH 27 28
BRANCH 27 41
ATOM     41  CB  LEU I   2       7.266   0.891  13.077  1.00 22.58 LIG 0.04  C 
BRANCH 41 42
ATOM     42  CG  LEU I   2       7.538  -0.352  12.222  1.00 27.49 LIG-0.02  C 
ATOM     43  CD2 LEU I   2       8.013  -1.528  13.091  1.00 25.10 LIG 0.01  C 
ATOM     44  CD1 LEU I   2       8.528   0.034  11.143  1.00 31.16 LIG 0.01  C 
ENDBRANCH 41 42
ENDBRANCH 27 41
ENDBRANCH 1 27
TORSDOF 16
ENDMDL
MODEL 49
USER: ADFR SOLUTION from run 94
USER: SCORE 15.744662 LL:  -3.556 LR: -12.667 RR:   0.000 FEB:  -7.895
USER: RMSD 5.743045
USER: SEED 93
USER: STATUS no improvement in best in 8 clusters for 5 generations
USER: GENES 18
USER: genes 0 Translation |==|  0.57911 0.33968 0.55824
USER: genes 1 Rotation |==|  0.32306 0.86659 0.23096 0.60921
USER: genes 2 Torsion [C]-N--CA-[C] |==|  0.68663
USER: genes 3 Torsion [N]-CA--C-[N] |==|  0.03589
USER: genes 4 Torsion [C]-N--CA-[C] |==|  0.48084
USER: genes 5 Torsion [N]-CA--C-[O] |==|  0.57735
USER: genes 6 Torsion [N]-CA--CB-[CG] |==|  0.21309
USER: genes 7 Torsion [CA]-CB--CG-[CD1] |==|  0.81063
USER: genes 8 Torsion [N]-CA--CB-[CG] |==|  0.79390
USER: genes 9 Torsion [CA]-CB--CG-[OD1] |==|  0.71996
USER: genes 10 Torsion [N]-C--CA-[N] |==|  0.46208
USER: genes 11 Torsion [C]-CA--N-[C] |==|  0.62172
USER: genes 12 Torsion [N]-C--CA-[N] |==|  0.91288
USER: genes 13 Torsion [C]-CA--CB-[OG] |==|  0.68915
USER: genes 14 Torsion [CA]-CB--OG-[HG] |==|  0.23786
USER: genes 15 Torsion [C]-CA--N-[C] |==|  0.71004
USER: genes 16 Torsion [C]-CA--CB-[CG] |==|  0.60263
USER: genes 17 Torsion [CA]-CB--CG-[CD2] |==|  0.65905
ROOT
ATOM      1  C   LEU I   2       5.253   0.745  11.645  1.00 17.40 LIG 0.24  C 
ATOM      2 O    LEU I   2       5.717   0.606  10.530  1.00 17.46 LIG-0.27  OA
ATOM      3  N   ASN I   3       5.851   0.356  12.756  1.00 16.24 LIG-0.35  N 
ATOM      4 H    ASN I   3       5.483   0.386  13.533  1.00 16.24 LIG 0.16  HD
ENDROOT
BRANCH 3 5
ATOM      5  CA  ASN I   3       7.194  -0.161  12.757  1.00 15.86 LIG 0.18  C 
BRANCH 5 6
ATOM      6  C   ASN I   3       7.174  -1.629  13.131  1.00 15.05 LIG 0.24  C 
ATOM      7  N   PHE I   4       5.961  -2.197  13.111  1.00 14.49 LIG-0.34  N 
ATOM      8 H    PHE I   4       5.240  -1.769  12.917  1.00 14.49 LIG 0.16  HD
ATOM      9 O    ASN I   3       8.240  -2.209  13.453  1.00 16.10 LIG-0.27  OA
BRANCH 7 10
ATOM     10  CA  PHE I   4       5.751  -3.608  13.421  1.00 12.92 LIG 0.19  C 
BRANCH 10 11
ATOM     11  C   PHE I   4       4.267  -3.876  13.473  1.00 14.32 LIG 0.20  C 
ATOM     12 OXT  PHE I   4       3.549  -3.240  12.716  1.00 16.91 LIG-0.65  OA
ATOM     13 O    PHE I   4       3.815  -4.781  14.177  1.00 15.04 LIG-0.65  OA
ENDBRANCH 10 11
BRANCH 10 14
ATOM     14  CB  PHE I   4       6.399  -3.944  14.753  1.00 13.46 LIG 0.07  C 
BRANCH 14 15
ATOM     15  CG  PHE I   4       5.557  -3.438  15.897  1.00 17.43 LIG-0.06  A 
ATOM     16  CD1 PHE I   4       5.428  -2.057  16.103  1.00 19.70 LIG 0.01  A 
ATOM     17  CE1 PHE I   4       4.638  -1.590  17.138  1.00 18.46 LIG 0.00  A 
ATOM     18  CZ  PHE I   4       3.978  -2.490  17.966  1.00 20.27 LIG 0.00  A 
ATOM     19  CE2 PHE I   4       4.099  -3.864  17.770  1.00 19.92 LIG 0.00  A 
ATOM     20  CD2 PHE I   4       4.894  -4.348  16.731  1.00 19.48 LIG 0.01  A 
ENDBRANCH 14 15
ENDBRANCH 10 14
ENDBRANCH 7 10
ENDBRANCH 5 6
BRANCH 5 21
ATOM     21  CB  ASN I   3       8.012   0.641  13.757  1.00 15.02 LIG 0.14  C 
BRANCH 21 22
ATOM     22  CG  ASN I   3       8.313   2.019  13.173  1.00 21.09 LIG 0.22  C 
ATOM     23  ND2 ASN I   3       7.348   2.923  13.091  1.00 19.37 LIG-0.37  N 
ATOM     24 22HD ASN I   3       6.576   2.760  13.432  1.00 19.37 LIG 0.16  HD
ATOM     25 21HD ASN I   3       7.494   3.673  12.697  1.00 19.37 LIG 0.16  HD
ATOM     26 OD1  ASN I   3       9.400   2.294  12.672  1.00 22.58 LIG-0.27  OA
ENDBRANCH 21 22
ENDBRANCH 5 21
ENDBRANCH 3 5
BRANCH 1 27
ATOM     27  CA  LEU I   2       3.965   1.445  11.790  1.00 19.34 LIG 0.18  C 
BRANCH 27 28
ATOM     28  N   LEU I   2       3.717   2.028  10.491  1.00 20.62 LIG-0.35  N 
ATOM     29 H    LEU I   2       3.874   1.518   9.817  1.00 20.62 LIG 0.16  HD
ATOM     30  C   SER I   1       3.275   3.280  10.422  1.00 28.29 LIG 0.24  C 
ATOM     31 O    SER I   1       3.138   3.998  11.438  1.00 21.19 LIG-0.27  OA
BRANCH 30 32
ATOM     32  CA  SER I   1       2.895   3.731   9.016  1.00 32.71 LIG 0.20  C 
BRANCH 32 33
ATOM     33  CB  SER I   1       1.450   3.380   8.807  1.00 35.86 LIG 0.20  C 
BRANCH 33 34
ATOM     34 OG   SER I   1       1.638   2.385   7.841  1.00 39.84 LIG-0.40  OA
ATOM     35 HG   SER I   1       1.785   1.650   8.221  1.00 39.84 LIG 0.21  HD
ENDBRANCH 33 34
ENDBRANCH 32 33
BRANCH 32 36
ATOM     36  N   SER I   1       3.825   2.962   8.196  1.00 41.50 LIG-0.35  N 
ATOM     37  C   ACE I   0       4.946   3.338   7.550  1.00 42.61 LIG 0.21  C 
ATOM     38 O    ACE I   0       5.472   4.452   7.584  0.00 41.61 LIG-0.27  OA
ATOM     39  CH3 ACE I   0       5.595   2.204   6.773  0.00 41.50 LIG 0.12  C 
ATOM     40 H    SER I   1       3.569   2.142   8.150  1.00 41.50 LIG 0.16  HD
ENDBRANCH 32 36
ENDBRANCH 30 32
ENDBRANCH 27 28
BRANCH 27 41
ATOM     41  CB  LEU I   2       2.899   0.473  12.163  1.00 22.58 LIG 0.04  C 
BRANCH 41 42
ATOM     42  CG  LEU I   2       1.578   0.842  11.476  1.00 27.49 LIG-0.02  C 
ATOM     43  CD2 LEU I   2       0.459   1.056  12.508  1.00 25.10 LIG 0.01  C 
ATOM     44  CD1 LEU I   2       1.263  -0.240  10.466  1.00 31.16 LIG 0.01  C 
ENDBRANCH 41 42
ENDBRANCH 27 41
ENDBRANCH 1 27
TORSDOF 16
ENDMDL
MODEL 50
USER: ADFR SOLUTION from run 89
USER: SCORE 15.439581 LL:  -3.875 LR: -12.642 RR:   0.000 FEB:  -7.870
USER: RMSD 6.260469
USER: SEED 88
USER: STATUS no improvement in best in 14 clusters for 5 generations
USER: GENES 18
USER: genes 0 Translation |==|  0.51055 0.52198 0.47644
USER: genes 1 Rotation |==|  0.47526 0.01373 0.39629 0.54664
USER: genes 2 Torsion [C]-N--CA-[C] |==|  0.20351
USER: genes 3 Torsion [N]-CA--C-[N] |==|  0.90477
USER: genes 4 Torsion [C]-N--CA-[C] |==|  0.17984
USER: genes 5 Torsion [N]-CA--C-[O] |==|  0.68386
USER: genes 6 Torsion [N]-CA--CB-[CG] |==|  0.82425
USER: genes 7 Torsion [CA]-CB--CG-[CD1] |==|  0.21990
USER: genes 8 Torsion [N]-CA--CB-[CG] |==|  0.82974
USER: genes 9 Torsion [CA]-CB--CG-[OD1] |==|  0.83477
USER: genes 10 Torsion [N]-C--CA-[N] |==|  0.93403
USER: genes 11 Torsion [C]-CA--N-[C] |==|  0.79797
USER: genes 12 Torsion [N]-C--CA-[N] |==|  0.08756
USER: genes 13 Torsion [C]-CA--CB-[OG] |==|  0.88658
USER: genes 14 Torsion [CA]-CB--OG-[HG] |==|  0.57818
USER: genes 15 Torsion [C]-CA--N-[C] |==|  0.70451
USER: genes 16 Torsion [C]-CA--CB-[CG] |==|  0.17241
USER: genes 17 Torsion [CA]-CB--CG-[CD2] |==|  0.56589
ROOT
ATOM      1  C   LEU I   2       4.070   3.889   9.989  1.00 17.40 LIG 0.24  C 
ATOM      2 O    LEU I   2       4.327   5.010   9.592  1.00 17.46 LIG-0.27  OA
ATOM      3  N   ASN I   3       3.878   2.846   9.203  1.00 16.24 LIG-0.35  N 
ATOM      4 H    ASN I   3       3.620   2.075   9.486  1.00 16.24 LIG 0.16  HD
ENDROOT
BRANCH 3 5
ATOM      5  CA  ASN I   3       4.088   2.914   7.781  1.00 15.86 LIG 0.18  C 
BRANCH 5 6
ATOM      6  C   ASN I   3       5.574   2.962   7.489  1.00 15.05 LIG 0.24  C 
ATOM      7  N   PHE I   4       6.304   3.624   8.396  1.00 14.49 LIG-0.34  N 
ATOM      8 H    PHE I   4       5.966   4.009   9.087  1.00 14.49 LIG 0.16  HD
ATOM      9 O    ASN I   3       6.026   2.427   6.447  1.00 16.10 LIG-0.27  OA
BRANCH 7 10
ATOM     10  CA  PHE I   4       7.754   3.753   8.293  1.00 12.92 LIG 0.19  C 
BRANCH 10 11
ATOM     11  C   PHE I   4       8.081   4.563   7.063  1.00 14.32 LIG 0.20  C 
ATOM     12 OXT  PHE I   4       7.840   5.761   7.091  1.00 16.91 LIG-0.65  OA
ATOM     13 O    PHE I   4       8.670   4.050   6.110  1.00 15.04 LIG-0.65  OA
ENDBRANCH 10 11
BRANCH 10 14
ATOM     14  CB  PHE I   4       8.389   2.376   8.207  1.00 13.46 LIG 0.07  C 
BRANCH 14 15
ATOM     15  CG  PHE I   4       8.129   1.591   9.469  1.00 17.43 LIG-0.06  A 
ATOM     16  CD1 PHE I   4       6.884   0.974   9.655  1.00 19.70 LIG 0.01  A 
ATOM     17  CE1 PHE I   4       6.652   0.235  10.801  1.00 18.46 LIG 0.00  A 
ATOM     18  CZ  PHE I   4       7.650   0.109  11.758  1.00 20.27 LIG 0.00  A 
ATOM     19  CE2 PHE I   4       8.890   0.718  11.583  1.00 19.92 LIG 0.00  A 
ATOM     20  CD2 PHE I   4       9.138   1.468  10.433  1.00 19.48 LIG 0.01  A 
ENDBRANCH 14 15
ENDBRANCH 10 14
ENDBRANCH 7 10
ENDBRANCH 5 6
BRANCH 5 21
ATOM     21  CB  ASN I   3       3.394   4.162   7.257  1.00 15.02 LIG 0.14  C 
BRANCH 21 22
ATOM     22  CG  ASN I   3       1.897   4.061   7.536  1.00 21.09 LIG 0.22  C 
ATOM     23  ND2 ASN I   3       1.326   4.910   8.376  1.00 19.37 LIG-0.37  N 
ATOM     24 22HD ASN I   3       1.781   5.561   8.705  1.00 19.37 LIG 0.16  HD
ATOM     25 21HD ASN I   3       0.500   4.812   8.592  1.00 19.37 LIG 0.16  HD
ATOM     26 OD1  ASN I   3       1.209   3.146   7.089  1.00 22.58 LIG-0.27  OA
ENDBRANCH 21 22
ENDBRANCH 5 21
ENDBRANCH 3 5
BRANCH 1 27
ATOM     27  CA  LEU I   2       4.025   3.649  11.441  1.00 19.34 LIG 0.18  C 
BRANCH 27 28
ATOM     28  N   LEU I   2       3.232   2.450  11.590  1.00 20.62 LIG-0.35  N 
ATOM     29 H    LEU I   2       3.666   1.740  11.808  1.00 20.62 LIG 0.16  HD
ATOM     30  C   SER I   1       1.920   2.517  11.388  1.00 28.29 LIG 0.24  C 
ATOM     31 O    SER I   1       1.356   3.565  10.998  1.00 21.19 LIG-0.27  OA
BRANCH 30 32
ATOM     32  CA  SER I   1       1.168   1.236  11.731  1.00 32.71 LIG 0.20  C 
BRANCH 32 33
ATOM     33  CB  SER I   1      -0.227   1.626  12.125  1.00 35.86 LIG 0.20  C 
BRANCH 33 34
ATOM     34 OG   SER I   1       0.102   2.760  12.877  1.00 39.84 LIG-0.40  OA
ATOM     35 HG   SER I   1      -0.481   2.883  13.469  1.00 39.84 LIG 0.21  HD
ENDBRANCH 33 34
ENDBRANCH 32 33
BRANCH 32 36
ATOM     36  N   SER I   1       1.974   0.702  12.823  1.00 41.50 LIG-0.35  N 
ATOM     37  C   ACE I   0       2.829  -0.339  12.857  1.00 42.61 LIG 0.21  C 
ATOM     38 O    ACE I   0       3.168  -1.041  11.903  0.00 41.61 LIG-0.27  OA
ATOM     39  CH3 ACE I   0       3.434  -0.568  14.233  0.00 41.50 LIG 0.12  C 
ATOM     40 H    SER I   1       1.845   1.163  13.537  1.00 41.50 LIG 0.16  HD
ENDBRANCH 32 36
ENDBRANCH 30 32
ENDBRANCH 27 28
BRANCH 27 41
ATOM     41  CB  LEU I   2       5.407   3.456  11.966  1.00 22.58 LIG 0.04  C 
BRANCH 41 42
ATOM     42  CG  LEU I   2       6.243   4.722  11.743  1.00 27.49 LIG-0.02  C 
ATOM     43  CD2 LEU I   2       7.744   4.394  11.712  1.00 25.10 LIG 0.01  C 
ATOM     44  CD1 LEU I   2       5.869   5.721  12.817  1.00 31.16 LIG 0.01  C 
ENDBRANCH 41 42
ENDBRANCH 27 41
ENDBRANCH 1 27
TORSDOF 16
ENDMDL
MODEL 51
USER: ADFR SOLUTION from run 125
USER: SCORE 16.482471 LL:  -4.092 LR: -12.619 RR:   0.000 FEB:  -7.846
USER: RMSD 8.033089
USER: SEED 124
USER: STATUS no improvement in best in 6 clusters for 5 generations
USER: GENES 18
USER: genes 0 Translation |==|  0.50705 0.31452 0.59855
USER: genes 1 Rotation |==|  0.03846 0.31089 0.47132 0.51991
USER: genes 2 Torsion [C]-N--CA-[C] |==|  0.64951
USER: genes 3 Torsion [N]-CA--C-[N] |==|  0.39065
USER: genes 4 Torsion [C]-N--CA-[C] |==|  0.60606
USER: genes 5 Torsion [N]-CA--C-[O] |==|  0.49169
USER: genes 6 Torsion [N]-CA--CB-[CG] |==|  0.89104
USER: genes 7 Torsion [CA]-CB--CG-[CD1] |==|  0.27404
USER: genes 8 Torsion [N]-CA--CB-[CG] |==|  0.16918
USER: genes 9 Torsion [CA]-CB--CG-[OD1] |==|  0.19933
USER: genes 10 Torsion [N]-C--CA-[N] |==|  0.35000
USER: genes 11 Torsion [C]-CA--N-[C] |==|  0.83716
USER: genes 12 Torsion [N]-C--CA-[N] |==|  0.95771
USER: genes 13 Torsion [C]-CA--CB-[OG] |==|  0.82247
USER: genes 14 Torsion [CA]-CB--OG-[HG] |==|  0.27647
USER: genes 15 Torsion [C]-CA--N-[C] |==|  0.78829
USER: genes 16 Torsion [C]-CA--CB-[CG] |==|  0.77351
USER: genes 17 Torsion [CA]-CB--CG-[CD2] |==|  0.68657
ROOT
ATOM      1  C   LEU I   2       4.010   0.310  12.462  1.00 17.40 LIG 0.24  C 
ATOM      2 O    LEU I   2       4.510  -0.421  11.629  1.00 17.46 LIG-0.27  OA
ATOM      3  N   ASN I   3       3.108   1.237  12.194  1.00 16.24 LIG-0.35  N 
ATOM      4 H    ASN I   3       2.817   1.803  12.774  1.00 16.24 LIG 0.16  HD
ENDROOT
BRANCH 3 5
ATOM      5  CA  ASN I   3       2.528   1.380  10.885  1.00 15.86 LIG 0.18  C 
BRANCH 5 6
ATOM      6  C   ASN I   3       2.697   2.808  10.407  1.00 15.05 LIG 0.24  C 
ATOM      7  N   PHE I   4       2.997   2.933   9.108  1.00 14.49 LIG-0.34  N 
ATOM      8 H    PHE I   4       3.102   2.264   8.578  1.00 14.49 LIG 0.16  HD
ATOM      9 O    ASN I   3       2.581   3.759  11.218  1.00 16.10 LIG-0.27  OA
BRANCH 7 10
ATOM     10  CA  PHE I   4       3.173   4.233   8.466  1.00 12.92 LIG 0.19  C 
BRANCH 10 11
ATOM     11  C   PHE I   4       2.582   4.172   7.080  1.00 14.32 LIG 0.20  C 
ATOM     12 OXT  PHE I   4       2.032   3.134   6.742  1.00 16.91 LIG-0.65  OA
ATOM     13 O    PHE I   4       2.562   5.172   6.359  1.00 15.04 LIG-0.65  OA
ENDBRANCH 10 11
BRANCH 10 14
ATOM     14  CB  PHE I   4       4.651   4.577   8.399  1.00 13.46 LIG 0.07  C 
BRANCH 14 15
ATOM     15  CG  PHE I   4       5.353   4.154   9.665  1.00 17.43 LIG-0.06  A 
ATOM     16  CD1 PHE I   4       6.063   2.945   9.690  1.00 19.70 LIG 0.01  A 
ATOM     17  CE1 PHE I   4       6.727   2.565  10.843  1.00 18.46 LIG 0.00  A 
ATOM     18  CZ  PHE I   4       6.687   3.381  11.966  1.00 20.27 LIG 0.00  A 
ATOM     19  CE2 PHE I   4       5.985   4.585  11.951  1.00 19.92 LIG 0.00  A 
ATOM     20  CD2 PHE I   4       5.310   4.979  10.796  1.00 19.48 LIG 0.01  A 
ENDBRANCH 14 15
ENDBRANCH 10 14
ENDBRANCH 7 10
ENDBRANCH 5 6
BRANCH 5 21
ATOM     21  CB  ASN I   3       1.056   1.011  10.974  1.00 15.02 LIG 0.14  C 
BRANCH 21 22
ATOM     22  CG  ASN I   3       0.356   1.958  11.946  1.00 21.09 LIG 0.22  C 
ATOM     23  ND2 ASN I   3      -0.142   1.487  13.079  1.00 19.37 LIG-0.37  N 
ATOM     24 22HD ASN I   3      -0.007   0.667  13.300  1.00 19.37 LIG 0.16  HD
ATOM     25 21HD ASN I   3      -0.600   2.001  13.593  1.00 19.37 LIG 0.16  HD
ATOM     26 OD1  ASN I   3       0.138   3.135  11.668  1.00 22.58 LIG-0.27  OA
ENDBRANCH 21 22
ENDBRANCH 5 21
ENDBRANCH 3 5
BRANCH 1 27
ATOM     27  CA  LEU I   2       4.377   0.124  13.875  1.00 19.34 LIG 0.18  C 
BRANCH 27 28
ATOM     28  N   LEU I   2       4.171  -1.285  14.125  1.00 20.62 LIG-0.35  N 
ATOM     29 H    LEU I   2       4.861  -1.721  14.393  1.00 20.62 LIG 0.16  HD
ATOM     30  C   SER I   1       2.962  -1.802  13.931  1.00 28.29 LIG 0.24  C 
ATOM     31 O    SER I   1       2.014  -1.130  13.466  1.00 21.19 LIG-0.27  OA
BRANCH 30 32
ATOM     32  CA  SER I   1       2.824  -3.252  14.380  1.00 32.71 LIG 0.20  C 
BRANCH 32 33
ATOM     33  CB  SER I   1       2.040  -3.253  15.661  1.00 35.86 LIG 0.20  C 
BRANCH 33 34
ATOM     34 OG   SER I   1       2.960  -2.544  16.443  1.00 39.84 LIG-0.40  OA
ATOM     35 HG   SER I   1       2.723  -1.740  16.494  1.00 39.84 LIG 0.21  HD
ENDBRANCH 33 34
ENDBRANCH 32 33
BRANCH 32 36
ATOM     36  N   SER I   1       4.219  -3.651  14.530  1.00 41.50 LIG-0.35  N 
ATOM     37  C   ACE I   0       5.148  -3.964  13.605  1.00 42.61 LIG 0.21  C 
ATOM     38 O    ACE I   0       5.013  -3.905  12.381  0.00 41.61 LIG-0.27  OA
ATOM     39  CH3 ACE I   0       6.483  -4.364  14.213  0.00 41.50 LIG 0.12  C 
ATOM     40 H    SER I   1       4.431  -3.674  15.363  1.00 41.50 LIG 0.16  HD
ENDBRANCH 32 36
ENDBRANCH 30 32
ENDBRANCH 27 28
BRANCH 27 41
ATOM     41  CB  LEU I   2       5.801   0.511  14.085  1.00 22.58 LIG 0.04  C 
BRANCH 41 42
ATOM     42  CG  LEU I   2       6.731  -0.636  13.674  1.00 27.49 LIG-0.02  C 
ATOM     43  CD2 LEU I   2       7.458  -1.223  14.894  1.00 25.10 LIG 0.01  C 
ATOM     44  CD1 LEU I   2       7.672  -0.113  12.610  1.00 31.16 LIG 0.01  C 
ENDBRANCH 41 42
ENDBRANCH 27 41
ENDBRANCH 1 27
TORSDOF 16
ENDMDL
MODEL 52
USER: ADFR SOLUTION from run 47
USER: SCORE 15.655819 LL:  -3.846 LR: -12.612 RR:   0.000 FEB:  -7.839
USER: RMSD 7.791235
USER: SEED 46
USER: STATUS no improvement in best in 3 clusters for 5 generations
USER: GENES 18
USER: genes 0 Translation |==|  0.54946 0.37640 0.56633
USER: genes 1 Rotation |==|  0.51270 0.20078 0.27372 0.83031
USER: genes 2 Torsion [C]-N--CA-[C] |==|  0.13659
USER: genes 3 Torsion [N]-CA--C-[N] |==|  0.15556
USER: genes 4 Torsion [C]-N--CA-[C] |==|  0.67155
USER: genes 5 Torsion [N]-CA--C-[O] |==|  0.03671
USER: genes 6 Torsion [N]-CA--CB-[CG] |==|  0.80283
USER: genes 7 Torsion [CA]-CB--CG-[CD1] |==|  0.95481
USER: genes 8 Torsion [N]-CA--CB-[CG] |==|  0.52295
USER: genes 9 Torsion [CA]-CB--CG-[OD1] |==|  0.51483
USER: genes 10 Torsion [N]-C--CA-[N] |==|  0.86165
USER: genes 11 Torsion [C]-CA--N-[C] |==|  0.79980
USER: genes 12 Torsion [N]-C--CA-[N] |==|  0.51029
USER: genes 13 Torsion [C]-CA--CB-[OG] |==|  0.33517
USER: genes 14 Torsion [CA]-CB--OG-[HG] |==|  0.57889
USER: genes 15 Torsion [C]-CA--N-[C] |==|  0.71047
USER: genes 16 Torsion [C]-CA--CB-[CG] |==|  0.39032
USER: genes 17 Torsion [CA]-CB--CG-[CD2] |==|  0.31373
ROOT
ATOM      1  C   LEU I   2       4.741   1.378  11.809  1.00 17.40 LIG 0.24  C 
ATOM      2 O    LEU I   2       4.652   2.469  12.340  1.00 17.46 LIG-0.27  OA
ATOM      3  N   ASN I   3       3.768   0.796  11.133  1.00 16.24 LIG-0.35  N 
ATOM      4 H    ASN I   3       3.812  -0.007  10.828  1.00 16.24 LIG 0.16  HD
ENDROOT
BRANCH 3 5
ATOM      5  CA  ASN I   3       2.530   1.471  10.846  1.00 15.86 LIG 0.18  C 
BRANCH 5 6
ATOM      6  C   ASN I   3       2.821   2.842  10.268  1.00 15.05 LIG 0.24  C 
ATOM      7  N   PHE I   4       3.598   2.837   9.177  1.00 14.49 LIG-0.34  N 
ATOM      8 H    PHE I   4       3.925   2.121   8.830  1.00 14.49 LIG 0.16  HD
ATOM      9 O    ASN I   3       2.364   3.868  10.827  1.00 16.10 LIG-0.27  OA
BRANCH 7 10
ATOM     10  CA  PHE I   4       3.964   4.062   8.471  1.00 12.92 LIG 0.19  C 
BRANCH 10 11
ATOM     11  C   PHE I   4       3.421   3.990   7.066  1.00 14.32 LIG 0.20  C 
ATOM     12 OXT  PHE I   4       3.911   4.734   6.229  1.00 16.91 LIG-0.65  OA
ATOM     13 O    PHE I   4       2.590   3.135   6.755  1.00 15.04 LIG-0.65  OA
ENDBRANCH 10 11
BRANCH 10 14
ATOM     14  CB  PHE I   4       5.475   4.211   8.450  1.00 13.46 LIG 0.07  C 
BRANCH 14 15
ATOM     15  CG  PHE I   4       5.995   4.548   9.826  1.00 17.43 LIG-0.06  A 
ATOM     16  CD1 PHE I   4       5.107   5.010  10.807  1.00 19.70 LIG 0.01  A 
ATOM     17  CE1 PHE I   4       5.577   5.298  12.075  1.00 18.46 LIG 0.00  A 
ATOM     18  CZ  PHE I   4       6.924   5.128  12.370  1.00 20.27 LIG 0.00  A 
ATOM     19  CE2 PHE I   4       7.815   4.669  11.403  1.00 19.92 LIG 0.00  A 
ATOM     20  CD2 PHE I   4       7.354   4.377  10.118  1.00 19.48 LIG 0.01  A 
ENDBRANCH 14 15
ENDBRANCH 10 14
ENDBRANCH 7 10
ENDBRANCH 5 6
BRANCH 5 21
ATOM     21  CB  ASN I   3       1.739   1.586  12.139  1.00 15.02 LIG 0.14  C 
BRANCH 21 22
ATOM     22  CG  ASN I   3       0.340   2.111  11.830  1.00 21.09 LIG 0.22  C 
ATOM     23  ND2 ASN I   3       0.006   2.395  10.580  1.00 19.37 LIG-0.37  N 
ATOM     24 22HD ASN I   3       0.548   2.216   9.939  1.00 19.37 LIG 0.16  HD
ATOM     25 21HD ASN I   3      -0.754   2.760  10.411  1.00 19.37 LIG 0.16  HD
ATOM     26 OD1  ASN I   3      -0.466   2.385  12.716  1.00 22.58 LIG-0.27  OA
ENDBRANCH 21 22
ENDBRANCH 5 21
ENDBRANCH 3 5
BRANCH 1 27
ATOM     27  CA  LEU I   2       6.032   0.672  11.864  1.00 19.34 LIG 0.18  C 
BRANCH 27 28
ATOM     28  N   LEU I   2       5.696  -0.677  12.262  1.00 20.62 LIG-0.35  N 
ATOM     29 H    LEU I   2       5.765  -1.276  11.649  1.00 20.62 LIG 0.16  HD
ATOM     30  C   SER I   1       5.312  -0.900  13.515  1.00 28.29 LIG 0.24  C 
ATOM     31 O    SER I   1       5.157   0.026  14.342  1.00 21.19 LIG-0.27  OA
BRANCH 30 32
ATOM     32  CA  SER I   1       5.141  -2.375  13.862  1.00 32.71 LIG 0.20  C 
BRANCH 32 33
ATOM     33  CB  SER I   1       4.169  -2.958  12.877  1.00 35.86 LIG 0.20  C 
BRANCH 33 34
ATOM     34 OG   SER I   1       5.014  -3.938  12.341  1.00 39.84 LIG-0.40  OA
ATOM     35 HG   SER I   1       4.789  -4.097  11.547  1.00 39.84 LIG 0.21  HD
ENDBRANCH 33 34
ENDBRANCH 32 33
BRANCH 32 36
ATOM     36  N   SER I   1       4.640  -2.302  15.230  1.00 41.50 LIG-0.35  N 
ATOM     37  C   ACE I   0       5.256  -2.536  16.406  1.00 42.61 LIG 0.21  C 
ATOM     38 O    ACE I   0       6.447  -2.805  16.568  0.00 41.61 LIG-0.27  OA
ATOM     39  CH3 ACE I   0       4.334  -2.375  17.604  0.00 41.50 LIG 0.12  C 
ATOM     40 H    SER I   1       3.813  -2.068  15.229  1.00 41.50 LIG 0.16  HD
ENDBRANCH 32 36
ENDBRANCH 30 32
ENDBRANCH 27 28
BRANCH 27 41
ATOM     41  CB  LEU I   2       6.681   0.697  10.523  1.00 22.58 LIG 0.04  C 
BRANCH 41 42
ATOM     42  CG  LEU I   2       8.192   0.916  10.666  1.00 27.49 LIG-0.02  C 
ATOM     43  CD2 LEU I   2       8.976  -0.331  10.226  1.00 25.10 LIG 0.01  C 
ATOM     44  CD1 LEU I   2       8.469   1.324  12.097  1.00 31.16 LIG 0.01  C 
ENDBRANCH 41 42
ENDBRANCH 27 41
ENDBRANCH 1 27
TORSDOF 16
ENDMDL
MODEL 53
USER: ADFR SOLUTION from run 194
USER: SCORE 14.393334 LL:  -3.207 LR: -12.608 RR:   0.000 FEB:  -7.836
USER: RMSD 2.354205
USER: SEED 193
USER: STATUS no improvement in best in 11 clusters for 5 generations
USER: GENES 18
USER: genes 0 Translation |==|  0.42181 0.49720 0.47127
USER: genes 1 Rotation |==|  0.50768 0.58774 0.54852 0.98978
USER: genes 2 Torsion [C]-N--CA-[C] |==|  0.61667
USER: genes 3 Torsion [N]-CA--C-[N] |==|  0.62551
USER: genes 4 Torsion [C]-N--CA-[C] |==|  0.56266
USER: genes 5 Torsion [N]-CA--C-[O] |==|  0.93795
USER: genes 6 Torsion [N]-CA--CB-[CG] |==|  0.75535
USER: genes 7 Torsion [CA]-CB--CG-[CD1] |==|  0.86287
USER: genes 8 Torsion [N]-CA--CB-[CG] |==|  0.82126
USER: genes 9 Torsion [CA]-CB--CG-[OD1] |==|  0.74985
USER: genes 10 Torsion [N]-C--CA-[N] |==|  0.45475
USER: genes 11 Torsion [C]-CA--N-[C] |==|  0.62258
USER: genes 12 Torsion [N]-C--CA-[N] |==|  0.20773
USER: genes 13 Torsion [C]-CA--CB-[OG] |==|  0.75995
USER: genes 14 Torsion [CA]-CB--OG-[HG] |==|  0.12558
USER: genes 15 Torsion [C]-CA--N-[C] |==|  0.61900
USER: genes 16 Torsion [C]-CA--CB-[CG] |==|  0.35813
USER: genes 17 Torsion [CA]-CB--CG-[CD2] |==|  0.56747
ROOT
ATOM      1  C   LEU I   2       2.539   3.462   9.884  1.00 17.40 LIG 0.24  C 
ATOM      2 O    LEU I   2       2.397   4.292  10.762  1.00 17.46 LIG-0.27  OA
ATOM      3  N   ASN I   3       2.854   2.198  10.098  1.00 16.24 LIG-0.35  N 
ATOM      4 H    ASN I   3       3.029   1.635   9.471  1.00 16.24 LIG 0.16  HD
ENDROOT
BRANCH 3 5
ATOM      5  CA  ASN I   3       2.931   1.646  11.425  1.00 15.86 LIG 0.18  C 
BRANCH 5 6
ATOM      6  C   ASN I   3       4.144   0.745  11.532  1.00 15.05 LIG 0.24  C 
ATOM      7  N   PHE I   4       3.920  -0.429  12.137  1.00 14.49 LIG-0.34  N 
ATOM      8 H    PHE I   4       3.156  -0.659  12.458  1.00 14.49 LIG 0.16  HD
ATOM      9 O    ASN I   3       5.254   1.133  11.093  1.00 16.10 LIG-0.27  OA
BRANCH 7 10
ATOM     10  CA  PHE I   4       4.965  -1.434  12.309  1.00 12.92 LIG 0.19  C 
BRANCH 10 11
ATOM     11  C   PHE I   4       4.314  -2.782  12.491  1.00 14.32 LIG 0.20  C 
ATOM     12 OXT  PHE I   4       5.011  -3.774  12.341  1.00 16.91 LIG-0.65  OA
ATOM     13 O    PHE I   4       3.149  -2.870  12.884  1.00 15.04 LIG-0.65  OA
ENDBRANCH 10 11
BRANCH 10 14
ATOM     14  CB  PHE I   4       5.818  -1.088  13.517  1.00 13.46 LIG 0.07  C 
BRANCH 14 15
ATOM     15  CG  PHE I   4       6.952  -0.174  13.123  1.00 17.43 LIG-0.06  A 
ATOM     16  CD1 PHE I   4       7.755  -0.503  12.022  1.00 19.70 LIG 0.01  A 
ATOM     17  CE1 PHE I   4       8.781   0.344  11.645  1.00 18.46 LIG 0.00  A 
ATOM     18  CZ  PHE I   4       9.009   1.515  12.357  1.00 20.27 LIG 0.00  A 
ATOM     19  CE2 PHE I   4       8.217   1.852  13.452  1.00 19.92 LIG 0.00  A 
ATOM     20  CD2 PHE I   4       7.180   1.005  13.844  1.00 19.48 LIG 0.01  A 
ENDBRANCH 14 15
ENDBRANCH 10 14
ENDBRANCH 7 10
ENDBRANCH 5 6
BRANCH 5 21
ATOM     21  CB  ASN I   3       1.653   0.865  11.691  1.00 15.02 LIG 0.14  C 
BRANCH 21 22
ATOM     22  CG  ASN I   3       0.466   1.825  11.688  1.00 21.09 LIG 0.22  C 
ATOM     23  ND2 ASN I   3      -0.103   2.163  10.541  1.00 19.37 LIG-0.37  N 
ATOM     24 22HD ASN I   3       0.148   1.788   9.810  1.00 19.37 LIG 0.16  HD
ATOM     25 21HD ASN I   3      -0.723   2.759  10.527  1.00 19.37 LIG 0.16  HD
ATOM     26 OD1  ASN I   3       0.077   2.387  12.709  1.00 22.58 LIG-0.27  OA
ENDBRANCH 21 22
ENDBRANCH 5 21
ENDBRANCH 3 5
BRANCH 1 27
ATOM     27  CA  LEU I   2       2.288   3.861   8.489  1.00 19.34 LIG 0.18  C 
BRANCH 27 28
ATOM     28  N   LEU I   2       1.604   5.130   8.588  1.00 20.62 LIG-0.35  N 
ATOM     29 H    LEU I   2       1.930   5.687   9.157  1.00 20.62 LIG 0.16  HD
ATOM     30  C   SER I   1       0.544   5.351   7.817  1.00 28.29 LIG 0.24  C 
ATOM     31 O    SER I   1       0.070   4.471   7.063  1.00 21.19 LIG-0.27  OA
BRANCH 30 32
ATOM     32  CA  SER I   1       0.005   6.775   7.890  1.00 32.71 LIG 0.20  C 
BRANCH 32 33
ATOM     33  CB  SER I   1      -1.369   6.767   7.284  1.00 35.86 LIG 0.20  C 
BRANCH 33 34
ATOM     34 OG   SER I   1      -0.986   6.950   5.950  1.00 39.84 LIG-0.40  OA
ATOM     35 HG   SER I   1      -0.341   6.443   5.772  1.00 39.84 LIG 0.21  HD
ENDBRANCH 33 34
ENDBRANCH 32 33
BRANCH 32 36
ATOM     36  N   SER I   1       0.999   7.509   7.113  1.00 41.50 LIG-0.35  N 
ATOM     37  C   ACE I   0       1.591   8.698   7.342  1.00 42.61 LIG 0.21  C 
ATOM     38 O    ACE I   0       1.452   9.405   8.341  0.00 41.61 LIG-0.27  OA
ATOM     39  CH3 ACE I   0       2.553   9.106   6.238  0.00 41.50 LIG 0.12  C 
ATOM     40 H    SER I   1       1.205   7.066   6.405  1.00 41.50 LIG 0.16  HD
ENDBRANCH 32 36
ENDBRANCH 30 32
ENDBRANCH 27 28
BRANCH 27 41
ATOM     41  CB  LEU I   2       3.581   3.995   7.760  1.00 22.58 LIG 0.04  C 
BRANCH 41 42
ATOM     42  CG  LEU I   2       3.540   3.197   6.451  1.00 27.49 LIG-0.02  C 
ATOM     43  CD2 LEU I   2       4.956   2.813   5.993  1.00 25.10 LIG 0.01  C 
ATOM     44  CD1 LEU I   2       2.781   4.018   5.430  1.00 31.16 LIG 0.01  C 
ENDBRANCH 41 42
ENDBRANCH 27 41
ENDBRANCH 1 27
TORSDOF 16
ENDMDL
MODEL 54
USER: ADFR SOLUTION from run 106
USER: SCORE 16.189988 LL:  -4.253 LR: -12.579 RR:   0.000 FEB:  -7.806
USER: RMSD 6.227453
USER: SEED 105
USER: STATUS no improvement in best in 14 clusters for 5 generations
USER: GENES 18
USER: genes 0 Translation |==|  0.57996 0.35319 0.59213
USER: genes 1 Rotation |==|  0.22225 0.77862 0.19570 0.55124
USER: genes 2 Torsion [C]-N--CA-[C] |==|  0.18838
USER: genes 3 Torsion [N]-CA--C-[N] |==|  0.06635
USER: genes 4 Torsion [C]-N--CA-[C] |==|  0.69275
USER: genes 5 Torsion [N]-CA--C-[O] |==|  0.87350
USER: genes 6 Torsion [N]-CA--CB-[CG] |==|  0.77781
USER: genes 7 Torsion [CA]-CB--CG-[CD1] |==|  0.58415
USER: genes 8 Torsion [N]-CA--CB-[CG] |==|  0.82399
USER: genes 9 Torsion [CA]-CB--CG-[OD1] |==|  0.41637
USER: genes 10 Torsion [N]-C--CA-[N] |==|  0.44116
USER: genes 11 Torsion [C]-CA--N-[C] |==|  0.66247
USER: genes 12 Torsion [N]-C--CA-[N] |==|  0.29071
USER: genes 13 Torsion [C]-CA--CB-[OG] |==|  0.38558
USER: genes 14 Torsion [CA]-CB--OG-[HG] |==|  0.90906
USER: genes 15 Torsion [C]-CA--N-[C] |==|  0.79680
USER: genes 16 Torsion [C]-CA--CB-[CG] |==|  0.95950
USER: genes 17 Torsion [CA]-CB--CG-[CD2] |==|  0.73789
ROOT
ATOM      1  C   LEU I   2       5.267   0.978  12.332  1.00 17.40 LIG 0.24  C 
ATOM      2 O    LEU I   2       5.535   0.417  11.286  1.00 17.46 LIG-0.27  OA
ATOM      3  N   ASN I   3       6.154   1.288  13.259  1.00 16.24 LIG-0.35  N 
ATOM      4 H    ASN I   3       5.948   1.613  14.028  1.00 16.24 LIG 0.16  HD
ENDROOT
BRANCH 3 5
ATOM      5  CA  ASN I   3       7.567   1.104  13.054  1.00 15.86 LIG 0.18  C 
BRANCH 5 6
ATOM      6  C   ASN I   3       8.057   2.069  11.994  1.00 15.05 LIG 0.24  C 
ATOM      7  N   PHE I   4       7.302   3.165  11.841  1.00 14.49 LIG-0.34  N 
ATOM      8 H    PHE I   4       6.585   3.314  12.292  1.00 14.49 LIG 0.16  HD
ATOM      9 O    ASN I   3       9.082   1.797  11.323  1.00 16.10 LIG-0.27  OA
BRANCH 7 10
ATOM     10  CA  PHE I   4       7.632   4.217  10.883  1.00 12.92 LIG 0.19  C 
BRANCH 10 11
ATOM     11  C   PHE I   4       8.053   5.449  11.644  1.00 14.32 LIG 0.20  C 
ATOM     12 OXT  PHE I   4       8.989   6.098  11.201  1.00 16.91 LIG-0.65  OA
ATOM     13 O    PHE I   4       7.404   5.841  12.615  1.00 15.04 LIG-0.65  OA
ENDBRANCH 10 11
BRANCH 10 14
ATOM     14  CB  PHE I   4       6.425   4.516  10.012  1.00 13.46 LIG 0.07  C 
BRANCH 14 15
ATOM     15  CG  PHE I   4       6.293   3.489   8.915  1.00 17.43 LIG-0.06  A 
ATOM     16  CD1 PHE I   4       5.723   3.858   7.688  1.00 19.70 LIG 0.01  A 
ATOM     17  CE1 PHE I   4       5.621   2.923   6.673  1.00 18.46 LIG 0.00  A 
ATOM     18  CZ  PHE I   4       6.082   1.628   6.874  1.00 20.27 LIG 0.00  A 
ATOM     19  CE2 PHE I   4       6.650   1.252   8.090  1.00 19.92 LIG 0.00  A 
ATOM     20  CD2 PHE I   4       6.757   2.184   9.123  1.00 19.48 LIG 0.01  A 
ENDBRANCH 14 15
ENDBRANCH 10 14
ENDBRANCH 7 10
ENDBRANCH 5 6
BRANCH 5 21
ATOM     21  CB  ASN I   3       7.801  -0.336  12.624  1.00 15.02 LIG 0.14  C 
BRANCH 21 22
ATOM     22  CG  ASN I   3       7.378  -1.274  13.752  1.00 21.09 LIG 0.22  C 
ATOM     23  ND2 ASN I   3       7.580  -0.921  15.012  1.00 19.37 LIG-0.37  N 
ATOM     24 22HD ASN I   3       7.880  -0.137  15.195  1.00 19.37 LIG 0.16  HD
ATOM     25 21HD ASN I   3       7.411  -1.476  15.646  1.00 19.37 LIG 0.16  HD
ATOM     26 OD1  ASN I   3       6.949  -2.405  13.534  1.00 22.58 LIG-0.27  OA
ENDBRANCH 21 22
ENDBRANCH 5 21
ENDBRANCH 3 5
BRANCH 1 27
ATOM     27  CA  LEU I   2       3.877   1.400  12.569  1.00 19.34 LIG 0.18  C 
BRANCH 27 28
ATOM     28  N   LEU I   2       3.267   1.408  11.259  1.00 20.62 LIG-0.35  N 
ATOM     29 H    LEU I   2       3.282   0.659  10.835  1.00 20.62 LIG 0.16  HD
ATOM     30  C   SER I   1       2.737   2.538  10.803  1.00 28.29 LIG 0.24  C 
ATOM     31 O    SER I   1       2.813   3.615  11.435  1.00 21.19 LIG-0.27  OA
BRANCH 30 32
ATOM     32  CA  SER I   1       1.982   2.388   9.487  1.00 32.71 LIG 0.20  C 
BRANCH 32 33
ATOM     33  CB  SER I   1       2.396   3.526   8.599  1.00 35.86 LIG 0.20  C 
BRANCH 33 34
ATOM     34 OG   SER I   1       2.498   2.803   7.405  1.00 39.84 LIG-0.40  OA
ATOM     35 HG   SER I   1       2.751   2.020   7.573  1.00 39.84 LIG 0.21  HD
ENDBRANCH 33 34
ENDBRANCH 32 33
BRANCH 32 36
ATOM     36  N   SER I   1       0.594   2.447   9.932  1.00 41.50 LIG-0.35  N 
ATOM     37  C   ACE I   0      -0.156   1.543  10.593  1.00 42.61 LIG 0.21  C 
ATOM     38 O    ACE I   0       0.224   0.458  11.037  0.00 41.61 LIG-0.27  OA
ATOM     39  CH3 ACE I   0      -1.585   2.010  10.825  0.00 41.50 LIG 0.12  C 
ATOM     40 H    SER I   1       0.245   3.201   9.711  1.00 41.50 LIG 0.16  HD
ENDBRANCH 32 36
ENDBRANCH 30 32
ENDBRANCH 27 28
BRANCH 27 41
ATOM     41  CB  LEU I   2       3.201   0.431  13.478  1.00 22.58 LIG 0.04  C 
BRANCH 41 42
ATOM     42  CG  LEU I   2       4.021  -0.861  13.585  1.00 27.49 LIG-0.02  C 
ATOM     43  CD2 LEU I   2       3.528  -1.913  12.579  1.00 25.10 LIG 0.01  C 
ATOM     44  CD1 LEU I   2       3.961  -1.331  15.022  1.00 31.16 LIG 0.01  C 
ENDBRANCH 41 42
ENDBRANCH 27 41
ENDBRANCH 1 27
TORSDOF 16
ENDMDL
MODEL 55
USER: ADFR SOLUTION from run 153
USER: SCORE 15.029843 LL:  -3.242 LR: -12.576 RR:   0.000 FEB:  -7.803
USER: RMSD 9.028287
USER: SEED 152
USER: STATUS no improvement in best in 19 clusters for 5 generations
USER: GENES 18
USER: genes 0 Translation |==|  0.44652 0.45159 0.53303
USER: genes 1 Rotation |==|  0.47732 0.11924 0.17695 0.51193
USER: genes 2 Torsion [C]-N--CA-[C] |==|  0.57422
USER: genes 3 Torsion [N]-CA--C-[N] |==|  0.33534
USER: genes 4 Torsion [C]-N--CA-[C] |==|  0.44506
USER: genes 5 Torsion [N]-CA--C-[O] |==|  0.07500
USER: genes 6 Torsion [N]-CA--CB-[CG] |==|  0.60295
USER: genes 7 Torsion [CA]-CB--CG-[CD1] |==|  0.27793
USER: genes 8 Torsion [N]-CA--CB-[CG] |==|  0.76236
USER: genes 9 Torsion [CA]-CB--CG-[OD1] |==|  0.39088
USER: genes 10 Torsion [N]-C--CA-[N] |==|  0.37781
USER: genes 11 Torsion [C]-CA--N-[C] |==|  0.59679
USER: genes 12 Torsion [N]-C--CA-[N] |==|  0.86667
USER: genes 13 Torsion [C]-CA--CB-[OG] |==|  0.59621
USER: genes 14 Torsion [CA]-CB--OG-[HG] |==|  0.47730
USER: genes 15 Torsion [C]-CA--N-[C] |==|  0.80781
USER: genes 16 Torsion [C]-CA--CB-[CG] |==|  0.26661
USER: genes 17 Torsion [CA]-CB--CG-[CD2] |==|  0.02920
ROOT
ATOM      1  C   LEU I   2       2.966   2.675  11.135  1.00 17.40 LIG 0.24  C 
ATOM      2 O    LEU I   2       3.338   3.575  11.863  1.00 17.46 LIG-0.27  OA
ATOM      3  N   ASN I   3       2.875   2.768   9.821  1.00 16.24 LIG-0.35  N 
ATOM      4 H    ASN I   3       2.537   2.155   9.320  1.00 16.24 LIG 0.16  HD
ENDROOT
BRANCH 3 5
ATOM      5  CA  ASN I   3       3.343   3.925   9.105  1.00 15.86 LIG 0.18  C 
BRANCH 5 6
ATOM      6  C   ASN I   3       2.567   4.070   7.811  1.00 15.05 LIG 0.24  C 
ATOM      7  N   PHE I   4       1.899   5.224   7.685  1.00 14.49 LIG-0.34  N 
ATOM      8 H    PHE I   4       1.890   5.837   8.289  1.00 14.49 LIG 0.16  HD
ATOM      9 O    ASN I   3       2.566   3.137   6.972  1.00 16.10 LIG-0.27  OA
BRANCH 7 10
ATOM     10  CA  PHE I   4       1.115   5.550   6.497  1.00 12.92 LIG 0.19  C 
BRANCH 10 11
ATOM     11  C   PHE I   4       0.130   6.636   6.849  1.00 14.32 LIG 0.20  C 
ATOM     12 OXT  PHE I   4      -0.950   6.631   6.277  1.00 16.91 LIG-0.65  OA
ATOM     13 O    PHE I   4       0.369   7.431   7.761  1.00 15.04 LIG-0.65  OA
ENDBRANCH 10 11
BRANCH 10 14
ATOM     14  CB  PHE I   4       0.388   4.311   6.004  1.00 13.46 LIG 0.07  C 
BRANCH 14 15
ATOM     15  CG  PHE I   4       0.351   4.280   4.497  1.00 17.43 LIG-0.06  A 
ATOM     16  CD1 PHE I   4       1.265   3.477   3.799  1.00 19.70 LIG 0.01  A 
ATOM     17  CE1 PHE I   4       1.218   3.429   2.418  1.00 18.46 LIG 0.00  A 
ATOM     18  CZ  PHE I   4       0.269   4.175   1.730  1.00 20.27 LIG 0.00  A 
ATOM     19  CE2 PHE I   4      -0.644   4.975   2.413  1.00 19.92 LIG 0.00  A 
ATOM     20  CD2 PHE I   4      -0.607   5.034   3.807  1.00 19.48 LIG 0.01  A 
ENDBRANCH 14 15
ENDBRANCH 10 14
ENDBRANCH 7 10
ENDBRANCH 5 6
BRANCH 5 21
ATOM     21  CB  ASN I   3       4.827   3.745   8.828  1.00 15.02 LIG 0.14  C 
BRANCH 21 22
ATOM     22  CG  ASN I   3       5.628   4.232  10.034  1.00 21.09 LIG 0.22  C 
ATOM     23  ND2 ASN I   3       5.315   5.382  10.609  1.00 19.37 LIG-0.37  N 
ATOM     24 22HD ASN I   3       4.619   5.816  10.353  1.00 19.37 LIG 0.16  HD
ATOM     25 21HD ASN I   3       5.808   5.695  11.241  1.00 19.37 LIG 0.16  HD
ATOM     26 OD1  ASN I   3       6.631   3.645  10.432  1.00 22.58 LIG-0.27  OA
ENDBRANCH 21 22
ENDBRANCH 5 21
ENDBRANCH 3 5
BRANCH 1 27
ATOM     27  CA  LEU I   2       2.648   1.369  11.736  1.00 19.34 LIG 0.18  C 
BRANCH 27 28
ATOM     28  N   LEU I   2       3.688   1.154  12.717  1.00 20.62 LIG-0.35  N 
ATOM     29 H    LEU I   2       3.970   1.858  13.122  1.00 20.62 LIG 0.16  HD
ATOM     30  C   SER I   1       4.130  -0.082  12.926  1.00 28.29 LIG 0.24  C 
ATOM     31 O    SER I   1       3.732  -1.057  12.250  1.00 21.19 LIG-0.27  OA
BRANCH 30 32
ATOM     32  CA  SER I   1       5.104  -0.208  14.092  1.00 32.71 LIG 0.20  C 
BRANCH 32 33
ATOM     33  CB  SER I   1       4.312  -0.049  15.358  1.00 35.86 LIG 0.20  C 
BRANCH 33 34
ATOM     34 OG   SER I   1       5.292   0.613  16.108  1.00 39.84 LIG-0.40  OA
ATOM     35 HG   SER I   1       4.958   0.879  16.832  1.00 39.84 LIG 0.21  HD
ENDBRANCH 33 34
ENDBRANCH 32 33
BRANCH 32 36
ATOM     36  N   SER I   1       6.032   0.885  13.823  1.00 41.50 LIG-0.35  N 
ATOM     37  C   ACE I   0       6.947   1.042  12.845  1.00 42.61 LIG 0.21  C 
ATOM     38 O    ACE I   0       7.141   0.281  11.895  0.00 41.61 LIG-0.27  OA
ATOM     39  CH3 ACE I   0       7.734   2.336  12.967  0.00 41.50 LIG 0.12  C 
ATOM     40 H    SER I   1       5.939   1.504  14.413  1.00 41.50 LIG 0.16  HD
ENDBRANCH 32 36
ENDBRANCH 30 32
ENDBRANCH 27 28
BRANCH 27 41
ATOM     41  CB  LEU I   2       1.301   1.417  12.371  1.00 22.58 LIG 0.04  C 
BRANCH 41 42
ATOM     42  CG  LEU I   2       0.239   0.870  11.411  1.00 27.49 LIG-0.02  C 
ATOM     43  CD2 LEU I   2       0.890   0.197  10.191  1.00 25.10 LIG 0.01  C 
ATOM     44  CD1 LEU I   2      -0.686   2.010  11.044  1.00 31.16 LIG 0.01  C 
ENDBRANCH 41 42
ENDBRANCH 27 41
ENDBRANCH 1 27
TORSDOF 16
ENDMDL
MODEL 56
USER: ADFR SOLUTION from run 130
USER: SCORE 16.306306 LL:  -4.385 LR: -12.568 RR:   0.000 FEB:  -7.795
USER: RMSD 5.797086
USER: SEED 129
USER: STATUS no improvement in best in 3 clusters for 5 generations
USER: GENES 18
USER: genes 0 Translation |==|  0.59142 0.46234 0.57418
USER: genes 1 Rotation |==|  0.24363 0.40004 0.09508 0.60162
USER: genes 2 Torsion [C]-N--CA-[C] |==|  0.13048
USER: genes 3 Torsion [N]-CA--C-[N] |==|  0.11667
USER: genes 4 Torsion [C]-N--CA-[C] |==|  0.70793
USER: genes 5 Torsion [N]-CA--C-[O] |==|  0.84885
USER: genes 6 Torsion [N]-CA--CB-[CG] |==|  0.77157
USER: genes 7 Torsion [CA]-CB--CG-[CD1] |==|  0.00865
USER: genes 8 Torsion [N]-CA--CB-[CG] |==|  0.77107
USER: genes 9 Torsion [CA]-CB--CG-[OD1] |==|  0.05708
USER: genes 10 Torsion [N]-C--CA-[N] |==|  0.11976
USER: genes 11 Torsion [C]-CA--N-[C] |==|  0.73314
USER: genes 12 Torsion [N]-C--CA-[N] |==|  0.97481
USER: genes 13 Torsion [C]-CA--CB-[OG] |==|  0.15287
USER: genes 14 Torsion [CA]-CB--OG-[HG] |==|  0.31651
USER: genes 15 Torsion [C]-CA--N-[C] |==|  0.75147
USER: genes 16 Torsion [C]-CA--CB-[CG] |==|  0.27380
USER: genes 17 Torsion [CA]-CB--CG-[CD2] |==|  0.04221
ROOT
ATOM      1  C   LEU I   2       5.465   2.860  11.968  1.00 17.40 LIG 0.24  C 
ATOM      2 O    LEU I   2       6.631   2.556  12.135  1.00 17.46 LIG-0.27  OA
ATOM      3  N   ASN I   3       5.020   4.102  11.912  1.00 16.24 LIG-0.35  N 
ATOM      4 H    ASN I   3       4.186   4.310  11.873  1.00 16.24 LIG 0.16  HD
ENDROOT
BRANCH 3 5
ATOM      5  CA  ASN I   3       5.911   5.232  11.912  1.00 15.86 LIG 0.18  C 
BRANCH 5 6
ATOM      6  C   ASN I   3       7.031   4.996  10.919  1.00 15.05 LIG 0.24  C 
ATOM      7  N   PHE I   4       6.645   4.456   9.756  1.00 14.49 LIG-0.34  N 
ATOM      8 H    PHE I   4       5.830   4.242   9.579  1.00 14.49 LIG 0.16  HD
ATOM      9 O    ASN I   3       8.214   5.279  11.228  1.00 16.10 LIG-0.27  OA
BRANCH 7 10
ATOM     10  CA  PHE I   4       7.581   4.180   8.671  1.00 12.92 LIG 0.19  C 
BRANCH 10 11
ATOM     11  C   PHE I   4       7.391   5.216   7.591  1.00 14.32 LIG 0.20  C 
ATOM     12 OXT  PHE I   4       8.389   5.771   7.155  1.00 16.91 LIG-0.65  OA
ATOM     13 O    PHE I   4       6.280   5.412   7.096  1.00 15.04 LIG-0.65  OA
ENDBRANCH 10 11
BRANCH 10 14
ATOM     14  CB  PHE I   4       7.334   2.786   8.120  1.00 13.46 LIG 0.07  C 
BRANCH 14 15
ATOM     15  CG  PHE I   4       8.017   1.747   8.973  1.00 17.43 LIG-0.06  A 
ATOM     16  CD1 PHE I   4       8.696   2.144  10.134  1.00 19.70 LIG 0.01  A 
ATOM     17  CE1 PHE I   4       9.305   1.191  10.931  1.00 18.46 LIG 0.00  A 
ATOM     18  CZ  PHE I   4       9.240  -0.151  10.577  1.00 20.27 LIG 0.00  A 
ATOM     19  CE2 PHE I   4       8.568  -0.556   9.426  1.00 19.92 LIG 0.00  A 
ATOM     20  CD2 PHE I   4       7.951   0.396   8.613  1.00 19.48 LIG 0.01  A 
ENDBRANCH 14 15
ENDBRANCH 10 14
ENDBRANCH 7 10
ENDBRANCH 5 6
BRANCH 5 21
ATOM     21  CB  ASN I   3       6.463   5.402  13.319  1.00 15.02 LIG 0.14  C 
BRANCH 21 22
ATOM     22  CG  ASN I   3       5.453   6.170  14.168  1.00 21.09 LIG 0.22  C 
ATOM     23  ND2 ASN I   3       5.827   6.686  15.328  1.00 19.37 LIG-0.37  N 
ATOM     24 22HD ASN I   3       6.652   6.653  15.568  1.00 19.37 LIG 0.16  HD
ATOM     25 21HD ASN I   3       5.245   7.055  15.843  1.00 19.37 LIG 0.16  HD
ATOM     26 OD1  ASN I   3       4.264   6.240  13.865  1.00 22.58 LIG-0.27  OA
ENDBRANCH 21 22
ENDBRANCH 5 21
ENDBRANCH 3 5
BRANCH 1 27
ATOM     27  CA  LEU I   2       4.480   1.787  11.753  1.00 19.34 LIG 0.18  C 
BRANCH 27 28
ATOM     28  N   LEU I   2       3.681   2.241  10.637  1.00 20.62 LIG-0.35  N 
ATOM     29 H    LEU I   2       4.005   2.079   9.856  1.00 20.62 LIG 0.16  HD
ATOM     30  C   SER I   1       2.531   2.861  10.879  1.00 28.29 LIG 0.24  C 
ATOM     31 O    SER I   1       2.150   3.135  12.039  1.00 21.19 LIG-0.27  OA
BRANCH 30 32
ATOM     32  CA  SER I   1       1.701   3.147   9.632  1.00 32.71 LIG 0.20  C 
BRANCH 32 33
ATOM     33  CB  SER I   1       0.481   2.273   9.695  1.00 35.86 LIG 0.20  C 
BRANCH 33 34
ATOM     34 OG   SER I   1       0.024   2.682  10.953  1.00 39.84 LIG-0.40  OA
ATOM     35 HG   SER I   1      -0.708   3.086  10.867  1.00 39.84 LIG 0.21  HD
ENDBRANCH 33 34
ENDBRANCH 32 33
BRANCH 32 36
ATOM     36  N   SER I   1       2.635   2.798   8.567  1.00 41.50 LIG-0.35  N 
ATOM     37  C   ACE I   0       3.551   3.548   7.921  1.00 42.61 LIG 0.21  C 
ATOM     38 O    ACE I   0       3.842   4.720   8.164  0.00 41.61 LIG-0.27  OA
ATOM     39  CH3 ACE I   0       4.294   2.779   6.840  0.00 41.50 LIG 0.12  C 
ATOM     40 H    SER I   1       2.546   1.970   8.355  1.00 41.50 LIG 0.16  HD
ENDBRANCH 32 36
ENDBRANCH 30 32
ENDBRANCH 27 28
BRANCH 27 41
ATOM     41  CB  LEU I   2       5.181   0.511  11.438  1.00 22.58 LIG 0.04  C 
BRANCH 41 42
ATOM     42  CG  LEU I   2       5.287  -0.363  12.693  1.00 27.49 LIG-0.02  C 
ATOM     43  CD2 LEU I   2       4.337   0.133  13.795  1.00 25.10 LIG 0.01  C 
ATOM     44  CD1 LEU I   2       6.739  -0.388  13.121  1.00 31.16 LIG 0.01  C 
ENDBRANCH 41 42
ENDBRANCH 27 41
ENDBRANCH 1 27
TORSDOF 16
ENDMDL
MODEL 57
USER: ADFR SOLUTION from run 21
USER: SCORE 15.498137 LL:  -3.350 LR: -12.549 RR:   0.000 FEB:  -7.776
USER: RMSD 8.809297
USER: SEED 20
USER: STATUS no improvement in best in 12 clusters for 5 generations
USER: GENES 18
USER: genes 0 Translation |==|  0.45554 0.48259 0.50551
USER: genes 1 Rotation |==|  0.54315 0.10944 0.20684 0.59826
USER: genes 2 Torsion [C]-N--CA-[C] |==|  0.64321
USER: genes 3 Torsion [N]-CA--C-[N] |==|  0.36111
USER: genes 4 Torsion [C]-N--CA-[C] |==|  0.78691
USER: genes 5 Torsion [N]-CA--C-[O] |==|  0.62526
USER: genes 6 Torsion [N]-CA--CB-[CG] |==|  0.10232
USER: genes 7 Torsion [CA]-CB--CG-[CD1] |==|  0.64530
USER: genes 8 Torsion [N]-CA--CB-[CG] |==|  0.56526
USER: genes 9 Torsion [CA]-CB--CG-[OD1] |==|  0.49565
USER: genes 10 Torsion [N]-C--CA-[N] |==|  0.34692
USER: genes 11 Torsion [C]-CA--N-[C] |==|  0.73181
USER: genes 12 Torsion [N]-C--CA-[N] |==|  0.86825
USER: genes 13 Torsion [C]-CA--CB-[OG] |==|  0.55751
USER: genes 14 Torsion [CA]-CB--OG-[HG] |==|  0.47353
USER: genes 15 Torsion [C]-CA--N-[C] |==|  0.83040
USER: genes 16 Torsion [C]-CA--CB-[CG] |==|  0.13423
USER: genes 17 Torsion [CA]-CB--CG-[CD2] |==|  0.52428
ROOT
ATOM      1  C   LEU I   2       3.121   3.210  10.578  1.00 17.40 LIG 0.24  C 
ATOM      2 O    LEU I   2       3.132   4.259  11.192  1.00 17.46 LIG-0.27  OA
ATOM      3  N   ASN I   3       2.902   3.108   9.280  1.00 16.24 LIG-0.35  N 
ATOM      4 H    ASN I   3       2.818   2.358   8.866  1.00 16.24 LIG 0.16  HD
ENDROOT
BRANCH 3 5
ATOM      5  CA  ASN I   3       2.783   4.266   8.434  1.00 15.86 LIG 0.18  C 
BRANCH 5 6
ATOM      6  C   ASN I   3       1.511   4.170   7.617  1.00 15.05 LIG 0.24  C 
ATOM      7  N   PHE I   4       0.739   5.265   7.650  1.00 14.49 LIG-0.34  N 
ATOM      8 H    PHE I   4       0.931   5.967   8.108  1.00 14.49 LIG 0.16  HD
ATOM      9 O    ASN I   3       1.240   3.112   6.998  1.00 16.10 LIG-0.27  OA
BRANCH 7 10
ATOM     10  CA  PHE I   4      -0.513   5.364   6.906  1.00 12.92 LIG 0.19  C 
BRANCH 10 11
ATOM     11  C   PHE I   4      -0.194   5.612   5.453  1.00 14.32 LIG 0.20  C 
ATOM     12 OXT  PHE I   4       0.611   4.868   4.913  1.00 16.91 LIG-0.65  OA
ATOM     13 O    PHE I   4      -0.806   6.468   4.811  1.00 15.04 LIG-0.65  OA
ENDBRANCH 10 11
BRANCH 10 14
ATOM     14  CB  PHE I   4      -1.357   6.495   7.466  1.00 13.46 LIG 0.07  C 
BRANCH 14 15
ATOM     15  CG  PHE I   4      -0.485   7.652   7.884  1.00 17.43 LIG-0.06  A 
ATOM     16  CD1 PHE I   4      -0.612   8.182   9.176  1.00 19.70 LIG 0.01  A 
ATOM     17  CE1 PHE I   4       0.202   9.229   9.570  1.00 18.46 LIG 0.00  A 
ATOM     18  CZ  PHE I   4       1.139   9.748   8.685  1.00 20.27 LIG 0.00  A 
ATOM     19  CE2 PHE I   4       1.273   9.229   7.399  1.00 19.92 LIG 0.00  A 
ATOM     20  CD2 PHE I   4       0.457   8.174   6.989  1.00 19.48 LIG 0.01  A 
ENDBRANCH 14 15
ENDBRANCH 10 14
ENDBRANCH 7 10
ENDBRANCH 5 6
BRANCH 5 21
ATOM     21  CB  ASN I   3       4.004   4.322   7.529  1.00 15.02 LIG 0.14  C 
BRANCH 21 22
ATOM     22  CG  ASN I   3       4.221   5.760   7.063  1.00 21.09 LIG 0.22  C 
ATOM     23  ND2 ASN I   3       3.313   6.684   7.339  1.00 19.37 LIG-0.37  N 
ATOM     24 22HD ASN I   3       2.643   6.492   7.841  1.00 19.37 LIG 0.16  HD
ATOM     25 21HD ASN I   3       3.395   7.477   7.016  1.00 19.37 LIG 0.16  HD
ATOM     26 OD1  ASN I   3       5.163   6.078   6.341  1.00 22.58 LIG-0.27  OA
ENDBRANCH 21 22
ENDBRANCH 5 21
ENDBRANCH 3 5
BRANCH 1 27
ATOM     27  CA  LEU I   2       3.430   1.966  11.303  1.00 19.34 LIG 0.18  C 
BRANCH 27 28
ATOM     28  N   LEU I   2       4.688   2.230  11.964  1.00 20.62 LIG-0.35  N 
ATOM     29 H    LEU I   2       4.635   2.644  12.716  1.00 20.62 LIG 0.16  HD
ATOM     30  C   SER I   1       5.816   1.828  11.385  1.00 28.29 LIG 0.24  C 
ATOM     31 O    SER I   1       5.833   1.297  10.252  1.00 21.19 LIG-0.27  OA
BRANCH 30 32
ATOM     32  CA  SER I   1       7.060   2.014  12.246  1.00 32.71 LIG 0.20  C 
BRANCH 32 33
ATOM     33  CB  SER I   1       7.013   0.978  13.333  1.00 35.86 LIG 0.20  C 
BRANCH 33 34
ATOM     34 OG   SER I   1       7.884   1.609  14.229  1.00 39.84 LIG-0.40  OA
ATOM     35 HG   SER I   1       7.867   1.207  14.966  1.00 39.84 LIG 0.21  HD
ENDBRANCH 33 34
ENDBRANCH 32 33
BRANCH 32 36
ATOM     36  N   SER I   1       6.894   3.385  12.716  1.00 41.50 LIG-0.35  N 
ATOM     37  C   ACE I   0       6.819   4.545  12.034  1.00 42.61 LIG 0.21  C 
ATOM     38 O    ACE I   0       6.807   4.675  10.809  0.00 41.61 LIG-0.27  OA
ATOM     39  CH3 ACE I   0       6.681   5.760  12.937  0.00 41.50 LIG 0.12  C 
ATOM     40 H    SER I   1       6.840   3.398  13.574  1.00 41.50 LIG 0.16  HD
ENDBRANCH 32 36
ENDBRANCH 30 32
ENDBRANCH 27 28
BRANCH 27 41
ATOM     41  CB  LEU I   2       2.350   1.670  12.286  1.00 22.58 LIG 0.04  C 
BRANCH 41 42
ATOM     42  CG  LEU I   2       0.975   1.789  11.618  1.00 27.49 LIG-0.02  C 
ATOM     43  CD2 LEU I   2      -0.154   1.701  12.658  1.00 25.10 LIG 0.01  C 
ATOM     44  CD1 LEU I   2       0.886   0.724  10.546  1.00 31.16 LIG 0.01  C 
ENDBRANCH 41 42
ENDBRANCH 27 41
ENDBRANCH 1 27
TORSDOF 16
ENDMDL
MODEL 58
USER: ADFR SOLUTION from run 80
USER: SCORE 15.042640 LL:  -3.211 LR: -12.540 RR:   0.000 FEB:  -7.767
USER: RMSD 2.051656
USER: SEED 79
USER: STATUS no improvement in best in 9 clusters for 5 generations
USER: GENES 18
USER: genes 0 Translation |==|  0.46401 0.49176 0.48565
USER: genes 1 Rotation |==|  0.49047 0.44107 0.52240 0.99592
USER: genes 2 Torsion [C]-N--CA-[C] |==|  0.61795
USER: genes 3 Torsion [N]-CA--C-[N] |==|  0.85411
USER: genes 4 Torsion [C]-N--CA-[C] |==|  0.19114
USER: genes 5 Torsion [N]-CA--C-[O] |==|  0.27871
USER: genes 6 Torsion [N]-CA--CB-[CG] |==|  0.77049
USER: genes 7 Torsion [CA]-CB--CG-[CD1] |==|  0.61326
USER: genes 8 Torsion [N]-CA--CB-[CG] |==|  0.74095
USER: genes 9 Torsion [CA]-CB--CG-[OD1] |==|  0.87597
USER: genes 10 Torsion [N]-C--CA-[N] |==|  0.38547
USER: genes 11 Torsion [C]-CA--N-[C] |==|  0.72779
USER: genes 12 Torsion [N]-C--CA-[N] |==|  0.42736
USER: genes 13 Torsion [C]-CA--CB-[OG] |==|  0.24040
USER: genes 14 Torsion [CA]-CB--OG-[HG] |==|  0.99104
USER: genes 15 Torsion [C]-CA--N-[C] |==|  0.81432
USER: genes 16 Torsion [C]-CA--CB-[CG] |==|  0.26910
USER: genes 17 Torsion [CA]-CB--CG-[CD2] |==|  0.43510
ROOT
ATOM      1  C   LEU I   2       3.267   3.368  10.175  1.00 17.40 LIG 0.24  C 
ATOM      2 O    LEU I   2       2.750   4.257  10.825  1.00 17.46 LIG-0.27  OA
ATOM      3  N   ASN I   3       3.274   2.095  10.527  1.00 16.24 LIG-0.35  N 
ATOM      4 H    ASN I   3       3.708   1.485  10.104  1.00 16.24 LIG 0.16  HD
ENDROOT
BRANCH 3 5
ATOM      5  CA  ASN I   3       2.541   1.617  11.669  1.00 15.86 LIG 0.18  C 
BRANCH 5 6
ATOM      6  C   ASN I   3       3.391   0.628  12.440  1.00 15.05 LIG 0.24  C 
ATOM      7  N   PHE I   4       3.897  -0.371  11.705  1.00 14.49 LIG-0.34  N 
ATOM      8 H    PHE I   4       3.747  -0.464  10.863  1.00 14.49 LIG 0.16  HD
ATOM      9 O    ASN I   3       3.552   0.769  13.677  1.00 16.10 LIG-0.27  OA
BRANCH 7 10
ATOM     10  CA  PHE I   4       4.759  -1.404  12.273  1.00 12.92 LIG 0.19  C 
BRANCH 10 11
ATOM     11  C   PHE I   4       3.936  -2.266  13.197  1.00 14.32 LIG 0.20  C 
ATOM     12 OXT  PHE I   4       3.616  -1.794  14.278  1.00 16.91 LIG-0.65  OA
ATOM     13 O    PHE I   4       3.513  -3.362  12.826  1.00 15.04 LIG-0.65  OA
ENDBRANCH 10 11
BRANCH 10 14
ATOM     14  CB  PHE I   4       5.907  -0.759  13.028  1.00 13.46 LIG 0.07  C 
BRANCH 14 15
ATOM     15  CG  PHE I   4       7.014  -0.369  12.082  1.00 17.43 LIG-0.06  A 
ATOM     16  CD1 PHE I   4       8.349  -0.576  12.457  1.00 19.70 LIG 0.01  A 
ATOM     17  CE1 PHE I   4       9.366  -0.240  11.582  1.00 18.46 LIG 0.00  A 
ATOM     18  CZ  PHE I   4       9.060   0.299  10.338  1.00 20.27 LIG 0.00  A 
ATOM     19  CE2 PHE I   4       7.738   0.508   9.955  1.00 19.92 LIG 0.00  A 
ATOM     20  CD2 PHE I   4       6.702   0.176  10.830  1.00 19.48 LIG 0.01  A 
ENDBRANCH 14 15
ENDBRANCH 10 14
ENDBRANCH 7 10
ENDBRANCH 5 6
BRANCH 5 21
ATOM     21  CB  ASN I   3       1.263   0.959  11.173  1.00 15.02 LIG 0.14  C 
BRANCH 21 22
ATOM     22  CG  ASN I   3       0.133   1.985  11.175  1.00 21.09 LIG 0.22  C 
ATOM     23  ND2 ASN I   3      -0.608   2.150  10.090  1.00 19.37 LIG-0.37  N 
ATOM     24 22HD ASN I   3      -0.501   1.630   9.414  1.00 19.37 LIG 0.16  HD
ATOM     25 21HD ASN I   3      -1.196   2.777  10.062  1.00 19.37 LIG 0.16  HD
ATOM     26 OD1  ASN I   3      -0.053   2.750  12.119  1.00 22.58 LIG-0.27  OA
ENDBRANCH 21 22
ENDBRANCH 5 21
ENDBRANCH 3 5
BRANCH 1 27
ATOM     27  CA  LEU I   2       3.879   3.706   8.879  1.00 19.34 LIG 0.18  C 
BRANCH 27 28
ATOM     28  N   LEU I   2       2.989   4.687   8.299  1.00 20.62 LIG-0.35  N 
ATOM     29 H    LEU I   2       3.095   5.495   8.571  1.00 20.62 LIG 0.16  HD
ATOM     30  C   SER I   1       2.088   4.288   7.407  1.00 28.29 LIG 0.24  C 
ATOM     31 O    SER I   1       1.930   3.083   7.107  1.00 21.19 LIG-0.27  OA
BRANCH 30 32
ATOM     32  CA  SER I   1       1.318   5.426   6.745  1.00 32.71 LIG 0.20  C 
BRANCH 32 33
ATOM     33  CB  SER I   1       0.158   5.762   7.638  1.00 35.86 LIG 0.20  C 
BRANCH 33 34
ATOM     34 OG   SER I   1       0.823   6.665   8.475  1.00 39.84 LIG-0.40  OA
ATOM     35 HG   SER I   1       1.634   6.703   8.259  1.00 39.84 LIG 0.21  HD
ENDBRANCH 33 34
ENDBRANCH 32 33
BRANCH 32 36
ATOM     36  N   SER I   1       0.942   4.829   5.469  1.00 41.50 LIG-0.35  N 
ATOM     37  C   ACE I   0       1.697   4.444   4.421  1.00 42.61 LIG 0.21  C 
ATOM     38 O    ACE I   0       2.928   4.459   4.360  0.00 41.61 LIG-0.27  OA
ATOM     39  CH3 ACE I   0       0.877   3.896   3.265  0.00 41.50 LIG 0.12  C 
ATOM     40 H    SER I   1       0.089   4.727   5.432  1.00 41.50 LIG 0.16  HD
ENDBRANCH 32 36
ENDBRANCH 30 32
ENDBRANCH 27 28
BRANCH 27 41
ATOM     41  CB  LEU I   2       5.242   4.269   9.093  1.00 22.58 LIG 0.04  C 
BRANCH 41 42
ATOM     42  CG  LEU I   2       6.303   3.175   8.918  1.00 27.49 LIG-0.02  C 
ATOM     43  CD2 LEU I   2       7.669   3.782   8.558  1.00 25.10 LIG 0.01  C 
ATOM     44  CD1 LEU I   2       5.792   2.194   7.885  1.00 31.16 LIG 0.01  C 
ENDBRANCH 41 42
ENDBRANCH 27 41
ENDBRANCH 1 27
TORSDOF 16
ENDMDL
MODEL 59
USER: ADFR SOLUTION from run 161
USER: SCORE 14.827179 LL:  -3.565 LR: -12.525 RR:   0.000 FEB:  -7.753
USER: RMSD 5.272566
USER: SEED 160
USER: STATUS no improvement in best in 9 clusters for 5 generations
USER: GENES 18
USER: genes 0 Translation |==|  0.44113 0.49182 0.50590
USER: genes 1 Rotation |==|  0.73511 0.53879 0.93189 0.58178
USER: genes 2 Torsion [C]-N--CA-[C] |==|  0.19444
USER: genes 3 Torsion [N]-CA--C-[N] |==|  0.53007
USER: genes 4 Torsion [C]-N--CA-[C] |==|  0.19702
USER: genes 5 Torsion [N]-CA--C-[O] |==|  0.11479
USER: genes 6 Torsion [N]-CA--CB-[CG] |==|  0.81036
USER: genes 7 Torsion [CA]-CB--CG-[CD1] |==|  0.26967
USER: genes 8 Torsion [N]-CA--CB-[CG] |==|  0.61165
USER: genes 9 Torsion [CA]-CB--CG-[OD1] |==|  0.73266
USER: genes 10 Torsion [N]-C--CA-[N] |==|  0.07728
USER: genes 11 Torsion [C]-CA--N-[C] |==|  0.19413
USER: genes 12 Torsion [N]-C--CA-[N] |==|  0.01203
USER: genes 13 Torsion [C]-CA--CB-[OG] |==|  0.69566
USER: genes 14 Torsion [CA]-CB--OG-[HG] |==|  0.17592
USER: genes 15 Torsion [C]-CA--N-[C] |==|  0.66982
USER: genes 16 Torsion [C]-CA--CB-[CG] |==|  0.28586
USER: genes 17 Torsion [CA]-CB--CG-[CD2] |==|  0.05960
ROOT
ATOM      1  C   LEU I   2       2.872   3.369  10.585  1.00 17.40 LIG 0.24  C 
ATOM      2 O    LEU I   2       3.470   2.420  11.058  1.00 17.46 LIG-0.27  OA
ATOM      3  N   ASN I   3       3.413   4.552  10.358  1.00 16.24 LIG-0.35  N 
ATOM      4 H    ASN I   3       2.966   5.240  10.098  1.00 16.24 LIG 0.16  HD
ENDROOT
BRANCH 3 5
ATOM      5  CA  ASN I   3       4.821   4.792  10.530  1.00 15.86 LIG 0.18  C 
BRANCH 5 6
ATOM      6  C   ASN I   3       5.597   4.068   9.449  1.00 15.05 LIG 0.24  C 
ATOM      7  N   PHE I   4       6.922   4.031   9.638  1.00 14.49 LIG-0.34  N 
ATOM      8 H    PHE I   4       7.316   4.398  10.309  1.00 14.49 LIG 0.16  HD
ATOM      9 O    ASN I   3       4.993   3.584   8.461  1.00 16.10 LIG-0.27  OA
BRANCH 7 10
ATOM     10  CA  PHE I   4       7.828   3.357   8.712  1.00 12.92 LIG 0.19  C 
BRANCH 10 11
ATOM     11  C   PHE I   4       7.897   4.156   7.436  1.00 14.32 LIG 0.20  C 
ATOM     12 OXT  PHE I   4       7.786   3.551   6.380  1.00 16.91 LIG-0.65  OA
ATOM     13 O    PHE I   4       7.954   5.387   7.466  1.00 15.04 LIG-0.65  OA
ENDBRANCH 10 11
BRANCH 10 14
ATOM     14  CB  PHE I   4       7.325   1.951   8.433  1.00 13.46 LIG 0.07  C 
BRANCH 14 15
ATOM     15  CG  PHE I   4       7.442   1.090   9.665  1.00 17.43 LIG-0.06  A 
ATOM     16  CD1 PHE I   4       6.324   0.910  10.492  1.00 19.70 LIG 0.01  A 
ATOM     17  CE1 PHE I   4       6.423   0.102  11.611  1.00 18.46 LIG 0.00  A 
ATOM     18  CZ  PHE I   4       7.626  -0.525  11.908  1.00 20.27 LIG 0.00  A 
ATOM     19  CE2 PHE I   4       8.743  -0.353  11.094  1.00 19.92 LIG 0.00  A 
ATOM     20  CD2 PHE I   4       8.658   0.460   9.963  1.00 19.48 LIG 0.01  A 
ENDBRANCH 14 15
ENDBRANCH 10 14
ENDBRANCH 7 10
ENDBRANCH 5 6
BRANCH 5 21
ATOM     21  CB  ASN I   3       5.223   4.294  11.910  1.00 15.02 LIG 0.14  C 
BRANCH 21 22
ATOM     22  CG  ASN I   3       6.209   5.279  12.534  1.00 21.09 LIG 0.22  C 
ATOM     23  ND2 ASN I   3       5.763   6.410  13.059  1.00 19.37 LIG-0.37  N 
ATOM     24 22HD ASN I   3       4.918   6.555  13.114  1.00 19.37 LIG 0.16  HD
ATOM     25 21HD ASN I   3       6.319   7.000  13.345  1.00 19.37 LIG 0.16  HD
ATOM     26 OD1  ASN I   3       7.425   5.113  12.475  1.00 22.58 LIG-0.27  OA
ENDBRANCH 21 22
ENDBRANCH 5 21
ENDBRANCH 3 5
BRANCH 1 27
ATOM     27  CA  LEU I   2       1.469   3.186  10.179  1.00 19.34 LIG 0.18  C 
BRANCH 27 28
ATOM     28  N   LEU I   2       1.284   4.103   9.077  1.00 20.62 LIG-0.35  N 
ATOM     29 H    LEU I   2       0.780   4.782   9.236  1.00 20.62 LIG 0.16  HD
ATOM     30  C   SER I   1       1.887   3.848   7.920  1.00 28.29 LIG 0.24  C 
ATOM     31 O    SER I   1       2.548   2.802   7.726  1.00 21.19 LIG-0.27  OA
BRANCH 30 32
ATOM     32  CA  SER I   1       1.754   4.962   6.887  1.00 32.71 LIG 0.20  C 
BRANCH 32 33
ATOM     33  CB  SER I   1       3.141   5.345   6.459  1.00 35.86 LIG 0.20  C 
BRANCH 33 34
ATOM     34 OG   SER I   1       3.185   6.602   7.073  1.00 39.84 LIG-0.40  OA
ATOM     35 HG   SER I   1       3.126   6.510   7.906  1.00 39.84 LIG 0.21  HD
ENDBRANCH 33 34
ENDBRANCH 32 33
BRANCH 32 36
ATOM     36  N   SER I   1       1.054   5.991   7.649  1.00 41.50 LIG-0.35  N 
ATOM     37  C   ACE I   0      -0.147   6.568   7.449  1.00 42.61 LIG 0.21  C 
ATOM     38 O    ACE I   0      -0.965   6.275   6.575  0.00 41.61 LIG-0.27  OA
ATOM     39  CH3 ACE I   0      -0.474   7.636   8.480  0.00 41.50 LIG 0.12  C 
ATOM     40 H    SER I   1       1.529   6.232   8.323  1.00 41.50 LIG 0.16  HD
ENDBRANCH 32 36
ENDBRANCH 30 32
ENDBRANCH 27 28
BRANCH 27 41
ATOM     41  CB  LEU I   2       1.243   1.775   9.757  1.00 22.58 LIG 0.04  C 
BRANCH 41 42
ATOM     42  CG  LEU I   2       0.516   0.999  10.862  1.00 27.49 LIG-0.02  C 
ATOM     43  CD2 LEU I   2      -0.225   1.953  11.812  1.00 25.10 LIG 0.01  C 
ATOM     44  CD1 LEU I   2       1.536   0.127  11.564  1.00 31.16 LIG 0.01  C 
ENDBRANCH 41 42
ENDBRANCH 27 41
ENDBRANCH 1 27
TORSDOF 16
ENDMDL
MODEL 60
USER: ADFR SOLUTION from run 165
USER: SCORE 15.215060 LL:  -4.017 LR: -12.507 RR:   0.000 FEB:  -7.735
USER: RMSD 4.560882
USER: SEED 164
USER: STATUS no improvement in best in 11 clusters for 5 generations
USER: GENES 18
USER: genes 0 Translation |==|  0.47378 0.47276 0.51547
USER: genes 1 Rotation |==|  0.56390 0.52922 0.38061 0.98043
USER: genes 2 Torsion [C]-N--CA-[C] |==|  0.72937
USER: genes 3 Torsion [N]-CA--C-[N] |==|  0.92347
USER: genes 4 Torsion [C]-N--CA-[C] |==|  0.21992
USER: genes 5 Torsion [N]-CA--C-[O] |==|  0.42095
USER: genes 6 Torsion [N]-CA--CB-[CG] |==|  0.80613
USER: genes 7 Torsion [CA]-CB--CG-[CD1] |==|  0.12335
USER: genes 8 Torsion [N]-CA--CB-[CG] |==|  0.78346
USER: genes 9 Torsion [CA]-CB--CG-[OD1] |==|  0.80860
USER: genes 10 Torsion [N]-C--CA-[N] |==|  0.83547
USER: genes 11 Torsion [C]-CA--N-[C] |==|  0.70008
USER: genes 12 Torsion [N]-C--CA-[N] |==|  0.76513
USER: genes 13 Torsion [C]-CA--CB-[OG] |==|  0.55003
USER: genes 14 Torsion [CA]-CB--OG-[HG] |==|  0.26245
USER: genes 15 Torsion [C]-CA--N-[C] |==|  0.71653
USER: genes 16 Torsion [C]-CA--CB-[CG] |==|  0.58109
USER: genes 17 Torsion [CA]-CB--CG-[CD2] |==|  0.82254
ROOT
ATOM      1  C   LEU I   2       3.436   3.040  10.779  1.00 17.40 LIG 0.24  C 
ATOM      2 O    LEU I   2       3.666   3.712  11.767  1.00 17.46 LIG-0.27  OA
ATOM      3  N   ASN I   3       2.816   1.875  10.798  1.00 16.24 LIG-0.35  N 
ATOM      4 H    ASN I   3       2.726   1.370  10.107  1.00 16.24 LIG 0.16  HD
ENDROOT
BRANCH 3 5
ATOM      5  CA  ASN I   3       2.228   1.344  12.000  1.00 15.86 LIG 0.18  C 
BRANCH 5 6
ATOM      6  C   ASN I   3       3.186   0.362  12.643  1.00 15.05 LIG 0.24  C 
ATOM      7  N   PHE I   4       4.022  -0.247  11.791  1.00 14.49 LIG-0.34  N 
ATOM      8 H    PHE I   4       4.016  -0.111  10.942  1.00 14.49 LIG 0.16  HD
ATOM      9 O    ASN I   3       3.136   0.156  13.880  1.00 16.10 LIG-0.27  OA
BRANCH 7 10
ATOM     10  CA  PHE I   4       5.030  -1.206  12.233  1.00 12.92 LIG 0.19  C 
BRANCH 10 11
ATOM     11  C   PHE I   4       4.359  -2.536  12.473  1.00 14.32 LIG 0.20  C 
ATOM     12 OXT  PHE I   4       3.158  -2.534  12.696  1.00 16.91 LIG-0.65  OA
ATOM     13 O    PHE I   4       4.985  -3.589  12.341  1.00 15.04 LIG-0.65  OA
ENDBRANCH 10 11
BRANCH 10 14
ATOM     14  CB  PHE I   4       5.693  -0.707  13.505  1.00 13.46 LIG 0.07  C 
BRANCH 14 15
ATOM     15  CG  PHE I   4       6.559   0.494  13.218  1.00 17.43 LIG-0.06  A 
ATOM     16  CD1 PHE I   4       6.072   1.514  12.389  1.00 19.70 LIG 0.01  A 
ATOM     17  CE1 PHE I   4       6.856   2.627  12.142  1.00 18.46 LIG 0.00  A 
ATOM     18  CZ  PHE I   4       8.117   2.727  12.716  1.00 20.27 LIG 0.00  A 
ATOM     19  CE2 PHE I   4       8.610   1.719  13.542  1.00 19.92 LIG 0.00  A 
ATOM     20  CD2 PHE I   4       7.830   0.590  13.797  1.00 19.48 LIG 0.01  A 
ENDBRANCH 14 15
ENDBRANCH 10 14
ENDBRANCH 7 10
ENDBRANCH 5 6
BRANCH 5 21
ATOM     21  CB  ASN I   3       0.922   0.659  11.628  1.00 15.02 LIG 0.14  C 
BRANCH 21 22
ATOM     22  CG  ASN I   3      -0.159   1.717  11.414  1.00 21.09 LIG 0.22  C 
ATOM     23  ND2 ASN I   3      -0.549   2.018  10.186  1.00 19.37 LIG-0.37  N 
ATOM     24 22HD ASN I   3      -0.250   1.569   9.517  1.00 19.37 LIG 0.16  HD
ATOM     25 21HD ASN I   3      -1.103   2.663  10.056  1.00 19.37 LIG 0.16  HD
ATOM     26 OD1  ASN I   3      -0.612   2.385  12.341  1.00 22.58 LIG-0.27  OA
ENDBRANCH 21 22
ENDBRANCH 5 21
ENDBRANCH 3 5
BRANCH 1 27
ATOM     27  CA  LEU I   2       3.813   3.575   9.460  1.00 19.34 LIG 0.18  C 
BRANCH 27 28
ATOM     28  N   LEU I   2       4.683   2.569   8.892  1.00 20.62 LIG-0.35  N 
ATOM     29 H    LEU I   2       4.298   1.843   8.640  1.00 20.62 LIG 0.16  HD
ATOM     30  C   SER I   1       5.984   2.823   8.798  1.00 28.29 LIG 0.24  C 
ATOM     31 O    SER I   1       6.496   3.871   9.253  1.00 21.19 LIG-0.27  OA
BRANCH 30 32
ATOM     32  CA  SER I   1       6.773   1.763   8.038  1.00 32.71 LIG 0.20  C 
BRANCH 32 33
ATOM     33  CB  SER I   1       5.896   1.260   6.928  1.00 35.86 LIG 0.20  C 
BRANCH 33 34
ATOM     34 OG   SER I   1       6.588   0.072   6.667  1.00 39.84 LIG-0.40  OA
ATOM     35 HG   SER I   1       6.236  -0.558   7.097  1.00 39.84 LIG 0.21  HD
ENDBRANCH 33 34
ENDBRANCH 32 33
BRANCH 32 36
ATOM     36  N   SER I   1       7.038   0.782   9.085  1.00 41.50 LIG-0.35  N 
ATOM     37  C   ACE I   0       8.154   0.541   9.801  1.00 42.61 LIG 0.21  C 
ATOM     38 O    ACE I   0       9.206   1.182   9.758  0.00 41.61 LIG-0.27  OA
ATOM     39  CH3 ACE I   0       7.998  -0.615  10.776  0.00 41.50 LIG 0.12  C 
ATOM     40 H    SER I   1       6.336   0.308   9.229  1.00 41.50 LIG 0.16  HD
ENDBRANCH 32 36
ENDBRANCH 30 32
ENDBRANCH 27 28
BRANCH 27 41
ATOM     41  CB  LEU I   2       2.594   3.775   8.626  1.00 22.58 LIG 0.04  C 
BRANCH 41 42
ATOM     42  CG  LEU I   2       2.934   3.617   7.139  1.00 27.49 LIG-0.02  C 
ATOM     43  CD2 LEU I   2       3.917   4.705   6.678  1.00 25.10 LIG 0.01  C 
ATOM     44  CD1 LEU I   2       1.635   3.615   6.364  1.00 31.16 LIG 0.01  C 
ENDBRANCH 41 42
ENDBRANCH 27 41
ENDBRANCH 1 27
TORSDOF 16
ENDMDL
MODEL 61
USER: ADFR SOLUTION from run 8
USER: SCORE 16.242576 LL:  -4.116 LR: -12.508 RR:   0.000 FEB:  -7.735
USER: RMSD 7.902801
USER: SEED 129753
USER: STATUS searching
USER: GENES 18
USER: genes 0 Translation |==|  0.47333 0.32818 0.59977
USER: genes 1 Rotation |==|  0.61410 0.16375 0.16187 0.59788
USER: genes 2 Torsion [C]-N--CA-[C] |==|  0.15943
USER: genes 3 Torsion [N]-CA--C-[N] |==|  0.10149
USER: genes 4 Torsion [C]-N--CA-[C] |==|  0.72217
USER: genes 5 Torsion [N]-CA--C-[O] |==|  0.93484
USER: genes 6 Torsion [N]-CA--CB-[CG] |==|  0.20375
USER: genes 7 Torsion [CA]-CB--CG-[CD1] |==|  0.34282
USER: genes 8 Torsion [N]-CA--CB-[CG] |==|  0.80358
USER: genes 9 Torsion [CA]-CB--CG-[OD1] |==|  0.13264
USER: genes 10 Torsion [N]-C--CA-[N] |==|  0.34636
USER: genes 11 Torsion [C]-CA--N-[C] |==|  0.63955
USER: genes 12 Torsion [N]-C--CA-[N] |==|  0.09430
USER: genes 13 Torsion [C]-CA--CB-[OG] |==|  0.55497
USER: genes 14 Torsion [CA]-CB--OG-[HG] |==|  0.96747
USER: genes 15 Torsion [C]-CA--N-[C] |==|  0.18333
USER: genes 16 Torsion [C]-CA--CB-[CG] |==|  0.53740
USER: genes 17 Torsion [CA]-CB--CG-[CD2] |==|  0.85774
ROOT
ATOM      1  C   LEU I   2       3.428   0.546  12.486  1.00 17.40 LIG 0.24  C 
ATOM      2 O    LEU I   2       3.164   1.319  13.388  1.00 17.46 LIG-0.27  OA
ATOM      3  N   ASN I   3       3.333   0.838  11.202  1.00 16.24 LIG-0.35  N 
ATOM      4 H    ASN I   3       3.445   0.264  10.572  1.00 16.24 LIG 0.16  HD
ENDROOT
BRANCH 3 5
ATOM      5  CA  ASN I   3       3.028   2.167  10.744  1.00 15.86 LIG 0.18  C 
BRANCH 5 6
ATOM      6  C   ASN I   3       4.057   3.140  11.283  1.00 15.05 LIG 0.24  C 
ATOM      7  N   PHE I   4       5.304   2.657  11.350  1.00 14.49 LIG-0.34  N 
ATOM      8 H    PHE I   4       5.516   1.855  11.122  1.00 14.49 LIG 0.16  HD
ATOM      9 O    ASN I   3       3.704   4.288  11.649  1.00 16.10 LIG-0.27  OA
BRANCH 7 10
ATOM     10  CA  PHE I   4       6.430   3.458  11.822  1.00 12.92 LIG 0.19  C 
BRANCH 10 11
ATOM     11  C   PHE I   4       7.196   3.967  10.627  1.00 14.32 LIG 0.20  C 
ATOM     12 OXT  PHE I   4       7.958   4.908  10.799  1.00 16.91 LIG-0.65  OA
ATOM     13 O    PHE I   4       7.133   3.383   9.543  1.00 15.04 LIG-0.65  OA
ENDBRANCH 10 11
BRANCH 10 14
ATOM     14  CB  PHE I   4       7.328   2.611  12.707  1.00 13.46 LIG 0.07  C 
BRANCH 14 15
ATOM     15  CG  PHE I   4       8.116   1.626  11.880  1.00 17.43 LIG-0.06  A 
ATOM     16  CD1 PHE I   4       9.516   1.624  11.954  1.00 19.70 LIG 0.01  A 
ATOM     17  CE1 PHE I   4      10.239   0.707  11.213  1.00 18.46 LIG 0.00  A 
ATOM     18  CZ  PHE I   4       9.576  -0.205  10.401  1.00 20.27 LIG 0.00  A 
ATOM     19  CE2 PHE I   4       8.186  -0.211  10.320  1.00 19.92 LIG 0.00  A 
ATOM     20  CD2 PHE I   4       7.444   0.710  11.061  1.00 19.48 LIG 0.01  A 
ENDBRANCH 14 15
ENDBRANCH 10 14
ENDBRANCH 7 10
ENDBRANCH 5 6
BRANCH 5 21
ATOM     21  CB  ASN I   3       1.633   2.530  11.231  1.00 15.02 LIG 0.14  C 
BRANCH 21 22
ATOM     22  CG  ASN I   3       0.601   1.710  10.462  1.00 21.09 LIG 0.22  C 
ATOM     23  ND2 ASN I   3      -0.516   2.285  10.043  1.00 19.37 LIG-0.37  N 
ATOM     24 22HD ASN I   3      -0.625   3.132  10.138  1.00 19.37 LIG 0.16  HD
ATOM     25 21HD ASN I   3      -1.132   1.811   9.675  1.00 19.37 LIG 0.16  HD
ATOM     26 OD1  ASN I   3       0.715   0.496  10.306  1.00 22.58 LIG-0.27  OA
ENDBRANCH 21 22
ENDBRANCH 5 21
ENDBRANCH 3 5
BRANCH 1 27
ATOM     27  CA  LEU I   2       3.946  -0.789  12.831  1.00 19.34 LIG 0.18  C 
BRANCH 27 28
ATOM     28  N   LEU I   2       5.067  -0.531  13.707  1.00 20.62 LIG-0.35  N 
ATOM     29 H    LEU I   2       4.913   0.003  14.363  1.00 20.62 LIG 0.16  HD
ATOM     30  C   SER I   1       6.231  -1.120  13.451  1.00 28.29 LIG 0.24  C 
ATOM     31 O    SER I   1       6.414  -1.828  12.436  1.00 21.19 LIG-0.27  OA
BRANCH 30 32
ATOM     32  CA  SER I   1       7.289  -0.905  14.528  1.00 32.71 LIG 0.20  C 
BRANCH 32 33
ATOM     33  CB  SER I   1       8.244  -2.062  14.456  1.00 35.86 LIG 0.20  C 
BRANCH 33 34
ATOM     34 OG   SER I   1       8.787  -1.935  15.740  1.00 39.84 LIG-0.40  OA
ATOM     35 HG   SER I   1       8.552  -1.199  16.072  1.00 39.84 LIG 0.21  HD
ENDBRANCH 33 34
ENDBRANCH 32 33
BRANCH 32 36
ATOM     36  N   SER I   1       6.477  -0.871  15.740  1.00 41.50 LIG-0.35  N 
ATOM     37  C   ACE I   0       5.741  -1.832  16.332  1.00 42.61 LIG 0.21  C 
ATOM     38 O    ACE I   0       5.660  -3.011  15.985  0.00 41.61 LIG-0.27  OA
ATOM     39  CH3 ACE I   0       5.016  -1.345  17.577  0.00 41.50 LIG 0.12  C 
ATOM     40 H    SER I   1       6.509  -0.088  16.094  1.00 41.50 LIG 0.16  HD
ENDBRANCH 32 36
ENDBRANCH 30 32
ENDBRANCH 27 28
BRANCH 27 41
ATOM     41  CB  LEU I   2       2.888  -1.581  13.519  1.00 22.58 LIG 0.04  C 
BRANCH 41 42
ATOM     42  CG  LEU I   2       3.497  -2.826  14.176  1.00 27.49 LIG-0.02  C 
ATOM     43  CD2 LEU I   2       4.354  -3.616  13.174  1.00 25.10 LIG 0.01  C 
ATOM     44  CD1 LEU I   2       2.366  -3.638  14.770  1.00 31.16 LIG 0.01  C 
ENDBRANCH 41 42
ENDBRANCH 27 41
ENDBRANCH 1 27
TORSDOF 16
ENDMDL
