MODEL 1
USER: ADFR SOLUTION from run 7
USER: SCORE 20.472399 LL:  -4.516 LR: -16.999 RR:   0.000 FEB: -11.332
USER: RMSD 8.214718
USER: SEED 531098
USER: STATUS 1 or 2 clusters left
USER: GENES 21
USER: genes 0 Translation |==|  0.64387 0.57632 0.69055
USER: genes 1 Rotation |==|  0.17307 0.40106 0.40826 0.85343
USER: genes 2 Torsion [C]-N--CA-[C] |==|  0.19444
USER: genes 3 Torsion [N]-CA--C-[N] |==|  0.03125
USER: genes 4 Torsion [C]-N--CA-[CB] |==|  0.20785
USER: genes 5 Torsion [N]-CA--CB-[CG] |==|  0.04385
USER: genes 6 Torsion [CA]-CB--CG-[CD] |==|  0.30805
USER: genes 7 Torsion [CB]-CG--CD-[CE] |==|  0.59555
USER: genes 8 Torsion [CG]-CD--CE-[NZ] |==|  0.55853
USER: genes 9 Torsion [CD]-CE--NZ-[HZ3] |==|  0.06947
USER: genes 10 Torsion [N]-CA--C-[OXT] |==|  0.37185
USER: genes 11 Torsion [N]-CA--CB-[CG] |==|  0.58156
USER: genes 12 Torsion [CA]-CB--CG-[CD] |==|  0.37894
USER: genes 13 Torsion [CB]-CG--CD-[OE1] |==|  0.31300
USER: genes 14 Torsion [N]-C--CA-[N] |==|  0.90094
USER: genes 15 Torsion [C]-CA--CB-[CG] |==|  0.38445
USER: genes 16 Torsion [CA]-CB--CG-[CD2] |==|  0.55422
USER: genes 17 Torsion [C]-CA--N-[C] |==|  0.58348
USER: genes 18 Torsion [N]-C--CA-[N] |==|  0.77748
USER: genes 19 Torsion [C]-CA--CB-[CG] |==|  0.12182
USER: genes 20 Torsion [CA]-CB--CG-[CD2] |==|  0.64092
ROOT
ATOM      1  C   LEU I 102     -20.552  -3.683  -2.434  0.50 11.09 LIG 0.24  C 
ATOM      2 O    LEU I 102     -19.834  -3.735  -1.432  0.50  6.75 LIG-0.27  OA
ATOM      3  N   GLU I 103     -21.756  -4.227  -2.449  0.50 13.38 LIG-0.35  N 
ATOM      4 H    GLU I 103     -22.321  -4.123  -3.090  0.50 13.38 LIG 0.16  HD
ENDROOT
BRANCH 3 5
ATOM      5  CA  GLU I 103     -22.232  -5.062  -1.358  0.50 18.34 LIG 0.18  C 
BRANCH 5 6
ATOM      6  C   GLU I 103     -22.476  -4.212  -0.121  0.50 17.37 LIG 0.24  C 
ATOM      7  N   LYS I 104     -22.445  -2.910  -0.325  0.50 22.43 LIG-0.34  N 
ATOM      8 H    LYS I 104     -22.304  -2.563  -1.099  0.50 22.43 LIG 0.16  HD
ATOM      9 O    GLU I 103     -22.674  -4.741   0.972  0.50 19.80 LIG-0.27  OA
BRANCH 7 10
ATOM     10  CA  LYS I 104     -22.643  -1.930   0.719  0.50 29.15 LIG 0.18  C 
BRANCH 10 11
ATOM     11  CB  LYS I 104     -21.443  -1.813   1.608  0.50 30.49 LIG 0.04  C 
BRANCH 11 12
ATOM     12  CG  LYS I 104     -20.148  -2.387   1.135  0.50 30.90 LIG 0.00  C 
BRANCH 12 13
ATOM     13  CD  LYS I 104     -19.325  -1.144   0.893  0.50 30.43 LIG 0.03  C 
BRANCH 13 14
ATOM     14  CE  LYS I 104     -18.471  -1.477  -0.278  0.50 34.48 LIG 0.23  C 
BRANCH 14 15
ATOM     15  NZ  LYS I 104     -17.354  -0.583  -0.257  0.50 39.75 LIG-0.08  N 
ATOM     16 HZ3  LYS I 104     -17.213  -0.302   0.576  0.50 39.75 LIG 0.27  HD
ATOM     17 HZ2  LYS I 104     -17.524   0.117  -0.780  0.50 39.75 LIG 0.27  HD
ATOM     18 HZ1  LYS I 104     -16.629  -1.006  -0.554  0.50 39.75 LIG 0.27  HD
ENDBRANCH 14 15
ENDBRANCH 13 14
ENDBRANCH 12 13
ENDBRANCH 11 12
ENDBRANCH 10 11
BRANCH 10 19
ATOM     19  C   LYS I 104     -22.817  -0.584   0.043  0.50 31.87 LIG 0.20  C 
ATOM     20 OXT  LYS I 104     -23.741   0.134   0.428  0.50 33.47 LIG-0.65  OA
ATOM     21 O    LYS I 104     -22.002  -0.274  -0.839  0.50 36.52 LIG-0.65  OA
ENDBRANCH 10 19
ENDBRANCH 7 10
ENDBRANCH 5 6
BRANCH 5 22
ATOM     22  CB  GLU I 103     -21.231  -6.137  -1.017  0.50 17.76 LIG 0.04  C 
BRANCH 22 23
ATOM     23  CG  GLU I 103     -21.952  -7.331  -0.479  0.50 22.90 LIG 0.12  C 
BRANCH 23 24
ATOM     24  CD  GLU I 103     -21.465  -8.648  -1.014  0.50 27.65 LIG 0.17  C 
ATOM     25 OE1  GLU I 103     -20.892  -9.454  -0.273  0.50 28.22 LIG-0.65  OA
ATOM     26 OE2  GLU I 103     -21.689  -8.852  -2.202  0.50 31.39 LIG-0.65  OA
ENDBRANCH 23 24
ENDBRANCH 22 23
ENDBRANCH 5 22
ENDBRANCH 3 5
BRANCH 1 27
ATOM     27  CA  LEU I 102     -20.025  -2.953  -3.653  0.50 14.84 LIG 0.18  C 
BRANCH 27 28
ATOM     28  CB  LEU I 102     -20.577  -1.561  -3.548  0.50 17.78 LIG 0.04  C 
BRANCH 28 29
ATOM     29  CG  LEU I 102     -19.721  -0.368  -3.874  0.50 23.00 LIG-0.02  C 
ATOM     30  CD2 LEU I 102     -20.357   0.846  -3.228  0.50 23.20 LIG 0.01  C 
ATOM     31  CD1 LEU I 102     -19.612  -0.172  -5.378  0.50 25.90 LIG 0.01  C 
ENDBRANCH 28 29
ENDBRANCH 27 28
BRANCH 27 32
ATOM     32  N   LEU I 102     -20.545  -3.689  -4.806  0.50 17.71 LIG-0.35  N 
ATOM     33 H    LEU I 102     -21.302  -4.060  -4.632  0.50 17.71 LIG 0.16  HD
ATOM     34  C   PHE I 101     -19.975  -3.816  -6.010  0.50 15.00 LIG 0.26  C 
ATOM     35 O    PHE I 101     -18.974  -3.231  -6.421  0.50 13.40 LIG-0.27  OA
BRANCH 34 36
ATOM     36  CA  PHE I 101     -20.731  -4.682  -7.002  0.50 16.66 LIG 0.40  C 
ATOM     37  N   PHE I 101     -20.359  -6.014  -6.586  0.50 14.66 LIG 0.61  N 
BRANCH 36 38
ATOM     38  CB  PHE I 101     -22.235  -4.422  -6.859  0.50 13.93 LIG 0.09  C 
BRANCH 38 39
ATOM     39  CG  PHE I 101     -22.548  -2.933  -6.735  0.50 13.79 LIG-0.06  A 
ATOM     40  CD2 PHE I 101     -23.357  -2.484  -5.696  0.50 13.65 LIG 0.01  A 
ATOM     41  CE2 PHE I 101     -23.566  -1.117  -5.508  0.50 14.96 LIG 0.00  A 
ATOM     42  CZ  PHE I 101     -22.967  -0.208  -6.364  0.50 12.06 LIG 0.00  A 
ATOM     43  CE1 PHE I 101     -22.168  -0.654  -7.408  0.50 11.76 LIG 0.00  A 
ATOM     44  CD1 PHE I 101     -21.957  -2.015  -7.598  0.50 13.16 LIG 0.01  A 
ENDBRANCH 38 39
ENDBRANCH 36 38
ENDBRANCH 34 36
ENDBRANCH 27 32
ENDBRANCH 1 27
TORSDOF 19
ENDMDL
MODEL 2
USER: ADFR SOLUTION from run 102
USER: SCORE 18.671096 LL:  -3.154 LR: -16.633 RR:   0.000 FEB: -10.965
USER: RMSD 9.261566
USER: SEED 101
USER: STATUS no improvement in best in 8 clusters for 5 generations
USER: GENES 21
USER: genes 0 Translation |==|  0.63580 0.52515 0.61379
USER: genes 1 Rotation |==|  0.98471 0.50918 0.48904 0.62187
USER: genes 2 Torsion [C]-N--CA-[C] |==|  0.62896
USER: genes 3 Torsion [N]-CA--C-[N] |==|  0.17947
USER: genes 4 Torsion [C]-N--CA-[CB] |==|  0.53837
USER: genes 5 Torsion [N]-CA--CB-[CG] |==|  0.01780
USER: genes 6 Torsion [CA]-CB--CG-[CD] |==|  0.27163
USER: genes 7 Torsion [CB]-CG--CD-[CE] |==|  0.63566
USER: genes 8 Torsion [CG]-CD--CE-[NZ] |==|  0.58086
USER: genes 9 Torsion [CD]-CE--NZ-[HZ3] |==|  0.70770
USER: genes 10 Torsion [N]-CA--C-[OXT] |==|  0.40049
USER: genes 11 Torsion [N]-CA--CB-[CG] |==|  0.93439
USER: genes 12 Torsion [CA]-CB--CG-[CD] |==|  0.72751
USER: genes 13 Torsion [CB]-CG--CD-[OE1] |==|  0.23550
USER: genes 14 Torsion [N]-C--CA-[N] |==|  0.27804
USER: genes 15 Torsion [C]-CA--CB-[CG] |==|  0.12792
USER: genes 16 Torsion [CA]-CB--CG-[CD2] |==|  0.49949
USER: genes 17 Torsion [C]-CA--N-[C] |==|  0.83208
USER: genes 18 Torsion [N]-C--CA-[N] |==|  0.98860
USER: genes 19 Torsion [C]-CA--CB-[CG] |==|  0.35951
USER: genes 20 Torsion [CA]-CB--CG-[CD2] |==|  0.50475
ROOT
ATOM      1  C   LEU I 102     -20.667  -4.642  -4.276  0.50 11.09 LIG 0.24  C 
ATOM      2 O    LEU I 102     -19.557  -4.181  -4.551  0.50  6.75 LIG-0.27  OA
ATOM      3  N   GLU I 103     -21.716  -3.859  -4.095  0.50 13.38 LIG-0.35  N 
ATOM      4 H    GLU I 103     -22.520  -4.148  -4.003  0.50 13.38 LIG 0.16  HD
ENDROOT
BRANCH 3 5
ATOM      5  CA  GLU I 103     -21.588  -2.412  -4.037  0.50 18.34 LIG 0.18  C 
BRANCH 5 6
ATOM      6  C   GLU I 103     -22.377  -1.866  -2.857  0.50 17.37 LIG 0.24  C 
ATOM      7  N   LYS I 104     -21.940  -2.246  -1.672  0.50 22.43 LIG-0.34  N 
ATOM      8 H    LYS I 104     -21.258  -2.758  -1.569  0.50 22.43 LIG 0.16  HD
ATOM      9 O    GLU I 103     -23.350  -1.136  -3.039  0.50 19.80 LIG-0.27  OA
BRANCH 7 10
ATOM     10  CA  LYS I 104     -22.554  -1.847  -0.426  0.50 29.15 LIG 0.18  C 
BRANCH 10 11
ATOM     11  CB  LYS I 104     -21.672  -2.142   0.749  0.50 30.49 LIG 0.04  C 
BRANCH 11 12
ATOM     12  CG  LYS I 104     -20.288  -2.640   0.492  0.50 30.90 LIG 0.00  C 
BRANCH 12 13
ATOM     13  CD  LYS I 104     -19.472  -1.375   0.613  0.50 30.43 LIG 0.03  C 
BRANCH 13 14
ATOM     14  CE  LYS I 104     -18.609  -1.364  -0.598  0.50 34.48 LIG 0.23  C 
BRANCH 14 15
ATOM     15  NZ  LYS I 104     -17.409  -0.663  -0.257  0.50 39.75 LIG-0.08  N 
ATOM     16 HZ3  LYS I 104     -17.423   0.147  -0.626  0.50 39.75 LIG 0.27  HD
ATOM     17 HZ2  LYS I 104     -16.704  -1.114  -0.561  0.50 39.75 LIG 0.27  HD
ATOM     18 HZ1  LYS I 104     -17.352  -0.584   0.628  0.50 39.75 LIG 0.27  HD
ENDBRANCH 14 15
ENDBRANCH 13 14
ENDBRANCH 12 13
ENDBRANCH 11 12
ENDBRANCH 10 11
BRANCH 10 19
ATOM     19  C   LYS I 104     -22.728  -0.342  -0.472  0.50 31.87 LIG 0.20  C 
ATOM     20 OXT  LYS I 104     -23.733   0.136   0.056  0.50 33.47 LIG-0.65  OA
ATOM     21 O    LYS I 104     -21.833   0.324  -1.016  0.50 36.52 LIG-0.65  OA
ENDBRANCH 10 19
ENDBRANCH 7 10
ENDBRANCH 5 6
BRANCH 5 22
ATOM     22  CB  GLU I 103     -22.100  -1.767  -5.300  0.50 17.76 LIG 0.04  C 
BRANCH 22 23
ATOM     23  CG  GLU I 103     -22.045  -2.757  -6.418  0.50 22.90 LIG 0.12  C 
BRANCH 23 24
ATOM     24  CD  GLU I 103     -20.839  -2.630  -7.307  0.50 27.65 LIG 0.17  C 
ATOM     25 OE1  GLU I 103     -19.774  -3.177  -7.002  0.50 28.22 LIG-0.65  OA
ATOM     26 OE2  GLU I 103     -21.001  -1.973  -8.329  0.50 31.39 LIG-0.65  OA
ENDBRANCH 23 24
ENDBRANCH 22 23
ENDBRANCH 5 22
ENDBRANCH 3 5
BRANCH 1 27
ATOM     27  CA  LEU I 102     -20.808  -6.148  -4.172  0.50 14.84 LIG 0.18  C 
BRANCH 27 28
ATOM     28  CB  LEU I 102     -19.572  -6.612  -3.459  0.50 17.78 LIG 0.04  C 
BRANCH 28 29
ATOM     29  CG  LEU I 102     -19.085  -5.905  -2.225  0.50 23.00 LIG-0.02  C 
ATOM     30  CD2 LEU I 102     -17.834  -6.614  -1.750  0.50 23.20 LIG 0.01  C 
ATOM     31  CD1 LEU I 102     -20.147  -5.919  -1.135  0.50 25.90 LIG 0.01  C 
ENDBRANCH 28 29
ENDBRANCH 27 28
BRANCH 27 32
ATOM     32  N   LEU I 102     -20.888  -6.630  -5.552  0.50 17.71 LIG-0.35  N 
ATOM     33 H    LEU I 102     -20.246  -7.171  -5.738  0.50 17.71 LIG 0.16  HD
ATOM     34  C   PHE I 101     -21.812  -6.315  -6.468  0.50 15.00 LIG 0.26  C 
ATOM     35 O    PHE I 101     -22.843  -5.667  -6.288  0.50 13.40 LIG-0.27  OA
BRANCH 34 36
ATOM     36  CA  PHE I 101     -21.612  -6.939  -7.837  0.50 16.66 LIG 0.40  C 
ATOM     37  N   PHE I 101     -20.352  -7.626  -7.676  0.50 14.66 LIG 0.61  N 
BRANCH 36 38
ATOM     38  CB  PHE I 101     -22.770  -7.898  -8.131  0.50 13.93 LIG 0.09  C 
BRANCH 38 39
ATOM     39  CG  PHE I 101     -23.402  -7.632  -9.495  0.50 13.79 LIG-0.06  A 
ATOM     40  CD2 PHE I 101     -24.493  -8.390  -9.908  0.50 13.65 LIG 0.01  A 
ATOM     41  CE2 PHE I 101     -25.146  -8.089 -11.103  0.50 14.96 LIG 0.00  A 
ATOM     42  CZ  PHE I 101     -24.700  -7.032 -11.881  0.50 12.06 LIG 0.00  A 
ATOM     43  CE1 PHE I 101     -23.605  -6.282 -11.476  0.50 11.76 LIG 0.00  A 
ATOM     44  CD1 PHE I 101     -22.952  -6.578 -10.285  0.50 13.16 LIG 0.01  A 
ENDBRANCH 38 39
ENDBRANCH 36 38
ENDBRANCH 34 36
ENDBRANCH 27 32
ENDBRANCH 1 27
TORSDOF 19
ENDMDL
MODEL 3
USER: ADFR SOLUTION from run 46
USER: SCORE 20.391395 LL:  -4.263 LR: -16.433 RR:   0.000 FEB: -10.765
USER: RMSD 7.836318
USER: SEED 45
USER: STATUS no improvement in best in 3 clusters for 5 generations
USER: GENES 21
USER: genes 0 Translation |==|  0.62541 0.58329 0.66856
USER: genes 1 Rotation |==|  0.17773 0.41018 0.42175 0.86325
USER: genes 2 Torsion [C]-N--CA-[C] |==|  0.18784
USER: genes 3 Torsion [N]-CA--C-[N] |==|  0.04390
USER: genes 4 Torsion [C]-N--CA-[CB] |==|  0.18710
USER: genes 5 Torsion [N]-CA--CB-[CG] |==|  0.24736
USER: genes 6 Torsion [CA]-CB--CG-[CD] |==|  0.67343
USER: genes 7 Torsion [CB]-CG--CD-[CE] |==|  0.38371
USER: genes 8 Torsion [CG]-CD--CE-[NZ] |==|  0.28644
USER: genes 9 Torsion [CD]-CE--NZ-[HZ3] |==|  0.96107
USER: genes 10 Torsion [N]-CA--C-[OXT] |==|  0.87642
USER: genes 11 Torsion [N]-CA--CB-[CG] |==|  0.60317
USER: genes 12 Torsion [CA]-CB--CG-[CD] |==|  0.50281
USER: genes 13 Torsion [CB]-CG--CD-[OE1] |==|  0.13827
USER: genes 14 Torsion [N]-C--CA-[N] |==|  0.87928
USER: genes 15 Torsion [C]-CA--CB-[CG] |==|  0.43433
USER: genes 16 Torsion [CA]-CB--CG-[CD2] |==|  0.10521
USER: genes 17 Torsion [C]-CA--N-[C] |==|  0.83865
USER: genes 18 Torsion [N]-C--CA-[N] |==|  0.53628
USER: genes 19 Torsion [C]-CA--CB-[CG] |==|  0.73609
USER: genes 20 Torsion [CA]-CB--CG-[CD2] |==|  0.19100
ROOT
ATOM      1  C   LEU I 102     -20.815  -3.552  -2.962  0.50 11.09 LIG 0.24  C 
ATOM      2 O    LEU I 102     -20.031  -3.620  -2.011  0.50  6.75 LIG-0.27  OA
ATOM      3  N   GLU I 103     -22.005  -4.126  -2.918  0.50 13.38 LIG-0.35  N 
ATOM      4 H    GLU I 103     -22.612  -4.016  -3.517  0.50 13.38 LIG 0.16  HD
ENDROOT
BRANCH 3 5
ATOM      5  CA  GLU I 103     -22.387  -5.011  -1.829  0.50 18.34 LIG 0.18  C 
BRANCH 5 6
ATOM      6  C   GLU I 103     -22.512  -4.220  -0.536  0.50 17.37 LIG 0.24  C 
ATOM      7  N   LYS I 104     -22.584  -2.912  -0.689  0.50 22.43 LIG-0.34  N 
ATOM      8 H    LYS I 104     -22.567  -2.531  -1.459  0.50 22.43 LIG 0.16  HD
ATOM      9 O    GLU I 103     -22.532  -4.796   0.551  0.50 19.80 LIG-0.27  OA
BRANCH 7 10
ATOM     10  CA  LYS I 104     -22.697  -1.981   0.411  0.50 29.15 LIG 0.18  C 
BRANCH 10 11
ATOM     11  CB  LYS I 104     -21.454  -1.953   1.247  0.50 30.49 LIG 0.04  C 
BRANCH 11 12
ATOM     12  CG  LYS I 104     -20.367  -1.001   0.874  0.50 30.90 LIG 0.00  C 
BRANCH 12 13
ATOM     13  CD  LYS I 104     -19.226  -1.937   0.554  0.50 30.43 LIG 0.03  C 
BRANCH 13 14
ATOM     14  CE  LYS I 104     -18.598  -1.367  -0.667  0.50 34.48 LIG 0.23  C 
BRANCH 14 15
ATOM     15  NZ  LYS I 104     -17.398  -0.704  -0.257  0.50 39.75 LIG-0.08  N 
ATOM     16 HZ3  LYS I 104     -17.401  -0.604   0.628  0.50 39.75 LIG 0.27  HD
ATOM     17 HZ2  LYS I 104     -17.353   0.096  -0.646  0.50 39.75 LIG 0.27  HD
ATOM     18 HZ1  LYS I 104     -16.693  -1.191  -0.498  0.50 39.75 LIG 0.27  HD
ENDBRANCH 14 15
ENDBRANCH 13 14
ENDBRANCH 12 13
ENDBRANCH 11 12
ENDBRANCH 10 11
BRANCH 10 19
ATOM     19  C   LYS I 104     -22.851  -0.597  -0.186  0.50 31.87 LIG 0.20  C 
ATOM     20 OXT  LYS I 104     -22.111  -0.291  -1.122  0.50 33.47 LIG-0.65  OA
ATOM     21 O    LYS I 104     -23.734   0.137   0.285  0.50 36.52 LIG-0.65  OA
ENDBRANCH 10 19
ENDBRANCH 7 10
ENDBRANCH 5 6
BRANCH 5 22
ATOM     22  CB  GLU I 103     -21.369  -6.104  -1.630  0.50 17.76 LIG 0.04  C 
BRANCH 22 23
ATOM     23  CG  GLU I 103     -22.070  -7.374  -1.268  0.50 22.90 LIG 0.12  C 
BRANCH 23 24
ATOM     24  CD  GLU I 103     -21.158  -8.542  -1.018  0.50 27.65 LIG 0.17  C 
ATOM     25 OE1  GLU I 103     -20.190  -8.433  -0.258  0.50 28.22 LIG-0.65  OA
ATOM     26 OE2  GLU I 103     -21.455  -9.579  -1.601  0.50 31.39 LIG-0.65  OA
ENDBRANCH 23 24
ENDBRANCH 22 23
ENDBRANCH 5 22
ENDBRANCH 3 5
BRANCH 1 27
ATOM     27  CA  LEU I 102     -20.387  -2.767  -4.185  0.50 14.84 LIG 0.18  C 
BRANCH 27 28
ATOM     28  CB  LEU I 102     -21.122  -1.461  -4.093  0.50 17.78 LIG 0.04  C 
BRANCH 28 29
ATOM     29  CG  LEU I 102     -20.599  -0.235  -4.788  0.50 23.00 LIG-0.02  C 
ATOM     30  CD2 LEU I 102     -20.022  -0.670  -6.119  0.50 23.20 LIG 0.01  C 
ATOM     31  CD1 LEU I 102     -19.535   0.455  -3.949  0.50 25.90 LIG 0.01  C 
ENDBRANCH 28 29
ENDBRANCH 27 28
BRANCH 27 32
ATOM     32  N   LEU I 102     -20.800  -3.576  -5.333  0.50 17.71 LIG-0.35  N 
ATOM     33 H    LEU I 102     -21.333  -3.144  -5.852  0.50 17.71 LIG 0.16  HD
ATOM     34  C   PHE I 101     -20.437  -4.834  -5.610  0.50 15.00 LIG 0.26  C 
ATOM     35 O    PHE I 101     -19.586  -5.505  -5.028  0.50 13.40 LIG-0.27  OA
BRANCH 34 36
ATOM     36  CA  PHE I 101     -21.063  -5.435  -6.856  0.50 16.66 LIG 0.40  C 
ATOM     37  N   PHE I 101     -20.749  -6.836  -6.707  0.50 14.66 LIG 0.61  N 
BRANCH 36 38
ATOM     38  CB  PHE I 101     -22.572  -5.167  -6.844  0.50 13.93 LIG 0.09  C 
BRANCH 38 39
ATOM     39  CG  PHE I 101     -23.356  -6.339  -6.259  0.50 13.79 LIG-0.06  A 
ATOM     40  CD2 PHE I 101     -23.246  -6.631  -4.903  0.50 13.65 LIG 0.01  A 
ATOM     41  CE2 PHE I 101     -24.035  -7.630  -4.333  0.50 14.96 LIG 0.00  A 
ATOM     42  CZ  PHE I 101     -24.927  -8.335  -5.125  0.50 12.06 LIG 0.00  A 
ATOM     43  CE1 PHE I 101     -25.030  -8.053  -6.480  0.50 11.76 LIG 0.00  A 
ATOM     44  CD1 PHE I 101     -24.245  -7.057  -7.052  0.50 13.16 LIG 0.01  A 
ENDBRANCH 38 39
ENDBRANCH 36 38
ENDBRANCH 34 36
ENDBRANCH 27 32
ENDBRANCH 1 27
TORSDOF 19
ENDMDL
MODEL 4
USER: ADFR SOLUTION from run 46
USER: SCORE 19.814428 LL:  -3.918 LR: -16.326 RR:   0.000 FEB: -10.658
USER: RMSD 8.215657
USER: SEED 45
USER: STATUS no improvement in best in 3 clusters for 5 generations
USER: GENES 21
USER: genes 0 Translation |==|  0.57962 0.53577 0.69113
USER: genes 1 Rotation |==|  0.12785 0.44579 0.46479 0.82761
USER: genes 2 Torsion [C]-N--CA-[C] |==|  0.19831
USER: genes 3 Torsion [N]-CA--C-[N] |==|  0.02400
USER: genes 4 Torsion [C]-N--CA-[CB] |==|  0.18823
USER: genes 5 Torsion [N]-CA--CB-[CG] |==|  0.26558
USER: genes 6 Torsion [CA]-CB--CG-[CD] |==|  0.68691
USER: genes 7 Torsion [CB]-CG--CD-[CE] |==|  0.43034
USER: genes 8 Torsion [CG]-CD--CE-[NZ] |==|  0.26514
USER: genes 9 Torsion [CD]-CE--NZ-[HZ3] |==|  0.94706
USER: genes 10 Torsion [N]-CA--C-[OXT] |==|  0.85341
USER: genes 11 Torsion [N]-CA--CB-[CG] |==|  0.69151
USER: genes 12 Torsion [CA]-CB--CG-[CD] |==|  0.39049
USER: genes 13 Torsion [CB]-CG--CD-[OE1] |==|  0.75449
USER: genes 14 Torsion [N]-C--CA-[N] |==|  0.33228
USER: genes 15 Torsion [C]-CA--CB-[CG] |==|  0.34242
USER: genes 16 Torsion [CA]-CB--CG-[CD2] |==|  0.11496
USER: genes 17 Torsion [C]-CA--N-[C] |==|  0.73894
USER: genes 18 Torsion [N]-C--CA-[N] |==|  0.99781
USER: genes 19 Torsion [C]-CA--CB-[CG] |==|  0.90873
USER: genes 20 Torsion [CA]-CB--CG-[CD2] |==|  0.33882
ROOT
ATOM      1  C   LEU I 102     -21.467  -4.443  -2.420  0.50 11.09 LIG 0.24  C 
ATOM      2 O    LEU I 102     -20.494  -4.322  -1.672  0.50  6.75 LIG-0.27  OA
ATOM      3  N   GLU I 103     -22.617  -4.928  -1.984  0.50 13.38 LIG-0.35  N 
ATOM      4 H    GLU I 103     -23.342  -4.933  -2.447  0.50 13.38 LIG 0.16  HD
ENDROOT
BRANCH 3 5
ATOM      5  CA  GLU I 103     -22.748  -5.505  -0.655  0.50 18.34 LIG 0.18  C 
BRANCH 5 6
ATOM      6  C   GLU I 103     -22.680  -4.409   0.397  0.50 17.37 LIG 0.24  C 
ATOM      7  N   LYS I 104     -22.701  -3.180  -0.079  0.50 22.43 LIG-0.34  N 
ATOM      8 H    LYS I 104     -22.754  -3.006  -0.919  0.50 22.43 LIG 0.16  HD
ATOM      9 O    GLU I 103     -22.604  -4.692   1.591  0.50 19.80 LIG-0.27  OA
BRANCH 7 10
ATOM     10  CA  LYS I 104     -22.636  -1.998   0.751  0.50 29.15 LIG 0.18  C 
BRANCH 10 11
ATOM     11  CB  LYS I 104     -21.302  -1.857   1.417  0.50 30.49 LIG 0.04  C 
BRANCH 11 12
ATOM     12  CG  LYS I 104     -20.272  -0.990   0.771  0.50 30.90 LIG 0.00  C 
BRANCH 12 13
ATOM     13  CD  LYS I 104     -19.228  -1.999   0.356  0.50 30.43 LIG 0.03  C 
BRANCH 13 14
ATOM     14  CE  LYS I 104     -18.518  -1.364  -0.785  0.50 34.48 LIG 0.23  C 
BRANCH 14 15
ATOM     15  NZ  LYS I 104     -17.352  -0.725  -0.257  0.50 39.75 LIG-0.08  N 
ATOM     16 HZ3  LYS I 104     -17.449  -0.607   0.620  0.50 39.75 LIG 0.27  HD
ATOM     17 HZ2  LYS I 104     -17.242   0.066  -0.652  0.50 39.75 LIG 0.27  HD
ATOM     18 HZ1  LYS I 104     -16.639  -1.234  -0.410  0.50 39.75 LIG 0.27  HD
ENDBRANCH 14 15
ENDBRANCH 13 14
ENDBRANCH 12 13
ENDBRANCH 11 12
ENDBRANCH 10 11
BRANCH 10 19
ATOM     19  C   LYS I 104     -22.796  -0.799  -0.162  0.50 31.87 LIG 0.20  C 
ATOM     20 OXT  LYS I 104     -22.049  -0.717  -1.138  0.50 33.47 LIG-0.65  OA
ATOM     21 O    LYS I 104     -23.691   0.017   0.111  0.50 36.52 LIG-0.65  OA
ENDBRANCH 10 19
ENDBRANCH 7 10
ENDBRANCH 5 6
BRANCH 5 22
ATOM     22  CB  GLU I 103     -21.653  -6.505  -0.383  0.50 17.76 LIG 0.04  C 
BRANCH 22 23
ATOM     23  CG  GLU I 103     -22.239  -7.878  -0.324  0.50 22.90 LIG 0.12  C 
BRANCH 23 24
ATOM     24  CD  GLU I 103     -21.398  -8.946  -0.965  0.50 27.65 LIG 0.17  C 
ATOM     25 OE1  GLU I 103     -21.517  -9.201  -2.168  0.50 28.22 LIG-0.65  OA
ATOM     26 OE2  GLU I 103     -20.603  -9.510  -0.222  0.50 31.39 LIG-0.65  OA
ENDBRANCH 23 24
ENDBRANCH 22 23
ENDBRANCH 5 22
ENDBRANCH 3 5
BRANCH 1 27
ATOM     27  CA  LEU I 102     -21.322  -3.997  -3.861  0.50 14.84 LIG 0.18  C 
BRANCH 27 28
ATOM     28  CB  LEU I 102     -20.218  -4.843  -4.426  0.50 17.78 LIG 0.04  C 
BRANCH 28 29
ATOM     29  CG  LEU I 102     -20.448  -5.693  -5.645  0.50 23.00 LIG-0.02  C 
ATOM     30  CD2 LEU I 102     -21.273  -4.883  -6.623  0.50 23.20 LIG 0.01  C 
ATOM     31  CD1 LEU I 102     -21.171  -6.981  -5.281  0.50 25.90 LIG 0.01  C 
ENDBRANCH 28 29
ENDBRANCH 27 28
BRANCH 27 32
ATOM     32  N   LEU I 102     -20.978  -2.576  -3.798  0.50 17.71 LIG-0.35  N 
ATOM     33 H    LEU I 102     -20.131  -2.456  -3.709  0.50 17.71 LIG 0.16  HD
ATOM     34  C   PHE I 101     -21.819  -1.536  -3.864  0.50 15.00 LIG 0.26  C 
ATOM     35 O    PHE I 101     -23.021  -1.571  -4.124  0.50 13.40 LIG-0.27  OA
BRANCH 34 36
ATOM     36  CA  PHE I 101     -21.175  -0.168  -3.727  0.50 16.66 LIG 0.40  C 
ATOM     37  N   PHE I 101     -19.784  -0.505  -3.542  0.50 14.66 LIG 0.61  N 
BRANCH 36 38
ATOM     38  CB  PHE I 101     -21.419   0.638  -5.007  0.50 13.93 LIG 0.09  C 
BRANCH 38 39
ATOM     39  CG  PHE I 101     -21.458  -0.254  -6.245  0.50 13.79 LIG-0.06  A 
ATOM     40  CD2 PHE I 101     -22.591  -0.260  -7.053  0.50 13.65 LIG 0.01  A 
ATOM     41  CE2 PHE I 101     -22.601  -0.989  -8.243  0.50 14.96 LIG 0.00  A 
ATOM     42  CZ  PHE I 101     -21.478  -1.711  -8.615  0.50 12.06 LIG 0.00  A 
ATOM     43  CE1 PHE I 101     -20.352  -1.715  -7.805  0.50 11.76 LIG 0.00  A 
ATOM     44  CD1 PHE I 101     -20.337  -0.989  -6.618  0.50 13.16 LIG 0.01  A 
ENDBRANCH 38 39
ENDBRANCH 36 38
ENDBRANCH 34 36
ENDBRANCH 27 32
ENDBRANCH 1 27
TORSDOF 19
ENDMDL
MODEL 5
USER: ADFR SOLUTION from run 60
USER: SCORE 18.291851 LL:  -3.163 LR: -16.021 RR:   0.000 FEB: -10.353
USER: RMSD 8.900751
USER: SEED 59
USER: STATUS no improvement in best in 3 clusters for 5 generations
USER: GENES 21
USER: genes 0 Translation |==|  0.57442 0.55781 0.57100
USER: genes 1 Rotation |==|  0.52188 0.91896 0.25866 0.62549
USER: genes 2 Torsion [C]-N--CA-[C] |==|  0.64121
USER: genes 3 Torsion [N]-CA--C-[N] |==|  0.51959
USER: genes 4 Torsion [C]-N--CA-[CB] |==|  0.84297
USER: genes 5 Torsion [N]-CA--CB-[CG] |==|  0.79205
USER: genes 6 Torsion [CA]-CB--CG-[CD] |==|  0.31695
USER: genes 7 Torsion [CB]-CG--CD-[CE] |==|  0.09492
USER: genes 8 Torsion [CG]-CD--CE-[NZ] |==|  0.30616
USER: genes 9 Torsion [CD]-CE--NZ-[HZ3] |==|  0.97631
USER: genes 10 Torsion [N]-CA--C-[OXT] |==|  0.73439
USER: genes 11 Torsion [N]-CA--CB-[CG] |==|  0.15110
USER: genes 12 Torsion [CA]-CB--CG-[CD] |==|  0.62395
USER: genes 13 Torsion [CB]-CG--CD-[OE1] |==|  0.76157
USER: genes 14 Torsion [N]-C--CA-[N] |==|  0.37213
USER: genes 15 Torsion [C]-CA--CB-[CG] |==|  0.39357
USER: genes 16 Torsion [CA]-CB--CG-[CD2] |==|  0.72024
USER: genes 17 Torsion [C]-CA--N-[C] |==|  0.89378
USER: genes 18 Torsion [N]-C--CA-[N] |==|  0.38672
USER: genes 19 Torsion [C]-CA--CB-[CG] |==|  0.34923
USER: genes 20 Torsion [CA]-CB--CG-[CD2] |==|  0.42021
ROOT
ATOM      1  C   LEU I 102     -21.541  -4.030  -5.303  0.50 11.09 LIG 0.24  C 
ATOM      2 O    LEU I 102     -22.687  -4.467  -5.441  0.50  6.75 LIG-0.27  OA
ATOM      3  N   GLU I 103     -21.032  -3.790  -4.107  0.50 13.38 LIG-0.35  N 
ATOM      4 H    GLU I 103     -20.209  -3.583  -3.969  0.50 13.38 LIG 0.16  HD
ENDROOT
BRANCH 3 5
ATOM      5  CA  GLU I 103     -21.845  -3.859  -2.903  0.50 18.34 LIG 0.18  C 
BRANCH 5 6
ATOM      6  C   GLU I 103     -21.668  -2.591  -2.082  0.50 17.37 LIG 0.24  C 
ATOM      7  N   LYS I 104     -22.246  -2.610  -0.898  0.50 22.43 LIG-0.34  N 
ATOM      8 H    LYS I 104     -22.687  -3.288  -0.605  0.50 22.43 LIG 0.16  HD
ATOM      9 O    GLU I 103     -21.032  -1.639  -2.531  0.50 19.80 LIG-0.27  OA
BRANCH 7 10
ATOM     10  CA  LYS I 104     -22.206  -1.505   0.033  0.50 29.15 LIG 0.18  C 
BRANCH 10 11
ATOM     11  CB  LYS I 104     -20.800  -1.103   0.359  0.50 30.49 LIG 0.04  C 
BRANCH 11 12
ATOM     12  CG  LYS I 104     -20.006  -1.974   1.276  0.50 30.90 LIG 0.00  C 
BRANCH 12 13
ATOM     13  CD  LYS I 104     -18.922  -2.488   0.359  0.50 30.43 LIG 0.03  C 
BRANCH 13 14
ATOM     14  CE  LYS I 104     -18.650  -1.364  -0.574  0.50 34.48 LIG 0.23  C 
BRANCH 14 15
ATOM     15  NZ  LYS I 104     -17.352  -0.852  -0.257  0.50 39.75 LIG-0.08  N 
ATOM     16 HZ3  LYS I 104     -17.058  -1.232   0.493  0.50 39.75 LIG 0.27  HD
ATOM     17 HZ2  LYS I 104     -17.399   0.030  -0.144  0.50 39.75 LIG 0.27  HD
ATOM     18 HZ1  LYS I 104     -16.790  -1.036  -0.922  0.50 39.75 LIG 0.27  HD
ENDBRANCH 14 15
ENDBRANCH 13 14
ENDBRANCH 12 13
ENDBRANCH 11 12
ENDBRANCH 10 11
BRANCH 10 19
ATOM     19  C   LYS I 104     -22.849  -0.316  -0.654  0.50 31.87 LIG 0.20  C 
ATOM     20 OXT  LYS I 104     -22.108   0.488  -1.221  0.50 33.47 LIG-0.65  OA
ATOM     21 O    LYS I 104     -24.087  -0.239  -0.629  0.50 36.52 LIG-0.65  OA
ENDBRANCH 10 19
ENDBRANCH 7 10
ENDBRANCH 5 6
BRANCH 5 22
ATOM     22  CB  GLU I 103     -21.459  -5.043  -2.052  0.50 17.76 LIG 0.04  C 
BRANCH 22 23
ATOM     23  CG  GLU I 103     -19.992  -4.992  -1.768  0.50 22.90 LIG 0.12  C 
BRANCH 23 24
ATOM     24  CD  GLU I 103     -19.279  -6.305  -1.925  0.50 27.65 LIG 0.17  C 
ATOM     25 OE1  GLU I 103     -19.236  -7.113  -0.991  0.50 28.22 LIG-0.65  OA
ATOM     26 OE2  GLU I 103     -18.772  -6.504  -3.024  0.50 31.39 LIG-0.65  OA
ENDBRANCH 23 24
ENDBRANCH 22 23
ENDBRANCH 5 22
ENDBRANCH 3 5
BRANCH 1 27
ATOM     27  CA  LEU I 102     -20.713  -3.794  -6.550  0.50 14.84 LIG 0.18  C 
BRANCH 27 28
ATOM     28  CB  LEU I 102     -21.276  -2.547  -7.168  0.50 17.78 LIG 0.04  C 
BRANCH 28 29
ATOM     29  CG  LEU I 102     -20.373  -1.531  -7.810  0.50 23.00 LIG-0.02  C 
ATOM     30  CD2 LEU I 102     -20.183  -0.396  -6.825  0.50 23.20 LIG 0.01  C 
ATOM     31  CD1 LEU I 102     -20.972  -1.013  -9.108  0.50 25.90 LIG 0.01  C 
ENDBRANCH 28 29
ENDBRANCH 27 28
BRANCH 27 32
ATOM     32  N   LEU I 102     -20.907  -4.983  -7.381  0.50 17.71 LIG-0.35  N 
ATOM     33 H    LEU I 102     -20.959  -4.783  -8.216  0.50 17.71 LIG 0.16  HD
ATOM     34  C   PHE I 101     -21.003  -6.253  -6.968  0.50 15.00 LIG 0.26  C 
ATOM     35 O    PHE I 101     -20.812  -6.677  -5.829  0.50 13.40 LIG-0.27  OA
BRANCH 34 36
ATOM     36  CA  PHE I 101     -21.248  -7.277  -8.061  0.50 16.66 LIG 0.40  C 
ATOM     37  N   PHE I 101     -20.389  -8.364  -7.655  0.50 14.66 LIG 0.61  N 
BRANCH 36 38
ATOM     38  CB  PHE I 101     -22.729  -7.670  -8.064  0.50 13.93 LIG 0.09  C 
BRANCH 38 39
ATOM     39  CG  PHE I 101     -23.367  -7.486  -9.439  0.50 13.79 LIG-0.06  A 
ATOM     40  CD2 PHE I 101     -24.436  -8.293  -9.815  0.50 13.65 LIG 0.01  A 
ATOM     41  CE2 PHE I 101     -25.095  -8.067 -11.024  0.50 14.96 LIG 0.00  A 
ATOM     42  CZ  PHE I 101     -24.677  -7.037 -11.851  0.50 12.06 LIG 0.00  A 
ATOM     43  CE1 PHE I 101     -23.604  -6.239 -11.483  0.50 11.76 LIG 0.00  A 
ATOM     44  CD1 PHE I 101     -22.945  -6.460 -10.279  0.50 13.16 LIG 0.01  A 
ENDBRANCH 38 39
ENDBRANCH 36 38
ENDBRANCH 34 36
ENDBRANCH 27 32
ENDBRANCH 1 27
TORSDOF 19
ENDMDL
MODEL 6
USER: ADFR SOLUTION from run 28
USER: SCORE 17.770523 LL:  -3.605 LR: -15.866 RR:   0.000 FEB: -10.199
USER: RMSD 7.809442
USER: SEED 27
USER: STATUS no improvement in best in 5 clusters for 5 generations
USER: GENES 21
USER: genes 0 Translation |==|  0.62978 0.57191 0.57425
USER: genes 1 Rotation |==|  0.09409 0.50854 0.49789 0.79183
USER: genes 2 Torsion [C]-N--CA-[C] |==|  0.23059
USER: genes 3 Torsion [N]-CA--C-[N] |==|  0.36128
USER: genes 4 Torsion [C]-N--CA-[CB] |==|  0.87898
USER: genes 5 Torsion [N]-CA--CB-[CG] |==|  0.77748
USER: genes 6 Torsion [CA]-CB--CG-[CD] |==|  0.34309
USER: genes 7 Torsion [CB]-CG--CD-[CE] |==|  0.09055
USER: genes 8 Torsion [CG]-CD--CE-[NZ] |==|  0.31369
USER: genes 9 Torsion [CD]-CE--NZ-[HZ3] |==|  0.88367
USER: genes 10 Torsion [N]-CA--C-[OXT] |==|  0.81924
USER: genes 11 Torsion [N]-CA--CB-[CG] |==|  0.49363
USER: genes 12 Torsion [CA]-CB--CG-[CD] |==|  0.39624
USER: genes 13 Torsion [CB]-CG--CD-[OE1] |==|  0.73497
USER: genes 14 Torsion [N]-C--CA-[N] |==|  0.82223
USER: genes 15 Torsion [C]-CA--CB-[CG] |==|  0.30761
USER: genes 16 Torsion [CA]-CB--CG-[CD2] |==|  0.18284
USER: genes 17 Torsion [C]-CA--N-[C] |==|  0.20079
USER: genes 18 Torsion [N]-C--CA-[N] |==|  0.89580
USER: genes 19 Torsion [C]-CA--CB-[CG] |==|  0.15772
USER: genes 20 Torsion [CA]-CB--CG-[CD2] |==|  0.65536
ROOT
ATOM      1  C   LEU I 102     -20.753  -3.766  -5.225  0.50 11.09 LIG 0.24  C 
ATOM      2 O    LEU I 102     -19.609  -3.662  -4.776  0.50  6.75 LIG-0.27  OA
ATOM      3  N   GLU I 103     -21.787  -3.993  -4.435  0.50 13.38 LIG-0.35  N 
ATOM      4 H    GLU I 103     -22.606  -3.971  -4.698  0.50 13.38 LIG 0.16  HD
ENDROOT
BRANCH 3 5
ATOM      5  CA  GLU I 103     -21.618  -4.306  -3.025  0.50 18.34 LIG 0.18  C 
BRANCH 5 6
ATOM      6  C   GLU I 103     -21.449  -3.024  -2.224  0.50 17.37 LIG 0.24  C 
ATOM      7  N   LYS I 104     -22.229  -2.922  -1.166  0.50 22.43 LIG-0.34  N 
ATOM      8 H    LYS I 104     -22.788  -3.534  -0.939  0.50 22.43 LIG 0.16  HD
ATOM      9 O    GLU I 103     -20.639  -2.168  -2.577  0.50 19.80 LIG-0.27  OA
BRANCH 7 10
ATOM     10  CA  LYS I 104     -22.230  -1.781  -0.278  0.50 29.15 LIG 0.18  C 
BRANCH 10 11
ATOM     11  CB  LYS I 104     -20.841  -1.323   0.042  0.50 30.49 LIG 0.04  C 
BRANCH 11 12
ATOM     12  CG  LYS I 104     -20.069  -2.063   1.085  0.50 30.90 LIG 0.00  C 
BRANCH 12 13
ATOM     13  CD  LYS I 104     -18.827  -2.468   0.327  0.50 30.43 LIG 0.03  C 
BRANCH 13 14
ATOM     14  CE  LYS I 104     -18.599  -1.365  -0.643  0.50 34.48 LIG 0.23  C 
BRANCH 14 15
ATOM     15  NZ  LYS I 104     -17.390  -0.703  -0.257  0.50 39.75 LIG-0.08  N 
ATOM     16 HZ3  LYS I 104     -17.370  -0.614   0.629  0.50 39.75 LIG 0.27  HD
ATOM     17 HZ2  LYS I 104     -17.357   0.102  -0.637  0.50 39.75 LIG 0.27  HD
ATOM     18 HZ1  LYS I 104     -16.690  -1.185  -0.523  0.50 39.75 LIG 0.27  HD
ENDBRANCH 14 15
ENDBRANCH 13 14
ENDBRANCH 12 13
ENDBRANCH 11 12
ENDBRANCH 10 11
BRANCH 10 19
ATOM     19  C   LYS I 104     -22.906  -0.641  -1.013  0.50 31.87 LIG 0.20  C 
ATOM     20 OXT  LYS I 104     -22.350  -0.198  -2.019  0.50 33.47 LIG-0.65  OA
ATOM     21 O    LYS I 104     -23.995  -0.239  -0.574  0.50 36.52 LIG-0.65  OA
ENDBRANCH 10 19
ENDBRANCH 7 10
ENDBRANCH 5 6
BRANCH 5 22
ATOM     22  CB  GLU I 103     -20.409  -5.178  -2.800  0.50 17.76 LIG 0.04  C 
BRANCH 22 23
ATOM     23  CG  GLU I 103     -20.243  -5.427  -1.336  0.50 22.90 LIG 0.12  C 
BRANCH 23 24
ATOM     24  CD  GLU I 103     -19.769  -6.809  -0.986  0.50 27.65 LIG 0.17  C 
ATOM     25 OE1  GLU I 103     -20.578  -7.693  -0.684  0.50 28.22 LIG-0.65  OA
ATOM     26 OE2  GLU I 103     -18.556  -6.982  -1.037  0.50 31.39 LIG-0.65  OA
ENDBRANCH 23 24
ENDBRANCH 22 23
ENDBRANCH 5 22
ENDBRANCH 3 5
BRANCH 1 27
ATOM     27  CA  LEU I 102     -20.951  -3.602  -6.719  0.50 14.84 LIG 0.18  C 
BRANCH 27 28
ATOM     28  CB  LEU I 102     -21.950  -2.491  -6.864  0.50 17.78 LIG 0.04  C 
BRANCH 28 29
ATOM     29  CG  LEU I 102     -21.540  -1.158  -7.426  0.50 23.00 LIG-0.02  C 
ATOM     30  CD2 LEU I 102     -21.152  -1.367  -8.875  0.50 23.20 LIG 0.01  C 
ATOM     31  CD1 LEU I 102     -20.374  -0.573  -6.644  0.50 25.90 LIG 0.01  C 
ENDBRANCH 28 29
ENDBRANCH 27 28
BRANCH 27 32
ATOM     32  N   LEU I 102     -21.456  -4.892  -7.191  0.50 17.71 LIG-0.35  N 
ATOM     33 H    LEU I 102     -20.862  -5.321  -7.641  0.50 17.71 LIG 0.16  HD
ATOM     34  C   PHE I 101     -22.675  -5.407  -6.988  0.50 15.00 LIG 0.26  C 
ATOM     35 O    PHE I 101     -23.557  -4.958  -6.257  0.50 13.40 LIG-0.27  OA
BRANCH 34 36
ATOM     36  CA  PHE I 101     -22.930  -6.755  -7.640  0.50 16.66 LIG 0.40  C 
ATOM     37  N   PHE I 101     -22.226  -6.622  -8.894  0.50 14.66 LIG 0.61  N 
BRANCH 36 38
ATOM     38  CB  PHE I 101     -22.349  -7.863  -6.755  0.50 13.93 LIG 0.09  C 
BRANCH 38 39
ATOM     39  CG  PHE I 101     -22.924  -7.827  -5.342  0.50 13.79 LIG-0.06  A 
ATOM     40  CD2 PHE I 101     -22.064  -7.731  -4.252  0.50 13.65 LIG 0.01  A 
ATOM     41  CE2 PHE I 101     -22.577  -7.591  -2.962  0.50 14.96 LIG 0.00  A 
ATOM     42  CZ  PHE I 101     -23.949  -7.552  -2.771  0.50 12.06 LIG 0.00  A 
ATOM     43  CE1 PHE I 101     -24.808  -7.658  -3.855  0.50 11.76 LIG 0.00  A 
ATOM     44  CD1 PHE I 101     -24.300  -7.797  -5.143  0.50 13.16 LIG 0.01  A 
ENDBRANCH 38 39
ENDBRANCH 36 38
ENDBRANCH 34 36
ENDBRANCH 27 32
ENDBRANCH 1 27
TORSDOF 19
ENDMDL
MODEL 7
USER: ADFR SOLUTION from run 111
USER: SCORE 19.120717 LL:  -3.762 LR: -15.842 RR:   0.000 FEB: -10.174
USER: RMSD 8.764807
USER: SEED 110
USER: STATUS no improvement in best in 3 clusters for 5 generations
USER: GENES 21
USER: genes 0 Translation |==|  0.61574 0.52976 0.60958
USER: genes 1 Rotation |==|  0.97431 0.43915 0.46735 0.64234
USER: genes 2 Torsion [C]-N--CA-[C] |==|  0.70215
USER: genes 3 Torsion [N]-CA--C-[N] |==|  0.94905
USER: genes 4 Torsion [C]-N--CA-[CB] |==|  0.86833
USER: genes 5 Torsion [N]-CA--CB-[CG] |==|  0.72303
USER: genes 6 Torsion [CA]-CB--CG-[CD] |==|  0.36268
USER: genes 7 Torsion [CB]-CG--CD-[CE] |==|  0.03468
USER: genes 8 Torsion [CG]-CD--CE-[NZ] |==|  0.36458
USER: genes 9 Torsion [CD]-CE--NZ-[HZ3] |==|  0.19678
USER: genes 10 Torsion [N]-CA--C-[OXT] |==|  0.80798
USER: genes 11 Torsion [N]-CA--CB-[CG] |==|  0.73670
USER: genes 12 Torsion [CA]-CB--CG-[CD] |==|  0.10673
USER: genes 13 Torsion [CB]-CG--CD-[OE1] |==|  0.71715
USER: genes 14 Torsion [N]-C--CA-[N] |==|  0.28890
USER: genes 15 Torsion [C]-CA--CB-[CG] |==|  0.08368
USER: genes 16 Torsion [CA]-CB--CG-[CD2] |==|  0.64548
USER: genes 17 Torsion [C]-CA--N-[C] |==|  0.78731
USER: genes 18 Torsion [N]-C--CA-[N] |==|  0.89895
USER: genes 19 Torsion [C]-CA--CB-[CG] |==|  0.14906
USER: genes 20 Torsion [CA]-CB--CG-[CD2] |==|  0.71716
ROOT
ATOM      1  C   LEU I 102     -20.953  -4.556  -4.377  0.50 11.09 LIG 0.24  C 
ATOM      2 O    LEU I 102     -19.765  -4.461  -4.697  0.50  6.75 LIG-0.27  OA
ATOM      3  N   GLU I 103     -21.728  -3.491  -4.273  0.50 13.38 LIG-0.35  N 
ATOM      4 H    GLU I 103     -22.579  -3.527  -4.152  0.50 13.38 LIG 0.16  HD
ENDROOT
BRANCH 3 5
ATOM      5  CA  GLU I 103     -21.190  -2.142  -4.357  0.50 18.34 LIG 0.18  C 
BRANCH 5 6
ATOM      6  C   GLU I 103     -21.194  -1.494  -2.982  0.50 17.37 LIG 0.24  C 
ATOM      7  N   LYS I 104     -21.989  -2.066  -2.099  0.50 22.43 LIG-0.34  N 
ATOM      8 H    LYS I 104     -22.467  -2.757  -2.281  0.50 22.43 LIG 0.16  HD
ATOM      9 O    GLU I 103     -20.498  -0.505  -2.754  0.50 19.80 LIG-0.27  OA
BRANCH 7 10
ATOM     10  CA  LYS I 104     -22.144  -1.600  -0.740  0.50 29.15 LIG 0.18  C 
BRANCH 10 11
ATOM     11  CB  LYS I 104     -20.822  -1.336  -0.087  0.50 30.49 LIG 0.04  C 
BRANCH 11 12
ATOM     12  CG  LYS I 104     -20.263  -2.372   0.832  0.50 30.90 LIG 0.00  C 
BRANCH 12 13
ATOM     13  CD  LYS I 104     -18.852  -2.520   0.315  0.50 30.43 LIG 0.03  C 
BRANCH 13 14
ATOM     14  CE  LYS I 104     -18.663  -1.368  -0.605  0.50 34.48 LIG 0.23  C 
BRANCH 14 15
ATOM     15  NZ  LYS I 104     -17.421  -0.746  -0.257  0.50 39.75 LIG-0.08  N 
ATOM     16 HZ3  LYS I 104     -16.746  -1.275  -0.497  0.50 39.75 LIG 0.27  HD
ATOM     17 HZ2  LYS I 104     -17.393  -0.611   0.623  0.50 39.75 LIG 0.27  HD
ATOM     18 HZ1  LYS I 104     -17.352   0.034  -0.679  0.50 39.75 LIG 0.27  HD
ENDBRANCH 14 15
ENDBRANCH 13 14
ENDBRANCH 12 13
ENDBRANCH 11 12
ENDBRANCH 10 11
BRANCH 10 19
ATOM     19  C   LYS I 104     -22.872  -0.272  -0.801  0.50 31.87 LIG 0.20  C 
ATOM     20 OXT  LYS I 104     -22.269   0.692  -1.276  0.50 33.47 LIG-0.65  OA
ATOM     21 O    LYS I 104     -24.044  -0.239  -0.395  0.50 36.52 LIG-0.65  OA
ENDBRANCH 10 19
ENDBRANCH 7 10
ENDBRANCH 5 6
BRANCH 5 22
ATOM     22  CB  GLU I 103     -22.003  -1.288  -5.297  0.50 17.76 LIG 0.04  C 
BRANCH 22 23
ATOM     23  CG  GLU I 103     -21.376  -1.311  -6.654  0.50 22.90 LIG 0.12  C 
BRANCH 23 24
ATOM     24  CD  GLU I 103     -20.817  -2.645  -7.062  0.50 27.65 LIG 0.17  C 
ATOM     25 OE1  GLU I 103     -19.602  -2.861  -7.004  0.50 28.22 LIG-0.65  OA
ATOM     26 OE2  GLU I 103     -21.642  -3.474  -7.431  0.50 31.39 LIG-0.65  OA
ENDBRANCH 23 24
ENDBRANCH 22 23
ENDBRANCH 5 22
ENDBRANCH 3 5
BRANCH 1 27
ATOM     27  CA  LEU I 102     -21.516  -5.941  -4.126  0.50 14.84 LIG 0.18  C 
BRANCH 27 28
ATOM     28  CB  LEU I 102     -20.485  -6.640  -3.288  0.50 17.78 LIG 0.04  C 
BRANCH 28 29
ATOM     29  CG  LEU I 102     -19.609  -5.865  -2.343  0.50 23.00 LIG-0.02  C 
ATOM     30  CD2 LEU I 102     -18.170  -6.234  -2.641  0.50 23.20 LIG 0.01  C 
ATOM     31  CD1 LEU I 102     -19.949  -6.188  -0.896  0.50 25.90 LIG 0.01  C 
ENDBRANCH 28 29
ENDBRANCH 27 28
BRANCH 27 32
ATOM     32  N   LEU I 102     -21.681  -6.543  -5.449  0.50 17.71 LIG-0.35  N 
ATOM     33 H    LEU I 102     -21.061  -7.115  -5.619  0.50 17.71 LIG 0.16  HD
ATOM     34  C   PHE I 101     -22.647  -6.288  -6.340  0.50 15.00 LIG 0.26  C 
ATOM     35 O    PHE I 101     -23.653  -5.601  -6.165  0.50 13.40 LIG-0.27  OA
BRANCH 34 36
ATOM     36  CA  PHE I 101     -22.536  -7.037  -7.656  0.50 16.66 LIG 0.40  C 
ATOM     37  N   PHE I 101     -21.107  -7.067  -7.866  0.50 14.66 LIG 0.61  N 
BRANCH 36 38
ATOM     38  CB  PHE I 101     -23.135  -8.438  -7.493  0.50 13.93 LIG 0.09  C 
BRANCH 38 39
ATOM     39  CG  PHE I 101     -24.559  -8.391  -6.946  0.50 13.79 LIG-0.06  A 
ATOM     40  CD2 PHE I 101     -24.789  -8.670  -5.602  0.50 13.65 LIG 0.01  A 
ATOM     41  CE2 PHE I 101     -26.068  -8.528  -5.064  0.50 14.96 LIG 0.00  A 
ATOM     42  CZ  PHE I 101     -27.111  -8.113  -5.876  0.50 12.06 LIG 0.00  A 
ATOM     43  CE1 PHE I 101     -26.886  -7.845  -7.219  0.50 11.76 LIG 0.00  A 
ATOM     44  CD1 PHE I 101     -25.612  -7.984  -7.759  0.50 13.16 LIG 0.01  A 
ENDBRANCH 38 39
ENDBRANCH 36 38
ENDBRANCH 34 36
ENDBRANCH 27 32
ENDBRANCH 1 27
TORSDOF 19
ENDMDL
MODEL 8
USER: ADFR SOLUTION from run 70
USER: SCORE 18.705211 LL:  -3.604 LR: -15.829 RR:   0.000 FEB: -10.161
USER: RMSD 8.437461
USER: SEED 69
USER: STATUS no improvement in best in 4 clusters for 5 generations
USER: GENES 21
USER: genes 0 Translation |==|  0.56209 0.47657 0.67989
USER: genes 1 Rotation |==|  0.50673 0.91357 0.29924 0.69649
USER: genes 2 Torsion [C]-N--CA-[C] |==|  0.63625
USER: genes 3 Torsion [N]-CA--C-[N] |==|  0.05463
USER: genes 4 Torsion [C]-N--CA-[CB] |==|  0.26342
USER: genes 5 Torsion [N]-CA--CB-[CG] |==|  0.24856
USER: genes 6 Torsion [CA]-CB--CG-[CD] |==|  0.73374
USER: genes 7 Torsion [CB]-CG--CD-[CE] |==|  0.42938
USER: genes 8 Torsion [CG]-CD--CE-[NZ] |==|  0.24708
USER: genes 9 Torsion [CD]-CE--NZ-[HZ3] |==|  0.29046
USER: genes 10 Torsion [N]-CA--C-[OXT] |==|  0.88289
USER: genes 11 Torsion [N]-CA--CB-[CG] |==|  0.74020
USER: genes 12 Torsion [CA]-CB--CG-[CD] |==|  0.30530
USER: genes 13 Torsion [CB]-CG--CD-[OE1] |==|  0.19594
USER: genes 14 Torsion [N]-C--CA-[N] |==|  0.49899
USER: genes 15 Torsion [C]-CA--CB-[CG] |==|  0.66348
USER: genes 16 Torsion [CA]-CB--CG-[CD2] |==|  0.58875
USER: genes 17 Torsion [C]-CA--N-[C] |==|  0.51701
USER: genes 18 Torsion [N]-C--CA-[N] |==|  0.73281
USER: genes 19 Torsion [C]-CA--CB-[CG] |==|  0.55085
USER: genes 20 Torsion [CA]-CB--CG-[CD2] |==|  0.39070
ROOT
ATOM      1  C   LEU I 102     -21.717  -5.553  -2.690  0.50 11.09 LIG 0.24  C 
ATOM      2 O    LEU I 102     -22.673  -6.205  -3.117  0.50  6.75 LIG-0.27  OA
ATOM      3  N   GLU I 103     -21.538  -5.357  -1.395  0.50 13.38 LIG-0.35  N 
ATOM      4 H    GLU I 103     -20.834  -4.998  -1.057  0.50 13.38 LIG 0.16  HD
ENDROOT
BRANCH 3 5
ATOM      5  CA  GLU I 103     -22.542  -5.745  -0.417  0.50 18.34 LIG 0.18  C 
BRANCH 5 6
ATOM      6  C   GLU I 103     -22.810  -4.593   0.538  0.50 17.37 LIG 0.24  C 
ATOM      7  N   LYS I 104     -22.444  -3.406   0.096  0.50 22.43 LIG-0.34  N 
ATOM      8 H    LYS I 104     -22.084  -3.287  -0.677  0.50 22.43 LIG 0.16  HD
ATOM      9 O    GLU I 103     -23.325  -4.797   1.637  0.50 19.80 LIG-0.27  OA
BRANCH 7 10
ATOM     10  CA  LYS I 104     -22.602  -2.184   0.851  0.50 29.15 LIG 0.18  C 
BRANCH 10 11
ATOM     11  CB  LYS I 104     -21.360  -1.834   1.610  0.50 30.49 LIG 0.04  C 
BRANCH 11 12
ATOM     12  CG  LYS I 104     -20.331  -0.985   0.939  0.50 30.90 LIG 0.00  C 
BRANCH 12 13
ATOM     13  CD  LYS I 104     -19.371  -2.021   0.403  0.50 30.43 LIG 0.03  C 
BRANCH 13 14
ATOM     14  CE  LYS I 104     -18.713  -1.364  -0.756  0.50 34.48 LIG 0.23  C 
BRANCH 14 15
ATOM     15  NZ  LYS I 104     -17.560  -0.678  -0.257  0.50 39.75 LIG-0.08  N 
ATOM     16 HZ3  LYS I 104     -16.826  -1.135  -0.470  0.50 39.75 LIG 0.27  HD
ATOM     17 HZ2  LYS I 104     -17.617  -0.606   0.629  0.50 39.75 LIG 0.27  HD
ATOM     18 HZ1  LYS I 104     -17.519   0.135  -0.618  0.50 39.75 LIG 0.27  HD
ENDBRANCH 14 15
ENDBRANCH 13 14
ENDBRANCH 12 13
ENDBRANCH 11 12
ENDBRANCH 10 11
BRANCH 10 19
ATOM     19  C   LYS I 104     -22.833  -1.067  -0.147  0.50 31.87 LIG 0.20  C 
ATOM     20 OXT  LYS I 104     -22.144  -1.058  -1.168  0.50 33.47 LIG-0.65  OA
ATOM     21 O    LYS I 104     -23.723  -0.241   0.111  0.50 36.52 LIG-0.65  OA
ENDBRANCH 10 19
ENDBRANCH 7 10
ENDBRANCH 5 6
BRANCH 5 22
ATOM     22  CB  GLU I 103     -22.092  -6.941   0.384  0.50 17.76 LIG 0.04  C 
BRANCH 22 23
ATOM     23  CG  GLU I 103     -22.610  -8.188  -0.256  0.50 22.90 LIG 0.12  C 
BRANCH 23 24
ATOM     24  CD  GLU I 103     -21.557  -9.042  -0.906  0.50 27.65 LIG 0.17  C 
ATOM     25 OE1  GLU I 103     -20.738  -9.661  -0.219  0.50 28.22 LIG-0.65  OA
ATOM     26 OE2  GLU I 103     -21.589  -9.079  -2.132  0.50 31.39 LIG-0.65  OA
ENDBRANCH 23 24
ENDBRANCH 22 23
ENDBRANCH 5 22
ENDBRANCH 3 5
BRANCH 1 27
ATOM     27  CA  LEU I 102     -20.728  -4.995  -3.693  0.50 14.84 LIG 0.18  C 
BRANCH 27 28
ATOM     28  CB  LEU I 102     -20.758  -3.508  -3.491  0.50 17.78 LIG 0.04  C 
BRANCH 28 29
ATOM     29  CG  LEU I 102     -21.125  -2.587  -4.621  0.50 23.00 LIG-0.02  C 
ATOM     30  CD2 LEU I 102     -20.354  -1.297  -4.433  0.50 23.20 LIG 0.01  C 
ATOM     31  CD1 LEU I 102     -22.621  -2.312  -4.635  0.50 25.90 LIG 0.01  C 
ENDBRANCH 28 29
ENDBRANCH 27 28
BRANCH 27 32
ATOM     32  N   LEU I 102     -21.228  -5.405  -5.006  0.50 17.71 LIG-0.35  N 
ATOM     33 H    LEU I 102     -21.997  -5.788  -4.949  0.50 17.71 LIG 0.16  HD
ATOM     34  C   PHE I 101     -20.626  -5.240  -6.190  0.50 15.00 LIG 0.26  C 
ATOM     35 O    PHE I 101     -19.602  -4.596  -6.417  0.50 13.40 LIG-0.27  OA
BRANCH 34 36
ATOM     36  CA  PHE I 101     -21.369  -5.810  -7.385  0.50 16.66 LIG 0.40  C 
ATOM     37  N   PHE I 101     -20.739  -7.099  -7.546  0.50 14.66 LIG 0.61  N 
BRANCH 36 38
ATOM     38  CB  PHE I 101     -22.860  -5.923  -7.047  0.50 13.93 LIG 0.09  C 
BRANCH 38 39
ATOM     39  CG  PHE I 101     -23.589  -6.876  -7.991  0.50 13.79 LIG-0.06  A 
ATOM     40  CD2 PHE I 101     -24.567  -7.728  -7.487  0.50 13.65 LIG 0.01  A 
ATOM     41  CE2 PHE I 101     -25.314  -8.528  -8.352  0.50 14.96 LIG 0.00  A 
ATOM     42  CZ  PHE I 101     -25.075  -8.474  -9.715  0.50 12.06 LIG 0.00  A 
ATOM     43  CE1 PHE I 101     -24.093  -7.633 -10.218  0.50 11.76 LIG 0.00  A 
ATOM     44  CD1 PHE I 101     -23.346  -6.833  -9.360  0.50 13.16 LIG 0.01  A 
ENDBRANCH 38 39
ENDBRANCH 36 38
ENDBRANCH 34 36
ENDBRANCH 27 32
ENDBRANCH 1 27
TORSDOF 19
ENDMDL
MODEL 9
USER: ADFR SOLUTION from run 166
USER: SCORE 18.508992 LL:  -3.922 LR: -15.591 RR:   0.000 FEB:  -9.923
USER: RMSD 7.995906
USER: SEED 165
USER: STATUS no improvement in best in 6 clusters for 5 generations
USER: GENES 21
USER: genes 0 Translation |==|  0.61814 0.50438 0.60830
USER: genes 1 Rotation |==|  0.96966 0.42500 0.51516 0.65351
USER: genes 2 Torsion [C]-N--CA-[C] |==|  0.74452
USER: genes 3 Torsion [N]-CA--C-[N] |==|  0.90169
USER: genes 4 Torsion [C]-N--CA-[CB] |==|  0.89455
USER: genes 5 Torsion [N]-CA--CB-[CG] |==|  0.46120
USER: genes 6 Torsion [CA]-CB--CG-[CD] |==|  0.52125
USER: genes 7 Torsion [CB]-CG--CD-[CE] |==|  0.04549
USER: genes 8 Torsion [CG]-CD--CE-[NZ] |==|  0.41836
USER: genes 9 Torsion [CD]-CE--NZ-[HZ3] |==|  0.99473
USER: genes 10 Torsion [N]-CA--C-[OXT] |==|  0.83095
USER: genes 11 Torsion [N]-CA--CB-[CG] |==|  0.65097
USER: genes 12 Torsion [CA]-CB--CG-[CD] |==|  0.17292
USER: genes 13 Torsion [CB]-CG--CD-[OE1] |==|  0.30184
USER: genes 14 Torsion [N]-C--CA-[N] |==|  0.88909
USER: genes 15 Torsion [C]-CA--CB-[CG] |==|  0.84599
USER: genes 16 Torsion [CA]-CB--CG-[CD2] |==|  0.63097
USER: genes 17 Torsion [C]-CA--N-[C] |==|  0.58366
USER: genes 18 Torsion [N]-C--CA-[N] |==|  0.30988
USER: genes 19 Torsion [C]-CA--CB-[CG] |==|  0.20805
USER: genes 20 Torsion [CA]-CB--CG-[CD2] |==|  0.31697
ROOT
ATOM      1  C   LEU I 102     -20.918  -5.032  -4.408  0.50 11.09 LIG 0.24  C 
ATOM      2 O    LEU I 102     -19.691  -4.950  -4.503  0.50  6.75 LIG-0.27  OA
ATOM      3  N   GLU I 103     -21.693  -3.969  -4.532  0.50 13.38 LIG-0.35  N 
ATOM      4 H    GLU I 103     -22.551  -4.003  -4.573  0.50 13.38 LIG 0.16  HD
ENDROOT
BRANCH 3 5
ATOM      5  CA  GLU I 103     -21.141  -2.626  -4.613  0.50 18.34 LIG 0.18  C 
BRANCH 5 6
ATOM      6  C   GLU I 103     -21.060  -2.012  -3.224  0.50 17.37 LIG 0.24  C 
ATOM      7  N   LYS I 104     -22.043  -2.344  -2.411  0.50 22.43 LIG-0.34  N 
ATOM      8 H    LYS I 104     -22.681  -2.872  -2.642  0.50 22.43 LIG 0.16  HD
ATOM      9 O    GLU I 103     -20.134  -1.260  -2.925  0.50 19.80 LIG-0.27  OA
BRANCH 7 10
ATOM     10  CA  LYS I 104     -22.158  -1.863  -1.053  0.50 29.15 LIG 0.18  C 
BRANCH 10 11
ATOM     11  CB  LYS I 104     -20.822  -1.773  -0.379  0.50 30.49 LIG 0.04  C 
BRANCH 11 12
ATOM     12  CG  LYS I 104     -20.719  -1.006   0.898  0.50 30.90 LIG 0.00  C 
BRANCH 12 13
ATOM     13  CD  LYS I 104     -19.228  -0.989   1.133  0.50 30.43 LIG 0.03  C 
BRANCH 13 14
ATOM     14  CE  LYS I 104     -18.633  -1.360  -0.177  0.50 34.48 LIG 0.23  C 
BRANCH 14 15
ATOM     15  NZ  LYS I 104     -17.352  -0.726  -0.257  0.50 39.75 LIG-0.08  N 
ATOM     16 HZ3  LYS I 104     -17.216  -0.238   0.475  0.50 39.75 LIG 0.27  HD
ATOM     17 HZ2  LYS I 104     -17.325  -0.199  -0.974  0.50 39.75 LIG 0.27  HD
ATOM     18 HZ1  LYS I 104     -16.717  -1.347  -0.322  0.50 39.75 LIG 0.27  HD
ENDBRANCH 14 15
ENDBRANCH 13 14
ENDBRANCH 12 13
ENDBRANCH 11 12
ENDBRANCH 10 11
BRANCH 10 19
ATOM     19  C   LYS I 104     -22.707  -0.452  -1.121  0.50 31.87 LIG 0.20  C 
ATOM     20 OXT  LYS I 104     -22.044   0.393  -1.723  0.50 33.47 LIG-0.65  OA
ATOM     21 O    LYS I 104     -23.808  -0.238  -0.589  0.50 36.52 LIG-0.65  OA
ENDBRANCH 10 19
ENDBRANCH 7 10
ENDBRANCH 5 6
BRANCH 5 22
ATOM     22  CB  GLU I 103     -21.992  -1.737  -5.485  0.50 17.76 LIG 0.04  C 
BRANCH 22 23
ATOM     23  CG  GLU I 103     -21.140  -1.127  -6.551  0.50 22.90 LIG 0.12  C 
BRANCH 23 24
ATOM     24  CD  GLU I 103     -20.513  -2.117  -7.492  0.50 27.65 LIG 0.17  C 
ATOM     25 OE1  GLU I 103     -20.906  -2.210  -8.660  0.50 28.22 LIG-0.65  OA
ATOM     26 OE2  GLU I 103     -19.601  -2.790  -7.022  0.50 31.39 LIG-0.65  OA
ENDBRANCH 23 24
ENDBRANCH 22 23
ENDBRANCH 5 22
ENDBRANCH 3 5
BRANCH 1 27
ATOM     27  CA  LEU I 102     -21.527  -6.399  -4.165  0.50 14.84 LIG 0.18  C 
BRANCH 27 28
ATOM     28  CB  LEU I 102     -21.991  -6.869  -5.513  0.50 17.78 LIG 0.04  C 
BRANCH 28 29
ATOM     29  CG  LEU I 102     -22.934  -6.035  -6.335  0.50 23.00 LIG-0.02  C 
ATOM     30  CD2 LEU I 102     -24.034  -6.945  -6.840  0.50 23.20 LIG 0.01  C 
ATOM     31  CD1 LEU I 102     -22.209  -5.382  -7.502  0.50 25.90 LIG 0.01  C 
ENDBRANCH 28 29
ENDBRANCH 27 28
BRANCH 27 32
ATOM     32  N   LEU I 102     -22.627  -6.177  -3.226  0.50 17.71 LIG-0.35  N 
ATOM     33 H    LEU I 102     -22.974  -5.395  -3.321  0.50 17.71 LIG 0.16  HD
ATOM     34  C   PHE I 101     -23.093  -7.032  -2.308  0.50 15.00 LIG 0.26  C 
ATOM     35 O    PHE I 101     -22.776  -8.212  -2.167  0.50 13.40 LIG-0.27  OA
BRANCH 34 36
ATOM     36  CA  PHE I 101     -24.223  -6.506  -1.440  0.50 16.66 LIG 0.40  C 
ATOM     37  N   PHE I 101     -25.340  -7.307  -1.881  0.50 14.66 LIG 0.61  N 
BRANCH 36 38
ATOM     38  CB  PHE I 101     -23.879  -6.739   0.035  0.50 13.93 LIG 0.09  C 
BRANCH 38 39
ATOM     39  CG  PHE I 101     -22.823  -5.758   0.538  0.50 13.79 LIG-0.06  A 
ATOM     40  CD2 PHE I 101     -23.162  -4.820   1.508  0.50 13.65 LIG 0.01  A 
ATOM     41  CE2 PHE I 101     -22.183  -3.989   2.053  0.50 14.96 LIG 0.00  A 
ATOM     42  CZ  PHE I 101     -20.871  -4.098   1.620  0.50 12.06 LIG 0.00  A 
ATOM     43  CE1 PHE I 101     -20.534  -5.025   0.644  0.50 11.76 LIG 0.00  A 
ATOM     44  CD1 PHE I 101     -21.506  -5.856   0.099  0.50 13.16 LIG 0.01  A 
ENDBRANCH 38 39
ENDBRANCH 36 38
ENDBRANCH 34 36
ENDBRANCH 27 32
ENDBRANCH 1 27
TORSDOF 19
ENDMDL
MODEL 10
USER: ADFR SOLUTION from run 131
USER: SCORE 18.109694 LL:  -3.784 LR: -15.490 RR:   0.000 FEB:  -9.823
USER: RMSD 9.543221
USER: SEED 130
USER: STATUS no improvement in best in 1 clusters for 5 generations
USER: GENES 21
USER: genes 0 Translation |==|  0.56870 0.43386 0.64965
USER: genes 1 Rotation |==|  0.95051 0.30577 0.59206 0.52899
USER: genes 2 Torsion [C]-N--CA-[C] |==|  0.69151
USER: genes 3 Torsion [N]-CA--C-[N] |==|  0.62490
USER: genes 4 Torsion [C]-N--CA-[CB] |==|  0.25972
USER: genes 5 Torsion [N]-CA--CB-[CG] |==|  0.98819
USER: genes 6 Torsion [CA]-CB--CG-[CD] |==|  0.27927
USER: genes 7 Torsion [CB]-CG--CD-[CE] |==|  0.64516
USER: genes 8 Torsion [CG]-CD--CE-[NZ] |==|  0.57330
USER: genes 9 Torsion [CD]-CE--NZ-[HZ3] |==|  0.39897
USER: genes 10 Torsion [N]-CA--C-[OXT] |==|  0.41836
USER: genes 11 Torsion [N]-CA--CB-[CG] |==|  0.96612
USER: genes 12 Torsion [CA]-CB--CG-[CD] |==|  0.76139
USER: genes 13 Torsion [CB]-CG--CD-[OE1] |==|  0.71497
USER: genes 14 Torsion [N]-C--CA-[N] |==|  0.23637
USER: genes 15 Torsion [C]-CA--CB-[CG] |==|  0.16042
USER: genes 16 Torsion [CA]-CB--CG-[CD2] |==|  0.45877
USER: genes 17 Torsion [C]-CA--N-[C] |==|  0.70245
USER: genes 18 Torsion [N]-C--CA-[N] |==|  0.91281
USER: genes 19 Torsion [C]-CA--CB-[CG] |==|  0.30191
USER: genes 20 Torsion [CA]-CB--CG-[CD2] |==|  0.11612
ROOT
ATOM      1  C   LEU I 102     -21.623  -6.354  -3.415  0.50 11.09 LIG 0.24  C 
ATOM      2 O    LEU I 102     -20.562  -6.785  -2.956  0.50  6.75 LIG-0.27  OA
ATOM      3  N   GLU I 103     -21.948  -5.076  -3.323  0.50 13.38 LIG-0.35  N 
ATOM      4 H    GLU I 103     -22.626  -4.724  -3.717  0.50 13.38 LIG 0.16  HD
ENDROOT
BRANCH 3 5
ATOM      5  CA  GLU I 103     -21.163  -4.144  -2.529  0.50 18.34 LIG 0.18  C 
BRANCH 5 6
ATOM      6  C   GLU I 103     -21.959  -3.700  -1.311  0.50 17.37 LIG 0.24  C 
ATOM      7  N   LYS I 104     -21.922  -2.405  -1.064  0.50 22.43 LIG-0.34  N 
ATOM      8 H    LYS I 104     -21.486  -1.850  -1.555  0.50 22.43 LIG 0.16  HD
ATOM      9 O    GLU I 103     -22.571  -4.521  -0.630  0.50 19.80 LIG-0.27  OA
BRANCH 7 10
ATOM     10  CA  LYS I 104     -22.602  -1.781   0.048  0.50 29.15 LIG 0.18  C 
BRANCH 10 11
ATOM     11  CB  LYS I 104     -21.709  -1.649   1.243  0.50 30.49 LIG 0.04  C 
BRANCH 11 12
ATOM     12  CG  LYS I 104     -20.338  -2.236   1.176  0.50 30.90 LIG 0.00  C 
BRANCH 12 13
ATOM     13  CD  LYS I 104     -19.490  -1.019   0.893  0.50 30.43 LIG 0.03  C 
BRANCH 13 14
ATOM     14  CE  LYS I 104     -18.683  -1.388  -0.300  0.50 34.48 LIG 0.23  C 
BRANCH 14 15
ATOM     15  NZ  LYS I 104     -17.481  -0.612  -0.257  0.50 39.75 LIG-0.08  N 
ATOM     16 HZ3  LYS I 104     -16.801  -1.101  -0.560  0.50 39.75 LIG 0.27  HD
ATOM     17 HZ2  LYS I 104     -17.317  -0.365   0.582  0.50 39.75 LIG 0.27  HD
ATOM     18 HZ1  LYS I 104     -17.577   0.112  -0.766  0.50 39.75 LIG 0.27  HD
ENDBRANCH 14 15
ENDBRANCH 13 14
ENDBRANCH 12 13
ENDBRANCH 11 12
ENDBRANCH 10 11
BRANCH 10 19
ATOM     19  C   LYS I 104     -22.966  -0.374  -0.382  0.50 31.87 LIG 0.20  C 
ATOM     20 OXT  LYS I 104     -23.970   0.136   0.118  0.50 33.47 LIG-0.65  OA
ATOM     21 O    LYS I 104     -22.216   0.193  -1.191  0.50 36.52 LIG-0.65  OA
ENDBRANCH 10 19
ENDBRANCH 7 10
ENDBRANCH 5 6
BRANCH 5 22
ATOM     22  CB  GLU I 103     -20.788  -2.924  -3.332  0.50 17.76 LIG 0.04  C 
BRANCH 22 23
ATOM     23  CG  GLU I 103     -21.078  -3.174  -4.776  0.50 22.90 LIG 0.12  C 
BRANCH 23 24
ATOM     24  CD  GLU I 103     -19.974  -3.865  -5.526  0.50 27.65 LIG 0.17  C 
ATOM     25 OE1  GLU I 103     -19.228  -3.227  -6.275  0.50 28.22 LIG-0.65  OA
ATOM     26 OE2  GLU I 103     -19.873  -5.071  -5.326  0.50 31.39 LIG-0.65  OA
ENDBRANCH 23 24
ENDBRANCH 22 23
ENDBRANCH 5 22
ENDBRANCH 3 5
BRANCH 1 27
ATOM     27  CA  LEU I 102     -22.546  -7.330  -4.117  0.50 14.84 LIG 0.18  C 
BRANCH 27 28
ATOM     28  CB  LEU I 102     -22.228  -8.671  -3.523  0.50 17.78 LIG 0.04  C 
BRANCH 28 29
ATOM     29  CG  LEU I 102     -22.346  -8.904  -2.042  0.50 23.00 LIG-0.02  C 
ATOM     30  CD2 LEU I 102     -22.325 -10.400  -1.808  0.50 23.20 LIG 0.01  C 
ATOM     31  CD1 LEU I 102     -23.632  -8.301  -1.498  0.50 25.90 LIG 0.01  C 
ENDBRANCH 28 29
ENDBRANCH 27 28
BRANCH 27 32
ATOM     32  N   LEU I 102     -22.207  -7.238  -5.538  0.50 17.71 LIG-0.35  N 
ATOM     33 H    LEU I 102     -21.451  -7.611  -5.710  0.50 17.71 LIG 0.16  HD
ATOM     34  C   PHE I 101     -22.930  -6.664  -6.507  0.50 15.00 LIG 0.26  C 
ATOM     35 O    PHE I 101     -24.074  -6.223  -6.416  0.50 13.40 LIG-0.27  OA
BRANCH 34 36
ATOM     36  CA  PHE I 101     -22.300  -6.684  -7.889  0.50 16.66 LIG 0.40  C 
ATOM     37  N   PHE I 101     -20.890  -6.623  -7.579  0.50 14.66 LIG 0.61  N 
BRANCH 36 38
ATOM     38  CB  PHE I 101     -22.688  -7.982  -8.604  0.50 13.93 LIG 0.09  C 
BRANCH 38 39
ATOM     39  CG  PHE I 101     -23.680  -7.735  -9.738  0.50 13.79 LIG-0.06  A 
ATOM     40  CD2 PHE I 101     -23.504  -6.642 -10.580  0.50 13.65 LIG 0.01  A 
ATOM     41  CE2 PHE I 101     -24.339  -6.463 -11.683  0.50 14.96 LIG 0.00  A 
ATOM     42  CZ  PHE I 101     -25.348  -7.377 -11.934  0.50 12.06 LIG 0.00  A 
ATOM     43  CE1 PHE I 101     -25.532  -8.462 -11.090  0.50 11.76 LIG 0.00  A 
ATOM     44  CD1 PHE I 101     -24.701  -8.645  -9.989  0.50 13.16 LIG 0.01  A 
ENDBRANCH 38 39
ENDBRANCH 36 38
ENDBRANCH 34 36
ENDBRANCH 27 32
ENDBRANCH 1 27
TORSDOF 19
ENDMDL
MODEL 11
USER: ADFR SOLUTION from run 31
USER: SCORE 17.874463 LL:  -3.509 LR: -15.406 RR:   0.000 FEB:  -9.738
USER: RMSD 2.412352
USER: SEED 30
USER: STATUS no improvement in best in 5 clusters for 5 generations
USER: GENES 21
USER: genes 0 Translation |==|  0.63646 0.56328 0.62231
USER: genes 1 Rotation |==|  0.47767 0.58474 0.49192 0.99219
USER: genes 2 Torsion [C]-N--CA-[C] |==|  0.68010
USER: genes 3 Torsion [N]-CA--C-[N] |==|  0.56591
USER: genes 4 Torsion [C]-N--CA-[CB] |==|  0.31606
USER: genes 5 Torsion [N]-CA--CB-[CG] |==|  0.74085
USER: genes 6 Torsion [CA]-CB--CG-[CD] |==|  0.39477
USER: genes 7 Torsion [CB]-CG--CD-[CE] |==|  0.86659
USER: genes 8 Torsion [CG]-CD--CE-[NZ] |==|  0.72298
USER: genes 9 Torsion [CD]-CE--NZ-[HZ3] |==|  0.21959
USER: genes 10 Torsion [N]-CA--C-[OXT] |==|  0.05416
USER: genes 11 Torsion [N]-CA--CB-[CG] |==|  0.86970
USER: genes 12 Torsion [CA]-CB--CG-[CD] |==|  0.61908
USER: genes 13 Torsion [CB]-CG--CD-[OE1] |==|  0.50343
USER: genes 14 Torsion [N]-C--CA-[N] |==|  0.32544
USER: genes 15 Torsion [C]-CA--CB-[CG] |==|  0.23730
USER: genes 16 Torsion [CA]-CB--CG-[CD2] |==|  0.02561
USER: genes 17 Torsion [C]-CA--N-[C] |==|  0.56428
USER: genes 18 Torsion [N]-C--CA-[N] |==|  0.31641
USER: genes 19 Torsion [C]-CA--CB-[CG] |==|  0.17132
USER: genes 20 Torsion [CA]-CB--CG-[CD2] |==|  0.61306
ROOT
ATOM      1  C   LEU I 102     -20.657  -3.927  -4.071  0.50 11.09 LIG 0.24  C 
ATOM      2 O    LEU I 102     -19.602  -4.465  -4.416  0.50  6.75 LIG-0.27  OA
ATOM      3  N   GLU I 103     -21.811  -4.570  -4.131  0.50 13.38 LIG-0.35  N 
ATOM      4 H    GLU I 103     -22.547  -4.265  -3.806  0.50 13.38 LIG 0.16  HD
ENDROOT
BRANCH 3 5
ATOM      5  CA  GLU I 103     -21.929  -5.874  -4.764  0.50 18.34 LIG 0.18  C 
BRANCH 5 6
ATOM      6  C   GLU I 103     -22.824  -5.779  -5.989  0.50 17.37 LIG 0.24  C 
ATOM      7  N   LYS I 104     -23.395  -6.911  -6.350  0.50 22.43 LIG-0.34  N 
ATOM      8 H    LYS I 104     -23.277  -7.649  -5.924  0.50 22.43 LIG 0.16  HD
ATOM      9 O    GLU I 103     -22.971  -4.707  -6.575  0.50 19.80 LIG-0.27  OA
BRANCH 7 10
ATOM     10  CA  LYS I 104     -24.274  -7.038  -7.490  0.50 29.15 LIG 0.18  C 
BRANCH 10 11
ATOM     11  CB  LYS I 104     -23.678  -7.900  -8.560  0.50 30.49 LIG 0.04  C 
BRANCH 11 12
ATOM     12  CG  LYS I 104     -22.903  -7.243  -9.655  0.50 30.90 LIG 0.00  C 
BRANCH 12 13
ATOM     13  CD  LYS I 104     -21.781  -8.228  -9.879  0.50 30.43 LIG 0.03  C 
BRANCH 13 14
ATOM     14  CE  LYS I 104     -21.263  -8.530  -8.518  0.50 34.48 LIG 0.23  C 
BRANCH 14 15
ATOM     15  NZ  LYS I 104     -20.086  -7.740  -8.327  0.50 39.75 LIG-0.08  N 
ATOM     16 HZ3  LYS I 104     -20.318  -6.904  -8.124  0.50 39.75 LIG 0.27  HD
ATOM     17 HZ2  LYS I 104     -19.603  -7.739  -9.076  0.50 39.75 LIG 0.27  HD
ATOM     18 HZ1  LYS I 104     -19.602  -8.083  -7.663  0.50 39.75 LIG 0.27  HD
ENDBRANCH 14 15
ENDBRANCH 13 14
ENDBRANCH 12 13
ENDBRANCH 11 12
ENDBRANCH 10 11
BRANCH 10 19
ATOM     19  C   LYS I 104     -25.529  -7.741  -7.013  0.50 31.87 LIG 0.20  C 
ATOM     20 OXT  LYS I 104     -25.763  -7.739  -5.803  0.50 33.47 LIG-0.65  OA
ATOM     21 O    LYS I 104     -26.262  -8.255  -7.872  0.50 36.52 LIG-0.65  OA
ENDBRANCH 10 19
ENDBRANCH 7 10
ENDBRANCH 5 6
BRANCH 5 22
ATOM     22  CB  GLU I 103     -22.513  -6.890  -3.816  0.50 17.76 LIG 0.04  C 
BRANCH 22 23
ATOM     23  CG  GLU I 103     -21.820  -6.792  -2.495  0.50 22.90 LIG 0.12  C 
BRANCH 23 24
ATOM     24  CD  GLU I 103     -21.477  -8.114  -1.869  0.50 27.65 LIG 0.17  C 
ATOM     25 OE1  GLU I 103     -20.922  -8.162  -0.765  0.50 28.22 LIG-0.65  OA
ATOM     26 OE2  GLU I 103     -21.796  -9.105  -2.517  0.50 31.39 LIG-0.65  OA
ENDBRANCH 23 24
ENDBRANCH 22 23
ENDBRANCH 5 22
ENDBRANCH 3 5
BRANCH 1 27
ATOM     27  CA  LEU I 102     -20.598  -2.505  -3.551  0.50 14.84 LIG 0.18  C 
BRANCH 27 28
ATOM     28  CB  LEU I 102     -19.977  -1.705  -4.658  0.50 17.78 LIG 0.04  C 
BRANCH 28 29
ATOM     29  CG  LEU I 102     -20.820  -1.152  -5.773  0.50 23.00 LIG-0.02  C 
ATOM     30  CD2 LEU I 102     -22.273  -1.360  -5.400  0.50 23.20 LIG 0.01  C 
ATOM     31  CD1 LEU I 102     -20.506  -1.847  -7.089  0.50 25.90 LIG 0.01  C 
ENDBRANCH 28 29
ENDBRANCH 27 28
BRANCH 27 32
ATOM     32  N   LEU I 102     -19.765  -2.563  -2.349  0.50 17.71 LIG-0.35  N 
ATOM     33 H    LEU I 102     -19.241  -3.246  -2.356  0.50 17.71 LIG 0.16  HD
ATOM     34  C   PHE I 101     -19.759  -1.701  -1.325  0.50 15.00 LIG 0.26  C 
ATOM     35 O    PHE I 101     -20.355  -0.626  -1.258  0.50 13.40 LIG-0.27  OA
BRANCH 34 36
ATOM     36  CA  PHE I 101     -18.812  -2.043  -0.189  0.50 16.66 LIG 0.40  C 
ATOM     37  N   PHE I 101     -17.855  -0.964  -0.257  0.50 14.66 LIG 0.61  N 
BRANCH 36 38
ATOM     38  CB  PHE I 101     -19.589  -2.056   1.132  0.50 13.93 LIG 0.09  C 
BRANCH 38 39
ATOM     39  CG  PHE I 101     -20.691  -3.113   1.138  0.50 13.79 LIG-0.06  A 
ATOM     40  CD2 PHE I 101     -21.928  -2.813   1.698  0.50 13.65 LIG 0.01  A 
ATOM     41  CE2 PHE I 101     -22.977  -3.730   1.616  0.50 14.96 LIG 0.00  A 
ATOM     42  CZ  PHE I 101     -22.779  -4.943   0.979  0.50 12.06 LIG 0.00  A 
ATOM     43  CE1 PHE I 101     -21.542  -5.249   0.429  0.50 11.76 LIG 0.00  A 
ATOM     44  CD1 PHE I 101     -20.494  -4.337   0.507  0.50 13.16 LIG 0.01  A 
ENDBRANCH 38 39
ENDBRANCH 36 38
ENDBRANCH 34 36
ENDBRANCH 27 32
ENDBRANCH 1 27
TORSDOF 19
ENDMDL
MODEL 12
USER: ADFR SOLUTION from run 54
USER: SCORE 17.970814 LL:  -3.235 LR: -15.284 RR:   0.000 FEB:  -9.616
USER: RMSD 7.924962
USER: SEED 53
USER: STATUS no improvement in best in 7 clusters for 5 generations
USER: GENES 21
USER: genes 0 Translation |==|  0.62655 0.51597 0.61118
USER: genes 1 Rotation |==|  0.98809 0.46559 0.52667 0.59935
USER: genes 2 Torsion [C]-N--CA-[C] |==|  0.64293
USER: genes 3 Torsion [N]-CA--C-[N] |==|  0.23207
USER: genes 4 Torsion [C]-N--CA-[CB] |==|  0.52873
USER: genes 5 Torsion [N]-CA--CB-[CG] |==|  0.19736
USER: genes 6 Torsion [CA]-CB--CG-[CD] |==|  0.70065
USER: genes 7 Torsion [CB]-CG--CD-[CE] |==|  0.32533
USER: genes 8 Torsion [CG]-CD--CE-[NZ] |==|  0.28711
USER: genes 9 Torsion [CD]-CE--NZ-[HZ3] |==|  0.63382
USER: genes 10 Torsion [N]-CA--C-[OXT] |==|  0.92139
USER: genes 11 Torsion [N]-CA--CB-[CG] |==|  0.71096
USER: genes 12 Torsion [CA]-CB--CG-[CD] |==|  0.25261
USER: genes 13 Torsion [CB]-CG--CD-[OE1] |==|  0.24432
USER: genes 14 Torsion [N]-C--CA-[N] |==|  0.89590
USER: genes 15 Torsion [C]-CA--CB-[CG] |==|  0.84072
USER: genes 16 Torsion [CA]-CB--CG-[CD2] |==|  0.64313
USER: genes 17 Torsion [C]-CA--N-[C] |==|  0.85556
USER: genes 18 Torsion [N]-C--CA-[N] |==|  0.07806
USER: genes 19 Torsion [C]-CA--CB-[CG] |==|  0.79087
USER: genes 20 Torsion [CA]-CB--CG-[CD2] |==|  0.23706
ROOT
ATOM      1  C   LEU I 102     -20.799  -4.815  -4.339  0.50 11.09 LIG 0.24  C 
ATOM      2 O    LEU I 102     -19.608  -4.495  -4.361  0.50  6.75 LIG-0.27  OA
ATOM      3  N   GLU I 103     -21.756  -3.906  -4.270  0.50 13.38 LIG-0.35  N 
ATOM      4 H    GLU I 103     -22.593  -4.085  -4.354  0.50 13.38 LIG 0.16  HD
ENDROOT
BRANCH 3 5
ATOM      5  CA  GLU I 103     -21.462  -2.500  -4.043  0.50 18.34 LIG 0.18  C 
BRANCH 5 6
ATOM      6  C   GLU I 103     -22.302  -1.972  -2.891  0.50 17.37 LIG 0.24  C 
ATOM      7  N   LYS I 104     -21.807  -2.203  -1.691  0.50 22.43 LIG-0.34  N 
ATOM      8 H    LYS I 104     -21.064  -2.616  -1.564  0.50 22.43 LIG 0.16  HD
ATOM      9 O    GLU I 103     -23.361  -1.386  -3.106  0.50 19.80 LIG-0.27  OA
BRANCH 7 10
ATOM     10  CA  LYS I 104     -22.453  -1.793  -0.465  0.50 29.15 LIG 0.18  C 
BRANCH 10 11
ATOM     11  CB  LYS I 104     -21.555  -1.964   0.722  0.50 30.49 LIG 0.04  C 
BRANCH 11 12
ATOM     12  CG  LYS I 104     -20.390  -1.043   0.873  0.50 30.90 LIG 0.00  C 
BRANCH 12 13
ATOM     13  CD  LYS I 104     -19.228  -1.953   0.551  0.50 30.43 LIG 0.03  C 
BRANCH 13 14
ATOM     14  CE  LYS I 104     -18.613  -1.365  -0.668  0.50 34.48 LIG 0.23  C 
BRANCH 14 15
ATOM     15  NZ  LYS I 104     -17.426  -0.680  -0.257  0.50 39.75 LIG-0.08  N 
ATOM     16 HZ3  LYS I 104     -17.412   0.134  -0.617  0.50 39.75 LIG 0.27  HD
ATOM     17 HZ2  LYS I 104     -16.710  -1.136  -0.529  0.50 39.75 LIG 0.27  HD
ATOM     18 HZ1  LYS I 104     -17.414  -0.612   0.630  0.50 39.75 LIG 0.27  HD
ENDBRANCH 14 15
ENDBRANCH 13 14
ENDBRANCH 12 13
ENDBRANCH 11 12
ENDBRANCH 10 11
BRANCH 10 19
ATOM     19  C   LYS I 104     -22.739  -0.309  -0.583  0.50 31.87 LIG 0.20  C 
ATOM     20 OXT  LYS I 104     -21.993   0.364  -1.296  0.50 33.47 LIG-0.65  OA
ATOM     21 O    LYS I 104     -23.726   0.137   0.024  0.50 36.52 LIG-0.65  OA
ENDBRANCH 10 19
ENDBRANCH 7 10
ENDBRANCH 5 6
BRANCH 5 22
ATOM     22  CB  GLU I 103     -21.754  -1.676  -5.272  0.50 17.76 LIG 0.04  C 
BRANCH 22 23
ATOM     23  CG  GLU I 103     -20.469  -1.321  -5.947  0.50 22.90 LIG 0.12  C 
BRANCH 23 24
ATOM     24  CD  GLU I 103     -20.020  -2.302  -6.993  0.50 27.65 LIG 0.17  C 
ATOM     25 OE1  GLU I 103     -20.401  -2.192  -8.163  0.50 28.22 LIG-0.65  OA
ATOM     26 OE2  GLU I 103     -19.260  -3.181  -6.602  0.50 31.39 LIG-0.65  OA
ENDBRANCH 23 24
ENDBRANCH 22 23
ENDBRANCH 5 22
ENDBRANCH 3 5
BRANCH 1 27
ATOM     27  CA  LEU I 102     -21.145  -6.288  -4.415  0.50 14.84 LIG 0.18  C 
BRANCH 27 28
ATOM     28  CB  LEU I 102     -21.450  -6.547  -5.862  0.50 17.78 LIG 0.04  C 
BRANCH 28 29
ATOM     29  CG  LEU I 102     -22.526  -5.774  -6.571  0.50 23.00 LIG-0.02  C 
ATOM     30  CD2 LEU I 102     -23.445  -6.773  -7.243  0.50 23.20 LIG 0.01  C 
ATOM     31  CD1 LEU I 102     -21.929  -4.827  -7.600  0.50 25.90 LIG 0.01  C 
ENDBRANCH 28 29
ENDBRANCH 27 28
BRANCH 27 32
ATOM     32  N   LEU I 102     -22.308  -6.463  -3.545  0.50 17.71 LIG-0.35  N 
ATOM     33 H    LEU I 102     -22.951  -6.867  -3.949  0.50 17.71 LIG 0.16  HD
ATOM     34  C   PHE I 101     -22.432  -6.073  -2.270  0.50 15.00 LIG 0.26  C 
ATOM     35 O    PHE I 101     -21.549  -5.614  -1.547  0.50 13.40 LIG-0.27  OA
BRANCH 34 36
ATOM     36  CA  PHE I 101     -23.780  -6.353  -1.631  0.50 16.66 LIG 0.40  C 
ATOM     37  N   PHE I 101     -24.228  -7.514  -2.364  0.50 14.66 LIG 0.61  N 
BRANCH 36 38
ATOM     38  CB  PHE I 101     -23.584  -6.641  -0.138  0.50 13.93 LIG 0.09  C 
BRANCH 38 39
ATOM     39  CG  PHE I 101     -23.011  -8.035   0.104  0.50 13.79 LIG-0.06  A 
ATOM     40  CD2 PHE I 101     -21.634  -8.231   0.055  0.50 13.65 LIG 0.01  A 
ATOM     41  CE2 PHE I 101     -21.089  -9.474   0.378  0.50 14.96 LIG 0.00  A 
ATOM     42  CZ  PHE I 101     -21.927 -10.516   0.743  0.50 12.06 LIG 0.00  A 
ATOM     43  CE1 PHE I 101     -23.300 -10.326   0.780  0.50 11.76 LIG 0.00  A 
ATOM     44  CD1 PHE I 101     -23.848  -9.088   0.461  0.50 13.16 LIG 0.01  A 
ENDBRANCH 38 39
ENDBRANCH 36 38
ENDBRANCH 34 36
ENDBRANCH 27 32
ENDBRANCH 1 27
TORSDOF 19
ENDMDL
MODEL 13
USER: ADFR SOLUTION from run 176
USER: SCORE 17.944643 LL:  -3.441 LR: -15.179 RR:   0.000 FEB:  -9.511
USER: RMSD 9.632628
USER: SEED 175
USER: STATUS no improvement in best in 4 clusters for 5 generations
USER: GENES 21
USER: genes 0 Translation |==|  0.60035 0.53222 0.58403
USER: genes 1 Rotation |==|  0.97438 0.37958 0.49421 0.60213
USER: genes 2 Torsion [C]-N--CA-[C] |==|  0.72321
USER: genes 3 Torsion [N]-CA--C-[N] |==|  0.92914
USER: genes 4 Torsion [C]-N--CA-[CB] |==|  0.88846
USER: genes 5 Torsion [N]-CA--CB-[CG] |==|  0.45995
USER: genes 6 Torsion [CA]-CB--CG-[CD] |==|  0.58898
USER: genes 7 Torsion [CB]-CG--CD-[CE] |==|  0.99879
USER: genes 8 Torsion [CG]-CD--CE-[NZ] |==|  0.45172
USER: genes 9 Torsion [CD]-CE--NZ-[HZ3] |==|  0.72366
USER: genes 10 Torsion [N]-CA--C-[OXT] |==|  0.33822
USER: genes 11 Torsion [N]-CA--CB-[CG] |==|  0.75589
USER: genes 12 Torsion [CA]-CB--CG-[CD] |==|  0.10515
USER: genes 13 Torsion [CB]-CG--CD-[OE1] |==|  0.25180
USER: genes 14 Torsion [N]-C--CA-[N] |==|  0.25020
USER: genes 15 Torsion [C]-CA--CB-[CG] |==|  0.45637
USER: genes 16 Torsion [CA]-CB--CG-[CD2] |==|  0.25421
USER: genes 17 Torsion [C]-CA--N-[C] |==|  0.61066
USER: genes 18 Torsion [N]-C--CA-[N] |==|  0.97843
USER: genes 19 Torsion [C]-CA--CB-[CG] |==|  0.33881
USER: genes 20 Torsion [CA]-CB--CG-[CD2] |==|  0.21349
ROOT
ATOM      1  C   LEU I 102     -21.172  -4.510  -4.990  0.50 11.09 LIG 0.24  C 
ATOM      2 O    LEU I 102     -19.949  -4.640  -5.082  0.50  6.75 LIG-0.27  OA
ATOM      3  N   GLU I 103     -21.734  -3.319  -4.873  0.50 13.38 LIG-0.35  N 
ATOM      4 H    GLU I 103     -22.582  -3.183  -4.909  0.50 13.38 LIG 0.16  HD
ENDROOT
BRANCH 3 5
ATOM      5  CA  GLU I 103     -20.941  -2.117  -4.669  0.50 18.34 LIG 0.18  C 
BRANCH 5 6
ATOM      6  C   GLU I 103     -20.944  -1.734  -3.198  0.50 17.37 LIG 0.24  C 
ATOM      7  N   LYS I 104     -21.991  -2.155  -2.516  0.50 22.43 LIG-0.34  N 
ATOM      8 H    LYS I 104     -22.624  -2.616  -2.871  0.50 22.43 LIG 0.16  HD
ATOM      9 O    GLU I 103     -20.023  -1.073  -2.721  0.50 19.80 LIG-0.27  OA
BRANCH 7 10
ATOM     10  CA  LYS I 104     -22.190  -1.891  -1.109  0.50 29.15 LIG 0.18  C 
BRANCH 10 11
ATOM     11  CB  LYS I 104     -20.913  -2.009  -0.334  0.50 30.49 LIG 0.04  C 
BRANCH 11 12
ATOM     12  CG  LYS I 104     -20.869  -1.458   1.053  0.50 30.90 LIG 0.00  C 
BRANCH 12 13
ATOM     13  CD  LYS I 104     -19.430  -1.012   1.167  0.50 30.43 LIG 0.03  C 
BRANCH 13 14
ATOM     14  CE  LYS I 104     -18.820  -1.363  -0.142  0.50 34.48 LIG 0.23  C 
BRANCH 14 15
ATOM     15  NZ  LYS I 104     -17.604  -0.617  -0.257  0.50 39.75 LIG-0.08  N 
ATOM     16 HZ3  LYS I 104     -17.743   0.101  -0.764  0.50 39.75 LIG 0.27  HD
ATOM     17 HZ2  LYS I 104     -16.977  -1.127  -0.631  0.50 39.75 LIG 0.27  HD
ATOM     18 HZ1  LYS I 104     -17.335  -0.361   0.552  0.50 39.75 LIG 0.27  HD
ENDBRANCH 14 15
ENDBRANCH 13 14
ENDBRANCH 12 13
ENDBRANCH 11 12
ENDBRANCH 10 11
BRANCH 10 19
ATOM     19  C   LYS I 104     -22.646  -0.451  -0.982  0.50 31.87 LIG 0.20  C 
ATOM     20 OXT  LYS I 104     -23.730  -0.239  -0.438  0.50 33.47 LIG-0.65  OA
ATOM     21 O    LYS I 104     -21.886   0.432  -1.409  0.50 36.52 LIG-0.65  OA
ENDBRANCH 10 19
ENDBRANCH 7 10
ENDBRANCH 5 6
BRANCH 5 22
ATOM     22  CB  GLU I 103     -21.486  -0.961  -5.470  0.50 17.76 LIG 0.04  C 
BRANCH 22 23
ATOM     23  CG  GLU I 103     -20.877  -0.974  -6.835  0.50 22.90 LIG 0.12  C 
BRANCH 23 24
ATOM     24  CD  GLU I 103     -20.681  -2.345  -7.420  0.50 27.65 LIG 0.17  C 
ATOM     25 OE1  GLU I 103     -21.565  -2.867  -8.107  0.50 28.22 LIG-0.65  OA
ATOM     26 OE2  GLU I 103     -19.602  -2.874  -7.176  0.50 31.39 LIG-0.65  OA
ENDBRANCH 23 24
ENDBRANCH 22 23
ENDBRANCH 5 22
ENDBRANCH 3 5
BRANCH 1 27
ATOM     27  CA  LEU I 102     -22.029  -5.759  -5.040  0.50 14.84 LIG 0.18  C 
BRANCH 27 28
ATOM     28  CB  LEU I 102     -21.181  -6.843  -4.441  0.50 17.78 LIG 0.04  C 
BRANCH 28 29
ATOM     29  CG  LEU I 102     -21.795  -8.141  -3.995  0.50 23.00 LIG-0.02  C 
ATOM     30  CD2 LEU I 102     -21.730  -9.106  -5.161  0.50 23.20 LIG 0.01  C 
ATOM     31  CD1 LEU I 102     -23.236  -7.939  -3.554  0.50 25.90 LIG 0.01  C 
ENDBRANCH 28 29
ENDBRANCH 27 28
BRANCH 27 32
ATOM     32  N   LEU I 102     -22.320  -5.978  -6.458  0.50 17.71 LIG-0.35  N 
ATOM     33 H    LEU I 102     -21.636  -5.814  -6.953  0.50 17.71 LIG 0.16  HD
ATOM     34  C   PHE I 101     -23.478  -6.382  -6.994  0.50 15.00 LIG 0.26  C 
ATOM     35 O    PHE I 101     -24.476  -6.774  -6.390  0.50 13.40 LIG-0.27  OA
BRANCH 34 36
ATOM     36  CA  PHE I 101     -23.497  -6.479  -8.509  0.50 16.66 LIG 0.40  C 
ATOM     37  N   PHE I 101     -22.227  -5.892  -8.865  0.50 14.66 LIG 0.61  N 
BRANCH 36 38
ATOM     38  CB  PHE I 101     -23.599  -7.951  -8.921  0.50 13.93 LIG 0.09  C 
BRANCH 38 39
ATOM     39  CG  PHE I 101     -24.828  -8.219  -9.787  0.50 13.79 LIG-0.06  A 
ATOM     40  CD2 PHE I 101     -24.819  -7.847 -11.127  0.50 13.65 LIG 0.01  A 
ATOM     41  CE2 PHE I 101     -25.891  -8.179 -11.956  0.50 14.96 LIG 0.00  A 
ATOM     42  CZ  PHE I 101     -26.968  -8.878 -11.436  0.50 12.06 LIG 0.00  A 
ATOM     43  CE1 PHE I 101     -26.984  -9.240 -10.097  0.50 11.76 LIG 0.00  A 
ATOM     44  CD1 PHE I 101     -25.917  -8.912  -9.268  0.50 13.16 LIG 0.01  A 
ENDBRANCH 38 39
ENDBRANCH 36 38
ENDBRANCH 34 36
ENDBRANCH 27 32
ENDBRANCH 1 27
TORSDOF 19
ENDMDL
MODEL 14
USER: ADFR SOLUTION from run 49
USER: SCORE 18.203993 LL:  -4.004 LR: -15.145 RR:   0.000 FEB:  -9.477
USER: RMSD 7.969980
USER: SEED 48
USER: STATUS no improvement in best in 7 clusters for 5 generations
USER: GENES 21
USER: genes 0 Translation |==|  0.63237 0.55135 0.59145
USER: genes 1 Rotation |==|  0.98006 0.52142 0.48395 0.63722
USER: genes 2 Torsion [C]-N--CA-[C] |==|  0.73952
USER: genes 3 Torsion [N]-CA--C-[N] |==|  0.88455
USER: genes 4 Torsion [C]-N--CA-[CB] |==|  0.87212
USER: genes 5 Torsion [N]-CA--CB-[CG] |==|  0.50096
USER: genes 6 Torsion [CA]-CB--CG-[CD] |==|  0.47584
USER: genes 7 Torsion [CB]-CG--CD-[CE] |==|  0.03278
USER: genes 8 Torsion [CG]-CD--CE-[NZ] |==|  0.39410
USER: genes 9 Torsion [CD]-CE--NZ-[HZ3] |==|  0.02824
USER: genes 10 Torsion [N]-CA--C-[OXT] |==|  0.30966
USER: genes 11 Torsion [N]-CA--CB-[CG] |==|  0.67695
USER: genes 12 Torsion [CA]-CB--CG-[CD] |==|  0.04996
USER: genes 13 Torsion [CB]-CG--CD-[OE1] |==|  0.24501
USER: genes 14 Torsion [N]-C--CA-[N] |==|  0.75727
USER: genes 15 Torsion [C]-CA--CB-[CG] |==|  0.26066
USER: genes 16 Torsion [CA]-CB--CG-[CD2] |==|  0.82100
USER: genes 17 Torsion [C]-CA--N-[C] |==|  0.72222
USER: genes 18 Torsion [N]-C--CA-[N] |==|  0.48204
USER: genes 19 Torsion [C]-CA--CB-[CG] |==|  0.32065
USER: genes 20 Torsion [CA]-CB--CG-[CD2] |==|  0.36490
ROOT
ATOM      1  C   LEU I 102     -20.716  -4.151  -4.812  0.50 11.09 LIG 0.24  C 
ATOM      2 O    LEU I 102     -19.636  -3.660  -5.151  0.50  6.75 LIG-0.27  OA
ATOM      3  N   GLU I 103     -21.793  -3.404  -4.647  0.50 13.38 LIG-0.35  N 
ATOM      4 H    GLU I 103     -22.581  -3.721  -4.511  0.50 13.38 LIG 0.16  HD
ENDROOT
BRANCH 3 5
ATOM      5  CA  GLU I 103     -21.729  -1.951  -4.683  0.50 18.34 LIG 0.18  C 
BRANCH 5 6
ATOM      6  C   GLU I 103     -21.565  -1.402  -3.275  0.50 17.37 LIG 0.24  C 
ATOM      7  N   LYS I 104     -22.301  -1.997  -2.357  0.50 22.43 LIG-0.34  N 
ATOM      8 H    LYS I 104     -22.830  -2.651  -2.535  0.50 22.43 LIG 0.16  HD
ATOM      9 O    GLU I 103     -20.799  -0.465  -3.053  0.50 19.80 LIG-0.27  OA
BRANCH 7 10
ATOM     10  CA  LYS I 104     -22.300  -1.622  -0.961  0.50 29.15 LIG 0.18  C 
BRANCH 10 11
ATOM     11  CB  LYS I 104     -20.909  -1.435  -0.435  0.50 30.49 LIG 0.04  C 
BRANCH 11 12
ATOM     12  CG  LYS I 104     -20.735  -1.053   0.997  0.50 30.90 LIG 0.00  C 
BRANCH 12 13
ATOM     13  CD  LYS I 104     -19.241  -1.185   1.177  0.50 30.43 LIG 0.03  C 
BRANCH 13 14
ATOM     14  CE  LYS I 104     -18.705  -1.331  -0.202  0.50 34.48 LIG 0.23  C 
BRANCH 14 15
ATOM     15  NZ  LYS I 104     -17.473  -0.604  -0.258  0.50 39.75 LIG-0.08  N 
ATOM     16 HZ3  LYS I 104     -17.235  -0.359   0.564  0.50 39.75 LIG 0.27  HD
ATOM     17 HZ2  LYS I 104     -17.579   0.121  -0.764  0.50 39.75 LIG 0.27  HD
ATOM     18 HZ1  LYS I 104     -16.839  -1.121  -0.609  0.50 39.75 LIG 0.27  HD
ENDBRANCH 14 15
ENDBRANCH 13 14
ENDBRANCH 12 13
ENDBRANCH 11 12
ENDBRANCH 10 11
BRANCH 10 19
ATOM     19  C   LYS I 104     -22.988  -0.276  -0.857  0.50 31.87 LIG 0.20  C 
ATOM     20 OXT  LYS I 104     -24.085  -0.235  -0.297  0.50 33.47 LIG-0.65  OA
ATOM     21 O    LYS I 104     -22.394   0.711  -1.319  0.50 36.52 LIG-0.65  OA
ENDBRANCH 10 19
ENDBRANCH 7 10
ENDBRANCH 5 6
BRANCH 5 22
ATOM     22  CB  GLU I 103     -22.979  -1.364  -5.288  0.50 17.76 LIG 0.04  C 
BRANCH 22 23
ATOM     23  CG  GLU I 103     -22.628  -0.649  -6.553  0.50 22.90 LIG 0.12  C 
BRANCH 23 24
ATOM     24  CD  GLU I 103     -21.294  -1.023  -7.134  0.50 27.65 LIG 0.17  C 
ATOM     25 OE1  GLU I 103     -21.194  -1.974  -7.917  0.50 28.22 LIG-0.65  OA
ATOM     26 OE2  GLU I 103     -20.350  -0.321  -6.787  0.50 31.39 LIG-0.65  OA
ENDBRANCH 23 24
ENDBRANCH 22 23
ENDBRANCH 5 22
ENDBRANCH 3 5
BRANCH 1 27
ATOM     27  CA  LEU I 102     -20.786  -5.652  -4.610  0.50 14.84 LIG 0.18  C 
BRANCH 27 28
ATOM     28  CB  LEU I 102     -22.172  -6.042  -5.033  0.50 17.78 LIG 0.04  C 
BRANCH 28 29
ATOM     29  CG  LEU I 102     -22.445  -6.507  -6.436  0.50 23.00 LIG-0.02  C 
ATOM     30  CD2 LEU I 102     -22.163  -5.348  -7.369  0.50 23.20 LIG 0.01  C 
ATOM     31  CD1 LEU I 102     -23.886  -6.970  -6.586  0.50 25.90 LIG 0.01  C 
ENDBRANCH 28 29
ENDBRANCH 27 28
BRANCH 27 32
ATOM     32  N   LEU I 102     -20.541  -5.866  -3.183  0.50 17.71 LIG-0.35  N 
ATOM     33 H    LEU I 102     -21.247  -5.721  -2.713  0.50 17.71 LIG 0.16  HD
ATOM     34  C   PHE I 101     -19.393  -6.241  -2.605  0.50 15.00 LIG 0.26  C 
ATOM     35 O    PHE I 101     -18.364  -6.606  -3.172  0.50 13.40 LIG-0.27  OA
BRANCH 34 36
ATOM     36  CA  PHE I 101     -19.427  -6.341  -1.091  0.50 16.66 LIG 0.40  C 
ATOM     37  N   PHE I 101     -18.131  -6.905  -0.796  0.50 14.66 LIG 0.61  N 
BRANCH 36 38
ATOM     38  CB  PHE I 101     -19.608  -4.941  -0.494  0.50 13.93 LIG 0.09  C 
BRANCH 38 39
ATOM     39  CG  PHE I 101     -20.934  -4.804   0.250  0.50 13.79 LIG-0.06  A 
ATOM     40  CD2 PHE I 101     -20.951  -4.258   1.529  0.50 13.65 LIG 0.01  A 
ATOM     41  CE2 PHE I 101     -22.165  -4.029   2.179  0.50 14.96 LIG 0.00  A 
ATOM     42  CZ  PHE I 101     -23.353  -4.352   1.545  0.50 12.06 LIG 0.00  A 
ATOM     43  CE1 PHE I 101     -23.338  -4.906   0.274  0.50 11.76 LIG 0.00  A 
ATOM     44  CD1 PHE I 101     -22.131  -5.136  -0.378  0.50 13.16 LIG 0.01  A 
ENDBRANCH 38 39
ENDBRANCH 36 38
ENDBRANCH 34 36
ENDBRANCH 27 32
ENDBRANCH 1 27
TORSDOF 19
ENDMDL
MODEL 15
USER: ADFR SOLUTION from run 14
USER: SCORE 18.756743 LL:  -4.011 LR: -15.099 RR:   0.000 FEB:  -9.431
USER: RMSD 9.128469
USER: SEED 942400
USER: STATUS no improvement in best in 6 clusters for 5 generations
USER: GENES 21
USER: genes 0 Translation |==|  0.62547 0.53791 0.61469
USER: genes 1 Rotation |==|  0.97304 0.43353 0.48541 0.64696
USER: genes 2 Torsion [C]-N--CA-[C] |==|  0.70986
USER: genes 3 Torsion [N]-CA--C-[N] |==|  0.96041
USER: genes 4 Torsion [C]-N--CA-[CB] |==|  0.87331
USER: genes 5 Torsion [N]-CA--CB-[CG] |==|  0.70599
USER: genes 6 Torsion [CA]-CB--CG-[CD] |==|  0.32061
USER: genes 7 Torsion [CB]-CG--CD-[CE] |==|  0.06366
USER: genes 8 Torsion [CG]-CD--CE-[NZ] |==|  0.30312
USER: genes 9 Torsion [CD]-CE--NZ-[HZ3] |==|  0.90851
USER: genes 10 Torsion [N]-CA--C-[OXT] |==|  0.31997
USER: genes 11 Torsion [N]-CA--CB-[CG] |==|  0.74861
USER: genes 12 Torsion [CA]-CB--CG-[CD] |==|  0.11495
USER: genes 13 Torsion [CB]-CG--CD-[OE1] |==|  0.21074
USER: genes 14 Torsion [N]-C--CA-[N] |==|  0.28446
USER: genes 15 Torsion [C]-CA--CB-[CG] |==|  0.12536
USER: genes 16 Torsion [CA]-CB--CG-[CD2] |==|  0.54655
USER: genes 17 Torsion [C]-CA--N-[C] |==|  0.73664
USER: genes 18 Torsion [N]-C--CA-[N] |==|  0.71852
USER: genes 19 Torsion [C]-CA--CB-[CG] |==|  0.53626
USER: genes 20 Torsion [CA]-CB--CG-[CD2] |==|  0.44334
ROOT
ATOM      1  C   LEU I 102     -20.814  -4.403  -4.254  0.50 11.09 LIG 0.24  C 
ATOM      2 O    LEU I 102     -19.606  -4.316  -4.490  0.50  6.75 LIG-0.27  OA
ATOM      3  N   GLU I 103     -21.594  -3.336  -4.238  0.50 13.38 LIG-0.35  N 
ATOM      4 H    GLU I 103     -22.451  -3.369  -4.178  0.50 13.38 LIG 0.16  HD
ENDROOT
BRANCH 3 5
ATOM      5  CA  GLU I 103     -21.049  -1.990  -4.322  0.50 18.34 LIG 0.18  C 
BRANCH 5 6
ATOM      6  C   GLU I 103     -21.088  -1.326  -2.955  0.50 17.37 LIG 0.24  C 
ATOM      7  N   LYS I 104     -21.844  -1.935  -2.063  0.50 22.43 LIG-0.34  N 
ATOM      8 H    LYS I 104     -22.279  -2.656  -2.235  0.50 22.43 LIG 0.16  HD
ATOM      9 O    GLU I 103     -20.454  -0.294  -2.742  0.50 19.80 LIG-0.27  OA
BRANCH 7 10
ATOM     10  CA  LYS I 104     -22.024  -1.462  -0.708  0.50 29.15 LIG 0.18  C 
BRANCH 10 11
ATOM     11  CB  LYS I 104     -20.723  -1.070  -0.078  0.50 30.49 LIG 0.04  C 
BRANCH 11 12
ATOM     12  CG  LYS I 104     -20.131  -1.972   0.953  0.50 30.90 LIG 0.00  C 
BRANCH 12 13
ATOM     13  CD  LYS I 104     -18.855  -2.421   0.280  0.50 30.43 LIG 0.03  C 
BRANCH 13 14
ATOM     14  CE  LYS I 104     -18.564  -1.364  -0.723  0.50 34.48 LIG 0.23  C 
BRANCH 14 15
ATOM     15  NZ  LYS I 104     -17.422  -0.639  -0.257  0.50 39.75 LIG-0.08  N 
ATOM     16 HZ3  LYS I 104     -17.429  -0.614   0.633  0.50 39.75 LIG 0.27  HD
ATOM     17 HZ2  LYS I 104     -17.446   0.192  -0.577  0.50 39.75 LIG 0.27  HD
ATOM     18 HZ1  LYS I 104     -16.679  -1.042  -0.537  0.50 39.75 LIG 0.27  HD
ENDBRANCH 14 15
ENDBRANCH 13 14
ENDBRANCH 12 13
ENDBRANCH 11 12
ENDBRANCH 10 11
BRANCH 10 19
ATOM     19  C   LYS I 104     -22.870  -0.207  -0.779  0.50 31.87 LIG 0.20  C 
ATOM     20 OXT  LYS I 104     -23.988  -0.239  -0.263  0.50 33.47 LIG-0.65  OA
ATOM     21 O    LYS I 104     -22.376   0.789  -1.330  0.50 36.52 LIG-0.65  OA
ENDBRANCH 10 19
ENDBRANCH 7 10
ENDBRANCH 5 6
BRANCH 5 22
ATOM     22  CB  GLU I 103     -21.833  -1.144  -5.293  0.50 17.76 LIG 0.04  C 
BRANCH 22 23
ATOM     23  CG  GLU I 103     -21.231  -1.267  -6.656  0.50 22.90 LIG 0.12  C 
BRANCH 23 24
ATOM     24  CD  GLU I 103     -20.809  -2.660  -7.030  0.50 27.65 LIG 0.17  C 
ATOM     25 OE1  GLU I 103     -21.650  -3.506  -7.353  0.50 28.22 LIG-0.65  OA
ATOM     26 OE2  GLU I 103     -19.602  -2.874  -7.001  0.50 31.39 LIG-0.65  OA
ENDBRANCH 23 24
ENDBRANCH 22 23
ENDBRANCH 5 22
ENDBRANCH 3 5
BRANCH 1 27
ATOM     27  CA  LEU I 102     -21.395  -5.780  -4.004  0.50 14.84 LIG 0.18  C 
BRANCH 27 28
ATOM     28  CB  LEU I 102     -20.409  -6.468  -3.106  0.50 17.78 LIG 0.04  C 
BRANCH 28 29
ATOM     29  CG  LEU I 102     -19.822  -5.754  -1.920  0.50 23.00 LIG-0.02  C 
ATOM     30  CD2 LEU I 102     -18.594  -6.524  -1.480  0.50 23.20 LIG 0.01  C 
ATOM     31  CD1 LEU I 102     -20.829  -5.669  -0.783  0.50 25.90 LIG 0.01  C 
ENDBRANCH 28 29
ENDBRANCH 27 28
BRANCH 27 32
ATOM     32  N   LEU I 102     -21.502  -6.406  -5.323  0.50 17.71 LIG-0.35  N 
ATOM     33 H    LEU I 102     -20.764  -6.783  -5.557  0.50 17.71 LIG 0.16  HD
ATOM     34  C   PHE I 101     -22.575  -6.432  -6.123  0.50 15.00 LIG 0.26  C 
ATOM     35 O    PHE I 101     -23.712  -6.053  -5.848  0.50 13.40 LIG-0.27  OA
BRANCH 34 36
ATOM     36  CA  PHE I 101     -22.374  -7.123  -7.460  0.50 16.66 LIG 0.40  C 
ATOM     37  N   PHE I 101     -22.207  -6.003  -8.356  0.50 14.66 LIG 0.61  N 
BRANCH 36 38
ATOM     38  CB  PHE I 101     -21.126  -8.009  -7.391  0.50 13.93 LIG 0.09  C 
BRANCH 38 39
ATOM     39  CG  PHE I 101     -20.681  -8.480  -8.773  0.50 13.79 LIG-0.06  A 
ATOM     40  CD2 PHE I 101     -19.374  -8.917  -8.963  0.50 13.65 LIG 0.01  A 
ATOM     41  CE2 PHE I 101     -18.983  -9.448 -10.193  0.50 14.96 LIG 0.00  A 
ATOM     42  CZ  PHE I 101     -19.902  -9.534 -11.226  0.50 12.06 LIG 0.00  A 
ATOM     43  CE1 PHE I 101     -21.203  -9.089 -11.042  0.50 11.76 LIG 0.00  A 
ATOM     44  CD1 PHE I 101     -21.597  -8.560  -9.817  0.50 13.16 LIG 0.01  A 
ENDBRANCH 38 39
ENDBRANCH 36 38
ENDBRANCH 34 36
ENDBRANCH 27 32
ENDBRANCH 1 27
TORSDOF 19
ENDMDL
MODEL 16
USER: ADFR SOLUTION from run 32
USER: SCORE 18.421077 LL:  -3.746 LR: -15.086 RR:   0.000 FEB:  -9.418
USER: RMSD 8.753576
USER: SEED 31
USER: STATUS 1 or 2 clusters left
USER: GENES 21
USER: genes 0 Translation |==|  0.61972 0.50631 0.58609
USER: genes 1 Rotation |==|  0.97746 0.46691 0.43753 0.63050
USER: genes 2 Torsion [C]-N--CA-[C] |==|  0.69705
USER: genes 3 Torsion [N]-CA--C-[N] |==|  0.89060
USER: genes 4 Torsion [C]-N--CA-[CB] |==|  0.87506
USER: genes 5 Torsion [N]-CA--CB-[CG] |==|  0.50268
USER: genes 6 Torsion [CA]-CB--CG-[CD] |==|  0.57969
USER: genes 7 Torsion [CB]-CG--CD-[CE] |==|  0.99507
USER: genes 8 Torsion [CG]-CD--CE-[NZ] |==|  0.46181
USER: genes 9 Torsion [CD]-CE--NZ-[HZ3] |==|  0.71014
USER: genes 10 Torsion [N]-CA--C-[OXT] |==|  0.32185
USER: genes 11 Torsion [N]-CA--CB-[CG] |==|  0.71418
USER: genes 12 Torsion [CA]-CB--CG-[CD] |==|  0.08813
USER: genes 13 Torsion [CB]-CG--CD-[OE1] |==|  0.75767
USER: genes 14 Torsion [N]-C--CA-[N] |==|  0.34928
USER: genes 15 Torsion [C]-CA--CB-[CG] |==|  0.05777
USER: genes 16 Torsion [CA]-CB--CG-[CD2] |==|  0.66698
USER: genes 17 Torsion [C]-CA--N-[C] |==|  0.79016
USER: genes 18 Torsion [N]-C--CA-[N] |==|  0.91289
USER: genes 19 Torsion [C]-CA--CB-[CG] |==|  0.79832
USER: genes 20 Torsion [CA]-CB--CG-[CD2] |==|  0.75517
ROOT
ATOM      1  C   LEU I 102     -20.896  -4.996  -4.941  0.50 11.09 LIG 0.24  C 
ATOM      2 O    LEU I 102     -19.774  -4.792  -5.410  0.50  6.75 LIG-0.27  OA
ATOM      3  N   GLU I 103     -21.716  -4.000  -4.653  0.50 13.38 LIG-0.35  N 
ATOM      4 H    GLU I 103     -22.537  -4.107  -4.422  0.50 13.38 LIG 0.16  HD
ENDROOT
BRANCH 3 5
ATOM      5  CA  GLU I 103     -21.283  -2.613  -4.708  0.50 18.34 LIG 0.18  C 
BRANCH 5 6
ATOM      6  C   GLU I 103     -21.180  -2.044  -3.302  0.50 17.37 LIG 0.24  C 
ATOM      7  N   LYS I 104     -22.136  -2.423  -2.477  0.50 22.43 LIG-0.34  N 
ATOM      8 H    LYS I 104     -22.769  -2.956  -2.710  0.50 22.43 LIG 0.16  HD
ATOM      9 O    GLU I 103     -20.262  -1.282  -3.001  0.50 19.80 LIG-0.27  OA
BRANCH 7 10
ATOM     10  CA  LYS I 104     -22.226  -1.990  -1.101  0.50 29.15 LIG 0.18  C 
BRANCH 10 11
ATOM     11  CB  LYS I 104     -20.899  -2.054  -0.409  0.50 30.49 LIG 0.04  C 
BRANCH 11 12
ATOM     12  CG  LYS I 104     -20.827  -1.659   1.030  0.50 30.90 LIG 0.00  C 
BRANCH 12 13
ATOM     13  CD  LYS I 104     -19.407  -1.156   1.145  0.50 30.43 LIG 0.03  C 
BRANCH 13 14
ATOM     14  CE  LYS I 104     -18.823  -1.358  -0.207  0.50 34.48 LIG 0.23  C 
BRANCH 14 15
ATOM     15  NZ  LYS I 104     -17.601  -0.614  -0.257  0.50 39.75 LIG-0.08  N 
ATOM     16 HZ3  LYS I 104     -17.724   0.126  -0.736  0.50 39.75 LIG 0.27  HD
ATOM     17 HZ2  LYS I 104     -16.966  -1.110  -0.636  0.50 39.75 LIG 0.27  HD
ATOM     18 HZ1  LYS I 104     -17.353  -0.395   0.569  0.50 39.75 LIG 0.27  HD
ENDBRANCH 14 15
ENDBRANCH 13 14
ENDBRANCH 12 13
ENDBRANCH 11 12
ENDBRANCH 10 11
BRANCH 10 19
ATOM     19  C   LYS I 104     -22.639  -0.531  -1.116  0.50 31.87 LIG 0.20  C 
ATOM     20 OXT  LYS I 104     -23.730  -0.239  -0.624  0.50 33.47 LIG-0.65  OA
ATOM     21 O    LYS I 104     -21.840   0.287  -1.598  0.50 36.52 LIG-0.65  OA
ENDBRANCH 10 19
ENDBRANCH 7 10
ENDBRANCH 5 6
BRANCH 5 22
ATOM     22  CB  GLU I 103     -22.251  -1.770  -5.501  0.50 17.76 LIG 0.04  C 
BRANCH 22 23
ATOM     23  CG  GLU I 103     -21.682  -1.506  -6.857  0.50 22.90 LIG 0.12  C 
BRANCH 23 24
ATOM     24  CD  GLU I 103     -20.813  -2.608  -7.396  0.50 27.65 LIG 0.17  C 
ATOM     25 OE1  GLU I 103     -19.606  -2.643  -7.133  0.50 28.22 LIG-0.65  OA
ATOM     26 OE2  GLU I 103     -21.387  -3.446  -8.083  0.50 31.39 LIG-0.65  OA
ENDBRANCH 23 24
ENDBRANCH 22 23
ENDBRANCH 5 22
ENDBRANCH 3 5
BRANCH 1 27
ATOM     27  CA  LEU I 102     -21.327  -6.432  -4.720  0.50 14.84 LIG 0.18  C 
BRANCH 27 28
ATOM     28  CB  LEU I 102     -20.425  -6.953  -3.639  0.50 17.78 LIG 0.04  C 
BRANCH 28 29
ATOM     29  CG  LEU I 102     -19.709  -6.009  -2.714  0.50 23.00 LIG-0.02  C 
ATOM     30  CD2 LEU I 102     -18.222  -6.239  -2.881  0.50 23.20 LIG 0.01  C 
ATOM     31  CD1 LEU I 102     -20.123  -6.245  -1.269  0.50 25.90 LIG 0.01  C 
ENDBRANCH 28 29
ENDBRANCH 27 28
BRANCH 27 32
ATOM     32  N   LEU I 102     -21.128  -7.103  -6.005  0.50 17.71 LIG-0.35  N 
ATOM     33 H    LEU I 102     -20.429  -7.605  -5.998  0.50 17.71 LIG 0.16  HD
ATOM     34  C   PHE I 101     -21.892  -7.000  -7.100  0.50 15.00 LIG 0.26  C 
ATOM     35 O    PHE I 101     -22.978  -6.430  -7.194  0.50 13.40 LIG-0.27  OA
BRANCH 34 36
ATOM     36  CA  PHE I 101     -21.410  -7.785  -8.307  0.50 16.66 LIG 0.40  C 
ATOM     37  N   PHE I 101     -19.977  -7.759  -8.132  0.50 14.66 LIG 0.61  N 
BRANCH 36 38
ATOM     38  CB  PHE I 101     -21.983  -9.205  -8.250  0.50 13.93 LIG 0.09  C 
BRANCH 38 39
ATOM     39  CG  PHE I 101     -21.313 -10.049  -7.170  0.50 13.79 LIG-0.06  A 
ATOM     40  CD2 PHE I 101     -20.159 -10.765  -7.473  0.50 13.65 LIG 0.01  A 
ATOM     41  CE2 PHE I 101     -19.477 -11.456  -6.472  0.50 14.96 LIG 0.00  A 
ATOM     42  CZ  PHE I 101     -19.956 -11.429  -5.172  0.50 12.06 LIG 0.00  A 
ATOM     43  CE1 PHE I 101     -21.112 -10.725  -4.869  0.50 11.76 LIG 0.00  A 
ATOM     44  CD1 PHE I 101     -21.795 -10.034  -5.865  0.50 13.16 LIG 0.01  A 
ENDBRANCH 38 39
ENDBRANCH 36 38
ENDBRANCH 34 36
ENDBRANCH 27 32
ENDBRANCH 1 27
TORSDOF 19
ENDMDL
MODEL 17
USER: ADFR SOLUTION from run 69
USER: SCORE 20.410840 LL:  -5.551 LR: -15.077 RR:   0.000 FEB:  -9.409
USER: RMSD 8.160335
USER: SEED 68
USER: STATUS no improvement in best in 5 clusters for 5 generations
USER: GENES 21
USER: genes 0 Translation |==|  0.62665 0.53158 0.71491
USER: genes 1 Rotation |==|  0.11986 0.42461 0.34976 0.77792
USER: genes 2 Torsion [C]-N--CA-[C] |==|  0.16903
USER: genes 3 Torsion [N]-CA--C-[N] |==|  0.07804
USER: genes 4 Torsion [C]-N--CA-[CB] |==|  0.27534
USER: genes 5 Torsion [N]-CA--CB-[CG] |==|  0.82836
USER: genes 6 Torsion [CA]-CB--CG-[CD] |==|  0.34286
USER: genes 7 Torsion [CB]-CG--CD-[CE] |==|  0.06558
USER: genes 8 Torsion [CG]-CD--CE-[NZ] |==|  0.33136
USER: genes 9 Torsion [CD]-CE--NZ-[HZ3] |==|  0.85281
USER: genes 10 Torsion [N]-CA--C-[OXT] |==|  0.75880
USER: genes 11 Torsion [N]-CA--CB-[CG] |==|  0.76453
USER: genes 12 Torsion [CA]-CB--CG-[CD] |==|  0.21831
USER: genes 13 Torsion [CB]-CG--CD-[OE1] |==|  0.71391
USER: genes 14 Torsion [N]-C--CA-[N] |==|  0.93931
USER: genes 15 Torsion [C]-CA--CB-[CG] |==|  0.89799
USER: genes 16 Torsion [CA]-CB--CG-[CD2] |==|  0.83739
USER: genes 17 Torsion [C]-CA--N-[C] |==|  0.73889
USER: genes 18 Torsion [N]-C--CA-[N] |==|  0.87350
USER: genes 19 Torsion [C]-CA--CB-[CG] |==|  0.84630
USER: genes 20 Torsion [CA]-CB--CG-[CD2] |==|  0.27363
ROOT
ATOM      1  C   LEU I 102     -20.797  -4.522  -1.849  0.50 11.09 LIG 0.24  C 
ATOM      2 O    LEU I 102     -20.197  -4.490  -0.772  0.50  6.75 LIG-0.27  OA
ATOM      3  N   GLU I 103     -22.111  -4.657  -1.904  0.50 13.38 LIG-0.35  N 
ATOM      4 H    GLU I 103     -22.571  -4.581  -2.627  0.50 13.38 LIG 0.16  HD
ENDROOT
BRANCH 3 5
ATOM      5  CA  GLU I 103     -22.900  -4.949  -0.718  0.50 18.34 LIG 0.18  C 
BRANCH 5 6
ATOM      6  C   GLU I 103     -22.736  -3.834   0.304  0.50 17.37 LIG 0.24  C 
ATOM      7  N   LYS I 104     -22.466  -2.649  -0.205  0.50 22.43 LIG-0.34  N 
ATOM      8 H    LYS I 104     -22.392  -2.510  -1.051  0.50 22.43 LIG 0.16  HD
ATOM      9 O    GLU I 103     -22.848  -4.067   1.506  0.50 19.80 LIG-0.27  OA
BRANCH 7 10
ATOM     10  CA  LYS I 104     -22.265  -1.460   0.593  0.50 29.15 LIG 0.18  C 
BRANCH 10 11
ATOM     11  CB  LYS I 104     -20.811  -1.161   0.789  0.50 30.49 LIG 0.04  C 
BRANCH 11 12
ATOM     12  CG  LYS I 104     -19.968  -2.163   1.506  0.50 30.90 LIG 0.00  C 
BRANCH 12 13
ATOM     13  CD  LYS I 104     -18.883  -2.441   0.493  0.50 30.43 LIG 0.03  C 
BRANCH 13 14
ATOM     14  CE  LYS I 104     -18.853  -1.233  -0.373  0.50 34.48 LIG 0.23  C 
BRANCH 14 15
ATOM     15  NZ  LYS I 104     -17.547  -0.660  -0.257  0.50 39.75 LIG-0.08  N 
ATOM     16 HZ3  LYS I 104     -17.353  -0.534   0.603  0.50 39.75 LIG 0.27  HD
ATOM     17 HZ2  LYS I 104     -17.527   0.122  -0.683  0.50 39.75 LIG 0.27  HD
ATOM     18 HZ1  LYS I 104     -16.948  -1.210  -0.619  0.50 39.75 LIG 0.27  HD
ENDBRANCH 14 15
ENDBRANCH 13 14
ENDBRANCH 12 13
ENDBRANCH 11 12
ENDBRANCH 10 11
BRANCH 10 19
ATOM     19  C   LYS I 104     -22.849  -0.296  -0.182  0.50 31.87 LIG 0.20  C 
ATOM     20 OXT  LYS I 104     -22.124   0.269  -1.002  0.50 33.47 LIG-0.65  OA
ATOM     21 O    LYS I 104     -24.034   0.003   0.036  0.50 36.52 LIG-0.65  OA
ENDBRANCH 10 19
ENDBRANCH 7 10
ENDBRANCH 5 6
BRANCH 5 22
ATOM     22  CB  GLU I 103     -22.473  -6.250  -0.086  0.50 17.76 LIG 0.04  C 
BRANCH 22 23
ATOM     23  CG  GLU I 103     -23.177  -7.383  -0.761  0.50 22.90 LIG 0.12  C 
BRANCH 23 24
ATOM     24  CD  GLU I 103     -22.593  -7.780  -2.087  0.50 27.65 LIG 0.17  C 
ATOM     25 OE1  GLU I 103     -23.142  -7.443  -3.142  0.50 28.22 LIG-0.65  OA
ATOM     26 OE2  GLU I 103     -21.556  -8.433  -2.035  0.50 31.39 LIG-0.65  OA
ENDBRANCH 23 24
ENDBRANCH 22 23
ENDBRANCH 5 22
ENDBRANCH 3 5
BRANCH 1 27
ATOM     27  CA  LEU I 102     -19.988  -4.377  -3.123  0.50 14.84 LIG 0.18  C 
BRANCH 27 28
ATOM     28  CB  LEU I 102     -19.759  -2.902  -3.279  0.50 17.78 LIG 0.04  C 
BRANCH 28 29
ATOM     29  CG  LEU I 102     -20.825  -1.914  -2.896  0.50 23.00 LIG-0.02  C 
ATOM     30  CD2 LEU I 102     -22.061  -2.227  -3.714  0.50 23.20 LIG 0.01  C 
ATOM     31  CD1 LEU I 102     -20.365  -0.488  -3.157  0.50 25.90 LIG 0.01  C 
ENDBRANCH 28 29
ENDBRANCH 27 28
BRANCH 27 32
ATOM     32  N   LEU I 102     -20.823  -4.943  -4.183  0.50 17.71 LIG-0.35  N 
ATOM     33 H    LEU I 102     -21.370  -4.361  -4.503  0.50 17.71 LIG 0.16  HD
ATOM     34  C   PHE I 101     -20.797  -6.196  -4.653  0.50 15.00 LIG 0.26  C 
ATOM     35 O    PHE I 101     -19.980  -7.074  -4.377  0.50 13.40 LIG-0.27  OA
BRANCH 34 36
ATOM     36  CA  PHE I 101     -21.817  -6.509  -5.734  0.50 16.66 LIG 0.40  C 
ATOM     37  N   PHE I 101     -23.020  -5.920  -5.193  0.50 14.66 LIG 0.61  N 
BRANCH 36 38
ATOM     38  CB  PHE I 101     -21.381  -5.851  -7.047  0.50 13.93 LIG 0.09  C 
BRANCH 38 39
ATOM     39  CG  PHE I 101     -21.160  -4.349  -6.889  0.50 13.79 LIG-0.06  A 
ATOM     40  CD2 PHE I 101     -19.870  -3.859  -6.709  0.50 13.65 LIG 0.01  A 
ATOM     41  CE2 PHE I 101     -19.640  -2.483  -6.669  0.50 14.96 LIG 0.00  A 
ATOM     42  CZ  PHE I 101     -20.704  -1.606  -6.803  0.50 12.06 LIG 0.00  A 
ATOM     43  CE1 PHE I 101     -21.992  -2.093  -6.971  0.50 11.76 LIG 0.00  A 
ATOM     44  CD1 PHE I 101     -22.226  -3.464  -7.013  0.50 13.16 LIG 0.01  A 
ENDBRANCH 38 39
ENDBRANCH 36 38
ENDBRANCH 34 36
ENDBRANCH 27 32
ENDBRANCH 1 27
TORSDOF 19
ENDMDL
MODEL 18
USER: ADFR SOLUTION from run 12
USER: SCORE 19.274003 LL:  -4.686 LR: -15.065 RR:   0.000 FEB:  -9.397
USER: RMSD 8.053661
USER: SEED 985655
USER: STATUS no improvement in best in 2 clusters for 5 generations
USER: GENES 21
USER: genes 0 Translation |==|  0.58284 0.57918 0.66901
USER: genes 1 Rotation |==|  0.67886 0.95794 0.41361 0.52889
USER: genes 2 Torsion [C]-N--CA-[C] |==|  0.82579
USER: genes 3 Torsion [N]-CA--C-[N] |==|  0.97777
USER: genes 4 Torsion [C]-N--CA-[CB] |==|  0.36880
USER: genes 5 Torsion [N]-CA--CB-[CG] |==|  0.86293
USER: genes 6 Torsion [CA]-CB--CG-[CD] |==|  0.23338
USER: genes 7 Torsion [CB]-CG--CD-[CE] |==|  0.11989
USER: genes 8 Torsion [CG]-CD--CE-[NZ] |==|  0.28549
USER: genes 9 Torsion [CD]-CE--NZ-[HZ3] |==|  0.96443
USER: genes 10 Torsion [N]-CA--C-[OXT] |==|  0.81328
USER: genes 11 Torsion [N]-CA--CB-[CG] |==|  0.10590
USER: genes 12 Torsion [CA]-CB--CG-[CD] |==|  0.70187
USER: genes 13 Torsion [CB]-CG--CD-[OE1] |==|  0.74123
USER: genes 14 Torsion [N]-C--CA-[N] |==|  0.37933
USER: genes 15 Torsion [C]-CA--CB-[CG] |==|  0.63742
USER: genes 16 Torsion [CA]-CB--CG-[CD2] |==|  0.52662
USER: genes 17 Torsion [C]-CA--N-[C] |==|  0.56678
USER: genes 18 Torsion [N]-C--CA-[N] |==|  0.40263
USER: genes 19 Torsion [C]-CA--CB-[CG] |==|  0.12813
USER: genes 20 Torsion [CA]-CB--CG-[CD2] |==|  0.74820
ROOT
ATOM      1  C   LEU I 102     -21.421  -3.629  -2.951  0.50 11.09 LIG 0.24  C 
ATOM      2 O    LEU I 102     -22.585  -3.236  -3.064  0.50  6.75 LIG-0.27  OA
ATOM      3  N   GLU I 103     -21.089  -4.558  -2.071  0.50 13.38 LIG-0.35  N 
ATOM      4 H    GLU I 103     -20.313  -4.927  -2.033  0.50 13.38 LIG 0.16  HD
ENDROOT
BRANCH 3 5
ATOM      5  CA  GLU I 103     -22.032  -5.040  -1.075  0.50 18.34 LIG 0.18  C 
BRANCH 5 6
ATOM      6  C   GLU I 103     -22.437  -3.903  -0.149  0.50 17.37 LIG 0.24  C 
ATOM      7  N   LYS I 104     -21.756  -2.786  -0.309  0.50 22.43 LIG-0.34  N 
ATOM      8 H    LYS I 104     -21.133  -2.700  -0.895  0.50 22.43 LIG 0.16  HD
ATOM      9 O    GLU I 103     -23.333  -4.060   0.680  0.50 19.80 LIG-0.27  OA
BRANCH 7 10
ATOM     10  CA  LYS I 104     -21.978  -1.592   0.475  0.50 29.15 LIG 0.18  C 
BRANCH 10 11
ATOM     11  CB  LYS I 104     -20.693  -1.011   0.981  0.50 30.49 LIG 0.04  C 
BRANCH 11 12
ATOM     12  CG  LYS I 104     -19.721  -1.918   1.661  0.50 30.90 LIG 0.00  C 
BRANCH 12 13
ATOM     13  CD  LYS I 104     -18.975  -2.512   0.490  0.50 30.43 LIG 0.03  C 
BRANCH 13 14
ATOM     14  CE  LYS I 104     -18.723  -1.364  -0.421  0.50 34.48 LIG 0.23  C 
BRANCH 14 15
ATOM     15  NZ  LYS I 104     -17.353  -0.985  -0.257  0.50 39.75 LIG-0.08  N 
ATOM     16 HZ3  LYS I 104     -17.019  -1.383   0.466  0.50 39.75 LIG 0.27  HD
ATOM     17 HZ2  LYS I 104     -17.298  -0.101  -0.161  0.50 39.75 LIG 0.27  HD
ATOM     18 HZ1  LYS I 104     -16.888  -1.235  -0.974  0.50 39.75 LIG 0.27  HD
ENDBRANCH 14 15
ENDBRANCH 13 14
ENDBRANCH 12 13
ENDBRANCH 11 12
ENDBRANCH 10 11
BRANCH 10 19
ATOM     19  C   LYS I 104     -22.591  -0.557  -0.447  0.50 31.87 LIG 0.20  C 
ATOM     20 OXT  LYS I 104     -21.889  -0.112  -1.356  0.50 33.47 LIG-0.65  OA
ATOM     21 O    LYS I 104     -23.774  -0.239  -0.248  0.50 36.52 LIG-0.65  OA
ENDBRANCH 10 19
ENDBRANCH 7 10
ENDBRANCH 5 6
BRANCH 5 22
ATOM     22  CB  GLU I 103     -21.433  -6.148  -0.246  0.50 17.76 LIG 0.04  C 
BRANCH 22 23
ATOM     23  CG  GLU I 103     -19.992  -5.846   0.016  0.50 22.90 LIG 0.12  C 
BRANCH 23 24
ATOM     24  CD  GLU I 103     -19.025  -6.702  -0.753  0.50 27.65 LIG 0.17  C 
ATOM     25 OE1  GLU I 103     -18.571  -7.739  -0.256  0.50 28.22 LIG-0.65  OA
ATOM     26 OE2  GLU I 103     -18.745  -6.304  -1.878  0.50 31.39 LIG-0.65  OA
ENDBRANCH 23 24
ENDBRANCH 22 23
ENDBRANCH 5 22
ENDBRANCH 3 5
BRANCH 1 27
ATOM     27  CA  LEU I 102     -20.373  -3.034  -3.869  0.50 14.84 LIG 0.18  C 
BRANCH 27 28
ATOM     28  CB  LEU I 102     -20.071  -1.679  -3.298  0.50 17.78 LIG 0.04  C 
BRANCH 28 29
ATOM     29  CG  LEU I 102     -20.069  -0.458  -4.174  0.50 23.00 LIG-0.02  C 
ATOM     30  CD2 LEU I 102     -19.503   0.690  -3.365  0.50 23.20 LIG 0.01  C 
ATOM     31  CD1 LEU I 102     -21.476  -0.128  -4.650  0.50 25.90 LIG 0.01  C 
ENDBRANCH 28 29
ENDBRANCH 27 28
BRANCH 27 32
ATOM     32  N   LEU I 102     -21.000  -2.971  -5.190  0.50 17.71 LIG-0.35  N 
ATOM     33 H    LEU I 102     -21.859  -2.947  -5.135  0.50 17.71 LIG 0.16  HD
ATOM     34  C   PHE I 101     -20.385  -2.949  -6.379  0.50 15.00 LIG 0.26  C 
ATOM     35 O    PHE I 101     -19.177  -2.843  -6.585  0.50 13.40 LIG-0.27  OA
BRANCH 34 36
ATOM     36  CA  PHE I 101     -21.303  -2.926  -7.588  0.50 16.66 LIG 0.40  C 
ATOM     37  N   PHE I 101     -20.564  -2.098  -8.512  0.50 14.66 LIG 0.61  N 
BRANCH 36 38
ATOM     38  CB  PHE I 101     -21.495  -4.355  -8.106  0.50 13.93 LIG 0.09  C 
BRANCH 38 39
ATOM     39  CG  PHE I 101     -21.791  -5.338  -6.975  0.50 13.79 LIG-0.06  A 
ATOM     40  CD2 PHE I 101     -20.740  -5.997  -6.345  0.50 13.65 LIG 0.01  A 
ATOM     41  CE2 PHE I 101     -20.985  -6.816  -5.243  0.50 14.96 LIG 0.00  A 
ATOM     42  CZ  PHE I 101     -22.281  -6.974  -4.781  0.50 12.06 LIG 0.00  A 
ATOM     43  CE1 PHE I 101     -23.332  -6.327  -5.415  0.50 11.76 LIG 0.00  A 
ATOM     44  CD1 PHE I 101     -23.092  -5.508  -6.513  0.50 13.16 LIG 0.01  A 
ENDBRANCH 38 39
ENDBRANCH 36 38
ENDBRANCH 34 36
ENDBRANCH 27 32
ENDBRANCH 1 27
TORSDOF 19
ENDMDL
