MODEL 1
USER: ADFR SOLUTION from run 40
USER: SCORE 8.489022 LL:  -1.439 LR:  -7.050 RR:   0.000 FEB:  -4.962
USER: RMSD 5.417616
USER: SEED 39
USER: STATUS no improvement in best in 27 clusters for 5 generations
USER: GENES 9
USER: genes 0 Translation |==|  0.19800 0.35005 0.57683
USER: genes 1 Rotation |==|  0.70451 0.26693 0.59336 0.88097
USER: genes 2 Torsion [N]-CA--C-[N] |==|  0.22908
USER: genes 3 Torsion [C]-N--CA-[CB] |==|  0.47170
USER: genes 4 Torsion [N]-CA--C-[OXT] |==|  0.99691
USER: genes 5 Torsion [N]-CA--CB-[CG2] |==|  0.84879
USER: genes 6 Torsion [CA]-CB--OG1-[HG1] |==|  0.24690
USER: genes 7 Torsion [N]-C--CA-[N] |==|  0.36274
USER: genes 8 Torsion [C]-CA--N-[H2] |==|  0.29556
ROOT
ATOM      1  C   ALA B   1      -0.903   9.615  22.612  1.00 21.61 LIG 0.25  C 
ATOM      2 O    ALA B   1      -0.514   8.868  23.518  1.00 21.59 LIG-0.27  OA
ATOM      3  N   PRO B   2      -0.087  10.075  21.640  1.00 20.68 LIG-0.34  N 
ATOM      4  CA  PRO B   2       1.357   9.837  21.718  1.00 19.66 LIG 0.18  C 
ATOM      5  CB  PRO B   2       1.871  10.356  20.375  1.00 19.68 LIG 0.04  C 
ATOM      6  CG  PRO B   2       0.844  11.357  19.932  1.00 19.82 LIG 0.02  C 
ATOM      7  CD  PRO B   2      -0.462  10.800  20.411  1.00 21.17 LIG 0.13  C 
ENDROOT
BRANCH 4 8
ATOM      8  C   PRO B   2       2.010  10.592  22.882  1.00 18.80 LIG 0.24  C 
ATOM      9  N   THR B   3       1.931  10.014  24.076  1.00 18.04 LIG-0.34  N 
ATOM     10 H    THR B   3       1.582   9.239  24.208  1.00 18.04 LIG 0.16  HD
ATOM     11 O    PRO B   2       2.548  11.688  22.700  1.00 18.43 LIG-0.27  OA
BRANCH 9 12
ATOM     12  CA  THR B   3       2.440  10.659  25.295  1.00 16.71 LIG 0.21  C 
BRANCH 12 13
ATOM     13  C   THR B   3       3.965  10.792  25.251  1.00 16.11 LIG 0.20  C 
ATOM     14 OXT  THR B   3       4.603  10.363  24.284  1.00 14.78 LIG-0.65  OA
ATOM     15 O    THR B   3       4.585  11.314  26.195  1.00 14.64 LIG-0.65  OA
ENDBRANCH 12 13
BRANCH 12 16
ATOM     16  CB  THR B   3       2.007   9.904  26.585  1.00 16.70 LIG 0.15  C 
ATOM     17  CG2 THR B   3       0.488   9.738  26.620  1.00 16.85 LIG 0.04  C 
BRANCH 16 18
ATOM     18 OG1  THR B   3       2.728   8.566  26.709  1.00 17.97 LIG-0.39  OA
ATOM     19 HG1  THR B   3       3.452   8.675  27.121  1.00 17.97 LIG 0.21  HD
ENDBRANCH 16 18
ENDBRANCH 12 16
ENDBRANCH 9 12
ENDBRANCH 4 8
BRANCH 1 20
ATOM     20  CA  ALA B   1      -2.372  10.043  22.545  1.00 22.08 LIG 0.27  C 
ATOM     21  CB  ALA B   1      -2.664  11.057  23.619  1.00 22.59 LIG 0.05  C 
BRANCH 20 22
ATOM     22  N   ALA B   1      -3.272   8.864  22.685  1.00 23.15 LIG-0.07  N 
ATOM     23 H3   ALA B   1      -3.907   8.900  22.063  1.00 23.15 LIG 0.28  HD
ATOM     24 H2   ALA B   1      -3.647   8.871  23.492  1.00 23.15 LIG 0.28  HD
ATOM     25 H1   ALA B   1      -2.800   8.116  22.584  1.00 23.15 LIG 0.28  HD
ENDBRANCH 20 22
ENDBRANCH 1 20
TORSDOF 7
ENDMDL
MODEL 2
USER: ADFR SOLUTION from run 172
USER: SCORE 8.388225 LL:  -1.346 LR:  -7.042 RR:   0.000 FEB:  -4.954
USER: RMSD 6.844582
USER: SEED 171
USER: STATUS no improvement in best in 30 clusters for 5 generations
USER: GENES 9
USER: genes 0 Translation |==|  0.19635 0.34840 0.71202
USER: genes 1 Rotation |==|  0.10809 0.35084 0.59977 0.75338
USER: genes 2 Torsion [N]-CA--C-[N] |==|  0.27524
USER: genes 3 Torsion [C]-N--CA-[CB] |==|  0.83779
USER: genes 4 Torsion [N]-CA--C-[OXT] |==|  0.03821
USER: genes 5 Torsion [N]-CA--CB-[CG2] |==|  0.65927
USER: genes 6 Torsion [CA]-CB--OG1-[HG1] |==|  0.40294
USER: genes 7 Torsion [N]-C--CA-[N] |==|  0.16802
USER: genes 8 Torsion [C]-CA--N-[H2] |==|  0.09410
ROOT
ATOM      1  C   ALA B   1      -0.930   9.590  24.639  1.00 21.61 LIG 0.25  C 
ATOM      2 O    ALA B   1      -0.592  10.781  24.660  1.00 21.59 LIG-0.27  OA
ATOM      3  N   PRO B   2      -0.828   8.781  25.715  1.00 20.68 LIG-0.34  N 
ATOM      4  CA  PRO B   2      -0.146   9.247  26.925  1.00 19.66 LIG 0.18  C 
ATOM      5  CB  PRO B   2      -0.402   8.121  27.928  1.00 19.68 LIG 0.04  C 
ATOM      6  CG  PRO B   2      -0.647   6.904  27.084  1.00 19.82 LIG 0.02  C 
ATOM      7  CD  PRO B   2      -1.370   7.418  25.876  1.00 21.17 LIG 0.13  C 
ENDROOT
BRANCH 4 8
ATOM      8  C   PRO B   2       1.358   9.451  26.704  1.00 18.80 LIG 0.24  C 
ATOM      9  N   THR B   3       1.755  10.699  26.481  1.00 18.04 LIG-0.34  N 
ATOM     10 H    THR B   3       1.228  11.378  26.502  1.00 18.04 LIG 0.16  HD
ATOM     11 O    PRO B   2       2.132   8.489  26.709  1.00 18.43 LIG-0.27  OA
BRANCH 9 12
ATOM     12  CA  THR B   3       3.154  11.034  26.173  1.00 16.71 LIG 0.21  C 
BRANCH 12 13
ATOM     13  C   THR B   3       3.580  10.433  24.831  1.00 16.11 LIG 0.20  C 
ATOM     14 OXT  THR B   3       2.736   9.989  24.047  1.00 14.78 LIG-0.65  OA
ATOM     15 O    THR B   3       4.783  10.364  24.520  1.00 14.64 LIG-0.65  OA
ENDBRANCH 12 13
BRANCH 12 16
ATOM     16  CB  THR B   3       4.128  10.579  27.297  1.00 16.70 LIG 0.15  C 
ATOM     17  CG2 THR B   3       4.923  11.771  27.828  1.00 16.85 LIG 0.04  C 
BRANCH 16 18
ATOM     18 OG1  THR B   3       3.384   9.851  28.411  1.00 17.97 LIG-0.39  OA
ATOM     19 HG1  THR B   3       3.869   9.239  28.720  1.00 17.97 LIG 0.21  HD
ENDBRANCH 16 18
ENDBRANCH 12 16
ENDBRANCH 9 12
ENDBRANCH 4 8
BRANCH 1 20
ATOM     20  CA  ALA B   1      -1.508   8.977  23.361  1.00 22.08 LIG 0.27  C 
ATOM     21  CB  ALA B   1      -1.486   9.989  22.247  1.00 22.59 LIG 0.05  C 
BRANCH 20 22
ATOM     22  N   ALA B   1      -2.897   8.489  23.592  1.00 23.15 LIG-0.07  N 
ATOM     23 H3   ALA B   1      -3.345   8.494  22.824  1.00 23.15 LIG 0.28  HD
ATOM     24 H2   ALA B   1      -3.306   9.022  24.176  1.00 23.15 LIG 0.28  HD
ATOM     25 H1   ALA B   1      -2.871   7.660  23.915  1.00 23.15 LIG 0.28  HD
ENDBRANCH 20 22
ENDBRANCH 1 20
TORSDOF 7
ENDMDL
MODEL 3
USER: ADFR SOLUTION from run 120
USER: SCORE 8.128380 LL:  -1.140 LR:  -6.988 RR:   0.000 FEB:  -4.900
USER: RMSD 7.355517
USER: SEED 119
USER: STATUS no improvement in best in 31 clusters for 5 generations
USER: GENES 9
USER: genes 0 Translation |==|  0.19156 0.30768 0.77074
USER: genes 1 Rotation |==|  0.07196 0.42212 0.65436 0.69206
USER: genes 2 Torsion [N]-CA--C-[N] |==|  0.30260
USER: genes 3 Torsion [C]-N--CA-[CB] |==|  0.30602
USER: genes 4 Torsion [N]-CA--C-[OXT] |==|  0.04926
USER: genes 5 Torsion [N]-CA--CB-[CG2] |==|  0.17368
USER: genes 6 Torsion [CA]-CB--OG1-[HG1] |==|  0.41349
USER: genes 7 Torsion [N]-C--CA-[N] |==|  0.86297
USER: genes 8 Torsion [C]-CA--N-[H2] |==|  0.31344
ROOT
ATOM      1  C   ALA B   1      -1.005   8.979  25.520  1.00 21.61 LIG 0.25  C 
ATOM      2 O    ALA B   1      -0.597  10.032  25.013  1.00 21.59 LIG-0.27  OA
ATOM      3  N   PRO B   2      -0.711   8.614  26.786  1.00 20.68 LIG-0.34  N 
ATOM      4  CA  PRO B   2       0.258   9.386  27.569  1.00 19.66 LIG 0.18  C 
ATOM      5  CB  PRO B   2       0.167   8.756  28.959  1.00 19.68 LIG 0.04  C 
ATOM      6  CG  PRO B   2      -0.340   7.364  28.717  1.00 19.82 LIG 0.02  C 
ATOM      7  CD  PRO B   2      -1.286   7.499  27.563  1.00 21.17 LIG 0.13  C 
ENDROOT
BRANCH 4 8
ATOM      8  C   PRO B   2       1.681   9.274  27.008  1.00 18.80 LIG 0.24  C 
ATOM      9  N   THR B   3       2.169  10.361  26.421  1.00 18.04 LIG-0.34  N 
ATOM     10 H    THR B   3       1.751  11.112  26.386  1.00 18.04 LIG 0.16  HD
ATOM     11 O    PRO B   2       2.307   8.212  27.086  1.00 18.43 LIG-0.27  OA
BRANCH 9 12
ATOM     12  CA  THR B   3       3.486  10.376  25.768  1.00 16.71 LIG 0.21  C 
BRANCH 12 13
ATOM     13  C   THR B   3       4.358  11.510  26.316  1.00 16.11 LIG 0.20  C 
ATOM     14 OXT  THR B   3       4.078  12.053  27.390  1.00 14.78 LIG-0.65  OA
ATOM     15 O    THR B   3       5.347  11.915  25.678  1.00 14.64 LIG-0.65  OA
ENDBRANCH 12 13
BRANCH 12 16
ATOM     16  CB  THR B   3       3.375  10.486  24.221  1.00 16.70 LIG 0.15  C 
ATOM     17  CG2 THR B   3       2.707  11.803  23.828  1.00 16.85 LIG 0.04  C 
BRANCH 16 18
ATOM     18 OG1  THR B   3       4.737  10.319  23.557  1.00 17.97 LIG-0.39  OA
ATOM     19 HG1  THR B   3       4.640   9.964  22.801  1.00 17.97 LIG 0.21  HD
ENDBRANCH 16 18
ENDBRANCH 12 16
ENDBRANCH 9 12
ENDBRANCH 4 8
BRANCH 1 20
ATOM     20  CA  ALA B   1      -1.898   8.032  24.714  1.00 22.08 LIG 0.27  C 
ATOM     21  CB  ALA B   1      -3.317   8.114  25.209  1.00 22.59 LIG 0.05  C 
BRANCH 20 22
ATOM     22  N   ALA B   1      -1.397   6.632  24.802  1.00 23.15 LIG-0.07  N 
ATOM     23 H3   ALA B   1      -1.298   6.300  23.982  1.00 23.15 LIG 0.28  HD
ATOM     24 H2   ALA B   1      -1.981   6.135  25.254  1.00 23.15 LIG 0.28  HD
ATOM     25 H1   ALA B   1      -0.612   6.623  25.222  1.00 23.15 LIG 0.28  HD
ENDBRANCH 20 22
ENDBRANCH 1 20
TORSDOF 7
ENDMDL
MODEL 4
USER: ADFR SOLUTION from run 66
USER: SCORE 8.196546 LL:  -1.502 LR:  -6.694 RR:   0.000 FEB:  -4.606
USER: RMSD 4.352592
USER: SEED 65
USER: STATUS no improvement in best in 26 clusters for 5 generations
USER: GENES 9
USER: genes 0 Translation |==|  0.18977 0.37137 0.55802
USER: genes 1 Rotation |==|  0.68833 0.30664 0.63099 0.89998
USER: genes 2 Torsion [N]-CA--C-[N] |==|  0.43224
USER: genes 3 Torsion [C]-N--CA-[CB] |==|  0.41190
USER: genes 4 Torsion [N]-CA--C-[OXT] |==|  0.95011
USER: genes 5 Torsion [N]-CA--CB-[CG2] |==|  0.75802
USER: genes 6 Torsion [CA]-CB--OG1-[HG1] |==|  0.97868
USER: genes 7 Torsion [N]-C--CA-[N] |==|  0.33627
USER: genes 8 Torsion [C]-CA--N-[H2] |==|  0.97277
ROOT
ATOM      1  C   ALA B   1      -1.033   9.935  22.329  1.00 21.61 LIG 0.25  C 
ATOM      2 O    ALA B   1      -0.479   9.423  23.311  1.00 21.59 LIG-0.27  OA
ATOM      3  N   PRO B   2      -0.360  10.307  21.220  1.00 20.68 LIG-0.34  N 
ATOM      4  CA  PRO B   2       1.105  10.273  21.202  1.00 19.66 LIG 0.18  C 
ATOM      5  CB  PRO B   2       1.445  10.596  19.746  1.00 19.68 LIG 0.04  C 
ATOM      6  CG  PRO B   2       0.258  11.359  19.235  1.00 19.82 LIG 0.02  C 
ATOM      7  CD  PRO B   2      -0.919  10.739  19.925  1.00 21.17 LIG 0.13  C 
ENDROOT
BRANCH 4 8
ATOM      8  C   PRO B   2       1.724  11.306  22.150  1.00 18.80 LIG 0.24  C 
ATOM      9  N   THR B   3       2.951  11.043  22.587  1.00 18.04 LIG-0.34  N 
ATOM     10 H    THR B   3       3.413  10.365  22.330  1.00 18.04 LIG 0.16  HD
ATOM     11 O    PRO B   2       1.086  12.305  22.498  1.00 18.43 LIG-0.27  OA
BRANCH 9 12
ATOM     12  CA  THR B   3       3.638  11.902  23.562  1.00 16.71 LIG 0.21  C 
BRANCH 12 13
ATOM     13  C   THR B   3       4.401  13.030  22.861  1.00 16.11 LIG 0.20  C 
ATOM     14 OXT  THR B   3       4.666  12.952  21.657  1.00 14.78 LIG-0.65  OA
ATOM     15 O    THR B   3       4.783  14.029  23.496  1.00 14.64 LIG-0.65  OA
ENDBRANCH 12 13
BRANCH 12 16
ATOM     16  CB  THR B   3       4.600  11.096  24.481  1.00 16.70 LIG 0.15  C 
ATOM     17  CG2 THR B   3       3.846  10.551  25.694  1.00 16.85 LIG 0.04  C 
BRANCH 16 18
ATOM     18 OG1  THR B   3       5.304   9.989  23.705  1.00 17.97 LIG-0.39  OA
ATOM     19 HG1  THR B   3       4.975   9.934  22.933  1.00 17.97 LIG 0.21  HD
ENDBRANCH 16 18
ENDBRANCH 12 16
ENDBRANCH 9 12
ENDBRANCH 4 8
BRANCH 1 20
ATOM     20  CA  ALA B   1      -2.549  10.153  22.328  1.00 22.08 LIG 0.27  C 
ATOM     21  CB  ALA B   1      -2.929  11.139  23.400  1.00 22.59 LIG 0.05  C 
BRANCH 20 22
ATOM     22  N   ALA B   1      -3.268   8.864  22.530  1.00 23.15 LIG-0.07  N 
ATOM     23 H3   ALA B   1      -3.648   8.859  23.334  1.00 23.15 LIG 0.28  HD
ATOM     24 H2   ALA B   1      -2.690   8.190  22.471  1.00 23.15 LIG 0.28  HD
ATOM     25 H1   ALA B   1      -3.895   8.773  21.905  1.00 23.15 LIG 0.28  HD
ENDBRANCH 20 22
ENDBRANCH 1 20
TORSDOF 7
ENDMDL
MODEL 5
USER: ADFR SOLUTION from run 121
USER: SCORE 8.570104 LL:  -1.906 LR:  -6.664 RR:   0.000 FEB:  -4.576
USER: RMSD 6.555693
USER: SEED 120
USER: STATUS no improvement in best in 21 clusters for 5 generations
USER: GENES 9
USER: genes 0 Translation |==|  0.13656 0.27825 0.69525
USER: genes 1 Rotation |==|  0.89807 0.43376 0.36058 0.76022
USER: genes 2 Torsion [N]-CA--C-[N] |==|  0.92944
USER: genes 3 Torsion [C]-N--CA-[CB] |==|  0.16441
USER: genes 4 Torsion [N]-CA--C-[OXT] |==|  0.32851
USER: genes 5 Torsion [N]-CA--CB-[CG2] |==|  0.35720
USER: genes 6 Torsion [CA]-CB--OG1-[HG1] |==|  0.12634
USER: genes 7 Torsion [N]-C--CA-[N] |==|  0.48742
USER: genes 8 Torsion [C]-CA--N-[H2] |==|  0.98182
ROOT
ATOM      1  C   ALA B   1      -1.871   8.538  24.388  1.00 21.61 LIG 0.25  C 
ATOM      2 O    ALA B   1      -1.389   7.694  23.621  1.00 21.59 LIG-0.27  OA
ATOM      3  N   PRO B   2      -1.705   9.866  24.214  1.00 20.68 LIG-0.34  N 
ATOM      4  CA  PRO B   2      -0.790  10.365  23.184  1.00 19.66 LIG 0.18  C 
ATOM      5  CB  PRO B   2      -1.026  11.876  23.207  1.00 19.68 LIG 0.04  C 
ATOM      6  CG  PRO B   2      -1.549  12.161  24.585  1.00 19.82 LIG 0.02  C 
ATOM      7  CD  PRO B   2      -2.381  10.964  24.931  1.00 21.17 LIG 0.13  C 
ENDROOT
BRANCH 4 8
ATOM      8  C   PRO B   2       0.674  10.034  23.496  1.00 18.80 LIG 0.24  C 
ATOM      9  N   THR B   3       0.977   9.857  24.778  1.00 18.04 LIG-0.34  N 
ATOM     10 H    THR B   3       0.395   9.873  25.412  1.00 18.04 LIG 0.16  HD
ATOM     11 O    PRO B   2       1.513   9.970  22.593  1.00 18.43 LIG-0.27  OA
BRANCH 9 12
ATOM     12  CA  THR B   3       2.353   9.614  25.234  1.00 16.71 LIG 0.21  C 
BRANCH 12 13
ATOM     13  C   THR B   3       2.398   9.375  26.745  1.00 16.11 LIG 0.20  C 
ATOM     14 OXT  THR B   3       2.801   8.299  27.198  1.00 14.78 LIG-0.65  OA
ATOM     15 O    THR B   3       2.011  10.252  27.539  1.00 14.64 LIG-0.65  OA
ENDBRANCH 12 13
BRANCH 12 16
ATOM     16  CB  THR B   3       3.314  10.775  24.846  1.00 16.70 LIG 0.15  C 
ATOM     17  CG2 THR B   3       4.092  11.253  26.072  1.00 16.85 LIG 0.04  C 
BRANCH 16 18
ATOM     18 OG1  THR B   3       4.242  10.366  23.708  1.00 17.97 LIG-0.39  OA
ATOM     19 HG1  THR B   3       3.798   9.975  23.110  1.00 17.97 LIG 0.21  HD
ENDBRANCH 16 18
ENDBRANCH 12 16
ENDBRANCH 9 12
ENDBRANCH 4 8
BRANCH 1 20
ATOM     20  CA  ALA B   1      -2.714   8.094  25.587  1.00 22.08 LIG 0.27  C 
ATOM     21  CB  ALA B   1      -2.064   8.541  26.869  1.00 22.59 LIG 0.05  C 
BRANCH 20 22
ATOM     22  N   ALA B   1      -2.897   6.616  25.585  1.00 23.15 LIG-0.07  N 
ATOM     23 H3   ALA B   1      -2.474   6.263  26.284  1.00 23.15 LIG 0.28  HD
ATOM     24 H2   ALA B   1      -2.561   6.276  24.834  1.00 23.15 LIG 0.28  HD
ATOM     25 H1   ALA B   1      -3.765   6.424  25.635  1.00 23.15 LIG 0.28  HD
ENDBRANCH 20 22
ENDBRANCH 1 20
TORSDOF 7
ENDMDL
MODEL 6
USER: ADFR SOLUTION from run 60
USER: SCORE 8.282419 LL:  -1.642 LR:  -6.640 RR:   0.000 FEB:  -4.552
USER: RMSD 6.621716
USER: SEED 59
USER: STATUS no improvement in best in 29 clusters for 5 generations
USER: GENES 9
USER: genes 0 Translation |==|  0.20801 0.34082 0.65405
USER: genes 1 Rotation |==|  0.93722 0.35916 0.40698 0.67421
USER: genes 2 Torsion [N]-CA--C-[N] |==|  0.87330
USER: genes 3 Torsion [C]-N--CA-[CB] |==|  0.27543
USER: genes 4 Torsion [N]-CA--C-[OXT] |==|  0.82629
USER: genes 5 Torsion [N]-CA--CB-[CG2] |==|  0.02395
USER: genes 6 Torsion [CA]-CB--OG1-[HG1] |==|  0.16412
USER: genes 7 Torsion [N]-C--CA-[N] |==|  0.47426
USER: genes 8 Torsion [C]-CA--N-[H2] |==|  0.52531
ROOT
ATOM      1  C   ALA B   1      -0.746   9.476  23.770  1.00 21.61 LIG 0.25  C 
ATOM      2 O    ALA B   1      -0.136   8.705  23.018  1.00 21.59 LIG-0.27  OA
ATOM      3  N   PRO B   2      -0.313  10.724  24.047  1.00 20.68 LIG-0.34  N 
ATOM      4  CA  PRO B   2       1.009  11.163  23.591  1.00 19.66 LIG 0.18  C 
ATOM      5  CB  PRO B   2       1.030  12.648  23.955  1.00 19.68 LIG 0.04  C 
ATOM      6  CG  PRO B   2       0.046  12.782  25.080  1.00 19.82 LIG 0.02  C 
ATOM      7  CD  PRO B   2      -1.036  11.796  24.758  1.00 21.17 LIG 0.13  C 
ENDROOT
BRANCH 4 8
ATOM      8  C   PRO B   2       2.146  10.412  24.293  1.00 18.80 LIG 0.24  C 
ATOM      9  N   THR B   3       2.038  10.278  25.611  1.00 18.04 LIG-0.34  N 
ATOM     10 H    THR B   3       1.356  10.545  26.063  1.00 18.04 LIG 0.16  HD
ATOM     11 O    PRO B   2       3.113   9.989  23.652  1.00 18.43 LIG-0.27  OA
BRANCH 9 12
ATOM     12  CA  THR B   3       3.090   9.652  26.425  1.00 16.71 LIG 0.21  C 
BRANCH 12 13
ATOM     13  C   THR B   3       2.487   8.707  27.469  1.00 16.11 LIG 0.20  C 
ATOM     14 OXT  THR B   3       1.738   9.142  28.350  1.00 14.78 LIG-0.65  OA
ATOM     15 O    THR B   3       2.759   7.493  27.459  1.00 14.64 LIG-0.65  OA
ENDBRANCH 12 13
BRANCH 12 16
ATOM     16  CB  THR B   3       4.001  10.705  27.119  1.00 16.70 LIG 0.15  C 
ATOM     17  CG2 THR B   3       3.426  12.109  26.938  1.00 16.85 LIG 0.04  C 
BRANCH 16 18
ATOM     18 OG1  THR B   3       4.215  10.364  28.590  1.00 17.97 LIG-0.39  OA
ATOM     19 HG1  THR B   3       4.569   9.605  28.654  1.00 17.97 LIG 0.21  HD
ENDBRANCH 16 18
ENDBRANCH 12 16
ENDBRANCH 9 12
ENDBRANCH 4 8
BRANCH 1 20
ATOM     20  CA  ALA B   1      -2.062   9.038  24.418  1.00 22.08 LIG 0.27  C 
ATOM     21  CB  ALA B   1      -1.892   8.929  25.909  1.00 22.59 LIG 0.05  C 
BRANCH 20 22
ATOM     22  N   ALA B   1      -2.522   7.739  23.851  1.00 23.15 LIG-0.07  N 
ATOM     23 H3   ALA B   1      -2.522   7.786  22.962  1.00 23.15 LIG 0.28  HD
ATOM     24 H2   ALA B   1      -3.346   7.565  24.138  1.00 23.15 LIG 0.28  HD
ATOM     25 H1   ALA B   1      -1.973   7.089  24.113  1.00 23.15 LIG 0.28  HD
ENDBRANCH 20 22
ENDBRANCH 1 20
TORSDOF 7
ENDMDL
MODEL 7
USER: ADFR SOLUTION from run 24
USER: SCORE 8.095087 LL:  -1.497 LR:  -6.598 RR:   0.000 FEB:  -4.510
USER: RMSD 6.662891
USER: SEED 23
USER: STATUS no improvement in best in 27 clusters for 5 generations
USER: GENES 9
USER: genes 0 Translation |==|  0.17175 0.30723 0.78173
USER: genes 1 Rotation |==|  0.14082 0.41298 0.77911 0.68846
USER: genes 2 Torsion [N]-CA--C-[N] |==|  0.27967
USER: genes 3 Torsion [C]-N--CA-[CB] |==|  0.85832
USER: genes 4 Torsion [N]-CA--C-[OXT] |==|  0.51200
USER: genes 5 Torsion [N]-CA--CB-[CG2] |==|  0.88501
USER: genes 6 Torsion [CA]-CB--OG1-[HG1] |==|  0.13256
USER: genes 7 Torsion [N]-C--CA-[N] |==|  0.84517
USER: genes 8 Torsion [C]-CA--N-[H2] |==|  0.38684
ROOT
ATOM      1  C   ALA B   1      -1.317   8.972  25.685  1.00 21.61 LIG 0.25  C 
ATOM      2 O    ALA B   1      -1.484  10.074  25.146  1.00 21.59 LIG-0.27  OA
ATOM      3  N   PRO B   2      -0.371   8.751  26.622  1.00 20.68 LIG-0.34  N 
ATOM      4  CA  PRO B   2       0.624   9.784  26.923  1.00 19.66 LIG 0.18  C 
ATOM      5  CB  PRO B   2       1.373   9.210  28.126  1.00 19.68 LIG 0.04  C 
ATOM      6  CG  PRO B   2       1.182   7.725  28.023  1.00 19.82 LIG 0.02  C 
ATOM      7  CD  PRO B   2      -0.201   7.556  27.471  1.00 21.17 LIG 0.13  C 
ENDROOT
BRANCH 4 8
ATOM      8  C   PRO B   2       1.579  10.031  25.749  1.00 18.80 LIG 0.24  C 
ATOM      9  N   THR B   3       1.327  11.100  25.000  1.00 18.04 LIG-0.34  N 
ATOM     10 H    THR B   3       0.700  11.664  25.170  1.00 18.04 LIG 0.16  HD
ATOM     11 O    PRO B   2       2.508   9.251  25.517  1.00 18.43 LIG-0.27  OA
BRANCH 9 12
ATOM     12  CA  THR B   3       2.109  11.417  23.797  1.00 16.71 LIG 0.21  C 
BRANCH 12 13
ATOM     13  C   THR B   3       1.774  10.454  22.654  1.00 16.11 LIG 0.20  C 
ATOM     14 OXT  THR B   3       2.390  10.512  21.585  1.00 14.78 LIG-0.65  OA
ATOM     15 O    THR B   3       0.865   9.614  22.777  1.00 14.64 LIG-0.65  OA
ENDBRANCH 12 13
BRANCH 12 16
ATOM     16  CB  THR B   3       3.641  11.409  24.072  1.00 16.70 LIG 0.15  C 
ATOM     17  CG2 THR B   3       3.944  12.074  25.413  1.00 16.85 LIG 0.04  C 
BRANCH 16 18
ATOM     18 OG1  THR B   3       4.206   9.995  23.997  1.00 17.97 LIG-0.39  OA
ATOM     19 HG1  THR B   3       3.928   9.617  23.299  1.00 17.97 LIG 0.21  HD
ENDBRANCH 16 18
ENDBRANCH 12 16
ENDBRANCH 9 12
ENDBRANCH 4 8
BRANCH 1 20
ATOM     20  CA  ALA B   1      -2.215   7.790  25.312  1.00 22.08 LIG 0.27  C 
ATOM     21  CB  ALA B   1      -3.083   7.411  26.481  1.00 22.59 LIG 0.05  C 
BRANCH 20 22
ATOM     22  N   ALA B   1      -1.397   6.624  24.873  1.00 23.15 LIG-0.07  N 
ATOM     23 H3   ALA B   1      -1.397   6.579  23.985  1.00 23.15 LIG 0.28  HD
ATOM     24 H2   ALA B   1      -1.743   5.876  25.208  1.00 23.15 LIG 0.28  HD
ATOM     25 H1   ALA B   1      -0.562   6.721  25.165  1.00 23.15 LIG 0.28  HD
ENDBRANCH 20 22
ENDBRANCH 1 20
TORSDOF 7
ENDMDL
MODEL 8
USER: ADFR SOLUTION from run 2
USER: SCORE 8.168271 LL:  -1.580 LR:  -6.588 RR:   0.000 FEB:  -4.500
USER: RMSD 6.430314
USER: SEED 336997
USER: STATUS no improvement in best in 34 clusters for 5 generations
USER: GENES 9
USER: genes 0 Translation |==|  0.15347 0.27281 0.68815
USER: genes 1 Rotation |==|  0.80026 0.37961 0.59047 0.87036
USER: genes 2 Torsion [N]-CA--C-[N] |==|  0.21818
USER: genes 3 Torsion [C]-N--CA-[CB] |==|  0.41866
USER: genes 4 Torsion [N]-CA--C-[OXT] |==|  0.02140
USER: genes 5 Torsion [N]-CA--CB-[CG2] |==|  0.85284
USER: genes 6 Torsion [CA]-CB--OG1-[HG1] |==|  0.22507
USER: genes 7 Torsion [N]-C--CA-[N] |==|  0.44476
USER: genes 8 Torsion [C]-CA--N-[H2] |==|  0.90333
ROOT
ATOM      1  C   ALA B   1      -1.605   8.456  24.281  1.00 21.61 LIG 0.25  C 
ATOM      2 O    ALA B   1      -0.663   7.796  24.740  1.00 21.59 LIG-0.27  OA
ATOM      3  N   PRO B   2      -1.457   9.337  23.270  1.00 20.68 LIG-0.34  N 
ATOM      4  CA  PRO B   2      -0.119   9.677  22.778  1.00 19.66 LIG 0.18  C 
ATOM      5  CB  PRO B   2      -0.405  10.547  21.554  1.00 19.68 LIG 0.04  C 
ATOM      6  CG  PRO B   2      -1.770  11.119  21.801  1.00 19.82 LIG 0.02  C 
ATOM      7  CD  PRO B   2      -2.516  10.031  22.511  1.00 21.17 LIG 0.13  C 
ENDROOT
BRANCH 4 8
ATOM      8  C   PRO B   2       0.706  10.446  23.817  1.00 18.80 LIG 0.24  C 
ATOM      9  N   THR B   3       1.252   9.721  24.788  1.00 18.04 LIG-0.34  N 
ATOM     10 H    THR B   3       1.202   8.864  24.829  1.00 18.04 LIG 0.16  HD
ATOM     11 O    PRO B   2       0.819  11.673  23.749  1.00 18.43 LIG-0.27  OA
BRANCH 9 12
ATOM     12  CA  THR B   3       2.001  10.332  25.897  1.00 16.71 LIG 0.21  C 
BRANCH 12 13
ATOM     13  C   THR B   3       3.466  10.554  25.513  1.00 16.11 LIG 0.20  C 
ATOM     14 OXT  THR B   3       3.846  10.364  24.353  1.00 14.78 LIG-0.65  OA
ATOM     15 O    THR B   3       4.300  10.908  26.366  1.00 14.64 LIG-0.65  OA
ENDBRANCH 12 13
BRANCH 12 16
ATOM     16  CB  THR B   3       1.911   9.489  27.201  1.00 16.70 LIG 0.15  C 
ATOM     17  CG2 THR B   3       0.451   9.205  27.552  1.00 16.85 LIG 0.04  C 
BRANCH 16 18
ATOM     18 OG1  THR B   3       2.729   8.208  27.087  1.00 17.97 LIG-0.39  OA
ATOM     19 HG1  THR B   3       3.539   8.377  27.235  1.00 17.97 LIG 0.21  HD
ENDBRANCH 16 18
ENDBRANCH 12 16
ENDBRANCH 9 12
ENDBRANCH 4 8
BRANCH 1 20
ATOM     20  CA  ALA B   1      -3.017   8.279  24.847  1.00 22.08 LIG 0.27  C 
ATOM     21  CB  ALA B   1      -3.359   9.432  25.752  1.00 22.59 LIG 0.05  C 
BRANCH 20 22
ATOM     22  N   ALA B   1      -3.131   6.989  25.584  1.00 23.15 LIG-0.07  N 
ATOM     23 H3   ALA B   1      -2.852   7.099  26.422  1.00 23.15 LIG 0.28  HD
ATOM     24 H2   ALA B   1      -2.630   6.373  25.184  1.00 23.15 LIG 0.28  HD
ATOM     25 H1   ALA B   1      -3.981   6.724  25.588  1.00 23.15 LIG 0.28  HD
ENDBRANCH 20 22
ENDBRANCH 1 20
TORSDOF 7
ENDMDL
MODEL 9
USER: ADFR SOLUTION from run 117
USER: SCORE 7.622590 LL:  -1.154 LR:  -6.468 RR:   0.000 FEB:  -4.380
USER: RMSD 6.007358
USER: SEED 116
USER: STATUS no improvement in best in 27 clusters for 5 generations
USER: GENES 9
USER: genes 0 Translation |==|  0.49005 0.49133 0.48891
USER: genes 1 Rotation |==|  0.09796 0.36084 0.33552 0.70481
USER: genes 2 Torsion [N]-CA--C-[N] |==|  0.54259
USER: genes 3 Torsion [C]-N--CA-[CB] |==|  0.27111
USER: genes 4 Torsion [N]-CA--C-[OXT] |==|  0.75463
USER: genes 5 Torsion [N]-CA--CB-[CG2] |==|  0.10495
USER: genes 6 Torsion [CA]-CB--OG1-[HG1] |==|  0.05802
USER: genes 7 Torsion [N]-C--CA-[N] |==|  0.84754
USER: genes 8 Torsion [C]-CA--N-[H2] |==|  0.82736
ROOT
ATOM      1  C   ALA B   1       3.696  11.734  21.293  1.00 21.61 LIG 0.25  C 
ATOM      2 O    ALA B   1       4.319  12.567  21.964  1.00 21.59 LIG-0.27  OA
ATOM      3  N   PRO B   2       2.575  11.128  21.735  1.00 20.68 LIG-0.34  N 
ATOM      4  CA  PRO B   2       2.136  11.312  23.121  1.00 19.66 LIG 0.18  C 
ATOM      5  CB  PRO B   2       0.774  10.616  23.154  1.00 19.68 LIG 0.04  C 
ATOM      6  CG  PRO B   2       0.830   9.614  22.039  1.00 19.82 LIG 0.02  C 
ATOM      7  CD  PRO B   2       1.643  10.278  20.969  1.00 21.17 LIG 0.13  C 
ENDROOT
BRANCH 4 8
ATOM      8  C   PRO B   2       3.100  10.675  24.128  1.00 18.80 LIG 0.24  C 
ATOM      9  N   THR B   3       2.639  10.513  25.364  1.00 18.04 LIG-0.34  N 
ATOM     10 H    THR B   3       1.834  10.701  25.600  1.00 18.04 LIG 0.16  HD
ATOM     11 O    PRO B   2       4.247  10.364  23.792  1.00 18.43 LIG-0.27  OA
BRANCH 9 12
ATOM     12  CA  THR B   3       3.478   9.990  26.452  1.00 16.71 LIG 0.21  C 
BRANCH 12 13
ATOM     13  C   THR B   3       2.696   9.002  27.322  1.00 16.11 LIG 0.20  C 
ATOM     14 OXT  THR B   3       2.037   9.403  28.288  1.00 14.78 LIG-0.65  OA
ATOM     15 O    THR B   3       2.728   7.782  27.084  1.00 14.64 LIG-0.65  OA
ENDBRANCH 12 13
BRANCH 12 16
ATOM     16  CB  THR B   3       4.073  11.125  27.333  1.00 16.70 LIG 0.15  C 
ATOM     17  CG2 THR B   3       3.053  12.248  27.515  1.00 16.85 LIG 0.04  C 
BRANCH 16 18
ATOM     18 OG1  THR B   3       4.567  10.583  28.670  1.00 17.97 LIG-0.39  OA
ATOM     19 HG1  THR B   3       4.702   9.756  28.605  1.00 17.97 LIG 0.21  HD
ENDBRANCH 16 18
ENDBRANCH 12 16
ENDBRANCH 9 12
ENDBRANCH 4 8
BRANCH 1 20
ATOM     20  CA  ALA B   1       4.178  11.363  19.887  1.00 22.08 LIG 0.27  C 
ATOM     21  CB  ALA B   1       3.202  11.864  18.857  1.00 22.59 LIG 0.05  C 
BRANCH 20 22
ATOM     22  N   ALA B   1       4.354   9.888  19.763  1.00 23.15 LIG-0.07  N 
ATOM     23 H3   ALA B   1       3.584   9.481  19.947  1.00 23.15 LIG 0.28  HD
ATOM     24 H2   ALA B   1       4.978   9.614  20.334  1.00 23.15 LIG 0.28  HD
ATOM     25 H1   ALA B   1       4.603   9.688  18.932  1.00 23.15 LIG 0.28  HD
ENDBRANCH 20 22
ENDBRANCH 1 20
TORSDOF 7
ENDMDL
MODEL 10
USER: ADFR SOLUTION from run 193
USER: SCORE 7.713010 LL:  -1.252 LR:  -6.461 RR:   0.000 FEB:  -4.373
USER: RMSD 6.322035
USER: SEED 192
USER: STATUS no improvement in best in 37 clusters for 5 generations
USER: GENES 9
USER: genes 0 Translation |==|  0.19396 0.31815 0.74393
USER: genes 1 Rotation |==|  0.13352 0.44591 0.80221 0.64641
USER: genes 2 Torsion [N]-CA--C-[N] |==|  0.18401
USER: genes 3 Torsion [C]-N--CA-[CB] |==|  0.38015
USER: genes 4 Torsion [N]-CA--C-[OXT] |==|  0.45922
USER: genes 5 Torsion [N]-CA--CB-[CG2] |==|  0.23425
USER: genes 6 Torsion [CA]-CB--OG1-[HG1] |==|  0.99376
USER: genes 7 Torsion [N]-C--CA-[N] |==|  0.83904
USER: genes 8 Torsion [C]-CA--N-[H2] |==|  0.56251
ROOT
ATOM      1  C   ALA B   1      -0.967   9.136  25.118  1.00 21.61 LIG 0.25  C 
ATOM      2 O    ALA B   1      -1.210  10.088  24.365  1.00 21.59 LIG-0.27  OA
ATOM      3  N   PRO B   2       0.046   9.147  26.009  1.00 20.68 LIG-0.34  N 
ATOM      4  CA  PRO B   2       1.021  10.242  26.003  1.00 19.66 LIG 0.18  C 
ATOM      5  CB  PRO B   2       1.869   9.964  27.244  1.00 19.68 LIG 0.04  C 
ATOM      6  CG  PRO B   2       1.727   8.489  27.483  1.00 19.82 LIG 0.02  C 
ATOM      7  CD  PRO B   2       0.317   8.174  27.084  1.00 21.17 LIG 0.13  C 
ENDROOT
BRANCH 4 8
ATOM      8  C   PRO B   2       1.886  10.244  24.737  1.00 18.80 LIG 0.24  C 
ATOM      9  N   THR B   3       1.258  10.502  23.595  1.00 18.04 LIG-0.34  N 
ATOM     10 H    THR B   3       0.424  10.707  23.546  1.00 18.04 LIG 0.16  HD
ATOM     11 O    PRO B   2       3.093   9.989  24.798  1.00 18.43 LIG-0.27  OA
BRANCH 9 12
ATOM     12  CA  THR B   3       1.943  10.459  22.295  1.00 16.71 LIG 0.21  C 
BRANCH 12 13
ATOM     13  C   THR B   3       2.327  11.866  21.829  1.00 16.11 LIG 0.20  C 
ATOM     14 OXT  THR B   3       3.137  12.022  20.909  1.00 14.78 LIG-0.65  OA
ATOM     15 O    THR B   3       1.847  12.871  22.382  1.00 14.64 LIG-0.65  OA
ENDBRANCH 12 13
BRANCH 12 16
ATOM     16  CB  THR B   3       1.091   9.748  21.204  1.00 16.70 LIG 0.15  C 
ATOM     17  CG2 THR B   3       0.106  10.732  20.573  1.00 16.85 LIG 0.04  C 
BRANCH 16 18
ATOM     18 OG1  THR B   3       1.978   9.082  20.159  1.00 17.97 LIG-0.39  OA
ATOM     19 HG1  THR B   3       2.785   9.239  20.334  1.00 17.97 LIG 0.21  HD
ENDBRANCH 16 18
ENDBRANCH 12 16
ENDBRANCH 9 12
ENDBRANCH 4 8
BRANCH 1 20
ATOM     20  CA  ALA B   1      -1.844   7.882  25.079  1.00 22.08 LIG 0.27  C 
ATOM     21  CB  ALA B   1      -2.577   7.724  26.385  1.00 22.59 LIG 0.05  C 
BRANCH 20 22
ATOM     22  N   ALA B   1      -1.022   6.672  24.795  1.00 23.15 LIG-0.07  N 
ATOM     23 H3   ALA B   1      -0.386   6.876  24.208  1.00 23.15 LIG 0.28  HD
ATOM     24 H2   ALA B   1      -1.541   6.032  24.459  1.00 23.15 LIG 0.28  HD
ATOM     25 H1   ALA B   1      -0.647   6.384  25.549  1.00 23.15 LIG 0.28  HD
ENDBRANCH 20 22
ENDBRANCH 1 20
TORSDOF 7
ENDMDL
MODEL 11
USER: ADFR SOLUTION from run 168
USER: SCORE 7.863784 LL:  -1.439 LR:  -6.425 RR:   0.000 FEB:  -4.337
USER: RMSD 7.334769
USER: SEED 167
USER: STATUS no improvement in best in 41 clusters for 5 generations
USER: GENES 9
USER: genes 0 Translation |==|  0.79848 0.54676 0.10253
USER: genes 1 Rotation |==|  0.23024 0.22668 0.23422 0.67858
USER: genes 2 Torsion [N]-CA--C-[N] |==|  0.44946
USER: genes 3 Torsion [C]-N--CA-[CB] |==|  0.50407
USER: genes 4 Torsion [N]-CA--C-[OXT] |==|  0.39058
USER: genes 5 Torsion [N]-CA--CB-[CG2] |==|  0.66709
USER: genes 6 Torsion [CA]-CB--OG1-[HG1] |==|  0.00924
USER: genes 7 Torsion [N]-C--CA-[N] |==|  0.47198
USER: genes 8 Torsion [C]-CA--N-[H2] |==|  0.32776
ROOT
ATOM      1  C   ALA B   1       8.554  12.565  15.497  1.00 21.61 LIG 0.25  C 
ATOM      2 O    ALA B   1       8.203  13.398  16.343  1.00 21.59 LIG-0.27  OA
ATOM      3  N   PRO B   2       7.756  11.558  15.086  1.00 20.68 LIG-0.34  N 
ATOM      4  CA  PRO B   2       6.480  11.307  15.761  1.00 19.66 LIG 0.18  C 
ATOM      5  CB  PRO B   2       5.833  10.224  14.898  1.00 19.68 LIG 0.04  C 
ATOM      6  CG  PRO B   2       6.981   9.540  14.216  1.00 19.82 LIG 0.02  C 
ATOM      7  CD  PRO B   2       7.976  10.631  13.959  1.00 21.17 LIG 0.13  C 
ENDROOT
BRANCH 4 8
ATOM      8  C   PRO B   2       6.670  10.817  17.202  1.00 18.80 LIG 0.24  C 
ATOM      9  N   THR B   3       5.613  10.920  18.002  1.00 18.04 LIG-0.34  N 
ATOM     10 H    THR B   3       4.842  11.196  17.740  1.00 18.04 LIG 0.16  HD
ATOM     11 O    PRO B   2       7.761  10.383  17.582  1.00 18.43 LIG-0.27  OA
BRANCH 9 12
ATOM     12  CA  THR B   3       5.672  10.566  19.428  1.00 16.71 LIG 0.21  C 
BRANCH 12 13
ATOM     13  C   THR B   3       6.183   9.135  19.618  1.00 16.11 LIG 0.20  C 
ATOM     14 OXT  THR B   3       6.956   8.864  20.543  1.00 14.78 LIG-0.65  OA
ATOM     15 O    THR B   3       5.846   8.231  18.833  1.00 14.64 LIG-0.65  OA
ENDBRANCH 12 13
BRANCH 12 16
ATOM     16  CB  THR B   3       4.296  10.740  20.134  1.00 16.70 LIG 0.15  C 
ATOM     17  CG2 THR B   3       4.406  11.756  21.270  1.00 16.85 LIG 0.04  C 
BRANCH 16 18
ATOM     18 OG1  THR B   3       3.209  11.120  19.135  1.00 17.97 LIG-0.39  OA
ATOM     19 HG1  THR B   3       3.530  11.126  18.359  1.00 17.97 LIG 0.21  HD
ENDBRANCH 16 18
ENDBRANCH 12 16
ENDBRANCH 9 12
ENDBRANCH 4 8
BRANCH 1 20
ATOM     20  CA  ALA B   1       9.940  12.661  14.852  1.00 22.08 LIG 0.27  C 
ATOM     21  CB  ALA B   1      10.788  11.491  15.274  1.00 22.59 LIG 0.05  C 
BRANCH 20 22
ATOM     22  N   ALA B   1      10.604  13.943  15.218  1.00 23.15 LIG-0.07  N 
ATOM     23 H3   ALA B   1      10.805  14.396  14.478  1.00 23.15 LIG 0.28  HD
ATOM     24 H2   ALA B   1      11.350  13.772  15.672  1.00 23.15 LIG 0.28  HD
ATOM     25 H1   ALA B   1      10.055  14.429  15.722  1.00 23.15 LIG 0.28  HD
ENDBRANCH 20 22
ENDBRANCH 1 20
TORSDOF 7
ENDMDL
MODEL 12
USER: ADFR SOLUTION from run 26
USER: SCORE 7.981151 LL:  -1.584 LR:  -6.397 RR:   0.000 FEB:  -4.309
USER: RMSD 6.887435
USER: SEED 25
USER: STATUS no improvement in best in 30 clusters for 5 generations
USER: GENES 9
USER: genes 0 Translation |==|  0.18113 0.31419 0.74213
USER: genes 1 Rotation |==|  0.95436 0.57272 0.37380 0.64947
USER: genes 2 Torsion [N]-CA--C-[N] |==|  0.95358
USER: genes 3 Torsion [C]-N--CA-[CB] |==|  0.44921
USER: genes 4 Torsion [N]-CA--C-[OXT] |==|  0.50083
USER: genes 5 Torsion [N]-CA--CB-[CG2] |==|  0.17169
USER: genes 6 Torsion [CA]-CB--OG1-[HG1] |==|  0.64492
USER: genes 7 Torsion [N]-C--CA-[N] |==|  0.46801
USER: genes 8 Torsion [C]-CA--N-[H2] |==|  0.20063
ROOT
ATOM      1  C   ALA B   1      -1.169   9.077  25.091  1.00 21.61 LIG 0.25  C 
ATOM      2 O    ALA B   1      -0.641   9.064  23.972  1.00 21.59 LIG-0.27  OA
ATOM      3  N   PRO B   2      -1.470  10.218  25.746  1.00 20.68 LIG-0.34  N 
ATOM      4  CA  PRO B   2      -1.022  11.510  25.219  1.00 19.66 LIG 0.18  C 
ATOM      5  CB  PRO B   2      -1.704  12.521  26.142  1.00 19.68 LIG 0.04  C 
ATOM      6  CG  PRO B   2      -1.954  11.769  27.416  1.00 19.82 LIG 0.02  C 
ATOM      7  CD  PRO B   2      -2.268  10.371  26.978  1.00 21.17 LIG 0.13  C 
ENDROOT
BRANCH 4 8
ATOM      8  C   PRO B   2       0.502  11.663  25.271  1.00 18.80 LIG 0.24  C 
ATOM      9  N   THR B   3       1.152  10.817  26.063  1.00 18.04 LIG-0.34  N 
ATOM     10 H    THR B   3       0.769  10.179  26.496  1.00 18.04 LIG 0.16  HD
ATOM     11 O    PRO B   2       1.069  12.549  24.625  1.00 18.43 LIG-0.27  OA
BRANCH 9 12
ATOM     12  CA  THR B   3       2.605  10.897  26.274  1.00 16.71 LIG 0.21  C 
BRANCH 12 13
ATOM     13  C   THR B   3       3.367  10.380  25.050  1.00 16.11 LIG 0.20  C 
ATOM     14 OXT  THR B   3       4.602  10.364  25.042  1.00 14.78 LIG-0.65  OA
ATOM     15 O    THR B   3       2.755   9.989  24.040  1.00 14.64 LIG-0.65  OA
ENDBRANCH 12 13
BRANCH 12 16
ATOM     16  CB  THR B   3       3.058  10.130  27.549  1.00 16.70 LIG 0.15  C 
ATOM     17  CG2 THR B   3       2.728   8.643  27.421  1.00 16.85 LIG 0.04  C 
BRANCH 16 18
ATOM     18 OG1  THR B   3       4.537  10.362  27.836  1.00 17.97 LIG-0.39  OA
ATOM     19 HG1  THR B   3       4.924   9.622  27.929  1.00 17.97 LIG 0.21  HD
ENDBRANCH 16 18
ENDBRANCH 12 16
ENDBRANCH 9 12
ENDBRANCH 4 8
BRANCH 1 20
ATOM     20  CA  ALA B   1      -1.528   7.761  25.787  1.00 22.08 LIG 0.27  C 
ATOM     21  CB  ALA B   1      -0.647   7.556  26.990  1.00 22.59 LIG 0.05  C 
BRANCH 20 22
ATOM     22  N   ALA B   1      -1.397   6.614  24.846  1.00 23.15 LIG-0.07  N 
ATOM     23 H3   ALA B   1      -1.773   5.891  25.204  1.00 23.15 LIG 0.28  HD
ATOM     24 H2   ALA B   1      -0.536   6.453  24.691  1.00 23.15 LIG 0.28  HD
ATOM     25 H1   ALA B   1      -1.804   6.810  24.079  1.00 23.15 LIG 0.28  HD
ENDBRANCH 20 22
ENDBRANCH 1 20
TORSDOF 7
ENDMDL
MODEL 13
USER: ADFR SOLUTION from run 132
USER: SCORE 7.970587 LL:  -1.632 LR:  -6.339 RR:   0.000 FEB:  -4.250
USER: RMSD 5.278160
USER: SEED 131
USER: STATUS no improvement in best in 25 clusters for 5 generations
USER: GENES 9
USER: genes 0 Translation |==|  0.19817 0.34962 0.57531
USER: genes 1 Rotation |==|  0.72296 0.24383 0.59404 0.85471
USER: genes 2 Torsion [N]-CA--C-[N] |==|  0.45657
USER: genes 3 Torsion [C]-N--CA-[CB] |==|  0.84282
USER: genes 4 Torsion [N]-CA--C-[OXT] |==|  0.65886
USER: genes 5 Torsion [N]-CA--CB-[CG2] |==|  0.57622
USER: genes 6 Torsion [CA]-CB--OG1-[HG1] |==|  0.21519
USER: genes 7 Torsion [N]-C--CA-[N] |==|  0.39960
USER: genes 8 Torsion [C]-CA--N-[H2] |==|  0.28489
ROOT
ATOM      1  C   ALA B   1      -0.901   9.608  22.589  1.00 21.61 LIG 0.25  C 
ATOM      2 O    ALA B   1      -0.591   8.766  23.441  1.00 21.59 LIG-0.27  OA
ATOM      3  N   PRO B   2       0.002  10.187  21.770  1.00 20.68 LIG-0.34  N 
ATOM      4  CA  PRO B   2       1.435   9.960  21.975  1.00 19.66 LIG 0.18  C 
ATOM      5  CB  PRO B   2       2.075  10.637  20.762  1.00 19.68 LIG 0.04  C 
ATOM      6  CG  PRO B   2       1.076  11.670  20.328  1.00 19.82 LIG 0.02  C 
ATOM      7  CD  PRO B   2      -0.259  11.045  20.598  1.00 21.17 LIG 0.13  C 
ENDROOT
BRANCH 4 8
ATOM      8  C   PRO B   2       1.943  10.583  23.280  1.00 18.80 LIG 0.24  C 
ATOM      9  N   THR B   3       3.129  10.165  23.709  1.00 18.04 LIG-0.34  N 
ATOM     10 H    THR B   3       3.626   9.614  23.274  1.00 18.04 LIG 0.16  HD
ATOM     11 O    PRO B   2       1.256  11.404  23.896  1.00 18.43 LIG-0.27  OA
BRANCH 9 12
ATOM     12  CA  THR B   3       3.705  10.614  24.985  1.00 16.71 LIG 0.21  C 
BRANCH 12 13
ATOM     13  C   THR B   3       2.893  10.086  26.171  1.00 16.11 LIG 0.20  C 
ATOM     14 OXT  THR B   3       2.407  10.868  26.995  1.00 14.78 LIG-0.65  OA
ATOM     15 O    THR B   3       2.728   8.864  26.334  1.00 14.64 LIG-0.65  OA
ENDBRANCH 12 13
BRANCH 12 16
ATOM     16  CB  THR B   3       3.823  12.163  25.064  1.00 16.70 LIG 0.15  C 
ATOM     17  CG2 THR B   3       4.967  12.563  25.994  1.00 16.85 LIG 0.04  C 
BRANCH 16 18
ATOM     18 OG1  THR B   3       3.978  12.776  23.676  1.00 17.97 LIG-0.39  OA
ATOM     19 HG1  THR B   3       3.230  12.793  23.292  1.00 17.97 LIG 0.21  HD
ENDBRANCH 16 18
ENDBRANCH 12 16
ENDBRANCH 9 12
ENDBRANCH 4 8
BRANCH 1 20
ATOM     20  CA  ALA B   1      -2.364  10.024  22.414  1.00 22.08 LIG 0.27  C 
ATOM     21  CB  ALA B   1      -2.699  11.145  23.360  1.00 22.59 LIG 0.05  C 
BRANCH 20 22
ATOM     22  N   ALA B   1      -3.272   8.864  22.640  1.00 23.15 LIG-0.07  N 
ATOM     23 H3   ALA B   1      -3.913   8.864  22.023  1.00 23.15 LIG 0.28  HD
ATOM     24 H2   ALA B   1      -3.639   8.927  23.448  1.00 23.15 LIG 0.28  HD
ATOM     25 H1   ALA B   1      -2.807   8.107  22.584  1.00 23.15 LIG 0.28  HD
ENDBRANCH 20 22
ENDBRANCH 1 20
TORSDOF 7
ENDMDL
MODEL 14
USER: ADFR SOLUTION from run 43
USER: SCORE 7.771082 LL:  -1.440 LR:  -6.331 RR:   0.000 FEB:  -4.243
USER: RMSD 7.425766
USER: SEED 42
USER: STATUS no improvement in best in 28 clusters for 5 generations
USER: GENES 9
USER: genes 0 Translation |==|  0.79951 0.55701 0.09679
USER: genes 1 Rotation |==|  0.22587 0.22019 0.24733 0.68087
USER: genes 2 Torsion [N]-CA--C-[N] |==|  0.46984
USER: genes 3 Torsion [C]-N--CA-[CB] |==|  0.88095
USER: genes 4 Torsion [N]-CA--C-[OXT] |==|  0.88080
USER: genes 5 Torsion [N]-CA--CB-[CG2] |==|  0.42171
USER: genes 6 Torsion [CA]-CB--OG1-[HG1] |==|  0.87222
USER: genes 7 Torsion [N]-C--CA-[N] |==|  0.48065
USER: genes 8 Torsion [C]-CA--N-[H2] |==|  0.95078
ROOT
ATOM      1  C   ALA B   1       8.570  12.719  15.411  1.00 21.61 LIG 0.25  C 
ATOM      2 O    ALA B   1       8.224  13.578  16.232  1.00 21.59 LIG-0.27  OA
ATOM      3  N   PRO B   2       7.788  11.673  15.071  1.00 20.68 LIG-0.34  N 
ATOM      4  CA  PRO B   2       6.543  11.417  15.800  1.00 19.66 LIG 0.18  C 
ATOM      5  CB  PRO B   2       5.899  10.280  15.006  1.00 19.68 LIG 0.04  C 
ATOM      6  CG  PRO B   2       7.044   9.598  14.316  1.00 19.82 LIG 0.02  C 
ATOM      7  CD  PRO B   2       7.998  10.704  13.979  1.00 21.17 LIG 0.13  C 
ENDROOT
BRANCH 4 8
ATOM      8  C   PRO B   2       6.794  10.997  17.253  1.00 18.80 LIG 0.24  C 
ATOM      9  N   THR B   3       5.729  10.962  18.047  1.00 18.04 LIG-0.34  N 
ATOM     10 H    THR B   3       4.927  11.114  17.776  1.00 18.04 LIG 0.16  HD
ATOM     11 O    PRO B   2       7.935  10.739  17.647  1.00 18.43 LIG-0.27  OA
BRANCH 9 12
ATOM     12  CA  THR B   3       5.829  10.656  19.482  1.00 16.71 LIG 0.21  C 
BRANCH 12 13
ATOM     13  C   THR B   3       6.257  11.891  20.279  1.00 16.11 LIG 0.20  C 
ATOM     14 OXT  THR B   3       7.154  12.629  19.858  1.00 14.78 LIG-0.65  OA
ATOM     15 O    THR B   3       5.723  12.159  21.370  1.00 14.64 LIG-0.65  OA
ENDBRANCH 12 13
BRANCH 12 16
ATOM     16  CB  THR B   3       6.801   9.474  19.764  1.00 16.70 LIG 0.15  C 
ATOM     17  CG2 THR B   3       7.419   9.614  21.154  1.00 16.85 LIG 0.04  C 
BRANCH 16 18
ATOM     18 OG1  THR B   3       6.103   8.131  19.584  1.00 17.97 LIG-0.39  OA
ATOM     19 HG1  THR B   3       5.355   8.150  19.967  1.00 17.97 LIG 0.21  HD
ENDBRANCH 16 18
ENDBRANCH 12 16
ENDBRANCH 9 12
ENDBRANCH 4 8
BRANCH 1 20
ATOM     20  CA  ALA B   1       9.931  12.824  14.716  1.00 22.08 LIG 0.27  C 
ATOM     21  CB  ALA B   1      10.798  11.656  15.100  1.00 22.59 LIG 0.05  C 
BRANCH 20 22
ATOM     22  N   ALA B   1      10.603  14.107  15.064  1.00 23.15 LIG-0.07  N 
ATOM     23 H3   ALA B   1      11.232  13.957  15.675  1.00 23.15 LIG 0.28  HD
ATOM     24 H2   ALA B   1      10.003  14.678  15.391  1.00 23.15 LIG 0.28  HD
ATOM     25 H1   ALA B   1      10.976  14.455  14.334  1.00 23.15 LIG 0.28  HD
ENDBRANCH 20 22
ENDBRANCH 1 20
TORSDOF 7
ENDMDL
MODEL 15
USER: ADFR SOLUTION from run 4
USER: SCORE 7.798993 LL:  -1.501 LR:  -6.298 RR:   0.000 FEB:  -4.210
USER: RMSD 3.142248
USER: SEED 588138
USER: STATUS no improvement in best in 31 clusters for 5 generations
USER: GENES 9
USER: genes 0 Translation |==|  0.35583 0.55960 0.30357
USER: genes 1 Rotation |==|  0.14059 0.37249 0.56833 0.81606
USER: genes 2 Torsion [N]-CA--C-[N] |==|  0.73925
USER: genes 3 Torsion [C]-N--CA-[CB] |==|  0.31312
USER: genes 4 Torsion [N]-CA--C-[OXT] |==|  0.37419
USER: genes 5 Torsion [N]-CA--CB-[CG2] |==|  0.60771
USER: genes 6 Torsion [CA]-CB--OG1-[HG1] |==|  0.13511
USER: genes 7 Torsion [N]-C--CA-[N] |==|  0.16728
USER: genes 8 Torsion [C]-CA--N-[H2] |==|  0.07934
ROOT
ATOM      1  C   ALA B   1       1.582  12.758  18.513  1.00 21.61 LIG 0.25  C 
ATOM      2 O    ALA B   1       2.092  13.838  18.839  1.00 21.59 LIG-0.27  OA
ATOM      3  N   PRO B   2       1.590  11.672  19.314  1.00 20.68 LIG-0.34  N 
ATOM      4  CA  PRO B   2       2.364  11.681  20.558  1.00 19.66 LIG 0.18  C 
ATOM      5  CB  PRO B   2       1.970  10.364  21.227  1.00 19.68 LIG 0.04  C 
ATOM      6  CG  PRO B   2       1.527   9.479  20.098  1.00 19.82 LIG 0.02  C 
ATOM      7  CD  PRO B   2       0.858  10.405  19.129  1.00 21.17 LIG 0.13  C 
ENDROOT
BRANCH 4 8
ATOM      8  C   PRO B   2       3.875  11.735  20.304  1.00 18.80 LIG 0.24  C 
ATOM      9  N   THR B   3       4.508  10.567  20.269  1.00 18.04 LIG-0.34  N 
ATOM     10 H    THR B   3       4.110   9.807  20.334  1.00 18.04 LIG 0.16  HD
ATOM     11 O    PRO B   2       4.454  12.818  20.171  1.00 18.43 LIG-0.27  OA
BRANCH 9 12
ATOM     12  CA  THR B   3       5.967  10.469  20.114  1.00 16.71 LIG 0.21  C 
BRANCH 12 13
ATOM     13  C   THR B   3       6.334   9.610  18.901  1.00 16.11 LIG 0.20  C 
ATOM     14 OXT  THR B   3       7.207   9.984  18.110  1.00 14.78 LIG-0.65  OA
ATOM     15 O    THR B   3       5.747   8.536  18.682  1.00 14.64 LIG-0.65  OA
ENDBRANCH 12 13
BRANCH 12 16
ATOM     16  CB  THR B   3       6.658   9.913  21.392  1.00 16.70 LIG 0.15  C 
ATOM     17  CG2 THR B   3       7.978  10.641  21.643  1.00 16.85 LIG 0.04  C 
BRANCH 16 18
ATOM     18 OG1  THR B   3       5.729   9.989  22.599  1.00 17.97 LIG-0.39  OA
ATOM     19 HG1  THR B   3       4.978   9.670  22.395  1.00 17.97 LIG 0.21  HD
ENDBRANCH 16 18
ENDBRANCH 12 16
ENDBRANCH 9 12
ENDBRANCH 4 8
BRANCH 1 20
ATOM     20  CA  ALA B   1       0.887  12.614  17.156  1.00 22.08 LIG 0.27  C 
ATOM     21  CB  ALA B   1       1.024  13.889  16.368  1.00 22.59 LIG 0.05  C 
BRANCH 20 22
ATOM     22  N   ALA B   1      -0.550  12.266  17.334  1.00 23.15 LIG-0.07  N 
ATOM     23 H3   ALA B   1      -1.025  12.614  16.667  1.00 23.15 LIG 0.28  HD
ATOM     24 H2   ALA B   1      -0.842  12.595  18.108  1.00 23.15 LIG 0.28  HD
ATOM     25 H1   ALA B   1      -0.644  11.381  17.334  1.00 23.15 LIG 0.28  HD
ENDBRANCH 20 22
ENDBRANCH 1 20
TORSDOF 7
ENDMDL
MODEL 16
USER: ADFR SOLUTION from run 33
USER: SCORE 7.703952 LL:  -1.437 LR:  -6.267 RR:   0.000 FEB:  -4.179
USER: RMSD 8.156364
USER: SEED 32
USER: STATUS no improvement in best in 32 clusters for 5 generations
USER: GENES 9
USER: genes 0 Translation |==|  0.75505 0.42910 0.16385
USER: genes 1 Rotation |==|  0.67977 0.23639 0.73391 0.80574
USER: genes 2 Torsion [N]-CA--C-[N] |==|  0.51905
USER: genes 3 Torsion [C]-N--CA-[CB] |==|  0.86507
USER: genes 4 Torsion [N]-CA--C-[OXT] |==|  0.83208
USER: genes 5 Torsion [N]-CA--CB-[CG2] |==|  0.47963
USER: genes 6 Torsion [CA]-CB--OG1-[HG1] |==|  0.72390
USER: genes 7 Torsion [N]-C--CA-[N] |==|  0.40327
USER: genes 8 Torsion [C]-CA--N-[H2] |==|  0.51164
ROOT
ATOM      1  C   ALA B   1       7.870  10.801  16.417  1.00 21.61 LIG 0.25  C 
ATOM      2 O    ALA B   1       7.978  10.364  17.570  1.00 21.59 LIG-0.27  OA
ATOM      3  N   PRO B   2       8.861  11.470  15.792  1.00 20.68 LIG-0.34  N 
ATOM      4  CA  PRO B   2      10.067  11.859  16.529  1.00 19.66 LIG 0.18  C 
ATOM      5  CB  PRO B   2      10.978  12.423  15.438  1.00 19.68 LIG 0.04  C 
ATOM      6  CG  PRO B   2      10.045  12.867  14.350  1.00 19.82 LIG 0.02  C 
ATOM      7  CD  PRO B   2       8.931  11.864  14.371  1.00 21.17 LIG 0.13  C 
ENDROOT
BRANCH 4 8
ATOM      8  C   PRO B   2       9.778  12.915  17.602  1.00 18.80 LIG 0.24  C 
ATOM      9  N   THR B   3      10.835  13.428  18.222  1.00 18.04 LIG-0.34  N 
ATOM     10 H    THR B   3      11.648  13.233  18.019  1.00 18.04 LIG 0.16  HD
ATOM     11 O    PRO B   2       8.617  13.233  17.877  1.00 18.43 LIG-0.27  OA
BRANCH 9 12
ATOM     12  CA  THR B   3      10.707  14.390  19.327  1.00 16.71 LIG 0.21  C 
BRANCH 12 13
ATOM     13  C   THR B   3      10.269  13.690  20.616  1.00 16.11 LIG 0.20  C 
ATOM     14 OXT  THR B   3       9.194  13.084  20.666  1.00 14.78 LIG-0.65  OA
ATOM     15 O    THR B   3      10.978  13.739  21.638  1.00 14.64 LIG-0.65  OA
ENDBRANCH 12 13
BRANCH 12 16
ATOM     16  CB  THR B   3       9.726  15.548  18.987  1.00 16.70 LIG 0.15  C 
ATOM     17  CG2 THR B   3       9.483  16.419  20.219  1.00 16.85 LIG 0.04  C 
BRANCH 16 18
ATOM     18 OG1  THR B   3      10.228  16.366  17.802  1.00 17.97 LIG-0.39  OA
ATOM     19 HG1  THR B   3      10.603  17.064  18.082  1.00 17.97 LIG 0.21  HD
ENDBRANCH 16 18
ENDBRANCH 12 16
ENDBRANCH 9 12
ENDBRANCH 4 8
BRANCH 1 20
ATOM     20  CA  ALA B   1       6.578  10.575  15.627  1.00 22.08 LIG 0.27  C 
ATOM     21  CB  ALA B   1       5.604  11.690  15.900  1.00 22.59 LIG 0.05  C 
BRANCH 20 22
ATOM     22  N   ALA B   1       5.971   9.259  15.973  1.00 23.15 LIG-0.07  N 
ATOM     23 H3   ALA B   1       6.566   8.612  15.834  1.00 23.15 LIG 0.28  HD
ATOM     24 H2   ALA B   1       5.256   9.118  15.462  1.00 23.15 LIG 0.28  HD
ATOM     25 H1   ALA B   1       5.728   9.260  16.829  1.00 23.15 LIG 0.28  HD
ENDBRANCH 20 22
ENDBRANCH 1 20
TORSDOF 7
ENDMDL
MODEL 17
USER: ADFR SOLUTION from run 103
USER: SCORE 7.886634 LL:  -1.643 LR:  -6.244 RR:   0.000 FEB:  -4.156
USER: RMSD 4.547658
USER: SEED 102
USER: STATUS no improvement in best in 37 clusters for 5 generations
USER: GENES 9
USER: genes 0 Translation |==|  0.20524 0.35736 0.56454
USER: genes 1 Rotation |==|  0.74754 0.38039 0.58741 0.90839
USER: genes 2 Torsion [N]-CA--C-[N] |==|  0.29221
USER: genes 3 Torsion [C]-N--CA-[CB] |==|  0.15396
USER: genes 4 Torsion [N]-CA--C-[OXT] |==|  0.69782
USER: genes 5 Torsion [N]-CA--CB-[CG2] |==|  0.12890
USER: genes 6 Torsion [CA]-CB--OG1-[HG1] |==|  0.87679
USER: genes 7 Torsion [N]-C--CA-[N] |==|  0.29568
USER: genes 8 Torsion [C]-CA--N-[H2] |==|  0.95402
ROOT
ATOM      1  C   ALA B   1      -0.790   9.724  22.427  1.00 21.61 LIG 0.25  C 
ATOM      2 O    ALA B   1       0.102   9.117  23.035  1.00 21.59 LIG-0.27  OA
ATOM      3  N   PRO B   2      -0.587  10.318  21.232  1.00 20.68 LIG-0.34  N 
ATOM      4  CA  PRO B   2       0.766  10.411  20.676  1.00 19.66 LIG 0.18  C 
ATOM      5  CB  PRO B   2       0.531  10.980  19.276  1.00 19.68 LIG 0.04  C 
ATOM      6  CG  PRO B   2      -0.777  11.710  19.373  1.00 19.82 LIG 0.02  C 
ATOM      7  CD  PRO B   2      -1.598  10.894  20.325  1.00 21.17 LIG 0.13  C 
ENDROOT
BRANCH 4 8
ATOM      8  C   PRO B   2       1.671  11.336  21.498  1.00 18.80 LIG 0.24  C 
ATOM      9  N   THR B   3       2.581  10.741  22.261  1.00 18.04 LIG-0.34  N 
ATOM     10 H    THR B   3       2.709   9.891  22.276  1.00 18.04 LIG 0.16  HD
ATOM     11 O    PRO B   2       1.524  12.561  21.458  1.00 18.43 LIG-0.27  OA
BRANCH 9 12
ATOM     12  CA  THR B   3       3.464  11.496  23.163  1.00 16.71 LIG 0.21  C 
BRANCH 12 13
ATOM     13  C   THR B   3       4.395  10.556  23.934  1.00 16.11 LIG 0.20  C 
ATOM     14 OXT  THR B   3       4.232  10.364  25.143  1.00 14.78 LIG-0.65  OA
ATOM     15 O    THR B   3       5.343   9.989  23.360  1.00 14.64 LIG-0.65  OA
ENDBRANCH 12 13
BRANCH 12 16
ATOM     16  CB  THR B   3       2.665  12.389  24.155  1.00 16.70 LIG 0.15  C 
ATOM     17  CG2 THR B   3       1.517  11.597  24.779  1.00 16.85 LIG 0.04  C 
BRANCH 16 18
ATOM     18 OG1  THR B   3       3.582  12.992  25.214  1.00 17.97 LIG-0.39  OA
ATOM     19 HG1  THR B   3       4.107  12.401  25.500  1.00 17.97 LIG 0.21  HD
ENDBRANCH 16 18
ENDBRANCH 12 16
ENDBRANCH 9 12
ENDBRANCH 4 8
BRANCH 1 20
ATOM     20  CA  ALA B   1      -2.200   9.812  23.016  1.00 22.08 LIG 0.27  C 
ATOM     21  CB  ALA B   1      -2.134  10.260  24.451  1.00 22.59 LIG 0.05  C 
BRANCH 20 22
ATOM     22  N   ALA B   1      -2.897   8.498  22.913  1.00 23.15 LIG-0.07  N 
ATOM     23 H3   ALA B   1      -2.901   8.101  23.709  1.00 23.15 LIG 0.28  HD
ATOM     24 H2   ALA B   1      -2.471   7.982  22.327  1.00 23.15 LIG 0.28  HD
ATOM     25 H1   ALA B   1      -3.735   8.627  22.642  1.00 23.15 LIG 0.28  HD
ENDBRANCH 20 22
ENDBRANCH 1 20
TORSDOF 7
ENDMDL
MODEL 18
USER: ADFR SOLUTION from run 3
USER: SCORE 7.583066 LL:  -1.386 LR:  -6.197 RR:   0.000 FEB:  -4.109
USER: RMSD 4.953928
USER: SEED 341143
USER: STATUS no improvement in best in 32 clusters for 5 generations
USER: GENES 9
USER: genes 0 Translation |==|  0.20528 0.34107 0.64967
USER: genes 1 Rotation |==|  0.92647 0.41101 0.36663 0.70596
USER: genes 2 Torsion [N]-CA--C-[N] |==|  0.49257
USER: genes 3 Torsion [C]-N--CA-[CB] |==|  0.47662
USER: genes 4 Torsion [N]-CA--C-[OXT] |==|  0.23342
USER: genes 5 Torsion [N]-CA--CB-[CG2] |==|  0.47966
USER: genes 6 Torsion [CA]-CB--OG1-[HG1] |==|  0.91250
USER: genes 7 Torsion [N]-C--CA-[N] |==|  0.42719
USER: genes 8 Torsion [C]-CA--N-[H2] |==|  0.92430
ROOT
ATOM      1  C   ALA B   1      -0.789   9.480  23.704  1.00 21.61 LIG 0.25  C 
ATOM      2 O    ALA B   1      -0.285   8.752  22.839  1.00 21.59 LIG-0.27  OA
ATOM      3  N   PRO B   2      -0.480  10.788  23.831  1.00 20.68 LIG-0.34  N 
ATOM      4  CA  PRO B   2       0.610  11.367  23.040  1.00 19.66 LIG 0.18  C 
ATOM      5  CB  PRO B   2       0.512  12.861  23.350  1.00 19.68 LIG 0.04  C 
ATOM      6  CG  PRO B   2      -0.166  12.932  24.687  1.00 19.82 LIG 0.02  C 
ATOM      7  CD  PRO B   2      -1.144  11.797  24.678  1.00 21.17 LIG 0.13  C 
ENDROOT
BRANCH 4 8
ATOM      8  C   PRO B   2       1.981  10.812  23.444  1.00 18.80 LIG 0.24  C 
ATOM      9  N   THR B   3       3.021  11.245  22.738  1.00 18.04 LIG-0.34  N 
ATOM     10 H    THR B   3       2.963  11.838  22.118  1.00 18.04 LIG 0.16  HD
ATOM     11 O    PRO B   2       2.084   9.989  24.358  1.00 18.43 LIG-0.27  OA
BRANCH 9 12
ATOM     12  CA  THR B   3       4.384  10.739  22.959  1.00 16.71 LIG 0.21  C 
BRANCH 12 13
ATOM     13  C   THR B   3       4.889  11.114  24.355  1.00 16.11 LIG 0.20  C 
ATOM     14 OXT  THR B   3       4.603  10.417  25.334  1.00 14.78 LIG-0.65  OA
ATOM     15 O    THR B   3       5.577  12.137  24.528  1.00 14.64 LIG-0.65  OA
ENDBRANCH 12 13
BRANCH 12 16
ATOM     16  CB  THR B   3       5.380  11.242  21.876  1.00 16.70 LIG 0.15  C 
ATOM     17  CG2 THR B   3       6.810  10.845  22.243  1.00 16.85 LIG 0.04  C 
BRANCH 16 18
ATOM     18 OG1  THR B   3       4.988  10.740  20.491  1.00 17.97 LIG-0.39  OA
ATOM     19 HG1  THR B   3       4.617   9.989  20.559  1.00 17.97 LIG 0.21  HD
ENDBRANCH 16 18
ENDBRANCH 12 16
ENDBRANCH 9 12
ENDBRANCH 4 8
BRANCH 1 20
ATOM     20  CA  ALA B   1      -1.825   8.913  24.679  1.00 22.08 LIG 0.27  C 
ATOM     21  CB  ALA B   1      -1.159   8.528  25.973  1.00 22.59 LIG 0.05  C 
BRANCH 20 22
ATOM     22  N   ALA B   1      -2.522   7.739  24.084  1.00 23.15 LIG-0.07  N 
ATOM     23 H3   ALA B   1      -2.101   6.992  24.321  1.00 23.15 LIG 0.28  HD
ATOM     24 H2   ALA B   1      -2.521   7.811  23.197  1.00 23.15 LIG 0.28  HD
ATOM     25 H1   ALA B   1      -3.362   7.712  24.378  1.00 23.15 LIG 0.28  HD
ENDBRANCH 20 22
ENDBRANCH 1 20
TORSDOF 7
ENDMDL
MODEL 19
USER: ADFR SOLUTION from run 160
USER: SCORE 8.022745 LL:  -1.837 LR:  -6.186 RR:   0.000 FEB:  -4.097
USER: RMSD 5.508087
USER: SEED 159
USER: STATUS no improvement in best in 30 clusters for 5 generations
USER: GENES 9
USER: genes 0 Translation |==|  0.59392 0.54529 0.33230
USER: genes 1 Rotation |==|  0.24970 0.64422 0.73091 0.83650
USER: genes 2 Torsion [N]-CA--C-[N] |==|  0.95525
USER: genes 3 Torsion [C]-N--CA-[CB] |==|  0.27401
USER: genes 4 Torsion [N]-CA--C-[OXT] |==|  0.65696
USER: genes 5 Torsion [N]-CA--CB-[CG2] |==|  0.65612
USER: genes 6 Torsion [CA]-CB--OG1-[HG1] |==|  0.08833
USER: genes 7 Torsion [N]-C--CA-[N] |==|  0.83966
USER: genes 8 Torsion [C]-CA--N-[H2] |==|  0.24081
ROOT
ATOM      1  C   ALA B   1       5.332  12.543  18.943  1.00 21.61 LIG 0.25  C 
ATOM      2 O    ALA B   1       5.986  13.424  18.368  1.00 21.59 LIG-0.27  OA
ATOM      3  N   PRO B   2       5.858  11.350  19.290  1.00 20.68 LIG-0.34  N 
ATOM      4  CA  PRO B   2       7.203  10.979  18.841  1.00 19.66 LIG 0.18  C 
ATOM      5  CB  PRO B   2       7.469   9.665  19.577  1.00 19.68 LIG 0.04  C 
ATOM      6  CG  PRO B   2       6.107   9.106  19.868  1.00 19.82 LIG 0.02  C 
ATOM      7  CD  PRO B   2       5.253  10.307  20.141  1.00 21.17 LIG 0.13  C 
ENDROOT
BRANCH 4 8
ATOM      8  C   PRO B   2       7.275  10.780  17.322  1.00 18.80 LIG 0.24  C 
ATOM      9  N   THR B   3       6.114  10.636  16.691  1.00 18.04 LIG-0.34  N 
ATOM     10 H    THR B   3       5.350  10.696  17.081  1.00 18.04 LIG 0.16  HD
ATOM     11 O    PRO B   2       8.365  10.731  16.744  1.00 18.43 LIG-0.27  OA
BRANCH 9 12
ATOM     12  CA  THR B   3       6.034  10.359  15.250  1.00 16.71 LIG 0.21  C 
BRANCH 12 13
ATOM     13  C   THR B   3       4.931  11.191  14.591  1.00 16.11 LIG 0.20  C 
ATOM     14 OXT  THR B   3       4.023  10.641  13.959  1.00 14.78 LIG-0.65  OA
ATOM     15 O    THR B   3       4.943  12.433  14.663  1.00 14.64 LIG-0.65  OA
ENDBRANCH 12 13
BRANCH 12 16
ATOM     16  CB  THR B   3       5.813   8.847  14.954  1.00 16.70 LIG 0.15  C 
ATOM     17  CG2 THR B   3       6.914   8.318  14.036  1.00 16.85 LIG 0.04  C 
BRANCH 16 18
ATOM     18 OG1  THR B   3       5.711   8.042  16.244  1.00 17.97 LIG-0.39  OA
ATOM     19 HG1  THR B   3       5.365   8.517  16.845  1.00 17.97 LIG 0.21  HD
ENDBRANCH 16 18
ENDBRANCH 12 16
ENDBRANCH 9 12
ENDBRANCH 4 8
BRANCH 1 20
ATOM     20  CA  ALA B   1       3.866  12.789  19.310  1.00 22.08 LIG 0.27  C 
ATOM     21  CB  ALA B   1       3.704  12.807  20.807  1.00 22.59 LIG 0.05  C 
BRANCH 20 22
ATOM     22  N   ALA B   1       2.989  11.748  18.705  1.00 23.15 LIG-0.07  N 
ATOM     23 H3   ALA B   1       2.173  12.081  18.584  1.00 23.15 LIG 0.28  HD
ATOM     24 H2   ALA B   1       2.945  11.045  19.248  1.00 23.15 LIG 0.28  HD
ATOM     25 H1   ALA B   1       3.325  11.496  17.921  1.00 23.15 LIG 0.28  HD
ENDBRANCH 20 22
ENDBRANCH 1 20
TORSDOF 7
ENDMDL
MODEL 20
USER: ADFR SOLUTION from run 103
USER: SCORE 7.571890 LL:  -1.410 LR:  -6.162 RR:   0.000 FEB:  -4.074
USER: RMSD 6.531608
USER: SEED 102
USER: STATUS no improvement in best in 37 clusters for 5 generations
USER: GENES 9
USER: genes 0 Translation |==|  0.13712 0.22944 0.69954
USER: genes 1 Rotation |==|  0.83840 0.55498 0.42494 0.85613
USER: genes 2 Torsion [N]-CA--C-[N] |==|  0.95641
USER: genes 3 Torsion [C]-N--CA-[CB] |==|  0.87337
USER: genes 4 Torsion [N]-CA--C-[OXT] |==|  0.44273
USER: genes 5 Torsion [N]-CA--CB-[CG2] |==|  0.30072
USER: genes 6 Torsion [CA]-CB--OG1-[HG1] |==|  0.48907
USER: genes 7 Torsion [N]-C--CA-[N] |==|  0.31384
USER: genes 8 Torsion [C]-CA--N-[H2] |==|  0.40231
ROOT
ATOM      1  C   ALA B   1      -1.862   7.806  24.452  1.00 21.61 LIG 0.25  C 
ATOM      2 O    ALA B   1      -1.022   7.140  23.833  1.00 21.59 LIG-0.27  OA
ATOM      3  N   PRO B   2      -2.515   8.852  23.904  1.00 20.68 LIG-0.34  N 
ATOM      4  CA  PRO B   2      -2.124   9.355  22.584  1.00 19.66 LIG 0.18  C 
ATOM      5  CB  PRO B   2      -3.197  10.399  22.274  1.00 19.68 LIG 0.04  C 
ATOM      6  CG  PRO B   2      -3.709  10.833  23.617  1.00 19.82 LIG 0.02  C 
ATOM      7  CD  PRO B   2      -3.663   9.594  24.459  1.00 21.17 LIG 0.13  C 
ENDROOT
BRANCH 4 8
ATOM      8  C   PRO B   2      -0.728   9.989  22.592  1.00 18.80 LIG 0.24  C 
ATOM      9  N   THR B   3      -0.225  10.289  23.785  1.00 18.04 LIG-0.34  N 
ATOM     10 H    THR B   3      -0.617  10.104  24.528  1.00 18.04 LIG 0.16  HD
ATOM     11 O    PRO B   2      -0.137  10.225  21.534  1.00 18.43 LIG-0.27  OA
BRANCH 9 12
ATOM     12  CA  THR B   3       1.067  10.973  23.942  1.00 16.71 LIG 0.21  C 
BRANCH 12 13
ATOM     13  C   THR B   3       0.930  12.474  23.673  1.00 16.11 LIG 0.20  C 
ATOM     14 OXT  THR B   3       1.771  13.268  24.107  1.00 14.78 LIG-0.65  OA
ATOM     15 O    THR B   3      -0.040  12.919  23.032  1.00 14.64 LIG-0.65  OA
ENDBRANCH 12 13
BRANCH 12 16
ATOM     16  CB  THR B   3       2.170  10.364  23.029  1.00 16.70 LIG 0.15  C 
ATOM     17  CG2 THR B   3       2.504  11.322  21.886  1.00 16.85 LIG 0.04  C 
BRANCH 16 18
ATOM     18 OG1  THR B   3       3.408   9.989  23.836  1.00 17.97 LIG-0.39  OA
ATOM     19 HG1  THR B   3       3.968   9.614  23.334  1.00 17.97 LIG 0.21  HD
ENDBRANCH 16 18
ENDBRANCH 12 16
ENDBRANCH 9 12
ENDBRANCH 4 8
BRANCH 1 20
ATOM     20  CA  ALA B   1      -2.217   7.445  25.897  1.00 22.08 LIG 0.27  C 
ATOM     21  CB  ALA B   1      -0.975   7.438  26.748  1.00 22.59 LIG 0.05  C 
BRANCH 20 22
ATOM     22  N   ALA B   1      -2.897   6.121  25.959  1.00 23.15 LIG-0.07  N 
ATOM     23 H3   ALA B   1      -3.779   6.239  25.959  1.00 23.15 LIG 0.28  HD
ATOM     24 H2   ALA B   1      -2.655   5.698  26.704  1.00 23.15 LIG 0.28  HD
ATOM     25 H1   ALA B   1      -2.663   5.634  25.252  1.00 23.15 LIG 0.28  HD
ENDBRANCH 20 22
ENDBRANCH 1 20
TORSDOF 7
ENDMDL
MODEL 21
USER: ADFR SOLUTION from run 56
USER: SCORE 7.669990 LL:  -1.568 LR:  -6.102 RR:   0.000 FEB:  -4.014
USER: RMSD 6.079502
USER: SEED 55
USER: STATUS no improvement in best in 35 clusters for 5 generations
USER: GENES 9
USER: genes 0 Translation |==|  0.15043 0.25180 0.72418
USER: genes 1 Rotation |==|  0.78202 0.40250 0.61968 0.88293
USER: genes 2 Torsion [N]-CA--C-[N] |==|  0.48812
USER: genes 3 Torsion [C]-N--CA-[CB] |==|  0.32020
USER: genes 4 Torsion [N]-CA--C-[OXT] |==|  0.98184
USER: genes 5 Torsion [N]-CA--CB-[CG2] |==|  0.77213
USER: genes 6 Torsion [CA]-CB--OG1-[HG1] |==|  0.95905
USER: genes 7 Torsion [N]-C--CA-[N] |==|  0.39723
USER: genes 8 Torsion [C]-CA--N-[H2] |==|  0.23824
ROOT
ATOM      1  C   ALA B   1      -1.653   8.141  24.822  1.00 21.61 LIG 0.25  C 
ATOM      2 O    ALA B   1      -0.647   7.658  25.358  1.00 21.59 LIG-0.27  OA
ATOM      3  N   PRO B   2      -1.595   8.896  23.705  1.00 20.68 LIG-0.34  N 
ATOM      4  CA  PRO B   2      -0.299   9.321  23.168  1.00 19.66 LIG 0.18  C 
ATOM      5  CB  PRO B   2      -0.670   9.989  21.844  1.00 19.68 LIG 0.04  C 
ATOM      6  CG  PRO B   2      -2.094  10.427  22.020  1.00 19.82 LIG 0.02  C 
ATOM      7  CD  PRO B   2      -2.718   9.360  22.867  1.00 21.17 LIG 0.13  C 
ENDROOT
BRANCH 4 8
ATOM      8  C   PRO B   2       0.421  10.306  24.096  1.00 18.80 LIG 0.24  C 
ATOM      9  N   THR B   3       1.643  10.675  23.728  1.00 18.04 LIG-0.34  N 
ATOM     10 H    THR B   3       2.014  10.428  22.992  1.00 18.04 LIG 0.16  HD
ATOM     11 O    PRO B   2      -0.115  10.699  25.137  1.00 18.43 LIG-0.27  OA
BRANCH 9 12
ATOM     12  CA  THR B   3       2.483  11.550  24.559  1.00 16.71 LIG 0.21  C 
BRANCH 12 13
ATOM     13  C   THR B   3       2.866  12.824  23.801  1.00 16.11 LIG 0.20  C 
ATOM     14 OXT  THR B   3       2.578  12.955  22.607  1.00 14.78 LIG-0.65  OA
ATOM     15 O    THR B   3       3.492  13.737  24.370  1.00 14.64 LIG-0.65  OA
ENDBRANCH 12 13
BRANCH 12 16
ATOM     16  CB  THR B   3       3.761  10.826  25.070  1.00 16.70 LIG 0.15  C 
ATOM     17  CG2 THR B   3       3.440   9.989  26.307  1.00 16.85 LIG 0.04  C 
BRANCH 16 18
ATOM     18 OG1  THR B   3       4.399   9.989  23.967  1.00 17.97 LIG-0.39  OA
ATOM     19 HG1  THR B   3       3.854   9.896  23.334  1.00 17.97 LIG 0.21  HD
ENDBRANCH 16 18
ENDBRANCH 12 16
ENDBRANCH 9 12
ENDBRANCH 4 8
BRANCH 1 20
ATOM     20  CA  ALA B   1      -3.041   7.877  25.411  1.00 22.08 LIG 0.27  C 
ATOM     21  CB  ALA B   1      -3.347   8.887  26.485  1.00 22.59 LIG 0.05  C 
BRANCH 20 22
ATOM     22  N   ALA B   1      -3.127   6.494  25.959  1.00 23.15 LIG-0.07  N 
ATOM     23 H3   ALA B   1      -3.975   6.224  25.950  1.00 23.15 LIG 0.28  HD
ATOM     24 H2   ALA B   1      -2.823   6.486  26.795  1.00 23.15 LIG 0.28  HD
ATOM     25 H1   ALA B   1      -2.636   5.946  25.459  1.00 23.15 LIG 0.28  HD
ENDBRANCH 20 22
ENDBRANCH 1 20
TORSDOF 7
ENDMDL
MODEL 22
USER: ADFR SOLUTION from run 186
USER: SCORE 7.417839 LL:  -1.324 LR:  -6.094 RR:   0.000 FEB:  -4.006
USER: RMSD 5.211747
USER: SEED 185
USER: STATUS no improvement in best in 29 clusters for 5 generations
USER: GENES 9
USER: genes 0 Translation |==|  0.15802 0.33645 0.64912
USER: genes 1 Rotation |==|  0.14185 0.49892 0.84094 0.57404
USER: genes 2 Torsion [N]-CA--C-[N] |==|  0.42425
USER: genes 3 Torsion [C]-N--CA-[CB] |==|  0.78868
USER: genes 4 Torsion [N]-CA--C-[OXT] |==|  0.22031
USER: genes 5 Torsion [N]-CA--CB-[CG2] |==|  0.61493
USER: genes 6 Torsion [CA]-CB--OG1-[HG1] |==|  0.29171
USER: genes 7 Torsion [N]-C--CA-[N] |==|  0.83995
USER: genes 8 Torsion [C]-CA--N-[H2] |==|  0.10263
ROOT
ATOM      1  C   ALA B   1      -1.533   9.411  23.696  1.00 21.61 LIG 0.25  C 
ATOM      2 O    ALA B   1      -1.975  10.033  22.721  1.00 21.59 LIG-0.27  OA
ATOM      3  N   PRO B   2      -0.404   9.769  24.342  1.00 20.68 LIG-0.34  N 
ATOM      4  CA  PRO B   2       0.450  10.830  23.800  1.00 19.66 LIG 0.18  C 
ATOM      5  CB  PRO B   2       1.497  11.032  24.896  1.00 19.68 LIG 0.04  C 
ATOM      6  CG  PRO B   2       1.533   9.727  25.637  1.00 19.82 LIG 0.02  C 
ATOM      7  CD  PRO B   2       0.117   9.239  25.617  1.00 21.17 LIG 0.13  C 
ENDROOT
BRANCH 4 8
ATOM      8  C   PRO B   2       1.112  10.427  22.478  1.00 18.80 LIG 0.24  C 
ATOM      9  N   THR B   3       1.419  11.419  21.647  1.00 18.04 LIG-0.34  N 
ATOM     10 H    THR B   3       1.308  12.250  21.836  1.00 18.04 LIG 0.16  HD
ATOM     11 O    PRO B   2       1.313   9.239  22.209  1.00 18.43 LIG-0.27  OA
BRANCH 9 12
ATOM     12  CA  THR B   3       1.984  11.177  20.312  1.00 16.71 LIG 0.21  C 
BRANCH 12 13
ATOM     13  C   THR B   3       1.191  10.100  19.567  1.00 16.11 LIG 0.20  C 
ATOM     14 OXT  THR B   3       0.119  10.377  19.018  1.00 14.78 LIG-0.65  OA
ATOM     15 O    THR B   3       1.603   8.927  19.519  1.00 14.64 LIG-0.65  OA
ENDBRANCH 12 13
BRANCH 12 16
ATOM     16  CB  THR B   3       3.489  10.789  20.371  1.00 16.70 LIG 0.15  C 
ATOM     17  CG2 THR B   3       4.264  11.489  19.256  1.00 16.85 LIG 0.04  C 
BRANCH 16 18
ATOM     18 OG1  THR B   3       4.080  11.084  21.746  1.00 17.97 LIG-0.39  OA
ATOM     19 HG1  THR B   3       4.180  10.364  22.168  1.00 17.97 LIG 0.21  HD
ENDBRANCH 16 18
ENDBRANCH 12 16
ENDBRANCH 9 12
ENDBRANCH 4 8
BRANCH 1 20
ATOM     20  CA  ALA B   1      -2.282   8.188  24.232  1.00 22.08 LIG 0.27  C 
ATOM     21  CB  ALA B   1      -2.800   8.466  25.618  1.00 22.59 LIG 0.05  C 
BRANCH 20 22
ATOM     22  N   ALA B   1      -1.397   6.989  24.240  1.00 23.15 LIG-0.07  N 
ATOM     23 H3   ALA B   1      -1.700   6.400  24.834  1.00 23.15 LIG 0.28  HD
ATOM     24 H2   ALA B   1      -0.570   7.232  24.459  1.00 23.15 LIG 0.28  HD
ATOM     25 H1   ALA B   1      -1.393   6.618  23.431  1.00 23.15 LIG 0.28  HD
ENDBRANCH 20 22
ENDBRANCH 1 20
TORSDOF 7
ENDMDL
MODEL 23
USER: ADFR SOLUTION from run 78
USER: SCORE 7.417063 LL:  -1.323 LR:  -6.094 RR:   0.000 FEB:  -4.006
USER: RMSD 6.961328
USER: SEED 77
USER: STATUS no improvement in best in 18 clusters for 5 generations
USER: GENES 9
USER: genes 0 Translation |==|  0.21579 0.30000 0.77297
USER: genes 1 Rotation |==|  0.96909 0.51608 0.33819 0.55923
USER: genes 2 Torsion [N]-CA--C-[N] |==|  0.51895
USER: genes 3 Torsion [C]-N--CA-[CB] |==|  0.24430
USER: genes 4 Torsion [N]-CA--C-[OXT] |==|  0.82212
USER: genes 5 Torsion [N]-CA--CB-[CG2] |==|  0.44876
USER: genes 6 Torsion [CA]-CB--OG1-[HG1] |==|  0.48612
USER: genes 7 Torsion [N]-C--CA-[N] |==|  0.51041
USER: genes 8 Torsion [C]-CA--N-[H2] |==|  0.83748
ROOT
ATOM      1  C   ALA B   1      -0.623   8.864  25.553  1.00 21.61 LIG 0.25  C 
ATOM      2 O    ALA B   1      -0.190   8.992  24.401  1.00 21.59 LIG-0.27  OA
ATOM      3  N   PRO B   2      -0.470   9.811  26.503  1.00 20.68 LIG-0.34  N 
ATOM      4  CA  PRO B   2       0.378  10.979  26.248  1.00 19.66 LIG 0.18  C 
ATOM      5  CB  PRO B   2       0.143  11.858  27.477  1.00 19.68 LIG 0.04  C 
ATOM      6  CG  PRO B   2      -0.291  10.905  28.552  1.00 19.82 LIG 0.02  C 
ATOM      7  CD  PRO B   2      -1.099   9.866  27.836  1.00 21.17 LIG 0.13  C 
ENDROOT
BRANCH 4 8
ATOM      8  C   PRO B   2       1.859  10.606  26.116  1.00 18.80 LIG 0.24  C 
ATOM      9  N   THR B   3       2.715  11.619  26.024  1.00 18.04 LIG-0.34  N 
ATOM     10 H    THR B   3       2.484  12.445  26.082  1.00 18.04 LIG 0.16  HD
ATOM     11 O    PRO B   2       2.210   9.423  26.071  1.00 18.43 LIG-0.27  OA
BRANCH 9 12
ATOM     12  CA  THR B   3       4.155  11.412  25.813  1.00 16.71 LIG 0.21  C 
BRANCH 12 13
ATOM     13  C   THR B   3       4.973  12.517  26.487  1.00 16.11 LIG 0.20  C 
ATOM     14 OXT  THR B   3       4.872  13.690  26.112  1.00 14.78 LIG-0.65  OA
ATOM     15 O    THR B   3       5.767  12.249  27.407  1.00 14.64 LIG-0.65  OA
ENDBRANCH 12 13
BRANCH 12 16
ATOM     16  CB  THR B   3       4.521  11.321  24.304  1.00 16.70 LIG 0.15  C 
ATOM     17  CG2 THR B   3       6.016  11.565  24.103  1.00 16.85 LIG 0.04  C 
BRANCH 16 18
ATOM     18 OG1  THR B   3       4.077   9.989  23.709  1.00 17.97 LIG-0.39  OA
ATOM     19 HG1  THR B   3       4.223   9.989  22.881  1.00 17.97 LIG 0.21  HD
ENDBRANCH 16 18
ENDBRANCH 12 16
ENDBRANCH 9 12
ENDBRANCH 4 8
BRANCH 1 20
ATOM     20  CA  ALA B   1      -1.388   7.599  25.952  1.00 22.08 LIG 0.27  C 
ATOM     21  CB  ALA B   1      -0.771   6.989  27.183  1.00 22.59 LIG 0.05  C 
BRANCH 20 22
ATOM     22  N   ALA B   1      -1.397   6.614  24.834  1.00 23.15 LIG-0.07  N 
ATOM     23 H3   ALA B   1      -0.562   6.375  24.641  1.00 23.15 LIG 0.28  HD
ATOM     24 H2   ALA B   1      -1.772   6.983  24.116  1.00 23.15 LIG 0.28  HD
ATOM     25 H1   ALA B   1      -1.863   5.895  25.075  1.00 23.15 LIG 0.28  HD
ENDBRANCH 20 22
ENDBRANCH 1 20
TORSDOF 7
ENDMDL
MODEL 24
USER: ADFR SOLUTION from run 190
USER: SCORE 7.364904 LL:  -1.292 LR:  -6.073 RR:   0.000 FEB:  -3.985
USER: RMSD 6.220639
USER: SEED 189
USER: STATUS no improvement in best in 32 clusters for 5 generations
USER: GENES 9
USER: genes 0 Translation |==|  0.14861 0.23025 0.73198
USER: genes 1 Rotation |==|  0.89214 0.50465 0.37067 0.78191
USER: genes 2 Torsion [N]-CA--C-[N] |==|  0.46915
USER: genes 3 Torsion [C]-N--CA-[CB] |==|  0.53347
USER: genes 4 Torsion [N]-CA--C-[OXT] |==|  0.85204
USER: genes 5 Torsion [N]-CA--CB-[CG2] |==|  0.41563
USER: genes 6 Torsion [CA]-CB--OG1-[HG1] |==|  0.83330
USER: genes 7 Torsion [N]-C--CA-[N] |==|  0.37545
USER: genes 8 Torsion [C]-CA--N-[H2] |==|  0.73710
ROOT
ATOM      1  C   ALA B   1      -1.681   7.818  24.939  1.00 21.61 LIG 0.25  C 
ATOM      2 O    ALA B   1      -1.097   7.113  24.106  1.00 21.59 LIG-0.27  OA
ATOM      3  N   PRO B   2      -1.898   9.137  24.758  1.00 20.68 LIG-0.34  N 
ATOM      4  CA  PRO B   2      -1.291   9.835  23.621  1.00 19.66 LIG 0.18  C 
ATOM      5  CB  PRO B   2      -1.914  11.229  23.690  1.00 19.68 LIG 0.04  C 
ATOM      6  CG  PRO B   2      -2.309  11.401  25.128  1.00 19.82 LIG 0.02  C 
ATOM      7  CD  PRO B   2      -2.741  10.036  25.570  1.00 21.17 LIG 0.13  C 
ENDROOT
BRANCH 4 8
ATOM      8  C   PRO B   2       0.236   9.911  23.732  1.00 18.80 LIG 0.24  C 
ATOM      9  N   THR B   3       0.886  10.318  22.647  1.00 18.04 LIG-0.34  N 
ATOM     10 H    THR B   3       0.494  10.577  21.926  1.00 18.04 LIG 0.16  HD
ATOM     11 O    PRO B   2       0.810   9.579  24.774  1.00 18.43 LIG-0.27  OA
BRANCH 9 12
ATOM     12  CA  THR B   3       2.354  10.364  22.581  1.00 16.71 LIG 0.21  C 
BRANCH 12 13
ATOM     13  C   THR B   3       2.942  10.965  23.860  1.00 16.11 LIG 0.20  C 
ATOM     14 OXT  THR B   3       2.557  12.065  24.271  1.00 14.78 LIG-0.65  OA
ATOM     15 O    THR B   3       3.831  10.367  24.493  1.00 14.64 LIG-0.65  OA
ENDBRANCH 12 13
BRANCH 12 16
ATOM     16  CB  THR B   3       2.863  11.147  21.338  1.00 16.70 LIG 0.15  C 
ATOM     17  CG2 THR B   3       4.203  11.815  21.642  1.00 16.85 LIG 0.04  C 
BRANCH 16 18
ATOM     18 OG1  THR B   3       2.943  10.244  20.112  1.00 17.97 LIG-0.39  OA
ATOM     19 HG1  THR B   3       3.473   9.610  20.264  1.00 17.97 LIG 0.21  HD
ENDBRANCH 16 18
ENDBRANCH 12 16
ENDBRANCH 9 12
ENDBRANCH 4 8
BRANCH 1 20
ATOM     20  CA  ALA B   1      -2.212   7.198  26.235  1.00 22.08 LIG 0.27  C 
ATOM     21  CB  ALA B   1      -1.084   6.999  27.211  1.00 22.59 LIG 0.05  C 
BRANCH 20 22
ATOM     22  N   ALA B   1      -2.895   5.903  25.959  1.00 23.15 LIG-0.07  N 
ATOM     23 H3   ALA B   1      -2.571   5.550  25.209  1.00 23.15 LIG 0.28  HD
ATOM     24 H2   ALA B   1      -3.769   6.042  25.867  1.00 23.15 LIG 0.28  HD
ATOM     25 H1   ALA B   1      -2.753   5.342  26.636  1.00 23.15 LIG 0.28  HD
ENDBRANCH 20 22
ENDBRANCH 1 20
TORSDOF 7
ENDMDL
MODEL 25
USER: ADFR SOLUTION from run 52
USER: SCORE 7.722998 LL:  -1.665 LR:  -6.058 RR:   0.000 FEB:  -3.970
USER: RMSD 5.383849
USER: SEED 51
USER: STATUS no improvement in best in 24 clusters for 5 generations
USER: GENES 9
USER: genes 0 Translation |==|  0.16819 0.28798 0.63045
USER: genes 1 Rotation |==|  0.86067 0.55977 0.51618 0.84071
USER: genes 2 Torsion [N]-CA--C-[N] |==|  0.23380
USER: genes 3 Torsion [C]-N--CA-[CB] |==|  0.31042
USER: genes 4 Torsion [N]-CA--C-[OXT] |==|  0.05216
USER: genes 5 Torsion [N]-CA--CB-[CG2] |==|  0.91243
USER: genes 6 Torsion [CA]-CB--OG1-[HG1] |==|  0.02446
USER: genes 7 Torsion [N]-C--CA-[N] |==|  0.41987
USER: genes 8 Torsion [C]-CA--N-[H2] |==|  0.58366
ROOT
ATOM      1  C   ALA B   1      -1.373   8.684  23.416  1.00 21.61 LIG 0.25  C 
ATOM      2 O    ALA B   1      -0.272   8.350  22.959  1.00 21.59 LIG-0.27  OA
ATOM      3  N   PRO B   2      -2.146   9.631  22.844  1.00 20.68 LIG-0.34  N 
ATOM      4  CA  PRO B   2      -1.627  10.434  21.734  1.00 19.66 LIG 0.18  C 
ATOM      5  CB  PRO B   2      -2.846  11.240  21.284  1.00 19.68 LIG 0.04  C 
ATOM      6  CG  PRO B   2      -3.734  11.299  22.492  1.00 19.82 LIG 0.02  C 
ATOM      7  CD  PRO B   2      -3.543   9.977  23.170  1.00 21.17 LIG 0.13  C 
ENDROOT
BRANCH 4 8
ATOM      8  C   PRO B   2      -0.488  11.363  22.169  1.00 18.80 LIG 0.24  C 
ATOM      9  N   THR B   3       0.728  10.827  22.202  1.00 18.04 LIG-0.34  N 
ATOM     10 H    THR B   3       0.901  10.022  21.952  1.00 18.04 LIG 0.16  HD
ATOM     11 O    PRO B   2      -0.716  12.532  22.494  1.00 18.43 LIG-0.27  OA
BRANCH 9 12
ATOM     12  CA  THR B   3       1.902  11.574  22.676  1.00 16.71 LIG 0.21  C 
BRANCH 12 13
ATOM     13  C   THR B   3       3.008  11.589  21.617  1.00 16.11 LIG 0.20  C 
ATOM     14 OXT  THR B   3       2.747  11.339  20.435  1.00 14.78 LIG-0.65  OA
ATOM     15 O    THR B   3       4.186  11.833  21.932  1.00 14.64 LIG-0.65  OA
ENDBRANCH 12 13
BRANCH 12 16
ATOM     16  CB  THR B   3       2.455  11.012  24.018  1.00 16.70 LIG 0.15  C 
ATOM     17  CG2 THR B   3       1.319  10.434  24.861  1.00 16.85 LIG 0.04  C 
BRANCH 16 18
ATOM     18 OG1  THR B   3       3.559   9.989  23.773  1.00 17.97 LIG-0.39  OA
ATOM     19 HG1  THR B   3       3.767   9.989  22.959  1.00 17.97 LIG 0.21  HD
ENDBRANCH 16 18
ENDBRANCH 12 16
ENDBRANCH 9 12
ENDBRANCH 4 8
BRANCH 1 20
ATOM     20  CA  ALA B   1      -1.923   8.003  24.672  1.00 22.08 LIG 0.27  C 
ATOM     21  CB  ALA B   1      -1.567   8.807  25.894  1.00 22.59 LIG 0.05  C 
BRANCH 20 22
ATOM     22  N   ALA B   1      -1.397   6.614  24.792  1.00 23.15 LIG-0.07  N 
ATOM     23 H3   ALA B   1      -1.241   6.284  23.981  1.00 23.15 LIG 0.28  HD
ATOM     24 H2   ALA B   1      -1.996   6.104  25.209  1.00 23.15 LIG 0.28  HD
ATOM     25 H1   ALA B   1      -0.639   6.623  25.259  1.00 23.15 LIG 0.28  HD
ENDBRANCH 20 22
ENDBRANCH 1 20
TORSDOF 7
ENDMDL
MODEL 26
USER: ADFR SOLUTION from run 19
USER: SCORE 7.643465 LL:  -1.583 LR:  -6.061 RR:   0.000 FEB:  -3.973
USER: RMSD 7.370673
USER: SEED 18
USER: STATUS no improvement in best in 26 clusters for 5 generations
USER: GENES 9
USER: genes 0 Translation |==|  0.92199 0.65350 0.48855
USER: genes 1 Rotation |==|  0.20277 0.82023 0.38771 0.71563
USER: genes 2 Torsion [N]-CA--C-[N] |==|  0.84742
USER: genes 3 Torsion [C]-N--CA-[CB] |==|  0.43844
USER: genes 4 Torsion [N]-CA--C-[OXT] |==|  0.92434
USER: genes 5 Torsion [N]-CA--CB-[CG2] |==|  0.29497
USER: genes 6 Torsion [CA]-CB--OG1-[HG1] |==|  0.71623
USER: genes 7 Torsion [N]-C--CA-[N] |==|  0.25711
USER: genes 8 Torsion [C]-CA--N-[H2] |==|  0.97216
ROOT
ATOM      1  C   ALA B   1      10.499  14.166  21.287  1.00 21.61 LIG 0.25  C 
ATOM      2 O    ALA B   1      11.232  13.241  20.916  1.00 21.59 LIG-0.27  OA
ATOM      3  N   PRO B   2      10.005  14.252  22.540  1.00 20.68 LIG-0.34  N 
ATOM      4  CA  PRO B   2      10.185  13.142  23.480  1.00 19.66 LIG 0.18  C 
ATOM      5  CB  PRO B   2       9.644  13.704  24.795  1.00 19.68 LIG 0.04  C 
ATOM      6  CG  PRO B   2       8.684  14.782  24.385  1.00 19.82 LIG 0.02  C 
ATOM      7  CD  PRO B   2       9.293  15.388  23.157  1.00 21.17 LIG 0.13  C 
ENDROOT
BRANCH 4 8
ATOM      8  C   PRO B   2       9.408  11.890  23.059  1.00 18.80 LIG 0.24  C 
ATOM      9  N   THR B   3       8.104  12.048  22.856  1.00 18.04 LIG-0.34  N 
ATOM     10 H    THR B   3       7.702  12.807  22.904  1.00 18.04 LIG 0.16  HD
ATOM     11 O    PRO B   2       9.978  10.800  22.949  1.00 18.43 LIG-0.27  OA
BRANCH 9 12
ATOM     12  CA  THR B   3       7.219  10.921  22.527  1.00 16.71 LIG 0.21  C 
BRANCH 12 13
ATOM     13  C   THR B   3       7.349  10.533  21.051  1.00 16.11 LIG 0.20  C 
ATOM     14 OXT  THR B   3       7.688  11.371  20.210  1.00 14.78 LIG-0.65  OA
ATOM     15 O    THR B   3       7.096   9.374  20.674  1.00 14.64 LIG-0.65  OA
ENDBRANCH 12 13
BRANCH 12 16
ATOM     16  CB  THR B   3       5.732  11.221  22.871  1.00 16.70 LIG 0.15  C 
ATOM     17  CG2 THR B   3       4.931  11.478  21.596  1.00 16.85 LIG 0.04  C 
BRANCH 16 18
ATOM     18 OG1  THR B   3       5.124  10.101  23.709  1.00 17.97 LIG-0.39  OA
ATOM     19 HG1  THR B   3       4.643   9.614  23.221  1.00 17.97 LIG 0.21  HD
ENDBRANCH 16 18
ENDBRANCH 12 16
ENDBRANCH 9 12
ENDBRANCH 4 8
BRANCH 1 20
ATOM     20  CA  ALA B   1      10.130  15.292  20.317  1.00 22.08 LIG 0.27  C 
ATOM     21  CB  ALA B   1       9.968  14.741  18.925  1.00 22.59 LIG 0.05  C 
BRANCH 20 22
ATOM     22  N   ALA B   1      11.164  16.364  20.334  1.00 23.15 LIG-0.07  N 
ATOM     23 H3   ALA B   1      11.613  16.356  19.566  1.00 23.15 LIG 0.28  HD
ATOM     24 H2   ALA B   1      11.728  16.222  21.008  1.00 23.15 LIG 0.28  HD
ATOM     25 H1   ALA B   1      10.770  17.155  20.439  1.00 23.15 LIG 0.28  HD
ENDBRANCH 20 22
ENDBRANCH 1 20
TORSDOF 7
ENDMDL
MODEL 27
USER: ADFR SOLUTION from run 74
USER: SCORE 7.715618 LL:  -1.689 LR:  -6.026 RR:   0.000 FEB:  -3.938
USER: RMSD 6.409549
USER: SEED 73
USER: STATUS no improvement in best in 27 clusters for 5 generations
USER: GENES 9
USER: genes 0 Translation |==|  0.89097 0.60688 0.52319
USER: genes 1 Rotation |==|  0.28608 0.72731 0.33104 0.85217
USER: genes 2 Torsion [N]-CA--C-[N] |==|  0.88179
USER: genes 3 Torsion [C]-N--CA-[CB] |==|  0.25078
USER: genes 4 Torsion [N]-CA--C-[OXT] |==|  0.44647
USER: genes 5 Torsion [N]-CA--CB-[CG2] |==|  0.15775
USER: genes 6 Torsion [CA]-CB--OG1-[HG1] |==|  0.75445
USER: genes 7 Torsion [N]-C--CA-[N] |==|  0.28139
USER: genes 8 Torsion [C]-CA--N-[H2] |==|  0.78381
ROOT
ATOM      1  C   ALA B   1      10.011  13.467  21.807  1.00 21.61 LIG 0.25  C 
ATOM      2 O    ALA B   1      10.907  12.614  21.839  1.00 21.59 LIG-0.27  OA
ATOM      3  N   PRO B   2       8.806  13.285  22.386  1.00 20.68 LIG-0.34  N 
ATOM      4  CA  PRO B   2       8.446  11.978  22.943  1.00 19.66 LIG 0.18  C 
ATOM      5  CB  PRO B   2       7.109  12.248  23.636  1.00 19.68 LIG 0.04  C 
ATOM      6  CG  PRO B   2       6.545  13.444  22.927  1.00 19.82 LIG 0.02  C 
ATOM      7  CD  PRO B   2       7.738  14.284  22.588  1.00 21.17 LIG 0.13  C 
ENDROOT
BRANCH 4 8
ATOM      8  C   PRO B   2       8.294  10.905  21.859  1.00 18.80 LIG 0.24  C 
ATOM      9  N   THR B   3       7.652  11.271  20.754  1.00 18.04 LIG-0.34  N 
ATOM     10 H    THR B   3       7.371  12.071  20.610  1.00 18.04 LIG 0.16  HD
ATOM     11 O    PRO B   2       8.728   9.763  22.038  1.00 18.43 LIG-0.27  OA
BRANCH 9 12
ATOM     12  CA  THR B   3       7.363  10.326  19.666  1.00 16.71 LIG 0.21  C 
BRANCH 12 13
ATOM     13  C   THR B   3       7.422  11.023  18.303  1.00 16.11 LIG 0.20  C 
ATOM     14 OXT  THR B   3       7.562  10.364  17.268  1.00 14.78 LIG-0.65  OA
ATOM     15 O    THR B   3       7.353  12.263  18.220  1.00 14.64 LIG-0.65  OA
ENDBRANCH 12 13
BRANCH 12 16
ATOM     16  CB  THR B   3       5.987   9.624  19.847  1.00 16.70 LIG 0.15  C 
ATOM     17  CG2 THR B   3       4.870  10.660  19.954  1.00 16.85 LIG 0.04  C 
BRANCH 16 18
ATOM     18 OG1  THR B   3       5.728   8.621  18.728  1.00 17.97 LIG-0.39  OA
ATOM     19 HG1  THR B   3       5.353   9.010  18.084  1.00 17.97 LIG 0.21  HD
ENDBRANCH 16 18
ENDBRANCH 12 16
ENDBRANCH 9 12
ENDBRANCH 4 8
BRANCH 1 20
ATOM     20  CA  ALA B   1      10.249  14.807  21.105  1.00 22.08 LIG 0.27  C 
ATOM     21  CB  ALA B   1      10.929  14.583  19.781  1.00 22.59 LIG 0.05  C 
BRANCH 20 22
ATOM     22  N   ALA B   1      11.064  15.714  21.961  1.00 23.15 LIG-0.07  N 
ATOM     23 H3   ALA B   1      11.723  15.251  22.340  1.00 23.15 LIG 0.28  HD
ATOM     24 H2   ALA B   1      10.548  16.068  22.593  1.00 23.15 LIG 0.28  HD
ATOM     25 H1   ALA B   1      11.409  16.364  21.460  1.00 23.15 LIG 0.28  HD
ENDBRANCH 20 22
ENDBRANCH 1 20
TORSDOF 7
ENDMDL
MODEL 28
USER: ADFR SOLUTION from run 122
USER: SCORE 7.740132 LL:  -1.815 LR:  -5.925 RR:   0.000 FEB:  -3.837
USER: RMSD 4.956366
USER: SEED 121
USER: STATUS no improvement in best in 31 clusters for 5 generations
USER: GENES 9
USER: genes 0 Translation |==|  0.20027 0.33776 0.62371
USER: genes 1 Rotation |==|  0.89528 0.44796 0.40921 0.78775
USER: genes 2 Torsion [N]-CA--C-[N] |==|  0.81244
USER: genes 3 Torsion [C]-N--CA-[CB] |==|  0.81385
USER: genes 4 Torsion [N]-CA--C-[OXT] |==|  0.10379
USER: genes 5 Torsion [N]-CA--CB-[CG2] |==|  0.90244
USER: genes 6 Torsion [CA]-CB--OG1-[HG1] |==|  0.88760
USER: genes 7 Torsion [N]-C--CA-[N] |==|  0.36720
USER: genes 8 Torsion [C]-CA--N-[H2] |==|  0.61803
ROOT
ATOM      1  C   ALA B   1      -0.868   9.430  23.315  1.00 21.61 LIG 0.25  C 
ATOM      2 O    ALA B   1      -0.164   8.620  22.698  1.00 21.59 LIG-0.27  OA
ATOM      3  N   PRO B   2      -0.910  10.744  23.010  1.00 20.68 LIG-0.34  N 
ATOM      4  CA  PRO B   2       0.022  11.302  22.025  1.00 19.66 LIG 0.18  C 
ATOM      5  CB  PRO B   2      -0.467  12.741  21.855  1.00 19.68 LIG 0.04  C 
ATOM      6  CG  PRO B   2      -1.187  13.055  23.134  1.00 19.82 LIG 0.02  C 
ATOM      7  CD  PRO B   2      -1.840  11.765  23.530  1.00 21.17 LIG 0.13  C 
ENDROOT
BRANCH 4 8
ATOM      8  C   PRO B   2       1.474  11.271  22.514  1.00 18.80 LIG 0.24  C 
ATOM      9  N   THR B   3       1.768  12.067  23.537  1.00 18.04 LIG-0.34  N 
ATOM     10 H    THR B   3       1.185  12.546  23.951  1.00 18.04 LIG 0.16  HD
ATOM     11 O    PRO B   2       2.314  10.559  21.954  1.00 18.43 LIG-0.27  OA
BRANCH 9 12
ATOM     12  CA  THR B   3       3.135  12.202  24.060  1.00 16.71 LIG 0.21  C 
BRANCH 12 13
ATOM     13  C   THR B   3       4.104  12.642  22.959  1.00 16.11 LIG 0.20  C 
ATOM     14 OXT  THR B   3       3.746  13.451  22.097  1.00 14.78 LIG-0.65  OA
ATOM     15 O    THR B   3       5.256  12.176  22.903  1.00 14.64 LIG-0.65  OA
ENDBRANCH 12 13
BRANCH 12 16
ATOM     16  CB  THR B   3       3.642  10.890  24.725  1.00 16.70 LIG 0.15  C 
ATOM     17  CG2 THR B   3       2.493  10.173  25.432  1.00 16.85 LIG 0.04  C 
BRANCH 16 18
ATOM     18 OG1  THR B   3       4.335   9.989  23.709  1.00 17.97 LIG-0.39  OA
ATOM     19 HG1  THR B   3       3.909  10.003  22.985  1.00 17.97 LIG 0.21  HD
ENDBRANCH 16 18
ENDBRANCH 12 16
ENDBRANCH 9 12
ENDBRANCH 4 8
BRANCH 1 20
ATOM     20  CA  ALA B   1      -1.757   8.956  24.468  1.00 22.08 LIG 0.27  C 
ATOM     21  CB  ALA B   1      -0.918   8.681  25.687  1.00 22.59 LIG 0.05  C 
BRANCH 20 22
ATOM     22  N   ALA B   1      -2.522   7.739  24.077  1.00 23.15 LIG-0.07  N 
ATOM     23 H3   ALA B   1      -2.522   7.659  23.191  1.00 23.15 LIG 0.28  HD
ATOM     24 H2   ALA B   1      -3.360   7.809  24.368  1.00 23.15 LIG 0.28  HD
ATOM     25 H1   ALA B   1      -2.142   7.020  24.439  1.00 23.15 LIG 0.28  HD
ENDBRANCH 20 22
ENDBRANCH 1 20
TORSDOF 7
ENDMDL
MODEL 29
USER: ADFR SOLUTION from run 172
USER: SCORE 7.298843 LL:  -1.382 LR:  -5.916 RR:   0.000 FEB:  -3.828
USER: RMSD 6.301610
USER: SEED 171
USER: STATUS no improvement in best in 30 clusters for 5 generations
USER: GENES 9
USER: genes 0 Translation |==|  0.13552 0.22511 0.69812
USER: genes 1 Rotation |==|  0.83522 0.57535 0.43216 0.85686
USER: genes 2 Torsion [N]-CA--C-[N] |==|  0.50225
USER: genes 3 Torsion [C]-N--CA-[CB] |==|  0.17639
USER: genes 4 Torsion [N]-CA--C-[OXT] |==|  0.93329
USER: genes 5 Torsion [N]-CA--CB-[CG2] |==|  0.28052
USER: genes 6 Torsion [CA]-CB--OG1-[HG1] |==|  0.51104
USER: genes 7 Torsion [N]-C--CA-[N] |==|  0.29221
USER: genes 8 Torsion [C]-CA--N-[H2] |==|  0.08442
ROOT
ATOM      1  C   ALA B   1      -1.888   7.741  24.431  1.00 21.61 LIG 0.25  C 
ATOM      2 O    ALA B   1      -1.024   7.144  23.775  1.00 21.59 LIG-0.27  OA
ATOM      3  N   PRO B   2      -2.640   8.735  23.916  1.00 20.68 LIG-0.34  N 
ATOM      4  CA  PRO B   2      -2.343   9.270  22.584  1.00 19.66 LIG 0.18  C 
ATOM      5  CB  PRO B   2      -3.505  10.229  22.323  1.00 19.68 LIG 0.04  C 
ATOM      6  CG  PRO B   2      -3.995  10.617  23.688  1.00 19.82 LIG 0.02  C 
ATOM      7  CD  PRO B   2      -3.820   9.384  24.520  1.00 21.17 LIG 0.13  C 
ENDROOT
BRANCH 4 8
ATOM      8  C   PRO B   2      -1.002  10.011  22.540  1.00 18.80 LIG 0.24  C 
ATOM      9  N   THR B   3      -0.662  10.543  21.370  1.00 18.04 LIG-0.34  N 
ATOM     10 H    THR B   3      -1.168  10.530  20.675  1.00 18.04 LIG 0.16  HD
ATOM     11 O    PRO B   2      -0.281  10.071  23.541  1.00 18.43 LIG-0.27  OA
BRANCH 9 12
ATOM     12  CA  THR B   3       0.630  11.212  21.159  1.00 16.71 LIG 0.21  C 
BRANCH 12 13
ATOM     13  C   THR B   3       0.683  11.882  19.783  1.00 16.11 LIG 0.20  C 
ATOM     14 OXT  THR B   3      -0.038  11.482  18.863  1.00 14.78 LIG-0.65  OA
ATOM     15 O    THR B   3       1.466  12.825  19.565  1.00 14.64 LIG-0.65  OA
ENDBRANCH 12 13
BRANCH 12 16
ATOM     16  CB  THR B   3       1.831  10.237  21.325  1.00 16.70 LIG 0.15  C 
ATOM     17  CG2 THR B   3       2.352   9.796  19.958  1.00 16.85 LIG 0.04  C 
BRANCH 16 18
ATOM     18 OG1  THR B   3       2.931  10.859  22.179  1.00 17.97 LIG-0.39  OA
ATOM     19 HG1  THR B   3       3.590  10.338  22.211  1.00 17.97 LIG 0.21  HD
ENDBRANCH 16 18
ENDBRANCH 12 16
ENDBRANCH 9 12
ENDBRANCH 4 8
BRANCH 1 20
ATOM     20  CA  ALA B   1      -2.155   7.350  25.887  1.00 22.08 LIG 0.27  C 
ATOM     21  CB  ALA B   1      -0.857   7.252  26.642  1.00 22.59 LIG 0.05  C 
BRANCH 20 22
ATOM     22  N   ALA B   1      -2.897   6.060  25.959  1.00 23.15 LIG-0.07  N 
ATOM     23 H3   ALA B   1      -2.683   5.636  26.712  1.00 23.15 LIG 0.28  HD
ATOM     24 H2   ALA B   1      -2.677   5.552  25.262  1.00 23.15 LIG 0.28  HD
ATOM     25 H1   ALA B   1      -3.772   6.219  25.946  1.00 23.15 LIG 0.28  HD
ENDBRANCH 20 22
ENDBRANCH 1 20
TORSDOF 7
ENDMDL
MODEL 30
USER: ADFR SOLUTION from run 43
USER: SCORE 7.241373 LL:  -1.324 LR:  -5.917 RR:   0.000 FEB:  -3.829
USER: RMSD 6.301509
USER: SEED 42
USER: STATUS no improvement in best in 28 clusters for 5 generations
USER: GENES 9
USER: genes 0 Translation |==|  0.64148 0.44406 0.49712
USER: genes 1 Rotation |==|  0.09310 0.57848 0.23424 0.58744
USER: genes 2 Torsion [N]-CA--C-[N] |==|  0.54947
USER: genes 3 Torsion [C]-N--CA-[CB] |==|  0.45132
USER: genes 4 Torsion [N]-CA--C-[OXT] |==|  0.93087
USER: genes 5 Torsion [N]-CA--CB-[CG2] |==|  0.29188
USER: genes 6 Torsion [CA]-CB--OG1-[HG1] |==|  0.92912
USER: genes 7 Torsion [N]-C--CA-[N] |==|  0.86166
USER: genes 8 Torsion [C]-CA--N-[H2] |==|  0.72887
ROOT
ATOM      1  C   ALA B   1       6.081  11.025  21.416  1.00 21.61 LIG 0.25  C 
ATOM      2 O    ALA B   1       7.047  10.896  22.179  1.00 21.59 LIG-0.27  OA
ATOM      3  N   PRO B   2       4.984  11.741  21.738  1.00 20.68 LIG-0.34  N 
ATOM      4  CA  PRO B   2       4.819  12.265  23.097  1.00 19.66 LIG 0.18  C 
ATOM      5  CB  PRO B   2       3.566  13.134  22.988  1.00 19.68 LIG 0.04  C 
ATOM      6  CG  PRO B   2       2.807  12.570  21.823  1.00 19.82 LIG 0.02  C 
ATOM      7  CD  PRO B   2       3.866  12.130  20.857  1.00 21.17 LIG 0.13  C 
ENDROOT
BRANCH 4 8
ATOM      8  C   PRO B   2       4.624  11.150  24.131  1.00 18.80 LIG 0.24  C 
ATOM      9  N   THR B   3       4.110  11.516  25.301  1.00 18.04 LIG-0.34  N 
ATOM     10 H    THR B   3       3.848  12.316  25.477  1.00 18.04 LIG 0.16  HD
ATOM     11 O    PRO B   2       4.961   9.989  23.879  1.00 18.43 LIG-0.27  OA
BRANCH 9 12
ATOM     12  CA  THR B   3       3.942  10.571  26.415  1.00 16.71 LIG 0.21  C 
BRANCH 12 13
ATOM     13  C   THR B   3       2.776   9.614  26.152  1.00 16.11 LIG 0.20  C 
ATOM     14 OXT  THR B   3       1.854   9.942  25.398  1.00 14.78 LIG-0.65  OA
ATOM     15 O    THR B   3       2.728   8.502  26.709  1.00 14.64 LIG-0.65  OA
ENDBRANCH 12 13
BRANCH 12 16
ATOM     16  CB  THR B   3       3.742  11.296  27.776  1.00 16.70 LIG 0.15  C 
ATOM     17  CG2 THR B   3       2.280  11.219  28.211  1.00 16.85 LIG 0.04  C 
BRANCH 16 18
ATOM     18 OG1  THR B   3       4.682  10.739  28.840  1.00 17.97 LIG-0.39  OA
ATOM     19 HG1  THR B   3       4.888   9.948  28.646  1.00 17.97 LIG 0.21  HD
ENDBRANCH 16 18
ENDBRANCH 12 16
ENDBRANCH 9 12
ENDBRANCH 4 8
BRANCH 1 20
ATOM     20  CA  ALA B   1       6.104  10.374  20.030  1.00 22.08 LIG 0.27  C 
ATOM     21  CB  ALA B   1       6.300  11.424  18.969  1.00 22.59 LIG 0.05  C 
BRANCH 20 22
ATOM     22  N   ALA B   1       4.845   9.616  19.783  1.00 23.15 LIG-0.07  N 
ATOM     23 H3   ALA B   1       4.201   9.929  20.311  1.00 23.15 LIG 0.28  HD
ATOM     24 H2   ALA B   1       4.978   8.754  19.959  1.00 23.15 LIG 0.28  HD
ATOM     25 H1   ALA B   1       4.603   9.711  18.932  1.00 23.15 LIG 0.28  HD
ENDBRANCH 20 22
ENDBRANCH 1 20
TORSDOF 7
ENDMDL
MODEL 31
USER: ADFR SOLUTION from run 104
USER: SCORE 7.352980 LL:  -1.449 LR:  -5.904 RR:   0.000 FEB:  -3.816
USER: RMSD 5.914109
USER: SEED 103
USER: STATUS no improvement in best in 26 clusters for 5 generations
USER: GENES 9
USER: genes 0 Translation |==|  0.20105 0.34717 0.64499
USER: genes 1 Rotation |==|  0.93177 0.37630 0.42580 0.70681
USER: genes 2 Torsion [N]-CA--C-[N] |==|  0.78806
USER: genes 3 Torsion [C]-N--CA-[CB] |==|  0.80665
USER: genes 4 Torsion [N]-CA--C-[OXT] |==|  0.77715
USER: genes 5 Torsion [N]-CA--CB-[CG2] |==|  0.63634
USER: genes 6 Torsion [CA]-CB--OG1-[HG1] |==|  0.92707
USER: genes 7 Torsion [N]-C--CA-[N] |==|  0.45788
USER: genes 8 Torsion [C]-CA--N-[H2] |==|  0.86418
ROOT
ATOM      1  C   ALA B   1      -0.855   9.571  23.634  1.00 21.61 LIG 0.25  C 
ATOM      2 O    ALA B   1      -0.163   8.777  22.985  1.00 21.59 LIG-0.27  OA
ATOM      3  N   PRO B   2      -0.557  10.883  23.744  1.00 20.68 LIG-0.34  N 
ATOM      4  CA  PRO B   2       0.716  11.395  23.228  1.00 19.66 LIG 0.18  C 
ATOM      5  CB  PRO B   2       0.579  12.908  23.396  1.00 19.68 LIG 0.04  C 
ATOM      6  CG  PRO B   2      -0.422  13.083  24.500  1.00 19.82 LIG 0.02  C 
ATOM      7  CD  PRO B   2      -1.393  11.957  24.315  1.00 21.17 LIG 0.13  C 
ENDROOT
BRANCH 4 8
ATOM      8  C   PRO B   2       1.919  10.863  24.015  1.00 18.80 LIG 0.24  C 
ATOM      9  N   THR B   3       2.136  11.416  25.204  1.00 18.04 LIG-0.34  N 
ATOM     10 H    THR B   3       1.618  12.005  25.557  1.00 18.04 LIG 0.16  HD
ATOM     11 O    PRO B   2       2.649   9.989  23.537  1.00 18.43 LIG-0.27  OA
BRANCH 9 12
ATOM     12  CA  THR B   3       3.297  11.063  26.034  1.00 16.71 LIG 0.21  C 
BRANCH 12 13
ATOM     13  C   THR B   3       4.603  11.234  25.253  1.00 16.11 LIG 0.20  C 
ATOM     14 OXT  THR B   3       4.977  10.364  24.459  1.00 14.78 LIG-0.65  OA
ATOM     15 O    THR B   3       5.317  12.239  25.420  1.00 14.64 LIG-0.65  OA
ENDBRANCH 12 13
BRANCH 12 16
ATOM     16  CB  THR B   3       3.198   9.618  26.601  1.00 16.70 LIG 0.15  C 
ATOM     17  CG2 THR B   3       3.478   9.615  28.103  1.00 16.85 LIG 0.04  C 
BRANCH 16 18
ATOM     18 OG1  THR B   3       1.848   8.989  26.272  1.00 17.97 LIG-0.39  OA
ATOM     19 HG1  THR B   3       1.273   9.594  26.174  1.00 17.97 LIG 0.21  HD
ENDBRANCH 16 18
ENDBRANCH 12 16
ENDBRANCH 9 12
ENDBRANCH 4 8
BRANCH 1 20
ATOM     20  CA  ALA B   1      -2.124   9.086  24.341  1.00 22.08 LIG 0.27  C 
ATOM     21  CB  ALA B   1      -1.905   9.053  25.830  1.00 22.59 LIG 0.05  C 
BRANCH 20 22
ATOM     22  N   ALA B   1      -2.522   7.739  23.844  1.00 23.15 LIG-0.07  N 
ATOM     23 H3   ALA B   1      -1.944   7.131  24.140  1.00 23.15 LIG 0.28  HD
ATOM     24 H2   ALA B   1      -2.522   7.739  22.954  1.00 23.15 LIG 0.28  HD
ATOM     25 H1   ALA B   1      -3.338   7.542  24.141  1.00 23.15 LIG 0.28  HD
ENDBRANCH 20 22
ENDBRANCH 1 20
TORSDOF 7
ENDMDL
MODEL 32
USER: ADFR SOLUTION from run 26
USER: SCORE 7.239811 LL:  -1.380 LR:  -5.859 RR:   0.000 FEB:  -3.771
USER: RMSD 6.756020
USER: SEED 25
USER: STATUS no improvement in best in 30 clusters for 5 generations
USER: GENES 9
USER: genes 0 Translation |==|  0.16668 0.27556 0.81824
USER: genes 1 Rotation |==|  0.15229 0.44918 0.84204 0.59760
USER: genes 2 Torsion [N]-CA--C-[N] |==|  0.63245
USER: genes 3 Torsion [C]-N--CA-[CB] |==|  0.16294
USER: genes 4 Torsion [N]-CA--C-[OXT] |==|  0.41552
USER: genes 5 Torsion [N]-CA--CB-[CG2] |==|  0.22764
USER: genes 6 Torsion [CA]-CB--OG1-[HG1] |==|  0.96876
USER: genes 7 Torsion [N]-C--CA-[N] |==|  0.50936
USER: genes 8 Torsion [C]-CA--N-[H2] |==|  0.21059
ROOT
ATOM      1  C   ALA B   1      -1.397   8.497  26.233  1.00 21.61 LIG 0.25  C 
ATOM      2 O    ALA B   1      -1.897   9.272  25.406  1.00 21.59 LIG-0.27  OA
ATOM      3  N   PRO B   2      -0.292   8.801  26.946  1.00 20.68 LIG-0.34  N 
ATOM      4  CA  PRO B   2       0.470  10.016  26.642  1.00 19.66 LIG 0.18  C 
ATOM      5  CB  PRO B   2       1.509  10.067  27.762  1.00 19.68 LIG 0.04  C 
ATOM      6  CG  PRO B   2       1.656   8.644  28.215  1.00 19.82 LIG 0.02  C 
ATOM      7  CD  PRO B   2       0.282   8.060  28.085  1.00 21.17 LIG 0.13  C 
ENDROOT
BRANCH 4 8
ATOM      8  C   PRO B   2       1.147   9.950  25.268  1.00 18.80 LIG 0.24  C 
ATOM      9  N   THR B   3       2.429  10.301  25.227  1.00 18.04 LIG-0.34  N 
ATOM     10 H    THR B   3       2.888  10.511  25.923  1.00 18.04 LIG 0.16  HD
ATOM     11 O    PRO B   2       0.510   9.614  24.266  1.00 18.43 LIG-0.27  OA
BRANCH 9 12
ATOM     12  CA  THR B   3       3.185  10.364  23.968  1.00 16.71 LIG 0.21  C 
BRANCH 12 13
ATOM     13  C   THR B   3       4.647  10.739  24.223  1.00 16.11 LIG 0.20  C 
ATOM     14 OXT  THR B   3       5.540  10.326  23.475  1.00 14.78 LIG-0.65  OA
ATOM     15 O    THR B   3       4.961  11.446  25.197  1.00 14.64 LIG-0.65  OA
ENDBRANCH 12 13
BRANCH 12 16
ATOM     16  CB  THR B   3       2.549  11.353  22.949  1.00 16.70 LIG 0.15  C 
ATOM     17  CG2 THR B   3       2.978  12.786  23.259  1.00 16.85 LIG 0.04  C 
BRANCH 16 18
ATOM     18 OG1  THR B   3       2.884  10.957  21.515  1.00 17.97 LIG-0.39  OA
ATOM     19 HG1  THR B   3       3.479  10.364  21.519  1.00 17.97 LIG 0.21  HD
ENDBRANCH 16 18
ENDBRANCH 12 16
ENDBRANCH 9 12
ENDBRANCH 4 8
BRANCH 1 20
ATOM     20  CA  ALA B   1      -2.042   7.134  26.498  1.00 22.08 LIG 0.27  C 
ATOM     21  CB  ALA B   1      -1.022   6.039  26.334  1.00 22.59 LIG 0.05  C 
BRANCH 20 22
ATOM     22  N   ALA B   1      -3.197   6.910  25.584  1.00 23.15 LIG-0.07  N 
ATOM     23 H3   ALA B   1      -3.693   6.239  25.892  1.00 23.15 LIG 0.28  HD
ATOM     24 H2   ALA B   1      -2.897   6.708  24.771  1.00 23.15 LIG 0.28  HD
ATOM     25 H1   ALA B   1      -3.691   7.649  25.543  1.00 23.15 LIG 0.28  HD
ENDBRANCH 20 22
ENDBRANCH 1 20
TORSDOF 7
ENDMDL
MODEL 33
USER: ADFR SOLUTION from run 176
USER: SCORE 7.254622 LL:  -1.423 LR:  -5.832 RR:   0.000 FEB:  -3.744
USER: RMSD 7.487942
USER: SEED 175
USER: STATUS no improvement in best in 30 clusters for 5 generations
USER: GENES 9
USER: genes 0 Translation |==|  0.88129 0.65110 0.31906
USER: genes 1 Rotation |==|  0.47637 0.19638 0.10889 0.56548
USER: genes 2 Torsion [N]-CA--C-[N] |==|  0.17788
USER: genes 3 Torsion [C]-N--CA-[CB] |==|  0.08405
USER: genes 4 Torsion [N]-CA--C-[OXT] |==|  0.91040
USER: genes 5 Torsion [N]-CA--CB-[CG2] |==|  0.34790
USER: genes 6 Torsion [CA]-CB--OG1-[HG1] |==|  0.95899
USER: genes 7 Torsion [N]-C--CA-[N] |==|  0.35461
USER: genes 8 Torsion [C]-CA--N-[H2] |==|  0.51663
ROOT
ATOM      1  C   ALA B   1       9.858  14.131  18.745  1.00 21.61 LIG 0.25  C 
ATOM      2 O    ALA B   1       8.723  14.610  18.862  1.00 21.59 LIG-0.27  OA
ATOM      3  N   PRO B   2      10.222  13.356  17.702  1.00 20.68 LIG-0.34  N 
ATOM      4  CA  PRO B   2       9.218  12.905  16.734  1.00 19.66 LIG 0.18  C 
ATOM      5  CB  PRO B   2      10.054  12.219  15.653  1.00 19.68 LIG 0.04  C 
ATOM      6  CG  PRO B   2      11.316  11.802  16.352  1.00 19.82 LIG 0.02  C 
ATOM      7  CD  PRO B   2      11.577  12.892  17.347  1.00 21.17 LIG 0.13  C 
ENDROOT
BRANCH 4 8
ATOM      8  C   PRO B   2       8.212  11.926  17.351  1.00 18.80 LIG 0.24  C 
ATOM      9  N   THR B   3       7.440  12.409  18.319  1.00 18.04 LIG-0.34  N 
ATOM     10 H    THR B   3       7.449  13.231  18.571  1.00 18.04 LIG 0.16  HD
ATOM     11 O    PRO B   2       8.160  10.752  16.972  1.00 18.43 LIG-0.27  OA
BRANCH 9 12
ATOM     12  CA  THR B   3       6.487  11.566  19.056  1.00 16.71 LIG 0.21  C 
BRANCH 12 13
ATOM     13  C   THR B   3       6.219  12.132  20.453  1.00 16.11 LIG 0.20  C 
ATOM     14 OXT  THR B   3       7.105  12.738  21.065  1.00 14.78 LIG-0.65  OA
ATOM     15 O    THR B   3       5.113  11.973  21.002  1.00 14.64 LIG-0.65  OA
ENDBRANCH 12 13
BRANCH 12 16
ATOM     16  CB  THR B   3       6.966  10.089  19.160  1.00 16.70 LIG 0.15  C 
ATOM     17  CG2 THR B   3       6.999   9.643  20.621  1.00 16.85 LIG 0.04  C 
BRANCH 16 18
ATOM     18 OG1  THR B   3       6.103   9.169  18.304  1.00 17.97 LIG-0.39  OA
ATOM     19 HG1  THR B   3       5.400   9.570  18.081  1.00 17.97 LIG 0.21  HD
ENDBRANCH 16 18
ENDBRANCH 12 16
ENDBRANCH 9 12
ENDBRANCH 4 8
BRANCH 1 20
ATOM     20  CA  ALA B   1      10.929  14.423  19.799  1.00 22.08 LIG 0.27  C 
ATOM     21  CB  ALA B   1      10.603  13.703  21.080  1.00 22.59 LIG 0.05  C 
BRANCH 20 22
ATOM     22  N   ALA B   1      11.045  15.888  20.042  1.00 23.15 LIG-0.07  N 
ATOM     23 H3   ALA B   1      11.184  16.307  19.269  1.00 23.15 LIG 0.28  HD
ATOM     24 H2   ALA B   1      11.728  16.046  20.590  1.00 23.15 LIG 0.28  HD
ATOM     25 H1   ALA B   1      10.293  16.189  20.411  1.00 23.15 LIG 0.28  HD
ENDBRANCH 20 22
ENDBRANCH 1 20
TORSDOF 7
ENDMDL
MODEL 34
USER: ADFR SOLUTION from run 30
USER: SCORE 7.487289 LL:  -1.670 LR:  -5.818 RR:   0.000 FEB:  -3.730
USER: RMSD 6.392692
USER: SEED 29
USER: STATUS no improvement in best in 26 clusters for 5 generations
USER: GENES 9
USER: genes 0 Translation |==|  0.68292 0.43944 0.32018
USER: genes 1 Rotation |==|  0.86070 0.40707 0.45158 0.83002
USER: genes 2 Torsion [N]-CA--C-[N] |==|  0.89816
USER: genes 3 Torsion [C]-N--CA-[CB] |==|  0.26545
USER: genes 4 Torsion [N]-CA--C-[OXT] |==|  0.54266
USER: genes 5 Torsion [N]-CA--CB-[CG2] |==|  0.98294
USER: genes 6 Torsion [CA]-CB--OG1-[HG1] |==|  0.26350
USER: genes 7 Torsion [N]-C--CA-[N] |==|  0.36188
USER: genes 8 Torsion [C]-CA--N-[H2] |==|  0.22814
ROOT
ATOM      1  C   ALA B   1       6.734  10.956  18.762  1.00 21.61 LIG 0.25  C 
ATOM      2 O    ALA B   1       7.505  10.019  18.514  1.00 21.59 LIG-0.27  OA
ATOM      3  N   PRO B   2       6.800  12.145  18.128  1.00 20.68 LIG-0.34  N 
ATOM      4  CA  PRO B   2       7.915  12.438  17.224  1.00 19.66 LIG 0.18  C 
ATOM      5  CB  PRO B   2       7.522  13.779  16.604  1.00 19.68 LIG 0.04  C 
ATOM      6  CG  PRO B   2       6.596  14.407  17.605  1.00 19.82 LIG 0.02  C 
ATOM      7  CD  PRO B   2       5.832  13.258  18.189  1.00 21.17 LIG 0.13  C 
ENDROOT
BRANCH 4 8
ATOM      8  C   PRO B   2       9.253  12.547  17.965  1.00 18.80 LIG 0.24  C 
ATOM      9  N   THR B   3       9.214  13.109  19.169  1.00 18.04 LIG-0.34  N 
ATOM     10 H    THR B   3       8.488  13.360  19.554  1.00 18.04 LIG 0.16  HD
ATOM     11 O    PRO B   2      10.299  12.155  17.439  1.00 18.43 LIG-0.27  OA
BRANCH 9 12
ATOM     12  CA  THR B   3      10.429  13.353  19.960  1.00 16.71 LIG 0.21  C 
BRANCH 12 13
ATOM     13  C   THR B   3      10.186  13.063  21.444  1.00 16.11 LIG 0.20  C 
ATOM     14 OXT  THR B   3      10.978  13.469  22.300  1.00 14.78 LIG-0.65  OA
ATOM     15 O    THR B   3       9.199  12.398  21.808  1.00 14.64 LIG-0.65  OA
ENDBRANCH 12 13
BRANCH 12 16
ATOM     16  CB  THR B   3      10.968  14.801  19.779  1.00 16.70 LIG 0.15  C 
ATOM     17  CG2 THR B   3      10.169  15.536  18.704  1.00 16.85 LIG 0.04  C 
BRANCH 16 18
ATOM     18 OG1  THR B   3      10.970  15.557  21.103  1.00 17.97 LIG-0.39  OA
ATOM     19 HG1  THR B   3      11.728  15.496  21.461  1.00 17.97 LIG 0.21  HD
ENDBRANCH 16 18
ENDBRANCH 12 16
ENDBRANCH 9 12
ENDBRANCH 4 8
BRANCH 1 20
ATOM     20  CA  ALA B   1       5.633  10.788  19.812  1.00 22.08 LIG 0.27  C 
ATOM     21  CB  ALA B   1       6.231  10.798  21.194  1.00 22.59 LIG 0.05  C 
BRANCH 20 22
ATOM     22  N   ALA B   1       4.874   9.527  19.584  1.00 23.15 LIG-0.07  N 
ATOM     23 H3   ALA B   1       4.073   9.588  19.967  1.00 23.15 LIG 0.28  HD
ATOM     24 H2   ALA B   1       5.319   8.843  19.939  1.00 23.15 LIG 0.28  HD
ATOM     25 H1   ALA B   1       4.774   9.394  18.710  1.00 23.15 LIG 0.28  HD
ENDBRANCH 20 22
ENDBRANCH 1 20
TORSDOF 7
ENDMDL
MODEL 35
USER: ADFR SOLUTION from run 111
USER: SCORE 7.256639 LL:  -1.454 LR:  -5.802 RR:   0.000 FEB:  -3.714
USER: RMSD 5.736477
USER: SEED 110
USER: STATUS no improvement in best in 30 clusters for 5 generations
USER: GENES 9
USER: genes 0 Translation |==|  0.14870 0.27393 0.68380
USER: genes 1 Rotation |==|  0.79974 0.40619 0.56275 0.88395
USER: genes 2 Torsion [N]-CA--C-[N] |==|  0.53117
USER: genes 3 Torsion [C]-N--CA-[CB] |==|  0.85847
USER: genes 4 Torsion [N]-CA--C-[OXT] |==|  0.81016
USER: genes 5 Torsion [N]-CA--CB-[CG2] |==|  0.51850
USER: genes 6 Torsion [CA]-CB--OG1-[HG1] |==|  0.41140
USER: genes 7 Torsion [N]-C--CA-[N] |==|  0.41633
USER: genes 8 Torsion [C]-CA--N-[H2] |==|  0.59386
ROOT
ATOM      1  C   ALA B   1      -1.680   8.473  24.216  1.00 21.61 LIG 0.25  C 
ATOM      2 O    ALA B   1      -0.696   7.796  24.540  1.00 21.59 LIG-0.27  OA
ATOM      3  N   PRO B   2      -1.670   9.324  23.169  1.00 20.68 LIG-0.34  N 
ATOM      4  CA  PRO B   2      -0.418   9.610  22.463  1.00 19.66 LIG 0.18  C 
ATOM      5  CB  PRO B   2      -0.871  10.459  21.275  1.00 19.68 LIG 0.04  C 
ATOM      6  CG  PRO B   2      -2.164  11.079  21.717  1.00 19.82 LIG 0.02  C 
ATOM      7  CD  PRO B   2      -2.817  10.031  22.566  1.00 21.17 LIG 0.13  C 
ENDROOT
BRANCH 4 8
ATOM      8  C   PRO B   2       0.580  10.379  23.337  1.00 18.80 LIG 0.24  C 
ATOM      9  N   THR B   3       1.642  10.880  22.715  1.00 18.04 LIG-0.34  N 
ATOM     10 H    THR B   3       1.763  10.833  21.864  1.00 18.04 LIG 0.16  HD
ATOM     11 O    PRO B   2       0.400  10.488  24.554  1.00 18.43 LIG-0.27  OA
BRANCH 9 12
ATOM     12  CA  THR B   3       2.721  11.571  23.436  1.00 16.71 LIG 0.21  C 
BRANCH 12 13
ATOM     13  C   THR B   3       3.574  10.578  24.230  1.00 16.11 LIG 0.20  C 
ATOM     14 OXT  THR B   3       3.103   9.989  25.209  1.00 14.78 LIG-0.65  OA
ATOM     15 O    THR B   3       4.759  10.364  23.916  1.00 14.64 LIG-0.65  OA
ENDBRANCH 12 13
BRANCH 12 16
ATOM     16  CB  THR B   3       2.180  12.684  24.378  1.00 16.70 LIG 0.15  C 
ATOM     17  CG2 THR B   3       3.337  13.481  24.980  1.00 16.85 LIG 0.04  C 
BRANCH 16 18
ATOM     18 OG1  THR B   3       1.185  13.584  23.654  1.00 17.97 LIG-0.39  OA
ATOM     19 HG1  THR B   3       0.608  13.860  24.198  1.00 17.97 LIG 0.21  HD
ENDBRANCH 16 18
ENDBRANCH 12 16
ENDBRANCH 9 12
ENDBRANCH 4 8
BRANCH 1 20
ATOM     20  CA  ALA B   1      -2.989   8.353  25.002  1.00 22.08 LIG 0.27  C 
ATOM     21  CB  ALA B   1      -3.037   9.395  26.087  1.00 22.59 LIG 0.05  C 
BRANCH 20 22
ATOM     22  N   ALA B   1      -3.131   6.989  25.584  1.00 23.15 LIG-0.07  N 
ATOM     23 H3   ALA B   1      -2.673   6.406  25.091  1.00 23.15 LIG 0.28  HD
ATOM     24 H2   ALA B   1      -3.990   6.758  25.593  1.00 23.15 LIG 0.28  HD
ATOM     25 H1   ALA B   1      -2.815   6.987  26.416  1.00 23.15 LIG 0.28  HD
ENDBRANCH 20 22
ENDBRANCH 1 20
TORSDOF 7
ENDMDL
MODEL 36
USER: ADFR SOLUTION from run 109
USER: SCORE 7.412343 LL:  -1.619 LR:  -5.793 RR:   0.000 FEB:  -3.705
USER: RMSD 6.275831
USER: SEED 108
USER: STATUS no improvement in best in 24 clusters for 5 generations
USER: GENES 9
USER: genes 0 Translation |==|  0.67716 0.42834 0.39313
USER: genes 1 Rotation |==|  0.61581 0.05839 0.69092 0.57153
USER: genes 2 Torsion [N]-CA--C-[N] |==|  0.19181
USER: genes 3 Torsion [C]-N--CA-[CB] |==|  0.42922
USER: genes 4 Torsion [N]-CA--C-[OXT] |==|  0.11579
USER: genes 5 Torsion [N]-CA--CB-[CG2] |==|  0.61597
USER: genes 6 Torsion [CA]-CB--OG1-[HG1] |==|  0.12626
USER: genes 7 Torsion [N]-C--CA-[N] |==|  0.49477
USER: genes 8 Torsion [C]-CA--N-[H2] |==|  0.89292
ROOT
ATOM      1  C   ALA B   1       6.643  10.789  19.856  1.00 21.61 LIG 0.25  C 
ATOM      2 O    ALA B   1       5.860   9.861  20.094  1.00 21.59 LIG-0.27  OA
ATOM      3  N   PRO B   2       7.496  11.283  20.778  1.00 20.68 LIG-0.34  N 
ATOM      4  CA  PRO B   2       7.408  10.842  22.173  1.00 19.66 LIG 0.18  C 
ATOM      5  CB  PRO B   2       8.628  11.494  22.824  1.00 19.68 LIG 0.04  C 
ATOM      6  CG  PRO B   2       8.934  12.683  21.962  1.00 19.82 LIG 0.02  C 
ATOM      7  CD  PRO B   2       8.600  12.239  20.570  1.00 21.17 LIG 0.13  C 
ENDROOT
BRANCH 4 8
ATOM      8  C   PRO B   2       6.113  11.305  22.850  1.00 18.80 LIG 0.24  C 
ATOM      9  N   THR B   3       4.990  10.739  22.422  1.00 18.04 LIG-0.34  N 
ATOM     10 H    THR B   3       4.967  10.111  21.834  1.00 18.04 LIG 0.16  HD
ATOM     11 O    PRO B   2       6.135  12.179  23.723  1.00 18.43 LIG-0.27  OA
BRANCH 9 12
ATOM     12  CA  THR B   3       3.667  11.142  22.922  1.00 16.71 LIG 0.21  C 
BRANCH 12 13
ATOM     13  C   THR B   3       3.356  10.464  24.259  1.00 16.11 LIG 0.20  C 
ATOM     14 OXT  THR B   3       4.228  10.362  25.128  1.00 14.78 LIG-0.65  OA
ATOM     15 O    THR B   3       2.228   9.989  24.484  1.00 14.64 LIG-0.65  OA
ENDBRANCH 12 13
BRANCH 12 16
ATOM     16  CB  THR B   3       2.536  10.846  21.896  1.00 16.70 LIG 0.15  C 
ATOM     17  CG2 THR B   3       1.547  12.010  21.844  1.00 16.85 LIG 0.04  C 
BRANCH 16 18
ATOM     18 OG1  THR B   3       3.109  10.525  20.521  1.00 17.97 LIG-0.39  OA
ATOM     19 HG1  THR B   3       3.749   9.986  20.602  1.00 17.97 LIG 0.21  HD
ENDBRANCH 16 18
ENDBRANCH 12 16
ENDBRANCH 9 12
ENDBRANCH 4 8
BRANCH 1 20
ATOM     20  CA  ALA B   1       6.689  11.418  18.461  1.00 22.08 LIG 0.27  C 
ATOM     21  CB  ALA B   1       6.384  12.889  18.547  1.00 22.59 LIG 0.05  C 
BRANCH 20 22
ATOM     22  N   ALA B   1       5.728  10.741  17.545  1.00 23.15 LIG-0.07  N 
ATOM     23 H3   ALA B   1       4.911  11.067  17.679  1.00 23.15 LIG 0.28  HD
ATOM     24 H2   ALA B   1       5.728   9.866  17.709  1.00 23.15 LIG 0.28  HD
ATOM     25 H1   ALA B   1       5.970  10.885  16.701  1.00 23.15 LIG 0.28  HD
ENDBRANCH 20 22
ENDBRANCH 1 20
TORSDOF 7
ENDMDL
MODEL 37
USER: ADFR SOLUTION from run 87
USER: SCORE 6.867228 LL:  -1.132 LR:  -5.735 RR:   0.000 FEB:  -3.647
USER: RMSD 7.192576
USER: SEED 86
USER: STATUS no improvement in best in 30 clusters for 5 generations
USER: GENES 9
USER: genes 0 Translation |==|  0.19566 0.35189 0.63189
USER: genes 1 Rotation |==|  0.00387 0.55482 0.52329 0.51761
USER: genes 2 Torsion [N]-CA--C-[N] |==|  0.67104
USER: genes 3 Torsion [C]-N--CA-[CB] |==|  0.82672
USER: genes 4 Torsion [N]-CA--C-[OXT] |==|  0.31797
USER: genes 5 Torsion [N]-CA--CB-[CG2] |==|  0.56954
USER: genes 6 Torsion [CA]-CB--OG1-[HG1] |==|  0.59238
USER: genes 7 Torsion [N]-C--CA-[N] |==|  0.84808
USER: genes 8 Torsion [C]-CA--N-[H2] |==|  0.73958
ROOT
ATOM      1  C   ALA B   1      -0.940   9.642  23.437  1.00 21.61 LIG 0.25  C 
ATOM      2 O    ALA B   1       0.094   9.754  22.766  1.00 21.59 LIG-0.27  OA
ATOM      3  N   PRO B   2      -1.160  10.348  24.566  1.00 20.68 LIG-0.34  N 
ATOM      4  CA  PRO B   2      -0.091  11.167  25.143  1.00 19.66 LIG 0.18  C 
ATOM      5  CB  PRO B   2      -0.792  11.911  26.280  1.00 19.68 LIG 0.04  C 
ATOM      6  CG  PRO B   2      -1.963  11.044  26.640  1.00 19.82 LIG 0.02  C 
ATOM      7  CD  PRO B   2      -2.413  10.453  25.339  1.00 21.17 LIG 0.13  C 
ENDROOT
BRANCH 4 8
ATOM      8  C   PRO B   2       1.069  10.319  25.678  1.00 18.80 LIG 0.24  C 
ATOM      9  N   THR B   3       1.318  10.416  26.980  1.00 18.04 LIG-0.34  N 
ATOM     10 H    THR B   3       0.841  10.882  27.522  1.00 18.04 LIG 0.16  HD
ATOM     11 O    PRO B   2       1.738   9.614  24.916  1.00 18.43 LIG-0.27  OA
BRANCH 9 12
ATOM     12  CA  THR B   3       2.447   9.723  27.616  1.00 16.71 LIG 0.21  C 
BRANCH 12 13
ATOM     13  C   THR B   3       3.782  10.197  27.034  1.00 16.11 LIG 0.20  C 
ATOM     14 OXT  THR B   3       4.590  10.812  27.737  1.00 14.78 LIG-0.65  OA
ATOM     15 O    THR B   3       4.063   9.990  25.839  1.00 14.64 LIG-0.65  OA
ENDBRANCH 12 13
BRANCH 12 16
ATOM     16  CB  THR B   3       2.331   8.176  27.498  1.00 16.70 LIG 0.15  C 
ATOM     17  CG2 THR B   3       3.103   7.496  28.628  1.00 16.85 LIG 0.04  C 
BRANCH 16 18
ATOM     18 OG1  THR B   3       0.873   7.735  27.459  1.00 17.97 LIG-0.39  OA
ATOM     19 HG1  THR B   3       0.795   6.988  27.837  1.00 17.97 LIG 0.21  HD
ENDBRANCH 16 18
ENDBRANCH 12 16
ENDBRANCH 9 12
ENDBRANCH 4 8
BRANCH 1 20
ATOM     20  CA  ALA B   1      -2.049   8.685  22.990  1.00 22.08 LIG 0.27  C 
ATOM     21  CB  ALA B   1      -3.261   9.466  22.558  1.00 22.59 LIG 0.05  C 
BRANCH 20 22
ATOM     22  N   ALA B   1      -2.403   7.739  24.085  1.00 23.15 LIG-0.07  N 
ATOM     23 H3   ALA B   1      -2.214   8.111  24.871  1.00 23.15 LIG 0.28  HD
ATOM     24 H2   ALA B   1      -1.934   6.989  23.992  1.00 23.15 LIG 0.28  HD
ATOM     25 H1   ALA B   1      -3.272   7.552  24.046  1.00 23.15 LIG 0.28  HD
ENDBRANCH 20 22
ENDBRANCH 1 20
TORSDOF 7
ENDMDL
MODEL 38
USER: ADFR SOLUTION from run 168
USER: SCORE 7.017141 LL:  -1.324 LR:  -5.693 RR:   0.000 FEB:  -3.605
USER: RMSD 6.314132
USER: SEED 167
USER: STATUS no improvement in best in 41 clusters for 5 generations
USER: GENES 9
USER: genes 0 Translation |==|  0.67065 0.38189 0.47113
USER: genes 1 Rotation |==|  0.16496 0.69672 0.18537 0.50749
USER: genes 2 Torsion [N]-CA--C-[N] |==|  0.66133
USER: genes 3 Torsion [C]-N--CA-[CB] |==|  0.81048
USER: genes 4 Torsion [N]-CA--C-[OXT] |==|  0.64360
USER: genes 5 Torsion [N]-CA--CB-[CG2] |==|  0.64065
USER: genes 6 Torsion [CA]-CB--OG1-[HG1] |==|  0.17296
USER: genes 7 Torsion [N]-C--CA-[N] |==|  0.83636
USER: genes 8 Torsion [C]-CA--N-[H2] |==|  0.23308
ROOT
ATOM      1  C   ALA B   1       6.541  10.092  21.026  1.00 21.61 LIG 0.25  C 
ATOM      2 O    ALA B   1       7.088   9.446  21.928  1.00 21.59 LIG-0.27  OA
ATOM      3  N   PRO B   2       6.054  11.337  21.209  1.00 20.68 LIG-0.34  N 
ATOM      4  CA  PRO B   2       6.004  11.918  22.554  1.00 19.66 LIG 0.18  C 
ATOM      5  CB  PRO B   2       5.561  13.359  22.298  1.00 19.68 LIG 0.04  C 
ATOM      6  CG  PRO B   2       4.831  13.309  20.987  1.00 19.82 LIG 0.02  C 
ATOM      7  CD  PRO B   2       5.563  12.278  20.183  1.00 21.17 LIG 0.13  C 
ENDROOT
BRANCH 4 8
ATOM      8  C   PRO B   2       5.007  11.193  23.465  1.00 18.80 LIG 0.24  C 
ATOM      9  N   THR B   3       4.037  11.937  23.986  1.00 18.04 LIG-0.34  N 
ATOM     10 H    THR B   3       3.923  12.769  23.802  1.00 18.04 LIG 0.16  HD
ATOM     11 O    PRO B   2       5.135   9.989  23.709  1.00 18.43 LIG-0.27  OA
BRANCH 9 12
ATOM     12  CA  THR B   3       3.058  11.395  24.940  1.00 16.71 LIG 0.21  C 
BRANCH 12 13
ATOM     13  C   THR B   3       3.758  10.762  26.146  1.00 16.11 LIG 0.20  C 
ATOM     14 OXT  THR B   3       3.478   9.613  26.502  1.00 14.78 LIG-0.65  OA
ATOM     15 O    THR B   3       4.602  11.403  26.798  1.00 14.64 LIG-0.65  OA
ENDBRANCH 12 13
BRANCH 12 16
ATOM     16  CB  THR B   3       2.100  10.364  24.277  1.00 16.70 LIG 0.15  C 
ATOM     17  CG2 THR B   3       0.645  10.712  24.589  1.00 16.85 LIG 0.04  C 
BRANCH 16 18
ATOM     18 OG1  THR B   3       2.351  10.264  22.776  1.00 17.97 LIG-0.39  OA
ATOM     19 HG1  THR B   3       3.134   9.989  22.641  1.00 17.97 LIG 0.21  HD
ENDBRANCH 16 18
ENDBRANCH 12 16
ENDBRANCH 9 12
ENDBRANCH 4 8
BRANCH 1 20
ATOM     20  CA  ALA B   1       6.408   9.494  19.623  1.00 22.08 LIG 0.27  C 
ATOM     21  CB  ALA B   1       7.204  10.308  18.637  1.00 22.59 LIG 0.05  C 
BRANCH 20 22
ATOM     22  N   ALA B   1       4.978   9.432  19.209  1.00 23.15 LIG-0.07  N 
ATOM     23 H3   ALA B   1       4.875   8.801  18.590  1.00 23.15 LIG 0.28  HD
ATOM     24 H2   ALA B   1       4.731  10.218  18.873  1.00 23.15 LIG 0.28  HD
ATOM     25 H1   ALA B   1       4.473   9.239  19.916  1.00 23.15 LIG 0.28  HD
ENDBRANCH 20 22
ENDBRANCH 1 20
TORSDOF 7
ENDMDL
MODEL 39
USER: ADFR SOLUTION from run 126
USER: SCORE 7.143954 LL:  -1.487 LR:  -5.657 RR:   0.000 FEB:  -3.569
USER: RMSD 8.208601
USER: SEED 125
USER: STATUS no improvement in best in 32 clusters for 5 generations
USER: GENES 9
USER: genes 0 Translation |==|  0.75115 0.42500 0.16986
USER: genes 1 Rotation |==|  0.62731 0.21465 0.78730 0.76425
USER: genes 2 Torsion [N]-CA--C-[N] |==|  0.55156
USER: genes 3 Torsion [C]-N--CA-[CB] |==|  0.45779
USER: genes 4 Torsion [N]-CA--C-[OXT] |==|  0.89060
USER: genes 5 Torsion [N]-CA--CB-[CG2] |==|  0.46594
USER: genes 6 Torsion [CA]-CB--OG1-[HG1] |==|  0.45888
USER: genes 7 Torsion [N]-C--CA-[N] |==|  0.43101
USER: genes 8 Torsion [C]-CA--N-[H2] |==|  0.46233
ROOT
ATOM      1  C   ALA B   1       7.809  10.739  16.507  1.00 21.61 LIG 0.25  C 
ATOM      2 O    ALA B   1       7.566  10.465  17.689  1.00 21.59 LIG-0.27  OA
ATOM      3  N   PRO B   2       8.917  11.407  16.123  1.00 20.68 LIG-0.34  N 
ATOM      4  CA  PRO B   2       9.810  11.991  17.127  1.00 19.66 LIG 0.18  C 
ATOM      5  CB  PRO B   2      10.994  12.489  16.297  1.00 19.68 LIG 0.04  C 
ATOM      6  CG  PRO B   2      10.433  12.706  14.922  1.00 19.82 LIG 0.02  C 
ATOM      7  CD  PRO B   2       9.414  11.621  14.750  1.00 21.17 LIG 0.13  C 
ENDROOT
BRANCH 4 8
ATOM      8  C   PRO B   2       9.152  13.146  17.890  1.00 18.80 LIG 0.24  C 
ATOM      9  N   THR B   3       9.974  13.972  18.531  1.00 18.04 LIG-0.34  N 
ATOM     10 H    THR B   3      10.831  13.913  18.495  1.00 18.04 LIG 0.16  HD
ATOM     11 O    PRO B   2       7.924  13.265  17.918  1.00 18.43 LIG-0.27  OA
BRANCH 9 12
ATOM     12  CA  THR B   3       9.482  15.075  19.368  1.00 16.71 LIG 0.21  C 
BRANCH 12 13
ATOM     13  C   THR B   3       8.882  16.192  18.510  1.00 16.11 LIG 0.20  C 
ATOM     14 OXT  THR B   3       9.414  16.516  17.442  1.00 14.78 LIG-0.65  OA
ATOM     15 O    THR B   3       7.865  16.804  18.883  1.00 14.64 LIG-0.65  OA
ENDBRANCH 12 13
BRANCH 12 16
ATOM     16  CB  THR B   3      10.591  15.650  20.295  1.00 16.70 LIG 0.15  C 
ATOM     17  CG2 THR B   3      10.135  16.969  20.917  1.00 16.85 LIG 0.04  C 
BRANCH 16 18
ATOM     18 OG1  THR B   3      11.005  14.634  21.355  1.00 17.97 LIG-0.39  OA
ATOM     19 HG1  THR B   3      11.728  14.876  21.708  1.00 17.97 LIG 0.21  HD
ENDBRANCH 16 18
ENDBRANCH 12 16
ENDBRANCH 9 12
ENDBRANCH 4 8
BRANCH 1 20
ATOM     20  CA  ALA B   1       6.843  10.302  15.402  1.00 22.08 LIG 0.27  C 
ATOM     21  CB  ALA B   1       5.939  11.445  15.025  1.00 22.59 LIG 0.05  C 
BRANCH 20 22
ATOM     22  N   ALA B   1       6.039   9.126  15.839  1.00 23.15 LIG-0.07  N 
ATOM     23 H3   ALA B   1       6.552   8.399  15.839  1.00 23.15 LIG 0.28  HD
ATOM     24 H2   ALA B   1       5.358   9.007  15.278  1.00 23.15 LIG 0.28  HD
ATOM     25 H1   ALA B   1       5.727   9.268  16.660  1.00 23.15 LIG 0.28  HD
ENDBRANCH 20 22
ENDBRANCH 1 20
TORSDOF 7
ENDMDL
MODEL 40
USER: ADFR SOLUTION from run 43
USER: SCORE 7.402761 LL:  -1.741 LR:  -5.662 RR:   0.000 FEB:  -3.574
USER: RMSD 6.681725
USER: SEED 42
USER: STATUS no improvement in best in 28 clusters for 5 generations
USER: GENES 9
USER: genes 0 Translation |==|  0.71770 0.50400 0.48476
USER: genes 1 Rotation |==|  0.19665 0.42525 0.87690 0.60166
USER: genes 2 Torsion [N]-CA--C-[N] |==|  0.04521
USER: genes 3 Torsion [C]-N--CA-[CB] |==|  0.17460
USER: genes 4 Torsion [N]-CA--C-[OXT] |==|  0.91542
USER: genes 5 Torsion [N]-CA--CB-[CG2] |==|  0.43597
USER: genes 6 Torsion [CA]-CB--OG1-[HG1] |==|  0.74217
USER: genes 7 Torsion [N]-C--CA-[N] |==|  0.40321
USER: genes 8 Torsion [C]-CA--N-[H2] |==|  0.98060
ROOT
ATOM      1  C   ALA B   1       7.282  11.924  21.230  1.00 21.61 LIG 0.25  C 
ATOM      2 O    ALA B   1       6.556  12.707  20.605  1.00 21.59 LIG-0.27  OA
ATOM      3  N   PRO B   2       8.477  12.285  21.743  1.00 20.68 LIG-0.34  N 
ATOM      4  CA  PRO B   2       9.048  13.597  21.428  1.00 19.66 LIG 0.18  C 
ATOM      5  CB  PRO B   2      10.286  13.665  22.322  1.00 19.68 LIG 0.04  C 
ATOM      6  CG  PRO B   2      10.650  12.233  22.584  1.00 19.82 LIG 0.02  C 
ATOM      7  CD  PRO B   2       9.336  11.516  22.663  1.00 21.17 LIG 0.13  C 
ENDROOT
BRANCH 4 8
ATOM      8  C   PRO B   2       9.433  13.725  19.949  1.00 18.80 LIG 0.24  C 
ATOM      9  N   THR B   3       8.912  12.822  19.125  1.00 18.04 LIG-0.34  N 
ATOM     10 H    THR B   3       8.350  12.220  19.372  1.00 18.04 LIG 0.16  HD
ATOM     11 O    PRO B   2      10.209  14.609  19.574  1.00 18.43 LIG-0.27  OA
BRANCH 9 12
ATOM     12  CA  THR B   3       9.256  12.773  17.697  1.00 16.71 LIG 0.21  C 
BRANCH 12 13
ATOM     13  C   THR B   3       8.393  11.745  16.959  1.00 16.11 LIG 0.20  C 
ATOM     14 OXT  THR B   3       7.978  10.739  17.544  1.00 14.78 LIG-0.65  OA
ATOM     15 O    THR B   3       8.114  11.896  15.756  1.00 14.64 LIG-0.65  OA
ENDBRANCH 12 13
BRANCH 12 16
ATOM     16  CB  THR B   3      10.764  12.470  17.465  1.00 16.70 LIG 0.15  C 
ATOM     17  CG2 THR B   3      10.979  11.873  16.074  1.00 16.85 LIG 0.04  C 
BRANCH 16 18
ATOM     18 OG1  THR B   3      11.616  13.714  17.688  1.00 17.97 LIG-0.39  OA
ATOM     19 HG1  THR B   3      11.727  14.114  16.958  1.00 17.97 LIG 0.21  HD
ENDBRANCH 16 18
ENDBRANCH 12 16
ENDBRANCH 9 12
ENDBRANCH 4 8
BRANCH 1 20
ATOM     20  CA  ALA B   1       6.830  10.481  21.470  1.00 22.08 LIG 0.27  C 
ATOM     21  CB  ALA B   1       7.260   9.608  20.321  1.00 22.59 LIG 0.05  C 
BRANCH 20 22
ATOM     22  N   ALA B   1       5.353  10.413  21.650  1.00 23.15 LIG-0.07  N 
ATOM     23 H3   ALA B   1       4.990   9.977  20.965  1.00 23.15 LIG 0.28  HD
ATOM     24 H2   ALA B   1       5.020  11.237  21.685  1.00 23.15 LIG 0.28  HD
ATOM     25 H1   ALA B   1       5.165   9.985  22.407  1.00 23.15 LIG 0.28  HD
ENDBRANCH 20 22
ENDBRANCH 1 20
TORSDOF 7
ENDMDL
MODEL 41
USER: ADFR SOLUTION from run 18
USER: SCORE 7.253749 LL:  -1.627 LR:  -5.626 RR:   0.000 FEB:  -3.538
USER: RMSD 7.087932
USER: SEED 17
USER: STATUS no improvement in best in 34 clusters for 5 generations
USER: GENES 9
USER: genes 0 Translation |==|  0.83844 0.67189 0.26780
USER: genes 1 Rotation |==|  0.42978 0.13834 0.19560 0.64701
USER: genes 2 Torsion [N]-CA--C-[N] |==|  0.49104
USER: genes 3 Torsion [C]-N--CA-[CB] |==|  0.28892
USER: genes 4 Torsion [N]-CA--C-[OXT] |==|  0.40015
USER: genes 5 Torsion [N]-CA--CB-[CG2] |==|  0.67664
USER: genes 6 Torsion [CA]-CB--OG1-[HG1] |==|  0.18330
USER: genes 7 Torsion [N]-C--CA-[N] |==|  0.38765
USER: genes 8 Torsion [C]-CA--N-[H2] |==|  0.01132
ROOT
ATOM      1  C   ALA B   1       9.183  14.442  17.976  1.00 21.61 LIG 0.25  C 
ATOM      2 O    ALA B   1       8.042  14.781  18.313  1.00 21.59 LIG-0.27  OA
ATOM      3  N   PRO B   2       9.430  13.354  17.217  1.00 20.68 LIG-0.34  N 
ATOM      4  CA  PRO B   2       8.348  12.419  16.897  1.00 19.66 LIG 0.18  C 
ATOM      5  CB  PRO B   2       8.999  11.454  15.906  1.00 19.68 LIG 0.04  C 
ATOM      6  CG  PRO B   2      10.468  11.528  16.207  1.00 19.82 LIG 0.02  C 
ATOM      7  CD  PRO B   2      10.706  12.957  16.591  1.00 21.17 LIG 0.13  C 
ENDROOT
BRANCH 4 8
ATOM      8  C   PRO B   2       7.838  11.671  18.134  1.00 18.80 LIG 0.24  C 
ATOM      9  N   THR B   3       6.811  10.850  17.944  1.00 18.04 LIG-0.34  N 
ATOM     10 H    THR B   3       6.463  10.692  17.174  1.00 18.04 LIG 0.16  HD
ATOM     11 O    PRO B   2       8.353  11.859  19.241  1.00 18.43 LIG-0.27  OA
BRANCH 9 12
ATOM     12  CA  THR B   3       6.167  10.129  19.052  1.00 16.71 LIG 0.21  C 
BRANCH 12 13
ATOM     13  C   THR B   3       5.982   8.648  18.710  1.00 16.11 LIG 0.20  C 
ATOM     14 OXT  THR B   3       6.103   7.784  19.584  1.00 14.78 LIG-0.65  OA
ATOM     15 O    THR B   3       5.728   8.292  17.546  1.00 14.64 LIG-0.65  OA
ENDBRANCH 12 13
BRANCH 12 16
ATOM     16  CB  THR B   3       4.802  10.761  19.450  1.00 16.70 LIG 0.15  C 
ATOM     17  CG2 THR B   3       4.859  11.295  20.881  1.00 16.85 LIG 0.04  C 
BRANCH 16 18
ATOM     18 OG1  THR B   3       4.383  11.839  18.457  1.00 17.97 LIG-0.39  OA
ATOM     19 HG1  THR B   3       4.229  11.488  17.709  1.00 17.97 LIG 0.21  HD
ENDBRANCH 16 18
ENDBRANCH 12 16
ENDBRANCH 9 12
ENDBRANCH 4 8
BRANCH 1 20
ATOM     20  CA  ALA B   1      10.392  15.279  18.403  1.00 22.08 LIG 0.27  C 
ATOM     21  CB  ALA B   1      10.809  14.909  19.802  1.00 22.59 LIG 0.05  C 
BRANCH 20 22
ATOM     22  N   ALA B   1      10.082  16.734  18.322  1.00 23.15 LIG-0.07  N 
ATOM     23 H3   ALA B   1      10.229  17.114  19.113  1.00 23.15 LIG 0.28  HD
ATOM     24 H2   ALA B   1       9.229  16.843  18.095  1.00 23.15 LIG 0.28  HD
ATOM     25 H1   ALA B   1      10.603  17.115  17.709  1.00 23.15 LIG 0.28  HD
ENDBRANCH 20 22
ENDBRANCH 1 20
TORSDOF 7
ENDMDL
MODEL 42
USER: ADFR SOLUTION from run 47
USER: SCORE 6.948505 LL:  -1.392 LR:  -5.557 RR:   0.000 FEB:  -3.469
USER: RMSD 8.959346
USER: SEED 46
USER: STATUS no improvement in best in 31 clusters for 5 generations
USER: GENES 9
USER: genes 0 Translation |==|  0.90316 0.57655 0.16906
USER: genes 1 Rotation |==|  0.94959 0.42357 0.67788 0.60191
USER: genes 2 Torsion [N]-CA--C-[N] |==|  0.59745
USER: genes 3 Torsion [C]-N--CA-[CB] |==|  0.52131
USER: genes 4 Torsion [N]-CA--C-[OXT] |==|  0.32457
USER: genes 5 Torsion [N]-CA--CB-[CG2] |==|  0.60947
USER: genes 6 Torsion [CA]-CB--OG1-[HG1] |==|  0.91142
USER: genes 7 Torsion [N]-C--CA-[N] |==|  0.46413
USER: genes 8 Torsion [C]-CA--N-[H2] |==|  0.18995
ROOT
ATOM      1  C   ALA B   1      10.203  13.012  16.495  1.00 21.61 LIG 0.25  C 
ATOM      2 O    ALA B   1      11.401  12.855  16.764  1.00 21.59 LIG-0.27  OA
ATOM      3  N   PRO B   2       9.561  14.186  16.672  1.00 20.68 LIG-0.34  N 
ATOM      4  CA  PRO B   2      10.228  15.295  17.359  1.00 19.66 LIG 0.18  C 
ATOM      5  CB  PRO B   2       9.244  16.453  17.195  1.00 19.68 LIG 0.04  C 
ATOM      6  CG  PRO B   2       7.909  15.797  16.998  1.00 19.82 LIG 0.02  C 
ATOM      7  CD  PRO B   2       8.207  14.555  16.214  1.00 21.17 LIG 0.13  C 
ENDROOT
BRANCH 4 8
ATOM      8  C   PRO B   2      10.478  14.995  18.842  1.00 18.80 LIG 0.24  C 
ATOM      9  N   THR B   3      10.379  16.025  19.675  1.00 18.04 LIG-0.34  N 
ATOM     10 H    THR B   3      10.142  16.815  19.431  1.00 18.04 LIG 0.16  HD
ATOM     11 O    PRO B   2      10.782  13.857  19.213  1.00 18.43 LIG-0.27  OA
BRANCH 9 12
ATOM     12  CA  THR B   3      10.671  15.904  21.111  1.00 16.71 LIG 0.21  C 
BRANCH 12 13
ATOM     13  C   THR B   3       9.955  14.693  21.717  1.00 16.11 LIG 0.20  C 
ATOM     14 OXT  THR B   3      10.603  13.757  22.196  1.00 14.78 LIG-0.65  OA
ATOM     15 O    THR B   3       8.713  14.624  21.717  1.00 14.64 LIG-0.65  OA
ENDBRANCH 12 13
BRANCH 12 16
ATOM     16  CB  THR B   3      10.299  17.193  21.898  1.00 16.70 LIG 0.15  C 
ATOM     17  CG2 THR B   3      11.353  17.489  22.964  1.00 16.85 LIG 0.04  C 
BRANCH 16 18
ATOM     18 OG1  THR B   3      10.097  18.375  20.955  1.00 17.97 LIG-0.39  OA
ATOM     19 HG1  THR B   3      10.603  18.293  20.289  1.00 17.97 LIG 0.21  HD
ENDBRANCH 16 18
ENDBRANCH 12 16
ENDBRANCH 9 12
ENDBRANCH 4 8
BRANCH 1 20
ATOM     20  CA  ALA B   1       9.385  11.853  15.918  1.00 22.08 LIG 0.27  C 
ATOM     21  CB  ALA B   1       8.388  11.367  16.935  1.00 22.59 LIG 0.05  C 
BRANCH 20 22
ATOM     22  N   ALA B   1      10.278  10.739  15.492  1.00 23.15 LIG-0.07  N 
ATOM     23 H3   ALA B   1       9.803  10.129  15.051  1.00 23.15 LIG 0.28  HD
ATOM     24 H2   ALA B   1      10.648  10.364  16.209  1.00 23.15 LIG 0.28  HD
ATOM     25 H1   ALA B   1      10.917  11.057  14.960  1.00 23.15 LIG 0.28  HD
ENDBRANCH 20 22
ENDBRANCH 1 20
TORSDOF 7
ENDMDL
MODEL 43
USER: ADFR SOLUTION from run 153
USER: SCORE 6.840806 LL:  -1.307 LR:  -5.534 RR:   0.000 FEB:  -3.446
USER: RMSD 8.094667
USER: SEED 152
USER: STATUS no improvement in best in 33 clusters for 5 generations
USER: GENES 9
USER: genes 0 Translation |==|  0.87805 0.57956 0.16536
USER: genes 1 Rotation |==|  0.08075 0.29466 0.40716 0.65312
USER: genes 2 Torsion [N]-CA--C-[N] |==|  0.58806
USER: genes 3 Torsion [C]-N--CA-[CB] |==|  0.26767
USER: genes 4 Torsion [N]-CA--C-[OXT] |==|  0.84544
USER: genes 5 Torsion [N]-CA--CB-[CG2] |==|  0.45388
USER: genes 6 Torsion [CA]-CB--OG1-[HG1] |==|  0.69359
USER: genes 7 Torsion [N]-C--CA-[N] |==|  0.85644
USER: genes 8 Torsion [C]-CA--N-[H2] |==|  0.93260
ROOT
ATOM      1  C   ALA B   1       9.807  13.057  16.439  1.00 21.61 LIG 0.25  C 
ATOM      2 O    ALA B   1      10.226  14.193  16.699  1.00 21.59 LIG-0.27  OA
ATOM      3  N   PRO B   2       8.894  12.421  17.203  1.00 20.68 LIG-0.34  N 
ATOM      4  CA  PRO B   2       8.480  12.994  18.487  1.00 19.66 LIG 0.18  C 
ATOM      5  CB  PRO B   2       7.341  12.075  18.930  1.00 19.68 LIG 0.04  C 
ATOM      6  CG  PRO B   2       7.603  10.774  18.227  1.00 19.82 LIG 0.02  C 
ATOM      7  CD  PRO B   2       8.177  11.168  16.900  1.00 21.17 LIG 0.13  C 
ENDROOT
BRANCH 4 8
ATOM      8  C   PRO B   2       9.615  12.996  19.517  1.00 18.80 LIG 0.24  C 
ATOM      9  N   THR B   3       9.255  12.856  20.789  1.00 18.04 LIG-0.34  N 
ATOM     10 H    THR B   3       8.445  12.722  21.043  1.00 18.04 LIG 0.16  HD
ATOM     11 O    PRO B   2      10.788  13.148  19.163  1.00 18.43 LIG-0.27  OA
BRANCH 9 12
ATOM     12  CA  THR B   3      10.227  12.920  21.891  1.00 16.71 LIG 0.21  C 
BRANCH 12 13
ATOM     13  C   THR B   3       9.914  11.870  22.960  1.00 16.11 LIG 0.20  C 
ATOM     14 OXT  THR B   3       8.801  11.832  23.496  1.00 14.78 LIG-0.65  OA
ATOM     15 O    THR B   3      10.780  11.053  23.321  1.00 14.64 LIG-0.65  OA
ENDBRANCH 12 13
BRANCH 12 16
ATOM     16  CB  THR B   3      10.295  14.334  22.534  1.00 16.70 LIG 0.15  C 
ATOM     17  CG2 THR B   3      10.980  14.267  23.898  1.00 16.85 LIG 0.04  C 
BRANCH 16 18
ATOM     18 OG1  THR B   3      10.978  15.331  21.603  1.00 17.97 LIG-0.39  OA
ATOM     19 HG1  THR B   3      11.726  15.544  21.921  1.00 17.97 LIG 0.21  HD
ENDBRANCH 16 18
ENDBRANCH 12 16
ENDBRANCH 9 12
ENDBRANCH 4 8
BRANCH 1 20
ATOM     20  CA  ALA B   1      10.309  12.318  15.196  1.00 22.08 LIG 0.27  C 
ATOM     21  CB  ALA B   1       9.219  12.251  14.160  1.00 22.59 LIG 0.05  C 
BRANCH 20 22
ATOM     22  N   ALA B   1      10.775  10.948  15.549  1.00 23.15 LIG-0.07  N 
ATOM     23 H3   ALA B   1      10.119  10.365  15.406  1.00 23.15 LIG 0.28  HD
ATOM     24 H2   ALA B   1      11.008  10.925  16.408  1.00 23.15 LIG 0.28  HD
ATOM     25 H1   ALA B   1      11.477  10.733  15.046  1.00 23.15 LIG 0.28  HD
ENDBRANCH 20 22
ENDBRANCH 1 20
TORSDOF 7
ENDMDL
MODEL 44
USER: ADFR SOLUTION from run 129
USER: SCORE 7.418393 LL:  -1.898 LR:  -5.520 RR:   0.000 FEB:  -3.432
USER: RMSD 5.805719
USER: SEED 128
USER: STATUS no improvement in best in 32 clusters for 5 generations
USER: GENES 9
USER: genes 0 Translation |==|  0.08448 0.36283 0.57683
USER: genes 1 Rotation |==|  0.78175 0.57561 0.15858 0.71985
USER: genes 2 Torsion [N]-CA--C-[N] |==|  0.93576
USER: genes 3 Torsion [C]-N--CA-[CB] |==|  0.20369
USER: genes 4 Torsion [N]-CA--C-[OXT] |==|  0.87780
USER: genes 5 Torsion [N]-CA--CB-[CG2] |==|  0.38066
USER: genes 6 Torsion [CA]-CB--OG1-[HG1] |==|  0.90692
USER: genes 7 Torsion [N]-C--CA-[N] |==|  0.46637
USER: genes 8 Torsion [C]-CA--N-[H2] |==|  0.75108
ROOT
ATOM      1  C   ALA B   1      -2.691   9.806  22.611  1.00 21.61 LIG 0.25  C 
ATOM      2 O    ALA B   1      -3.272   9.111  21.768  1.00 21.59 LIG-0.27  OA
ATOM      3  N   PRO B   2      -2.580  11.147  22.505  1.00 20.68 LIG-0.34  N 
ATOM      4  CA  PRO B   2      -3.006  11.826  21.278  1.00 19.66 LIG 0.18  C 
ATOM      5  CB  PRO B   2      -2.874  13.308  21.633  1.00 19.68 LIG 0.04  C 
ATOM      6  CG  PRO B   2      -1.854  13.349  22.733  1.00 19.82 LIG 0.02  C 
ATOM      7  CD  PRO B   2      -2.094  12.099  23.522  1.00 21.17 LIG 0.13  C 
ENDROOT
BRANCH 4 8
ATOM      8  C   PRO B   2      -2.120  11.471  20.078  1.00 18.80 LIG 0.24  C 
ATOM      9  N   THR B   3      -0.894  11.040  20.359  1.00 18.04 LIG-0.34  N 
ATOM     10 H    THR B   3      -0.605  10.913  21.159  1.00 18.04 LIG 0.16  HD
ATOM     11 O    PRO B   2      -2.535  11.612  18.924  1.00 18.43 LIG-0.27  OA
BRANCH 9 12
ATOM     12  CA  THR B   3       0.091  10.739  19.310  1.00 16.71 LIG 0.21  C 
BRANCH 12 13
ATOM     13  C   THR B   3       1.236   9.884  19.861  1.00 16.11 LIG 0.20  C 
ATOM     14 OXT  THR B   3       1.748  10.151  20.953  1.00 14.78 LIG-0.65  OA
ATOM     15 O    THR B   3       1.680   8.922  19.209  1.00 14.64 LIG-0.65  OA
ENDBRANCH 12 13
BRANCH 12 16
ATOM     16  CB  THR B   3       0.657  12.028  18.648  1.00 16.70 LIG 0.15  C 
ATOM     17  CG2 THR B   3       2.169  11.910  18.459  1.00 16.85 LIG 0.04  C 
BRANCH 16 18
ATOM     18 OG1  THR B   3      -0.057  12.332  17.335  1.00 17.97 LIG-0.39  OA
ATOM     19 HG1  THR B   3      -0.272  11.612  16.959  1.00 17.97 LIG 0.21  HD
ENDBRANCH 16 18
ENDBRANCH 12 16
ENDBRANCH 9 12
ENDBRANCH 4 8
BRANCH 1 20
ATOM     20  CA  ALA B   1      -2.076   9.155  23.853  1.00 22.08 LIG 0.27  C 
ATOM     21  CB  ALA B   1      -0.574   9.228  23.784  1.00 22.59 LIG 0.05  C 
BRANCH 20 22
ATOM     22  N   ALA B   1      -2.522   7.739  23.981  1.00 23.15 LIG-0.07  N 
ATOM     23 H3   ALA B   1      -2.671   7.400  23.172  1.00 23.15 LIG 0.28  HD
ATOM     24 H2   ALA B   1      -3.272   7.706  24.459  1.00 23.15 LIG 0.28  HD
ATOM     25 H1   ALA B   1      -1.889   7.264  24.389  1.00 23.15 LIG 0.28  HD
ENDBRANCH 20 22
ENDBRANCH 1 20
TORSDOF 7
ENDMDL
MODEL 45
USER: ADFR SOLUTION from run 133
USER: SCORE 6.837990 LL:  -1.326 LR:  -5.512 RR:   0.000 FEB:  -3.424
USER: RMSD 5.511411
USER: SEED 132
USER: STATUS no improvement in best in 26 clusters for 5 generations
USER: GENES 9
USER: genes 0 Translation |==|  0.54436 0.45471 0.51515
USER: genes 1 Rotation |==|  0.42562 0.22501 0.68627 0.86626
USER: genes 2 Torsion [N]-CA--C-[N] |==|  0.54992
USER: genes 3 Torsion [C]-N--CA-[CB] |==|  0.34152
USER: genes 4 Torsion [N]-CA--C-[OXT] |==|  0.45712
USER: genes 5 Torsion [N]-CA--CB-[CG2] |==|  0.66206
USER: genes 6 Torsion [CA]-CB--OG1-[HG1] |==|  0.45292
USER: genes 7 Torsion [N]-C--CA-[N] |==|  0.16181
USER: genes 8 Torsion [C]-CA--N-[H2] |==|  0.56689
ROOT
ATOM      1  C   ALA B   1       4.552  11.185  21.686  1.00 21.61 LIG 0.25  C 
ATOM      2 O    ALA B   1       4.249  11.614  22.807  1.00 21.59 LIG-0.27  OA
ATOM      3  N   PRO B   2       5.724  10.567  21.430  1.00 20.68 LIG-0.34  N 
ATOM      4  CA  PRO B   2       6.775  10.530  22.451  1.00 19.66 LIG 0.18  C 
ATOM      5  CB  PRO B   2       7.832   9.614  21.833  1.00 19.68 LIG 0.04  C 
ATOM      6  CG  PRO B   2       7.604   9.709  20.353  1.00 19.82 LIG 0.02  C 
ATOM      7  CD  PRO B   2       6.119   9.846  20.205  1.00 21.17 LIG 0.13  C 
ENDROOT
BRANCH 4 8
ATOM      8  C   PRO B   2       7.356  11.919  22.741  1.00 18.80 LIG 0.24  C 
ATOM      9  N   THR B   3       8.534  11.947  23.356  1.00 18.04 LIG-0.34  N 
ATOM     10 H    THR B   3       8.988  11.243  23.548  1.00 18.04 LIG 0.16  HD
ATOM     11 O    PRO B   2       6.731  12.940  22.436  1.00 18.43 LIG-0.27  OA
BRANCH 9 12
ATOM     12  CA  THR B   3       9.173  13.205  23.768  1.00 16.71 LIG 0.21  C 
BRANCH 12 13
ATOM     13  C   THR B   3      10.455  13.458  22.970  1.00 16.11 LIG 0.20  C 
ATOM     14 OXT  THR B   3      10.978  14.577  22.962  1.00 14.78 LIG-0.65  OA
ATOM     15 O    THR B   3      10.977  12.547  22.301  1.00 14.64 LIG-0.65  OA
ENDBRANCH 12 13
BRANCH 12 16
ATOM     16  CB  THR B   3       9.478  13.237  25.294  1.00 16.70 LIG 0.15  C 
ATOM     17  CG2 THR B   3       8.778  14.426  25.952  1.00 16.85 LIG 0.04  C 
BRANCH 16 18
ATOM     18 OG1  THR B   3       9.103  11.917  25.958  1.00 17.97 LIG-0.39  OA
ATOM     19 HG1  THR B   3       9.478  11.864  26.709  1.00 17.97 LIG 0.21  HD
ENDBRANCH 16 18
ENDBRANCH 12 16
ENDBRANCH 9 12
ENDBRANCH 4 8
BRANCH 1 20
ATOM     20  CA  ALA B   1       3.571  11.325  20.518  1.00 22.08 LIG 0.27  C 
ATOM     21  CB  ALA B   1       2.329  12.045  20.971  1.00 22.59 LIG 0.05  C 
BRANCH 20 22
ATOM     22  N   ALA B   1       3.223   9.989  19.959  1.00 23.15 LIG-0.07  N 
ATOM     23 H3   ALA B   1       3.936   9.458  19.991  1.00 23.15 LIG 0.28  HD
ATOM     24 H2   ALA B   1       2.960  10.080  19.114  1.00 23.15 LIG 0.28  HD
ATOM     25 H1   ALA B   1       2.564   9.629  20.437  1.00 23.15 LIG 0.28  HD
ENDBRANCH 20 22
ENDBRANCH 1 20
TORSDOF 7
ENDMDL
MODEL 46
USER: ADFR SOLUTION from run 190
USER: SCORE 6.876960 LL:  -1.369 LR:  -5.508 RR:   0.000 FEB:  -3.420
USER: RMSD 5.144347
USER: SEED 189
USER: STATUS no improvement in best in 32 clusters for 5 generations
USER: GENES 9
USER: genes 0 Translation |==|  0.24157 0.46640 0.38159
USER: genes 1 Rotation |==|  0.60225 0.11207 0.57965 0.78760
USER: genes 2 Torsion [N]-CA--C-[N] |==|  0.49472
USER: genes 3 Torsion [C]-N--CA-[CB] |==|  0.25083
USER: genes 4 Torsion [N]-CA--C-[OXT] |==|  0.02231
USER: genes 5 Torsion [N]-CA--CB-[CG2] |==|  0.93916
USER: genes 6 Torsion [CA]-CB--OG1-[HG1] |==|  0.13952
USER: genes 7 Torsion [N]-C--CA-[N] |==|  0.18658
USER: genes 8 Torsion [C]-CA--N-[H2] |==|  0.04695
ROOT
ATOM      1  C   ALA B   1      -0.217  11.360  19.683  1.00 21.61 LIG 0.25  C 
ATOM      2 O    ALA B   1      -0.822  10.679  20.521  1.00 21.59 LIG-0.27  OA
ATOM      3  N   PRO B   2       1.123  11.318  19.534  1.00 20.68 LIG-0.34  N 
ATOM      4  CA  PRO B   2       1.947  10.574  20.491  1.00 19.66 LIG 0.18  C 
ATOM      5  CB  PRO B   2       3.345  10.638  19.874  1.00 19.68 LIG 0.04  C 
ATOM      6  CG  PRO B   2       3.327  11.864  19.010  1.00 19.82 LIG 0.02  C 
ATOM      7  CD  PRO B   2       1.934  11.921  18.459  1.00 21.17 LIG 0.13  C 
ENDROOT
BRANCH 4 8
ATOM      8  C   PRO B   2       1.935  11.207  21.887  1.00 18.80 LIG 0.24  C 
ATOM      9  N   THR B   3       2.627  10.573  22.827  1.00 18.04 LIG-0.34  N 
ATOM     10 H    THR B   3       3.103   9.872  22.678  1.00 18.04 LIG 0.16  HD
ATOM     11 O    PRO B   2       1.288  12.235  22.107  1.00 18.43 LIG-0.27  OA
BRANCH 9 12
ATOM     12  CA  THR B   3       2.641  11.019  24.228  1.00 16.71 LIG 0.21  C 
BRANCH 12 13
ATOM     13  C   THR B   3       4.002  10.752  24.877  1.00 16.11 LIG 0.20  C 
ATOM     14 OXT  THR B   3       4.956  10.364  24.195  1.00 14.78 LIG-0.65  OA
ATOM     15 O    THR B   3       4.162  10.902  26.101  1.00 14.64 LIG-0.65  OA
ENDBRANCH 12 13
BRANCH 12 16
ATOM     16  CB  THR B   3       1.509  10.358  25.067  1.00 16.70 LIG 0.15  C 
ATOM     17  CG2 THR B   3       0.387   9.868  24.153  1.00 16.85 LIG 0.04  C 
BRANCH 16 18
ATOM     18 OG1  THR B   3       2.057   9.239  25.945  1.00 17.97 LIG-0.39  OA
ATOM     19 HG1  THR B   3       2.722   9.520  26.376  1.00 17.97 LIG 0.21  HD
ENDBRANCH 16 18
ENDBRANCH 12 16
ENDBRANCH 9 12
ENDBRANCH 4 8
BRANCH 1 20
ATOM     20  CA  ALA B   1      -0.991  12.289  18.744  1.00 22.08 LIG 0.27  C 
ATOM     21  CB  ALA B   1      -2.425  12.396  19.188  1.00 22.59 LIG 0.05  C 
BRANCH 20 22
ATOM     22  N   ALA B   1      -0.918  11.799  17.339  1.00 23.15 LIG-0.07  N 
ATOM     23 H3   ALA B   1      -1.720  11.864  16.959  1.00 23.15 LIG 0.28  HD
ATOM     24 H2   ALA B   1      -0.657  10.948  17.334  1.00 23.15 LIG 0.28  HD
ATOM     25 H1   ALA B   1      -0.334  12.291  16.882  1.00 23.15 LIG 0.28  HD
ENDBRANCH 20 22
ENDBRANCH 1 20
TORSDOF 7
ENDMDL
MODEL 47
USER: ADFR SOLUTION from run 36
USER: SCORE 6.855100 LL:  -1.364 LR:  -5.491 RR:   0.000 FEB:  -3.403
USER: RMSD 8.471167
USER: SEED 35
USER: STATUS no improvement in best in 32 clusters for 5 generations
USER: GENES 9
USER: genes 0 Translation |==|  0.92791 0.56694 0.20185
USER: genes 1 Rotation |==|  0.94267 0.38142 0.69930 0.51629
USER: genes 2 Torsion [N]-CA--C-[N] |==|  0.75101
USER: genes 3 Torsion [C]-N--CA-[CB] |==|  0.76000
USER: genes 4 Torsion [N]-CA--C-[OXT] |==|  0.68170
USER: genes 5 Torsion [N]-CA--CB-[CG2] |==|  0.59114
USER: genes 6 Torsion [CA]-CB--OG1-[HG1] |==|  0.20390
USER: genes 7 Torsion [N]-C--CA-[N] |==|  0.45732
USER: genes 8 Torsion [C]-CA--N-[H2] |==|  0.15083
ROOT
ATOM      1  C   ALA B   1      10.593  12.868  16.987  1.00 21.61 LIG 0.25  C 
ATOM      2 O    ALA B   1      11.728  12.573  17.382  1.00 21.59 LIG-0.27  OA
ATOM      3  N   PRO B   2       9.913  13.940  17.446  1.00 20.68 LIG-0.34  N 
ATOM      4  CA  PRO B   2      10.436  14.715  18.575  1.00 19.66 LIG 0.18  C 
ATOM      5  CB  PRO B   2       9.478  15.905  18.656  1.00 19.68 LIG 0.04  C 
ATOM      6  CG  PRO B   2       8.207  15.418  18.025  1.00 19.82 LIG 0.02  C 
ATOM      7  CD  PRO B   2       8.654  14.505  16.924  1.00 21.17 LIG 0.13  C 
ENDROOT
BRANCH 4 8
ATOM      8  C   PRO B   2      10.430  13.916  19.883  1.00 18.80 LIG 0.24  C 
ATOM      9  N   THR B   3       9.326  14.000  20.618  1.00 18.04 LIG-0.34  N 
ATOM     10 H    THR B   3       8.622  14.431  20.375  1.00 18.04 LIG 0.16  HD
ATOM     11 O    PRO B   2      11.419  13.262  20.227  1.00 18.43 LIG-0.27  OA
BRANCH 9 12
ATOM     12  CA  THR B   3       9.208  13.353  21.933  1.00 16.71 LIG 0.21  C 
BRANCH 12 13
ATOM     13  C   THR B   3      10.530  13.427  22.702  1.00 16.11 LIG 0.20  C 
ATOM     14 OXT  THR B   3      11.160  12.398  22.966  1.00 14.78 LIG-0.65  OA
ATOM     15 O    THR B   3      10.979  14.521  23.091  1.00 14.64 LIG-0.65  OA
ENDBRANCH 12 13
BRANCH 12 16
ATOM     16  CB  THR B   3       8.736  11.875  21.822  1.00 16.70 LIG 0.15  C 
ATOM     17  CG2 THR B   3       7.880  11.497  23.030  1.00 16.85 LIG 0.04  C 
BRANCH 16 18
ATOM     18 OG1  THR B   3       8.004  11.628  20.507  1.00 17.97 LIG-0.39  OA
ATOM     19 HG1  THR B   3       8.558  11.614  19.876  1.00 17.97 LIG 0.21  HD
ENDBRANCH 16 18
ENDBRANCH 12 16
ENDBRANCH 9 12
ENDBRANCH 4 8
BRANCH 1 20
ATOM     20  CA  ALA B   1       9.904  12.015  15.918  1.00 22.08 LIG 0.27  C 
ATOM     21  CB  ALA B   1       8.791  11.212  16.536  1.00 22.59 LIG 0.05  C 
BRANCH 20 22
ATOM     22  N   ALA B   1      10.885  11.114  15.250  1.00 23.15 LIG-0.07  N 
ATOM     23 H3   ALA B   1      10.456  10.569  14.693  1.00 23.15 LIG 0.28  HD
ATOM     24 H2   ALA B   1      11.312  10.633  15.864  1.00 23.15 LIG 0.28  HD
ATOM     25 H1   ALA B   1      11.473  11.602  14.793  1.00 23.15 LIG 0.28  HD
ENDBRANCH 20 22
ENDBRANCH 1 20
TORSDOF 7
ENDMDL
MODEL 48
USER: ADFR SOLUTION from run 90
USER: SCORE 7.051232 LL:  -1.605 LR:  -5.446 RR:   0.000 FEB:  -3.358
USER: RMSD 7.349051
USER: SEED 89
USER: STATUS no improvement in best in 35 clusters for 5 generations
USER: GENES 9
USER: genes 0 Translation |==|  0.15987 0.35691 0.69586
USER: genes 1 Rotation |==|  0.13119 0.27953 0.55789 0.74903
USER: genes 2 Torsion [N]-CA--C-[N] |==|  0.96432
USER: genes 3 Torsion [C]-N--CA-[CB] |==|  0.81457
USER: genes 4 Torsion [N]-CA--C-[OXT] |==|  0.14037
USER: genes 5 Torsion [N]-CA--CB-[CG2] |==|  0.58468
USER: genes 6 Torsion [CA]-CB--OG1-[HG1] |==|  0.06172
USER: genes 7 Torsion [N]-C--CA-[N] |==|  0.16410
USER: genes 8 Torsion [C]-CA--N-[H2] |==|  0.76179
ROOT
ATOM      1  C   ALA B   1      -1.504   9.718  24.397  1.00 21.61 LIG 0.25  C 
ATOM      2 O    ALA B   1      -1.409  10.926  24.646  1.00 21.59 LIG-0.27  OA
ATOM      3  N   PRO B   2      -1.523   8.771  25.358  1.00 20.68 LIG-0.34  N 
ATOM      4  CA  PRO B   2      -1.259   9.133  26.754  1.00 19.66 LIG 0.18  C 
ATOM      5  CB  PRO B   2      -1.542   7.836  27.512  1.00 19.68 LIG 0.04  C 
ATOM      6  CG  PRO B   2      -1.340   6.747  26.499  1.00 19.82 LIG 0.02  C 
ATOM      7  CD  PRO B   2      -1.825   7.334  25.208  1.00 21.17 LIG 0.13  C 
ENDROOT
BRANCH 4 8
ATOM      8  C   PRO B   2       0.188   9.591  26.973  1.00 18.80 LIG 0.24  C 
ATOM      9  N   THR B   3       1.038   9.350  25.981  1.00 18.04 LIG-0.34  N 
ATOM     10 H    THR B   3       0.807   9.002  25.229  1.00 18.04 LIG 0.16  HD
ATOM     11 O    PRO B   2       0.526  10.127  28.033  1.00 18.43 LIG-0.27  OA
BRANCH 9 12
ATOM     12  CA  THR B   3       2.471   9.661  26.082  1.00 16.71 LIG 0.21  C 
BRANCH 12 13
ATOM     13  C   THR B   3       3.103   8.954  27.285  1.00 16.11 LIG 0.20  C 
ATOM     14 OXT  THR B   3       2.936   7.742  27.459  1.00 14.78 LIG-0.65  OA
ATOM     15 O    THR B   3       3.775   9.592  28.116  1.00 14.64 LIG-0.65  OA
ENDBRANCH 12 13
BRANCH 12 16
ATOM     16  CB  THR B   3       2.737  11.191  26.161  1.00 16.70 LIG 0.15  C 
ATOM     17  CG2 THR B   3       4.087  11.531  25.530  1.00 16.85 LIG 0.04  C 
BRANCH 16 18
ATOM     18 OG1  THR B   3       1.598  11.982  25.526  1.00 17.97 LIG-0.39  OA
ATOM     19 HG1  THR B   3       0.901  11.511  25.516  1.00 17.97 LIG 0.21  HD
ENDBRANCH 16 18
ENDBRANCH 12 16
ENDBRANCH 9 12
ENDBRANCH 4 8
BRANCH 1 20
ATOM     20  CA  ALA B   1      -1.625   9.238  22.948  1.00 22.08 LIG 0.27  C 
ATOM     21  CB  ALA B   1      -1.552  10.412  22.008  1.00 22.59 LIG 0.05  C 
BRANCH 20 22
ATOM     22  N   ALA B   1      -2.897   8.489  22.745  1.00 23.15 LIG-0.07  N 
ATOM     23 H3   ALA B   1      -3.534   8.842  23.256  1.00 23.15 LIG 0.28  HD
ATOM     24 H2   ALA B   1      -2.778   7.636  22.967  1.00 23.15 LIG 0.28  HD
ATOM     25 H1   ALA B   1      -3.140   8.542  21.890  1.00 23.15 LIG 0.28  HD
ENDBRANCH 20 22
ENDBRANCH 1 20
TORSDOF 7
ENDMDL
MODEL 49
USER: ADFR SOLUTION from run 92
USER: SCORE 7.093475 LL:  -1.648 LR:  -5.446 RR:   0.000 FEB:  -3.357
USER: RMSD 7.064803
USER: SEED 91
USER: STATUS no improvement in best in 33 clusters for 5 generations
USER: GENES 9
USER: genes 0 Translation |==|  0.81565 0.54077 0.17617
USER: genes 1 Rotation |==|  0.27006 0.22813 0.18709 0.65906
USER: genes 2 Torsion [N]-CA--C-[N] |==|  0.43078
USER: genes 3 Torsion [C]-N--CA-[CB] |==|  0.17757
USER: genes 4 Torsion [N]-CA--C-[OXT] |==|  0.72405
USER: genes 5 Torsion [N]-CA--CB-[CG2] |==|  0.68933
USER: genes 6 Torsion [CA]-CB--OG1-[HG1] |==|  0.83716
USER: genes 7 Torsion [N]-C--CA-[N] |==|  0.29219
USER: genes 8 Torsion [C]-CA--N-[H2] |==|  0.21814
ROOT
ATOM      1  C   ALA B   1       8.825  12.476  16.602  1.00 21.61 LIG 0.25  C 
ATOM      2 O    ALA B   1       8.300  13.216  17.444  1.00 21.59 LIG-0.27  OA
ATOM      3  N   PRO B   2       8.129  11.554  15.902  1.00 20.68 LIG-0.34  N 
ATOM      4  CA  PRO B   2       6.731  11.275  16.239  1.00 19.66 LIG 0.18  C 
ATOM      5  CB  PRO B   2       6.284  10.326  15.126  1.00 19.68 LIG 0.04  C 
ATOM      6  CG  PRO B   2       7.550   9.683  14.640  1.00 19.82 LIG 0.02  C 
ATOM      7  CD  PRO B   2       8.589  10.758  14.748  1.00 21.17 LIG 0.13  C 
ENDROOT
BRANCH 4 8
ATOM      8  C   PRO B   2       6.584  10.614  17.614  1.00 18.80 LIG 0.24  C 
ATOM      9  N   THR B   3       5.416  10.781  18.226  1.00 18.04 LIG-0.34  N 
ATOM     10 H    THR B   3       4.747  11.191  17.873  1.00 18.04 LIG 0.16  HD
ATOM     11 O    PRO B   2       7.522   9.989  18.117  1.00 18.43 LIG-0.27  OA
BRANCH 9 12
ATOM     12  CA  THR B   3       5.160  10.273  19.581  1.00 16.71 LIG 0.21  C 
BRANCH 12 13
ATOM     13  C   THR B   3       3.686  10.440  19.962  1.00 16.11 LIG 0.20  C 
ATOM     14 OXT  THR B   3       3.324  11.387  20.667  1.00 14.78 LIG-0.65  OA
ATOM     15 O    THR B   3       2.835   9.614  19.584  1.00 14.64 LIG-0.65  OA
ENDBRANCH 12 13
BRANCH 12 16
ATOM     16  CB  THR B   3       6.067  10.954  20.646  1.00 16.70 LIG 0.15  C 
ATOM     17  CG2 THR B   3       7.070   9.949  21.212  1.00 16.85 LIG 0.04  C 
BRANCH 16 18
ATOM     18 OG1  THR B   3       6.758  12.187  20.074  1.00 17.97 LIG-0.39  OA
ATOM     19 HG1  THR B   3       7.220  11.966  19.407  1.00 17.97 LIG 0.21  HD
ENDBRANCH 16 18
ENDBRANCH 12 16
ENDBRANCH 9 12
ENDBRANCH 4 8
BRANCH 1 20
ATOM     20  CA  ALA B   1      10.321  12.593  16.300  1.00 22.08 LIG 0.27  C 
ATOM     21  CB  ALA B   1      11.107  12.614  17.583  1.00 22.59 LIG 0.05  C 
BRANCH 20 22
ATOM     22  N   ALA B   1      10.603  13.816  15.497  1.00 23.15 LIG-0.07  N 
ATOM     23 H3   ALA B   1      11.399  13.739  15.108  1.00 23.15 LIG 0.28  HD
ATOM     24 H2   ALA B   1      10.603  14.528  16.031  1.00 23.15 LIG 0.28  HD
ATOM     25 H1   ALA B   1       9.976  13.914  14.873  1.00 23.15 LIG 0.28  HD
ENDBRANCH 20 22
ENDBRANCH 1 20
TORSDOF 7
ENDMDL
MODEL 50
USER: ADFR SOLUTION from run 155
USER: SCORE 6.871288 LL:  -1.454 LR:  -5.417 RR:   0.000 FEB:  -3.329
USER: RMSD 6.797222
USER: SEED 154
USER: STATUS no improvement in best in 34 clusters for 5 generations
USER: GENES 9
USER: genes 0 Translation |==|  0.87265 0.62610 0.44710
USER: genes 1 Rotation |==|  0.34266 0.94627 0.48816 0.66109
USER: genes 2 Torsion [N]-CA--C-[N] |==|  0.30350
USER: genes 3 Torsion [C]-N--CA-[CB] |==|  0.12972
USER: genes 4 Torsion [N]-CA--C-[OXT] |==|  0.38980
USER: genes 5 Torsion [N]-CA--CB-[CG2] |==|  0.29710
USER: genes 6 Torsion [CA]-CB--OG1-[HG1] |==|  0.91846
USER: genes 7 Torsion [N]-C--CA-[N] |==|  0.24686
USER: genes 8 Torsion [C]-CA--N-[H2] |==|  0.07637
ROOT
ATOM      1  C   ALA B   1       9.722  13.756  20.665  1.00 21.61 LIG 0.25  C 
ATOM      2 O    ALA B   1       9.609  13.007  19.686  1.00 21.59 LIG-0.27  OA
ATOM      3  N   PRO B   2       9.775  13.298  21.934  1.00 20.68 LIG-0.34  N 
ATOM      4  CA  PRO B   2       9.527  11.882  22.217  1.00 19.66 LIG 0.18  C 
ATOM      5  CB  PRO B   2       9.846  11.761  23.708  1.00 19.68 LIG 0.04  C 
ATOM      6  CG  PRO B   2       9.649  13.144  24.256  1.00 19.82 LIG 0.02  C 
ATOM      7  CD  PRO B   2      10.102  14.056  23.157  1.00 21.17 LIG 0.13  C 
ENDROOT
BRANCH 4 8
ATOM      8  C   PRO B   2       8.076  11.477  21.934  1.00 18.80 LIG 0.24  C 
ATOM      9  N   THR B   3       7.879  10.693  20.879  1.00 18.04 LIG-0.34  N 
ATOM     10 H    THR B   3       8.516  10.376  20.395  1.00 18.04 LIG 0.16  HD
ATOM     11 O    PRO B   2       7.154  11.892  22.644  1.00 18.43 LIG-0.27  OA
BRANCH 9 12
ATOM     12  CA  THR B   3       6.535  10.290  20.440  1.00 16.71 LIG 0.21  C 
BRANCH 12 13
ATOM     13  C   THR B   3       6.587   9.592  19.078  1.00 16.11 LIG 0.20  C 
ATOM     14 OXT  THR B   3       5.873   8.610  18.849  1.00 14.78 LIG-0.65  OA
ATOM     15 O    THR B   3       7.364   9.989  18.190  1.00 14.64 LIG-0.65  OA
ENDBRANCH 12 13
BRANCH 12 16
ATOM     16  CB  THR B   3       5.549  11.493  20.387  1.00 16.70 LIG 0.15  C 
ATOM     17  CG2 THR B   3       5.263  11.883  18.937  1.00 16.85 LIG 0.04  C 
BRANCH 16 18
ATOM     18 OG1  THR B   3       4.269  11.190  21.158  1.00 17.97 LIG-0.39  OA
ATOM     19 HG1  THR B   3       4.118  10.364  21.138  1.00 17.97 LIG 0.21  HD
ENDBRANCH 16 18
ENDBRANCH 12 16
ENDBRANCH 9 12
ENDBRANCH 4 8
BRANCH 1 20
ATOM     20  CA  ALA B   1       9.829  15.270  20.468  1.00 22.08 LIG 0.27  C 
ATOM     21  CB  ALA B   1       9.040  15.690  19.257  1.00 22.59 LIG 0.05  C 
BRANCH 20 22
ATOM     22  N   ALA B   1      11.253  15.685  20.330  1.00 23.15 LIG-0.07  N 
ATOM     23 H3   ALA B   1      11.307  16.385  19.783  1.00 23.15 LIG 0.28  HD
ATOM     24 H2   ALA B   1      11.728  15.011  19.996  1.00 23.15 LIG 0.28  HD
ATOM     25 H1   ALA B   1      11.577  15.908  21.129  1.00 23.15 LIG 0.28  HD
ENDBRANCH 20 22
ENDBRANCH 1 20
TORSDOF 7
ENDMDL
MODEL 51
USER: ADFR SOLUTION from run 57
USER: SCORE 7.162086 LL:  -1.751 LR:  -5.411 RR:   0.000 FEB:  -3.323
USER: RMSD 7.156685
USER: SEED 56
USER: STATUS no improvement in best in 38 clusters for 5 generations
USER: GENES 9
USER: genes 0 Translation |==|  0.90481 0.66937 0.55395
USER: genes 1 Rotation |==|  0.27125 0.84498 0.43010 0.77161
USER: genes 2 Torsion [N]-CA--C-[N] |==|  0.85560
USER: genes 3 Torsion [C]-N--CA-[CB] |==|  0.85684
USER: genes 4 Torsion [N]-CA--C-[OXT] |==|  0.72015
USER: genes 5 Torsion [N]-CA--CB-[CG2] |==|  0.55079
USER: genes 6 Torsion [CA]-CB--OG1-[HG1] |==|  0.21717
USER: genes 7 Torsion [N]-C--CA-[N] |==|  0.41558
USER: genes 8 Torsion [C]-CA--N-[H2] |==|  0.04142
ROOT
ATOM      1  C   ALA B   1      10.229  14.404  22.268  1.00 21.61 LIG 0.25  C 
ATOM      2 O    ALA B   1      10.896  13.601  21.604  1.00 21.59 LIG-0.27  OA
ATOM      3  N   PRO B   2       9.645  14.078  23.440  1.00 20.68 LIG-0.34  N 
ATOM      4  CA  PRO B   2       9.640  12.686  23.898  1.00 19.66 LIG 0.18  C 
ATOM      5  CB  PRO B   2       9.050  12.781  25.305  1.00 19.68 LIG 0.04  C 
ATOM      6  CG  PRO B   2       8.235  14.041  25.295  1.00 19.82 LIG 0.02  C 
ATOM      7  CD  PRO B   2       8.999  14.981  24.412  1.00 21.17 LIG 0.13  C 
ENDROOT
BRANCH 4 8
ATOM      8  C   PRO B   2       8.781  11.782  23.005  1.00 18.80 LIG 0.24  C 
ATOM      9  N   THR B   3       7.537  12.192  22.776  1.00 18.04 LIG-0.34  N 
ATOM     10 H    THR B   3       7.222  12.940  23.061  1.00 18.04 LIG 0.16  HD
ATOM     11 O    PRO B   2       9.233  10.724  22.558  1.00 18.43 LIG-0.27  OA
BRANCH 9 12
ATOM     12  CA  THR B   3       6.576  11.389  22.006  1.00 16.71 LIG 0.21  C 
BRANCH 12 13
ATOM     13  C   THR B   3       6.110  10.171  22.807  1.00 16.11 LIG 0.20  C 
ATOM     14 OXT  THR B   3       6.591   9.054  22.587  1.00 14.78 LIG-0.65  OA
ATOM     15 O    THR B   3       5.227  10.282  23.677  1.00 14.64 LIG-0.65  OA
ENDBRANCH 12 13
BRANCH 12 16
ATOM     16  CB  THR B   3       7.154  10.938  20.634  1.00 16.70 LIG 0.15  C 
ATOM     17  CG2 THR B   3       6.025  10.517  19.694  1.00 16.85 LIG 0.04  C 
BRANCH 16 18
ATOM     18 OG1  THR B   3       8.030  12.024  20.020  1.00 17.97 LIG-0.39  OA
ATOM     19 HG1  THR B   3       8.782  12.023  20.394  1.00 17.97 LIG 0.21  HD
ENDBRANCH 16 18
ENDBRANCH 12 16
ENDBRANCH 9 12
ENDBRANCH 4 8
BRANCH 1 20
ATOM     20  CA  ALA B   1      10.050  15.845  21.781  1.00 22.08 LIG 0.27  C 
ATOM     21  CB  ALA B   1       8.790  15.962  20.966  1.00 22.59 LIG 0.05  C 
BRANCH 20 22
ATOM     22  N   ALA B   1      11.229  16.281  20.981  1.00 23.15 LIG-0.07  N 
ATOM     23 H3   ALA B   1      10.951  16.698  20.245  1.00 23.15 LIG 0.28  HD
ATOM     24 H2   ALA B   1      11.712  15.570  20.752  1.00 23.15 LIG 0.28  HD
ATOM     25 H1   ALA B   1      11.728  16.836  21.465  1.00 23.15 LIG 0.28  HD
ENDBRANCH 20 22
ENDBRANCH 1 20
TORSDOF 7
ENDMDL
MODEL 52
USER: ADFR SOLUTION from run 196
USER: SCORE 6.992858 LL:  -1.604 LR:  -5.389 RR:   0.000 FEB:  -3.301
USER: RMSD 5.054848
USER: SEED 195
USER: STATUS no improvement in best in 33 clusters for 5 generations
USER: GENES 9
USER: genes 0 Translation |==|  0.14690 0.37389 0.62650
USER: genes 1 Rotation |==|  0.87577 0.51325 0.20487 0.64669
USER: genes 2 Torsion [N]-CA--C-[N] |==|  0.31454
USER: genes 3 Torsion [C]-N--CA-[CB] |==|  0.85298
USER: genes 4 Torsion [N]-CA--C-[OXT] |==|  0.43862
USER: genes 5 Torsion [N]-CA--CB-[CG2] |==|  0.32227
USER: genes 6 Torsion [CA]-CB--OG1-[HG1] |==|  0.76184
USER: genes 7 Torsion [N]-C--CA-[N] |==|  0.49068
USER: genes 8 Torsion [C]-CA--N-[H2] |==|  0.36455
ROOT
ATOM      1  C   ALA B   1      -1.708   9.972  23.356  1.00 21.61 LIG 0.25  C 
ATOM      2 O    ALA B   1      -2.019   9.619  22.212  1.00 21.59 LIG-0.27  OA
ATOM      3  N   PRO B   2      -1.213  11.196  23.636  1.00 20.68 LIG-0.34  N 
ATOM      4  CA  PRO B   2      -0.861  12.114  22.549  1.00 19.66 LIG 0.18  C 
ATOM      5  CB  PRO B   2      -0.515  13.411  23.283  1.00 19.68 LIG 0.04  C 
ATOM      6  CG  PRO B   2      -0.110  12.975  24.660  1.00 19.82 LIG 0.02  C 
ATOM      7  CD  PRO B   2      -0.992  11.802  24.963  1.00 21.17 LIG 0.13  C 
ENDROOT
BRANCH 4 8
ATOM      8  C   PRO B   2       0.333  11.614  21.728  1.00 18.80 LIG 0.24  C 
ATOM      9  N   THR B   3       0.079  11.272  20.469  1.00 18.04 LIG-0.34  N 
ATOM     10 H    THR B   3      -0.691  11.362  20.096  1.00 18.04 LIG 0.16  HD
ATOM     11 O    PRO B   2       1.453  11.516  22.238  1.00 18.43 LIG-0.27  OA
BRANCH 9 12
ATOM     12  CA  THR B   3       1.108  10.701  19.588  1.00 16.71 LIG 0.21  C 
BRANCH 12 13
ATOM     13  C   THR B   3       1.466   9.275  20.014  1.00 16.11 LIG 0.20  C 
ATOM     14 OXT  THR B   3       1.978   8.490  19.209  1.00 14.78 LIG-0.65  OA
ATOM     15 O    THR B   3       1.228   8.878  21.169  1.00 14.64 LIG-0.65  OA
ENDBRANCH 12 13
BRANCH 12 16
ATOM     16  CB  THR B   3       2.390  11.581  19.534  1.00 16.70 LIG 0.15  C 
ATOM     17  CG2 THR B   3       3.582  10.820  20.114  1.00 16.85 LIG 0.04  C 
BRANCH 16 18
ATOM     18 OG1  THR B   3       2.663  12.071  18.117  1.00 17.97 LIG-0.39  OA
ATOM     19 HG1  THR B   3       3.102  11.489  17.698  1.00 17.97 LIG 0.21  HD
ENDBRANCH 16 18
ENDBRANCH 12 16
ENDBRANCH 9 12
ENDBRANCH 4 8
BRANCH 1 20
ATOM     20  CA  ALA B   1      -1.896   9.013  24.535  1.00 22.08 LIG 0.27  C 
ATOM     21  CB  ALA B   1      -0.571   8.742  25.197  1.00 22.59 LIG 0.05  C 
BRANCH 20 22
ATOM     22  N   ALA B   1      -2.522   7.739  24.084  1.00 23.15 LIG-0.07  N 
ATOM     23 H3   ALA B   1      -3.359   7.698  24.382  1.00 23.15 LIG 0.28  HD
ATOM     24 H2   ALA B   1      -2.059   7.050  24.406  1.00 23.15 LIG 0.28  HD
ATOM     25 H1   ALA B   1      -2.522   7.707  23.195  1.00 23.15 LIG 0.28  HD
ENDBRANCH 20 22
ENDBRANCH 1 20
TORSDOF 7
ENDMDL
MODEL 53
USER: ADFR SOLUTION from run 39
USER: SCORE 7.047864 LL:  -1.671 LR:  -5.377 RR:   0.000 FEB:  -3.289
USER: RMSD 7.551855
USER: SEED 38
USER: STATUS no improvement in best in 21 clusters for 5 generations
USER: GENES 9
USER: genes 0 Translation |==|  0.12210 0.20016 0.77746
USER: genes 1 Rotation |==|  0.91233 0.51492 0.51100 0.78221
USER: genes 2 Torsion [N]-CA--C-[N] |==|  0.32321
USER: genes 3 Torsion [C]-N--CA-[CB] |==|  0.22669
USER: genes 4 Torsion [N]-CA--C-[OXT] |==|  0.58444
USER: genes 5 Torsion [N]-CA--CB-[CG2] |==|  0.58233
USER: genes 6 Torsion [CA]-CB--OG1-[HG1] |==|  0.32833
USER: genes 7 Torsion [N]-C--CA-[N] |==|  0.37253
USER: genes 8 Torsion [C]-CA--N-[H2] |==|  0.66042
ROOT
ATOM      1  C   ALA B   1      -2.099   7.366  25.621  1.00 21.61 LIG 0.25  C 
ATOM      2 O    ALA B   1      -1.020   7.005  25.134  1.00 21.59 LIG-0.27  OA
ATOM      3  N   PRO B   2      -2.666   8.558  25.340  1.00 20.68 LIG-0.34  N 
ATOM      4  CA  PRO B   2      -1.930   9.560  24.563  1.00 19.66 LIG 0.18  C 
ATOM      5  CB  PRO B   2      -2.969  10.658  24.332  1.00 19.68 LIG 0.04  C 
ATOM      6  CG  PRO B   2      -3.951  10.499  25.456  1.00 19.82 LIG 0.02  C 
ATOM      7  CD  PRO B   2      -4.022   9.021  25.693  1.00 21.17 LIG 0.13  C 
ENDROOT
BRANCH 4 8
ATOM      8  C   PRO B   2      -0.714  10.106  25.320  1.00 18.80 LIG 0.24  C 
ATOM      9  N   THR B   3       0.475   9.857  24.781  1.00 18.04 LIG-0.34  N 
ATOM     10 H    THR B   3       0.582   9.458  24.027  1.00 18.04 LIG 0.16  HD
ATOM     11 O    PRO B   2      -0.856  10.716  26.384  1.00 18.43 LIG-0.27  OA
BRANCH 9 12
ATOM     12  CA  THR B   3       1.731  10.250  25.436  1.00 16.71 LIG 0.21  C 
BRANCH 12 13
ATOM     13  C   THR B   3       2.853  10.432  24.410  1.00 16.11 LIG 0.20  C 
ATOM     14 OXT  THR B   3       4.028  10.208  24.720  1.00 14.78 LIG-0.65  OA
ATOM     15 O    THR B   3       2.602  10.827  23.258  1.00 14.64 LIG-0.65  OA
ENDBRANCH 12 13
BRANCH 12 16
ATOM     16  CB  THR B   3       2.166   9.233  26.530  1.00 16.70 LIG 0.15  C 
ATOM     17  CG2 THR B   3       2.955   9.941  27.631  1.00 16.85 LIG 0.04  C 
BRANCH 16 18
ATOM     18 OG1  THR B   3       0.966   8.476  27.088  1.00 17.97 LIG-0.39  OA
ATOM     19 HG1  THR B   3       1.054   7.655  26.931  1.00 17.97 LIG 0.21  HD
ENDBRANCH 16 18
ENDBRANCH 12 16
ENDBRANCH 9 12
ENDBRANCH 4 8
BRANCH 1 20
ATOM     20  CA  ALA B   1      -2.862   6.441  26.573  1.00 22.08 LIG 0.27  C 
ATOM     21  CB  ALA B   1      -2.226   6.466  27.937  1.00 22.59 LIG 0.05  C 
BRANCH 20 22
ATOM     22  N   ALA B   1      -2.897   5.050  26.041  1.00 23.15 LIG-0.07  N 
ATOM     23 H3   ALA B   1      -2.493   5.025  25.249  1.00 23.15 LIG 0.28  HD
ATOM     24 H2   ALA B   1      -3.742   4.788  25.951  1.00 23.15 LIG 0.28  HD
ATOM     25 H1   ALA B   1      -2.476   4.506  26.606  1.00 23.15 LIG 0.28  HD
ENDBRANCH 20 22
ENDBRANCH 1 20
TORSDOF 7
ENDMDL
MODEL 54
USER: ADFR SOLUTION from run 35
USER: SCORE 7.295746 LL:  -1.929 LR:  -5.366 RR:   0.000 FEB:  -3.278
USER: RMSD 7.052428
USER: SEED 34
USER: STATUS no improvement in best in 34 clusters for 5 generations
USER: GENES 9
USER: genes 0 Translation |==|  0.86272 0.69168 0.42752
USER: genes 1 Rotation |==|  0.46564 0.22053 0.09054 0.55533
USER: genes 2 Torsion [N]-CA--C-[N] |==|  0.94895
USER: genes 3 Torsion [C]-N--CA-[CB] |==|  0.20532
USER: genes 4 Torsion [N]-CA--C-[OXT] |==|  0.48283
USER: genes 5 Torsion [N]-CA--CB-[CG2] |==|  0.60209
USER: genes 6 Torsion [CA]-CB--OG1-[HG1] |==|  0.24195
USER: genes 7 Torsion [N]-C--CA-[N] |==|  0.30132
USER: genes 8 Torsion [C]-CA--N-[H2] |==|  0.79503
ROOT
ATOM      1  C   ALA B   1       9.566  14.739  20.372  1.00 21.61 LIG 0.25  C 
ATOM      2 O    ALA B   1       8.470  15.281  20.567  1.00 21.59 LIG-0.27  OA
ATOM      3  N   PRO B   2       9.857  14.063  19.241  1.00 20.68 LIG-0.34  N 
ATOM      4  CA  PRO B   2       8.810  13.797  18.251  1.00 19.66 LIG 0.18  C 
ATOM      5  CB  PRO B   2       9.579  13.180  17.083  1.00 19.68 LIG 0.04  C 
ATOM      6  CG  PRO B   2      10.816  12.599  17.702  1.00 19.82 LIG 0.02  C 
ATOM      7  CD  PRO B   2      11.170  13.548  18.807  1.00 21.17 LIG 0.13  C 
ENDROOT
BRANCH 4 8
ATOM      8  C   PRO B   2       7.744  12.829  18.777  1.00 18.80 LIG 0.24  C 
ATOM      9  N   THR B   3       8.084  12.095  19.832  1.00 18.04 LIG-0.34  N 
ATOM     10 H    THR B   3       8.834  12.174  20.245  1.00 18.04 LIG 0.16  HD
ATOM     11 O    PRO B   2       6.647  12.733  18.217  1.00 18.43 LIG-0.27  OA
BRANCH 9 12
ATOM     12  CA  THR B   3       7.194  11.069  20.394  1.00 16.71 LIG 0.21  C 
BRANCH 12 13
ATOM     13  C   THR B   3       7.619  10.692  21.816  1.00 16.11 LIG 0.20  C 
ATOM     14 OXT  THR B   3       6.926   9.929  22.496  1.00 14.78 LIG-0.65  OA
ATOM     15 O    THR B   3       8.656  11.165  22.315  1.00 14.64 LIG-0.65  OA
ENDBRANCH 12 13
BRANCH 12 16
ATOM     16  CB  THR B   3       7.127   9.796  19.502  1.00 16.70 LIG 0.15  C 
ATOM     17  CG2 THR B   3       5.713   9.216  19.509  1.00 16.85 LIG 0.04  C 
BRANCH 16 18
ATOM     18 OG1  THR B   3       7.614  10.089  18.087  1.00 17.97 LIG-0.39  OA
ATOM     19 HG1  THR B   3       8.448   9.991  18.051  1.00 17.97 LIG 0.21  HD
ENDBRANCH 16 18
ENDBRANCH 12 16
ENDBRANCH 9 12
ENDBRANCH 4 8
BRANCH 1 20
ATOM     20  CA  ALA B   1      10.670  14.834  21.428  1.00 22.08 LIG 0.27  C 
ATOM     21  CB  ALA B   1      10.137  14.413  22.772  1.00 22.59 LIG 0.05  C 
BRANCH 20 22
ATOM     22  N   ALA B   1      11.217  16.218  21.497  1.00 23.15 LIG-0.07  N 
ATOM     23 H3   ALA B   1      10.546  16.802  21.511  1.00 23.15 LIG 0.28  HD
ATOM     24 H2   ALA B   1      11.728  16.371  20.785  1.00 23.15 LIG 0.28  HD
ATOM     25 H1   ALA B   1      11.705  16.308  22.236  1.00 23.15 LIG 0.28  HD
ENDBRANCH 20 22
ENDBRANCH 1 20
TORSDOF 7
ENDMDL
MODEL 55
USER: ADFR SOLUTION from run 164
USER: SCORE 6.851357 LL:  -1.506 LR:  -5.345 RR:   0.000 FEB:  -3.257
USER: RMSD 5.017352
USER: SEED 163
USER: STATUS no improvement in best in 22 clusters for 5 generations
USER: GENES 9
USER: genes 0 Translation |==|  0.53068 0.46733 0.47122
USER: genes 1 Rotation |==|  0.37500 0.25403 0.70198 0.86480
USER: genes 2 Torsion [N]-CA--C-[N] |==|  0.69121
USER: genes 3 Torsion [C]-N--CA-[CB] |==|  0.25775
USER: genes 4 Torsion [N]-CA--C-[OXT] |==|  0.60846
USER: genes 5 Torsion [N]-CA--CB-[CG2] |==|  0.15128
USER: genes 6 Torsion [CA]-CB--OG1-[HG1] |==|  0.85334
USER: genes 7 Torsion [N]-C--CA-[N] |==|  0.86893
USER: genes 8 Torsion [C]-CA--N-[H2] |==|  0.17235
ROOT
ATOM      1  C   ALA B   1       4.336  11.374  21.027  1.00 21.61 LIG 0.25  C 
ATOM      2 O    ALA B   1       4.096  12.067  22.024  1.00 21.59 LIG-0.27  OA
ATOM      3  N   PRO B   2       5.450  10.621  20.910  1.00 20.68 LIG-0.34  N 
ATOM      4  CA  PRO B   2       6.520  10.728  21.906  1.00 19.66 LIG 0.18  C 
ATOM      5  CB  PRO B   2       7.487   9.614  21.504  1.00 19.68 LIG 0.04  C 
ATOM      6  CG  PRO B   2       7.230   9.392  20.042  1.00 19.82 LIG 0.02  C 
ATOM      7  CD  PRO B   2       5.757   9.613  19.877  1.00 21.17 LIG 0.13  C 
ENDROOT
BRANCH 4 8
ATOM      8  C   PRO B   2       7.214  12.095  21.871  1.00 18.80 LIG 0.24  C 
ATOM      9  N   THR B   3       8.470  12.106  21.436  1.00 18.04 LIG-0.34  N 
ATOM     10 H    THR B   3       8.878  11.409  21.139  1.00 18.04 LIG 0.16  HD
ATOM     11 O    PRO B   2       6.628  13.110  22.258  1.00 18.43 LIG-0.27  OA
BRANCH 9 12
ATOM     12  CA  THR B   3       9.285  13.329  21.423  1.00 16.71 LIG 0.21  C 
BRANCH 12 13
ATOM     13  C   THR B   3      10.198  13.368  20.194  1.00 16.11 LIG 0.20  C 
ATOM     14 OXT  THR B   3      11.353  13.797  20.284  1.00 14.78 LIG-0.65  OA
ATOM     15 O    THR B   3       9.784  12.989  19.083  1.00 14.64 LIG-0.65  OA
ENDBRANCH 12 13
BRANCH 12 16
ATOM     16  CB  THR B   3      10.129  13.487  22.720  1.00 16.70 LIG 0.15  C 
ATOM     17  CG2 THR B   3      10.978  12.239  22.959  1.00 16.85 LIG 0.04  C 
BRANCH 16 18
ATOM     18 OG1  THR B   3      10.978  14.752  22.675  1.00 17.97 LIG-0.39  OA
ATOM     19 HG1  THR B   3      11.430  14.762  21.966  1.00 17.97 LIG 0.21  HD
ENDBRANCH 16 18
ENDBRANCH 12 16
ENDBRANCH 9 12
ENDBRANCH 4 8
BRANCH 1 20
ATOM     20  CA  ALA B   1       3.341  11.328  19.864  1.00 22.08 LIG 0.27  C 
ATOM     21  CB  ALA B   1       2.576  10.032  19.891  1.00 22.59 LIG 0.05  C 
BRANCH 20 22
ATOM     22  N   ALA B   1       4.045  11.489  18.561  1.00 23.15 LIG-0.07  N 
ATOM     23 H3   ALA B   1       3.450  11.489  17.900  1.00 23.15 LIG 0.28  HD
ATOM     24 H2   ALA B   1       4.615  10.815  18.446  1.00 23.15 LIG 0.28  HD
ATOM     25 H1   ALA B   1       4.492  12.259  18.558  1.00 23.15 LIG 0.28  HD
ENDBRANCH 20 22
ENDBRANCH 1 20
TORSDOF 7
ENDMDL
MODEL 56
USER: ADFR SOLUTION from run 163
USER: SCORE 6.983021 LL:  -1.644 LR:  -5.339 RR:   0.000 FEB:  -3.251
USER: RMSD 5.830767
USER: SEED 162
USER: STATUS no improvement in best in 32 clusters for 5 generations
USER: GENES 9
USER: genes 0 Translation |==|  0.14303 0.42020 0.64639
USER: genes 1 Rotation |==|  0.14205 0.28936 0.67096 0.71971
USER: genes 2 Torsion [N]-CA--C-[N] |==|  0.91643
USER: genes 3 Torsion [C]-N--CA-[CB] |==|  0.28975
USER: genes 4 Torsion [N]-CA--C-[OXT] |==|  0.94690
USER: genes 5 Torsion [N]-CA--CB-[CG2] |==|  0.95032
USER: genes 6 Torsion [CA]-CB--OG1-[HG1] |==|  0.93324
USER: genes 7 Torsion [N]-C--CA-[N] |==|  0.17983
USER: genes 8 Torsion [C]-CA--N-[H2] |==|  0.44386
ROOT
ATOM      1  C   ALA B   1      -1.769  10.667  23.655  1.00 21.61 LIG 0.25  C 
ATOM      2 O    ALA B   1      -1.934  11.891  23.579  1.00 21.59 LIG-0.27  OA
ATOM      3  N   PRO B   2      -1.280  10.061  24.757  1.00 20.68 LIG-0.34  N 
ATOM      4  CA  PRO B   2      -0.758  10.862  25.868  1.00 19.66 LIG 0.18  C 
ATOM      5  CB  PRO B   2      -0.475   9.819  26.950  1.00 19.68 LIG 0.04  C 
ATOM      6  CG  PRO B   2      -0.272   8.535  26.201  1.00 19.82 LIG 0.02  C 
ATOM      7  CD  PRO B   2      -1.221   8.615  25.044  1.00 21.17 LIG 0.13  C 
ENDROOT
BRANCH 4 8
ATOM      8  C   PRO B   2       0.520  11.619  25.489  1.00 18.80 LIG 0.24  C 
ATOM      9  N   THR B   3       1.296  11.045  24.575  1.00 18.04 LIG-0.34  N 
ATOM     10 H    THR B   3       1.092  10.315  24.168  1.00 18.04 LIG 0.16  HD
ATOM     11 O    PRO B   2       0.806  12.688  26.038  1.00 18.43 LIG-0.27  OA
BRANCH 9 12
ATOM     12  CA  THR B   3       2.590  11.615  24.174  1.00 16.71 LIG 0.21  C 
BRANCH 12 13
ATOM     13  C   THR B   3       2.718  11.666  22.649  1.00 16.11 LIG 0.20  C 
ATOM     14 OXT  THR B   3       1.996  10.962  21.935  1.00 14.78 LIG-0.65  OA
ATOM     15 O    THR B   3       3.565  12.399  22.106  1.00 14.64 LIG-0.65  OA
ENDBRANCH 12 13
BRANCH 12 16
ATOM     16  CB  THR B   3       3.790  10.838  24.786  1.00 16.70 LIG 0.15  C 
ATOM     17  CG2 THR B   3       3.327   9.988  25.968  1.00 16.85 LIG 0.04  C 
BRANCH 16 18
ATOM     18 OG1  THR B   3       4.502  10.002  23.728  1.00 17.97 LIG-0.39  OA
ATOM     19 HG1  THR B   3       3.971   9.833  23.100  1.00 17.97 LIG 0.21  HD
ENDBRANCH 16 18
ENDBRANCH 12 16
ENDBRANCH 9 12
ENDBRANCH 4 8
BRANCH 1 20
ATOM     20  CA  ALA B   1      -2.143   9.766  22.475  1.00 22.08 LIG 0.27  C 
ATOM     21  CB  ALA B   1      -2.503  10.605  21.278  1.00 22.59 LIG 0.05  C 
BRANCH 20 22
ATOM     22  N   ALA B   1      -3.272   8.864  22.836  1.00 23.15 LIG-0.07  N 
ATOM     23 H3   ALA B   1      -2.963   8.172  23.302  1.00 23.15 LIG 0.28  HD
ATOM     24 H2   ALA B   1      -3.665   8.569  22.095  1.00 23.15 LIG 0.28  HD
ATOM     25 H1   ALA B   1      -3.864   9.312  23.328  1.00 23.15 LIG 0.28  HD
ENDBRANCH 20 22
ENDBRANCH 1 20
TORSDOF 7
ENDMDL
MODEL 57
USER: ADFR SOLUTION from run 155
USER: SCORE 6.903680 LL:  -1.560 LR:  -5.344 RR:   0.000 FEB:  -3.256
USER: RMSD 7.383579
USER: SEED 154
USER: STATUS no improvement in best in 34 clusters for 5 generations
USER: GENES 9
USER: genes 0 Translation |==|  0.87658 0.64823 0.46018
USER: genes 1 Rotation |==|  0.35231 0.95120 0.51058 0.65651
USER: genes 2 Torsion [N]-CA--C-[N] |==|  0.83021
USER: genes 3 Torsion [C]-N--CA-[CB] |==|  0.31167
USER: genes 4 Torsion [N]-CA--C-[OXT] |==|  0.47390
USER: genes 5 Torsion [N]-CA--CB-[CG2] |==|  0.22561
USER: genes 6 Torsion [CA]-CB--OG1-[HG1] |==|  0.11315
USER: genes 7 Torsion [N]-C--CA-[N] |==|  0.27222
USER: genes 8 Torsion [C]-CA--N-[H2] |==|  0.03572
ROOT
ATOM      1  C   ALA B   1       9.784  14.087  20.862  1.00 21.61 LIG 0.25  C 
ATOM      2 O    ALA B   1       9.611  13.429  19.828  1.00 21.59 LIG-0.27  OA
ATOM      3  N   PRO B   2       9.893  13.520  22.081  1.00 20.68 LIG-0.34  N 
ATOM      4  CA  PRO B   2       9.639  12.087  22.253  1.00 19.66 LIG 0.18  C 
ATOM      5  CB  PRO B   2      10.030  11.833  23.709  1.00 19.68 LIG 0.04  C 
ATOM      6  CG  PRO B   2       9.880  13.165  24.384  1.00 19.82 LIG 0.02  C 
ATOM      7  CD  PRO B   2      10.291  14.166  23.347  1.00 21.17 LIG 0.13  C 
ENDROOT
BRANCH 4 8
ATOM      8  C   PRO B   2       8.170  11.723  22.009  1.00 18.80 LIG 0.24  C 
ATOM      9  N   THR B   3       7.280  12.293  22.816  1.00 18.04 LIG-0.34  N 
ATOM     10 H    THR B   3       7.485  12.874  23.416  1.00 18.04 LIG 0.16  HD
ATOM     11 O    PRO B   2       7.857  10.920  21.125  1.00 18.43 LIG-0.27  OA
BRANCH 9 12
ATOM     12  CA  THR B   3       5.846  11.976  22.751  1.00 16.71 LIG 0.21  C 
BRANCH 12 13
ATOM     13  C   THR B   3       5.013  13.243  22.537  1.00 16.11 LIG 0.20  C 
ATOM     14 OXT  THR B   3       3.806  13.164  22.285  1.00 14.78 LIG-0.65  OA
ATOM     15 O    THR B   3       5.541  14.368  22.593  1.00 14.64 LIG-0.65  OA
ENDBRANCH 12 13
BRANCH 12 16
ATOM     16  CB  THR B   3       5.353  11.220  24.018  1.00 16.70 LIG 0.15  C 
ATOM     17  CG2 THR B   3       5.086  12.205  25.156  1.00 16.85 LIG 0.04  C 
BRANCH 16 18
ATOM     18 OG1  THR B   3       4.131  10.364  23.708  1.00 17.97 LIG-0.39  OA
ATOM     19 HG1  THR B   3       4.231   9.990  22.962  1.00 17.97 LIG 0.21  HD
ENDBRANCH 16 18
ENDBRANCH 12 16
ENDBRANCH 9 12
ENDBRANCH 4 8
BRANCH 1 20
ATOM     20  CA  ALA B   1       9.903  15.612  20.792  1.00 22.08 LIG 0.27  C 
ATOM     21  CB  ALA B   1       8.898  16.164  19.816  1.00 22.59 LIG 0.05  C 
BRANCH 20 22
ATOM     22  N   ALA B   1      11.282  16.017  20.401  1.00 23.15 LIG-0.07  N 
ATOM     23 H3   ALA B   1      11.241  16.631  19.759  1.00 23.15 LIG 0.28  HD
ATOM     24 H2   ALA B   1      11.727  15.306  20.102  1.00 23.15 LIG 0.28  HD
ATOM     25 H1   ALA B   1      11.705  16.354  21.108  1.00 23.15 LIG 0.28  HD
ENDBRANCH 20 22
ENDBRANCH 1 20
TORSDOF 7
ENDMDL
MODEL 58
USER: ADFR SOLUTION from run 125
USER: SCORE 7.311914 LL:  -1.971 LR:  -5.341 RR:   0.000 FEB:  -3.253
USER: RMSD 6.411411
USER: SEED 124
USER: STATUS no improvement in best in 28 clusters for 5 generations
USER: GENES 9
USER: genes 0 Translation |==|  0.69190 0.39588 0.46737
USER: genes 1 Rotation |==|  0.72177 0.14150 0.70416 0.67496
USER: genes 2 Torsion [N]-CA--C-[N] |==|  0.04904
USER: genes 3 Torsion [C]-N--CA-[CB] |==|  0.27948
USER: genes 4 Torsion [N]-CA--C-[OXT] |==|  0.35677
USER: genes 5 Torsion [N]-CA--CB-[CG2] |==|  0.78927
USER: genes 6 Torsion [CA]-CB--OG1-[HG1] |==|  0.10856
USER: genes 7 Torsion [N]-C--CA-[N] |==|  0.49266
USER: genes 8 Torsion [C]-CA--N-[H2] |==|  0.59096
ROOT
ATOM      1  C   ALA B   1       6.875  10.302  20.970  1.00 21.61 LIG 0.25  C 
ATOM      2 O    ALA B   1       6.688   9.327  21.709  1.00 21.59 LIG-0.27  OA
ATOM      3  N   PRO B   2       7.845  11.214  21.192  1.00 20.68 LIG-0.34  N 
ATOM      4  CA  PRO B   2       8.622  11.176  22.434  1.00 19.66 LIG 0.18  C 
ATOM      5  CB  PRO B   2       9.695  12.241  22.210  1.00 19.68 LIG 0.04  C 
ATOM      6  CG  PRO B   2       9.102  13.176  21.198  1.00 19.82 LIG 0.02  C 
ATOM      7  CD  PRO B   2       8.294  12.296  20.294  1.00 21.17 LIG 0.13  C 
ENDROOT
BRANCH 4 8
ATOM      8  C   PRO B   2       7.769  11.508  23.664  1.00 18.80 LIG 0.24  C 
ATOM      9  N   THR B   3       6.452  11.418  23.509  1.00 18.04 LIG-0.34  N 
ATOM     10 H    THR B   3       6.075  11.145  22.786  1.00 18.04 LIG 0.16  HD
ATOM     11 O    PRO B   2       8.299  11.864  24.721  1.00 18.43 LIG-0.27  OA
BRANCH 9 12
ATOM     12  CA  THR B   3       5.510  11.783  24.577  1.00 16.71 LIG 0.21  C 
BRANCH 12 13
ATOM     13  C   THR B   3       4.397  10.739  24.708  1.00 16.11 LIG 0.20  C 
ATOM     14 OXT  THR B   3       4.133  10.239  25.806  1.00 14.78 LIG-0.65  OA
ATOM     15 O    THR B   3       3.757  10.364  23.709  1.00 14.64 LIG-0.65  OA
ENDBRANCH 12 13
BRANCH 12 16
ATOM     16  CB  THR B   3       4.895  13.195  24.361  1.00 16.70 LIG 0.15  C 
ATOM     17  CG2 THR B   3       5.912  14.278  24.720  1.00 16.85 LIG 0.04  C 
BRANCH 16 18
ATOM     18 OG1  THR B   3       4.370  13.357  22.939  1.00 17.97 LIG-0.39  OA
ATOM     19 HG1  THR B   3       4.006  12.641  22.691  1.00 17.97 LIG 0.21  HD
ENDBRANCH 16 18
ENDBRANCH 12 16
ENDBRANCH 9 12
ENDBRANCH 4 8
BRANCH 1 20
ATOM     20  CA  ALA B   1       6.001  10.507  19.729  1.00 22.08 LIG 0.27  C 
ATOM     21  CB  ALA B   1       5.283  11.827  19.815  1.00 22.59 LIG 0.05  C 
BRANCH 20 22
ATOM     22  N   ALA B   1       5.023   9.392  19.584  1.00 23.15 LIG-0.07  N 
ATOM     23 H3   ALA B   1       5.353   8.656  19.961  1.00 23.15 LIG 0.28  HD
ATOM     24 H2   ALA B   1       4.873   9.239  18.720  1.00 23.15 LIG 0.28  HD
ATOM     25 H1   ALA B   1       4.259   9.613  19.983  1.00 23.15 LIG 0.28  HD
ENDBRANCH 20 22
ENDBRANCH 1 20
TORSDOF 7
ENDMDL
MODEL 59
USER: ADFR SOLUTION from run 40
USER: SCORE 6.980284 LL:  -1.646 LR:  -5.335 RR:   0.000 FEB:  -3.247
USER: RMSD 8.580259
USER: SEED 39
USER: STATUS no improvement in best in 27 clusters for 5 generations
USER: GENES 9
USER: genes 0 Translation |==|  0.92999 0.56109 0.20260
USER: genes 1 Rotation |==|  0.92924 0.35713 0.71024 0.53370
USER: genes 2 Torsion [N]-CA--C-[N] |==|  0.75556
USER: genes 3 Torsion [C]-N--CA-[CB] |==|  0.16529
USER: genes 4 Torsion [N]-CA--C-[OXT] |==|  0.02223
USER: genes 5 Torsion [N]-CA--CB-[CG2] |==|  0.68655
USER: genes 6 Torsion [CA]-CB--OG1-[HG1] |==|  0.73205
USER: genes 7 Torsion [N]-C--CA-[N] |==|  0.42867
USER: genes 8 Torsion [C]-CA--N-[H2] |==|  0.45256
ROOT
ATOM      1  C   ALA B   1      10.625  12.780  16.998  1.00 21.61 LIG 0.25  C 
ATOM      2 O    ALA B   1      11.696  12.362  17.457  1.00 21.59 LIG-0.27  OA
ATOM      3  N   PRO B   2      10.066  13.944  17.389  1.00 20.68 LIG-0.34  N 
ATOM      4  CA  PRO B   2      10.631  14.692  18.516  1.00 19.66 LIG 0.18  C 
ATOM      5  CB  PRO B   2       9.828  15.993  18.513  1.00 19.68 LIG 0.04  C 
ATOM      6  CG  PRO B   2       8.535  15.644  17.836  1.00 19.82 LIG 0.02  C 
ATOM      7  CD  PRO B   2       8.913  14.642  16.788  1.00 21.17 LIG 0.13  C 
ENDROOT
BRANCH 4 8
ATOM      8  C   PRO B   2      10.467  13.950  19.848  1.00 18.80 LIG 0.24  C 
ATOM      9  N   THR B   3       9.335  14.172  20.509  1.00 18.04 LIG-0.34  N 
ATOM     10 H    THR B   3       8.695  14.660  20.207  1.00 18.04 LIG 0.16  HD
ATOM     11 O    PRO B   2      11.362  13.215  20.275  1.00 18.43 LIG-0.27  OA
BRANCH 9 12
ATOM     12  CA  THR B   3       9.075  13.593  21.835  1.00 16.71 LIG 0.21  C 
BRANCH 12 13
ATOM     13  C   THR B   3       7.668  13.948  22.323  1.00 16.11 LIG 0.20  C 
ATOM     14 OXT  THR B   3       6.866  14.510  21.569  1.00 14.78 LIG-0.65  OA
ATOM     15 O    THR B   3       7.318  13.696  23.490  1.00 14.64 LIG-0.65  OA
ENDBRANCH 12 13
BRANCH 12 16
ATOM     16  CB  THR B   3      10.133  14.033  22.887  1.00 16.70 LIG 0.15  C 
ATOM     17  CG2 THR B   3      10.978  12.837  23.324  1.00 16.85 LIG 0.04  C 
BRANCH 16 18
ATOM     18 OG1  THR B   3      10.994  15.174  22.358  1.00 17.97 LIG-0.39  OA
ATOM     19 HG1  THR B   3      11.709  14.864  22.042  1.00 17.97 LIG 0.21  HD
ENDBRANCH 16 18
ENDBRANCH 12 16
ENDBRANCH 9 12
ENDBRANCH 4 8
BRANCH 1 20
ATOM     20  CA  ALA B   1       9.883  11.979  15.925  1.00 22.08 LIG 0.27  C 
ATOM     21  CB  ALA B   1       8.802  11.145  16.558  1.00 22.59 LIG 0.05  C 
BRANCH 20 22
ATOM     22  N   ALA B   1      10.828  11.114  15.165  1.00 23.15 LIG-0.07  N 
ATOM     23 H3   ALA B   1      11.281  11.610  14.581  1.00 23.15 LIG 0.28  HD
ATOM     24 H2   ALA B   1      10.372  10.487  14.728  1.00 23.15 LIG 0.28  HD
ATOM     25 H1   ALA B   1      11.398  10.728  15.729  1.00 23.15 LIG 0.28  HD
ENDBRANCH 20 22
ENDBRANCH 1 20
TORSDOF 7
ENDMDL
MODEL 60
USER: ADFR SOLUTION from run 4
USER: SCORE 6.751233 LL:  -1.423 LR:  -5.329 RR:   0.000 FEB:  -3.240
USER: RMSD 6.518955
USER: SEED 588138
USER: STATUS no improvement in best in 31 clusters for 5 generations
USER: GENES 9
USER: genes 0 Translation |==|  0.68278 0.38934 0.44229
USER: genes 1 Rotation |==|  0.72116 0.14478 0.71943 0.66357
USER: genes 2 Torsion [N]-CA--C-[N] |==|  0.98001
USER: genes 3 Torsion [C]-N--CA-[CB] |==|  0.78493
USER: genes 4 Torsion [N]-CA--C-[OXT] |==|  0.19311
USER: genes 5 Torsion [N]-CA--CB-[CG2] |==|  0.51530
USER: genes 6 Torsion [CA]-CB--OG1-[HG1] |==|  0.08836
USER: genes 7 Torsion [N]-C--CA-[N] |==|  0.50984
USER: genes 8 Torsion [C]-CA--N-[H2] |==|  0.65921
ROOT
ATOM      1  C   ALA B   1       6.732  10.204  20.593  1.00 21.61 LIG 0.25  C 
ATOM      2 O    ALA B   1       6.545   9.243  21.351  1.00 21.59 LIG-0.27  OA
ATOM      3  N   PRO B   2       7.647  11.164  20.841  1.00 20.68 LIG-0.34  N 
ATOM      4  CA  PRO B   2       8.353  11.197  22.125  1.00 19.66 LIG 0.18  C 
ATOM      5  CB  PRO B   2       9.390  12.302  21.928  1.00 19.68 LIG 0.04  C 
ATOM      6  CG  PRO B   2       8.815  13.181  20.855  1.00 19.82 LIG 0.02  C 
ATOM      7  CD  PRO B   2       8.099  12.239  19.936  1.00 21.17 LIG 0.13  C 
ENDROOT
BRANCH 4 8
ATOM      8  C   PRO B   2       7.418  11.525  23.295  1.00 18.80 LIG 0.24  C 
ATOM      9  N   THR B   3       6.176  11.872  22.976  1.00 18.04 LIG-0.34  N 
ATOM     10 H    THR B   3       5.873  11.874  22.171  1.00 18.04 LIG 0.16  HD
ATOM     11 O    PRO B   2       7.828  11.489  24.459  1.00 18.43 LIG-0.27  OA
BRANCH 9 12
ATOM     12  CA  THR B   3       5.194  12.291  23.987  1.00 16.71 LIG 0.21  C 
BRANCH 12 13
ATOM     13  C   THR B   3       5.805  13.300  24.962  1.00 16.11 LIG 0.20  C 
ATOM     14 OXT  THR B   3       6.089  14.442  24.586  1.00 14.78 LIG-0.65  OA
ATOM     15 O    THR B   3       6.046  12.980  26.140  1.00 14.64 LIG-0.65  OA
ENDBRANCH 12 13
BRANCH 12 16
ATOM     16  CB  THR B   3       4.603  11.082  24.769  1.00 16.70 LIG 0.15  C 
ATOM     17  CG2 THR B   3       3.493  11.548  25.710  1.00 16.85 LIG 0.04  C 
BRANCH 16 18
ATOM     18 OG1  THR B   3       4.122   9.993  23.817  1.00 17.97 LIG-0.39  OA
ATOM     19 HG1  THR B   3       4.603   9.989  23.128  1.00 17.97 LIG 0.21  HD
ENDBRANCH 16 18
ENDBRANCH 12 16
ENDBRANCH 9 12
ENDBRANCH 4 8
BRANCH 1 20
ATOM     20  CA  ALA B   1       5.921  10.333  19.301  1.00 22.08 LIG 0.27  C 
ATOM     21  CB  ALA B   1       5.263  11.686  19.237  1.00 22.59 LIG 0.05  C 
BRANCH 20 22
ATOM     22  N   ALA B   1       4.899   9.254  19.209  1.00 23.15 LIG-0.07  N 
ATOM     23 H3   ALA B   1       4.978   8.709  19.909  1.00 23.15 LIG 0.28  HD
ATOM     24 H2   ALA B   1       5.022   8.791  18.459  1.00 23.15 LIG 0.28  HD
ATOM     25 H1   ALA B   1       4.085   9.614  19.205  1.00 23.15 LIG 0.28  HD
ENDBRANCH 20 22
ENDBRANCH 1 20
TORSDOF 7
ENDMDL
MODEL 61
USER: ADFR SOLUTION from run 83
USER: SCORE 7.184646 LL:  -1.865 LR:  -5.319 RR:   0.000 FEB:  -3.231
USER: RMSD 6.987246
USER: SEED 82
USER: STATUS no improvement in best in 32 clusters for 5 generations
USER: GENES 9
USER: genes 0 Translation |==|  0.71722 0.49772 0.45885
USER: genes 1 Rotation |==|  0.12717 0.38465 0.79267 0.60971
USER: genes 2 Torsion [N]-CA--C-[N] |==|  0.23289
USER: genes 3 Torsion [C]-N--CA-[CB] |==|  0.18005
USER: genes 4 Torsion [N]-CA--C-[OXT] |==|  0.45350
USER: genes 5 Torsion [N]-CA--CB-[CG2] |==|  0.19044
USER: genes 6 Torsion [CA]-CB--OG1-[HG1] |==|  0.92373
USER: genes 7 Torsion [N]-C--CA-[N] |==|  0.33831
USER: genes 8 Torsion [C]-CA--N-[H2] |==|  0.77363
ROOT
ATOM      1  C   ALA B   1       7.274  11.830  20.842  1.00 21.61 LIG 0.25  C 
ATOM      2 O    ALA B   1       6.894  12.730  20.082  1.00 21.59 LIG-0.27  OA
ATOM      3  N   PRO B   2       8.132  12.046  21.861  1.00 20.68 LIG-0.34  N 
ATOM      4  CA  PRO B   2       8.789  13.347  22.007  1.00 19.66 LIG 0.18  C 
ATOM      5  CB  PRO B   2       9.519  13.223  23.345  1.00 19.68 LIG 0.04  C 
ATOM      6  CG  PRO B   2       9.727  11.749  23.534  1.00 19.82 LIG 0.02  C 
ATOM      7  CD  PRO B   2       8.505  11.114  22.943  1.00 21.17 LIG 0.13  C 
ENDROOT
BRANCH 4 8
ATOM      8  C   PRO B   2       9.777  13.633  20.870  1.00 18.80 LIG 0.24  C 
ATOM      9  N   THR B   3       9.259  14.138  19.755  1.00 18.04 LIG-0.34  N 
ATOM     10 H    THR B   3       8.430  14.348  19.666  1.00 18.04 LIG 0.16  HD
ATOM     11 O    PRO B   2      10.977  13.372  20.996  1.00 18.43 LIG-0.27  OA
BRANCH 9 12
ATOM     12  CA  THR B   3      10.072  14.387  18.555  1.00 16.71 LIG 0.21  C 
BRANCH 12 13
ATOM     13  C   THR B   3       9.274  15.160  17.501  1.00 16.11 LIG 0.20  C 
ATOM     14 OXT  THR B   3       9.853  15.728  16.569  1.00 14.78 LIG-0.65  OA
ATOM     15 O    THR B   3       8.036  15.246  17.579  1.00 14.64 LIG-0.65  OA
ENDBRANCH 12 13
BRANCH 12 16
ATOM     16  CB  THR B   3      10.634  13.071  17.942  1.00 16.70 LIG 0.15  C 
ATOM     17  CG2 THR B   3       9.501  12.235  17.349  1.00 16.85 LIG 0.04  C 
BRANCH 16 18
ATOM     18 OG1  THR B   3      11.723  13.363  16.916  1.00 17.97 LIG-0.39  OA
ATOM     19 HG1  THR B   3      11.594  14.121  16.577  1.00 17.97 LIG 0.21  HD
ENDBRANCH 16 18
ENDBRANCH 12 16
ENDBRANCH 9 12
ENDBRANCH 4 8
BRANCH 1 20
ATOM     20  CA  ALA B   1       6.757  10.400  20.660  1.00 22.08 LIG 0.27  C 
ATOM     21  CB  ALA B   1       7.228   9.843  19.344  1.00 22.59 LIG 0.05  C 
BRANCH 20 22
ATOM     22  N   ALA B   1       5.269  10.364  20.737  1.00 23.15 LIG-0.07  N 
ATOM     23 H3   ALA B   1       4.933  11.082  20.333  1.00 23.15 LIG 0.28  HD
ATOM     24 H2   ALA B   1       5.016  10.359  21.590  1.00 23.15 LIG 0.28  HD
ATOM     25 H1   ALA B   1       4.969   9.630  20.334  1.00 23.15 LIG 0.28  HD
ENDBRANCH 20 22
ENDBRANCH 1 20
TORSDOF 7
ENDMDL
MODEL 62
USER: ADFR SOLUTION from run 143
USER: SCORE 7.409485 LL:  -2.089 LR:  -5.321 RR:   0.000 FEB:  -3.232
USER: RMSD 5.583683
USER: SEED 142
USER: STATUS no improvement in best in 38 clusters for 5 generations
USER: GENES 9
USER: genes 0 Translation |==|  0.16780 0.37763 0.72085
USER: genes 1 Rotation |==|  0.18006 0.37868 0.82328 0.66856
USER: genes 2 Torsion [N]-CA--C-[N] |==|  0.95364
USER: genes 3 Torsion [C]-N--CA-[CB] |==|  0.20520
USER: genes 4 Torsion [N]-CA--C-[OXT] |==|  0.98508
USER: genes 5 Torsion [N]-CA--CB-[CG2] |==|  0.71890
USER: genes 6 Torsion [CA]-CB--OG1-[HG1] |==|  0.27936
USER: genes 7 Torsion [N]-C--CA-[N] |==|  0.49076
USER: genes 8 Torsion [C]-CA--N-[H2] |==|  0.32486
ROOT
ATOM      1  C   ALA B   1      -1.379  10.029  24.772  1.00 21.61 LIG 0.25  C 
ATOM      2 O    ALA B   1      -1.876  11.075  24.335  1.00 21.59 LIG-0.27  OA
ATOM      3  N   PRO B   2      -0.276  10.011  25.549  1.00 20.68 LIG-0.34  N 
ATOM      4  CA  PRO B   2       0.488  11.242  25.772  1.00 19.66 LIG 0.18  C 
ATOM      5  CB  PRO B   2       1.524  10.827  26.817  1.00 19.68 LIG 0.04  C 
ATOM      6  CG  PRO B   2       1.668   9.343  26.646  1.00 19.82 LIG 0.02  C 
ATOM      7  CD  PRO B   2       0.294   8.867  26.286  1.00 21.17 LIG 0.13  C 
ENDROOT
BRANCH 4 8
ATOM      8  C   PRO B   2       1.169  11.744  24.494  1.00 18.80 LIG 0.24  C 
ATOM      9  N   THR B   3       1.273  10.869  23.499  1.00 18.04 LIG-0.34  N 
ATOM     10 H    THR B   3       0.943  10.075  23.527  1.00 18.04 LIG 0.16  HD
ATOM     11 O    PRO B   2       1.614  12.894  24.426  1.00 18.43 LIG-0.27  OA
BRANCH 9 12
ATOM     12  CA  THR B   3       1.973  11.185  22.246  1.00 16.71 LIG 0.21  C 
BRANCH 12 13
ATOM     13  C   THR B   3       1.583  10.204  21.136  1.00 16.11 LIG 0.20  C 
ATOM     14 OXT  THR B   3       0.854   9.237  21.382  1.00 14.78 LIG-0.65  OA
ATOM     15 O    THR B   3       2.010  10.353  19.977  1.00 14.64 LIG-0.65  OA
ENDBRANCH 12 13
BRANCH 12 16
ATOM     16  CB  THR B   3       3.518  11.204  22.423  1.00 16.70 LIG 0.15  C 
ATOM     17  CG2 THR B   3       4.024  12.642  22.530  1.00 16.85 LIG 0.04  C 
BRANCH 16 18
ATOM     18 OG1  THR B   3       3.946  10.360  23.619  1.00 17.97 LIG-0.39  OA
ATOM     19 HG1  THR B   3       4.225   9.614  23.351  1.00 17.97 LIG 0.21  HD
ENDBRANCH 16 18
ENDBRANCH 12 16
ENDBRANCH 9 12
ENDBRANCH 4 8
BRANCH 1 20
ATOM     20  CA  ALA B   1      -2.026   8.678  24.454  1.00 22.08 LIG 0.27  C 
ATOM     21  CB  ALA B   1      -1.054   7.802  23.709  1.00 22.59 LIG 0.05  C 
BRANCH 20 22
ATOM     22  N   ALA B   1      -3.272   8.864  23.658  1.00 23.15 LIG-0.07  N 
ATOM     23 H3   ALA B   1      -3.956   8.486  24.084  1.00 23.15 LIG 0.28  HD
ATOM     24 H2   ALA B   1      -3.175   8.483  22.860  1.00 23.15 LIG 0.28  HD
ATOM     25 H1   ALA B   1      -3.431   9.734  23.555  1.00 23.15 LIG 0.28  HD
ENDBRANCH 20 22
ENDBRANCH 1 20
TORSDOF 7
ENDMDL
MODEL 63
USER: ADFR SOLUTION from run 168
USER: SCORE 6.682261 LL:  -1.376 LR:  -5.306 RR:   0.000 FEB:  -3.218
USER: RMSD 2.806928
USER: SEED 167
USER: STATUS no improvement in best in 41 clusters for 5 generations
USER: GENES 9
USER: genes 0 Translation |==|  0.37918 0.38238 0.43546
USER: genes 1 Rotation |==|  0.88336 0.46288 0.30473 0.75204
USER: genes 2 Torsion [N]-CA--C-[N] |==|  0.00596
USER: genes 3 Torsion [C]-N--CA-[CB] |==|  0.45946
USER: genes 4 Torsion [N]-CA--C-[OXT] |==|  0.79710
USER: genes 5 Torsion [N]-CA--CB-[CG2] |==|  0.57312
USER: genes 6 Torsion [CA]-CB--OG1-[HG1] |==|  0.21836
USER: genes 7 Torsion [N]-C--CA-[N] |==|  0.84544
USER: genes 8 Torsion [C]-CA--N-[H2] |==|  0.46246
ROOT
ATOM      1  C   ALA B   1       1.950  10.100  20.491  1.00 21.61 LIG 0.25  C 
ATOM      2 O    ALA B   1       2.188   9.290  19.585  1.00 21.59 LIG-0.27  OA
ATOM      3  N   PRO B   2       2.130  11.430  20.350  1.00 20.68 LIG-0.34  N 
ATOM      4  CA  PRO B   2       2.785  11.962  19.152  1.00 19.66 LIG 0.18  C 
ATOM      5  CB  PRO B   2       2.634  13.475  19.312  1.00 19.68 LIG 0.04  C 
ATOM      6  CG  PRO B   2       2.482  13.691  20.789  1.00 19.82 LIG 0.02  C 
ATOM      7  CD  PRO B   2       1.706  12.503  21.269  1.00 21.17 LIG 0.13  C 
ENDROOT
BRANCH 4 8
ATOM      8  C   PRO B   2       4.264  11.564  19.071  1.00 18.80 LIG 0.24  C 
ATOM      9  N   THR B   3       4.716  10.781  20.045  1.00 18.04 LIG-0.34  N 
ATOM     10 H    THR B   3       4.219  10.461  20.669  1.00 18.04 LIG 0.16  HD
ATOM     11 O    PRO B   2       4.981  11.985  18.159  1.00 18.43 LIG-0.27  OA
BRANCH 9 12
ATOM     12  CA  THR B   3       6.129  10.386  20.142  1.00 16.71 LIG 0.21  C 
BRANCH 12 13
ATOM     13  C   THR B   3       6.500   9.397  19.033  1.00 16.11 LIG 0.20  C 
ATOM     14 OXT  THR B   3       6.103   8.228  19.078  1.00 14.78 LIG-0.65  OA
ATOM     15 O    THR B   3       7.223   9.748  18.084  1.00 14.64 LIG-0.65  OA
ENDBRANCH 12 13
BRANCH 12 16
ATOM     16  CB  THR B   3       6.478   9.785  21.534  1.00 16.70 LIG 0.15  C 
ATOM     17  CG2 THR B   3       7.960   9.989  21.845  1.00 16.85 LIG 0.04  C 
BRANCH 16 18
ATOM     18 OG1  THR B   3       5.583  10.364  22.624  1.00 17.97 LIG-0.39  OA
ATOM     19 HG1  THR B   3       4.832   9.987  22.600  1.00 17.97 LIG 0.21  HD
ENDBRANCH 16 18
ENDBRANCH 12 16
ENDBRANCH 9 12
ENDBRANCH 4 8
BRANCH 1 20
ATOM     20  CA  ALA B   1       1.410   9.611  21.838  1.00 22.08 LIG 0.27  C 
ATOM     21  CB  ALA B   1      -0.004  10.091  22.032  1.00 22.59 LIG 0.05  C 
BRANCH 20 22
ATOM     22  N   ALA B   1       2.276  10.080  22.955  1.00 23.15 LIG-0.07  N 
ATOM     23 H3   ALA B   1       3.035   9.616  22.958  1.00 23.15 LIG 0.28  HD
ATOM     24 H2   ALA B   1       1.854   9.961  23.729  1.00 23.15 LIG 0.28  HD
ATOM     25 H1   ALA B   1       2.458  10.945  22.847  1.00 23.15 LIG 0.28  HD
ENDBRANCH 20 22
ENDBRANCH 1 20
TORSDOF 7
ENDMDL
MODEL 64
USER: ADFR SOLUTION from run 162
USER: SCORE 7.060731 LL:  -1.753 LR:  -5.307 RR:   0.000 FEB:  -3.219
USER: RMSD 5.143403
USER: SEED 161
USER: STATUS no improvement in best in 30 clusters for 5 generations
USER: GENES 9
USER: genes 0 Translation |==|  0.53923 0.43650 0.42068
USER: genes 1 Rotation |==|  0.10206 0.31716 0.26182 0.53857
USER: genes 2 Torsion [N]-CA--C-[N] |==|  0.23524
USER: genes 3 Torsion [C]-N--CA-[CB] |==|  0.16820
USER: genes 4 Torsion [N]-CA--C-[OXT] |==|  0.00179
USER: genes 5 Torsion [N]-CA--CB-[CG2] |==|  0.71199
USER: genes 6 Torsion [CA]-CB--OG1-[HG1] |==|  0.85625
USER: genes 7 Torsion [N]-C--CA-[N] |==|  0.27669
USER: genes 8 Torsion [C]-CA--N-[H2] |==|  0.93847
ROOT
ATOM      1  C   ALA B   1       4.471  10.911  20.269  1.00 21.61 LIG 0.25  C 
ATOM      2 O    ALA B   1       4.981  11.936  20.742  1.00 21.59 LIG-0.27  OA
ATOM      3  N   PRO B   2       3.141  10.684  20.279  1.00 20.68 LIG-0.34  N 
ATOM      4  CA  PRO B   2       2.246  11.582  21.014  1.00 19.66 LIG 0.18  C 
ATOM      5  CB  PRO B   2       0.853  11.080  20.632  1.00 19.68 LIG 0.04  C 
ATOM      6  CG  PRO B   2       1.056   9.644  20.247  1.00 19.82 LIG 0.02  C 
ATOM      7  CD  PRO B   2       2.400   9.614  19.584  1.00 21.17 LIG 0.13  C 
ENDROOT
BRANCH 4 8
ATOM      8  C   PRO B   2       2.459  11.504  22.531  1.00 18.80 LIG 0.24  C 
ATOM      9  N   THR B   3       3.430  12.263  23.028  1.00 18.04 LIG-0.34  N 
ATOM     10 H    THR B   3       3.895  12.812  22.556  1.00 18.04 LIG 0.16  HD
ATOM     11 O    PRO B   2       1.773  10.749  23.226  1.00 18.43 LIG-0.27  OA
BRANCH 9 12
ATOM     12  CA  THR B   3       3.801  12.231  24.450  1.00 16.71 LIG 0.21  C 
BRANCH 12 13
ATOM     13  C   THR B   3       4.873  13.278  24.762  1.00 16.11 LIG 0.20  C 
ATOM     14 OXT  THR B   3       5.303  14.020  23.872  1.00 14.78 LIG-0.65  OA
ATOM     15 O    THR B   3       5.343  13.385  25.909  1.00 14.64 LIG-0.65  OA
ENDBRANCH 12 13
BRANCH 12 16
ATOM     16  CB  THR B   3       4.282  10.822  24.901  1.00 16.70 LIG 0.15  C 
ATOM     17  CG2 THR B   3       3.188  10.118  25.702  1.00 16.85 LIG 0.04  C 
BRANCH 16 18
ATOM     18 OG1  THR B   3       4.740   9.989  23.709  1.00 17.97 LIG-0.39  OA
ATOM     19 HG1  THR B   3       4.140   9.989  23.120  1.00 17.97 LIG 0.21  HD
ENDBRANCH 16 18
ENDBRANCH 12 16
ENDBRANCH 9 12
ENDBRANCH 4 8
BRANCH 1 20
ATOM     20  CA  ALA B   1       5.353   9.842  19.620  1.00 22.08 LIG 0.27  C 
ATOM     21  CB  ALA B   1       6.587   9.614  20.452  1.00 22.59 LIG 0.05  C 
BRANCH 20 22
ATOM     22  N   ALA B   1       5.728  10.237  18.233  1.00 23.15 LIG-0.07  N 
ATOM     23 H3   ALA B   1       6.540  10.601  18.237  1.00 23.15 LIG 0.28  HD
ATOM     24 H2   ALA B   1       5.140  10.829  17.924  1.00 23.15 LIG 0.28  HD
ATOM     25 H1   ALA B   1       5.728   9.518  17.709  1.00 23.15 LIG 0.28  HD
ENDBRANCH 20 22
ENDBRANCH 1 20
TORSDOF 7
ENDMDL
MODEL 65
USER: ADFR SOLUTION from run 91
USER: SCORE 6.931272 LL:  -1.619 LR:  -5.312 RR:   0.000 FEB:  -3.224
USER: RMSD 6.249658
USER: SEED 90
USER: STATUS no improvement in best in 30 clusters for 5 generations
USER: GENES 9
USER: genes 0 Translation |==|  0.18704 0.31415 0.71560
USER: genes 1 Rotation |==|  0.95225 0.53467 0.42841 0.69784
USER: genes 2 Torsion [N]-CA--C-[N] |==|  0.38160
USER: genes 3 Torsion [C]-N--CA-[CB] |==|  0.85427
USER: genes 4 Torsion [N]-CA--C-[OXT] |==|  0.85233
USER: genes 5 Torsion [N]-CA--CB-[CG2] |==|  0.52485
USER: genes 6 Torsion [CA]-CB--OG1-[HG1] |==|  0.20981
USER: genes 7 Torsion [N]-C--CA-[N] |==|  0.46141
USER: genes 8 Torsion [C]-CA--N-[H2] |==|  0.85995
ROOT
ATOM      1  C   ALA B   1      -1.076   9.076  24.693  1.00 21.61 LIG 0.25  C 
ATOM      2 O    ALA B   1      -0.272   8.857  23.778  1.00 21.59 LIG-0.27  OA
ATOM      3  N   PRO B   2      -1.485  10.318  25.027  1.00 20.68 LIG-0.34  N 
ATOM      4  CA  PRO B   2      -0.853  11.491  24.417  1.00 19.66 LIG 0.18  C 
ATOM      5  CB  PRO B   2      -1.705  12.654  24.926  1.00 19.68 LIG 0.04  C 
ATOM      6  CG  PRO B   2      -2.318  12.151  26.200  1.00 19.82 LIG 0.02  C 
ATOM      7  CD  PRO B   2      -2.571  10.695  25.952  1.00 21.17 LIG 0.13  C 
ENDROOT
BRANCH 4 8
ATOM      8  C   PRO B   2       0.610  11.655  24.848  1.00 18.80 LIG 0.24  C 
ATOM      9  N   THR B   3       1.471  11.986  23.892  1.00 18.04 LIG-0.34  N 
ATOM     10 H    THR B   3       1.241  12.152  23.080  1.00 18.04 LIG 0.16  HD
ATOM     11 O    PRO B   2       0.948  11.457  26.019  1.00 18.43 LIG-0.27  OA
BRANCH 9 12
ATOM     12  CA  THR B   3       2.915  12.098  24.141  1.00 16.71 LIG 0.21  C 
BRANCH 12 13
ATOM     13  C   THR B   3       3.544  10.720  24.363  1.00 16.11 LIG 0.20  C 
ATOM     14 OXT  THR B   3       3.080   9.948  25.209  1.00 14.78 LIG-0.65  OA
ATOM     15 O    THR B   3       4.542  10.364  23.710  1.00 14.64 LIG-0.65  OA
ENDBRANCH 12 13
BRANCH 12 16
ATOM     16  CB  THR B   3       3.233  13.031  25.345  1.00 16.70 LIG 0.15  C 
ATOM     17  CG2 THR B   3       4.736  13.295  25.432  1.00 16.85 LIG 0.04  C 
BRANCH 16 18
ATOM     18 OG1  THR B   3       2.432  14.325  25.266  1.00 17.97 LIG-0.39  OA
ATOM     19 HG1  THR B   3       1.634  14.175  25.485  1.00 17.97 LIG 0.21  HD
ENDBRANCH 16 18
ENDBRANCH 12 16
ENDBRANCH 9 12
ENDBRANCH 4 8
BRANCH 1 20
ATOM     20  CA  ALA B   1      -1.668   7.912  25.491  1.00 22.08 LIG 0.27  C 
ATOM     21  CB  ALA B   1      -1.103   7.901  26.886  1.00 22.59 LIG 0.05  C 
BRANCH 20 22
ATOM     22  N   ALA B   1      -1.397   6.614  24.811  1.00 23.15 LIG-0.07  N 
ATOM     23 H3   ALA B   1      -0.528   6.429  24.861  1.00 23.15 LIG 0.28  HD
ATOM     24 H2   ALA B   1      -1.639   6.670  23.957  1.00 23.15 LIG 0.28  HD
ATOM     25 H1   ALA B   1      -1.861   5.967  25.209  1.00 23.15 LIG 0.28  HD
ENDBRANCH 20 22
ENDBRANCH 1 20
TORSDOF 7
ENDMDL
MODEL 66
USER: ADFR SOLUTION from run 21
USER: SCORE 6.868483 LL:  -1.561 LR:  -5.308 RR:   0.000 FEB:  -3.220
USER: RMSD 5.167480
USER: SEED 20
USER: STATUS no improvement in best in 33 clusters for 5 generations
USER: GENES 9
USER: genes 0 Translation |==|  0.27181 0.45778 0.37383
USER: genes 1 Rotation |==|  0.64855 0.11860 0.56776 0.77906
USER: genes 2 Torsion [N]-CA--C-[N] |==|  0.33295
USER: genes 3 Torsion [C]-N--CA-[CB] |==|  0.82135
USER: genes 4 Torsion [N]-CA--C-[OXT] |==|  0.07933
USER: genes 5 Torsion [N]-CA--CB-[CG2] |==|  0.59273
USER: genes 6 Torsion [CA]-CB--OG1-[HG1] |==|  0.01077
USER: genes 7 Torsion [N]-C--CA-[N] |==|  0.21599
USER: genes 8 Torsion [C]-CA--N-[H2] |==|  0.47810
ROOT
ATOM      1  C   ALA B   1       0.259  11.231  19.566  1.00 21.61 LIG 0.25  C 
ATOM      2 O    ALA B   1      -0.225  10.364  20.306  1.00 21.59 LIG-0.27  OA
ATOM      3  N   PRO B   2       1.588  11.383  19.389  1.00 20.68 LIG-0.34  N 
ATOM      4  CA  PRO B   2       2.533  10.621  20.210  1.00 19.66 LIG 0.18  C 
ATOM      5  CB  PRO B   2       3.888  10.952  19.584  1.00 19.68 LIG 0.04  C 
ATOM      6  CG  PRO B   2       3.686  12.278  18.910  1.00 19.82 LIG 0.02  C 
ATOM      7  CD  PRO B   2       2.277  12.234  18.400  1.00 21.17 LIG 0.13  C 
ENDROOT
BRANCH 4 8
ATOM      8  C   PRO B   2       2.494  11.041  21.684  1.00 18.80 LIG 0.24  C 
ATOM      9  N   THR B   3       2.169  10.093  22.557  1.00 18.04 LIG-0.34  N 
ATOM     10 H    THR B   3       2.031   9.272  22.340  1.00 18.04 LIG 0.16  HD
ATOM     11 O    PRO B   2       2.727  12.207  22.014  1.00 18.43 LIG-0.27  OA
BRANCH 9 12
ATOM     12  CA  THR B   3       2.013  10.368  23.993  1.00 16.71 LIG 0.21  C 
BRANCH 12 13
ATOM     13  C   THR B   3       0.925  11.417  24.236  1.00 16.11 LIG 0.20  C 
ATOM     14 OXT  THR B   3      -0.019  11.536  23.448  1.00 14.78 LIG-0.65  OA
ATOM     15 O    THR B   3       0.985  12.179  25.219  1.00 14.64 LIG-0.65  OA
ENDBRANCH 12 13
BRANCH 12 16
ATOM     16  CB  THR B   3       3.348  10.819  24.653  1.00 16.70 LIG 0.15  C 
ATOM     17  CG2 THR B   3       3.422  10.322  26.096  1.00 16.85 LIG 0.04  C 
BRANCH 16 18
ATOM     18 OG1  THR B   3       4.550  10.364  23.832  1.00 17.97 LIG-0.39  OA
ATOM     19 HG1  THR B   3       4.284   9.989  23.129  1.00 17.97 LIG 0.21  HD
ENDBRANCH 16 18
ENDBRANCH 12 16
ENDBRANCH 9 12
ENDBRANCH 4 8
BRANCH 1 20
ATOM     20  CA  ALA B   1      -0.659  12.178  18.789  1.00 22.08 LIG 0.27  C 
ATOM     21  CB  ALA B   1      -2.017  12.228  19.435  1.00 22.59 LIG 0.05  C 
BRANCH 20 22
ATOM     22  N   ALA B   1      -0.775  11.750  17.367  1.00 23.15 LIG-0.07  N 
ATOM     23 H3   ALA B   1       0.006  11.864  16.957  1.00 23.15 LIG 0.28  HD
ATOM     24 H2   ALA B   1      -1.397  12.239  16.959  1.00 23.15 LIG 0.28  HD
ATOM     25 H1   ALA B   1      -1.005  10.891  17.333  1.00 23.15 LIG 0.28  HD
ENDBRANCH 20 22
ENDBRANCH 1 20
TORSDOF 7
ENDMDL
MODEL 67
USER: ADFR SOLUTION from run 175
USER: SCORE 7.357376 LL:  -2.057 LR:  -5.300 RR:   0.000 FEB:  -3.212
USER: RMSD 5.588309
USER: SEED 174
USER: STATUS no improvement in best in 20 clusters for 5 generations
USER: GENES 9
USER: genes 0 Translation |==|  0.19941 0.34537 0.58397
USER: genes 1 Rotation |==|  0.70096 0.25420 0.59187 0.87518
USER: genes 2 Torsion [N]-CA--C-[N] |==|  0.92380
USER: genes 3 Torsion [C]-N--CA-[CB] |==|  0.20024
USER: genes 4 Torsion [N]-CA--C-[OXT] |==|  0.99595
USER: genes 5 Torsion [N]-CA--CB-[CG2] |==|  0.70872
USER: genes 6 Torsion [CA]-CB--OG1-[HG1] |==|  0.08546
USER: genes 7 Torsion [N]-C--CA-[N] |==|  0.36678
USER: genes 8 Torsion [C]-CA--N-[H2] |==|  0.28692
ROOT
ATOM      1  C   ALA B   1      -0.881   9.545  22.719  1.00 21.61 LIG 0.25  C 
ATOM      2 O    ALA B   1      -0.558   8.778  23.635  1.00 21.59 LIG-0.27  OA
ATOM      3  N   PRO B   2      -0.005   9.991  21.794  1.00 20.68 LIG-0.34  N 
ATOM      4  CA  PRO B   2       1.426   9.713  21.941  1.00 19.66 LIG 0.18  C 
ATOM      5  CB  PRO B   2       2.021  10.230  20.631  1.00 19.68 LIG 0.04  C 
ATOM      6  CG  PRO B   2       1.045  11.264  20.149  1.00 19.82 LIG 0.02  C 
ATOM      7  CD  PRO B   2      -0.298  10.739  20.556  1.00 21.17 LIG 0.13  C 
ENDROOT
BRANCH 4 8
ATOM      8  C   PRO B   2       2.040  10.437  23.145  1.00 18.80 LIG 0.24  C 
ATOM      9  N   THR B   3       1.450  11.569  23.514  1.00 18.04 LIG-0.34  N 
ATOM     10 H    THR B   3       0.734  11.875  23.148  1.00 18.04 LIG 0.16  HD
ATOM     11 O    PRO B   2       3.045   9.989  23.705  1.00 18.43 LIG-0.27  OA
BRANCH 9 12
ATOM     12  CA  THR B   3       1.976  12.411  24.599  1.00 16.71 LIG 0.21  C 
BRANCH 12 13
ATOM     13  C   THR B   3       0.923  13.417  25.073  1.00 16.11 LIG 0.20  C 
ATOM     14 OXT  THR B   3      -0.188  13.463  24.535  1.00 14.78 LIG-0.65  OA
ATOM     15 O    THR B   3       1.177  14.216  25.992  1.00 14.64 LIG-0.65  OA
ENDBRANCH 12 13
BRANCH 12 16
ATOM     16  CB  THR B   3       3.279  13.154  24.188  1.00 16.70 LIG 0.15  C 
ATOM     17  CG2 THR B   3       4.495  12.498  24.841  1.00 16.85 LIG 0.04  C 
BRANCH 16 18
ATOM     18 OG1  THR B   3       3.417  13.225  22.671  1.00 17.97 LIG-0.39  OA
ATOM     19 HG1  THR B   3       2.654  13.253  22.320  1.00 17.97 LIG 0.21  HD
ENDBRANCH 16 18
ENDBRANCH 12 16
ENDBRANCH 9 12
ENDBRANCH 4 8
BRANCH 1 20
ATOM     20  CA  ALA B   1      -2.332  10.014  22.584  1.00 22.08 LIG 0.27  C 
ATOM     21  CB  ALA B   1      -2.639  11.051  23.632  1.00 22.59 LIG 0.05  C 
BRANCH 20 22
ATOM     22  N   ALA B   1      -3.272   8.864  22.701  1.00 23.15 LIG-0.07  N 
ATOM     23 H3   ALA B   1      -3.906   8.934  22.080  1.00 23.15 LIG 0.28  HD
ATOM     24 H2   ALA B   1      -3.647   8.867  23.508  1.00 23.15 LIG 0.28  HD
ATOM     25 H1   ALA B   1      -2.826   8.103  22.584  1.00 23.15 LIG 0.28  HD
ENDBRANCH 20 22
ENDBRANCH 1 20
TORSDOF 7
ENDMDL
MODEL 68
USER: ADFR SOLUTION from run 192
USER: SCORE 6.897129 LL:  -1.600 LR:  -5.297 RR:   0.000 FEB:  -3.209
USER: RMSD 5.614122
USER: SEED 191
USER: STATUS no improvement in best in 28 clusters for 5 generations
USER: GENES 9
USER: genes 0 Translation |==|  0.53634 0.44046 0.41218
USER: genes 1 Rotation |==|  0.10038 0.30649 0.27113 0.52189
USER: genes 2 Torsion [N]-CA--C-[N] |==|  0.78222
USER: genes 3 Torsion [C]-N--CA-[CB] |==|  0.83260
USER: genes 4 Torsion [N]-CA--C-[OXT] |==|  0.58283
USER: genes 5 Torsion [N]-CA--CB-[CG2] |==|  0.57770
USER: genes 6 Torsion [CA]-CB--OG1-[HG1] |==|  0.01604
USER: genes 7 Torsion [N]-C--CA-[N] |==|  0.28424
USER: genes 8 Torsion [C]-CA--N-[H2] |==|  0.27243
ROOT
ATOM      1  C   ALA B   1       4.425  10.971  20.142  1.00 21.61 LIG 0.25  C 
ATOM      2 O    ALA B   1       4.935  12.034  20.520  1.00 21.59 LIG-0.27  OA
ATOM      3  N   PRO B   2       3.096  10.742  20.179  1.00 20.68 LIG-0.34  N 
ATOM      4  CA  PRO B   2       2.202  11.699  20.837  1.00 19.66 LIG 0.18  C 
ATOM      5  CB  PRO B   2       0.809  11.162  20.508  1.00 19.68 LIG 0.04  C 
ATOM      6  CG  PRO B   2       1.014   9.698  20.248  1.00 19.82 LIG 0.02  C 
ATOM      7  CD  PRO B   2       2.355   9.614  19.584  1.00 21.17 LIG 0.13  C 
ENDROOT
BRANCH 4 8
ATOM      8  C   PRO B   2       2.423  11.755  22.353  1.00 18.80 LIG 0.24  C 
ATOM      9  N   THR B   3       1.886  10.767  23.063  1.00 18.04 LIG-0.34  N 
ATOM     10 H    THR B   3       1.475  10.098  22.713  1.00 18.04 LIG 0.16  HD
ATOM     11 O    PRO B   2       3.045  12.690  22.866  1.00 18.43 LIG-0.27  OA
BRANCH 9 12
ATOM     12  CA  THR B   3       1.948  10.732  24.531  1.00 16.71 LIG 0.21  C 
BRANCH 12 13
ATOM     13  C   THR B   3       1.192  11.915  25.142  1.00 16.11 LIG 0.20  C 
ATOM     14 OXT  THR B   3       1.542  12.391  26.226  1.00 14.78 LIG-0.65  OA
ATOM     15 O    THR B   3       0.201  12.401  24.566  1.00 14.64 LIG-0.65  OA
ENDBRANCH 12 13
BRANCH 12 16
ATOM     16  CB  THR B   3       3.412  10.705  25.057  1.00 16.70 LIG 0.15  C 
ATOM     17  CG2 THR B   3       3.478  10.001  26.412  1.00 16.85 LIG 0.04  C 
BRANCH 16 18
ATOM     18 OG1  THR B   3       4.352  10.069  24.039  1.00 17.97 LIG-0.39  OA
ATOM     19 HG1  THR B   3       3.931   9.910  23.329  1.00 17.97 LIG 0.21  HD
ENDBRANCH 16 18
ENDBRANCH 12 16
ENDBRANCH 9 12
ENDBRANCH 4 8
BRANCH 1 20
ATOM     20  CA  ALA B   1       5.307   9.850  19.584  1.00 22.08 LIG 0.27  C 
ATOM     21  CB  ALA B   1       6.513   9.655  20.464  1.00 22.59 LIG 0.05  C 
BRANCH 20 22
ATOM     22  N   ALA B   1       5.728  10.156  18.188  1.00 23.15 LIG-0.07  N 
ATOM     23 H3   ALA B   1       5.728   9.407  17.707  1.00 23.15 LIG 0.28  HD
ATOM     24 H2   ALA B   1       6.547  10.504  18.193  1.00 23.15 LIG 0.28  HD
ATOM     25 H1   ALA B   1       5.161  10.739  17.827  1.00 23.15 LIG 0.28  HD
ENDBRANCH 20 22
ENDBRANCH 1 20
TORSDOF 7
ENDMDL
MODEL 69
USER: ADFR SOLUTION from run 49
USER: SCORE 6.851078 LL:  -1.556 LR:  -5.295 RR:   0.000 FEB:  -3.207
USER: RMSD 5.667589
USER: SEED 48
USER: STATUS no improvement in best in 30 clusters for 5 generations
USER: GENES 9
USER: genes 0 Translation |==|  0.64674 0.42706 0.45288
USER: genes 1 Rotation |==|  0.81348 0.39601 0.87323 0.54025
USER: genes 2 Torsion [N]-CA--C-[N] |==|  0.98380
USER: genes 3 Torsion [C]-N--CA-[CB] |==|  0.42487
USER: genes 4 Torsion [N]-CA--C-[OXT] |==|  0.01154
USER: genes 5 Torsion [N]-CA--CB-[CG2] |==|  0.64486
USER: genes 6 Torsion [CA]-CB--OG1-[HG1] |==|  0.14122
USER: genes 7 Torsion [N]-C--CA-[N] |==|  0.84271
USER: genes 8 Torsion [C]-CA--N-[H2] |==|  0.47428
ROOT
ATOM      1  C   ALA B   1       6.164  10.770  20.752  1.00 21.61 LIG 0.25  C 
ATOM      2 O    ALA B   1       6.597  10.648  21.905  1.00 21.59 LIG-0.27  OA
ATOM      3  N   PRO B   2       5.585  11.903  20.304  1.00 20.68 LIG-0.34  N 
ATOM      4  CA  PRO B   2       5.290  12.998  21.233  1.00 19.66 LIG 0.18  C 
ATOM      5  CB  PRO B   2       4.813  14.121  20.312  1.00 19.68 LIG 0.04  C 
ATOM      6  CG  PRO B   2       4.304  13.422  19.085  1.00 19.82 LIG 0.02  C 
ATOM      7  CD  PRO B   2       5.211  12.241  18.917  1.00 21.17 LIG 0.13  C 
ENDROOT
BRANCH 4 8
ATOM      8  C   PRO B   2       4.204  12.624  22.248  1.00 18.80 LIG 0.24  C 
ATOM      9  N   THR B   3       3.615  11.445  22.072  1.00 18.04 LIG-0.34  N 
ATOM     10 H    THR B   3       3.844  10.885  21.461  1.00 18.04 LIG 0.16  HD
ATOM     11 O    PRO B   2       3.892  13.403  23.153  1.00 18.43 LIG-0.27  OA
BRANCH 9 12
ATOM     12  CA  THR B   3       2.503  10.990  22.918  1.00 16.71 LIG 0.21  C 
BRANCH 12 13
ATOM     13  C   THR B   3       3.021  10.364  24.216  1.00 16.11 LIG 0.20  C 
ATOM     14 OXT  THR B   3       4.229  10.363  24.473  1.00 14.78 LIG-0.65  OA
ATOM     15 O    THR B   3       2.237   9.830  25.021  1.00 14.64 LIG-0.65  OA
ENDBRANCH 12 13
BRANCH 12 16
ATOM     16  CB  THR B   3       1.571   9.989  22.177  1.00 16.70 LIG 0.15  C 
ATOM     17  CG2 THR B   3       0.116  10.445  22.273  1.00 16.85 LIG 0.04  C 
BRANCH 16 18
ATOM     18 OG1  THR B   3       2.011   9.794  20.730  1.00 17.97 LIG-0.39  OA
ATOM     19 HG1  THR B   3       2.832   9.614  20.708  1.00 17.97 LIG 0.21  HD
ENDBRANCH 16 18
ENDBRANCH 12 16
ENDBRANCH 9 12
ENDBRANCH 4 8
BRANCH 1 20
ATOM     20  CA  ALA B   1       6.289   9.613  19.757  1.00 22.08 LIG 0.27  C 
ATOM     21  CB  ALA B   1       7.228   9.989  18.643  1.00 22.59 LIG 0.05  C 
BRANCH 20 22
ATOM     22  N   ALA B   1       4.954   9.242  19.209  1.00 23.15 LIG-0.07  N 
ATOM     23 H3   ALA B   1       4.464   8.867  19.849  1.00 23.15 LIG 0.28  HD
ATOM     24 H2   ALA B   1       5.057   8.666  18.539  1.00 23.15 LIG 0.28  HD
ATOM     25 H1   ALA B   1       4.542   9.973  18.911  1.00 23.15 LIG 0.28  HD
ENDBRANCH 20 22
ENDBRANCH 1 20
TORSDOF 7
ENDMDL
MODEL 70
USER: ADFR SOLUTION from run 119
USER: SCORE 6.819729 LL:  -1.555 LR:  -5.265 RR:   0.000 FEB:  -3.177
USER: RMSD 7.404282
USER: SEED 118
USER: STATUS no improvement in best in 31 clusters for 5 generations
USER: GENES 9
USER: genes 0 Translation |==|  0.86857 0.54230 0.18611
USER: genes 1 Rotation |==|  0.18059 0.31005 0.21267 0.67128
USER: genes 2 Torsion [N]-CA--C-[N] |==|  0.29806
USER: genes 3 Torsion [C]-N--CA-[CB] |==|  0.40824
USER: genes 4 Torsion [N]-CA--C-[OXT] |==|  0.92375
USER: genes 5 Torsion [N]-CA--CB-[CG2] |==|  0.55382
USER: genes 6 Torsion [CA]-CB--OG1-[HG1] |==|  0.04239
USER: genes 7 Torsion [N]-C--CA-[N] |==|  0.86106
USER: genes 8 Torsion [C]-CA--N-[H2] |==|  0.38932
ROOT
ATOM      1  C   ALA B   1       9.658  12.499  16.751  1.00 21.61 LIG 0.25  C 
ATOM      2 O    ALA B   1       9.729  13.250  17.732  1.00 21.59 LIG-0.27  OA
ATOM      3  N   PRO B   2       8.517  11.877  16.386  1.00 20.68 LIG-0.34  N 
ATOM      4  CA  PRO B   2       7.336  11.937  17.251  1.00 19.66 LIG 0.18  C 
ATOM      5  CB  PRO B   2       6.249  11.270  16.408  1.00 19.68 LIG 0.04  C 
ATOM      6  CG  PRO B   2       6.993  10.377  15.459  1.00 19.82 LIG 0.02  C 
ATOM      7  CD  PRO B   2       8.254  11.124  15.144  1.00 21.17 LIG 0.13  C 
ENDROOT
BRANCH 4 8
ATOM      8  C   PRO B   2       7.543  11.186  18.572  1.00 18.80 LIG 0.24  C 
ATOM      9  N   THR B   3       7.693  11.937  19.658  1.00 18.04 LIG-0.34  N 
ATOM     10 H    THR B   3       7.633  12.795  19.656  1.00 18.04 LIG 0.16  HD
ATOM     11 O    PRO B   2       7.592   9.952  18.595  1.00 18.43 LIG-0.27  OA
BRANCH 9 12
ATOM     12  CA  THR B   3       7.978  11.358  20.979  1.00 16.71 LIG 0.21  C 
BRANCH 12 13
ATOM     13  C   THR B   3       6.683  11.029  21.726  1.00 16.11 LIG 0.20  C 
ATOM     14 OXT  THR B   3       5.648  11.665  21.498  1.00 14.78 LIG-0.65  OA
ATOM     15 O    THR B   3       6.657  10.133  22.589  1.00 14.64 LIG-0.65  OA
ENDBRANCH 12 13
BRANCH 12 16
ATOM     16  CB  THR B   3       8.876  12.286  21.847  1.00 16.70 LIG 0.15  C 
ATOM     17  CG2 THR B   3       9.536  11.489  22.971  1.00 16.85 LIG 0.04  C 
BRANCH 16 18
ATOM     18 OG1  THR B   3       9.902  13.018  20.989  1.00 17.97 LIG-0.39  OA
ATOM     19 HG1  THR B   3       9.683  12.962  20.180  1.00 17.97 LIG 0.21  HD
ENDBRANCH 16 18
ENDBRANCH 12 16
ENDBRANCH 9 12
ENDBRANCH 4 8
BRANCH 1 20
ATOM     20  CA  ALA B   1      10.892  12.253  15.879  1.00 22.08 LIG 0.27  C 
ATOM     21  CB  ALA B   1      10.747  12.971  14.564  1.00 22.59 LIG 0.05  C 
BRANCH 20 22
ATOM     22  N   ALA B   1      11.098  10.795  15.654  1.00 23.15 LIG-0.07  N 
ATOM     23 H3   ALA B   1      11.727  10.495  16.208  1.00 23.15 LIG 0.28  HD
ATOM     24 H2   ALA B   1      11.354  10.657  14.813  1.00 23.15 LIG 0.28  HD
ATOM     25 H1   ALA B   1      10.337  10.360  15.808  1.00 23.15 LIG 0.28  HD
ENDBRANCH 20 22
ENDBRANCH 1 20
TORSDOF 7
ENDMDL
MODEL 71
USER: ADFR SOLUTION from run 102
USER: SCORE 6.648408 LL:  -1.382 LR:  -5.266 RR:   0.000 FEB:  -3.178
USER: RMSD 7.114563
USER: SEED 101
USER: STATUS no improvement in best in 37 clusters for 5 generations
USER: GENES 9
USER: genes 0 Translation |==|  0.68385 0.40600 0.47501
USER: genes 1 Rotation |==|  0.70057 0.13867 0.70943 0.68802
USER: genes 2 Torsion [N]-CA--C-[N] |==|  0.61082
USER: genes 3 Torsion [C]-N--CA-[CB] |==|  0.38517
USER: genes 4 Torsion [N]-CA--C-[OXT] |==|  0.94262
USER: genes 5 Torsion [N]-CA--CB-[CG2] |==|  0.28881
USER: genes 6 Torsion [CA]-CB--OG1-[HG1] |==|  0.41940
USER: genes 7 Torsion [N]-C--CA-[N] |==|  0.46160
USER: genes 8 Torsion [C]-CA--N-[H2] |==|  0.92685
ROOT
ATOM      1  C   ALA B   1       6.749  10.454  21.084  1.00 21.61 LIG 0.25  C 
ATOM      2 O    ALA B   1       6.478   9.546  21.881  1.00 21.59 LIG-0.27  OA
ATOM      3  N   PRO B   2       7.786  11.298  21.261  1.00 20.68 LIG-0.34  N 
ATOM      4  CA  PRO B   2       8.547  11.278  22.514  1.00 19.66 LIG 0.18  C 
ATOM      5  CB  PRO B   2       9.705  12.238  22.237  1.00 19.68 LIG 0.04  C 
ATOM      6  CG  PRO B   2       9.196  13.151  21.160  1.00 19.82 LIG 0.02  C 
ATOM      7  CD  PRO B   2       8.327  12.281  20.303  1.00 21.17 LIG 0.13  C 
ENDROOT
BRANCH 4 8
ATOM      8  C   PRO B   2       7.714  11.754  23.709  1.00 18.80 LIG 0.24  C 
ATOM      9  N   THR B   3       8.340  12.524  24.593  1.00 18.04 LIG-0.34  N 
ATOM     10 H    THR B   3       9.151  12.795  24.499  1.00 18.04 LIG 0.16  HD
ATOM     11 O    PRO B   2       6.537  11.404  23.837  1.00 18.43 LIG-0.27  OA
BRANCH 9 12
ATOM     12  CA  THR B   3       7.692  12.988  25.828  1.00 16.71 LIG 0.21  C 
BRANCH 12 13
ATOM     13  C   THR B   3       7.144  14.408  25.661  1.00 16.11 LIG 0.20  C 
ATOM     14 OXT  THR B   3       7.580  15.148  24.773  1.00 14.78 LIG-0.65  OA
ATOM     15 O    THR B   3       6.267  14.845  26.428  1.00 14.64 LIG-0.65  OA
ENDBRANCH 12 13
BRANCH 12 16
ATOM     16  CB  THR B   3       8.648  12.925  27.054  1.00 16.70 LIG 0.15  C 
ATOM     17  CG2 THR B   3       9.148  14.323  27.412  1.00 16.85 LIG 0.04  C 
BRANCH 16 18
ATOM     18 OG1  THR B   3       7.978  12.239  28.240  1.00 17.97 LIG-0.39  OA
ATOM     19 HG1  THR B   3       8.562  11.864  28.714  1.00 17.97 LIG 0.21  HD
ENDBRANCH 16 18
ENDBRANCH 12 16
ENDBRANCH 9 12
ENDBRANCH 4 8
BRANCH 1 20
ATOM     20  CA  ALA B   1       5.903  10.648  19.822  1.00 22.08 LIG 0.27  C 
ATOM     21  CB  ALA B   1       5.079  11.902  19.940  1.00 22.59 LIG 0.05  C 
BRANCH 20 22
ATOM     22  N   ALA B   1       5.024   9.468  19.591  1.00 23.15 LIG-0.07  N 
ATOM     23 H3   ALA B   1       4.227   9.614  19.959  1.00 23.15 LIG 0.28  HD
ATOM     24 H2   ALA B   1       5.392   8.746  19.959  1.00 23.15 LIG 0.28  HD
ATOM     25 H1   ALA B   1       4.926   9.337  18.716  1.00 23.15 LIG 0.28  HD
ENDBRANCH 20 22
ENDBRANCH 1 20
TORSDOF 7
ENDMDL
MODEL 72
USER: ADFR SOLUTION from run 160
USER: SCORE 6.679688 LL:  -1.433 LR:  -5.247 RR:   0.000 FEB:  -3.159
USER: RMSD 7.926641
USER: SEED 159
USER: STATUS no improvement in best in 30 clusters for 5 generations
USER: GENES 9
USER: genes 0 Translation |==|  0.87927 0.57339 0.19016
USER: genes 1 Rotation |==|  0.25002 0.87245 0.28158 0.53292
USER: genes 2 Torsion [N]-CA--C-[N] |==|  0.22024
USER: genes 3 Torsion [C]-N--CA-[CB] |==|  0.46476
USER: genes 4 Torsion [N]-CA--C-[OXT] |==|  0.86171
USER: genes 5 Torsion [N]-CA--CB-[CG2] |==|  0.44978
USER: genes 6 Torsion [CA]-CB--OG1-[HG1] |==|  0.73043
USER: genes 7 Torsion [N]-C--CA-[N] |==|  0.23802
USER: genes 8 Torsion [C]-CA--N-[H2] |==|  0.29113
ROOT
ATOM      1  C   ALA B   1       9.826  12.965  16.811  1.00 21.61 LIG 0.25  C 
ATOM      2 O    ALA B   1       9.830  11.745  17.021  1.00 21.59 LIG-0.27  OA
ATOM      3  N   PRO B   2       9.987  13.877  17.793  1.00 20.68 LIG-0.34  N 
ATOM      4  CA  PRO B   2      10.005  13.453  19.196  1.00 19.66 LIG 0.18  C 
ATOM      5  CB  PRO B   2      10.372  14.735  19.945  1.00 19.68 LIG 0.04  C 
ATOM      6  CG  PRO B   2       9.939  15.847  19.036  1.00 19.82 LIG 0.02  C 
ATOM      7  CD  PRO B   2      10.196  15.331  17.653  1.00 21.17 LIG 0.13  C 
ENDROOT
BRANCH 4 8
ATOM      8  C   PRO B   2       8.646  12.918  19.661  1.00 18.80 LIG 0.24  C 
ATOM      9  N   THR B   3       8.353  11.670  19.307  1.00 18.04 LIG-0.34  N 
ATOM     10 H    THR B   3       8.896  11.155  18.885  1.00 18.04 LIG 0.16  HD
ATOM     11 O    PRO B   2       7.871  13.634  20.302  1.00 18.43 LIG-0.27  OA
BRANCH 9 12
ATOM     12  CA  THR B   3       7.054  11.053  19.613  1.00 16.71 LIG 0.21  C 
BRANCH 12 13
ATOM     13  C   THR B   3       6.901  10.812  21.117  1.00 16.11 LIG 0.20  C 
ATOM     14 OXT  THR B   3       7.793  10.244  21.756  1.00 14.78 LIG-0.65  OA
ATOM     15 O    THR B   3       5.868  11.165  21.715  1.00 14.64 LIG-0.65  OA
ENDBRANCH 12 13
BRANCH 12 16
ATOM     16  CB  THR B   3       6.837   9.724  18.834  1.00 16.70 LIG 0.15  C 
ATOM     17  CG2 THR B   3       5.728   8.899  19.486  1.00 16.85 LIG 0.04  C 
BRANCH 16 18
ATOM     18 OG1  THR B   3       6.557   9.989  17.359  1.00 17.97 LIG-0.39  OA
ATOM     19 HG1  THR B   3       5.728   9.978  17.224  1.00 17.97 LIG 0.21  HD
ENDBRANCH 16 18
ENDBRANCH 12 16
ENDBRANCH 9 12
ENDBRANCH 4 8
BRANCH 1 20
ATOM     20  CA  ALA B   1       9.653  13.501  15.387  1.00 22.08 LIG 0.27  C 
ATOM     21  CB  ALA B   1       8.841  12.534  14.567  1.00 22.59 LIG 0.05  C 
BRANCH 20 22
ATOM     22  N   ALA B   1      10.978  13.739  14.749  1.00 23.15 LIG-0.07  N 
ATOM     23 H3   ALA B   1      10.970  14.526  14.334  1.00 23.15 LIG 0.28  HD
ATOM     24 H2   ALA B   1      11.143  13.095  14.158  1.00 23.15 LIG 0.28  HD
ATOM     25 H1   ALA B   1      11.613  13.739  15.373  1.00 23.15 LIG 0.28  HD
ENDBRANCH 20 22
ENDBRANCH 1 20
TORSDOF 7
ENDMDL
MODEL 73
USER: ADFR SOLUTION from run 184
USER: SCORE 6.995321 LL:  -1.760 LR:  -5.235 RR:   0.000 FEB:  -3.147
USER: RMSD 8.271719
USER: SEED 183
USER: STATUS no improvement in best in 33 clusters for 5 generations
USER: GENES 9
USER: genes 0 Translation |==|  0.87283 0.69720 0.18309
USER: genes 1 Rotation |==|  0.47322 0.86003 0.83670 0.57933
USER: genes 2 Torsion [N]-CA--C-[N] |==|  0.81245
USER: genes 3 Torsion [C]-N--CA-[CB] |==|  0.27916
USER: genes 4 Torsion [N]-CA--C-[OXT] |==|  0.84565
USER: genes 5 Torsion [N]-CA--CB-[CG2] |==|  0.67141
USER: genes 6 Torsion [CA]-CB--OG1-[HG1] |==|  0.34356
USER: genes 7 Torsion [N]-C--CA-[N] |==|  0.43846
USER: genes 8 Torsion [C]-CA--N-[H2] |==|  0.80945
ROOT
ATOM      1  C   ALA B   1       9.725  14.822  16.705  1.00 21.61 LIG 0.25  C 
ATOM      2 O    ALA B   1       8.914  15.519  16.082  1.00 21.59 LIG-0.27  OA
ATOM      3  N   PRO B   2      10.218  13.663  16.221  1.00 20.68 LIG-0.34  N 
ATOM      4  CA  PRO B   2       9.674  13.090  14.987  1.00 19.66 LIG 0.18  C 
ATOM      5  CB  PRO B   2      10.603  11.907  14.710  1.00 19.68 LIG 0.04  C 
ATOM      6  CG  PRO B   2      11.170  11.543  16.051  1.00 19.82 LIG 0.02  C 
ATOM      7  CD  PRO B   2      11.321  12.850  16.768  1.00 21.17 LIG 0.13  C 
ENDROOT
BRANCH 4 8
ATOM      8  C   PRO B   2       8.224  12.620  15.152  1.00 18.80 LIG 0.24  C 
ATOM      9  N   THR B   3       8.031  11.580  15.955  1.00 18.04 LIG-0.34  N 
ATOM     10 H    THR B   3       8.658  11.203  16.407  1.00 18.04 LIG 0.16  HD
ATOM     11 O    PRO B   2       7.307  13.176  14.539  1.00 18.43 LIG-0.27  OA
BRANCH 9 12
ATOM     12  CA  THR B   3       6.706  10.971  16.146  1.00 16.71 LIG 0.21  C 
BRANCH 12 13
ATOM     13  C   THR B   3       6.442  10.682  17.626  1.00 16.11 LIG 0.20  C 
ATOM     14 OXT  THR B   3       7.228   9.989  18.280  1.00 14.78 LIG-0.65  OA
ATOM     15 O    THR B   3       5.422  11.123  18.187  1.00 14.64 LIG-0.65  OA
ENDBRANCH 12 13
BRANCH 12 16
ATOM     16  CB  THR B   3       6.529   9.672  15.308  1.00 16.70 LIG 0.15  C 
ATOM     17  CG2 THR B   3       5.388   9.837  14.305  1.00 16.85 LIG 0.04  C 
BRANCH 16 18
ATOM     18 OG1  THR B   3       7.833   9.275  14.625  1.00 17.97 LIG-0.39  OA
ATOM     19 HG1  THR B   3       8.039   8.491  14.848  1.00 17.97 LIG 0.21  HD
ENDBRANCH 16 18
ENDBRANCH 12 16
ENDBRANCH 9 12
ENDBRANCH 4 8
BRANCH 1 20
ATOM     20  CA  ALA B   1      10.228  15.270  18.080  1.00 22.08 LIG 0.27  C 
ATOM     21  CB  ALA B   1       9.502  14.521  19.165  1.00 22.59 LIG 0.05  C 
BRANCH 20 22
ATOM     22  N   ALA B   1      10.049  16.739  18.254  1.00 23.15 LIG-0.07  N 
ATOM     23 H3   ALA B   1       9.210  16.961  18.061  1.00 23.15 LIG 0.28  HD
ATOM     24 H2   ALA B   1      10.603  17.172  17.709  1.00 23.15 LIG 0.28  HD
ATOM     25 H1   ALA B   1      10.228  16.962  19.097  1.00 23.15 LIG 0.28  HD
ENDBRANCH 20 22
ENDBRANCH 1 20
TORSDOF 7
ENDMDL
MODEL 74
USER: ADFR SOLUTION from run 166
USER: SCORE 7.018873 LL:  -1.797 LR:  -5.222 RR:   0.000 FEB:  -3.134
USER: RMSD 8.362667
USER: SEED 165
USER: STATUS no improvement in best in 39 clusters for 5 generations
USER: GENES 9
USER: genes 0 Translation |==|  0.75381 0.42500 0.15336
USER: genes 1 Rotation |==|  0.66787 0.24919 0.73737 0.82026
USER: genes 2 Torsion [N]-CA--C-[N] |==|  0.91718
USER: genes 3 Torsion [C]-N--CA-[CB] |==|  0.18499
USER: genes 4 Torsion [N]-CA--C-[OXT] |==|  0.49714
USER: genes 5 Torsion [N]-CA--CB-[CG2] |==|  0.24285
USER: genes 6 Torsion [CA]-CB--OG1-[HG1] |==|  0.54172
USER: genes 7 Torsion [N]-C--CA-[N] |==|  0.39832
USER: genes 8 Torsion [C]-CA--N-[H2] |==|  0.50849
ROOT
ATOM      1  C   ALA B   1       7.851  10.739  16.259  1.00 21.61 LIG 0.25  C 
ATOM      2 O    ALA B   1       7.989  10.394  17.440  1.00 21.59 LIG-0.27  OA
ATOM      3  N   PRO B   2       8.834  11.329  15.549  1.00 20.68 LIG-0.34  N 
ATOM      4  CA  PRO B   2      10.074  11.744  16.211  1.00 19.66 LIG 0.18  C 
ATOM      5  CB  PRO B   2      10.959  12.194  15.048  1.00 19.68 LIG 0.04  C 
ATOM      6  CG  PRO B   2       9.999  12.573  13.959  1.00 19.82 LIG 0.02  C 
ATOM      7  CD  PRO B   2       8.863  11.605  14.099  1.00 21.17 LIG 0.13  C 
ENDROOT
BRANCH 4 8
ATOM      8  C   PRO B   2       9.849  12.890  17.203  1.00 18.80 LIG 0.24  C 
ATOM      9  N   THR B   3       8.854  13.725  16.922  1.00 18.04 LIG-0.34  N 
ATOM     10 H    THR B   3       8.321  13.623  16.255  1.00 18.04 LIG 0.16  HD
ATOM     11 O    PRO B   2      10.584  13.026  18.187  1.00 18.43 LIG-0.27  OA
BRANCH 9 12
ATOM     12  CA  THR B   3       8.573  14.914  17.740  1.00 16.71 LIG 0.21  C 
BRANCH 12 13
ATOM     13  C   THR B   3       7.235  15.547  17.347  1.00 16.11 LIG 0.20  C 
ATOM     14 OXT  THR B   3       6.817  16.548  17.938  1.00 14.78 LIG-0.65  OA
ATOM     15 O    THR B   3       6.538  15.051  16.443  1.00 14.64 LIG-0.65  OA
ENDBRANCH 12 13
BRANCH 12 16
ATOM     16  CB  THR B   3       9.710  15.971  17.651  1.00 16.70 LIG 0.15  C 
ATOM     17  CG2 THR B   3       9.477  16.906  16.465  1.00 16.85 LIG 0.04  C 
BRANCH 16 18
ATOM     18 OG1  THR B   3       9.853  16.738  18.961  1.00 17.97 LIG-0.39  OA
ATOM     19 HG1  THR B   3      10.317  17.427  18.834  1.00 17.97 LIG 0.21  HD
ENDBRANCH 16 18
ENDBRANCH 12 16
ENDBRANCH 9 12
ENDBRANCH 4 8
BRANCH 1 20
ATOM     20  CA  ALA B   1       6.526  10.485  15.534  1.00 22.08 LIG 0.27  C 
ATOM     21  CB  ALA B   1       5.574  11.624  15.784  1.00 22.59 LIG 0.05  C 
BRANCH 20 22
ATOM     22  N   ALA B   1       5.922   9.197  15.975  1.00 23.15 LIG-0.07  N 
ATOM     23 H3   ALA B   1       6.499   8.534  15.834  1.00 23.15 LIG 0.28  HD
ATOM     24 H2   ALA B   1       5.177   9.044  15.513  1.00 23.15 LIG 0.28  HD
ATOM     25 H1   ALA B   1       5.728   9.241  16.843  1.00 23.15 LIG 0.28  HD
ENDBRANCH 20 22
ENDBRANCH 1 20
TORSDOF 7
ENDMDL
MODEL 75
USER: ADFR SOLUTION from run 46
USER: SCORE 6.902620 LL:  -1.703 LR:  -5.200 RR:   0.000 FEB:  -3.112
USER: RMSD 5.122645
USER: SEED 45
USER: STATUS no improvement in best in 41 clusters for 5 generations
USER: GENES 9
USER: genes 0 Translation |==|  0.52521 0.45744 0.39461
USER: genes 1 Rotation |==|  0.53406 0.12074 0.51535 0.82368
USER: genes 2 Torsion [N]-CA--C-[N] |==|  0.19756
USER: genes 3 Torsion [C]-N--CA-[CB] |==|  0.19583
USER: genes 4 Torsion [N]-CA--C-[OXT] |==|  0.51740
USER: genes 5 Torsion [N]-CA--CB-[CG2] |==|  0.70237
USER: genes 6 Torsion [CA]-CB--OG1-[HG1] |==|  0.07311
USER: genes 7 Torsion [N]-C--CA-[N] |==|  0.18346
USER: genes 8 Torsion [C]-CA--N-[H2] |==|  0.53634
ROOT
ATOM      1  C   ALA B   1       4.250  11.226  19.878  1.00 21.61 LIG 0.25  C 
ATOM      2 O    ALA B   1       3.558  10.786  20.805  1.00 21.59 LIG-0.27  OA
ATOM      3  N   PRO B   2       5.447  10.699  19.545  1.00 20.68 LIG-0.34  N 
ATOM      4  CA  PRO B   2       6.061   9.672  20.391  1.00 19.66 LIG 0.18  C 
ATOM      5  CB  PRO B   2       7.286   9.239  19.584  1.00 19.68 LIG 0.04  C 
ATOM      6  CG  PRO B   2       7.603  10.415  18.707  1.00 19.82 LIG 0.02  C 
ATOM      7  CD  PRO B   2       6.268  10.998  18.356  1.00 21.17 LIG 0.13  C 
ENDROOT
BRANCH 4 8
ATOM      8  C   PRO B   2       6.475  10.218  21.762  1.00 18.80 LIG 0.24  C 
ATOM      9  N   THR B   3       5.486  10.508  22.602  1.00 18.04 LIG-0.34  N 
ATOM     10 H    THR B   3       4.656  10.363  22.430  1.00 18.04 LIG 0.16  HD
ATOM     11 O    PRO B   2       7.665  10.397  22.038  1.00 18.43 LIG-0.27  OA
BRANCH 9 12
ATOM     12  CA  THR B   3       5.728  11.114  23.920  1.00 16.71 LIG 0.21  C 
BRANCH 12 13
ATOM     13  C   THR B   3       4.483  11.019  24.806  1.00 16.11 LIG 0.20  C 
ATOM     14 OXT  THR B   3       4.454  11.574  25.909  1.00 14.78 LIG-0.65  OA
ATOM     15 O    THR B   3       3.491  10.364  24.438  1.00 14.64 LIG-0.65  OA
ENDBRANCH 12 13
BRANCH 12 16
ATOM     16  CB  THR B   3       6.194  12.594  23.810  1.00 16.70 LIG 0.15  C 
ATOM     17  CG2 THR B   3       7.681  12.710  24.144  1.00 16.85 LIG 0.04  C 
BRANCH 16 18
ATOM     18 OG1  THR B   3       5.873  13.173  22.436  1.00 17.97 LIG-0.39  OA
ATOM     19 HG1  THR B   3       5.215  12.766  22.107  1.00 17.97 LIG 0.21  HD
ENDBRANCH 16 18
ENDBRANCH 12 16
ENDBRANCH 9 12
ENDBRANCH 4 8
BRANCH 1 20
ATOM     20  CA  ALA B   1       3.752  12.405  19.039  1.00 22.08 LIG 0.27  C 
ATOM     21  CB  ALA B   1       2.518  12.999  19.662  1.00 22.59 LIG 0.05  C 
BRANCH 20 22
ATOM     22  N   ALA B   1       3.473  11.976  17.640  1.00 23.15 LIG-0.07  N 
ATOM     23 H3   ALA B   1       4.153  11.489  17.337  1.00 23.15 LIG 0.28  HD
ATOM     24 H2   ALA B   1       3.370  12.694  17.124  1.00 23.15 LIG 0.28  HD
ATOM     25 H1   ALA B   1       2.728  11.489  17.622  1.00 23.15 LIG 0.28  HD
ENDBRANCH 20 22
ENDBRANCH 1 20
TORSDOF 7
ENDMDL
MODEL 76
USER: ADFR SOLUTION from run 123
USER: SCORE 6.694349 LL:  -1.490 LR:  -5.204 RR:   0.000 FEB:  -3.116
USER: RMSD 7.171683
USER: SEED 122
USER: STATUS no improvement in best in 34 clusters for 5 generations
USER: GENES 9
USER: genes 0 Translation |==|  0.87695 0.70646 0.42197
USER: genes 1 Rotation |==|  0.35200 0.95767 0.53480 0.63200
USER: genes 2 Torsion [N]-CA--C-[N] |==|  0.41500
USER: genes 3 Torsion [C]-N--CA-[CB] |==|  0.44002
USER: genes 4 Torsion [N]-CA--C-[OXT] |==|  0.29482
USER: genes 5 Torsion [N]-CA--CB-[CG2] |==|  0.54087
USER: genes 6 Torsion [CA]-CB--OG1-[HG1] |==|  0.25990
USER: genes 7 Torsion [N]-C--CA-[N] |==|  0.46364
USER: genes 8 Torsion [C]-CA--N-[H2] |==|  0.82505
ROOT
ATOM      1  C   ALA B   1       9.790  14.961  20.289  1.00 21.61 LIG 0.25  C 
ATOM      2 O    ALA B   1       9.503  14.356  19.247  1.00 21.59 LIG-0.27  OA
ATOM      3  N   PRO B   2      10.064  14.330  21.450  1.00 20.68 LIG-0.34  N 
ATOM      4  CA  PRO B   2       9.865  12.883  21.567  1.00 19.66 LIG 0.18  C 
ATOM      5  CB  PRO B   2      10.441  12.560  22.945  1.00 19.68 LIG 0.04  C 
ATOM      6  CG  PRO B   2      10.348  13.847  23.711  1.00 19.82 LIG 0.02  C 
ATOM      7  CD  PRO B   2      10.603  14.915  22.692  1.00 21.17 LIG 0.13  C 
ENDROOT
BRANCH 4 8
ATOM      8  C   PRO B   2       8.385  12.490  21.486  1.00 18.80 LIG 0.24  C 
ATOM      9  N   THR B   3       8.121  11.297  20.963  1.00 18.04 LIG-0.34  N 
ATOM     10 H    THR B   3       8.728  10.737  20.721  1.00 18.04 LIG 0.16  HD
ATOM     11 O    PRO B   2       7.504  13.267  21.866  1.00 18.43 LIG-0.27  OA
BRANCH 9 12
ATOM     12  CA  THR B   3       6.747  10.820  20.750  1.00 16.71 LIG 0.21  C 
BRANCH 12 13
ATOM     13  C   THR B   3       6.121  10.340  22.062  1.00 16.11 LIG 0.20  C 
ATOM     14 OXT  THR B   3       5.261  11.019  22.632  1.00 14.78 LIG-0.65  OA
ATOM     15 O    THR B   3       6.484   9.270  22.584  1.00 14.64 LIG-0.65  OA
ENDBRANCH 12 13
BRANCH 12 16
ATOM     16  CB  THR B   3       6.675   9.694  19.679  1.00 16.70 LIG 0.15  C 
ATOM     17  CG2 THR B   3       5.231   9.484  19.224  1.00 16.85 LIG 0.04  C 
BRANCH 16 18
ATOM     18 OG1  THR B   3       7.603   9.989  18.506  1.00 17.97 LIG-0.39  OA
ATOM     19 HG1  THR B   3       8.345   9.616  18.634  1.00 17.97 LIG 0.21  HD
ENDBRANCH 16 18
ENDBRANCH 12 16
ENDBRANCH 9 12
ENDBRANCH 4 8
BRANCH 1 20
ATOM     20  CA  ALA B   1       9.865  16.490  20.294  1.00 22.08 LIG 0.27  C 
ATOM     21  CB  ALA B   1       8.718  17.061  21.085  1.00 22.59 LIG 0.05  C 
BRANCH 20 22
ATOM     22  N   ALA B   1       9.853  17.024  18.904  1.00 23.15 LIG-0.07  N 
ATOM     23 H3   ALA B   1       9.123  16.739  18.482  1.00 23.15 LIG 0.28  HD
ATOM     24 H2   ALA B   1      10.576  16.739  18.470  1.00 23.15 LIG 0.28  HD
ATOM     25 H1   ALA B   1       9.853  17.914  18.927  1.00 23.15 LIG 0.28  HD
ENDBRANCH 20 22
ENDBRANCH 1 20
TORSDOF 7
ENDMDL
MODEL 77
USER: ADFR SOLUTION from run 2
USER: SCORE 6.783215 LL:  -1.603 LR:  -5.181 RR:   0.000 FEB:  -3.093
USER: RMSD 3.681738
USER: SEED 336997
USER: STATUS no improvement in best in 34 clusters for 5 generations
USER: GENES 9
USER: genes 0 Translation |==|  0.42112 0.55289 0.41642
USER: genes 1 Rotation |==|  0.16927 0.30765 0.41777 0.81122
USER: genes 2 Torsion [N]-CA--C-[N] |==|  0.01501
USER: genes 3 Torsion [C]-N--CA-[CB] |==|  0.40039
USER: genes 4 Torsion [N]-CA--C-[OXT] |==|  0.40732
USER: genes 5 Torsion [N]-CA--CB-[CG2] |==|  0.56571
USER: genes 6 Torsion [CA]-CB--OG1-[HG1] |==|  0.92125
USER: genes 7 Torsion [N]-C--CA-[N] |==|  0.84343
USER: genes 8 Torsion [C]-CA--N-[H2] |==|  0.76775
ROOT
ATOM      1  C   ALA B   1       2.611  12.657  20.205  1.00 21.61 LIG 0.25  C 
ATOM      2 O    ALA B   1       2.926  13.514  21.042  1.00 21.59 LIG-0.27  OA
ATOM      3  N   PRO B   2       2.070  11.468  20.543  1.00 20.68 LIG-0.34  N 
ATOM      4  CA  PRO B   2       1.987  11.070  21.951  1.00 19.66 LIG 0.18  C 
ATOM      5  CB  PRO B   2       1.176   9.775  21.903  1.00 19.68 LIG 0.04  C 
ATOM      6  CG  PRO B   2       1.391   9.239  20.517  1.00 19.82 LIG 0.02  C 
ATOM      7  CD  PRO B   2       1.476  10.456  19.648  1.00 21.17 LIG 0.13  C 
ENDROOT
BRANCH 4 8
ATOM      8  C   PRO B   2       3.369  10.827  22.570  1.00 18.80 LIG 0.24  C 
ATOM      9  N   THR B   3       4.416  11.114  21.802  1.00 18.04 LIG-0.34  N 
ATOM     10 H    THR B   3       4.351  11.462  21.018  1.00 18.04 LIG 0.16  HD
ATOM     11 O    PRO B   2       3.478  10.364  23.709  1.00 18.43 LIG-0.27  OA
BRANCH 9 12
ATOM     12  CA  THR B   3       5.798  10.857  22.232  1.00 16.71 LIG 0.21  C 
BRANCH 12 13
ATOM     13  C   THR B   3       6.397  12.087  22.921  1.00 16.11 LIG 0.20  C 
ATOM     14 OXT  THR B   3       7.207  11.956  23.844  1.00 14.78 LIG-0.65  OA
ATOM     15 O    THR B   3       6.061  13.234  22.576  1.00 14.64 LIG-0.65  OA
ENDBRANCH 12 13
BRANCH 12 16
ATOM     16  CB  THR B   3       6.707  10.409  21.052  1.00 16.70 LIG 0.15  C 
ATOM     17  CG2 THR B   3       7.903   9.614  21.574  1.00 16.85 LIG 0.04  C 
BRANCH 16 18
ATOM     18 OG1  THR B   3       5.914   9.627  20.011  1.00 17.97 LIG-0.39  OA
ATOM     19 HG1  THR B   3       5.268   9.239  20.384  1.00 17.97 LIG 0.21  HD
ENDBRANCH 16 18
ENDBRANCH 12 16
ENDBRANCH 9 12
ENDBRANCH 4 8
BRANCH 1 20
ATOM     20  CA  ALA B   1       2.811  12.930  18.712  1.00 22.08 LIG 0.27  C 
ATOM     21  CB  ALA B   1       1.477  13.024  18.021  1.00 22.59 LIG 0.05  C 
BRANCH 20 22
ATOM     22  N   ALA B   1       3.645  11.864  18.089  1.00 23.15 LIG-0.07  N 
ATOM     23 H3   ALA B   1       3.449  11.079  18.459  1.00 23.15 LIG 0.28  HD
ATOM     24 H2   ALA B   1       4.506  12.046  18.219  1.00 23.15 LIG 0.28  HD
ATOM     25 H1   ALA B   1       3.478  11.829  17.215  1.00 23.15 LIG 0.28  HD
ENDBRANCH 20 22
ENDBRANCH 1 20
TORSDOF 7
ENDMDL
MODEL 78
USER: ADFR SOLUTION from run 2
USER: SCORE 6.575592 LL:  -1.406 LR:  -5.170 RR:   0.000 FEB:  -3.082
USER: RMSD 5.009254
USER: SEED 336997
USER: STATUS no improvement in best in 34 clusters for 5 generations
USER: GENES 9
USER: genes 0 Translation |==|  0.54754 0.42500 0.60182
USER: genes 1 Rotation |==|  0.59615 0.28626 0.61943 0.92521
USER: genes 2 Torsion [N]-CA--C-[N] |==|  0.73632
USER: genes 3 Torsion [C]-N--CA-[CB] |==|  0.15588
USER: genes 4 Torsion [N]-CA--C-[OXT] |==|  0.19061
USER: genes 5 Torsion [N]-CA--CB-[CG2] |==|  0.10640
USER: genes 6 Torsion [CA]-CB--OG1-[HG1] |==|  0.94054
USER: genes 7 Torsion [N]-C--CA-[N] |==|  0.20421
USER: genes 8 Torsion [C]-CA--N-[H2] |==|  0.83199
ROOT
ATOM      1  C   ALA B   1       4.602  10.739  22.986  1.00 21.61 LIG 0.25  C 
ATOM      2 O    ALA B   1       4.943  10.439  24.138  1.00 21.59 LIG-0.27  OA
ATOM      3  N   PRO B   2       5.420  10.606  21.922  1.00 20.68 LIG-0.34  N 
ATOM      4  CA  PRO B   2       6.829  10.251  22.115  1.00 19.66 LIG 0.18  C 
ATOM      5  CB  PRO B   2       7.337  10.040  20.689  1.00 19.68 LIG 0.04  C 
ATOM      6  CG  PRO B   2       6.415  10.853  19.829  1.00 19.82 LIG 0.02  C 
ATOM      7  CD  PRO B   2       5.076  10.739  20.493  1.00 21.17 LIG 0.13  C 
ENDROOT
BRANCH 4 8
ATOM      8  C   PRO B   2       7.618  11.362  22.819  1.00 18.80 LIG 0.24  C 
ATOM      9  N   THR B   3       8.271  12.210  22.030  1.00 18.04 LIG-0.34  N 
ATOM     10 H    THR B   3       8.231  12.189  21.171  1.00 18.04 LIG 0.16  HD
ATOM     11 O    PRO B   2       7.653  11.428  24.051  1.00 18.43 LIG-0.27  OA
BRANCH 9 12
ATOM     12  CA  THR B   3       9.132  13.274  22.565  1.00 16.71 LIG 0.21  C 
BRANCH 12 13
ATOM     13  C   THR B   3       9.759  14.094  21.434  1.00 16.11 LIG 0.20  C 
ATOM     14 OXT  THR B   3       9.058  14.827  20.728  1.00 14.78 LIG-0.65  OA
ATOM     15 O    THR B   3      10.978  14.020  21.196  1.00 14.64 LIG-0.65  OA
ENDBRANCH 12 13
BRANCH 12 16
ATOM     16  CB  THR B   3      10.243  12.717  23.501  1.00 16.70 LIG 0.15  C 
ATOM     17  CG2 THR B   3      10.782  11.394  22.959  1.00 16.85 LIG 0.04  C 
BRANCH 16 18
ATOM     18 OG1  THR B   3      11.353  13.742  23.709  1.00 17.97 LIG-0.39  OA
ATOM     19 HG1  THR B   3      11.341  14.300  23.081  1.00 17.97 LIG 0.21  HD
ENDBRANCH 16 18
ENDBRANCH 12 16
ENDBRANCH 9 12
ENDBRANCH 4 8
BRANCH 1 20
ATOM     20  CA  ALA B   1       3.191  11.270  22.716  1.00 22.08 LIG 0.27  C 
ATOM     21  CB  ALA B   1       2.554  11.722  24.003  1.00 22.59 LIG 0.05  C 
BRANCH 20 22
ATOM     22  N   ALA B   1       2.353  10.229  22.058  1.00 23.15 LIG-0.07  N 
ATOM     23 H3   ALA B   1       2.301   9.513  22.584  1.00 23.15 LIG 0.28  HD
ATOM     24 H2   ALA B   1       2.721   9.999  21.281  1.00 23.15 LIG 0.28  HD
ATOM     25 H1   ALA B   1       1.536  10.552  21.915  1.00 23.15 LIG 0.28  HD
ENDBRANCH 20 22
ENDBRANCH 1 20
TORSDOF 7
ENDMDL
MODEL 79
USER: ADFR SOLUTION from run 107
USER: SCORE 6.961821 LL:  -1.787 LR:  -5.175 RR:   0.000 FEB:  -3.087
USER: RMSD 7.519749
USER: SEED 106
USER: STATUS no improvement in best in 26 clusters for 5 generations
USER: GENES 9
USER: genes 0 Translation |==|  0.90818 0.57614 0.23009
USER: genes 1 Rotation |==|  0.12823 0.71472 0.25934 0.58811
USER: genes 2 Torsion [N]-CA--C-[N] |==|  0.95679
USER: genes 3 Torsion [C]-N--CA-[CB] |==|  0.21136
USER: genes 4 Torsion [N]-CA--C-[OXT] |==|  0.98420
USER: genes 5 Torsion [N]-CA--CB-[CG2] |==|  0.24978
USER: genes 6 Torsion [CA]-CB--OG1-[HG1] |==|  0.68903
USER: genes 7 Torsion [N]-C--CA-[N] |==|  0.25882
USER: genes 8 Torsion [C]-CA--N-[H2] |==|  0.07701
ROOT
ATOM      1  C   ALA B   1      10.282  13.006  17.410  1.00 21.61 LIG 0.25  C 
ATOM      2 O    ALA B   1      11.107  12.239  17.923  1.00 21.59 LIG-0.27  OA
ATOM      3  N   PRO B   2       9.626  13.952  18.114  1.00 20.68 LIG-0.34  N 
ATOM      4  CA  PRO B   2       9.743  13.999  19.574  1.00 19.66 LIG 0.18  C 
ATOM      5  CB  PRO B   2       9.006  15.286  19.944  1.00 19.68 LIG 0.04  C 
ATOM      6  CG  PRO B   2       8.049  15.520  18.812  1.00 19.82 LIG 0.02  C 
ATOM      7  CD  PRO B   2       8.778  15.042  17.593  1.00 21.17 LIG 0.13  C 
ENDROOT
BRANCH 4 8
ATOM      8  C   PRO B   2       9.097  12.784  20.250  1.00 18.80 LIG 0.24  C 
ATOM      9  N   THR B   3       8.273  12.062  19.498  1.00 18.04 LIG-0.34  N 
ATOM     10 H    THR B   3       8.130  12.216  18.664  1.00 18.04 LIG 0.16  HD
ATOM     11 O    PRO B   2       9.323  12.528  21.436  1.00 18.43 LIG-0.27  OA
BRANCH 9 12
ATOM     12  CA  THR B   3       7.522  10.918  20.033  1.00 16.71 LIG 0.21  C 
BRANCH 12 13
ATOM     13  C   THR B   3       7.054   9.991  18.907  1.00 16.11 LIG 0.20  C 
ATOM     14 OXT  THR B   3       7.229  10.304  17.725  1.00 14.78 LIG-0.65  OA
ATOM     15 O    THR B   3       6.473   8.921  19.165  1.00 14.64 LIG-0.65  OA
ENDBRANCH 12 13
BRANCH 12 16
ATOM     16  CB  THR B   3       6.307  11.364  20.897  1.00 16.70 LIG 0.15  C 
ATOM     17  CG2 THR B   3       5.062  11.518  20.026  1.00 16.85 LIG 0.04  C 
BRANCH 16 18
ATOM     18 OG1  THR B   3       6.074  10.404  22.058  1.00 17.97 LIG-0.39  OA
ATOM     19 HG1  THR B   3       5.353   9.989  21.939  1.00 17.97 LIG 0.21  HD
ENDBRANCH 16 18
ENDBRANCH 12 16
ENDBRANCH 9 12
ENDBRANCH 4 8
BRANCH 1 20
ATOM     20  CA  ALA B   1       9.979  12.920  15.912  1.00 22.08 LIG 0.27  C 
ATOM     21  CB  ALA B   1      10.015  11.485  15.459  1.00 22.59 LIG 0.05  C 
BRANCH 20 22
ATOM     22  N   ALA B   1      10.951  13.735  15.130  1.00 23.15 LIG-0.07  N 
ATOM     23 H3   ALA B   1      11.091  13.353  14.339  1.00 23.15 LIG 0.28  HD
ATOM     24 H2   ALA B   1      11.720  13.787  15.574  1.00 23.15 LIG 0.28  HD
ATOM     25 H1   ALA B   1      10.623  14.554  15.010  1.00 23.15 LIG 0.28  HD
ENDBRANCH 20 22
ENDBRANCH 1 20
TORSDOF 7
ENDMDL
MODEL 80
USER: ADFR SOLUTION from run 72
USER: SCORE 6.544178 LL:  -1.379 LR:  -5.165 RR:   0.000 FEB:  -3.077
USER: RMSD 5.354174
USER: SEED 71
USER: STATUS no improvement in best in 31 clusters for 5 generations
USER: GENES 9
USER: genes 0 Translation |==|  0.44654 0.40403 0.80011
USER: genes 1 Rotation |==|  0.85223 0.44347 0.16573 0.60491
USER: genes 2 Torsion [N]-CA--C-[N] |==|  0.60783
USER: genes 3 Torsion [C]-N--CA-[CB] |==|  0.21108
USER: genes 4 Torsion [N]-CA--C-[OXT] |==|  0.70324
USER: genes 5 Torsion [N]-CA--CB-[CG2] |==|  0.56482
USER: genes 6 Torsion [CA]-CB--OG1-[HG1] |==|  0.87058
USER: genes 7 Torsion [N]-C--CA-[N] |==|  0.86662
USER: genes 8 Torsion [C]-CA--N-[H2] |==|  0.29731
ROOT
ATOM      1  C   ALA B   1       3.011  10.424  25.961  1.00 21.61 LIG 0.25  C 
ATOM      2 O    ALA B   1       2.478  10.142  24.880  1.00 21.59 LIG-0.27  OA
ATOM      3  N   PRO B   2       3.922  11.412  26.092  1.00 20.68 LIG-0.34  N 
ATOM      4  CA  PRO B   2       4.449  12.090  24.904  1.00 19.66 LIG 0.18  C 
ATOM      5  CB  PRO B   2       5.294  13.221  25.492  1.00 19.68 LIG 0.04  C 
ATOM      6  CG  PRO B   2       5.670  12.744  26.865  1.00 19.82 LIG 0.02  C 
ATOM      7  CD  PRO B   2       4.477  11.971  27.339  1.00 21.17 LIG 0.13  C 
ENDROOT
BRANCH 4 8
ATOM      8  C   PRO B   2       5.305  11.162  24.035  1.00 18.80 LIG 0.24  C 
ATOM      9  N   THR B   3       6.389  11.702  23.489  1.00 18.04 LIG-0.34  N 
ATOM     10 H    THR B   3       6.646  12.509  23.637  1.00 18.04 LIG 0.16  HD
ATOM     11 O    PRO B   2       4.969   9.989  23.844  1.00 18.43 LIG-0.27  OA
BRANCH 9 12
ATOM     12  CA  THR B   3       7.259  10.955  22.569  1.00 16.71 LIG 0.21  C 
BRANCH 12 13
ATOM     13  C   THR B   3       8.644  11.601  22.476  1.00 16.11 LIG 0.20  C 
ATOM     14 OXT  THR B   3       8.978  12.227  21.464  1.00 14.78 LIG-0.65  OA
ATOM     15 O    THR B   3       9.462  11.489  23.407  1.00 14.64 LIG-0.65  OA
ENDBRANCH 12 13
BRANCH 12 16
ATOM     16  CB  THR B   3       6.636  10.820  21.150  1.00 16.70 LIG 0.15  C 
ATOM     17  CG2 THR B   3       7.228   9.614  20.421  1.00 16.85 LIG 0.04  C 
BRANCH 16 18
ATOM     18 OG1  THR B   3       5.115  10.750  21.221  1.00 17.97 LIG-0.39  OA
ATOM     19 HG1  THR B   3       4.886  10.206  21.818  1.00 17.97 LIG 0.21  HD
ENDBRANCH 16 18
ENDBRANCH 12 16
ENDBRANCH 9 12
ENDBRANCH 4 8
BRANCH 1 20
ATOM     20  CA  ALA B   1       2.633   9.655  27.229  1.00 22.08 LIG 0.27  C 
ATOM     21  CB  ALA B   1       1.746  10.502  28.102  1.00 22.59 LIG 0.05  C 
BRANCH 20 22
ATOM     22  N   ALA B   1       3.853   9.239  27.977  1.00 23.15 LIG-0.07  N 
ATOM     23 H3   ALA B   1       3.782   8.383  28.209  1.00 23.15 LIG 0.28  HD
ATOM     24 H2   ALA B   1       3.938   9.738  28.709  1.00 23.15 LIG 0.28  HD
ATOM     25 H1   ALA B   1       4.569   9.347  27.460  1.00 23.15 LIG 0.28  HD
ENDBRANCH 20 22
ENDBRANCH 1 20
TORSDOF 7
ENDMDL
MODEL 81
USER: ADFR SOLUTION from run 131
USER: SCORE 6.714743 LL:  -1.570 LR:  -5.144 RR:   0.000 FEB:  -3.056
USER: RMSD 6.107509
USER: SEED 130
USER: STATUS no improvement in best in 32 clusters for 5 generations
USER: GENES 9
USER: genes 0 Translation |==|  0.65523 0.49145 0.37739
USER: genes 1 Rotation |==|  0.15107 0.18563 0.58603 0.64839
USER: genes 2 Torsion [N]-CA--C-[N] |==|  0.79833
USER: genes 3 Torsion [C]-N--CA-[CB] |==|  0.30923
USER: genes 4 Torsion [N]-CA--C-[OXT] |==|  0.75807
USER: genes 5 Torsion [N]-CA--CB-[CG2] |==|  0.72844
USER: genes 6 Torsion [CA]-CB--OG1-[HG1] |==|  0.44815
USER: genes 7 Torsion [N]-C--CA-[N] |==|  0.31925
USER: genes 8 Torsion [C]-CA--N-[H2] |==|  0.34020
ROOT
ATOM      1  C   ALA B   1       6.298  11.736  19.620  1.00 21.61 LIG 0.25  C 
ATOM      2 O    ALA B   1       5.864  12.889  19.497  1.00 21.59 LIG-0.27  OA
ATOM      3  N   PRO B   2       6.320  11.084  20.801  1.00 20.68 LIG-0.34  N 
ATOM      4  CA  PRO B   2       5.980  11.791  22.039  1.00 19.66 LIG 0.18  C 
ATOM      5  CB  PRO B   2       5.962  10.676  23.086  1.00 19.68 LIG 0.04  C 
ATOM      6  CG  PRO B   2       6.853   9.608  22.524  1.00 19.82 LIG 0.02  C 
ATOM      7  CD  PRO B   2       6.623   9.660  21.044  1.00 21.17 LIG 0.13  C 
ENDROOT
BRANCH 4 8
ATOM      8  C   PRO B   2       7.013  12.864  22.400  1.00 18.80 LIG 0.24  C 
ATOM      9  N   THR B   3       8.185  12.426  22.847  1.00 18.04 LIG-0.34  N 
ATOM     10 H    THR B   3       8.396  11.594  22.895  1.00 18.04 LIG 0.16  HD
ATOM     11 O    PRO B   2       6.738  14.064  22.299  1.00 18.43 LIG-0.27  OA
BRANCH 9 12
ATOM     12  CA  THR B   3       9.242  13.340  23.306  1.00 16.71 LIG 0.21  C 
BRANCH 12 13
ATOM     13  C   THR B   3      10.552  13.088  22.554  1.00 16.11 LIG 0.20  C 
ATOM     14 OXT  THR B   3      11.353  12.239  22.959  1.00 14.78 LIG-0.65  OA
ATOM     15 O    THR B   3      10.838  13.746  21.538  1.00 14.64 LIG-0.65  OA
ENDBRANCH 12 13
BRANCH 12 16
ATOM     16  CB  THR B   3       9.478  13.243  24.840  1.00 16.70 LIG 0.15  C 
ATOM     17  CG2 THR B   3       8.727  14.358  25.566  1.00 16.85 LIG 0.04  C 
BRANCH 16 18
ATOM     18 OG1  THR B   3       9.100  11.864  25.369  1.00 17.97 LIG-0.39  OA
ATOM     19 HG1  THR B   3       9.461  11.741  26.118  1.00 17.97 LIG 0.21  HD
ENDBRANCH 16 18
ENDBRANCH 12 16
ENDBRANCH 9 12
ENDBRANCH 4 8
BRANCH 1 20
ATOM     20  CA  ALA B   1       6.823  10.977  18.398  1.00 22.08 LIG 0.27  C 
ATOM     21  CB  ALA B   1       7.946  11.746  17.756  1.00 22.59 LIG 0.05  C 
BRANCH 20 22
ATOM     22  N   ALA B   1       5.729  10.738  17.415  1.00 23.15 LIG-0.07  N 
ATOM     23 H3   ALA B   1       5.603   9.862  17.318  1.00 23.15 LIG 0.28  HD
ATOM     24 H2   ALA B   1       5.951  11.093  16.631  1.00 23.15 LIG 0.28  HD
ATOM     25 H1   ALA B   1       4.978  11.114  17.709  1.00 23.15 LIG 0.28  HD
ENDBRANCH 20 22
ENDBRANCH 1 20
TORSDOF 7
ENDMDL
MODEL 82
USER: ADFR SOLUTION from run 105
USER: SCORE 6.748838 LL:  -1.621 LR:  -5.128 RR:   0.000 FEB:  -3.039
USER: RMSD 5.052813
USER: SEED 104
USER: STATUS no improvement in best in 33 clusters for 5 generations
USER: GENES 9
USER: genes 0 Translation |==|  0.51084 0.44595 0.37614
USER: genes 1 Rotation |==|  0.58981 0.10085 0.51974 0.78674
USER: genes 2 Torsion [N]-CA--C-[N] |==|  0.97139
USER: genes 3 Torsion [C]-N--CA-[CB] |==|  0.84009
USER: genes 4 Torsion [N]-CA--C-[OXT] |==|  0.50765
USER: genes 5 Torsion [N]-CA--CB-[CG2] |==|  0.58839
USER: genes 6 Torsion [CA]-CB--OG1-[HG1] |==|  0.12690
USER: genes 7 Torsion [N]-C--CA-[N] |==|  0.18583
USER: genes 8 Torsion [C]-CA--N-[H2] |==|  0.22348
ROOT
ATOM      1  C   ALA B   1       4.024  11.053  19.601  1.00 21.61 LIG 0.25  C 
ATOM      2 O    ALA B   1       3.301  10.365  20.334  1.00 21.59 LIG-0.27  OA
ATOM      3  N   PRO B   2       5.334  10.792  19.410  1.00 20.68 LIG-0.34  N 
ATOM      4  CA  PRO B   2       6.004   9.762  20.210  1.00 19.66 LIG 0.18  C 
ATOM      5  CB  PRO B   2       7.391   9.671  19.573  1.00 19.68 LIG 0.04  C 
ATOM      6  CG  PRO B   2       7.602  11.006  18.920  1.00 19.82 LIG 0.02  C 
ATOM      7  CD  PRO B   2       6.245  11.406  18.426  1.00 21.17 LIG 0.13  C 
ENDROOT
BRANCH 4 8
ATOM      8  C   PRO B   2       6.105  10.148  21.690  1.00 18.80 LIG 0.24  C 
ATOM      9  N   THR B   3       5.784  11.402  21.995  1.00 18.04 LIG-0.34  N 
ATOM     10 H    THR B   3       5.487  11.970  21.422  1.00 18.04 LIG 0.16  HD
ATOM     11 O    PRO B   2       6.493   9.331  22.530  1.00 18.43 LIG-0.27  OA
BRANCH 9 12
ATOM     12  CA  THR B   3       5.910  11.935  23.359  1.00 16.71 LIG 0.21  C 
BRANCH 12 13
ATOM     13  C   THR B   3       7.378  11.998  23.790  1.00 16.11 LIG 0.20  C 
ATOM     14 OXT  THR B   3       7.681  12.373  24.928  1.00 14.78 LIG-0.65  OA
ATOM     15 O    THR B   3       8.287  11.694  22.997  1.00 14.64 LIG-0.65  OA
ENDBRANCH 12 13
BRANCH 12 16
ATOM     16  CB  THR B   3       5.085  11.113  24.390  1.00 16.70 LIG 0.15  C 
ATOM     17  CG2 THR B   3       4.583  12.019  25.513  1.00 16.85 LIG 0.04  C 
BRANCH 16 18
ATOM     18 OG1  THR B   3       3.943  10.364  23.711  1.00 17.97 LIG-0.39  OA
ATOM     19 HG1  THR B   3       4.229   9.989  23.015  1.00 17.97 LIG 0.21  HD
ENDBRANCH 16 18
ENDBRANCH 12 16
ENDBRANCH 9 12
ENDBRANCH 4 8
BRANCH 1 20
ATOM     20  CA  ALA B   1       3.437  12.250  18.847  1.00 22.08 LIG 0.27  C 
ATOM     21  CB  ALA B   1       2.044  12.538  19.339  1.00 22.59 LIG 0.05  C 
BRANCH 20 22
ATOM     22  N   ALA B   1       3.429  11.996  17.379  1.00 23.15 LIG-0.07  N 
ATOM     23 H3   ALA B   1       3.374  12.771  16.944  1.00 23.15 LIG 0.28  HD
ATOM     24 H2   ALA B   1       2.728  11.489  17.170  1.00 23.15 LIG 0.28  HD
ATOM     25 H1   ALA B   1       4.178  11.577  17.146  1.00 23.15 LIG 0.28  HD
ENDBRANCH 20 22
ENDBRANCH 1 20
TORSDOF 7
ENDMDL
MODEL 83
USER: ADFR SOLUTION from run 88
USER: SCORE 7.073648 LL:  -1.949 LR:  -5.125 RR:   0.000 FEB:  -3.037
USER: RMSD 7.259196
USER: SEED 87
USER: STATUS no improvement in best in 36 clusters for 5 generations
USER: GENES 9
USER: genes 0 Translation |==|  0.84353 0.60372 0.24090
USER: genes 1 Rotation |==|  0.15927 0.19631 0.31770 0.59188
USER: genes 2 Torsion [N]-CA--C-[N] |==|  0.94513
USER: genes 3 Torsion [C]-N--CA-[CB] |==|  0.29713
USER: genes 4 Torsion [N]-CA--C-[OXT] |==|  0.52643
USER: genes 5 Torsion [N]-CA--CB-[CG2] |==|  0.94750
USER: genes 6 Torsion [CA]-CB--OG1-[HG1] |==|  0.13988
USER: genes 7 Torsion [N]-C--CA-[N] |==|  0.34828
USER: genes 8 Torsion [C]-CA--N-[H2] |==|  0.76506
ROOT
ATOM      1  C   ALA B   1       9.264  13.420  17.572  1.00 21.61 LIG 0.25  C 
ATOM      2 O    ALA B   1       9.135  14.612  17.878  1.00 21.59 LIG-0.27  OA
ATOM      3  N   PRO B   2       8.300  12.500  17.790  1.00 20.68 LIG-0.34  N 
ATOM      4  CA  PRO B   2       7.106  12.853  18.563  1.00 19.66 LIG 0.18  C 
ATOM      5  CB  PRO B   2       6.221  11.614  18.426  1.00 19.68 LIG 0.04  C 
ATOM      6  CG  PRO B   2       7.174  10.491  18.141  1.00 19.82 LIG 0.02  C 
ATOM      7  CD  PRO B   2       8.250  11.109  17.301  1.00 21.17 LIG 0.13  C 
ENDROOT
BRANCH 4 8
ATOM      8  C   PRO B   2       7.428  13.136  20.035  1.00 18.80 LIG 0.24  C 
ATOM      9  N   THR B   3       8.578  12.649  20.490  1.00 18.04 LIG-0.34  N 
ATOM     10 H    THR B   3       9.150  12.237  19.996  1.00 18.04 LIG 0.16  HD
ATOM     11 O    PRO B   2       6.634  13.759  20.746  1.00 18.43 LIG-0.27  OA
BRANCH 9 12
ATOM     12  CA  THR B   3       8.981  12.773  21.898  1.00 16.71 LIG 0.21  C 
BRANCH 12 13
ATOM     13  C   THR B   3      10.398  13.339  22.017  1.00 16.11 LIG 0.20  C 
ATOM     14 OXT  THR B   3      10.978  13.354  23.108  1.00 14.78 LIG-0.65  OA
ATOM     15 O    THR B   3      10.978  13.813  21.024  1.00 14.64 LIG-0.65  OA
ENDBRANCH 12 13
BRANCH 12 16
ATOM     16  CB  THR B   3       8.880  11.420  22.660  1.00 16.70 LIG 0.15  C 
ATOM     17  CG2 THR B   3       7.971  10.450  21.905  1.00 16.85 LIG 0.04  C 
BRANCH 16 18
ATOM     18 OG1  THR B   3      10.261  10.825  22.912  1.00 17.97 LIG-0.39  OA
ATOM     19 HG1  THR B   3      10.759  11.408  23.257  1.00 17.97 LIG 0.21  HD
ENDBRANCH 16 18
ENDBRANCH 12 16
ENDBRANCH 9 12
ENDBRANCH 4 8
BRANCH 1 20
ATOM     20  CA  ALA B   1      10.550  12.932  16.900  1.00 22.08 LIG 0.27  C 
ATOM     21  CB  ALA B   1      11.698  13.003  17.871  1.00 22.59 LIG 0.05  C 
BRANCH 20 22
ATOM     22  N   ALA B   1      10.848  13.739  15.684  1.00 23.15 LIG-0.07  N 
ATOM     23 H3   ALA B   1      10.603  14.584  15.820  1.00 23.15 LIG 0.28  HD
ATOM     24 H2   ALA B   1      10.398  13.409  14.991  1.00 23.15 LIG 0.28  HD
ATOM     25 H1   ALA B   1      11.721  13.707  15.513  1.00 23.15 LIG 0.28  HD
ENDBRANCH 20 22
ENDBRANCH 1 20
TORSDOF 7
ENDMDL
MODEL 84
USER: ADFR SOLUTION from run 111
USER: SCORE 6.812450 LL:  -1.717 LR:  -5.095 RR:   0.000 FEB:  -3.007
USER: RMSD 6.153459
USER: SEED 110
USER: STATUS no improvement in best in 30 clusters for 5 generations
USER: GENES 9
USER: genes 0 Translation |==|  0.67432 0.39758 0.31060
USER: genes 1 Rotation |==|  0.62093 0.09133 0.75346 0.56420
USER: genes 2 Torsion [N]-CA--C-[N] |==|  0.19939
USER: genes 3 Torsion [C]-N--CA-[CB] |==|  0.81672
USER: genes 4 Torsion [N]-CA--C-[OXT] |==|  0.10478
USER: genes 5 Torsion [N]-CA--CB-[CG2] |==|  0.58582
USER: genes 6 Torsion [CA]-CB--OG1-[HG1] |==|  0.91117
USER: genes 7 Torsion [N]-C--CA-[N] |==|  0.46087
USER: genes 8 Torsion [C]-CA--N-[H2] |==|  0.68477
ROOT
ATOM      1  C   ALA B   1       6.599  10.328  18.618  1.00 21.61 LIG 0.25  C 
ATOM      2 O    ALA B   1       5.885   9.416  19.056  1.00 21.59 LIG-0.27  OA
ATOM      3  N   PRO B   2       7.339  11.126  19.416  1.00 20.68 LIG-0.34  N 
ATOM      4  CA  PRO B   2       7.194  11.050  20.872  1.00 19.66 LIG 0.18  C 
ATOM      5  CB  PRO B   2       8.305  11.968  21.383  1.00 19.68 LIG 0.04  C 
ATOM      6  CG  PRO B   2       8.565  12.921  20.254  1.00 19.82 LIG 0.02  C 
ATOM      7  CD  PRO B   2       8.368  12.104  19.013  1.00 21.17 LIG 0.13  C 
ENDROOT
BRANCH 4 8
ATOM      8  C   PRO B   2       5.820  11.537  21.346  1.00 18.80 LIG 0.24  C 
ATOM      9  N   THR B   3       4.790  10.740  21.081  1.00 18.04 LIG-0.34  N 
ATOM     10 H    THR B   3       4.867   9.969  20.709  1.00 18.04 LIG 0.16  HD
ATOM     11 O    PRO B   2       5.698  12.626  21.916  1.00 18.43 LIG-0.27  OA
BRANCH 9 12
ATOM     12  CA  THR B   3       3.405  11.114  21.404  1.00 16.71 LIG 0.21  C 
BRANCH 12 13
ATOM     13  C   THR B   3       3.017  12.430  20.724  1.00 16.11 LIG 0.20  C 
ATOM     14 OXT  THR B   3       3.416  12.686  19.583  1.00 14.78 LIG-0.65  OA
ATOM     15 O    THR B   3       2.314  13.268  21.316  1.00 14.64 LIG-0.65  OA
ENDBRANCH 12 13
BRANCH 12 16
ATOM     16  CB  THR B   3       3.166  11.215  22.938  1.00 16.70 LIG 0.15  C 
ATOM     17  CG2 THR B   3       1.724  10.843  23.278  1.00 16.85 LIG 0.04  C 
BRANCH 16 18
ATOM     18 OG1  THR B   3       4.169  10.364  23.709  1.00 17.97 LIG-0.39  OA
ATOM     19 HG1  THR B   3       4.374   9.688  23.253  1.00 17.97 LIG 0.21  HD
ENDBRANCH 16 18
ENDBRANCH 12 16
ENDBRANCH 9 12
ENDBRANCH 4 8
BRANCH 1 20
ATOM     20  CA  ALA B   1       6.686  10.580  17.110  1.00 22.08 LIG 0.27  C 
ATOM     21  CB  ALA B   1       5.977  11.860  16.758  1.00 22.59 LIG 0.05  C 
BRANCH 20 22
ATOM     22  N   ALA B   1       6.103   9.438  16.350  1.00 23.15 LIG-0.07  N 
ATOM     23 H3   ALA B   1       5.728   8.864  16.918  1.00 23.15 LIG 0.28  HD
ATOM     24 H2   ALA B   1       6.746   9.025  15.894  1.00 23.15 LIG 0.28  HD
ATOM     25 H1   ALA B   1       5.486   9.741  15.785  1.00 23.15 LIG 0.28  HD
ENDBRANCH 20 22
ENDBRANCH 1 20
TORSDOF 7
ENDMDL
MODEL 85
USER: ADFR SOLUTION from run 134
USER: SCORE 6.736988 LL:  -1.636 LR:  -5.101 RR:   0.000 FEB:  -3.013
USER: RMSD 7.521429
USER: SEED 133
USER: STATUS no improvement in best in 24 clusters for 5 generations
USER: GENES 9
USER: genes 0 Translation |==|  0.19403 0.33798 0.73768
USER: genes 1 Rotation |==|  0.98788 0.45785 0.50518 0.60085
USER: genes 2 Torsion [N]-CA--C-[N] |==|  0.29173
USER: genes 3 Torsion [C]-N--CA-[CB] |==|  0.84281
USER: genes 4 Torsion [N]-CA--C-[OXT] |==|  0.17468
USER: genes 5 Torsion [N]-CA--CB-[CG2] |==|  0.54324
USER: genes 6 Torsion [CA]-CB--OG1-[HG1] |==|  0.72655
USER: genes 7 Torsion [N]-C--CA-[N] |==|  0.37229
USER: genes 8 Torsion [C]-CA--N-[H2] |==|  0.36791
ROOT
ATOM      1  C   ALA B   1      -0.966   9.434  25.024  1.00 21.61 LIG 0.25  C 
ATOM      2 O    ALA B   1       0.109   9.302  24.425  1.00 21.59 LIG-0.27  OA
ATOM      3  N   PRO B   2      -1.304  10.562  25.682  1.00 20.68 LIG-0.34  N 
ATOM      4  CA  PRO B   2      -0.321  11.636  25.857  1.00 19.66 LIG 0.18  C 
ATOM      5  CB  PRO B   2      -1.141  12.764  26.483  1.00 19.68 LIG 0.04  C 
ATOM      6  CG  PRO B   2      -2.292  12.075  27.154  1.00 19.82 LIG 0.02  C 
ATOM      7  CD  PRO B   2      -2.614  10.915  26.261  1.00 21.17 LIG 0.13  C 
ENDROOT
BRANCH 4 8
ATOM      8  C   PRO B   2       0.835  11.223  26.776  1.00 18.80 LIG 0.24  C 
ATOM      9  N   THR B   3       1.993  10.955  26.181  1.00 18.04 LIG-0.34  N 
ATOM     10 H    THR B   3       2.127  11.046  25.336  1.00 18.04 LIG 0.16  HD
ATOM     11 O    PRO B   2       0.667  11.125  27.995  1.00 18.43 LIG-0.27  OA
BRANCH 9 12
ATOM     12  CA  THR B   3       3.164  10.471  26.926  1.00 16.71 LIG 0.21  C 
BRANCH 12 13
ATOM     13  C   THR B   3       2.920   9.065  27.480  1.00 16.11 LIG 0.20  C 
ATOM     14 OXT  THR B   3       2.728   8.114  26.715  1.00 14.78 LIG-0.65  OA
ATOM     15 O    THR B   3       2.891   8.862  28.707  1.00 14.64 LIG-0.65  OA
ENDBRANCH 12 13
BRANCH 12 16
ATOM     16  CB  THR B   3       3.569  11.437  28.076  1.00 16.70 LIG 0.15  C 
ATOM     17  CG2 THR B   3       4.980  11.117  28.568  1.00 16.85 LIG 0.04  C 
BRANCH 16 18
ATOM     18 OG1  THR B   3       3.433  12.893  27.647  1.00 17.97 LIG-0.39  OA
ATOM     19 HG1  THR B   3       4.186  13.190  27.417  1.00 17.97 LIG 0.21  HD
ENDBRANCH 16 18
ENDBRANCH 12 16
ENDBRANCH 9 12
ENDBRANCH 4 8
BRANCH 1 20
ATOM     20  CA  ALA B   1      -1.990   8.296  25.026  1.00 22.08 LIG 0.27  C 
ATOM     21  CB  ALA B   1      -1.568   7.223  25.994  1.00 22.59 LIG 0.05  C 
BRANCH 20 22
ATOM     22  N   ALA B   1      -2.150   7.728  23.658  1.00 23.15 LIG-0.07  N 
ATOM     23 H3   ALA B   1      -2.937   7.975  23.324  1.00 23.15 LIG 0.28  HD
ATOM     24 H2   ALA B   1      -2.112   6.839  23.699  1.00 23.15 LIG 0.28  HD
ATOM     25 H1   ALA B   1      -1.498   8.029  23.133  1.00 23.15 LIG 0.28  HD
ENDBRANCH 20 22
ENDBRANCH 1 20
TORSDOF 7
ENDMDL
MODEL 86
USER: ADFR SOLUTION from run 32
USER: SCORE 6.977325 LL:  -1.874 LR:  -5.103 RR:   0.000 FEB:  -3.015
USER: RMSD 9.596721
USER: SEED 31
USER: STATUS no improvement in best in 38 clusters for 5 generations
USER: GENES 9
USER: genes 0 Translation |==|  0.88300 0.55564 0.17907
USER: genes 1 Rotation |==|  0.36563 0.10602 0.77693 0.50573
USER: genes 2 Torsion [N]-CA--C-[N] |==|  0.93296
USER: genes 3 Torsion [C]-N--CA-[CB] |==|  0.20314
USER: genes 4 Torsion [N]-CA--C-[OXT] |==|  0.12652
USER: genes 5 Torsion [N]-CA--CB-[CG2] |==|  0.61513
USER: genes 6 Torsion [CA]-CB--OG1-[HG1] |==|  0.18718
USER: genes 7 Torsion [N]-C--CA-[N] |==|  0.31372
USER: genes 8 Torsion [C]-CA--N-[H2] |==|  0.79462
ROOT
ATOM      1  C   ALA B   1       9.885  12.699  16.645  1.00 21.61 LIG 0.25  C 
ATOM      2 O    ALA B   1       8.681  12.574  16.386  1.00 21.59 LIG-0.27  OA
ATOM      3  N   PRO B   2      10.334  13.226  17.803  1.00 20.68 LIG-0.34  N 
ATOM      4  CA  PRO B   2       9.395  13.837  18.748  1.00 19.66 LIG 0.18  C 
ATOM      5  CB  PRO B   2      10.269  14.142  19.965  1.00 19.68 LIG 0.04  C 
ATOM      6  CG  PRO B   2      11.662  14.257  19.417  1.00 19.82 LIG 0.02  C 
ATOM      7  CD  PRO B   2      11.720  13.248  18.310  1.00 21.17 LIG 0.13  C 
ENDROOT
BRANCH 4 8
ATOM      8  C   PRO B   2       8.763  15.119  18.193  1.00 18.80 LIG 0.24  C 
ATOM      9  N   THR B   3       9.453  15.756  17.253  1.00 18.04 LIG-0.34  N 
ATOM     10 H    THR B   3      10.190  15.463  16.921  1.00 18.04 LIG 0.16  HD
ATOM     11 O    PRO B   2       7.685  15.532  18.632  1.00 18.43 LIG-0.27  OA
BRANCH 9 12
ATOM     12  CA  THR B   3       9.009  17.038  16.687  1.00 16.71 LIG 0.21  C 
BRANCH 12 13
ATOM     13  C   THR B   3       9.732  17.338  15.371  1.00 16.11 LIG 0.20  C 
ATOM     14 OXT  THR B   3       9.855  16.461  14.509  1.00 14.78 LIG-0.65  OA
ATOM     15 O    THR B   3      10.223  18.460  15.157  1.00 14.64 LIG-0.65  OA
ENDBRANCH 12 13
BRANCH 12 16
ATOM     16  CB  THR B   3       9.201  18.218  17.683  1.00 16.70 LIG 0.15  C 
ATOM     17  CG2 THR B   3       7.992  19.152  17.641  1.00 16.85 LIG 0.04  C 
BRANCH 16 18
ATOM     18 OG1  THR B   3       9.478  17.709  19.093  1.00 17.97 LIG-0.39  OA
ATOM     19 HG1  THR B   3      10.228  17.330  19.112  1.00 17.97 LIG 0.21  HD
ENDBRANCH 16 18
ENDBRANCH 12 16
ENDBRANCH 9 12
ENDBRANCH 4 8
BRANCH 1 20
ATOM     20  CA  ALA B   1      10.941  12.229  15.640  1.00 22.08 LIG 0.27  C 
ATOM     21  CB  ALA B   1      10.723  12.899  14.311  1.00 22.59 LIG 0.05  C 
BRANCH 20 22
ATOM     22  N   ALA B   1      10.901  10.747  15.488  1.00 23.15 LIG-0.07  N 
ATOM     23 H3   ALA B   1      10.057  10.481  15.395  1.00 23.15 LIG 0.28  HD
ATOM     24 H2   ALA B   1      11.255  10.364  16.209  1.00 23.15 LIG 0.28  HD
ATOM     25 H1   ALA B   1      11.367  10.510  14.767  1.00 23.15 LIG 0.28  HD
ENDBRANCH 20 22
ENDBRANCH 1 20
TORSDOF 7
ENDMDL
MODEL 87
USER: ADFR SOLUTION from run 122
USER: SCORE 7.151976 LL:  -2.065 LR:  -5.087 RR:   0.000 FEB:  -2.998
USER: RMSD 3.306886
USER: SEED 121
USER: STATUS no improvement in best in 31 clusters for 5 generations
USER: GENES 9
USER: genes 0 Translation |==|  0.39710 0.47053 0.42293
USER: genes 1 Rotation |==|  0.05708 0.43178 0.66617 0.64682
USER: genes 2 Torsion [N]-CA--C-[N] |==|  0.94772
USER: genes 3 Torsion [C]-N--CA-[CB] |==|  0.25491
USER: genes 4 Torsion [N]-CA--C-[OXT] |==|  0.88274
USER: genes 5 Torsion [N]-CA--CB-[CG2] |==|  0.70359
USER: genes 6 Torsion [CA]-CB--OG1-[HG1] |==|  0.03327
USER: genes 7 Torsion [N]-C--CA-[N] |==|  0.84886
USER: genes 8 Torsion [C]-CA--N-[H2] |==|  0.98366
ROOT
ATOM      1  C   ALA B   1       2.232  11.422  20.303  1.00 21.61 LIG 0.25  C 
ATOM      2 O    ALA B   1       2.603  12.367  19.595  1.00 21.59 LIG-0.27  OA
ATOM      3  N   PRO B   2       2.545  11.322  21.612  1.00 20.68 LIG-0.34  N 
ATOM      4  CA  PRO B   2       3.493  12.261  22.217  1.00 19.66 LIG 0.18  C 
ATOM      5  CB  PRO B   2       3.430  11.914  23.705  1.00 19.68 LIG 0.04  C 
ATOM      6  CG  PRO B   2       2.967  10.487  23.746  1.00 19.82 LIG 0.02  C 
ATOM      7  CD  PRO B   2       2.010  10.364  22.599  1.00 21.17 LIG 0.13  C 
ENDROOT
BRANCH 4 8
ATOM      8  C   PRO B   2       4.915  12.085  21.673  1.00 18.80 LIG 0.24  C 
ATOM      9  N   THR B   3       5.177  10.928  21.074  1.00 18.04 LIG-0.34  N 
ATOM     10 H    THR B   3       4.588  10.315  20.943  1.00 18.04 LIG 0.16  HD
ATOM     11 O    PRO B   2       5.762  12.972  21.821  1.00 18.43 LIG-0.27  OA
BRANCH 9 12
ATOM     12  CA  THR B   3       6.517  10.587  20.576  1.00 16.71 LIG 0.21  C 
BRANCH 12 13
ATOM     13  C   THR B   3       6.432   9.769  19.284  1.00 16.11 LIG 0.20  C 
ATOM     14 OXT  THR B   3       5.600   8.864  19.169  1.00 14.78 LIG-0.65  OA
ATOM     15 O    THR B   3       7.213   9.989  18.341  1.00 14.64 LIG-0.65  OA
ENDBRANCH 12 13
BRANCH 12 16
ATOM     16  CB  THR B   3       7.363   9.826  21.637  1.00 16.70 LIG 0.15  C 
ATOM     17  CG2 THR B   3       8.446  10.739  22.209  1.00 16.85 LIG 0.04  C 
BRANCH 16 18
ATOM     18 OG1  THR B   3       6.477   9.239  22.730  1.00 17.97 LIG-0.39  OA
ATOM     19 HG1  THR B   3       5.672   9.284  22.493  1.00 17.97 LIG 0.21  HD
ENDBRANCH 16 18
ENDBRANCH 12 16
ENDBRANCH 9 12
ENDBRANCH 4 8
BRANCH 1 20
ATOM     20  CA  ALA B   1       1.366  10.308  19.708  1.00 22.08 LIG 0.27  C 
ATOM     21  CB  ALA B   1      -0.021  10.367  20.290  1.00 22.59 LIG 0.05  C 
BRANCH 20 22
ATOM     22  N   ALA B   1       1.978   8.973  19.959  1.00 23.15 LIG-0.07  N 
ATOM     23 H3   ALA B   1       1.455   8.504  20.505  1.00 23.15 LIG 0.28  HD
ATOM     24 H2   ALA B   1       2.778   9.079  20.334  1.00 23.15 LIG 0.28  HD
ATOM     25 H1   ALA B   1       2.067   8.538  19.188  1.00 23.15 LIG 0.28  HD
ENDBRANCH 20 22
ENDBRANCH 1 20
TORSDOF 7
ENDMDL
MODEL 88
USER: ADFR SOLUTION from run 3
USER: SCORE 7.088057 LL:  -2.012 LR:  -5.076 RR:   0.000 FEB:  -2.988
USER: RMSD 8.084688
USER: SEED 341143
USER: STATUS no improvement in best in 32 clusters for 5 generations
USER: GENES 9
USER: genes 0 Translation |==|  0.93615 0.60482 0.27757
USER: genes 1 Rotation |==|  0.10584 0.73426 0.30227 0.52582
USER: genes 2 Torsion [N]-CA--C-[N] |==|  0.94787
USER: genes 3 Torsion [C]-N--CA-[CB] |==|  0.19674
USER: genes 4 Torsion [N]-CA--C-[OXT] |==|  0.47891
USER: genes 5 Torsion [N]-CA--CB-[CG2] |==|  0.69773
USER: genes 6 Torsion [CA]-CB--OG1-[HG1] |==|  0.08683
USER: genes 7 Torsion [N]-C--CA-[N] |==|  0.28670
USER: genes 8 Torsion [C]-CA--N-[H2] |==|  0.70954
ROOT
ATOM      1  C   ALA B   1      10.722  13.436  18.122  1.00 21.61 LIG 0.25  C 
ATOM      2 O    ALA B   1      11.585  12.614  18.458  1.00 21.59 LIG-0.27  OA
ATOM      3  N   PRO B   2      10.394  14.504  18.880  1.00 20.68 LIG-0.34  N 
ATOM      4  CA  PRO B   2      10.937  14.642  20.234  1.00 19.66 LIG 0.18  C 
ATOM      5  CB  PRO B   2      10.466  16.032  20.661  1.00 19.68 LIG 0.04  C 
ATOM      6  CG  PRO B   2       9.246  16.297  19.828  1.00 19.82 LIG 0.02  C 
ATOM      7  CD  PRO B   2       9.538  15.647  18.509  1.00 21.17 LIG 0.13  C 
ENDROOT
BRANCH 4 8
ATOM      8  C   PRO B   2      10.405  13.566  21.188  1.00 18.80 LIG 0.24  C 
ATOM      9  N   THR B   3       9.294  12.942  20.810  1.00 18.04 LIG-0.34  N 
ATOM     10 H    THR B   3       8.903  13.079  20.056  1.00 18.04 LIG 0.16  HD
ATOM     11 O    PRO B   2      10.978  13.331  22.256  1.00 18.43 LIG-0.27  OA
BRANCH 9 12
ATOM     12  CA  THR B   3       8.626  11.945  21.660  1.00 16.71 LIG 0.21  C 
BRANCH 12 13
ATOM     13  C   THR B   3       7.603  11.137  20.857  1.00 16.11 LIG 0.20  C 
ATOM     14 OXT  THR B   3       7.041  10.160  21.363  1.00 14.78 LIG-0.65  OA
ATOM     15 O    THR B   3       7.338  11.437  19.679  1.00 14.64 LIG-0.65  OA
ENDBRANCH 12 13
BRANCH 12 16
ATOM     16  CB  THR B   3       7.943  12.593  22.898  1.00 16.70 LIG 0.15  C 
ATOM     17  CG2 THR B   3       8.708  12.239  24.173  1.00 16.85 LIG 0.04  C 
BRANCH 16 18
ATOM     18 OG1  THR B   3       7.797  14.100  22.722  1.00 17.97 LIG-0.39  OA
ATOM     19 HG1  THR B   3       7.696  14.279  21.908  1.00 17.97 LIG 0.21  HD
ENDBRANCH 16 18
ENDBRANCH 12 16
ENDBRANCH 9 12
ENDBRANCH 4 8
BRANCH 1 20
ATOM     20  CA  ALA B   1       9.988  13.279  16.788  1.00 22.08 LIG 0.27  C 
ATOM     21  CB  ALA B   1       9.537  11.854  16.612  1.00 22.59 LIG 0.05  C 
BRANCH 20 22
ATOM     22  N   ALA B   1      10.861  13.692  15.654  1.00 23.15 LIG-0.07  N 
ATOM     23 H3   ALA B   1      11.706  13.739  15.931  1.00 23.15 LIG 0.28  HD
ATOM     24 H2   ALA B   1      10.603  14.489  15.355  1.00 23.15 LIG 0.28  HD
ATOM     25 H1   ALA B   1      10.798  13.094  14.997  1.00 23.15 LIG 0.28  HD
ENDBRANCH 20 22
ENDBRANCH 1 20
TORSDOF 7
ENDMDL
MODEL 89
USER: ADFR SOLUTION from run 177
USER: SCORE 6.954273 LL:  -1.874 LR:  -5.080 RR:   0.000 FEB:  -2.992
USER: RMSD 5.328587
USER: SEED 176
USER: STATUS no improvement in best in 35 clusters for 5 generations
USER: GENES 9
USER: genes 0 Translation |==|  0.53030 0.44622 0.40897
USER: genes 1 Rotation |==|  0.10927 0.28613 0.27299 0.50755
USER: genes 2 Torsion [N]-CA--C-[N] |==|  0.89967
USER: genes 3 Torsion [C]-N--CA-[CB] |==|  0.31231
USER: genes 4 Torsion [N]-CA--C-[OXT] |==|  0.04888
USER: genes 5 Torsion [N]-CA--CB-[CG2] |==|  0.58849
USER: genes 6 Torsion [CA]-CB--OG1-[HG1] |==|  0.52099
USER: genes 7 Torsion [N]-C--CA-[N] |==|  0.28147
USER: genes 8 Torsion [C]-CA--N-[H2] |==|  0.62661
ROOT
ATOM      1  C   ALA B   1       4.330  11.057  20.094  1.00 21.61 LIG 0.25  C 
ATOM      2 O    ALA B   1       4.770  12.174  20.397  1.00 21.59 LIG-0.27  OA
ATOM      3  N   PRO B   2       3.014  10.761  20.105  1.00 20.68 LIG-0.34  N 
ATOM      4  CA  PRO B   2       2.047  11.719  20.649  1.00 19.66 LIG 0.18  C 
ATOM      5  CB  PRO B   2       0.697  11.081  20.320  1.00 19.68 LIG 0.04  C 
ATOM      6  CG  PRO B   2       0.987   9.614  20.193  1.00 19.82 LIG 0.02  C 
ATOM      7  CD  PRO B   2       2.355   9.548  19.584  1.00 21.17 LIG 0.13  C 
ENDROOT
BRANCH 4 8
ATOM      8  C   PRO B   2       2.207  11.913  22.161  1.00 18.80 LIG 0.24  C 
ATOM      9  N   THR B   3       2.542  10.833  22.861  1.00 18.04 LIG-0.34  N 
ATOM     10 H    THR B   3       2.713  10.069  22.505  1.00 18.04 LIG 0.16  HD
ATOM     11 O    PRO B   2       2.003  13.014  22.681  1.00 18.43 LIG-0.27  OA
BRANCH 9 12
ATOM     12  CA  THR B   3       2.652  10.851  24.327  1.00 16.71 LIG 0.21  C 
BRANCH 12 13
ATOM     13  C   THR B   3       4.038  10.384  24.780  1.00 16.11 LIG 0.20  C 
ATOM     14 OXT  THR B   3       4.983  10.364  23.985  1.00 14.78 LIG-0.65  OA
ATOM     15 O    THR B   3       4.228   9.998  25.947  1.00 14.64 LIG-0.65  OA
ENDBRANCH 12 13
BRANCH 12 16
ATOM     16  CB  THR B   3       1.548   9.992  25.009  1.00 16.70 LIG 0.15  C 
ATOM     17  CG2 THR B   3       1.168  10.592  26.362  1.00 16.85 LIG 0.04  C 
BRANCH 16 18
ATOM     18 OG1  THR B   3       0.337   9.827  24.099  1.00 17.97 LIG-0.39  OA
ATOM     19 HG1  THR B   3      -0.284   9.451  24.523  1.00 17.97 LIG 0.21  HD
ENDBRANCH 16 18
ENDBRANCH 12 16
ENDBRANCH 9 12
ENDBRANCH 4 8
BRANCH 1 20
ATOM     20  CA  ALA B   1       5.289   9.944  19.664  1.00 22.08 LIG 0.27  C 
ATOM     21  CB  ALA B   1       6.480   9.904  20.583  1.00 22.59 LIG 0.05  C 
BRANCH 20 22
ATOM     22  N   ALA B   1       5.728  10.141  18.253  1.00 23.15 LIG-0.07  N 
ATOM     23 H3   ALA B   1       5.200  10.738  17.859  1.00 23.15 LIG 0.28  HD
ATOM     24 H2   ALA B   1       5.679   9.368  17.816  1.00 23.15 LIG 0.28  HD
ATOM     25 H1   ALA B   1       6.568  10.435  18.242  1.00 23.15 LIG 0.28  HD
ENDBRANCH 20 22
ENDBRANCH 1 20
TORSDOF 7
ENDMDL
MODEL 90
USER: ADFR SOLUTION from run 150
USER: SCORE 6.766236 LL:  -1.699 LR:  -5.067 RR:   0.000 FEB:  -2.979
USER: RMSD 7.918561
USER: SEED 149
USER: STATUS no improvement in best in 33 clusters for 5 generations
USER: GENES 9
USER: genes 0 Translation |==|  0.76233 0.43612 0.14540
USER: genes 1 Rotation |==|  0.71365 0.24930 0.71386 0.80946
USER: genes 2 Torsion [N]-CA--C-[N] |==|  0.22169
USER: genes 3 Torsion [C]-N--CA-[CB] |==|  0.41895
USER: genes 4 Torsion [N]-CA--C-[OXT] |==|  0.06157
USER: genes 5 Torsion [N]-CA--CB-[CG2] |==|  0.61990
USER: genes 6 Torsion [CA]-CB--OG1-[HG1] |==|  0.13991
USER: genes 7 Torsion [N]-C--CA-[N] |==|  0.41536
USER: genes 8 Torsion [C]-CA--N-[H2] |==|  0.54801
ROOT
ATOM      1  C   ALA B   1       7.985  10.906  16.140  1.00 21.61 LIG 0.25  C 
ATOM      2 O    ALA B   1       8.257  10.368  17.221  1.00 21.59 LIG-0.27  OA
ATOM      3  N   PRO B   2       8.865  11.670  15.460  1.00 20.68 LIG-0.34  N 
ATOM      4  CA  PRO B   2      10.147  12.036  16.069  1.00 19.66 LIG 0.18  C 
ATOM      5  CB  PRO B   2      10.889  12.736  14.930  1.00 19.68 LIG 0.04  C 
ATOM      6  CG  PRO B   2       9.808  13.241  14.021  1.00 19.82 LIG 0.02  C 
ATOM      7  CD  PRO B   2       8.735  12.197  14.088  1.00 21.17 LIG 0.13  C 
ENDROOT
BRANCH 4 8
ATOM      8  C   PRO B   2       9.974  12.976  17.268  1.00 18.80 LIG 0.24  C 
ATOM      9  N   THR B   3       9.624  12.405  18.417  1.00 18.04 LIG-0.34  N 
ATOM     10 H    THR B   3       9.540  11.555  18.521  1.00 18.04 LIG 0.16  HD
ATOM     11 O    PRO B   2      10.129  14.194  17.143  1.00 18.43 LIG-0.27  OA
BRANCH 9 12
ATOM     12  CA  THR B   3       9.345  13.188  19.629  1.00 16.71 LIG 0.21  C 
BRANCH 12 13
ATOM     13  C   THR B   3      10.634  13.487  20.399  1.00 16.11 LIG 0.20  C 
ATOM     14 OXT  THR B   3      11.728  13.460  19.825  1.00 14.78 LIG-0.65  OA
ATOM     15 O    THR B   3      10.603  13.740  21.617  1.00 14.64 LIG-0.65  OA
ENDBRANCH 12 13
BRANCH 12 16
ATOM     16  CB  THR B   3       8.317  12.485  20.560  1.00 16.70 LIG 0.15  C 
ATOM     17  CG2 THR B   3       7.300  13.495  21.091  1.00 16.85 LIG 0.04  C 
BRANCH 16 18
ATOM     18 OG1  THR B   3       7.641  11.316  19.851  1.00 17.97 LIG-0.39  OA
ATOM     19 HG1  THR B   3       8.225  10.821  19.505  1.00 17.97 LIG 0.21  HD
ENDBRANCH 16 18
ENDBRANCH 12 16
ENDBRANCH 9 12
ENDBRANCH 4 8
BRANCH 1 20
ATOM     20  CA  ALA B   1       6.606  10.703  15.506  1.00 22.08 LIG 0.27  C 
ATOM     21  CB  ALA B   1       5.676  11.809  15.927  1.00 22.59 LIG 0.05  C 
BRANCH 20 22
ATOM     22  N   ALA B   1       6.041   9.377  15.884  1.00 23.15 LIG-0.07  N 
ATOM     23 H3   ALA B   1       6.678   8.758  15.834  1.00 23.15 LIG 0.28  HD
ATOM     24 H2   ALA B   1       5.379   9.167  15.328  1.00 23.15 LIG 0.28  HD
ATOM     25 H1   ALA B   1       5.728   9.414  16.716  1.00 23.15 LIG 0.28  HD
ENDBRANCH 20 22
ENDBRANCH 1 20
TORSDOF 7
ENDMDL
