MODEL 1
USER: ADFR SOLUTION from run 136
USER: SCORE 12.294140 LL:  -1.165 LR: -11.581 RR:   0.000 FEB:  -8.598
USER: RMSD 7.201597
USER: SEED 135
USER: STATUS searching
USER: GENES 12
USER: genes 0 Translation |==|  0.34913 0.49978 0.49536
USER: genes 1 Rotation |==|  0.61265 0.38872 0.04516 0.63435
USER: genes 2 Torsion [C]-CA--N-[C] |==|  0.71111
USER: genes 3 Torsion [N]-C--CA-[N] |==|  0.97049
USER: genes 4 Torsion [C]-CA--N-[H2] |==|  0.84635
USER: genes 5 Torsion [C]-CA--CB-[CG] |==|  0.45500
USER: genes 6 Torsion [CA]-CB--CG-[SD] |==|  0.80986
USER: genes 7 Torsion [CB]-CG--SD-[CE] |==|  0.52274
USER: genes 8 Torsion [N]-CA--CB-[CG] |==|  0.66411
USER: genes 9 Torsion [CA]-CB--CG-[OD1] |==|  0.46120
USER: genes 10 Torsion [N]-CA--C-[N] |==|  0.21467
USER: genes 11 Torsion [N]-CA--C-[O] |==|  0.76532
ROOT
ATOM      1  CA  ASP Y   2      36.711  51.296  37.166  1.00 68.86 LIG 0.19  C 
ENDROOT
BRANCH 1 2
ATOM      2  N   ASP Y   2      37.742  51.607  36.180  1.00 67.90 LIG-0.34  N 
ATOM      3 H    ASP Y   2      37.567  52.330  35.748  1.00 67.90 LIG 0.16  HD
ATOM      4  C   MET Y   1      38.842  50.899  35.930  1.00 66.89 LIG 0.25  C 
ATOM      5 O    MET Y   1      39.121  49.803  36.458  1.00 66.99 LIG-0.27  OA
BRANCH 4 6
ATOM      6  CA  MET Y   1      39.783  51.606  34.936  1.00 65.69 LIG 0.28  C 
BRANCH 6 7
ATOM      7  N   MET Y   1      39.240  52.799  34.236  1.00 65.08 LIG-0.07  N 
ATOM      8 H2   MET Y   1      38.485  52.581  33.820  1.00 65.08 LIG 0.28  HD
ATOM      9 H1   MET Y   1      39.834  53.088  33.640  1.00 65.08 LIG 0.28  HD
ATOM     10 H3   MET Y   1      39.077  53.442  34.828  1.00 65.08 LIG 0.28  HD
ENDBRANCH 6 7
BRANCH 6 11
ATOM     11  CB  MET Y   1      41.124  51.928  35.620  1.00 64.83 LIG 0.05  C 
BRANCH 11 12
ATOM     12  CG  MET Y   1      42.213  52.256  34.632  1.00 63.52 LIG 0.08  C 
BRANCH 12 13
ATOM     13 SD   MET Y   1      42.787  50.909  33.606  1.00 62.62 LIG-0.17  SA
ATOM     14  CE  MET Y   1      44.188  51.698  32.822  1.00 61.34 LIG 0.09  C 
ENDBRANCH 12 13
ENDBRANCH 11 12
ENDBRANCH 6 11
ENDBRANCH 4 6
ENDBRANCH 1 2
BRANCH 1 15
ATOM     15  CB  ASP Y   2      36.372  52.599  37.905  1.00 68.96 LIG 0.15  C 
BRANCH 15 16
ATOM     16  CG  ASP Y   2      36.615  52.499  39.417  1.00 68.92 LIG 0.17  C 
ATOM     17 OD2  ASP Y   2      36.761  51.411  40.020  1.00 65.64 LIG-0.65  OA
ATOM     18 OD1  ASP Y   2      36.635  53.552  40.100  1.00 70.23 LIG-0.65  OA
ENDBRANCH 15 16
ENDBRANCH 1 15
BRANCH 1 19
ATOM     19  C   ASP Y   2      35.447  50.724  36.518  1.00 69.95 LIG 0.24  C 
ATOM     20 O    ASP Y   2      34.438  51.427  36.402  1.00 70.67 LIG-0.27  OA
ATOM     21  N   PRO Y   3      35.476  49.450  36.132  1.00 71.01 LIG-0.34  N 
ATOM     22  CA  PRO Y   3      34.369  48.856  35.351  1.00 71.12 LIG 0.17  C 
ATOM     23  CD  PRO Y   3      36.536  48.480  36.459  1.00 71.07 LIG 0.13  C 
ATOM     24  CB  PRO Y   3      34.874  47.456  34.986  1.00 71.47 LIG 0.04  C 
ATOM     25  CG  PRO Y   3      36.032  47.174  35.920  1.00 71.67 LIG 0.02  C 
BRANCH 22 26
ATOM     26  C   PRO Y   3      33.052  48.756  36.122  1.00 71.77 LIG 0.22  C 
ATOM     27 O    PRO Y   3      32.845  47.786  36.861  1.00 72.45 LIG-0.29  OA
ENDBRANCH 22 26
ENDBRANCH 1 19
TORSDOF 10
ENDMDL
MODEL 2
USER: ADFR SOLUTION from run 143
USER: SCORE 12.265814 LL:  -1.186 LR: -11.501 RR:   0.000 FEB:  -8.518
USER: RMSD 4.695179
USER: SEED 142
USER: STATUS no improvement in best in 7 clusters for 5 generations
USER: GENES 12
USER: genes 0 Translation |==|  0.63758 0.50971 0.36774
USER: genes 1 Rotation |==|  0.91386 0.55612 0.77266 0.53498
USER: genes 2 Torsion [C]-CA--N-[C] |==|  0.84968
USER: genes 3 Torsion [N]-C--CA-[N] |==|  0.91901
USER: genes 4 Torsion [C]-CA--N-[H2] |==|  0.52407
USER: genes 5 Torsion [C]-CA--CB-[CG] |==|  0.32185
USER: genes 6 Torsion [CA]-CB--CG-[SD] |==|  0.58817
USER: genes 7 Torsion [CB]-CG--SD-[CE] |==|  0.71724
USER: genes 8 Torsion [N]-CA--CB-[CG] |==|  0.73813
USER: genes 9 Torsion [CA]-CB--CG-[OD1] |==|  0.04094
USER: genes 10 Torsion [N]-CA--C-[N] |==|  0.83949
USER: genes 11 Torsion [N]-CA--C-[O] |==|  0.75454
ROOT
ATOM      1  CA  ASP Y   2      41.903  51.445  35.252  1.00 68.86 LIG 0.19  C 
ENDROOT
BRANCH 1 2
ATOM      2  N   ASP Y   2      40.464  51.601  35.063  1.00 67.90 LIG-0.34  N 
ATOM      3 H    ASP Y   2      40.271  51.879  34.271  1.00 67.90 LIG 0.16  HD
ATOM      4  C   MET Y   1      39.514  51.362  35.964  1.00 66.89 LIG 0.25  C 
ATOM      5 O    MET Y   1      39.721  51.035  37.152  1.00 66.99 LIG-0.27  OA
BRANCH 4 6
ATOM      6  CA  MET Y   1      38.097  51.482  35.371  1.00 65.69 LIG 0.28  C 
BRANCH 6 7
ATOM      7  N   MET Y   1      37.926  52.426  34.236  1.00 65.08 LIG-0.07  N 
ATOM      8 H2   MET Y   1      37.060  52.515  34.052  1.00 65.08 LIG 0.28  HD
ATOM      9 H1   MET Y   1      38.350  52.109  33.521  1.00 65.08 LIG 0.28  HD
ATOM     10 H3   MET Y   1      38.266  53.218  34.455  1.00 65.08 LIG 0.28  HD
ENDBRANCH 6 7
BRANCH 6 11
ATOM     11  CB  MET Y   1      37.555  50.086  35.016  1.00 64.83 LIG 0.05  C 
BRANCH 11 12
ATOM     12  CG  MET Y   1      36.346  49.710  35.833  1.00 63.52 LIG 0.08  C 
BRANCH 12 13
ATOM     13 SD   MET Y   1      36.143  47.972  36.200  1.00 62.62 LIG-0.17  SA
ATOM     14  CE  MET Y   1      34.890  47.550  34.995  1.00 61.34 LIG 0.09  C 
ENDBRANCH 12 13
ENDBRANCH 11 12
ENDBRANCH 6 11
ENDBRANCH 4 6
ENDBRANCH 1 2
BRANCH 1 15
ATOM     15  CB  ASP Y   2      42.595  51.966  33.983  1.00 68.96 LIG 0.15  C 
BRANCH 15 16
ATOM     16  CG  ASP Y   2      42.887  50.849  32.972  1.00 68.92 LIG 0.17  C 
ATOM     17 OD2  ASP Y   2      43.641  50.996  31.982  1.00 65.64 LIG-0.65  OA
ATOM     18 OD1  ASP Y   2      42.319  49.738  33.113  1.00 70.23 LIG-0.65  OA
ENDBRANCH 15 16
ENDBRANCH 1 15
BRANCH 1 19
ATOM     19  C   ASP Y   2      42.411  52.218  36.472  1.00 69.95 LIG 0.24  C 
ATOM     20 O    ASP Y   2      42.967  51.620  37.399  1.00 70.67 LIG-0.27  OA
ATOM     21  N   PRO Y   3      42.193  53.532  36.503  1.00 71.01 LIG-0.34  N 
ATOM     22  CA  PRO Y   3      42.786  54.387  37.553  1.00 71.12 LIG 0.17  C 
ATOM     23  CD  PRO Y   3      41.325  54.277  35.573  1.00 71.07 LIG 0.13  C 
ATOM     24  CB  PRO Y   3      42.425  55.814  37.125  1.00 71.47 LIG 0.04  C 
ATOM     25  CG  PRO Y   3      41.306  55.676  36.114  1.00 71.67 LIG 0.02  C 
BRANCH 22 26
ATOM     26  C   PRO Y   3      42.247  54.107  38.957  1.00 71.77 LIG 0.22  C 
ATOM     27 O    PRO Y   3      41.237  54.698  39.357  1.00 72.45 LIG-0.29  OA
ENDBRANCH 22 26
ENDBRANCH 1 19
TORSDOF 10
ENDMDL
MODEL 3
USER: ADFR SOLUTION from run 20
USER: SCORE 12.275040 LL:  -1.202 LR: -11.469 RR:   0.000 FEB:  -8.486
USER: RMSD 7.182994
USER: SEED 19
USER: STATUS no improvement in best in 9 clusters for 5 generations
USER: GENES 12
USER: genes 0 Translation |==|  0.35179 0.51934 0.51034
USER: genes 1 Rotation |==|  0.64680 0.40176 0.05673 0.64937
USER: genes 2 Torsion [C]-CA--N-[C] |==|  0.71137
USER: genes 3 Torsion [N]-C--CA-[N] |==|  0.85923
USER: genes 4 Torsion [C]-CA--N-[H2] |==|  0.20209
USER: genes 5 Torsion [C]-CA--CB-[CG] |==|  0.46178
USER: genes 6 Torsion [CA]-CB--CG-[SD] |==|  0.48775
USER: genes 7 Torsion [CB]-CG--SD-[CE] |==|  0.71370
USER: genes 8 Torsion [N]-CA--CB-[CG] |==|  0.70808
USER: genes 9 Torsion [CA]-CB--CG-[OD1] |==|  0.92477
USER: genes 10 Torsion [N]-CA--C-[N] |==|  0.23918
USER: genes 11 Torsion [N]-CA--C-[O] |==|  0.79867
ROOT
ATOM      1  CA  ASP Y   2      36.759  51.589  37.391  1.00 68.86 LIG 0.19  C 
ENDROOT
BRANCH 1 2
ATOM      2  N   ASP Y   2      37.845  52.072  36.542  1.00 67.90 LIG-0.34  N 
ATOM      3 H    ASP Y   2      37.636  52.800  36.134  1.00 67.90 LIG 0.16  HD
ATOM      4  C   MET Y   1      39.036  51.501  36.376  1.00 66.89 LIG 0.25  C 
ATOM      5 O    MET Y   1      39.380  50.407  36.870  1.00 66.99 LIG-0.27  OA
BRANCH 4 6
ATOM      6  CA  MET Y   1      39.991  52.367  35.533  1.00 65.69 LIG 0.28  C 
BRANCH 6 7
ATOM      7  N   MET Y   1      39.466  52.870  34.236  1.00 65.08 LIG-0.07  N 
ATOM      8 H2   MET Y   1      38.871  53.514  34.386  1.00 65.08 LIG 0.28  HD
ATOM      9 H1   MET Y   1      39.076  52.203  33.795  1.00 65.08 LIG 0.28  HD
ATOM     10 H3   MET Y   1      40.137  53.194  33.750  1.00 65.08 LIG 0.28  HD
ENDBRANCH 6 7
BRANCH 6 11
ATOM     11  CB  MET Y   1      40.549  53.520  36.387  1.00 64.83 LIG 0.05  C 
BRANCH 11 12
ATOM     12  CG  MET Y   1      41.726  54.203  35.739  1.00 63.52 LIG 0.08  C 
BRANCH 12 13
ATOM     13 SD   MET Y   1      42.379  55.635  36.586  1.00 62.62 LIG-0.17  SA
ATOM     14  CE  MET Y   1      41.693  56.933  35.563  1.00 61.34 LIG 0.09  C 
ENDBRANCH 12 13
ENDBRANCH 11 12
ENDBRANCH 6 11
ENDBRANCH 4 6
ENDBRANCH 1 2
BRANCH 1 15
ATOM     15  CB  ASP Y   2      36.201  52.798  38.157  1.00 68.96 LIG 0.15  C 
BRANCH 15 16
ATOM     16  CG  ASP Y   2      36.635  52.812  39.630  1.00 68.92 LIG 0.17  C 
ATOM     17 OD2  ASP Y   2      36.775  53.864  40.296  1.00 65.64 LIG-0.65  OA
ATOM     18 OD1  ASP Y   2      36.900  51.723  40.195  1.00 70.23 LIG-0.65  OA
ENDBRANCH 15 16
ENDBRANCH 1 15
BRANCH 1 19
ATOM     19  C   ASP Y   2      35.641  50.932  36.577  1.00 69.95 LIG 0.24  C 
ATOM     20 O    ASP Y   2      34.645  51.585  36.250  1.00 70.67 LIG-0.27  OA
ATOM     21  N   PRO Y   3      35.773  49.639  36.282  1.00 71.01 LIG-0.34  N 
ATOM     22  CA  PRO Y   3      34.834  48.958  35.366  1.00 71.12 LIG 0.17  C 
ATOM     23  CD  PRO Y   3      36.792  48.733  36.842  1.00 71.07 LIG 0.13  C 
ATOM     24  CB  PRO Y   3      35.435  47.561  35.179  1.00 71.47 LIG 0.04  C 
ATOM     25  CG  PRO Y   3      36.426  47.379  36.309  1.00 71.67 LIG 0.02  C 
BRANCH 22 26
ATOM     26  C   PRO Y   3      33.408  48.849  35.910  1.00 71.77 LIG 0.22  C 
ATOM     27 O    PRO Y   3      33.160  48.058  36.828  1.00 72.45 LIG-0.29  OA
ENDBRANCH 22 26
ENDBRANCH 1 19
TORSDOF 10
ENDMDL
MODEL 4
USER: ADFR SOLUTION from run 19
USER: SCORE 12.311420 LL:  -1.228 LR: -11.471 RR:   0.000 FEB:  -8.488
USER: RMSD 5.088172
USER: SEED 18
USER: STATUS no improvement in best in 7 clusters for 5 generations
USER: GENES 12
USER: genes 0 Translation |==|  0.62204 0.46524 0.35392
USER: genes 1 Rotation |==|  0.71341 0.70859 0.50543 0.90115
USER: genes 2 Torsion [C]-CA--N-[C] |==|  0.57222
USER: genes 3 Torsion [N]-C--CA-[N] |==|  0.84632
USER: genes 4 Torsion [C]-CA--N-[H2] |==|  0.47555
USER: genes 5 Torsion [C]-CA--CB-[CG] |==|  0.28036
USER: genes 6 Torsion [CA]-CB--CG-[SD] |==|  0.56505
USER: genes 7 Torsion [CB]-CG--SD-[CE] |==|  0.71758
USER: genes 8 Torsion [N]-CA--CB-[CG] |==|  0.78672
USER: genes 9 Torsion [CA]-CB--CG-[OD1] |==|  0.80361
USER: genes 10 Torsion [N]-CA--C-[N] |==|  0.33722
USER: genes 11 Torsion [N]-CA--C-[O] |==|  0.61654
ROOT
ATOM      1  CA  ASP Y   2      41.624  50.778  35.045  1.00 68.86 LIG 0.19  C 
ENDROOT
BRANCH 1 2
ATOM      2  N   ASP Y   2      40.219  51.143  34.886  1.00 67.90 LIG-0.34  N 
ATOM      3 H    ASP Y   2      39.974  51.131  34.061  1.00 67.90 LIG 0.16  HD
ATOM      4  C   MET Y   1      39.368  51.466  35.857  1.00 66.89 LIG 0.25  C 
ATOM      5 O    MET Y   1      39.670  51.582  37.063  1.00 66.99 LIG-0.27  OA
BRANCH 4 6
ATOM      6  CA  MET Y   1      37.927  51.640  35.342  1.00 65.69 LIG 0.28  C 
BRANCH 6 7
ATOM      7  N   MET Y   1      37.725  52.612  34.236  1.00 65.08 LIG-0.07  N 
ATOM      8 H2   MET Y   1      36.892  52.545  33.930  1.00 65.08 LIG 0.28  HD
ATOM      9 H1   MET Y   1      38.298  52.435  33.578  1.00 65.08 LIG 0.28  HD
ATOM     10 H3   MET Y   1      37.865  53.437  34.537  1.00 65.08 LIG 0.28  HD
ENDBRANCH 6 7
BRANCH 6 11
ATOM     11  CB  MET Y   1      37.324  50.268  34.989  1.00 64.83 LIG 0.05  C 
BRANCH 11 12
ATOM     12  CG  MET Y   1      36.402  49.748  36.061  1.00 63.52 LIG 0.08  C 
BRANCH 12 13
ATOM     13 SD   MET Y   1      36.158  47.978  36.110  1.00 62.62 LIG-0.17  SA
ATOM     14  CE  MET Y   1      34.557  47.869  35.319  1.00 61.34 LIG 0.09  C 
ENDBRANCH 12 13
ENDBRANCH 11 12
ENDBRANCH 6 11
ENDBRANCH 4 6
ENDBRANCH 1 2
BRANCH 1 15
ATOM     15  CB  ASP Y   2      41.677  49.272  35.345  1.00 68.96 LIG 0.15  C 
BRANCH 15 16
ATOM     16  CG  ASP Y   2      41.290  48.948  36.795  1.00 68.92 LIG 0.17  C 
ATOM     17 OD2  ASP Y   2      40.204  48.411  37.115  1.00 65.64 LIG-0.65  OA
ATOM     18 OD1  ASP Y   2      42.079  49.266  37.720  1.00 70.23 LIG-0.65  OA
ENDBRANCH 15 16
ENDBRANCH 1 15
BRANCH 1 19
ATOM     19  C   ASP Y   2      42.444  51.083  33.788  1.00 69.95 LIG 0.24  C 
ATOM     20 O    ASP Y   2      42.161  50.540  32.716  1.00 70.67 LIG-0.27  OA
ATOM     21  N   PRO Y   3      43.479  51.912  33.915  1.00 71.01 LIG-0.34  N 
ATOM     22  CA  PRO Y   3      44.228  52.396  32.736  1.00 71.12 LIG 0.17  C 
ATOM     23  CD  PRO Y   3      44.034  52.398  35.191  1.00 71.07 LIG 0.13  C 
ATOM     24  CB  PRO Y   3      45.203  53.431  33.307  1.00 71.47 LIG 0.04  C 
ATOM     25  CG  PRO Y   3      45.257  53.174  34.799  1.00 71.67 LIG 0.02  C 
BRANCH 22 26
ATOM     26  C   PRO Y   3      44.997  51.299  31.998  1.00 71.77 LIG 0.22  C 
ATOM     27 O    PRO Y   3      46.143  51.520  31.590  1.00 72.45 LIG-0.29  OA
ENDBRANCH 22 26
ENDBRANCH 1 19
TORSDOF 10
ENDMDL
MODEL 5
USER: ADFR SOLUTION from run 139
USER: SCORE 10.938617 LL:  -1.178 LR: -11.278 RR:   0.000 FEB:  -8.295
USER: RMSD 5.117757
USER: SEED 138
USER: STATUS no improvement in best in 9 clusters for 5 generations
USER: GENES 12
USER: genes 0 Translation |==|  0.62568 0.44833 0.35595
USER: genes 1 Rotation |==|  0.10454 0.55773 0.20667 0.56507
USER: genes 2 Torsion [C]-CA--N-[C] |==|  0.95381
USER: genes 3 Torsion [N]-C--CA-[N] |==|  0.90780
USER: genes 4 Torsion [C]-CA--N-[H2] |==|  0.74815
USER: genes 5 Torsion [C]-CA--CB-[CG] |==|  0.19378
USER: genes 6 Torsion [CA]-CB--CG-[SD] |==|  0.52979
USER: genes 7 Torsion [CB]-CG--SD-[CE] |==|  0.78353
USER: genes 8 Torsion [N]-CA--CB-[CG] |==|  0.69566
USER: genes 9 Torsion [CA]-CB--CG-[OD1] |==|  0.16071
USER: genes 10 Torsion [N]-CA--C-[N] |==|  0.22956
USER: genes 11 Torsion [N]-CA--C-[O] |==|  0.25485
ROOT
ATOM      1  CA  ASP Y   2      41.689  50.524  35.075  1.00 68.86 LIG 0.19  C 
ENDROOT
BRANCH 1 2
ATOM      2  N   ASP Y   2      40.314  50.995  34.937  1.00 67.90 LIG-0.34  N 
ATOM      3 H    ASP Y   2      40.149  51.280  34.142  1.00 67.90 LIG 0.16  HD
ATOM      4  C   MET Y   1      39.380  51.009  35.886  1.00 66.89 LIG 0.25  C 
ATOM      5 O    MET Y   1      39.568  50.687  37.078  1.00 66.99 LIG-0.27  OA
BRANCH 4 6
ATOM      6  CA  MET Y   1      37.999  51.425  35.346  1.00 65.69 LIG 0.28  C 
BRANCH 6 7
ATOM      7  N   MET Y   1      37.986  52.412  34.236  1.00 65.08 LIG-0.07  N 
ATOM      8 H2   MET Y   1      37.944  53.236  34.572  1.00 65.08 LIG 0.28  HD
ATOM      9 H1   MET Y   1      37.277  52.268  33.718  1.00 65.08 LIG 0.28  HD
ATOM     10 H3   MET Y   1      38.728  52.326  33.753  1.00 65.08 LIG 0.28  HD
ENDBRANCH 6 7
BRANCH 6 11
ATOM     11  CB  MET Y   1      37.177  50.174  34.983  1.00 64.83 LIG 0.05  C 
BRANCH 11 12
ATOM     12  CG  MET Y   1      36.750  49.390  36.197  1.00 63.52 LIG 0.08  C 
BRANCH 12 13
ATOM     13 SD   MET Y   1      36.052  47.773  35.893  1.00 62.62 LIG-0.17  SA
ATOM     14  CE  MET Y   1      34.405  48.245  35.377  1.00 61.34 LIG 0.09  C 
ENDBRANCH 12 13
ENDBRANCH 11 12
ENDBRANCH 6 11
ENDBRANCH 4 6
ENDBRANCH 1 2
BRANCH 1 15
ATOM     15  CB  ASP Y   2      42.596  51.534  34.356  1.00 68.96 LIG 0.15  C 
BRANCH 15 16
ATOM     16  CG  ASP Y   2      43.200  50.965  33.064  1.00 68.92 LIG 0.17  C 
ATOM     17 OD2  ASP Y   2      44.431  50.924  32.838  1.00 65.64 LIG-0.65  OA
ATOM     18 OD1  ASP Y   2      42.428  50.549  32.164  1.00 70.23 LIG-0.65  OA
ENDBRANCH 15 16
ENDBRANCH 1 15
BRANCH 1 19
ATOM     19  C   ASP Y   2      42.112  50.403  36.542  1.00 69.95 LIG 0.24  C 
ATOM     20 O    ASP Y   2      42.782  51.297  37.070  1.00 70.67 LIG-0.27  OA
ATOM     21  N   PRO Y   3      41.764  49.295  37.194  1.00 71.01 LIG-0.34  N 
ATOM     22  CA  PRO Y   3      41.980  49.157  38.650  1.00 71.12 LIG 0.17  C 
ATOM     23  CD  PRO Y   3      41.193  48.084  36.578  1.00 71.07 LIG 0.13  C 
ATOM     24  CB  PRO Y   3      41.302  47.830  39.008  1.00 71.47 LIG 0.04  C 
ATOM     25  CG  PRO Y   3      41.116  47.090  37.700  1.00 71.67 LIG 0.02  C 
BRANCH 22 26
ATOM     26  C   PRO Y   3      43.455  49.120  39.056  1.00 71.77 LIG 0.22  C 
ATOM     27 O    PRO Y   3      44.038  50.169  39.351  1.00 72.45 LIG-0.29  OA
ENDBRANCH 22 26
ENDBRANCH 1 19
TORSDOF 10
ENDMDL
MODEL 6
USER: ADFR SOLUTION from run 45
USER: SCORE 11.396056 LL:  -1.245 LR: -11.123 RR:   0.000 FEB:  -8.140
USER: RMSD 5.427814
USER: SEED 44
USER: STATUS no improvement in best in 3 clusters for 5 generations
USER: GENES 12
USER: genes 0 Translation |==|  0.33439 0.51595 0.68659
USER: genes 1 Rotation |==|  0.64588 0.52889 0.92829 0.71083
USER: genes 2 Torsion [C]-CA--N-[C] |==|  0.19840
USER: genes 3 Torsion [N]-C--CA-[N] |==|  0.47118
USER: genes 4 Torsion [C]-CA--N-[H2] |==|  0.75665
USER: genes 5 Torsion [C]-CA--CB-[CG] |==|  0.26435
USER: genes 6 Torsion [CA]-CB--CG-[SD] |==|  0.57815
USER: genes 7 Torsion [CB]-CG--SD-[CE] |==|  0.70437
USER: genes 8 Torsion [N]-CA--CB-[CG] |==|  0.33938
USER: genes 9 Torsion [CA]-CB--CG-[OD1] |==|  0.29129
USER: genes 10 Torsion [N]-CA--C-[N] |==|  0.41667
USER: genes 11 Torsion [N]-CA--C-[O] |==|  0.02091
ROOT
ATOM      1  CA  ASP Y   2      36.446  51.538  40.035  1.00 68.86 LIG 0.19  C 
ENDROOT
BRANCH 1 2
ATOM      2  N   ASP Y   2      36.326  51.438  38.583  1.00 67.90 LIG-0.34  N 
ATOM      3 H    ASP Y   2      35.676  50.925  38.348  1.00 67.90 LIG 0.16  HD
ATOM      4  C   MET Y   1      37.096  52.040  37.679  1.00 66.89 LIG 0.25  C 
ATOM      5 O    MET Y   1      38.102  52.731  37.943  1.00 66.99 LIG-0.27  OA
BRANCH 4 6
ATOM      6  CA  MET Y   1      36.584  51.835  36.241  1.00 65.69 LIG 0.28  C 
BRANCH 6 7
ATOM      7  N   MET Y   1      37.226  52.655  35.181  1.00 65.08 LIG-0.07  N 
ATOM      8 H2   MET Y   1      36.802  53.435  35.111  1.00 65.08 LIG 0.28  HD
ATOM      9 H1   MET Y   1      37.181  52.224  34.404  1.00 65.08 LIG 0.28  HD
ATOM     10 H3   MET Y   1      38.078  52.799  35.391  1.00 65.08 LIG 0.28  HD
ENDBRANCH 6 7
BRANCH 6 11
ATOM     11  CB  MET Y   1      36.617  50.339  35.878  1.00 64.83 LIG 0.05  C 
BRANCH 11 12
ATOM     12  CG  MET Y   1      35.293  49.659  36.109  1.00 63.52 LIG 0.08  C 
BRANCH 12 13
ATOM     13 SD   MET Y   1      35.351  47.913  36.487  1.00 62.62 LIG-0.17  SA
ATOM     14  CE  MET Y   1      34.762  47.245  34.935  1.00 61.34 LIG 0.09  C 
ENDBRANCH 12 13
ENDBRANCH 11 12
ENDBRANCH 6 11
ENDBRANCH 4 6
ENDBRANCH 1 2
BRANCH 1 15
ATOM     15  CB  ASP Y   2      37.918  51.287  40.394  1.00 68.96 LIG 0.15  C 
BRANCH 15 16
ATOM     16  CG  ASP Y   2      38.544  52.460  41.163  1.00 68.92 LIG 0.17  C 
ATOM     17 OD2  ASP Y   2      38.909  53.525  40.615  1.00 65.64 LIG-0.65  OA
ATOM     18 OD1  ASP Y   2      38.737  52.342  42.398  1.00 70.23 LIG-0.65  OA
ENDBRANCH 15 16
ENDBRANCH 1 15
BRANCH 1 19
ATOM     19  C   ASP Y   2      36.015  52.913  40.555  1.00 69.95 LIG 0.24  C 
ATOM     20 O    ASP Y   2      36.186  53.920  39.861  1.00 70.67 LIG-0.27  OA
ATOM     21  N   PRO Y   3      35.495  52.972  41.780  1.00 71.01 LIG-0.34  N 
ATOM     22  CA  PRO Y   3      34.900  54.220  42.305  1.00 71.12 LIG 0.17  C 
ATOM     23  CD  PRO Y   3      35.490  51.872  42.762  1.00 71.07 LIG 0.13  C 
ATOM     24  CB  PRO Y   3      34.290  53.809  43.649  1.00 71.47 LIG 0.04  C 
ATOM     25  CG  PRO Y   3      34.928  52.484  44.011  1.00 71.67 LIG 0.02  C 
BRANCH 22 26
ATOM     26  C   PRO Y   3      35.911  55.349  42.509  1.00 71.77 LIG 0.22  C 
ATOM     27 O    PRO Y   3      37.073  55.214  42.110  1.00 72.45 LIG-0.29  OA
ENDBRANCH 22 26
ENDBRANCH 1 19
TORSDOF 10
ENDMDL
MODEL 7
USER: ADFR SOLUTION from run 100
USER: SCORE 12.173235 LL:  -1.149 LR: -11.125 RR:   0.000 FEB:  -8.142
USER: RMSD 4.911646
USER: SEED 99
USER: STATUS no improvement in best in 7 clusters for 5 generations
USER: GENES 12
USER: genes 0 Translation |==|  0.63286 0.55385 0.35982
USER: genes 1 Rotation |==|  0.90326 0.62539 0.75451 0.58297
USER: genes 2 Torsion [C]-CA--N-[C] |==|  0.80852
USER: genes 3 Torsion [N]-C--CA-[N] |==|  0.91054
USER: genes 4 Torsion [C]-CA--N-[H2] |==|  0.86927
USER: genes 5 Torsion [C]-CA--CB-[CG] |==|  0.38084
USER: genes 6 Torsion [CA]-CB--CG-[SD] |==|  0.58922
USER: genes 7 Torsion [CB]-CG--SD-[CE] |==|  0.62902
USER: genes 8 Torsion [N]-CA--CB-[CG] |==|  0.75006
USER: genes 9 Torsion [CA]-CB--CG-[OD1] |==|  0.54452
USER: genes 10 Torsion [N]-CA--C-[N] |==|  0.46667
USER: genes 11 Torsion [N]-CA--C-[O] |==|  0.06292
ROOT
ATOM      1  CA  ASP Y   2      41.819  52.107  35.133  1.00 68.86 LIG 0.19  C 
ENDROOT
BRANCH 1 2
ATOM      2  N   ASP Y   2      40.368  52.026  34.983  1.00 67.90 LIG-0.34  N 
ATOM      3 H    ASP Y   2      40.116  52.216  34.182  1.00 67.90 LIG 0.16  HD
ATOM      4  C   MET Y   1      39.489  51.703  35.929  1.00 66.89 LIG 0.25  C 
ATOM      5 O    MET Y   1      39.771  51.494  37.127  1.00 66.99 LIG-0.27  OA
BRANCH 4 6
ATOM      6  CA  MET Y   1      38.057  51.563  35.377  1.00 65.69 LIG 0.28  C 
BRANCH 6 7
ATOM      7  N   MET Y   1      37.692  52.440  34.235  1.00 65.08 LIG-0.07  N 
ATOM      8 H2   MET Y   1      37.950  53.275  34.407  1.00 65.08 LIG 0.28  HD
ATOM      9 H1   MET Y   1      36.811  52.421  34.116  1.00 65.08 LIG 0.28  HD
ATOM     10 H3   MET Y   1      38.098  52.151  33.497  1.00 65.08 LIG 0.28  HD
ENDBRANCH 6 7
BRANCH 6 11
ATOM     11  CB  MET Y   1      37.759  50.086  35.057  1.00 64.83 LIG 0.05  C 
BRANCH 11 12
ATOM     12  CG  MET Y   1      36.384  49.664  35.506  1.00 63.52 LIG 0.08  C 
BRANCH 12 13
ATOM     13 SD   MET Y   1      36.205  47.963  36.027  1.00 62.62 LIG-0.17  SA
ATOM     14  CE  MET Y   1      34.710  47.530  35.145  1.00 61.34 LIG 0.09  C 
ENDBRANCH 12 13
ENDBRANCH 11 12
ENDBRANCH 6 11
ENDBRANCH 4 6
ENDBRANCH 1 2
BRANCH 1 15
ATOM     15  CB  ASP Y   2      42.419  52.274  33.729  1.00 68.96 LIG 0.15  C 
BRANCH 15 16
ATOM     16  CG  ASP Y   2      42.740  50.929  33.063  1.00 68.92 LIG 0.17  C 
ATOM     17 OD2  ASP Y   2      42.310  49.831  33.486  1.00 65.64 LIG-0.65  OA
ATOM     18 OD1  ASP Y   2      43.502  50.912  32.065  1.00 70.23 LIG-0.65  OA
ENDBRANCH 15 16
ENDBRANCH 1 15
BRANCH 1 19
ATOM     19  C   ASP Y   2      42.241  53.282  36.019  1.00 69.95 LIG 0.24  C 
ATOM     20 O    ASP Y   2      41.430  54.171  36.299  1.00 70.67 LIG-0.27  OA
ATOM     21  N   PRO Y   3      43.507  53.319  36.431  1.00 71.01 LIG-0.34  N 
ATOM     22  CA  PRO Y   3      43.968  54.318  37.419  1.00 71.12 LIG 0.17  C 
ATOM     23  CD  PRO Y   3      44.591  52.448  35.942  1.00 71.07 LIG 0.13  C 
ATOM     24  CB  PRO Y   3      45.412  53.907  37.725  1.00 71.47 LIG 0.04  C 
ATOM     25  CG  PRO Y   3      45.829  52.980  36.603  1.00 71.67 LIG 0.02  C 
BRANCH 22 26
ATOM     26  C   PRO Y   3      43.928  55.759  36.906  1.00 71.77 LIG 0.22  C 
ATOM     27 O    PRO Y   3      43.177  56.058  35.971  1.00 72.45 LIG-0.29  OA
ENDBRANCH 22 26
ENDBRANCH 1 19
TORSDOF 10
ENDMDL
MODEL 8
USER: ADFR SOLUTION from run 178
USER: SCORE 12.045918 LL:  -1.331 LR: -10.967 RR:   0.000 FEB:  -7.984
USER: RMSD 3.818031
USER: SEED 177
USER: STATUS no improvement in best in 10 clusters for 5 generations
USER: GENES 12
USER: genes 0 Translation |==|  0.55649 0.41284 0.56272
USER: genes 1 Rotation |==|  0.46591 0.57819 0.26237 0.93158
USER: genes 2 Torsion [C]-CA--N-[C] |==|  0.75353
USER: genes 3 Torsion [N]-C--CA-[N] |==|  0.44925
USER: genes 4 Torsion [C]-CA--N-[H2] |==|  0.73314
USER: genes 5 Torsion [C]-CA--CB-[CG] |==|  0.25293
USER: genes 6 Torsion [CA]-CB--CG-[SD] |==|  0.60111
USER: genes 7 Torsion [CB]-CG--SD-[CE] |==|  0.76788
USER: genes 8 Torsion [N]-CA--CB-[CG] |==|  0.95414
USER: genes 9 Torsion [CA]-CB--CG-[OD1] |==|  0.25597
USER: genes 10 Torsion [N]-CA--C-[N] |==|  0.50556
USER: genes 11 Torsion [N]-CA--C-[O] |==|  0.21579
ROOT
ATOM      1  CA  ASP Y   2      40.444  49.992  38.177  1.00 68.86 LIG 0.19  C 
ENDROOT
BRANCH 1 2
ATOM      2  N   ASP Y   2      39.407  50.407  37.236  1.00 67.90 LIG-0.34  N 
ATOM      3 H    ASP Y   2      38.617  50.282  37.551  1.00 67.90 LIG 0.16  HD
ATOM      4  C   MET Y   1      39.597  50.923  36.023  1.00 66.89 LIG 0.25  C 
ATOM      5 O    MET Y   1      40.707  51.059  35.469  1.00 66.99 LIG-0.27  OA
BRANCH 4 6
ATOM      6  CA  MET Y   1      38.282  51.392  35.372  1.00 65.69 LIG 0.28  C 
BRANCH 6 7
ATOM      7  N   MET Y   1      38.401  52.342  34.236  1.00 65.08 LIG-0.07  N 
ATOM      8 H2   MET Y   1      38.301  53.175  34.534  1.00 65.08 LIG 0.28  HD
ATOM      9 H1   MET Y   1      37.770  52.166  33.634  1.00 65.08 LIG 0.28  HD
ATOM     10 H3   MET Y   1      39.202  52.256  33.859  1.00 65.08 LIG 0.28  HD
ENDBRANCH 6 7
BRANCH 6 11
ATOM     11  CB  MET Y   1      37.421  50.174  34.986  1.00 64.83 LIG 0.05  C 
BRANCH 11 12
ATOM     12  CG  MET Y   1      36.473  49.765  36.083  1.00 63.52 LIG 0.08  C 
BRANCH 12 13
ATOM     13 SD   MET Y   1      36.192  48.011  36.278  1.00 62.62 LIG-0.17  SA
ATOM     14  CE  MET Y   1      34.929  47.764  35.036  1.00 61.34 LIG 0.09  C 
ENDBRANCH 12 13
ENDBRANCH 11 12
ENDBRANCH 6 11
ENDBRANCH 4 6
ENDBRANCH 1 2
BRANCH 1 15
ATOM     15  CB  ASP Y   2      39.880  50.174  39.594  1.00 68.96 LIG 0.15  C 
BRANCH 15 16
ATOM     16  CG  ASP Y   2      38.638  51.077  39.620  1.00 68.92 LIG 0.17  C 
ATOM     17 OD2  ASP Y   2      38.693  52.320  39.765  1.00 65.64 LIG-0.65  OA
ATOM     18 OD1  ASP Y   2      37.502  50.549  39.529  1.00 70.23 LIG-0.65  OA
ENDBRANCH 15 16
ENDBRANCH 1 15
BRANCH 1 19
ATOM     19  C   ASP Y   2      40.859  48.532  37.970  1.00 69.95 LIG 0.24  C 
ATOM     20 O    ASP Y   2      40.327  47.856  37.084  1.00 70.67 LIG-0.27  OA
ATOM     21  N   PRO Y   3      41.771  48.028  38.799  1.00 71.01 LIG-0.34  N 
ATOM     22  CA  PRO Y   3      42.355  46.688  38.580  1.00 71.12 LIG 0.17  C 
ATOM     23  CD  PRO Y   3      42.264  48.678  40.027  1.00 71.07 LIG 0.13  C 
ATOM     24  CB  PRO Y   3      43.453  46.576  39.643  1.00 71.47 LIG 0.04  C 
ATOM     25  CG  PRO Y   3      43.156  47.654  40.664  1.00 71.67 LIG 0.02  C 
BRANCH 22 26
ATOM     26  C   PRO Y   3      41.353  45.543  38.736  1.00 71.77 LIG 0.22  C 
ATOM     27 O    PRO Y   3      40.551  45.299  37.826  1.00 72.45 LIG-0.29  OA
ENDBRANCH 22 26
ENDBRANCH 1 19
TORSDOF 10
ENDMDL
MODEL 9
USER: ADFR SOLUTION from run 82
USER: SCORE 10.834524 LL:  -1.120 LR: -10.831 RR:   0.000 FEB:  -7.848
USER: RMSD 5.185540
USER: SEED 81
USER: STATUS no improvement in best in 6 clusters for 5 generations
USER: GENES 12
USER: genes 0 Translation |==|  0.62990 0.65846 0.36736
USER: genes 1 Rotation |==|  0.28260 0.63818 0.39222 0.91476
USER: genes 2 Torsion [C]-CA--N-[C] |==|  0.18736
USER: genes 3 Torsion [N]-C--CA-[N] |==|  0.97932
USER: genes 4 Torsion [C]-CA--N-[H2] |==|  0.49117
USER: genes 5 Torsion [C]-CA--CB-[CG] |==|  0.48056
USER: genes 6 Torsion [CA]-CB--CG-[SD] |==|  0.65203
USER: genes 7 Torsion [CB]-CG--SD-[CE] |==|  0.54064
USER: genes 8 Torsion [N]-CA--CB-[CG] |==|  0.61942
USER: genes 9 Torsion [CA]-CB--CG-[OD1] |==|  0.49535
USER: genes 10 Torsion [N]-CA--C-[N] |==|  0.35213
USER: genes 11 Torsion [N]-CA--C-[O] |==|  0.68613
ROOT
ATOM      1  CA  ASP Y   2      41.765  53.676  35.246  1.00 68.86 LIG 0.19  C 
ENDROOT
BRANCH 1 2
ATOM      2  N   ASP Y   2      40.410  53.141  35.142  1.00 67.90 LIG-0.34  N 
ATOM      3 H    ASP Y   2      40.025  53.379  34.411  1.00 67.90 LIG 0.16  HD
ATOM      4  C   MET Y   1      39.789  52.374  36.035  1.00 66.89 LIG 0.25  C 
ATOM      5 O    MET Y   1      40.252  52.055  37.150  1.00 66.99 LIG-0.27  OA
BRANCH 4 6
ATOM      6  CA  MET Y   1      38.427  51.864  35.526  1.00 65.69 LIG 0.28  C 
BRANCH 6 7
ATOM      7  N   MET Y   1      37.944  52.424  34.237  1.00 65.08 LIG-0.07  N 
ATOM      8 H2   MET Y   1      37.177  52.032  34.012  1.00 65.08 LIG 0.28  HD
ATOM      9 H1   MET Y   1      38.550  52.274  33.603  1.00 65.08 LIG 0.28  HD
ATOM     10 H3   MET Y   1      37.816  53.300  34.323  1.00 65.08 LIG 0.28  HD
ENDBRANCH 6 7
BRANCH 6 11
ATOM     11  CB  MET Y   1      38.418  50.325  35.499  1.00 64.83 LIG 0.05  C 
BRANCH 11 12
ATOM     12  CG  MET Y   1      37.060  49.760  35.171  1.00 63.52 LIG 0.08  C 
BRANCH 12 13
ATOM     13 SD   MET Y   1      36.385  48.585  36.336  1.00 62.62 LIG-0.17  SA
ATOM     14  CE  MET Y   1      35.066  47.895  35.344  1.00 61.34 LIG 0.09  C 
ENDBRANCH 12 13
ENDBRANCH 11 12
ENDBRANCH 6 11
ENDBRANCH 4 6
ENDBRANCH 1 2
BRANCH 1 15
ATOM     15  CB  ASP Y   2      41.868  54.410  36.592  1.00 68.96 LIG 0.15  C 
BRANCH 15 16
ATOM     16  CG  ASP Y   2      42.605  55.752  36.473  1.00 68.92 LIG 0.17  C 
ATOM     17 OD2  ASP Y   2      43.125  56.161  35.410  1.00 65.64 LIG-0.65  OA
ATOM     18 OD1  ASP Y   2      42.730  56.469  37.497  1.00 70.23 LIG-0.65  OA
ENDBRANCH 15 16
ENDBRANCH 1 15
BRANCH 1 19
ATOM     19  C   ASP Y   2      42.826  52.574  35.177  1.00 69.95 LIG 0.24  C 
ATOM     20 O    ASP Y   2      42.784  51.621  35.962  1.00 70.67 LIG-0.27  OA
ATOM     21  N   PRO Y   3      43.797  52.710  34.275  1.00 71.01 LIG-0.34  N 
ATOM     22  CA  PRO Y   3      44.769  51.626  34.019  1.00 71.12 LIG 0.17  C 
ATOM     23  CD  PRO Y   3      44.065  53.924  33.482  1.00 71.07 LIG 0.13  C 
ATOM     24  CB  PRO Y   3      45.586  52.127  32.823  1.00 71.47 LIG 0.04  C 
ATOM     25  CG  PRO Y   3      45.330  53.617  32.737  1.00 71.67 LIG 0.02  C 
BRANCH 22 26
ATOM     26  C   PRO Y   3      45.694  51.332  35.202  1.00 71.77 LIG 0.22  C 
ATOM     27 O    PRO Y   3      46.903  51.576  35.112  1.00 72.45 LIG-0.29  OA
ENDBRANCH 22 26
ENDBRANCH 1 19
TORSDOF 10
ENDMDL
MODEL 10
USER: ADFR SOLUTION from run 9
USER: SCORE 11.552859 LL:  -1.433 LR: -10.770 RR:   0.000 FEB:  -7.787
USER: RMSD 5.195877
USER: SEED 469062
USER: STATUS no improvement in best in 9 clusters for 5 generations
USER: GENES 12
USER: genes 0 Translation |==|  0.41636 0.53354 0.61919
USER: genes 1 Rotation |==|  0.33006 0.42396 0.03620 0.51493
USER: genes 2 Torsion [C]-CA--N-[C] |==|  0.50556
USER: genes 3 Torsion [N]-C--CA-[N] |==|  0.34276
USER: genes 4 Torsion [C]-CA--N-[H2] |==|  0.16007
USER: genes 5 Torsion [C]-CA--CB-[CG] |==|  0.07273
USER: genes 6 Torsion [CA]-CB--CG-[SD] |==|  0.24067
USER: genes 7 Torsion [CB]-CG--SD-[CE] |==|  0.28016
USER: genes 8 Torsion [N]-CA--CB-[CG] |==|  0.45764
USER: genes 9 Torsion [CA]-CB--CG-[OD1] |==|  0.30993
USER: genes 10 Torsion [N]-CA--C-[N] |==|  0.37337
USER: genes 11 Torsion [N]-CA--C-[O] |==|  0.33700
ROOT
ATOM      1  CA  ASP Y   2      37.922  51.802  39.024  1.00 68.86 LIG 0.19  C 
ENDROOT
BRANCH 1 2
ATOM      2  N   ASP Y   2      37.608  51.730  37.600  1.00 67.90 LIG-0.34  N 
ATOM      3 H    ASP Y   2      36.801  51.976  37.434  1.00 67.90 LIG 0.16  HD
ATOM      4  C   MET Y   1      38.427  51.339  36.625  1.00 66.89 LIG 0.25  C 
ATOM      5 O    MET Y   1      39.581  50.894  36.797  1.00 66.99 LIG-0.27  OA
BRANCH 4 6
ATOM      6  CA  MET Y   1      37.814  51.539  35.226  1.00 65.69 LIG 0.28  C 
BRANCH 6 7
ATOM      7  N   MET Y   1      38.588  52.373  34.271  1.00 65.08 LIG-0.07  N 
ATOM      8 H2   MET Y   1      39.399  52.023  34.161  1.00 65.08 LIG 0.28  HD
ATOM      9 H1   MET Y   1      38.663  53.199  34.592  1.00 65.08 LIG 0.28  HD
ATOM     10 H3   MET Y   1      38.166  52.397  33.488  1.00 65.08 LIG 0.28  HD
ENDBRANCH 6 7
BRANCH 6 11
ATOM     11  CB  MET Y   1      37.459  50.174  34.607  1.00 64.83 LIG 0.05  C 
BRANCH 11 12
ATOM     12  CG  MET Y   1      37.190  49.119  35.648  1.00 63.52 LIG 0.08  C 
BRANCH 12 13
ATOM     13 SD   MET Y   1      35.517  49.025  36.270  1.00 62.62 LIG-0.17  SA
ATOM     14  CE  MET Y   1      34.919  47.628  35.326  1.00 61.34 LIG 0.09  C 
ENDBRANCH 12 13
ENDBRANCH 11 12
ENDBRANCH 6 11
ENDBRANCH 4 6
ENDBRANCH 1 2
BRANCH 1 15
ATOM     15  CB  ASP Y   2      39.071  52.807  39.192  1.00 68.96 LIG 0.15  C 
BRANCH 15 16
ATOM     16  CG  ASP Y   2      39.249  53.257  40.649  1.00 68.92 LIG 0.17  C 
ATOM     17 OD2  ASP Y   2      38.434  53.998  41.246  1.00 65.64 LIG-0.65  OA
ATOM     18 OD1  ASP Y   2      40.279  52.901  41.273  1.00 70.23 LIG-0.65  OA
ENDBRANCH 15 16
ENDBRANCH 1 15
BRANCH 1 19
ATOM     19  C   ASP Y   2      36.717  52.250  39.857  1.00 69.95 LIG 0.24  C 
ATOM     20 O    ASP Y   2      36.052  53.231  39.507  1.00 70.67 LIG-0.27  OA
ATOM     21  N   PRO Y   3      36.453  51.572  40.972  1.00 71.01 LIG-0.34  N 
ATOM     22  CA  PRO Y   3      35.223  51.821  41.753  1.00 71.12 LIG 0.17  C 
ATOM     23  CD  PRO Y   3      37.333  50.563  41.589  1.00 71.07 LIG 0.13  C 
ATOM     24  CB  PRO Y   3      35.237  50.737  42.835  1.00 71.47 LIG 0.04  C 
ATOM     25  CG  PRO Y   3      36.656  50.210  42.880  1.00 71.67 LIG 0.02  C 
BRANCH 22 26
ATOM     26  C   PRO Y   3      35.169  53.207  42.398  1.00 71.77 LIG 0.22  C 
ATOM     27 O    PRO Y   3      34.240  53.977  42.125  1.00 72.45 LIG-0.29  OA
ENDBRANCH 22 26
ENDBRANCH 1 19
TORSDOF 10
ENDMDL
MODEL 11
USER: ADFR SOLUTION from run 64
USER: SCORE 10.822864 LL:  -0.715 LR: -10.688 RR:   0.000 FEB:  -7.705
USER: RMSD 6.923343
USER: SEED 63
USER: STATUS no improvement in best in 9 clusters for 5 generations
USER: GENES 12
USER: genes 0 Translation |==|  0.41319 0.41611 0.50523
USER: genes 1 Rotation |==|  0.59409 0.45179 0.09264 0.76997
USER: genes 2 Torsion [C]-CA--N-[C] |==|  0.70250
USER: genes 3 Torsion [N]-C--CA-[N] |==|  0.99234
USER: genes 4 Torsion [C]-CA--N-[H2] |==|  0.09283
USER: genes 5 Torsion [C]-CA--CB-[CG] |==|  0.27929
USER: genes 6 Torsion [CA]-CB--CG-[SD] |==|  0.91288
USER: genes 7 Torsion [CB]-CG--SD-[CE] |==|  0.47218
USER: genes 8 Torsion [N]-CA--CB-[CG] |==|  0.70246
USER: genes 9 Torsion [CA]-CB--CG-[OD1] |==|  0.75141
USER: genes 10 Torsion [N]-CA--C-[N] |==|  0.78932
USER: genes 11 Torsion [N]-CA--C-[O] |==|  0.76285
ROOT
ATOM      1  CA  ASP Y   2      37.864  50.041  37.314  1.00 68.86 LIG 0.19  C 
ENDROOT
BRANCH 1 2
ATOM      2  N   ASP Y   2      38.311  50.857  36.189  1.00 67.90 LIG-0.34  N 
ATOM      3 H    ASP Y   2      37.668  51.317  35.849  1.00 67.90 LIG 0.16  HD
ATOM      4  C   MET Y   1      39.547  50.925  35.699  1.00 66.89 LIG 0.25  C 
ATOM      5 O    MET Y   1      40.509  50.230  36.086  1.00 66.99 LIG-0.27  OA
BRANCH 4 6
ATOM      6  CA  MET Y   1      39.689  52.006  34.611  1.00 65.69 LIG 0.28  C 
BRANCH 6 7
ATOM      7  N   MET Y   1      38.455  52.743  34.236  1.00 65.08 LIG-0.07  N 
ATOM      8 H2   MET Y   1      37.932  52.830  34.951  1.00 65.08 LIG 0.28  HD
ATOM      9 H1   MET Y   1      38.020  52.292  33.605  1.00 65.08 LIG 0.28  HD
ATOM     10 H3   MET Y   1      38.672  53.549  33.928  1.00 65.08 LIG 0.28  HD
ENDBRANCH 6 7
BRANCH 6 11
ATOM     11  CB  MET Y   1      40.823  52.980  34.982  1.00 64.83 LIG 0.05  C 
BRANCH 11 12
ATOM     12  CG  MET Y   1      42.102  52.688  34.241  1.00 63.52 LIG 0.08  C 
BRANCH 12 13
ATOM     13 SD   MET Y   1      42.408  50.977  33.826  1.00 62.62 LIG-0.17  SA
ATOM     14  CE  MET Y   1      43.811  51.174  32.735  1.00 61.34 LIG 0.09  C 
ENDBRANCH 12 13
ENDBRANCH 11 12
ENDBRANCH 6 11
ENDBRANCH 4 6
ENDBRANCH 1 2
BRANCH 1 15
ATOM     15  CB  ASP Y   2      37.032  50.944  38.236  1.00 68.96 LIG 0.15  C 
BRANCH 15 16
ATOM     16  CG  ASP Y   2      37.771  51.301  39.534  1.00 68.92 LIG 0.17  C 
ATOM     17 OD2  ASP Y   2      38.529  52.292  39.644  1.00 65.64 LIG-0.65  OA
ATOM     18 OD1  ASP Y   2      37.646  50.548  40.531  1.00 70.23 LIG-0.65  OA
ENDBRANCH 15 16
ENDBRANCH 1 15
BRANCH 1 19
ATOM     19  C   ASP Y   2      37.020  48.847  36.861  1.00 69.95 LIG 0.24  C 
ATOM     20 O    ASP Y   2      37.518  47.717  36.814  1.00 70.67 LIG-0.27  OA
ATOM     21  N   PRO Y   3      35.763  49.087  36.490  1.00 71.01 LIG-0.34  N 
ATOM     22  CA  PRO Y   3      34.823  47.985  36.195  1.00 71.12 LIG 0.17  C 
ATOM     23  CD  PRO Y   3      35.175  50.421  36.275  1.00 71.07 LIG 0.13  C 
ATOM     24  CB  PRO Y   3      33.478  48.686  35.976  1.00 71.47 LIG 0.04  C 
ATOM     25  CG  PRO Y   3      33.802  50.145  35.736  1.00 71.67 LIG 0.02  C 
BRANCH 22 26
ATOM     26  C   PRO Y   3      35.197  47.166  34.958  1.00 71.77 LIG 0.22  C 
ATOM     27 O    PRO Y   3      34.837  47.546  33.838  1.00 72.45 LIG-0.29  OA
ENDBRANCH 22 26
ENDBRANCH 1 19
TORSDOF 10
ENDMDL
MODEL 12
USER: ADFR SOLUTION from run 81
USER: SCORE 11.903149 LL:  -1.283 LR: -10.685 RR:   0.000 FEB:  -7.702
USER: RMSD 2.939623
USER: SEED 80
USER: STATUS no improvement in best in 9 clusters for 5 generations
USER: GENES 12
USER: genes 0 Translation |==|  0.53177 0.59788 0.55911
USER: genes 1 Rotation |==|  0.48896 0.55513 0.44365 0.99362
USER: genes 2 Torsion [C]-CA--N-[C] |==|  0.14372
USER: genes 3 Torsion [N]-C--CA-[N] |==|  0.15494
USER: genes 4 Torsion [C]-CA--N-[H2] |==|  0.82595
USER: genes 5 Torsion [C]-CA--CB-[CG] |==|  0.22629
USER: genes 6 Torsion [CA]-CB--CG-[SD] |==|  0.60823
USER: genes 7 Torsion [CB]-CG--SD-[CE] |==|  0.70217
USER: genes 8 Torsion [N]-CA--CB-[CG] |==|  0.79381
USER: genes 9 Torsion [CA]-CB--CG-[OD1] |==|  0.21298
USER: genes 10 Torsion [N]-CA--C-[N] |==|  0.12171
USER: genes 11 Torsion [N]-CA--C-[O] |==|  0.53380
ROOT
ATOM      1  CA  ASP Y   2      39.999  52.767  38.123  1.00 68.86 LIG 0.19  C 
ENDROOT
BRANCH 1 2
ATOM      2  N   ASP Y   2      39.004  52.553  37.076  1.00 67.90 LIG-0.34  N 
ATOM      3 H    ASP Y   2      38.673  53.293  36.788  1.00 67.90 LIG 0.16  HD
ATOM      4  C   MET Y   1      38.611  51.380  36.582  1.00 66.89 LIG 0.25  C 
ATOM      5 O    MET Y   1      38.986  50.265  37.003  1.00 66.99 LIG-0.27  OA
BRANCH 4 6
ATOM      6  CA  MET Y   1      37.662  51.537  35.379  1.00 65.69 LIG 0.28  C 
BRANCH 6 7
ATOM      7  N   MET Y   1      38.160  52.345  34.236  1.00 65.08 LIG-0.07  N 
ATOM      8 H2   MET Y   1      38.301  53.182  34.504  1.00 65.08 LIG 0.28  HD
ATOM      9 H1   MET Y   1      37.556  52.341  33.584  1.00 65.08 LIG 0.28  HD
ATOM     10 H3   MET Y   1      38.922  51.998  33.936  1.00 65.08 LIG 0.28  HD
ENDBRANCH 6 7
BRANCH 6 11
ATOM     11  CB  MET Y   1      37.177  50.153  34.908  1.00 64.83 LIG 0.05  C 
BRANCH 11 12
ATOM     12  CG  MET Y   1      36.034  49.628  35.736  1.00 63.52 LIG 0.08  C 
BRANCH 12 13
ATOM     13 SD   MET Y   1      36.054  47.878  36.099  1.00 62.62 LIG-0.17  SA
ATOM     14  CE  MET Y   1      34.733  47.329  35.025  1.00 61.34 LIG 0.09  C 
ENDBRANCH 12 13
ENDBRANCH 11 12
ENDBRANCH 6 11
ENDBRANCH 4 6
ENDBRANCH 1 2
BRANCH 1 15
ATOM     15  CB  ASP Y   2      39.404  52.243  39.438  1.00 68.96 LIG 0.15  C 
BRANCH 15 16
ATOM     16  CG  ASP Y   2      38.324  53.174  40.007  1.00 68.92 LIG 0.17  C 
ATOM     17 OD2  ASP Y   2      38.509  53.921  40.995  1.00 65.64 LIG-0.65  OA
ATOM     18 OD1  ASP Y   2      37.181  53.168  39.486  1.00 70.23 LIG-0.65  OA
ENDBRANCH 15 16
ENDBRANCH 1 15
BRANCH 1 19
ATOM     19  C   ASP Y   2      41.314  52.041  37.825  1.00 69.95 LIG 0.24  C 
ATOM     20 O    ASP Y   2      41.915  51.451  38.728  1.00 70.67 LIG-0.27  OA
ATOM     21  N   PRO Y   3      41.788  52.111  36.582  1.00 71.01 LIG-0.34  N 
ATOM     22  CA  PRO Y   3      42.957  51.312  36.156  1.00 71.12 LIG 0.17  C 
ATOM     23  CD  PRO Y   3      41.275  52.994  35.518  1.00 71.07 LIG 0.13  C 
ATOM     24  CB  PRO Y   3      43.056  51.562  34.648  1.00 71.47 LIG 0.04  C 
ATOM     25  CG  PRO Y   3      42.226  52.799  34.375  1.00 71.67 LIG 0.02  C 
BRANCH 22 26
ATOM     26  C   PRO Y   3      44.263  51.712  36.843  1.00 71.77 LIG 0.22  C 
ATOM     27 O    PRO Y   3      45.340  51.280  36.416  1.00 72.45 LIG-0.29  OA
ENDBRANCH 22 26
ENDBRANCH 1 19
TORSDOF 10
ENDMDL
MODEL 13
USER: ADFR SOLUTION from run 119
USER: SCORE 11.865319 LL:  -1.627 LR: -10.661 RR:   0.000 FEB:  -7.678
USER: RMSD 3.627553
USER: SEED 118
USER: STATUS no improvement in best in 8 clusters for 5 generations
USER: GENES 12
USER: genes 0 Translation |==|  0.54051 0.48134 0.59994
USER: genes 1 Rotation |==|  0.40329 0.49723 0.24964 0.92185
USER: genes 2 Torsion [C]-CA--N-[C] |==|  0.61667
USER: genes 3 Torsion [N]-C--CA-[N] |==|  0.52799
USER: genes 4 Torsion [C]-CA--N-[H2] |==|  0.14052
USER: genes 5 Torsion [C]-CA--CB-[CG] |==|  0.31498
USER: genes 6 Torsion [CA]-CB--CG-[SD] |==|  0.57475
USER: genes 7 Torsion [CB]-CG--SD-[CE] |==|  0.59021
USER: genes 8 Torsion [N]-CA--CB-[CG] |==|  0.05357
USER: genes 9 Torsion [CA]-CB--CG-[OD1] |==|  0.18227
USER: genes 10 Torsion [N]-CA--C-[N] |==|  0.10322
USER: genes 11 Torsion [N]-CA--C-[O] |==|  0.54544
ROOT
ATOM      1  CA  ASP Y   2      40.156  51.019  38.735  1.00 68.86 LIG 0.19  C 
ENDROOT
BRANCH 1 2
ATOM      2  N   ASP Y   2      39.291  51.023  37.559  1.00 67.90 LIG-0.34  N 
ATOM      3 H    ASP Y   2      38.693  50.406  37.596  1.00 67.90 LIG 0.16  HD
ATOM      4  C   MET Y   1      39.365  51.855  36.522  1.00 66.89 LIG 0.25  C 
ATOM      5 O    MET Y   1      40.250  52.721  36.361  1.00 66.99 LIG-0.27  OA
BRANCH 4 6
ATOM      6  CA  MET Y   1      38.195  51.673  35.537  1.00 65.69 LIG 0.28  C 
BRANCH 6 7
ATOM      7  N   MET Y   1      38.299  52.383  34.236  1.00 65.08 LIG-0.07  N 
ATOM      8 H2   MET Y   1      39.089  52.208  33.865  1.00 65.08 LIG 0.28  HD
ATOM      9 H1   MET Y   1      38.222  53.259  34.369  1.00 65.08 LIG 0.28  HD
ATOM     10 H3   MET Y   1      37.650  52.107  33.694  1.00 65.08 LIG 0.28  HD
ENDBRANCH 6 7
BRANCH 6 11
ATOM     11  CB  MET Y   1      37.912  50.173  35.327  1.00 64.83 LIG 0.05  C 
BRANCH 11 12
ATOM     12  CG  MET Y   1      36.572  49.755  35.876  1.00 63.52 LIG 0.08  C 
BRANCH 12 13
ATOM     13 SD   MET Y   1      36.417  48.047  36.377  1.00 62.62 LIG-0.17  SA
ATOM     14  CE  MET Y   1      34.693  47.770  35.987  1.00 61.34 LIG 0.09  C 
ENDBRANCH 12 13
ENDBRANCH 11 12
ENDBRANCH 6 11
ENDBRANCH 4 6
ENDBRANCH 1 2
BRANCH 1 15
ATOM     15  CB  ASP Y   2      39.386  51.700  39.876  1.00 68.96 LIG 0.15  C 
BRANCH 15 16
ATOM     16  CG  ASP Y   2      37.872  51.737  39.624  1.00 68.92 LIG 0.17  C 
ATOM     17 OD2  ASP Y   2      37.223  52.799  39.485  1.00 65.64 LIG-0.65  OA
ATOM     18 OD1  ASP Y   2      37.236  50.654  39.589  1.00 70.23 LIG-0.65  OA
ENDBRANCH 15 16
ENDBRANCH 1 15
BRANCH 1 19
ATOM     19  C   ASP Y   2      40.552  49.600  39.153  1.00 69.95 LIG 0.24  C 
ATOM     20 O    ASP Y   2      40.684  49.320  40.349  1.00 70.67 LIG-0.27  OA
ATOM     21  N   PRO Y   3      40.782  48.715  38.185  1.00 71.01 LIG-0.34  N 
ATOM     22  CA  PRO Y   3      41.007  47.285  38.486  1.00 71.12 LIG 0.17  C 
ATOM     23  CD  PRO Y   3      40.895  49.027  36.749  1.00 71.07 LIG 0.13  C 
ATOM     24  CB  PRO Y   3      41.063  46.614  37.110  1.00 71.47 LIG 0.04  C 
ATOM     25  CG  PRO Y   3      41.294  47.729  36.111  1.00 71.67 LIG 0.02  C 
BRANCH 22 26
ATOM     26  C   PRO Y   3      42.299  47.011  39.258  1.00 71.77 LIG 0.22  C 
ATOM     27 O    PRO Y   3      42.755  45.862  39.306  1.00 72.45 LIG-0.29  OA
ENDBRANCH 22 26
ENDBRANCH 1 19
TORSDOF 10
ENDMDL
MODEL 14
USER: ADFR SOLUTION from run 77
USER: SCORE 11.926278 LL:  -1.429 LR: -10.633 RR:   0.000 FEB:  -7.650
USER: RMSD 5.467450
USER: SEED 76
USER: STATUS no improvement in best in 9 clusters for 5 generations
USER: GENES 12
USER: genes 0 Translation |==|  0.63013 0.49688 0.36942
USER: genes 1 Rotation |==|  0.82376 0.67673 0.61933 0.81577
USER: genes 2 Torsion [C]-CA--N-[C] |==|  0.56664
USER: genes 3 Torsion [N]-C--CA-[N] |==|  0.97500
USER: genes 4 Torsion [C]-CA--N-[H2] |==|  0.81340
USER: genes 5 Torsion [C]-CA--CB-[CG] |==|  0.26716
USER: genes 6 Torsion [CA]-CB--CG-[SD] |==|  0.61068
USER: genes 7 Torsion [CB]-CG--SD-[CE] |==|  0.72509
USER: genes 8 Torsion [N]-CA--CB-[CG] |==|  0.26226
USER: genes 9 Torsion [CA]-CB--CG-[OD1] |==|  0.74889
USER: genes 10 Torsion [N]-CA--C-[N] |==|  0.45738
USER: genes 11 Torsion [N]-CA--C-[O] |==|  0.72911
ROOT
ATOM      1  CA  ASP Y   2      41.769  51.252  35.277  1.00 68.86 LIG 0.19  C 
ENDROOT
BRANCH 1 2
ATOM      2  N   ASP Y   2      40.344  51.533  35.131  1.00 67.90 LIG-0.34  N 
ATOM      3 H    ASP Y   2      40.186  52.069  34.477  1.00 67.90 LIG 0.16  HD
ATOM      4  C   MET Y   1      39.358  51.050  35.885  1.00 66.89 LIG 0.25  C 
ATOM      5 O    MET Y   1      39.516  50.334  36.896  1.00 66.99 LIG-0.27  OA
BRANCH 4 6
ATOM      6  CA  MET Y   1      37.966  51.431  35.347  1.00 65.69 LIG 0.28  C 
BRANCH 6 7
ATOM      7  N   MET Y   1      37.926  52.417  34.236  1.00 65.08 LIG-0.07  N 
ATOM      8 H2   MET Y   1      38.202  53.210  34.533  1.00 65.08 LIG 0.28  HD
ATOM      9 H1   MET Y   1      37.093  52.489  33.933  1.00 65.08 LIG 0.28  HD
ATOM     10 H3   MET Y   1      38.459  52.145  33.578  1.00 65.08 LIG 0.28  HD
ENDBRANCH 6 7
BRANCH 6 11
ATOM     11  CB  MET Y   1      37.175  50.159  34.986  1.00 64.83 LIG 0.05  C 
BRANCH 11 12
ATOM     12  CG  MET Y   1      36.253  49.719  36.093  1.00 63.52 LIG 0.08  C 
BRANCH 12 13
ATOM     13 SD   MET Y   1      36.145  47.959  36.384  1.00 62.62 LIG-0.17  SA
ATOM     14  CE  MET Y   1      34.633  47.595  35.499  1.00 61.34 LIG 0.09  C 
ENDBRANCH 12 13
ENDBRANCH 11 12
ENDBRANCH 6 11
ENDBRANCH 4 6
ENDBRANCH 1 2
BRANCH 1 15
ATOM     15  CB  ASP Y   2      42.055  49.926  34.556  1.00 68.96 LIG 0.15  C 
BRANCH 15 16
ATOM     16  CG  ASP Y   2      42.531  50.134  33.111  1.00 68.92 LIG 0.17  C 
ATOM     17 OD2  ASP Y   2      43.733  50.303  32.800  1.00 65.64 LIG-0.65  OA
ATOM     18 OD1  ASP Y   2      41.678  50.174  32.190  1.00 70.23 LIG-0.65  OA
ENDBRANCH 15 16
ENDBRANCH 1 15
BRANCH 1 19
ATOM     19  C   ASP Y   2      42.639  52.362  34.681  1.00 69.95 LIG 0.24  C 
ATOM     20 O    ASP Y   2      42.151  53.174  33.887  1.00 70.67 LIG-0.27  OA
ATOM     21  N   PRO Y   3      43.927  52.385  35.020  1.00 71.01 LIG-0.34  N 
ATOM     22  CA  PRO Y   3      44.807  53.507  34.630  1.00 71.12 LIG 0.17  C 
ATOM     23  CD  PRO Y   3      44.639  51.320  35.749  1.00 71.07 LIG 0.13  C 
ATOM     24  CB  PRO Y   3      46.129  53.217  35.349  1.00 71.47 LIG 0.04  C 
ATOM     25  CG  PRO Y   3      46.073  51.758  35.751  1.00 71.67 LIG 0.02  C 
BRANCH 22 26
ATOM     26  C   PRO Y   3      45.041  53.615  33.122  1.00 71.77 LIG 0.22  C 
ATOM     27 O    PRO Y   3      46.066  53.134  32.623  1.00 72.45 LIG-0.29  OA
ENDBRANCH 22 26
ENDBRANCH 1 19
TORSDOF 10
ENDMDL
MODEL 15
USER: ADFR SOLUTION from run 96
USER: SCORE 11.820939 LL:  -1.478 LR: -10.498 RR:   0.000 FEB:  -7.515
USER: RMSD 5.709573
USER: SEED 95
USER: STATUS no improvement in best in 11 clusters for 5 generations
USER: GENES 12
USER: genes 0 Translation |==|  0.59910 0.40221 0.38993
USER: genes 1 Rotation |==|  0.13038 0.66425 0.20907 0.54196
USER: genes 2 Torsion [C]-CA--N-[C] |==|  0.79988
USER: genes 3 Torsion [N]-C--CA-[N] |==|  0.17739
USER: genes 4 Torsion [C]-CA--N-[H2] |==|  0.91252
USER: genes 5 Torsion [C]-CA--CB-[CG] |==|  0.26841
USER: genes 6 Torsion [CA]-CB--CG-[SD] |==|  0.76269
USER: genes 7 Torsion [CB]-CG--SD-[CE] |==|  0.52247
USER: genes 8 Torsion [N]-CA--CB-[CG] |==|  0.73282
USER: genes 9 Torsion [CA]-CB--CG-[OD1] |==|  0.03868
USER: genes 10 Torsion [N]-CA--C-[N] |==|  0.32300
USER: genes 11 Torsion [N]-CA--C-[O] |==|  0.58614
ROOT
ATOM      1  CA  ASP Y   2      41.211  49.832  35.585  1.00 68.86 LIG 0.19  C 
ENDROOT
BRANCH 1 2
ATOM      2  N   ASP Y   2      40.136  50.820  35.606  1.00 67.90 LIG-0.34  N 
ATOM      3 H    ASP Y   2      40.428  51.618  35.475  1.00 67.90 LIG 0.16  HD
ATOM      4  C   MET Y   1      38.840  50.579  35.800  1.00 66.89 LIG 0.25  C 
ATOM      5 O    MET Y   1      38.354  49.462  36.075  1.00 66.99 LIG-0.27  OA
BRANCH 4 6
ATOM      6  CA  MET Y   1      37.973  51.836  35.601  1.00 65.69 LIG 0.28  C 
BRANCH 6 7
ATOM      7  N   MET Y   1      37.953  52.424  34.236  1.00 65.08 LIG-0.07  N 
ATOM      8 H2   MET Y   1      38.738  52.283  33.841  1.00 65.08 LIG 0.28  HD
ATOM      9 H1   MET Y   1      37.802  53.299  34.292  1.00 65.08 LIG 0.28  HD
ATOM     10 H3   MET Y   1      37.307  52.042  33.758  1.00 65.08 LIG 0.28  HD
ENDBRANCH 6 7
BRANCH 6 11
ATOM     11  CB  MET Y   1      36.543  51.575  36.111  1.00 64.83 LIG 0.05  C 
BRANCH 11 12
ATOM     12  CG  MET Y   1      36.330  52.078  37.515  1.00 63.52 LIG 0.08  C 
BRANCH 12 13
ATOM     13 SD   MET Y   1      36.802  50.971  38.836  1.00 62.62 LIG-0.17  SA
ATOM     14  CE  MET Y   1      36.149  51.872  40.237  1.00 61.34 LIG 0.09  C 
ENDBRANCH 12 13
ENDBRANCH 11 12
ENDBRANCH 6 11
ENDBRANCH 4 6
ENDBRANCH 1 2
BRANCH 1 15
ATOM     15  CB  ASP Y   2      42.460  50.523  35.018  1.00 68.96 LIG 0.15  C 
BRANCH 15 16
ATOM     16  CG  ASP Y   2      42.638  50.274  33.514  1.00 68.92 LIG 0.17  C 
ATOM     17 OD2  ASP Y   2      43.687  50.553  32.889  1.00 65.64 LIG-0.65  OA
ATOM     18 OD1  ASP Y   2      41.677  49.799  32.859  1.00 70.23 LIG-0.65  OA
ENDBRANCH 15 16
ENDBRANCH 1 15
BRANCH 1 19
ATOM     19  C   ASP Y   2      41.514  49.281  36.981  1.00 69.95 LIG 0.24  C 
ATOM     20 O    ASP Y   2      41.976  50.023  37.854  1.00 70.67 LIG-0.27  OA
ATOM     21  N   PRO Y   3      41.299  47.983  37.190  1.00 71.01 LIG-0.34  N 
ATOM     22  CA  PRO Y   3      41.404  47.393  38.542  1.00 71.12 LIG 0.17  C 
ATOM     23  CD  PRO Y   3      40.996  46.986  36.147  1.00 71.07 LIG 0.13  C 
ATOM     24  CB  PRO Y   3      40.927  45.948  38.360  1.00 71.47 LIG 0.04  C 
ATOM     25  CG  PRO Y   3      40.986  45.673  36.872  1.00 71.67 LIG 0.02  C 
BRANCH 22 26
ATOM     26  C   PRO Y   3      42.821  47.410  39.117  1.00 71.77 LIG 0.22  C 
ATOM     27 O    PRO Y   3      43.182  46.515  39.890  1.00 72.45 LIG-0.29  OA
ENDBRANCH 22 26
ENDBRANCH 1 19
TORSDOF 10
ENDMDL
MODEL 16
USER: ADFR SOLUTION from run 83
USER: SCORE 11.455044 LL:  -1.337 LR: -10.479 RR:   0.000 FEB:  -7.496
USER: RMSD 4.588268
USER: SEED 82
USER: STATUS searching
USER: GENES 12
USER: genes 0 Translation |==|  0.63889 0.51574 0.36324
USER: genes 1 Rotation |==|  0.91581 0.56109 0.76872 0.53410
USER: genes 2 Torsion [C]-CA--N-[C] |==|  0.83933
USER: genes 3 Torsion [N]-C--CA-[N] |==|  0.92592
USER: genes 4 Torsion [C]-CA--N-[H2] |==|  0.50053
USER: genes 5 Torsion [C]-CA--CB-[CG] |==|  0.32503
USER: genes 6 Torsion [CA]-CB--CG-[SD] |==|  0.59280
USER: genes 7 Torsion [CB]-CG--SD-[CE] |==|  0.64981
USER: genes 8 Torsion [N]-CA--CB-[CG] |==|  0.74272
USER: genes 9 Torsion [CA]-CB--CG-[OD1] |==|  0.01525
USER: genes 10 Torsion [N]-CA--C-[N] |==|  0.31706
USER: genes 11 Torsion [N]-CA--C-[O] |==|  0.80136
ROOT
ATOM      1  CA  ASP Y   2      41.927  51.535  35.185  1.00 68.86 LIG 0.19  C 
ENDROOT
BRANCH 1 2
ATOM      2  N   ASP Y   2      40.482  51.667  35.021  1.00 67.90 LIG-0.34  N 
ATOM      3 H    ASP Y   2      40.272  51.982  34.249  1.00 67.90 LIG 0.16  HD
ATOM      4  C   MET Y   1      39.550  51.354  35.919  1.00 66.89 LIG 0.25  C 
ATOM      5 O    MET Y   1      39.780  50.969  37.085  1.00 66.99 LIG-0.27  OA
BRANCH 4 6
ATOM      6  CA  MET Y   1      38.123  51.472  35.351  1.00 65.69 LIG 0.28  C 
BRANCH 6 7
ATOM      7  N   MET Y   1      37.927  52.431  34.233  1.00 65.08 LIG-0.07  N 
ATOM      8 H2   MET Y   1      37.072  52.425  33.983  1.00 65.08 LIG 0.28  HD
ATOM      9 H1   MET Y   1      38.438  52.194  33.545  1.00 65.08 LIG 0.28  HD
ATOM     10 H3   MET Y   1      38.150  53.250  34.501  1.00 65.08 LIG 0.28  HD
ENDBRANCH 6 7
BRANCH 6 11
ATOM     11  CB  MET Y   1      37.585  50.077  34.984  1.00 64.83 LIG 0.05  C 
BRANCH 11 12
ATOM     12  CG  MET Y   1      36.376  49.691  35.795  1.00 63.52 LIG 0.08  C 
BRANCH 12 13
ATOM     13 SD   MET Y   1      36.203  47.955  36.187  1.00 62.62 LIG-0.17  SA
ATOM     14  CE  MET Y   1      34.551  47.666  35.564  1.00 61.34 LIG 0.09  C 
ENDBRANCH 12 13
ENDBRANCH 11 12
ENDBRANCH 6 11
ENDBRANCH 4 6
ENDBRANCH 1 2
BRANCH 1 15
ATOM     15  CB  ASP Y   2      42.585  52.056  33.898  1.00 68.96 LIG 0.15  C 
BRANCH 15 16
ATOM     16  CG  ASP Y   2      42.840  50.940  32.875  1.00 68.92 LIG 0.17  C 
ATOM     17 OD2  ASP Y   2      43.425  51.128  31.783  1.00 65.64 LIG-0.65  OA
ATOM     18 OD1  ASP Y   2      42.413  49.784  33.118  1.00 70.23 LIG-0.65  OA
ENDBRANCH 15 16
ENDBRANCH 1 15
BRANCH 1 19
ATOM     19  C   ASP Y   2      42.445  52.328  36.388  1.00 69.95 LIG 0.24  C 
ATOM     20 O    ASP Y   2      42.417  53.563  36.376  1.00 70.67 LIG-0.27  OA
ATOM     21  N   PRO Y   3      42.953  51.637  37.407  1.00 71.01 LIG-0.34  N 
ATOM     22  CA  PRO Y   3      43.326  52.298  38.676  1.00 71.12 LIG 0.17  C 
ATOM     23  CD  PRO Y   3      43.256  50.195  37.398  1.00 71.07 LIG 0.13  C 
ATOM     24  CB  PRO Y   3      43.701  51.141  39.608  1.00 71.47 LIG 0.04  C 
ATOM     25  CG  PRO Y   3      43.933  49.942  38.712  1.00 71.67 LIG 0.02  C 
BRANCH 22 26
ATOM     26  C   PRO Y   3      44.499  53.271  38.546  1.00 71.77 LIG 0.22  C 
ATOM     27 O    PRO Y   3      45.642  52.835  38.366  1.00 72.45 LIG-0.29  OA
ENDBRANCH 22 26
ENDBRANCH 1 19
TORSDOF 10
ENDMDL
MODEL 17
USER: ADFR SOLUTION from run 162
USER: SCORE 11.553435 LL:  -1.411 LR: -10.359 RR:   0.000 FEB:  -7.376
USER: RMSD 4.116830
USER: SEED 161
USER: STATUS no improvement in best in 8 clusters for 5 generations
USER: GENES 12
USER: genes 0 Translation |==|  0.46593 0.51394 0.62750
USER: genes 1 Rotation |==|  0.32184 0.42142 0.09505 0.71931
USER: genes 2 Torsion [C]-CA--N-[C] |==|  0.53982
USER: genes 3 Torsion [N]-C--CA-[N] |==|  0.43636
USER: genes 4 Torsion [C]-CA--N-[H2] |==|  0.15531
USER: genes 5 Torsion [C]-CA--CB-[CG] |==|  0.25877
USER: genes 6 Torsion [CA]-CB--CG-[SD] |==|  0.57705
USER: genes 7 Torsion [CB]-CG--SD-[CE] |==|  0.66316
USER: genes 8 Torsion [N]-CA--CB-[CG] |==|  0.27141
USER: genes 9 Torsion [CA]-CB--CG-[OD1] |==|  0.82326
USER: genes 10 Torsion [N]-CA--C-[N] |==|  0.47778
USER: genes 11 Torsion [N]-CA--C-[O] |==|  0.34711
ROOT
ATOM      1  CA  ASP Y   2      38.814  51.508  39.148  1.00 68.86 LIG 0.19  C 
ENDROOT
BRANCH 1 2
ATOM      2  N   ASP Y   2      38.219  51.405  37.819  1.00 67.90 LIG-0.34  N 
ATOM      3 H    ASP Y   2      37.392  51.169  37.853  1.00 67.90 LIG 0.16  HD
ATOM      4  C   MET Y   1      38.827  51.635  36.657  1.00 66.89 LIG 0.25  C 
ATOM      5 O    MET Y   1      40.040  51.902  36.525  1.00 66.99 LIG-0.27  OA
BRANCH 4 6
ATOM      6  CA  MET Y   1      37.854  51.585  35.464  1.00 65.69 LIG 0.28  C 
BRANCH 6 7
ATOM      7  N   MET Y   1      38.264  52.314  34.236  1.00 65.08 LIG-0.07  N 
ATOM      8 H2   MET Y   1      39.061  52.020  33.969  1.00 65.08 LIG 0.28  HD
ATOM      9 H1   MET Y   1      38.313  53.185  34.410  1.00 65.08 LIG 0.28  HD
ATOM     10 H3   MET Y   1      37.666  52.173  33.593  1.00 65.08 LIG 0.28  HD
ENDBRANCH 6 7
BRANCH 6 11
ATOM     11  CB  MET Y   1      37.489  50.123  35.144  1.00 64.83 LIG 0.05  C 
BRANCH 11 12
ATOM     12  CG  MET Y   1      36.230  49.675  35.840  1.00 63.52 LIG 0.08  C 
BRANCH 12 13
ATOM     13 SD   MET Y   1      36.099  47.929  36.199  1.00 62.62 LIG-0.17  SA
ATOM     14  CE  MET Y   1      34.597  47.547  35.305  1.00 61.34 LIG 0.09  C 
ENDBRANCH 12 13
ENDBRANCH 11 12
ENDBRANCH 6 11
ENDBRANCH 4 6
ENDBRANCH 1 2
BRANCH 1 15
ATOM     15  CB  ASP Y   2      38.976  53.002  39.466  1.00 68.96 LIG 0.15  C 
BRANCH 15 16
ATOM     16  CG  ASP Y   2      37.830  53.548  40.330  1.00 68.92 LIG 0.17  C 
ATOM     17 OD2  ASP Y   2      37.988  53.963  41.501  1.00 65.64 LIG-0.65  OA
ATOM     18 OD1  ASP Y   2      36.665  53.549  39.861  1.00 70.23 LIG-0.65  OA
ENDBRANCH 15 16
ENDBRANCH 1 15
BRANCH 1 19
ATOM     19  C   ASP Y   2      37.946  50.844  40.221  1.00 69.95 LIG 0.24  C 
ATOM     20 O    ASP Y   2      36.801  50.468  39.948  1.00 70.67 LIG-0.27  OA
ATOM     21  N   PRO Y   3      38.460  50.729  41.445  1.00 71.01 LIG-0.34  N 
ATOM     22  CA  PRO Y   3      37.769  49.959  42.501  1.00 71.12 LIG 0.17  C 
ATOM     23  CD  PRO Y   3      39.701  51.370  41.915  1.00 71.07 LIG 0.13  C 
ATOM     24  CB  PRO Y   3      38.762  49.948  43.669  1.00 71.47 LIG 0.04  C 
ATOM     25  CG  PRO Y   3      39.759  51.050  43.380  1.00 71.67 LIG 0.02  C 
BRANCH 22 26
ATOM     26  C   PRO Y   3      36.441  50.573  42.947  1.00 71.77 LIG 0.22  C 
ATOM     27 O    PRO Y   3      35.408  49.894  42.912  1.00 72.45 LIG-0.29  OA
ENDBRANCH 22 26
ENDBRANCH 1 19
TORSDOF 10
ENDMDL
MODEL 18
USER: ADFR SOLUTION from run 121
USER: SCORE 10.788104 LL:  -0.948 LR: -10.346 RR:   0.000 FEB:  -7.363
USER: RMSD 5.367362
USER: SEED 120
USER: STATUS no improvement in best in 7 clusters for 5 generations
USER: GENES 12
USER: genes 0 Translation |==|  0.65153 0.54835 0.45720
USER: genes 1 Rotation |==|  0.68529 0.67097 0.61890 0.91509
USER: genes 2 Torsion [C]-CA--N-[C] |==|  0.64444
USER: genes 3 Torsion [N]-C--CA-[N] |==|  0.84247
USER: genes 4 Torsion [C]-CA--N-[H2] |==|  0.47363
USER: genes 5 Torsion [C]-CA--CB-[CG] |==|  0.39342
USER: genes 6 Torsion [CA]-CB--CG-[SD] |==|  0.54220
USER: genes 7 Torsion [CB]-CG--SD-[CE] |==|  0.56055
USER: genes 8 Torsion [N]-CA--CB-[CG] |==|  0.51710
USER: genes 9 Torsion [CA]-CB--CG-[OD1] |==|  0.30205
USER: genes 10 Torsion [N]-CA--C-[N] |==|  0.82853
USER: genes 11 Torsion [N]-CA--C-[O] |==|  0.50388
ROOT
ATOM      1  CA  ASP Y   2      42.155  52.024  36.594  1.00 68.86 LIG 0.19  C 
ENDROOT
BRANCH 1 2
ATOM      2  N   ASP Y   2      40.837  51.935  35.970  1.00 67.90 LIG-0.34  N 
ATOM      3 H    ASP Y   2      40.878  51.602  35.178  1.00 67.90 LIG 0.16  HD
ATOM      4  C   MET Y   1      39.677  52.306  36.508  1.00 66.89 LIG 0.25  C 
ATOM      5 O    MET Y   1      39.550  52.868  37.616  1.00 66.99 LIG-0.27  OA
BRANCH 4 6
ATOM      6  CA  MET Y   1      38.472  51.921  35.629  1.00 65.69 LIG 0.28  C 
BRANCH 6 7
ATOM      7  N   MET Y   1      38.471  52.436  34.235  1.00 65.08 LIG-0.07  N 
ATOM      8 H2   MET Y   1      37.813  52.050  33.777  1.00 65.08 LIG 0.28  HD
ATOM      9 H1   MET Y   1      39.250  52.250  33.849  1.00 65.08 LIG 0.28  HD
ATOM     10 H3   MET Y   1      38.349  53.317  34.244  1.00 65.08 LIG 0.28  HD
ENDBRANCH 6 7
BRANCH 6 11
ATOM     11  CB  MET Y   1      38.267  50.395  35.655  1.00 64.83 LIG 0.05  C 
BRANCH 11 12
ATOM     12  CG  MET Y   1      36.811  50.008  35.677  1.00 63.52 LIG 0.08  C 
BRANCH 12 13
ATOM     13 SD   MET Y   1      36.446  48.317  36.127  1.00 62.62 LIG-0.17  SA
ATOM     14  CE  MET Y   1      34.821  48.152  35.397  1.00 61.34 LIG 0.09  C 
ENDBRANCH 12 13
ENDBRANCH 11 12
ENDBRANCH 6 11
ENDBRANCH 4 6
ENDBRANCH 1 2
BRANCH 1 15
ATOM     15  CB  ASP Y   2      42.632  50.591  36.871  1.00 68.96 LIG 0.15  C 
BRANCH 15 16
ATOM     16  CG  ASP Y   2      43.945  50.552  37.666  1.00 68.92 LIG 0.17  C 
ATOM     17 OD2  ASP Y   2      45.058  50.843  37.171  1.00 65.64 LIG-0.65  OA
ATOM     18 OD1  ASP Y   2      43.918  50.175  38.864  1.00 70.23 LIG-0.65  OA
ENDBRANCH 15 16
ENDBRANCH 1 15
BRANCH 1 19
ATOM     19  C   ASP Y   2      43.168  52.743  35.699  1.00 69.95 LIG 0.24  C 
ATOM     20 O    ASP Y   2      43.669  53.812  36.062  1.00 70.67 LIG-0.27  OA
ATOM     21  N   PRO Y   3      43.447  52.191  34.519  1.00 71.01 LIG-0.34  N 
ATOM     22  CA  PRO Y   3      44.528  52.717  33.658  1.00 71.12 LIG 0.17  C 
ATOM     23  CD  PRO Y   3      42.715  51.068  33.905  1.00 71.07 LIG 0.13  C 
ATOM     24  CB  PRO Y   3      44.613  51.712  32.504  1.00 71.47 LIG 0.04  C 
ATOM     25  CG  PRO Y   3      43.320  50.925  32.540  1.00 71.67 LIG 0.02  C 
BRANCH 22 26
ATOM     26  C   PRO Y   3      44.259  54.121  33.114  1.00 71.77 LIG 0.22  C 
ATOM     27 O    PRO Y   3      45.081  54.656  32.361  1.00 72.45 LIG-0.29  OA
ENDBRANCH 22 26
ENDBRANCH 1 19
TORSDOF 10
ENDMDL
MODEL 19
USER: ADFR SOLUTION from run 2
USER: SCORE 11.624289 LL:  -1.394 LR: -10.319 RR:   0.000 FEB:  -7.336
USER: RMSD 5.547872
USER: SEED 322425
USER: STATUS no improvement in best in 11 clusters for 5 generations
USER: GENES 12
USER: genes 0 Translation |==|  0.44616 0.49132 0.60318
USER: genes 1 Rotation |==|  0.60098 0.48957 0.98571 0.56149
USER: genes 2 Torsion [C]-CA--N-[C] |==|  0.76115
USER: genes 3 Torsion [N]-C--CA-[N] |==|  0.74026
USER: genes 4 Torsion [C]-CA--N-[H2] |==|  0.52208
USER: genes 5 Torsion [C]-CA--CB-[CG] |==|  0.21776
USER: genes 6 Torsion [CA]-CB--CG-[SD] |==|  0.30537
USER: genes 7 Torsion [CB]-CG--SD-[CE] |==|  0.13779
USER: genes 8 Torsion [N]-CA--CB-[CG] |==|  0.22719
USER: genes 9 Torsion [CA]-CB--CG-[OD1] |==|  0.76109
USER: genes 10 Torsion [N]-CA--C-[N] |==|  0.46787
USER: genes 11 Torsion [N]-CA--C-[O] |==|  0.12254
ROOT
ATOM      1  CA  ASP Y   2      38.458  51.169  38.784  1.00 68.86 LIG 0.19  C 
ENDROOT
BRANCH 1 2
ATOM      2  N   ASP Y   2      38.662  51.469  37.369  1.00 67.90 LIG-0.34  N 
ATOM      3 H    ASP Y   2      39.213  52.119  37.254  1.00 67.90 LIG 0.16  HD
ATOM      4  C   MET Y   1      38.093  50.850  36.337  1.00 66.89 LIG 0.25  C 
ATOM      5 O    MET Y   1      37.225  49.956  36.428  1.00 66.99 LIG-0.27  OA
BRANCH 4 6
ATOM      6  CA  MET Y   1      38.658  51.323  34.984  1.00 65.69 LIG 0.28  C 
BRANCH 6 7
ATOM      7  N   MET Y   1      37.927  52.423  34.302  1.00 65.08 LIG-0.07  N 
ATOM      8 H2   MET Y   1      38.262  52.540  33.486  1.00 65.08 LIG 0.28  HD
ATOM      9 H1   MET Y   1      38.017  53.174  34.770  1.00 65.08 LIG 0.28  HD
ATOM     10 H3   MET Y   1      37.065  52.213  34.241  1.00 65.08 LIG 0.28  HD
ENDBRANCH 6 7
BRANCH 6 11
ATOM     11  CB  MET Y   1      40.154  51.659  35.127  1.00 64.83 LIG 0.05  C 
BRANCH 11 12
ATOM     12  CG  MET Y   1      41.025  50.430  35.135  1.00 63.52 LIG 0.08  C 
BRANCH 12 13
ATOM     13 SD   MET Y   1      42.053  50.174  33.696  1.00 62.62 LIG-0.17  SA
ATOM     14  CE  MET Y   1      42.803  51.793  33.566  1.00 61.34 LIG 0.09  C 
ENDBRANCH 12 13
ENDBRANCH 11 12
ENDBRANCH 6 11
ENDBRANCH 4 6
ENDBRANCH 1 2
BRANCH 1 15
ATOM     15  CB  ASP Y   2      39.725  51.606  39.534  1.00 68.96 LIG 0.15  C 
BRANCH 15 16
ATOM     16  CG  ASP Y   2      39.738  53.111  39.838  1.00 68.92 LIG 0.17  C 
ATOM     17 OD2  ASP Y   2      39.298  53.602  40.903  1.00 65.64 LIG-0.65  OA
ATOM     18 OD1  ASP Y   2      40.177  53.902  38.967  1.00 70.23 LIG-0.65  OA
ENDBRANCH 15 16
ENDBRANCH 1 15
BRANCH 1 19
ATOM     19  C   ASP Y   2      37.240  51.898  39.358  1.00 69.95 LIG 0.24  C 
ATOM     20 O    ASP Y   2      36.712  52.818  38.724  1.00 70.67 LIG-0.27  OA
ATOM     21  N   PRO Y   3      36.812  51.527  40.563  1.00 71.01 LIG-0.34  N 
ATOM     22  CA  PRO Y   3      35.552  52.054  41.130  1.00 71.12 LIG 0.17  C 
ATOM     23  CD  PRO Y   3      37.527  50.626  41.485  1.00 71.07 LIG 0.13  C 
ATOM     24  CB  PRO Y   3      35.360  51.260  42.426  1.00 71.47 LIG 0.04  C 
ATOM     25  CG  PRO Y   3      36.708  50.646  42.742  1.00 71.67 LIG 0.02  C 
BRANCH 22 26
ATOM     26  C   PRO Y   3      35.588  53.553  41.431  1.00 71.77 LIG 0.22  C 
ATOM     27 O    PRO Y   3      36.079  54.334  40.608  1.00 72.45 LIG-0.29  OA
ENDBRANCH 22 26
ENDBRANCH 1 19
TORSDOF 10
ENDMDL
MODEL 20
USER: ADFR SOLUTION from run 63
USER: SCORE 10.875940 LL:  -0.989 LR: -10.307 RR:   0.000 FEB:  -7.324
USER: RMSD 3.475452
USER: SEED 62
USER: STATUS no improvement in best in 7 clusters for 5 generations
USER: GENES 12
USER: genes 0 Translation |==|  0.52442 0.58687 0.56327
USER: genes 1 Rotation |==|  0.63960 0.57795 0.73498 0.91136
USER: genes 2 Torsion [C]-CA--N-[C] |==|  0.66595
USER: genes 3 Torsion [N]-C--CA-[N] |==|  0.83002
USER: genes 4 Torsion [C]-CA--N-[H2] |==|  0.63052
USER: genes 5 Torsion [C]-CA--CB-[CG] |==|  0.18737
USER: genes 6 Torsion [CA]-CB--CG-[SD] |==|  0.36304
USER: genes 7 Torsion [CB]-CG--SD-[CE] |==|  0.69718
USER: genes 8 Torsion [N]-CA--CB-[CG] |==|  0.72958
USER: genes 9 Torsion [CA]-CB--CG-[OD1] |==|  0.10290
USER: genes 10 Torsion [N]-CA--C-[N] |==|  0.86540
USER: genes 11 Torsion [N]-CA--C-[O] |==|  0.64622
ROOT
ATOM      1  CA  ASP Y   2      39.866  52.602  38.185  1.00 68.86 LIG 0.19  C 
ENDROOT
BRANCH 1 2
ATOM      2  N   ASP Y   2      39.119  52.270  36.975  1.00 67.90 LIG-0.34  N 
ATOM      3 H    ASP Y   2      39.635  52.003  36.340  1.00 67.90 LIG 0.16  HD
ATOM      4  C   MET Y   1      37.800  52.347  36.810  1.00 66.89 LIG 0.25  C 
ATOM      5 O    MET Y   1      36.999  52.798  37.656  1.00 66.99 LIG-0.27  OA
BRANCH 4 6
ATOM      6  CA  MET Y   1      37.342  51.768  35.459  1.00 65.69 LIG 0.28  C 
BRANCH 6 7
ATOM      7  N   MET Y   1      37.873  52.424  34.236  1.00 65.08 LIG-0.07  N 
ATOM      8 H2   MET Y   1      37.206  52.570  33.665  1.00 65.08 LIG 0.28  HD
ATOM      9 H1   MET Y   1      38.479  51.896  33.855  1.00 65.08 LIG 0.28  HD
ATOM     10 H3   MET Y   1      38.251  53.199  34.455  1.00 65.08 LIG 0.28  HD
ENDBRANCH 6 7
BRANCH 6 11
ATOM     11  CB  MET Y   1      37.593  50.249  35.425  1.00 64.83 LIG 0.05  C 
BRANCH 11 12
ATOM     12  CG  MET Y   1      36.716  49.496  36.391  1.00 63.52 LIG 0.08  C 
BRANCH 12 13
ATOM     13 SD   MET Y   1      35.845  48.080  35.736  1.00 62.62 LIG-0.17  SA
ATOM     14  CE  MET Y   1      34.175  48.723  35.736  1.00 61.34 LIG 0.09  C 
ENDBRANCH 12 13
ENDBRANCH 11 12
ENDBRANCH 6 11
ENDBRANCH 4 6
ENDBRANCH 1 2
BRANCH 1 15
ATOM     15  CB  ASP Y   2      40.589  51.327  38.645  1.00 68.96 LIG 0.15  C 
BRANCH 15 16
ATOM     16  CG  ASP Y   2      39.821  50.581  39.746  1.00 68.92 LIG 0.17  C 
ATOM     17 OD2  ASP Y   2      40.383  49.966  40.682  1.00 65.64 LIG-0.65  OA
ATOM     18 OD1  ASP Y   2      38.567  50.549  39.696  1.00 70.23 LIG-0.65  OA
ENDBRANCH 15 16
ENDBRANCH 1 15
BRANCH 1 19
ATOM     19  C   ASP Y   2      40.889  53.716  37.943  1.00 69.95 LIG 0.24  C 
ATOM     20 O    ASP Y   2      40.927  54.697  38.693  1.00 70.67 LIG-0.27  OA
ATOM     21  N   PRO Y   3      41.689  53.598  36.884  1.00 71.01 LIG-0.34  N 
ATOM     22  CA  PRO Y   3      42.812  54.532  36.659  1.00 71.12 LIG 0.17  C 
ATOM     23  CD  PRO Y   3      41.542  52.602  35.807  1.00 71.07 LIG 0.13  C 
ATOM     24  CB  PRO Y   3      43.552  53.948  35.451  1.00 71.47 LIG 0.04  C 
ATOM     25  CG  PRO Y   3      42.588  52.978  34.800  1.00 71.67 LIG 0.02  C 
BRANCH 22 26
ATOM     26  C   PRO Y   3      42.374  55.968  36.363  1.00 71.77 LIG 0.22  C 
ATOM     27 O    PRO Y   3      42.802  56.546  35.358  1.00 72.45 LIG-0.29  OA
ENDBRANCH 22 26
ENDBRANCH 1 19
TORSDOF 10
ENDMDL
MODEL 21
USER: ADFR SOLUTION from run 166
USER: SCORE 11.565481 LL:  -1.452 LR: -10.300 RR:   0.000 FEB:  -7.317
USER: RMSD 2.976433
USER: SEED 165
USER: STATUS no improvement in best in 10 clusters for 5 generations
USER: GENES 12
USER: genes 0 Translation |==|  0.40672 0.56304 0.63002
USER: genes 1 Rotation |==|  0.43468 0.38117 0.29828 0.93694
USER: genes 2 Torsion [C]-CA--N-[C] |==|  0.75419
USER: genes 3 Torsion [N]-C--CA-[N] |==|  0.41836
USER: genes 4 Torsion [C]-CA--N-[H2] |==|  0.54750
USER: genes 5 Torsion [C]-CA--CB-[CG] |==|  0.24305
USER: genes 6 Torsion [CA]-CB--CG-[SD] |==|  0.58262
USER: genes 7 Torsion [CB]-CG--SD-[CE] |==|  0.64704
USER: genes 8 Torsion [N]-CA--CB-[CG] |==|  0.63322
USER: genes 9 Torsion [CA]-CB--CG-[OD1] |==|  0.87150
USER: genes 10 Torsion [N]-CA--C-[N] |==|  0.28148
USER: genes 11 Torsion [N]-CA--C-[O] |==|  0.48083
ROOT
ATOM      1  CA  ASP Y   2      37.748  52.245  39.186  1.00 68.86 LIG 0.19  C 
ENDROOT
BRANCH 1 2
ATOM      2  N   ASP Y   2      37.484  51.928  37.786  1.00 67.90 LIG-0.34  N 
ATOM      3 H    ASP Y   2      36.672  51.672  37.660  1.00 67.90 LIG 0.16  HD
ATOM      4  C   MET Y   1      38.351  52.004  36.778  1.00 66.89 LIG 0.25  C 
ATOM      5 O    MET Y   1      39.561  52.288  36.895  1.00 66.99 LIG-0.27  OA
BRANCH 4 6
ATOM      6  CA  MET Y   1      37.687  51.747  35.411  1.00 65.69 LIG 0.28  C 
BRANCH 6 7
ATOM      7  N   MET Y   1      38.295  52.424  34.236  1.00 65.08 LIG-0.07  N 
ATOM      8 H2   MET Y   1      37.717  52.420  33.559  1.00 65.08 LIG 0.28  HD
ATOM      9 H1   MET Y   1      39.035  51.993  33.995  1.00 65.08 LIG 0.28  HD
ATOM     10 H3   MET Y   1      38.497  53.264  34.449  1.00 65.08 LIG 0.28  HD
ENDBRANCH 6 7
BRANCH 6 11
ATOM     11  CB  MET Y   1      37.552  50.233  35.168  1.00 64.83 LIG 0.05  C 
BRANCH 11 12
ATOM     12  CG  MET Y   1      36.275  49.668  35.735  1.00 63.52 LIG 0.08  C 
BRANCH 12 13
ATOM     13 SD   MET Y   1      36.328  47.963  36.267  1.00 62.62 LIG-0.17  SA
ATOM     14  CE  MET Y   1      34.928  47.317  35.360  1.00 61.34 LIG 0.09  C 
ENDBRANCH 12 13
ENDBRANCH 11 12
ENDBRANCH 6 11
ENDBRANCH 4 6
ENDBRANCH 1 2
BRANCH 1 15
ATOM     15  CB  ASP Y   2      36.427  52.723  39.807  1.00 68.96 LIG 0.15  C 
BRANCH 15 16
ATOM     16  CG  ASP Y   2      36.591  54.021  40.611  1.00 68.92 LIG 0.17  C 
ATOM     17 OD2  ASP Y   2      35.835  55.011  40.483  1.00 65.64 LIG-0.65  OA
ATOM     18 OD1  ASP Y   2      37.551  54.119  41.415  1.00 70.23 LIG-0.65  OA
ENDBRANCH 15 16
ENDBRANCH 1 15
BRANCH 1 19
ATOM     19  C   ASP Y   2      38.274  51.033  39.961  1.00 69.95 LIG 0.24  C 
ATOM     20 O    ASP Y   2      37.490  50.175  40.378  1.00 70.67 LIG-0.27  OA
ATOM     21  N   PRO Y   3      39.585  50.973  40.194  1.00 71.01 LIG-0.34  N 
ATOM     22  CA  PRO Y   3      40.208  49.771  40.786  1.00 71.12 LIG 0.17  C 
ATOM     23  CD  PRO Y   3      40.547  52.065  39.958  1.00 71.07 LIG 0.13  C 
ATOM     24  CB  PRO Y   3      41.712  50.057  40.726  1.00 71.47 LIG 0.04  C 
ATOM     25  CG  PRO Y   3      41.844  51.550  40.507  1.00 71.67 LIG 0.02  C 
BRANCH 22 26
ATOM     26  C   PRO Y   3      39.781  49.499  42.229  1.00 71.77 LIG 0.22  C 
ATOM     27 O    PRO Y   3      40.134  48.454  42.789  1.00 72.45 LIG-0.29  OA
ENDBRANCH 22 26
ENDBRANCH 1 19
TORSDOF 10
ENDMDL
MODEL 22
USER: ADFR SOLUTION from run 91
USER: SCORE 11.258849 LL:  -1.175 LR: -10.300 RR:   0.000 FEB:  -7.317
USER: RMSD 4.502432
USER: SEED 90
USER: STATUS no improvement in best in 14 clusters for 5 generations
USER: GENES 12
USER: genes 0 Translation |==|  0.57305 0.37531 0.48112
USER: genes 1 Rotation |==|  0.79274 0.56402 0.63744 0.87592
USER: genes 2 Torsion [C]-CA--N-[C] |==|  0.84080
USER: genes 3 Torsion [N]-C--CA-[N] |==|  0.68348
USER: genes 4 Torsion [C]-CA--N-[H2] |==|  0.43520
USER: genes 5 Torsion [C]-CA--CB-[CG] |==|  0.27694
USER: genes 6 Torsion [CA]-CB--CG-[SD] |==|  0.60314
USER: genes 7 Torsion [CB]-CG--SD-[CE] |==|  0.68652
USER: genes 8 Torsion [N]-CA--CB-[CG] |==|  0.63199
USER: genes 9 Torsion [CA]-CB--CG-[OD1] |==|  0.89302
USER: genes 10 Torsion [N]-CA--C-[N] |==|  0.85557
USER: genes 11 Torsion [N]-CA--C-[O] |==|  0.69365
ROOT
ATOM      1  CA  ASP Y   2      40.742  49.429  36.953  1.00 68.86 LIG 0.19  C 
ENDROOT
BRANCH 1 2
ATOM      2  N   ASP Y   2      39.644  50.001  36.178  1.00 67.90 LIG-0.34  N 
ATOM      3 H    ASP Y   2      39.296  49.427  35.640  1.00 67.90 LIG 0.16  HD
ATOM      4  C   MET Y   1      39.189  51.250  36.249  1.00 66.89 LIG 0.25  C 
ATOM      5 O    MET Y   1      39.693  52.156  36.944  1.00 66.99 LIG-0.27  OA
BRANCH 4 6
ATOM      6  CA  MET Y   1      37.919  51.462  35.404  1.00 65.69 LIG 0.28  C 
BRANCH 6 7
ATOM      7  N   MET Y   1      38.038  52.373  34.236  1.00 65.08 LIG-0.07  N 
ATOM      8 H2   MET Y   1      37.404  52.179  33.642  1.00 65.08 LIG 0.28  HD
ATOM      9 H1   MET Y   1      38.837  52.271  33.860  1.00 65.08 LIG 0.28  HD
ATOM     10 H3   MET Y   1      37.942  53.215  34.506  1.00 65.08 LIG 0.28  HD
ENDBRANCH 6 7
BRANCH 6 11
ATOM     11  CB  MET Y   1      37.332  50.101  34.985  1.00 64.83 LIG 0.05  C 
BRANCH 11 12
ATOM     12  CG  MET Y   1      36.177  49.677  35.854  1.00 63.52 LIG 0.08  C 
BRANCH 12 13
ATOM     13 SD   MET Y   1      36.061  47.933  36.227  1.00 62.62 LIG-0.17  SA
ATOM     14  CE  MET Y   1      34.563  47.529  35.336  1.00 61.34 LIG 0.09  C 
ENDBRANCH 12 13
ENDBRANCH 11 12
ENDBRANCH 6 11
ENDBRANCH 4 6
ENDBRANCH 1 2
BRANCH 1 15
ATOM     15  CB  ASP Y   2      40.928  47.977  36.486  1.00 68.96 LIG 0.15  C 
BRANCH 15 16
ATOM     16  CG  ASP Y   2      41.038  46.992  37.659  1.00 68.92 LIG 0.17  C 
ATOM     17 OD2  ASP Y   2      40.493  45.864  37.663  1.00 65.64 LIG-0.65  OA
ATOM     18 OD1  ASP Y   2      41.673  47.338  38.685  1.00 70.23 LIG-0.65  OA
ENDBRANCH 15 16
ENDBRANCH 1 15
BRANCH 1 19
ATOM     19  C   ASP Y   2      42.048  50.205  36.761  1.00 69.95 LIG 0.24  C 
ATOM     20 O    ASP Y   2      42.665  50.634  37.741  1.00 70.67 LIG-0.27  OA
ATOM     21  N   PRO Y   3      42.455  50.424  35.511  1.00 71.01 LIG-0.34  N 
ATOM     22  CA  PRO Y   3      43.779  51.017  35.225  1.00 71.12 LIG 0.17  C 
ATOM     23  CD  PRO Y   3      41.660  50.174  34.295  1.00 71.07 LIG 0.13  C 
ATOM     24  CB  PRO Y   3      43.905  50.941  33.700  1.00 71.47 LIG 0.04  C 
ATOM     25  CG  PRO Y   3      42.502  50.713  33.177  1.00 71.67 LIG 0.02  C 
BRANCH 22 26
ATOM     26  C   PRO Y   3      43.923  52.466  35.693  1.00 71.77 LIG 0.22  C 
ATOM     27 O    PRO Y   3      43.994  53.377  34.860  1.00 72.45 LIG-0.29  OA
ENDBRANCH 22 26
ENDBRANCH 1 19
TORSDOF 10
ENDMDL
MODEL 23
USER: ADFR SOLUTION from run 85
USER: SCORE 11.128272 LL:  -1.426 LR: -10.200 RR:   0.000 FEB:  -7.217
USER: RMSD 5.235175
USER: SEED 84
USER: STATUS no improvement in best in 11 clusters for 5 generations
USER: GENES 12
USER: genes 0 Translation |==|  0.64279 0.42300 0.47862
USER: genes 1 Rotation |==|  0.21652 0.60455 0.17872 0.73556
USER: genes 2 Torsion [C]-CA--N-[C] |==|  0.62305
USER: genes 3 Torsion [N]-C--CA-[N] |==|  0.37434
USER: genes 4 Torsion [C]-CA--N-[H2] |==|  0.00244
USER: genes 5 Torsion [C]-CA--CB-[CG] |==|  0.28480
USER: genes 6 Torsion [CA]-CB--CG-[SD] |==|  0.59617
USER: genes 7 Torsion [CB]-CG--SD-[CE] |==|  0.78403
USER: genes 8 Torsion [N]-CA--CB-[CG] |==|  0.57917
USER: genes 9 Torsion [CA]-CB--CG-[OD1] |==|  0.61886
USER: genes 10 Torsion [N]-CA--C-[N] |==|  0.19145
USER: genes 11 Torsion [N]-CA--C-[O] |==|  0.34188
ROOT
ATOM      1  CA  ASP Y   2      41.997  50.144  36.915  1.00 68.86 LIG 0.19  C 
ENDROOT
BRANCH 1 2
ATOM      2  N   ASP Y   2      40.655  50.547  36.505  1.00 67.90 LIG-0.34  N 
ATOM      3 H    ASP Y   2      40.136  50.675  37.180  1.00 67.90 LIG 0.16  HD
ATOM      4  C   MET Y   1      40.223  50.714  35.257  1.00 66.89 LIG 0.25  C 
ATOM      5 O    MET Y   1      40.891  50.471  34.230  1.00 66.99 LIG-0.27  OA
BRANCH 4 6
ATOM      6  CA  MET Y   1      38.798  51.296  35.201  1.00 65.69 LIG 0.28  C 
BRANCH 6 7
ATOM      7  N   MET Y   1      38.565  52.402  34.236  1.00 65.08 LIG-0.07  N 
ATOM      8 H2   MET Y   1      39.319  52.574  33.794  1.00 65.08 LIG 0.28  HD
ATOM      9 H1   MET Y   1      38.308  53.131  34.676  1.00 65.08 LIG 0.28  HD
ATOM     10 H3   MET Y   1      37.931  52.165  33.660  1.00 65.08 LIG 0.28  HD
ENDBRANCH 6 7
BRANCH 6 11
ATOM     11  CB  MET Y   1      37.774  50.163  35.001  1.00 64.83 LIG 0.05  C 
BRANCH 11 12
ATOM     12  CG  MET Y   1      37.056  49.801  36.275  1.00 63.52 LIG 0.08  C 
BRANCH 12 13
ATOM     13 SD   MET Y   1      36.632  48.078  36.486  1.00 62.62 LIG-0.17  SA
ATOM     14  CE  MET Y   1      35.202  47.982  35.416  1.00 61.34 LIG 0.09  C 
ENDBRANCH 12 13
ENDBRANCH 11 12
ENDBRANCH 6 11
ENDBRANCH 4 6
ENDBRANCH 1 2
BRANCH 1 15
ATOM     15  CB  ASP Y   2      42.721  51.400  37.423  1.00 68.96 LIG 0.15  C 
BRANCH 15 16
ATOM     16  CG  ASP Y   2      44.242  51.322  37.229  1.00 68.92 LIG 0.17  C 
ATOM     17 OD2  ASP Y   2      44.781  50.854  36.200  1.00 65.64 LIG-0.65  OA
ATOM     18 OD1  ASP Y   2      44.993  51.709  38.158  1.00 70.23 LIG-0.65  OA
ENDBRANCH 15 16
ENDBRANCH 1 15
BRANCH 1 19
ATOM     19  C   ASP Y   2      41.968  49.083  38.019  1.00 69.95 LIG 0.24  C 
ATOM     20 O    ASP Y   2      42.378  49.355  39.152  1.00 70.67 LIG-0.27  OA
ATOM     21  N   PRO Y   3      41.526  47.869  37.695  1.00 71.01 LIG-0.34  N 
ATOM     22  CA  PRO Y   3      41.305  46.829  38.722  1.00 71.12 LIG 0.17  C 
ATOM     23  CD  PRO Y   3      41.261  47.393  36.325  1.00 71.07 LIG 0.13  C 
ATOM     24  CB  PRO Y   3      40.654  45.673  37.955  1.00 71.47 LIG 0.04  C 
ATOM     25  CG  PRO Y   3      40.927  45.939  36.489  1.00 71.67 LIG 0.02  C 
BRANCH 22 26
ATOM     26  C   PRO Y   3      42.588  46.351  39.404  1.00 71.77 LIG 0.22  C 
ATOM     27 O    PRO Y   3      42.696  46.428  40.634  1.00 72.45 LIG-0.29  OA
ENDBRANCH 22 26
ENDBRANCH 1 19
TORSDOF 10
ENDMDL
MODEL 24
USER: ADFR SOLUTION from run 166
USER: SCORE 11.195940 LL:  -1.568 LR: -10.115 RR:   0.000 FEB:  -7.132
USER: RMSD 6.613430
USER: SEED 165
USER: STATUS no improvement in best in 10 clusters for 5 generations
USER: GENES 12
USER: genes 0 Translation |==|  0.35402 0.49745 0.52562
USER: genes 1 Rotation |==|  0.63921 0.35796 0.05687 0.61866
USER: genes 2 Torsion [C]-CA--N-[C] |==|  0.14928
USER: genes 3 Torsion [N]-C--CA-[N] |==|  0.60021
USER: genes 4 Torsion [C]-CA--N-[H2] |==|  0.92426
USER: genes 5 Torsion [C]-CA--CB-[CG] |==|  0.26209
USER: genes 6 Torsion [CA]-CB--CG-[SD] |==|  0.59781
USER: genes 7 Torsion [CB]-CG--SD-[CE] |==|  0.46225
USER: genes 8 Torsion [N]-CA--CB-[CG] |==|  0.69811
USER: genes 9 Torsion [CA]-CB--CG-[OD1] |==|  0.45807
USER: genes 10 Torsion [N]-CA--C-[N] |==|  0.18856
USER: genes 11 Torsion [N]-CA--C-[O] |==|  0.74990
ROOT
ATOM      1  CA  ASP Y   2      36.799  51.261  37.620  1.00 68.86 LIG 0.19  C 
ENDROOT
BRANCH 1 2
ATOM      2  N   ASP Y   2      37.983  51.445  36.785  1.00 67.90 LIG-0.34  N 
ATOM      3 H    ASP Y   2      38.675  51.054  37.115  1.00 67.90 LIG 0.16  HD
ATOM      4  C   MET Y   1      38.050  52.124  35.642  1.00 66.89 LIG 0.25  C 
ATOM      5 O    MET Y   1      37.112  52.781  35.144  1.00 66.99 LIG-0.27  OA
BRANCH 4 6
ATOM      6  CA  MET Y   1      39.418  51.977  34.950  1.00 65.69 LIG 0.28  C 
BRANCH 6 7
ATOM      7  N   MET Y   1      39.940  53.174  34.240  1.00 65.08 LIG-0.07  N 
ATOM      8 H2   MET Y   1      39.258  53.680  33.971  1.00 65.08 LIG 0.28  HD
ATOM      9 H1   MET Y   1      40.414  52.916  33.533  1.00 65.08 LIG 0.28  HD
ATOM     10 H3   MET Y   1      40.459  53.643  34.789  1.00 65.08 LIG 0.28  HD
ENDBRANCH 6 7
BRANCH 6 11
ATOM     11  CB  MET Y   1      40.457  51.431  35.948  1.00 64.83 LIG 0.05  C 
BRANCH 11 12
ATOM     12  CG  MET Y   1      40.594  49.932  35.877  1.00 63.52 LIG 0.08  C 
BRANCH 12 13
ATOM     13 SD   MET Y   1      40.912  49.089  37.421  1.00 62.62 LIG-0.17  SA
ATOM     14  CE  MET Y   1      40.582  47.404  36.921  1.00 61.34 LIG 0.09  C 
ENDBRANCH 12 13
ENDBRANCH 11 12
ENDBRANCH 6 11
ENDBRANCH 4 6
ENDBRANCH 1 2
BRANCH 1 15
ATOM     15  CB  ASP Y   2      36.423  52.634  38.196  1.00 68.96 LIG 0.15  C 
BRANCH 15 16
ATOM     16  CG  ASP Y   2      36.715  52.741  39.699  1.00 68.92 LIG 0.17  C 
ATOM     17 OD2  ASP Y   2      36.907  51.747  40.436  1.00 65.64 LIG-0.65  OA
ATOM     18 OD1  ASP Y   2      36.729  53.877  40.236  1.00 70.23 LIG-0.65  OA
ENDBRANCH 15 16
ENDBRANCH 1 15
BRANCH 1 19
ATOM     19  C   ASP Y   2      35.619  50.692  36.828  1.00 69.95 LIG 0.24  C 
ATOM     20 O    ASP Y   2      34.603  51.373  36.653  1.00 70.67 LIG-0.27  OA
ATOM     21  N   PRO Y   3      35.723  49.440  36.383  1.00 71.01 LIG-0.34  N 
ATOM     22  CA  PRO Y   3      34.712  48.860  35.473  1.00 71.12 LIG 0.17  C 
ATOM     23  CD  PRO Y   3      36.778  48.482  36.760  1.00 71.07 LIG 0.13  C 
ATOM     24  CB  PRO Y   3      35.292  47.495  35.088  1.00 71.47 LIG 0.04  C 
ATOM     25  CG  PRO Y   3      36.367  47.194  36.111  1.00 71.67 LIG 0.02  C 
BRANCH 22 26
ATOM     26  C   PRO Y   3      33.333  48.685  36.111  1.00 71.77 LIG 0.22  C 
ATOM     27 O    PRO Y   3      33.053  47.628  36.690  1.00 72.45 LIG-0.29  OA
ENDBRANCH 22 26
ENDBRANCH 1 19
TORSDOF 10
ENDMDL
MODEL 25
USER: ADFR SOLUTION from run 92
USER: SCORE 11.585272 LL:  -1.538 LR: -10.096 RR:   0.000 FEB:  -7.113
USER: RMSD 3.333535
USER: SEED 91
USER: STATUS no improvement in best in 11 clusters for 5 generations
USER: GENES 12
USER: genes 0 Translation |==|  0.47853 0.55364 0.64274
USER: genes 1 Rotation |==|  0.46136 0.53622 0.29889 0.95470
USER: genes 2 Torsion [C]-CA--N-[C] |==|  0.15113
USER: genes 3 Torsion [N]-C--CA-[N] |==|  0.09537
USER: genes 4 Torsion [C]-CA--N-[H2] |==|  0.37555
USER: genes 5 Torsion [C]-CA--CB-[CG] |==|  0.81264
USER: genes 6 Torsion [CA]-CB--CG-[SD] |==|  0.35809
USER: genes 7 Torsion [CB]-CG--SD-[CE] |==|  0.20645
USER: genes 8 Torsion [N]-CA--CB-[CG] |==|  0.86550
USER: genes 9 Torsion [CA]-CB--CG-[OD1] |==|  0.67253
USER: genes 10 Torsion [N]-CA--C-[N] |==|  0.12217
USER: genes 11 Torsion [N]-CA--C-[O] |==|  0.45306
ROOT
ATOM      1  CA  ASP Y   2      39.041  52.104  39.377  1.00 68.86 LIG 0.19  C 
ENDROOT
BRANCH 1 2
ATOM      2  N   ASP Y   2      38.095  52.266  38.276  1.00 67.90 LIG-0.34  N 
ATOM      3 H    ASP Y   2      38.253  52.977  37.818  1.00 67.90 LIG 0.16  HD
ATOM      4  C   MET Y   1      37.089  51.451  37.966  1.00 66.89 LIG 0.25  C 
ATOM      5 O    MET Y   1      36.751  50.448  38.630  1.00 66.99 LIG-0.27  OA
BRANCH 4 6
ATOM      6  CA  MET Y   1      36.395  51.847  36.650  1.00 65.69 LIG 0.28  C 
BRANCH 6 7
ATOM      7  N   MET Y   1      37.259  52.424  35.587  1.00 65.08 LIG-0.07  N 
ATOM      8 H2   MET Y   1      37.055  52.052  34.804  1.00 65.08 LIG 0.28  HD
ATOM      9 H1   MET Y   1      38.113  52.262  35.778  1.00 65.08 LIG 0.28  HD
ATOM     10 H3   MET Y   1      37.127  53.303  35.541  1.00 65.08 LIG 0.28  HD
ENDBRANCH 6 7
BRANCH 6 11
ATOM     11  CB  MET Y   1      35.572  50.662  36.111  1.00 64.83 LIG 0.05  C 
BRANCH 11 12
ATOM     12  CG  MET Y   1      36.437  49.513  35.664  1.00 63.52 LIG 0.08  C 
BRANCH 12 13
ATOM     13 SD   MET Y   1      36.019  47.902  36.318  1.00 62.62 LIG-0.17  SA
ATOM     14  CE  MET Y   1      34.552  47.555  35.355  1.00 61.34 LIG 0.09  C 
ENDBRANCH 12 13
ENDBRANCH 11 12
ENDBRANCH 6 11
ENDBRANCH 4 6
ENDBRANCH 1 2
BRANCH 1 15
ATOM     15  CB  ASP Y   2      38.252  52.252  40.687  1.00 68.96 LIG 0.15  C 
BRANCH 15 16
ATOM     16  CG  ASP Y   2      37.347  53.491  40.691  1.00 68.92 LIG 0.17  C 
ATOM     17 OD2  ASP Y   2      36.426  53.674  39.861  1.00 65.64 LIG-0.65  OA
ATOM     18 OD1  ASP Y   2      37.552  54.391  41.543  1.00 70.23 LIG-0.65  OA
ENDBRANCH 15 16
ENDBRANCH 1 15
BRANCH 1 19
ATOM     19  C   ASP Y   2      39.735  50.739  39.343  1.00 69.95 LIG 0.24  C 
ATOM     20 O    ASP Y   2      39.904  50.103  40.388  1.00 70.67 LIG-0.27  OA
ATOM     21  N   PRO Y   3      40.173  50.301  38.164  1.00 71.01 LIG-0.34  N 
ATOM     22  CA  PRO Y   3      40.705  48.931  38.000  1.00 71.12 LIG 0.17  C 
ATOM     23  CD  PRO Y   3      40.240  51.098  36.926  1.00 71.07 LIG 0.13  C 
ATOM     24  CB  PRO Y   3      40.934  48.793  36.491  1.00 71.47 LIG 0.04  C 
ATOM     25  CG  PRO Y   3      40.929  50.203  35.938  1.00 71.67 LIG 0.02  C 
BRANCH 22 26
ATOM     26  C   PRO Y   3      42.012  48.681  38.755  1.00 71.77 LIG 0.22  C 
ATOM     27 O    PRO Y   3      42.391  47.522  38.960  1.00 72.45 LIG-0.29  OA
ENDBRANCH 22 26
ENDBRANCH 1 19
TORSDOF 10
ENDMDL
MODEL 26
USER: ADFR SOLUTION from run 54
USER: SCORE 10.416045 LL:  -1.482 LR: -10.016 RR:   0.000 FEB:  -7.033
USER: RMSD 5.585677
USER: SEED 53
USER: STATUS no improvement in best in 11 clusters for 5 generations
USER: GENES 12
USER: genes 0 Translation |==|  0.63555 0.65879 0.36500
USER: genes 1 Rotation |==|  0.26526 0.60997 0.39422 0.91426
USER: genes 2 Torsion [C]-CA--N-[C] |==|  0.23859
USER: genes 3 Torsion [N]-C--CA-[N] |==|  0.89526
USER: genes 4 Torsion [C]-CA--N-[H2] |==|  0.24029
USER: genes 5 Torsion [C]-CA--CB-[CG] |==|  0.99544
USER: genes 6 Torsion [CA]-CB--CG-[SD] |==|  0.36149
USER: genes 7 Torsion [CB]-CG--SD-[CE] |==|  0.60828
USER: genes 8 Torsion [N]-CA--CB-[CG] |==|  0.57081
USER: genes 9 Torsion [CA]-CB--CG-[OD1] |==|  0.06917
USER: genes 10 Torsion [N]-CA--C-[N] |==|  0.33607
USER: genes 11 Torsion [N]-CA--C-[O] |==|  0.58177
ROOT
ATOM      1  CA  ASP Y   2      41.867  53.681  35.211  1.00 68.86 LIG 0.19  C 
ENDROOT
BRANCH 1 2
ATOM      2  N   ASP Y   2      40.566  53.037  35.055  1.00 67.90 LIG-0.34  N 
ATOM      3 H    ASP Y   2      40.338  52.965  34.228  1.00 67.90 LIG 0.16  HD
ATOM      4  C   MET Y   1      39.778  52.592  36.032  1.00 66.89 LIG 0.25  C 
ATOM      5 O    MET Y   1      40.003  52.732  37.252  1.00 66.99 LIG-0.27  OA
BRANCH 4 6
ATOM      6  CA  MET Y   1      38.553  51.826  35.497  1.00 65.69 LIG 0.28  C 
BRANCH 6 7
ATOM      7  N   MET Y   1      37.928  52.350  34.255  1.00 65.08 LIG-0.07  N 
ATOM      8 H2   MET Y   1      38.342  52.007  33.546  1.00 65.08 LIG 0.28  HD
ATOM      9 H1   MET Y   1      37.998  53.237  34.239  1.00 65.08 LIG 0.28  HD
ATOM     10 H3   MET Y   1      37.068  52.121  34.236  1.00 65.08 LIG 0.28  HD
ENDBRANCH 6 7
BRANCH 6 11
ATOM     11  CB  MET Y   1      38.888  50.329  35.357  1.00 64.83 LIG 0.05  C 
BRANCH 11 12
ATOM     12  CG  MET Y   1      40.313  50.017  35.736  1.00 63.52 LIG 0.08  C 
BRANCH 12 13
ATOM     13 SD   MET Y   1      40.553  48.670  36.885  1.00 62.62 LIG-0.17  SA
ATOM     14  CE  MET Y   1      41.879  49.347  37.876  1.00 61.34 LIG 0.09  C 
ENDBRANCH 12 13
ENDBRANCH 11 12
ENDBRANCH 6 11
ENDBRANCH 4 6
ENDBRANCH 1 2
BRANCH 1 15
ATOM     15  CB  ASP Y   2      41.813  54.523  36.494  1.00 68.96 LIG 0.15  C 
BRANCH 15 16
ATOM     16  CG  ASP Y   2      42.804  55.696  36.470  1.00 68.92 LIG 0.17  C 
ATOM     17 OD2  ASP Y   2      43.239  56.251  37.505  1.00 65.64 LIG-0.65  OA
ATOM     18 OD1  ASP Y   2      43.177  56.153  35.361  1.00 70.23 LIG-0.65  OA
ENDBRANCH 15 16
ENDBRANCH 1 15
BRANCH 1 19
ATOM     19  C   ASP Y   2      43.006  52.662  35.309  1.00 69.95 LIG 0.24  C 
ATOM     20 O    ASP Y   2      43.025  51.840  36.231  1.00 70.67 LIG-0.27  OA
ATOM     21  N   PRO Y   3      43.974  52.731  34.396  1.00 71.01 LIG-0.34  N 
ATOM     22  CA  PRO Y   3      45.025  51.695  34.308  1.00 71.12 LIG 0.17  C 
ATOM     23  CD  PRO Y   3      44.160  53.826  33.427  1.00 71.07 LIG 0.13  C 
ATOM     24  CB  PRO Y   3      45.815  52.066  33.049  1.00 71.47 LIG 0.04  C 
ATOM     25  CG  PRO Y   3      45.451  53.502  32.736  1.00 71.67 LIG 0.02  C 
BRANCH 22 26
ATOM     26  C   PRO Y   3      45.956  51.653  35.520  1.00 71.77 LIG 0.22  C 
ATOM     27 O    PRO Y   3      47.127  51.277  35.384  1.00 72.45 LIG-0.29  OA
ENDBRANCH 22 26
ENDBRANCH 1 19
TORSDOF 10
ENDMDL
MODEL 27
USER: ADFR SOLUTION from run 89
USER: SCORE 10.607408 LL:  -1.261 LR:  -9.930 RR:   0.000 FEB:  -6.947
USER: RMSD 2.519024
USER: SEED 88
USER: STATUS no improvement in best in 11 clusters for 5 generations
USER: GENES 12
USER: genes 0 Translation |==|  0.48963 0.59943 0.59436
USER: genes 1 Rotation |==|  0.53051 0.47694 0.61573 0.98492
USER: genes 2 Torsion [C]-CA--N-[C] |==|  0.57778
USER: genes 3 Torsion [N]-C--CA-[N] |==|  0.79924
USER: genes 4 Torsion [C]-CA--N-[H2] |==|  0.62542
USER: genes 5 Torsion [C]-CA--CB-[CG] |==|  0.31890
USER: genes 6 Torsion [CA]-CB--CG-[SD] |==|  0.68041
USER: genes 7 Torsion [CB]-CG--SD-[CE] |==|  0.42669
USER: genes 8 Torsion [N]-CA--CB-[CG] |==|  0.79499
USER: genes 9 Torsion [CA]-CB--CG-[OD1] |==|  0.38219
USER: genes 10 Torsion [N]-CA--C-[N] |==|  0.13465
USER: genes 11 Torsion [N]-CA--C-[O] |==|  0.90235
ROOT
ATOM      1  CA  ASP Y   2      39.240  52.791  38.651  1.00 68.86 LIG 0.19  C 
ENDROOT
BRANCH 1 2
ATOM      2  N   ASP Y   2      38.879  52.352  37.306  1.00 67.90 LIG-0.34  N 
ATOM      3 H    ASP Y   2      39.534  51.965  36.906  1.00 67.90 LIG 0.16  HD
ATOM      4  C   MET Y   1      37.696  52.504  36.713  1.00 66.89 LIG 0.25  C 
ATOM      5 O    MET Y   1      36.727  53.124  37.198  1.00 66.99 LIG-0.27  OA
BRANCH 4 6
ATOM      6  CA  MET Y   1      37.623  51.781  35.355  1.00 65.69 LIG 0.28  C 
BRANCH 6 7
ATOM      7  N   MET Y   1      38.395  52.382  34.236  1.00 65.08 LIG-0.07  N 
ATOM      8 H2   MET Y   1      37.890  52.399  33.503  1.00 65.08 LIG 0.28  HD
ATOM      9 H1   MET Y   1      39.123  51.894  34.083  1.00 65.08 LIG 0.28  HD
ATOM     10 H3   MET Y   1      38.634  53.211  34.451  1.00 65.08 LIG 0.28  HD
ENDBRANCH 6 7
BRANCH 6 11
ATOM     11  CB  MET Y   1      37.973  50.292  35.532  1.00 64.83 LIG 0.05  C 
BRANCH 11 12
ATOM     12  CG  MET Y   1      36.808  49.385  35.231  1.00 63.52 LIG 0.08  C 
BRANCH 12 13
ATOM     13 SD   MET Y   1      36.167  48.434  36.602  1.00 62.62 LIG-0.17  SA
ATOM     14  CE  MET Y   1      34.479  48.208  36.054  1.00 61.34 LIG 0.09  C 
ENDBRANCH 12 13
ENDBRANCH 11 12
ENDBRANCH 6 11
ENDBRANCH 4 6
ENDBRANCH 1 2
BRANCH 1 15
ATOM     15  CB  ASP Y   2      38.857  51.663  39.622  1.00 68.96 LIG 0.15  C 
BRANCH 15 16
ATOM     16  CG  ASP Y   2      37.341  51.567  39.842  1.00 68.92 LIG 0.17  C 
ATOM     17 OD2  ASP Y   2      36.609  52.565  40.037  1.00 65.64 LIG-0.65  OA
ATOM     18 OD1  ASP Y   2      36.801  50.434  39.867  1.00 70.23 LIG-0.65  OA
ENDBRANCH 15 16
ENDBRANCH 1 15
BRANCH 1 19
ATOM     19  C   ASP Y   2      40.736  53.093  38.776  1.00 69.95 LIG 0.24  C 
ATOM     20 O    ASP Y   2      41.379  52.659  39.737  1.00 70.67 LIG-0.27  OA
ATOM     21  N   PRO Y   3      41.288  53.864  37.840  1.00 71.01 LIG-0.34  N 
ATOM     22  CA  PRO Y   3      42.750  54.077  37.780  1.00 71.12 LIG 0.17  C 
ATOM     23  CD  PRO Y   3      40.552  54.624  36.813  1.00 71.07 LIG 0.13  C 
ATOM     24  CB  PRO Y   3      42.963  54.871  36.487  1.00 71.47 LIG 0.04  C 
ATOM     25  CG  PRO Y   3      41.606  55.428  36.111  1.00 71.67 LIG 0.02  C 
BRANCH 22 26
ATOM     26  C   PRO Y   3      43.311  54.854  38.973  1.00 71.77 LIG 0.22  C 
ATOM     27 O    PRO Y   3      42.641  55.755  39.489  1.00 72.45 LIG-0.29  OA
ENDBRANCH 22 26
ENDBRANCH 1 19
TORSDOF 10
ENDMDL
MODEL 28
USER: ADFR SOLUTION from run 134
USER: SCORE 11.153163 LL:  -1.382 LR:  -9.878 RR:   0.000 FEB:  -6.895
USER: RMSD 2.564905
USER: SEED 133
USER: STATUS no improvement in best in 15 clusters for 5 generations
USER: GENES 12
USER: genes 0 Translation |==|  0.51390 0.60002 0.62048
USER: genes 1 Rotation |==|  0.45090 0.49709 0.47130 0.99675
USER: genes 2 Torsion [C]-CA--N-[C] |==|  0.83363
USER: genes 3 Torsion [N]-C--CA-[N] |==|  0.44055
USER: genes 4 Torsion [C]-CA--N-[H2] |==|  0.83896
USER: genes 5 Torsion [C]-CA--CB-[CG] |==|  0.41317
USER: genes 6 Torsion [CA]-CB--CG-[SD] |==|  0.61842
USER: genes 7 Torsion [CB]-CG--SD-[CE] |==|  0.53886
USER: genes 8 Torsion [N]-CA--CB-[CG] |==|  0.76032
USER: genes 9 Torsion [CA]-CB--CG-[OD1] |==|  0.70710
USER: genes 10 Torsion [N]-CA--C-[N] |==|  0.86667
USER: genes 11 Torsion [N]-CA--C-[O] |==|  0.84912
ROOT
ATOM      1  CA  ASP Y   2      39.677  52.799  39.043  1.00 68.86 LIG 0.19  C 
ENDROOT
BRANCH 1 2
ATOM      2  N   ASP Y   2      38.967  52.287  37.875  1.00 67.90 LIG-0.34  N 
ATOM      3 H    ASP Y   2      38.254  51.858  38.093  1.00 67.90 LIG 0.16  HD
ATOM      4  C   MET Y   1      39.327  52.430  36.601  1.00 66.89 LIG 0.25  C 
ATOM      5 O    MET Y   1      40.386  52.967  36.213  1.00 66.99 LIG-0.27  OA
BRANCH 4 6
ATOM      6  CA  MET Y   1      38.261  51.898  35.625  1.00 65.69 LIG 0.28  C 
BRANCH 6 7
ATOM      7  N   MET Y   1      38.305  52.424  34.236  1.00 65.08 LIG-0.07  N 
ATOM      8 H2   MET Y   1      38.229  53.311  34.252  1.00 65.08 LIG 0.28  HD
ATOM      9 H1   MET Y   1      37.633  52.078  33.766  1.00 65.08 LIG 0.28  HD
ATOM     10 H3   MET Y   1      39.078  52.199  33.857  1.00 65.08 LIG 0.28  HD
ENDBRANCH 6 7
BRANCH 6 11
ATOM     11  CB  MET Y   1      38.262  50.358  35.633  1.00 64.83 LIG 0.05  C 
BRANCH 11 12
ATOM     12  CG  MET Y   1      36.899  49.777  35.364  1.00 63.52 LIG 0.08  C 
BRANCH 12 13
ATOM     13 SD   MET Y   1      36.411  48.389  36.379  1.00 62.62 LIG-0.17  SA
ATOM     14  CE  MET Y   1      35.001  47.807  35.444  1.00 61.34 LIG 0.09  C 
ENDBRANCH 12 13
ENDBRANCH 11 12
ENDBRANCH 6 11
ENDBRANCH 4 6
ENDBRANCH 1 2
BRANCH 1 15
ATOM     15  CB  ASP Y   2      38.872  52.393  40.286  1.00 68.96 LIG 0.15  C 
BRANCH 15 16
ATOM     16  CG  ASP Y   2      37.766  53.403  40.626  1.00 68.92 LIG 0.17  C 
ATOM     17 OD2  ASP Y   2      36.716  53.527  39.953  1.00 65.64 LIG-0.65  OA
ATOM     18 OD1  ASP Y   2      37.927  54.175  41.604  1.00 70.23 LIG-0.65  OA
ENDBRANCH 15 16
ENDBRANCH 1 15
BRANCH 1 19
ATOM     19  C   ASP Y   2      41.099  52.241  39.144  1.00 69.95 LIG 0.24  C 
ATOM     20 O    ASP Y   2      42.055  53.004  39.316  1.00 70.67 LIG-0.27  OA
ATOM     21  N   PRO Y   3      41.256  50.925  39.000  1.00 71.01 LIG-0.34  N 
ATOM     22  CA  PRO Y   3      42.560  50.273  39.243  1.00 71.12 LIG 0.17  C 
ATOM     23  CD  PRO Y   3      40.216  49.985  38.545  1.00 71.07 LIG 0.13  C 
ATOM     24  CB  PRO Y   3      42.260  48.775  39.128  1.00 71.47 LIG 0.04  C 
ATOM     25  CG  PRO Y   3      40.927  48.670  38.417  1.00 71.67 LIG 0.02  C 
BRANCH 22 26
ATOM     26  C   PRO Y   3      43.647  50.670  38.242  1.00 71.77 LIG 0.22  C 
ATOM     27 O    PRO Y   3      43.442  50.541  37.029  1.00 72.45 LIG-0.29  OA
ENDBRANCH 22 26
ENDBRANCH 1 19
TORSDOF 10
ENDMDL
MODEL 29
USER: ADFR SOLUTION from run 62
USER: SCORE 11.279749 LL:  -1.633 LR:  -9.870 RR:   0.000 FEB:  -6.887
USER: RMSD 5.903704
USER: SEED 61
USER: STATUS searching
USER: GENES 12
USER: genes 0 Translation |==|  0.66392 0.53111 0.36011
USER: genes 1 Rotation |==|  0.60507 0.74202 0.50810 0.92464
USER: genes 2 Torsion [C]-CA--N-[C] |==|  0.57287
USER: genes 3 Torsion [N]-C--CA-[N] |==|  0.81544
USER: genes 4 Torsion [C]-CA--N-[H2] |==|  0.50026
USER: genes 5 Torsion [C]-CA--CB-[CG] |==|  0.15598
USER: genes 6 Torsion [CA]-CB--CG-[SD] |==|  0.68492
USER: genes 7 Torsion [CB]-CG--SD-[CE] |==|  0.39726
USER: genes 8 Torsion [N]-CA--CB-[CG] |==|  0.64808
USER: genes 9 Torsion [CA]-CB--CG-[OD1] |==|  0.74192
USER: genes 10 Torsion [N]-CA--C-[N] |==|  0.40885
USER: genes 11 Torsion [N]-CA--C-[O] |==|  0.53139
ROOT
ATOM      1  CA  ASP Y   2      42.378  51.766  35.138  1.00 68.86 LIG 0.19  C 
ENDROOT
BRANCH 1 2
ATOM      2  N   ASP Y   2      40.925  51.713  35.003  1.00 67.90 LIG-0.34  N 
ATOM      3 H    ASP Y   2      40.682  51.329  34.273  1.00 67.90 LIG 0.16  HD
ATOM      4  C   MET Y   1      40.029  52.183  35.869  1.00 66.89 LIG 0.25  C 
ATOM      5 O    MET Y   1      40.305  52.820  36.907  1.00 66.99 LIG-0.27  OA
BRANCH 4 6
ATOM      6  CA  MET Y   1      38.585  51.814  35.481  1.00 65.69 LIG 0.28  C 
BRANCH 6 7
ATOM      7  N   MET Y   1      38.051  52.425  34.236  1.00 65.08 LIG-0.07  N 
ATOM      8 H2   MET Y   1      37.215  52.149  34.105  1.00 65.08 LIG 0.28  HD
ATOM      9 H1   MET Y   1      38.555  52.179  33.545  1.00 65.08 LIG 0.28  HD
ATOM     10 H3   MET Y   1      38.063  53.311  34.311  1.00 65.08 LIG 0.28  HD
ENDBRANCH 6 7
BRANCH 6 11
ATOM     11  CB  MET Y   1      38.420  50.283  35.461  1.00 64.83 LIG 0.05  C 
BRANCH 11 12
ATOM     12  CG  MET Y   1      38.797  49.643  36.772  1.00 63.52 LIG 0.08  C 
BRANCH 12 13
ATOM     13 SD   MET Y   1      40.241  48.589  36.756  1.00 62.62 LIG-0.17  SA
ATOM     14  CE  MET Y   1      40.927  48.989  38.359  1.00 61.34 LIG 0.09  C 
ENDBRANCH 12 13
ENDBRANCH 11 12
ENDBRANCH 6 11
ENDBRANCH 4 6
ENDBRANCH 1 2
BRANCH 1 15
ATOM     15  CB  ASP Y   2      42.809  50.544  35.963  1.00 68.96 LIG 0.15  C 
BRANCH 15 16
ATOM     16  CG  ASP Y   2      43.672  50.927  37.173  1.00 68.92 LIG 0.17  C 
ATOM     17 OD2  ASP Y   2      43.194  51.276  38.277  1.00 65.64 LIG-0.65  OA
ATOM     18 OD1  ASP Y   2      44.922  50.929  37.051  1.00 70.23 LIG-0.65  OA
ENDBRANCH 15 16
ENDBRANCH 1 15
BRANCH 1 19
ATOM     19  C   ASP Y   2      43.083  51.746  33.779  1.00 69.95 LIG 0.24  C 
ATOM     20 O    ASP Y   2      42.610  51.091  32.844  1.00 70.67 LIG-0.27  OA
ATOM     21  N   PRO Y   3      44.226  52.422  33.668  1.00 71.01 LIG-0.34  N 
ATOM     22  CA  PRO Y   3      44.893  52.600  32.361  1.00 71.12 LIG 0.17  C 
ATOM     23  CD  PRO Y   3      44.982  53.013  34.787  1.00 71.07 LIG 0.13  C 
ATOM     24  CB  PRO Y   3      46.055  53.554  32.658  1.00 71.47 LIG 0.04  C 
ATOM     25  CG  PRO Y   3      46.244  53.527  34.160  1.00 71.67 LIG 0.02  C 
BRANCH 22 26
ATOM     26  C   PRO Y   3      45.422  51.299  31.754  1.00 71.77 LIG 0.22  C 
ATOM     27 O    PRO Y   3      46.176  51.340  30.776  1.00 72.45 LIG-0.29  OA
ENDBRANCH 22 26
ENDBRANCH 1 19
TORSDOF 10
ENDMDL
MODEL 30
USER: ADFR SOLUTION from run 147
USER: SCORE 10.849334 LL:  -1.150 LR:  -9.874 RR:   0.000 FEB:  -6.891
USER: RMSD 7.064984
USER: SEED 146
USER: STATUS no improvement in best in 8 clusters for 5 generations
USER: GENES 12
USER: genes 0 Translation |==|  0.45119 0.49851 0.46658
USER: genes 1 Rotation |==|  0.59281 0.53311 0.02025 0.60064
USER: genes 2 Torsion [C]-CA--N-[C] |==|  0.64992
USER: genes 3 Torsion [N]-C--CA-[N] |==|  0.08365
USER: genes 4 Torsion [C]-CA--N-[H2] |==|  0.73874
USER: genes 5 Torsion [C]-CA--CB-[CG] |==|  0.26501
USER: genes 6 Torsion [CA]-CB--CG-[SD] |==|  0.46588
USER: genes 7 Torsion [CB]-CG--SD-[CE] |==|  0.81904
USER: genes 8 Torsion [N]-CA--CB-[CG] |==|  0.41385
USER: genes 9 Torsion [CA]-CB--CG-[OD1] |==|  0.18021
USER: genes 10 Torsion [N]-CA--C-[N] |==|  0.35028
USER: genes 11 Torsion [N]-CA--C-[O] |==|  0.14276
ROOT
ATOM      1  CA  ASP Y   2      38.548  51.277  36.735  1.00 68.86 LIG 0.19  C 
ENDROOT
BRANCH 1 2
ATOM      2  N   ASP Y   2      39.387  52.094  35.862  1.00 67.90 LIG-0.34  N 
ATOM      3 H    ASP Y   2      39.025  52.855  35.688  1.00 67.90 LIG 0.16  HD
ATOM      4  C   MET Y   1      40.574  51.760  35.362  1.00 66.89 LIG 0.25  C 
ATOM      5 O    MET Y   1      41.123  50.647  35.503  1.00 66.99 LIG-0.27  OA
BRANCH 4 6
ATOM      6  CA  MET Y   1      41.245  52.926  34.611  1.00 65.69 LIG 0.28  C 
BRANCH 6 7
ATOM      7  N   MET Y   1      40.927  54.298  35.086  1.00 65.08 LIG-0.07  N 
ATOM      8 H2   MET Y   1      40.250  54.627  34.611  1.00 65.08 LIG 0.28  HD
ATOM      9 H1   MET Y   1      41.641  54.819  34.986  1.00 65.08 LIG 0.28  HD
ATOM     10 H3   MET Y   1      40.699  54.268  35.946  1.00 65.08 LIG 0.28  HD
ENDBRANCH 6 7
BRANCH 6 11
ATOM     11  CB  MET Y   1      42.767  52.703  34.544  1.00 64.83 LIG 0.05  C 
BRANCH 11 12
ATOM     12  CG  MET Y   1      43.200  52.050  33.258  1.00 63.52 LIG 0.08  C 
BRANCH 12 13
ATOM     13 SD   MET Y   1      44.955  52.049  32.918  1.00 62.62 LIG-0.17  SA
ATOM     14  CE  MET Y   1      45.231  53.807  32.737  1.00 61.34 LIG 0.09  C 
ENDBRANCH 12 13
ENDBRANCH 11 12
ENDBRANCH 6 11
ENDBRANCH 4 6
ENDBRANCH 1 2
BRANCH 1 15
ATOM     15  CB  ASP Y   2      38.490  51.974  38.102  1.00 68.96 LIG 0.15  C 
BRANCH 15 16
ATOM     16  CG  ASP Y   2      37.161  51.727  38.831  1.00 68.92 LIG 0.17  C 
ATOM     17 OD2  ASP Y   2      36.356  52.642  39.122  1.00 65.64 LIG-0.65  OA
ATOM     18 OD1  ASP Y   2      36.873  50.559  39.191  1.00 70.23 LIG-0.65  OA
ENDBRANCH 15 16
ENDBRANCH 1 15
BRANCH 1 19
ATOM     19  C   ASP Y   2      37.131  51.108  36.180  1.00 69.95 LIG 0.24  C 
ATOM     20 O    ASP Y   2      36.447  52.102  35.914  1.00 70.67 LIG-0.27  OA
ATOM     21  N   PRO Y   3      36.669  49.867  36.039  1.00 71.01 LIG-0.34  N 
ATOM     22  CA  PRO Y   3      35.383  49.596  35.361  1.00 71.12 LIG 0.17  C 
ATOM     23  CD  PRO Y   3      37.313  48.649  36.564  1.00 71.07 LIG 0.13  C 
ATOM     24  CB  PRO Y   3      35.317  48.067  35.275  1.00 71.47 LIG 0.04  C 
ATOM     25  CG  PRO Y   3      36.336  47.549  36.268  1.00 71.67 LIG 0.02  C 
BRANCH 22 26
ATOM     26  C   PRO Y   3      34.163  50.133  36.111  1.00 71.77 LIG 0.22  C 
ATOM     27 O    PRO Y   3      34.138  51.313  36.479  1.00 72.45 LIG-0.29  OA
ENDBRANCH 22 26
ENDBRANCH 1 19
TORSDOF 10
ENDMDL
MODEL 31
USER: ADFR SOLUTION from run 27
USER: SCORE 10.919579 LL:  -1.374 LR:  -9.771 RR:   0.000 FEB:  -6.788
USER: RMSD 4.738363
USER: SEED 26
USER: STATUS no improvement in best in 8 clusters for 5 generations
USER: GENES 12
USER: genes 0 Translation |==|  0.65399 0.58357 0.37607
USER: genes 1 Rotation |==|  0.87112 0.67229 0.74744 0.64615
USER: genes 2 Torsion [C]-CA--N-[C] |==|  0.76314
USER: genes 3 Torsion [N]-C--CA-[N] |==|  0.91986
USER: genes 4 Torsion [C]-CA--N-[H2] |==|  0.45997
USER: genes 5 Torsion [C]-CA--CB-[CG] |==|  0.36070
USER: genes 6 Torsion [CA]-CB--CG-[SD] |==|  0.90392
USER: genes 7 Torsion [CB]-CG--SD-[CE] |==|  0.26897
USER: genes 8 Torsion [N]-CA--CB-[CG] |==|  0.83358
USER: genes 9 Torsion [CA]-CB--CG-[OD1] |==|  0.94320
USER: genes 10 Torsion [N]-CA--C-[N] |==|  0.24388
USER: genes 11 Torsion [N]-CA--C-[O] |==|  0.52045
ROOT
ATOM      1  CA  ASP Y   2      42.199  52.553  35.377  1.00 68.86 LIG 0.19  C 
ENDROOT
BRANCH 1 2
ATOM      2  N   ASP Y   2      40.770  52.338  35.166  1.00 67.90 LIG-0.34  N 
ATOM      3 H    ASP Y   2      40.542  52.468  34.347  1.00 67.90 LIG 0.16  HD
ATOM      4  C   MET Y   1      39.876  51.983  36.087  1.00 66.89 LIG 0.25  C 
ATOM      5 O    MET Y   1      40.117  51.855  37.305  1.00 66.99 LIG-0.27  OA
BRANCH 4 6
ATOM      6  CA  MET Y   1      38.490  51.693  35.480  1.00 65.69 LIG 0.28  C 
BRANCH 6 7
ATOM      7  N   MET Y   1      38.139  52.426  34.236  1.00 65.08 LIG-0.07  N 
ATOM      8 H2   MET Y   1      37.429  52.045  33.857  1.00 65.08 LIG 0.28  HD
ATOM      9 H1   MET Y   1      38.826  52.399  33.672  1.00 65.08 LIG 0.28  HD
ATOM     10 H3   MET Y   1      37.951  53.273  34.434  1.00 65.08 LIG 0.28  HD
ENDBRANCH 6 7
BRANCH 6 11
ATOM     11  CB  MET Y   1      38.302  50.175  35.299  1.00 64.83 LIG 0.05  C 
BRANCH 11 12
ATOM     12  CG  MET Y   1      37.002  49.681  35.877  1.00 63.52 LIG 0.08  C 
BRANCH 12 13
ATOM     13 SD   MET Y   1      36.427  50.501  37.357  1.00 62.62 LIG-0.17  SA
ATOM     14  CE  MET Y   1      35.285  51.672  36.633  1.00 61.34 LIG 0.09  C 
ENDBRANCH 12 13
ENDBRANCH 11 12
ENDBRANCH 6 11
ENDBRANCH 4 6
ENDBRANCH 1 2
BRANCH 1 15
ATOM     15  CB  ASP Y   2      42.906  52.297  34.037  1.00 68.96 LIG 0.15  C 
BRANCH 15 16
ATOM     16  CG  ASP Y   2      42.684  50.869  33.519  1.00 68.92 LIG 0.17  C 
ATOM     17 OD2  ASP Y   2      42.797  50.550  32.313  1.00 65.64 LIG-0.65  OA
ATOM     18 OD1  ASP Y   2      42.335  49.976  34.330  1.00 70.23 LIG-0.65  OA
ENDBRANCH 15 16
ENDBRANCH 1 15
BRANCH 1 19
ATOM     19  C   ASP Y   2      42.503  53.974  35.859  1.00 69.95 LIG 0.24  C 
ATOM     20 O    ASP Y   2      42.802  54.854  35.046  1.00 70.67 LIG-0.27  OA
ATOM     21  N   PRO Y   3      42.469  54.199  37.171  1.00 71.01 LIG-0.34  N 
ATOM     22  CA  PRO Y   3      42.585  55.567  37.722  1.00 71.12 LIG 0.17  C 
ATOM     23  CD  PRO Y   3      42.372  53.163  38.216  1.00 71.07 LIG 0.13  C 
ATOM     24  CB  PRO Y   3      42.335  55.391  39.223  1.00 71.47 LIG 0.04  C 
ATOM     25  CG  PRO Y   3      42.515  53.914  39.506  1.00 71.67 LIG 0.02  C 
BRANCH 22 26
ATOM     26  C   PRO Y   3      43.951  56.214  37.488  1.00 71.77 LIG 0.22  C 
ATOM     27 O    PRO Y   3      44.215  57.300  38.018  1.00 72.45 LIG-0.29  OA
ENDBRANCH 22 26
ENDBRANCH 1 19
TORSDOF 10
ENDMDL
MODEL 32
USER: ADFR SOLUTION from run 105
USER: SCORE 11.206856 LL:  -1.554 LR:  -9.775 RR:   0.000 FEB:  -6.792
USER: RMSD 3.811880
USER: SEED 104
USER: STATUS no improvement in best in 10 clusters for 5 generations
USER: GENES 12
USER: genes 0 Translation |==|  0.42159 0.57524 0.59442
USER: genes 1 Rotation |==|  0.52845 0.33032 0.33706 0.94028
USER: genes 2 Torsion [C]-CA--N-[C] |==|  0.13333
USER: genes 3 Torsion [N]-C--CA-[N] |==|  0.82765
USER: genes 4 Torsion [C]-CA--N-[H2] |==|  0.33552
USER: genes 5 Torsion [C]-CA--CB-[CG] |==|  0.21069
USER: genes 6 Torsion [CA]-CB--CG-[SD] |==|  0.35691
USER: genes 7 Torsion [CB]-CG--SD-[CE] |==|  0.11370
USER: genes 8 Torsion [N]-CA--CB-[CG] |==|  0.57515
USER: genes 9 Torsion [CA]-CB--CG-[OD1] |==|  0.16692
USER: genes 10 Torsion [N]-CA--C-[N] |==|  0.14333
USER: genes 11 Torsion [N]-CA--C-[O] |==|  0.45902
ROOT
ATOM      1  CA  ASP Y   2      38.016  52.428  38.652  1.00 68.86 LIG 0.19  C 
ENDROOT
BRANCH 1 2
ATOM      2  N   ASP Y   2      38.241  52.413  37.210  1.00 67.90 LIG-0.34  N 
ATOM      3 H    ASP Y   2      38.532  53.170  36.921  1.00 67.90 LIG 0.16  HD
ATOM      4  C   MET Y   1      38.042  51.387  36.385  1.00 66.89 LIG 0.25  C 
ATOM      5 O    MET Y   1      37.549  50.289  36.717  1.00 66.99 LIG-0.27  OA
BRANCH 4 6
ATOM      6  CA  MET Y   1      38.535  51.678  34.955  1.00 65.69 LIG 0.28  C 
BRANCH 6 7
ATOM      7  N   MET Y   1      37.875  52.799  34.236  1.00 65.08 LIG-0.07  N 
ATOM      8 H2   MET Y   1      38.485  53.408  34.013  1.00 65.08 LIG 0.28  HD
ATOM      9 H1   MET Y   1      37.265  53.172  34.764  1.00 65.08 LIG 0.28  HD
ATOM     10 H3   MET Y   1      37.482  52.490  33.501  1.00 65.08 LIG 0.28  HD
ENDBRANCH 6 7
BRANCH 6 11
ATOM     11  CB  MET Y   1      40.066  51.841  34.949  1.00 64.83 LIG 0.05  C 
BRANCH 11 12
ATOM     12  CG  MET Y   1      40.789  50.524  35.061  1.00 63.52 LIG 0.08  C 
BRANCH 12 13
ATOM     13 SD   MET Y   1      42.050  50.202  33.836  1.00 62.62 LIG-0.17  SA
ATOM     14  CE  MET Y   1      42.808  51.821  33.748  1.00 61.34 LIG 0.09  C 
ENDBRANCH 12 13
ENDBRANCH 11 12
ENDBRANCH 6 11
ENDBRANCH 4 6
ENDBRANCH 1 2
BRANCH 1 15
ATOM     15  CB  ASP Y   2      36.497  52.440  38.881  1.00 68.96 LIG 0.15  C 
BRANCH 15 16
ATOM     16  CG  ASP Y   2      36.108  53.100  40.212  1.00 68.92 LIG 0.17  C 
ATOM     17 OD2  ASP Y   2      35.454  52.514  41.105  1.00 65.64 LIG-0.65  OA
ATOM     18 OD1  ASP Y   2      36.425  54.299  40.410  1.00 70.23 LIG-0.65  OA
ENDBRANCH 15 16
ENDBRANCH 1 15
BRANCH 1 19
ATOM     19  C   ASP Y   2      38.632  51.208  39.344  1.00 69.95 LIG 0.24  C 
ATOM     20 O    ASP Y   2      37.959  50.534  40.130  1.00 70.67 LIG-0.27  OA
ATOM     21  N   PRO Y   3      39.913  50.941  39.093  1.00 71.01 LIG-0.34  N 
ATOM     22  CA  PRO Y   3      40.550  49.698  39.580  1.00 71.12 LIG 0.17  C 
ATOM     23  CD  PRO Y   3      40.848  51.827  38.378  1.00 71.07 LIG 0.13  C 
ATOM     24  CB  PRO Y   3      41.943  49.715  38.942  1.00 71.47 LIG 0.04  C 
ATOM     25  CG  PRO Y   3      42.177  51.140  38.486  1.00 71.67 LIG 0.02  C 
BRANCH 22 26
ATOM     26  C   PRO Y   3      40.670  49.620  41.103  1.00 71.77 LIG 0.22  C 
ATOM     27 O    PRO Y   3      40.926  48.538  41.644  1.00 72.45 LIG-0.29  OA
ENDBRANCH 22 26
ENDBRANCH 1 19
TORSDOF 10
ENDMDL
MODEL 33
USER: ADFR SOLUTION from run 94
USER: SCORE 10.289339 LL:  -1.492 LR:  -9.730 RR:   0.000 FEB:  -6.747
USER: RMSD 5.025514
USER: SEED 93
USER: STATUS no improvement in best in 6 clusters for 5 generations
USER: GENES 12
USER: genes 0 Translation |==|  0.58268 0.42996 0.54844
USER: genes 1 Rotation |==|  0.57201 0.50024 0.21798 0.90655
USER: genes 2 Torsion [C]-CA--N-[C] |==|  0.18433
USER: genes 3 Torsion [N]-C--CA-[N] |==|  0.57863
USER: genes 4 Torsion [C]-CA--N-[H2] |==|  0.92277
USER: genes 5 Torsion [C]-CA--CB-[CG] |==|  0.25414
USER: genes 6 Torsion [CA]-CB--CG-[SD] |==|  0.97654
USER: genes 7 Torsion [CB]-CG--SD-[CE] |==|  0.41655
USER: genes 8 Torsion [N]-CA--CB-[CG] |==|  0.83626
USER: genes 9 Torsion [CA]-CB--CG-[OD1] |==|  0.79618
USER: genes 10 Torsion [N]-CA--C-[N] |==|  0.46465
USER: genes 11 Torsion [N]-CA--C-[O] |==|  0.29531
ROOT
ATOM      1  CA  ASP Y   2      40.915  50.248  37.963  1.00 68.86 LIG 0.19  C 
ENDROOT
BRANCH 1 2
ATOM      2  N   ASP Y   2      40.547  51.045  36.796  1.00 67.90 LIG-0.34  N 
ATOM      3 H    ASP Y   2      41.166  51.600  36.575  1.00 67.90 LIG 0.16  HD
ATOM      4  C   MET Y   1      39.407  50.970  36.111  1.00 66.89 LIG 0.25  C 
ATOM      5 O    MET Y   1      38.435  50.249  36.417  1.00 66.99 LIG-0.27  OA
BRANCH 4 6
ATOM      6  CA  MET Y   1      39.424  51.847  34.844  1.00 65.69 LIG 0.28  C 
BRANCH 6 7
ATOM      7  N   MET Y   1      38.113  52.364  34.373  1.00 65.08 LIG-0.07  N 
ATOM      8 H2   MET Y   1      37.466  51.805  34.622  1.00 65.08 LIG 0.28  HD
ATOM      9 H1   MET Y   1      38.122  52.430  33.486  1.00 65.08 LIG 0.28  HD
ATOM     10 H3   MET Y   1      37.965  53.166  34.729  1.00 65.08 LIG 0.28  HD
ENDBRANCH 6 7
BRANCH 6 11
ATOM     11  CB  MET Y   1      40.443  52.990  35.009  1.00 64.83 LIG 0.05  C 
BRANCH 11 12
ATOM     12  CG  MET Y   1      41.810  52.625  34.492  1.00 63.52 LIG 0.08  C 
BRANCH 12 13
ATOM     13 SD   MET Y   1      42.052  50.917  34.023  1.00 62.62 LIG-0.17  SA
ATOM     14  CE  MET Y   1      43.277  51.126  32.735  1.00 61.34 LIG 0.09  C 
ENDBRANCH 12 13
ENDBRANCH 11 12
ENDBRANCH 6 11
ENDBRANCH 4 6
ENDBRANCH 1 2
BRANCH 1 15
ATOM     15  CB  ASP Y   2      39.797  50.411  39.003  1.00 68.96 LIG 0.15  C 
BRANCH 15 16
ATOM     16  CG  ASP Y   2      39.587  51.875  39.416  1.00 68.92 LIG 0.17  C 
ATOM     17 OD2  ASP Y   2      38.623  52.571  39.020  1.00 65.64 LIG-0.65  OA
ATOM     18 OD1  ASP Y   2      40.438  52.425  40.158  1.00 70.23 LIG-0.65  OA
ENDBRANCH 15 16
ENDBRANCH 1 15
BRANCH 1 19
ATOM     19  C   ASP Y   2      41.088  48.767  37.617  1.00 69.95 LIG 0.24  C 
ATOM     20 O    ASP Y   2      40.662  48.326  36.545  1.00 70.67 LIG-0.27  OA
ATOM     21  N   PRO Y   3      41.670  47.986  38.527  1.00 71.01 LIG-0.34  N 
ATOM     22  CA  PRO Y   3      42.029  46.585  38.223  1.00 71.12 LIG 0.17  C 
ATOM     23  CD  PRO Y   3      41.974  48.372  39.917  1.00 71.07 LIG 0.13  C 
ATOM     24  CB  PRO Y   3      42.806  46.118  39.459  1.00 71.47 LIG 0.04  C 
ATOM     25  CG  PRO Y   3      42.484  47.113  40.554  1.00 71.67 LIG 0.02  C 
BRANCH 22 26
ATOM     26  C   PRO Y   3      40.823  45.674  37.986  1.00 71.77 LIG 0.22  C 
ATOM     27 O    PRO Y   3      40.551  45.300  36.839  1.00 72.45 LIG-0.29  OA
ENDBRANCH 22 26
ENDBRANCH 1 19
TORSDOF 10
ENDMDL
MODEL 34
USER: ADFR SOLUTION from run 89
USER: SCORE 11.198758 LL:  -1.615 LR:  -9.719 RR:   0.000 FEB:  -6.736
USER: RMSD 4.778475
USER: SEED 88
USER: STATUS no improvement in best in 11 clusters for 5 generations
USER: GENES 12
USER: genes 0 Translation |==|  0.55227 0.34544 0.47867
USER: genes 1 Rotation |==|  0.88042 0.35997 0.74669 0.65752
USER: genes 2 Torsion [C]-CA--N-[C] |==|  0.56530
USER: genes 3 Torsion [N]-C--CA-[N] |==|  0.31097
USER: genes 4 Torsion [C]-CA--N-[H2] |==|  0.54927
USER: genes 5 Torsion [C]-CA--CB-[CG] |==|  0.01897
USER: genes 6 Torsion [CA]-CB--CG-[SD] |==|  0.70031
USER: genes 7 Torsion [CB]-CG--SD-[CE] |==|  0.38221
USER: genes 8 Torsion [N]-CA--CB-[CG] |==|  0.07944
USER: genes 9 Torsion [CA]-CB--CG-[OD1] |==|  0.58744
USER: genes 10 Torsion [N]-CA--C-[N] |==|  0.45808
USER: genes 11 Torsion [N]-CA--C-[O] |==|  0.74767
ROOT
ATOM      1  CA  ASP Y   2      40.368  48.981  36.916  1.00 68.86 LIG 0.19  C 
ENDROOT
BRANCH 1 2
ATOM      2  N   ASP Y   2      39.673  50.228  36.611  1.00 67.90 LIG-0.34  N 
ATOM      3 H    ASP Y   2      40.050  50.907  36.982  1.00 67.90 LIG 0.16  HD
ATOM      4  C   MET Y   1      38.584  50.367  35.859  1.00 66.89 LIG 0.25  C 
ATOM      5 O    MET Y   1      37.937  49.424  35.356  1.00 66.99 LIG-0.27  OA
BRANCH 4 6
ATOM      6  CA  MET Y   1      38.216  51.844  35.623  1.00 65.69 LIG 0.28  C 
BRANCH 6 7
ATOM      7  N   MET Y   1      38.367  52.357  34.236  1.00 65.08 LIG-0.07  N 
ATOM      8 H2   MET Y   1      38.384  53.246  34.249  1.00 65.08 LIG 0.28  HD
ATOM      9 H1   MET Y   1      37.681  52.080  33.741  1.00 65.08 LIG 0.28  HD
ATOM     10 H3   MET Y   1      39.126  52.051  33.888  1.00 65.08 LIG 0.28  HD
ENDBRANCH 6 7
BRANCH 6 11
ATOM     11  CB  MET Y   1      36.803  52.128  36.166  1.00 64.83 LIG 0.05  C 
BRANCH 11 12
ATOM     12  CG  MET Y   1      36.227  50.958  36.920  1.00 63.52 LIG 0.08  C 
BRANCH 12 13
ATOM     13 SD   MET Y   1      34.908  50.063  36.111  1.00 62.62 LIG-0.17  SA
ATOM     14  CE  MET Y   1      35.404  48.385  36.486  1.00 61.34 LIG 0.09  C 
ENDBRANCH 12 13
ENDBRANCH 11 12
ENDBRANCH 6 11
ENDBRANCH 4 6
ENDBRANCH 1 2
BRANCH 1 15
ATOM     15  CB  ASP Y   2      41.302  48.673  35.736  1.00 68.96 LIG 0.15  C 
BRANCH 15 16
ATOM     16  CG  ASP Y   2      41.773  49.943  35.013  1.00 68.92 LIG 0.17  C 
ATOM     17 OD2  ASP Y   2      41.907  51.051  35.584  1.00 65.64 LIG-0.65  OA
ATOM     18 OD1  ASP Y   2      42.004  49.890  33.780  1.00 70.23 LIG-0.65  OA
ENDBRANCH 15 16
ENDBRANCH 1 15
BRANCH 1 19
ATOM     19  C   ASP Y   2      41.183  49.076  38.209  1.00 69.95 LIG 0.24  C 
ATOM     20 O    ASP Y   2      41.457  50.181  38.689  1.00 70.67 LIG-0.27  OA
ATOM     21  N   PRO Y   3      41.606  47.938  38.755  1.00 71.01 LIG-0.34  N 
ATOM     22  CA  PRO Y   3      42.255  47.915  40.084  1.00 71.12 LIG 0.17  C 
ATOM     23  CD  PRO Y   3      41.543  46.608  38.121  1.00 71.07 LIG 0.13  C 
ATOM     24  CB  PRO Y   3      42.427  46.424  40.394  1.00 71.47 LIG 0.04  C 
ATOM     25  CG  PRO Y   3      42.266  45.702  39.072  1.00 71.67 LIG 0.02  C 
BRANCH 22 26
ATOM     26  C   PRO Y   3      43.612  48.620  40.122  1.00 71.77 LIG 0.22  C 
ATOM     27 O    PRO Y   3      44.645  47.977  39.899  1.00 72.45 LIG-0.29  OA
ENDBRANCH 22 26
ENDBRANCH 1 19
TORSDOF 10
ENDMDL
MODEL 35
USER: ADFR SOLUTION from run 75
USER: SCORE 10.338743 LL:  -1.099 LR:  -9.710 RR:   0.000 FEB:  -6.727
USER: RMSD 4.985943
USER: SEED 74
USER: STATUS no improvement in best in 7 clusters for 5 generations
USER: GENES 12
USER: genes 0 Translation |==|  0.65760 0.52715 0.37093
USER: genes 1 Rotation |==|  0.94609 0.53965 0.71674 0.54960
USER: genes 2 Torsion [C]-CA--N-[C] |==|  0.64450
USER: genes 3 Torsion [N]-C--CA-[N] |==|  0.21547
USER: genes 4 Torsion [C]-CA--N-[H2] |==|  0.33240
USER: genes 5 Torsion [C]-CA--CB-[CG] |==|  0.19968
USER: genes 6 Torsion [CA]-CB--CG-[SD] |==|  0.26732
USER: genes 7 Torsion [CB]-CG--SD-[CE] |==|  0.42554
USER: genes 8 Torsion [N]-CA--CB-[CG] |==|  0.70198
USER: genes 9 Torsion [CA]-CB--CG-[OD1] |==|  0.08448
USER: genes 10 Torsion [N]-CA--C-[N] |==|  0.84991
USER: genes 11 Torsion [N]-CA--C-[O] |==|  0.85935
ROOT
ATOM      1  CA  ASP Y   2      42.264  51.706  35.300  1.00 68.86 LIG 0.19  C 
ENDROOT
BRANCH 1 2
ATOM      2  N   ASP Y   2      40.849  52.030  35.456  1.00 67.90 LIG-0.34  N 
ATOM      3 H    ASP Y   2      40.712  52.880  35.470  1.00 67.90 LIG 0.16  HD
ATOM      4  C   MET Y   1      39.843  51.164  35.567  1.00 66.89 LIG 0.25  C 
ATOM      5 O    MET Y   1      39.972  49.924  35.634  1.00 66.99 LIG-0.27  OA
BRANCH 4 6
ATOM      6  CA  MET Y   1      38.467  51.856  35.557  1.00 65.69 LIG 0.28  C 
BRANCH 6 7
ATOM      7  N   MET Y   1      37.952  52.298  34.235  1.00 65.08 LIG-0.07  N 
ATOM      8 H2   MET Y   1      37.182  51.887  34.064  1.00 65.08 LIG 0.28  HD
ATOM      9 H1   MET Y   1      38.543  52.095  33.602  1.00 65.08 LIG 0.28  HD
ATOM     10 H3   MET Y   1      37.822  53.178  34.246  1.00 65.08 LIG 0.28  HD
ENDBRANCH 6 7
BRANCH 6 11
ATOM     11  CB  MET Y   1      37.433  50.982  36.289  1.00 64.83 LIG 0.05  C 
BRANCH 11 12
ATOM     12  CG  MET Y   1      37.645  50.961  37.780  1.00 63.52 LIG 0.08  C 
BRANCH 12 13
ATOM     13 SD   MET Y   1      36.662  52.107  38.739  1.00 62.62 LIG-0.17  SA
ATOM     14  CE  MET Y   1      36.602  51.227  40.296  1.00 61.34 LIG 0.09  C 
ENDBRANCH 12 13
ENDBRANCH 11 12
ENDBRANCH 6 11
ENDBRANCH 4 6
ENDBRANCH 1 2
BRANCH 1 15
ATOM     15  CB  ASP Y   2      42.679  52.124  33.881  1.00 68.96 LIG 0.15  C 
BRANCH 15 16
ATOM     16  CG  ASP Y   2      42.898  50.920  32.954  1.00 68.92 LIG 0.17  C 
ATOM     17 OD2  ASP Y   2      43.690  50.933  31.984  1.00 65.64 LIG-0.65  OA
ATOM     18 OD1  ASP Y   2      42.228  49.875  33.147  1.00 70.23 LIG-0.65  OA
ENDBRANCH 15 16
ENDBRANCH 1 15
BRANCH 1 19
ATOM     19  C   ASP Y   2      43.137  52.431  36.328  1.00 69.95 LIG 0.24  C 
ATOM     20 O    ASP Y   2      43.883  51.787  37.072  1.00 70.67 LIG-0.27  OA
ATOM     21  N   PRO Y   3      43.025  53.756  36.407  1.00 71.01 LIG-0.34  N 
ATOM     22  CA  PRO Y   3      43.938  54.558  37.247  1.00 71.12 LIG 0.17  C 
ATOM     23  CD  PRO Y   3      41.988  54.568  35.744  1.00 71.07 LIG 0.13  C 
ATOM     24  CB  PRO Y   3      43.572  56.010  36.923  1.00 71.47 LIG 0.04  C 
ATOM     25  CG  PRO Y   3      42.212  55.959  36.258  1.00 71.67 LIG 0.02  C 
BRANCH 22 26
ATOM     26  C   PRO Y   3      43.787  54.300  38.747  1.00 71.77 LIG 0.22  C 
ATOM     27 O    PRO Y   3      42.666  54.343  39.268  1.00 72.45 LIG-0.29  OA
ENDBRANCH 22 26
ENDBRANCH 1 19
TORSDOF 10
ENDMDL
MODEL 36
USER: ADFR SOLUTION from run 91
USER: SCORE 11.172544 LL:  -1.477 LR:  -9.696 RR:   0.000 FEB:  -6.713
USER: RMSD 5.670565
USER: SEED 90
USER: STATUS no improvement in best in 14 clusters for 5 generations
USER: GENES 12
USER: genes 0 Translation |==|  0.43131 0.54329 0.64490
USER: genes 1 Rotation |==|  0.37023 0.42199 0.02349 0.50393
USER: genes 2 Torsion [C]-CA--N-[C] |==|  0.83888
USER: genes 3 Torsion [N]-C--CA-[N] |==|  0.83173
USER: genes 4 Torsion [C]-CA--N-[H2] |==|  0.94700
USER: genes 5 Torsion [C]-CA--CB-[CG] |==|  0.07747
USER: genes 6 Torsion [CA]-CB--CG-[SD] |==|  0.54884
USER: genes 7 Torsion [CB]-CG--SD-[CE] |==|  0.57582
USER: genes 8 Torsion [N]-CA--CB-[CG] |==|  0.45005
USER: genes 9 Torsion [CA]-CB--CG-[OD1] |==|  0.29737
USER: genes 10 Torsion [N]-CA--C-[N] |==|  0.37960
USER: genes 11 Torsion [N]-CA--C-[O] |==|  0.45641
ROOT
ATOM      1  CA  ASP Y   2      38.191  51.948  39.410  1.00 68.86 LIG 0.19  C 
ENDROOT
BRANCH 1 2
ATOM      2  N   ASP Y   2      38.126  51.865  37.953  1.00 67.90 LIG-0.34  N 
ATOM      3 H    ASP Y   2      38.723  52.357  37.575  1.00 67.90 LIG 0.16  HD
ATOM      4  C   MET Y   1      37.273  51.136  37.237  1.00 66.89 LIG 0.25  C 
ATOM      5 O    MET Y   1      36.334  50.464  37.710  1.00 66.99 LIG-0.27  OA
BRANCH 4 6
ATOM      6  CA  MET Y   1      37.595  51.166  35.731  1.00 65.69 LIG 0.28  C 
BRANCH 6 7
ATOM      7  N   MET Y   1      37.561  52.495  35.066  1.00 65.08 LIG-0.07  N 
ATOM      8 H2   MET Y   1      37.093  53.064  35.566  1.00 65.08 LIG 0.28  HD
ATOM      9 H1   MET Y   1      37.177  52.417  34.267  1.00 65.08 LIG 0.28  HD
ATOM     10 H3   MET Y   1      38.391  52.799  34.968  1.00 65.08 LIG 0.28  HD
ENDBRANCH 6 7
BRANCH 6 11
ATOM     11  CB  MET Y   1      38.932  50.449  35.464  1.00 64.83 LIG 0.05  C 
BRANCH 11 12
ATOM     12  CG  MET Y   1      39.231  49.383  36.486  1.00 63.52 LIG 0.08  C 
BRANCH 12 13
ATOM     13 SD   MET Y   1      40.927  48.827  36.581  1.00 62.62 LIG-0.17  SA
ATOM     14  CE  MET Y   1      40.669  47.166  37.193  1.00 61.34 LIG 0.09  C 
ENDBRANCH 12 13
ENDBRANCH 11 12
ENDBRANCH 6 11
ENDBRANCH 4 6
ENDBRANCH 1 2
BRANCH 1 15
ATOM     15  CB  ASP Y   2      39.310  52.938  39.765  1.00 68.96 LIG 0.15  C 
BRANCH 15 16
ATOM     16  CG  ASP Y   2      39.202  53.453  41.208  1.00 68.92 LIG 0.17  C 
ATOM     17 OD2  ASP Y   2      38.354  54.299  41.575  1.00 65.64 LIG-0.65  OA
ATOM     18 OD1  ASP Y   2      40.024  53.040  42.063  1.00 70.23 LIG-0.65  OA
ENDBRANCH 15 16
ENDBRANCH 1 15
BRANCH 1 19
ATOM     19  C   ASP Y   2      36.868  52.423  40.018  1.00 69.95 LIG 0.24  C 
ATOM     20 O    ASP Y   2      36.268  53.384  39.525  1.00 70.67 LIG-0.27  OA
ATOM     21  N   PRO Y   3      36.428  51.789  41.104  1.00 71.01 LIG-0.34  N 
ATOM     22  CA  PRO Y   3      35.088  52.063  41.666  1.00 71.12 LIG 0.17  C 
ATOM     23  CD  PRO Y   3      37.197  50.813  41.897  1.00 71.07 LIG 0.13  C 
ATOM     24  CB  PRO Y   3      34.927  51.025  42.781  1.00 71.47 LIG 0.04  C 
ATOM     25  CG  PRO Y   3      36.320  50.510  43.075  1.00 71.67 LIG 0.02  C 
BRANCH 22 26
ATOM     26  C   PRO Y   3      34.931  53.474  42.234  1.00 71.77 LIG 0.22  C 
ATOM     27 O    PRO Y   3      33.802  53.924  42.463  1.00 72.45 LIG-0.29  OA
ENDBRANCH 22 26
ENDBRANCH 1 19
TORSDOF 10
ENDMDL
MODEL 37
USER: ADFR SOLUTION from run 67
USER: SCORE 10.967423 LL:  -1.358 LR:  -9.683 RR:   0.000 FEB:  -6.700
USER: RMSD 2.950238
USER: SEED 66
USER: STATUS no improvement in best in 7 clusters for 5 generations
USER: GENES 12
USER: genes 0 Translation |==|  0.54246 0.53775 0.58217
USER: genes 1 Rotation |==|  0.31193 0.50374 0.18655 0.84112
USER: genes 2 Torsion [C]-CA--N-[C] |==|  0.78936
USER: genes 3 Torsion [N]-C--CA-[N] |==|  0.28480
USER: genes 4 Torsion [C]-CA--N-[H2] |==|  0.78009
USER: genes 5 Torsion [C]-CA--CB-[CG] |==|  0.22389
USER: genes 6 Torsion [CA]-CB--CG-[SD] |==|  0.59093
USER: genes 7 Torsion [CB]-CG--SD-[CE] |==|  0.75371
USER: genes 8 Torsion [N]-CA--CB-[CG] |==|  0.15239
USER: genes 9 Torsion [CA]-CB--CG-[OD1] |==|  0.89267
USER: genes 10 Torsion [N]-CA--C-[N] |==|  0.34444
USER: genes 11 Torsion [N]-CA--C-[O] |==|  0.53972
ROOT
ATOM      1  CA  ASP Y   2      40.191  51.865  38.469  1.00 68.86 LIG 0.19  C 
ENDROOT
BRANCH 1 2
ATOM      2  N   ASP Y   2      39.146  51.842  37.449  1.00 67.90 LIG-0.34  N 
ATOM      3 H    ASP Y   2      38.492  52.366  37.646  1.00 67.90 LIG 0.16  HD
ATOM      4  C   MET Y   1      39.144  51.121  36.330  1.00 66.89 LIG 0.25  C 
ATOM      5 O    MET Y   1      40.016  50.283  36.018  1.00 66.99 LIG-0.27  OA
BRANCH 4 6
ATOM      6  CA  MET Y   1      37.956  51.464  35.412  1.00 65.69 LIG 0.28  C 
BRANCH 6 7
ATOM      7  N   MET Y   1      38.248  52.325  34.236  1.00 65.08 LIG-0.07  N 
ATOM      8 H2   MET Y   1      38.301  53.174  34.496  1.00 65.08 LIG 0.28  HD
ATOM      9 H1   MET Y   1      37.596  52.239  33.637  1.00 65.08 LIG 0.28  HD
ATOM     10 H3   MET Y   1      39.020  52.077  33.871  1.00 65.08 LIG 0.28  HD
ENDBRANCH 6 7
BRANCH 6 11
ATOM     11  CB  MET Y   1      37.230  50.174  34.986  1.00 64.83 LIG 0.05  C 
BRANCH 11 12
ATOM     12  CG  MET Y   1      36.286  49.665  36.044  1.00 63.52 LIG 0.08  C 
BRANCH 12 13
ATOM     13 SD   MET Y   1      36.090  47.892  36.148  1.00 62.62 LIG-0.17  SA
ATOM     14  CE  MET Y   1      34.751  47.664  34.984  1.00 61.34 LIG 0.09  C 
ENDBRANCH 12 13
ENDBRANCH 11 12
ENDBRANCH 6 11
ENDBRANCH 4 6
ENDBRANCH 1 2
BRANCH 1 15
ATOM     15  CB  ASP Y   2      39.965  53.115  39.332  1.00 68.96 LIG 0.15  C 
BRANCH 15 16
ATOM     16  CG  ASP Y   2      38.548  53.174  39.921  1.00 68.92 LIG 0.17  C 
ATOM     17 OD2  ASP Y   2      38.304  53.546  41.092  1.00 65.64 LIG-0.65  OA
ATOM     18 OD1  ASP Y   2      37.581  52.798  39.213  1.00 70.23 LIG-0.65  OA
ENDBRANCH 15 16
ENDBRANCH 1 15
BRANCH 1 19
ATOM     19  C   ASP Y   2      40.162  50.615  39.352  1.00 69.95 LIG 0.24  C 
ATOM     20 O    ASP Y   2      39.142  50.327  39.986  1.00 70.67 LIG-0.27  OA
ATOM     21  N   PRO Y   3      41.278  49.892  39.432  1.00 71.01 LIG-0.34  N 
ATOM     22  CA  PRO Y   3      41.302  48.585  40.123  1.00 71.12 LIG 0.17  C 
ATOM     23  CD  PRO Y   3      42.599  50.297  38.918  1.00 71.07 LIG 0.13  C 
ATOM     24  CB  PRO Y   3      42.704  48.034  39.840  1.00 71.47 LIG 0.04  C 
ATOM     25  CG  PRO Y   3      43.531  49.216  39.381  1.00 71.67 LIG 0.02  C 
BRANCH 22 26
ATOM     26  C   PRO Y   3      41.067  48.678  41.632  1.00 71.77 LIG 0.22  C 
ATOM     27 O    PRO Y   3      41.323  47.707  42.354  1.00 72.45 LIG-0.29  OA
ENDBRANCH 22 26
ENDBRANCH 1 19
TORSDOF 10
ENDMDL
MODEL 38
USER: ADFR SOLUTION from run 69
USER: SCORE 10.611867 LL:  -1.136 LR:  -9.642 RR:   0.000 FEB:  -6.659
USER: RMSD 3.706416
USER: SEED 68
USER: STATUS no improvement in best in 8 clusters for 5 generations
USER: GENES 12
USER: genes 0 Translation |==|  0.57009 0.60298 0.49923
USER: genes 1 Rotation |==|  0.75070 0.65308 0.75768 0.81196
USER: genes 2 Torsion [C]-CA--N-[C] |==|  0.54573
USER: genes 3 Torsion [N]-C--CA-[N] |==|  0.03655
USER: genes 4 Torsion [C]-CA--N-[H2] |==|  0.19549
USER: genes 5 Torsion [C]-CA--CB-[CG] |==|  0.27001
USER: genes 6 Torsion [CA]-CB--CG-[SD] |==|  0.60312
USER: genes 7 Torsion [CB]-CG--SD-[CE] |==|  0.63741
USER: genes 8 Torsion [N]-CA--CB-[CG] |==|  0.67094
USER: genes 9 Torsion [CA]-CB--CG-[OD1] |==|  0.49629
USER: genes 10 Torsion [N]-CA--C-[N] |==|  0.43890
USER: genes 11 Torsion [N]-CA--C-[O] |==|  0.19232
ROOT
ATOM      1  CA  ASP Y   2      40.689  52.844  37.224  1.00 68.86 LIG 0.19  C 
ENDROOT
BRANCH 1 2
ATOM      2  N   ASP Y   2      39.498  52.602  36.414  1.00 67.90 LIG-0.34  N 
ATOM      3 H    ASP Y   2      39.403  53.192  35.796  1.00 67.90 LIG 0.16  HD
ATOM      4  C   MET Y   1      38.625  51.608  36.564  1.00 66.89 LIG 0.25  C 
ATOM      5 O    MET Y   1      38.652  50.764  37.484  1.00 66.99 LIG-0.27  OA
BRANCH 4 6
ATOM      6  CA  MET Y   1      37.578  51.570  35.435  1.00 65.69 LIG 0.28  C 
BRANCH 6 7
ATOM      7  N   MET Y   1      37.858  52.403  34.236  1.00 65.08 LIG-0.07  N 
ATOM      8 H2   MET Y   1      38.536  52.049  33.781  1.00 65.08 LIG 0.28  HD
ATOM      9 H1   MET Y   1      38.071  53.228  34.491  1.00 65.08 LIG 0.28  HD
ATOM     10 H3   MET Y   1      37.135  52.431  33.718  1.00 65.08 LIG 0.28  HD
ENDBRANCH 6 7
BRANCH 6 11
ATOM     11  CB  MET Y   1      37.283  50.112  35.038  1.00 64.83 LIG 0.05  C 
BRANCH 11 12
ATOM     12  CG  MET Y   1      36.048  49.568  35.708  1.00 63.52 LIG 0.08  C 
BRANCH 12 13
ATOM     13 SD   MET Y   1      36.105  47.853  36.209  1.00 62.62 LIG-0.17  SA
ATOM     14  CE  MET Y   1      34.562  47.280  35.510  1.00 61.34 LIG 0.09  C 
ENDBRANCH 12 13
ENDBRANCH 11 12
ENDBRANCH 6 11
ENDBRANCH 4 6
ENDBRANCH 1 2
BRANCH 1 15
ATOM     15  CB  ASP Y   2      41.754  51.825  36.793  1.00 68.96 LIG 0.15  C 
BRANCH 15 16
ATOM     16  CG  ASP Y   2      42.172  50.891  37.937  1.00 68.92 LIG 0.17  C 
ATOM     17 OD2  ASP Y   2      41.737  50.998  39.107  1.00 65.64 LIG-0.65  OA
ATOM     18 OD1  ASP Y   2      43.021  49.993  37.709  1.00 70.23 LIG-0.65  OA
ENDBRANCH 15 16
ENDBRANCH 1 15
BRANCH 1 19
ATOM     19  C   ASP Y   2      41.229  54.265  37.044  1.00 69.95 LIG 0.24  C 
ATOM     20 O    ASP Y   2      40.979  54.898  36.013  1.00 70.67 LIG-0.27  OA
ATOM     21  N   PRO Y   3      41.998  54.759  38.013  1.00 71.01 LIG-0.34  N 
ATOM     22  CA  PRO Y   3      42.430  56.173  38.009  1.00 71.12 LIG 0.17  C 
ATOM     23  CD  PRO Y   3      42.549  53.991  39.144  1.00 71.07 LIG 0.13  C 
ATOM     24  CB  PRO Y   3      43.140  56.354  39.354  1.00 71.47 LIG 0.04  C 
ATOM     25  CG  PRO Y   3      43.448  54.958  39.855  1.00 71.67 LIG 0.02  C 
BRANCH 22 26
ATOM     26  C   PRO Y   3      43.378  56.527  36.862  1.00 71.77 LIG 0.22  C 
ATOM     27 O    PRO Y   3      42.956  56.549  35.700  1.00 72.45 LIG-0.29  OA
ENDBRANCH 22 26
ENDBRANCH 1 19
TORSDOF 10
ENDMDL
MODEL 39
USER: ADFR SOLUTION from run 185
USER: SCORE 11.051209 LL:  -1.771 LR:  -9.622 RR:   0.000 FEB:  -6.639
USER: RMSD 7.092351
USER: SEED 184
USER: STATUS no improvement in best in 13 clusters for 5 generations
USER: GENES 12
USER: genes 0 Translation |==|  0.37681 0.44039 0.50121
USER: genes 1 Rotation |==|  0.60395 0.52008 0.02197 0.60139
USER: genes 2 Torsion [C]-CA--N-[C] |==|  0.65376
USER: genes 3 Torsion [N]-C--CA-[N] |==|  0.89240
USER: genes 4 Torsion [C]-CA--N-[H2] |==|  0.07263
USER: genes 5 Torsion [C]-CA--CB-[CG] |==|  0.82527
USER: genes 6 Torsion [CA]-CB--CG-[SD] |==|  0.36659
USER: genes 7 Torsion [CB]-CG--SD-[CE] |==|  0.84717
USER: genes 8 Torsion [N]-CA--CB-[CG] |==|  0.14835
USER: genes 9 Torsion [CA]-CB--CG-[OD1] |==|  0.48571
USER: genes 10 Torsion [N]-CA--C-[N] |==|  0.27782
USER: genes 11 Torsion [N]-CA--C-[O] |==|  0.79830
ROOT
ATOM      1  CA  ASP Y   2      37.209  50.405  37.254  1.00 68.86 LIG 0.19  C 
ENDROOT
BRANCH 1 2
ATOM      2  N   ASP Y   2      38.102  51.179  36.396  1.00 67.90 LIG-0.34  N 
ATOM      3 H    ASP Y   2      37.766  51.943  36.188  1.00 67.90 LIG 0.16  HD
ATOM      4  C   MET Y   1      39.301  50.806  35.955  1.00 66.89 LIG 0.25  C 
ATOM      5 O    MET Y   1      39.817  49.685  36.149  1.00 66.99 LIG-0.27  OA
BRANCH 4 6
ATOM      6  CA  MET Y   1      40.029  51.936  35.202  1.00 65.69 LIG 0.28  C 
BRANCH 6 7
ATOM      7  N   MET Y   1      39.196  52.799  34.326  1.00 65.08 LIG-0.07  N 
ATOM      8 H2   MET Y   1      38.357  52.802  34.623  1.00 65.08 LIG 0.28  HD
ATOM      9 H1   MET Y   1      39.214  52.483  33.494  1.00 65.08 LIG 0.28  HD
ATOM     10 H3   MET Y   1      39.517  53.629  34.335  1.00 65.08 LIG 0.28  HD
ENDBRANCH 6 7
BRANCH 6 11
ATOM     11  CB  MET Y   1      40.851  52.782  36.192  1.00 64.83 LIG 0.05  C 
BRANCH 11 12
ATOM     12  CG  MET Y   1      39.990  53.476  37.215  1.00 63.52 LIG 0.08  C 
BRANCH 12 13
ATOM     13 SD   MET Y   1      40.509  53.334  38.919  1.00 62.62 LIG-0.17  SA
ATOM     14  CE  MET Y   1      40.593  51.553  39.064  1.00 61.34 LIG 0.09  C 
ENDBRANCH 12 13
ENDBRANCH 11 12
ENDBRANCH 6 11
ENDBRANCH 4 6
ENDBRANCH 1 2
BRANCH 1 15
ATOM     15  CB  ASP Y   2      37.083  51.158  38.587  1.00 68.96 LIG 0.15  C 
BRANCH 15 16
ATOM     16  CG  ASP Y   2      36.661  52.622  38.397  1.00 68.92 LIG 0.17  C 
ATOM     17 OD2  ASP Y   2      36.571  53.172  37.275  1.00 65.64 LIG-0.65  OA
ATOM     18 OD1  ASP Y   2      36.427  53.323  39.412  1.00 70.23 LIG-0.65  OA
ENDBRANCH 15 16
ENDBRANCH 1 15
BRANCH 1 19
ATOM     19  C   ASP Y   2      35.823  50.224  36.630  1.00 69.95 LIG 0.24  C 
ATOM     20 O    ASP Y   2      34.979  51.121  36.722  1.00 70.67 LIG-0.27  OA
ATOM     21  N   PRO Y   3      35.565  49.062  36.030  1.00 71.01 LIG-0.34  N 
ATOM     22  CA  PRO Y   3      34.321  48.854  35.258  1.00 71.12 LIG 0.17  C 
ATOM     23  CD  PRO Y   3      36.413  47.859  36.095  1.00 71.07 LIG 0.13  C 
ATOM     24  CB  PRO Y   3      34.503  47.473  34.618  1.00 71.47 LIG 0.04  C 
ATOM     25  CG  PRO Y   3      35.621  46.800  35.386  1.00 71.67 LIG 0.02  C 
BRANCH 22 26
ATOM     26  C   PRO Y   3      33.052  48.874  36.112  1.00 71.77 LIG 0.22  C 
ATOM     27 O    PRO Y   3      32.799  47.924  36.861  1.00 72.45 LIG-0.29  OA
ENDBRANCH 22 26
ENDBRANCH 1 19
TORSDOF 10
ENDMDL
MODEL 40
USER: ADFR SOLUTION from run 34
USER: SCORE 11.215084 LL:  -1.747 LR:  -9.599 RR:   0.000 FEB:  -6.616
USER: RMSD 5.160643
USER: SEED 33
USER: STATUS no improvement in best in 8 clusters for 5 generations
USER: GENES 12
USER: genes 0 Translation |==|  0.65294 0.55719 0.35610
USER: genes 1 Rotation |==|  0.90036 0.63954 0.74986 0.58839
USER: genes 2 Torsion [C]-CA--N-[C] |==|  0.86667
USER: genes 3 Torsion [N]-C--CA-[N] |==|  0.86191
USER: genes 4 Torsion [C]-CA--N-[H2] |==|  0.54311
USER: genes 5 Torsion [C]-CA--CB-[CG] |==|  0.12962
USER: genes 6 Torsion [CA]-CB--CG-[SD] |==|  0.74858
USER: genes 7 Torsion [CB]-CG--SD-[CE] |==|  0.38820
USER: genes 8 Torsion [N]-CA--CB-[CG] |==|  0.76875
USER: genes 9 Torsion [CA]-CB--CG-[OD1] |==|  0.12322
USER: genes 10 Torsion [N]-CA--C-[N] |==|  0.35357
USER: genes 11 Torsion [N]-CA--C-[O] |==|  0.28688
ROOT
ATOM      1  CA  ASP Y   2      42.180  52.157  35.078  1.00 68.86 LIG 0.19  C 
ENDROOT
BRANCH 1 2
ATOM      2  N   ASP Y   2      40.732  52.019  34.952  1.00 67.90 LIG-0.34  N 
ATOM      3 H    ASP Y   2      40.492  51.869  34.139  1.00 67.90 LIG 0.16  HD
ATOM      4  C   MET Y   1      39.838  52.103  35.935  1.00 66.89 LIG 0.25  C 
ATOM      5 O    MET Y   1      40.103  52.396  37.119  1.00 66.99 LIG-0.27  OA
BRANCH 4 6
ATOM      6  CA  MET Y   1      38.414  51.749  35.466  1.00 65.69 LIG 0.28  C 
BRANCH 6 7
ATOM      7  N   MET Y   1      37.927  52.426  34.236  1.00 65.08 LIG-0.07  N 
ATOM      8 H2   MET Y   1      37.044  52.335  34.177  1.00 65.08 LIG 0.28  HD
ATOM      9 H1   MET Y   1      38.311  52.058  33.523  1.00 65.08 LIG 0.28  HD
ATOM     10 H3   MET Y   1      38.135  53.290  34.271  1.00 65.08 LIG 0.28  HD
ENDBRANCH 6 7
BRANCH 6 11
ATOM     11  CB  MET Y   1      38.262  50.221  35.353  1.00 64.83 LIG 0.05  C 
BRANCH 11 12
ATOM     12  CG  MET Y   1      38.803  49.495  36.557  1.00 63.52 LIG 0.08  C 
BRANCH 12 13
ATOM     13 SD   MET Y   1      40.521  49.008  36.486  1.00 62.62 LIG-0.17  SA
ATOM     14  CE  MET Y   1      41.012  49.379  38.166  1.00 61.34 LIG 0.09  C 
ENDBRANCH 12 13
ENDBRANCH 11 12
ENDBRANCH 6 11
ENDBRANCH 4 6
ENDBRANCH 1 2
BRANCH 1 15
ATOM     15  CB  ASP Y   2      42.757  52.270  33.659  1.00 68.96 LIG 0.15  C 
BRANCH 15 16
ATOM     16  CG  ASP Y   2      42.963  50.900  32.997  1.00 68.92 LIG 0.17  C 
ATOM     17 OD2  ASP Y   2      43.980  50.604  32.329  1.00 65.64 LIG-0.65  OA
ATOM     18 OD1  ASP Y   2      42.056  50.036  33.094  1.00 70.23 LIG-0.65  OA
ENDBRANCH 15 16
ENDBRANCH 1 15
BRANCH 1 19
ATOM     19  C   ASP Y   2      42.572  53.391  35.895  1.00 69.95 LIG 0.24  C 
ATOM     20 O    ASP Y   2      42.151  54.507  35.573  1.00 70.67 LIG-0.27  OA
ATOM     21  N   PRO Y   3      43.402  53.212  36.921  1.00 71.01 LIG-0.34  N 
ATOM     22  CA  PRO Y   3      43.707  54.308  37.866  1.00 71.12 LIG 0.17  C 
ATOM     23  CD  PRO Y   3      44.143  51.973  37.216  1.00 71.07 LIG 0.13  C 
ATOM     24  CB  PRO Y   3      44.549  53.640  38.958  1.00 71.47 LIG 0.04  C 
ATOM     25  CG  PRO Y   3      45.031  52.330  38.371  1.00 71.67 LIG 0.02  C 
BRANCH 22 26
ATOM     26  C   PRO Y   3      44.483  55.467  37.238  1.00 71.77 LIG 0.22  C 
ATOM     27 O    PRO Y   3      43.895  56.517  36.953  1.00 72.45 LIG-0.29  OA
ENDBRANCH 22 26
ENDBRANCH 1 19
TORSDOF 10
ENDMDL
