MODEL 1
USER: ADFR SOLUTION from run 110
USER: SCORE 19.377769 LL:  -4.409 LR: -15.648 RR:   0.000 FEB:  -9.980
USER: RMSD 9.149555
USER: SEED 109
USER: STATUS no improvement in best in 4 clusters for 5 generations
USER: GENES 21
USER: genes 0 Translation |==|  0.55018 0.77811 0.69618
USER: genes 1 Rotation |==|  0.21583 0.68979 0.78916 0.72275
USER: genes 2 Torsion [CB]-CA--N-[C] |==|  0.60150
USER: genes 3 Torsion [N]-C--CA-[N] |==|  0.39384
USER: genes 4 Torsion [C]-CA--N-[C] |==|  0.84558
USER: genes 5 Torsion [N]-C--CA-[N] |==|  0.81234
USER: genes 6 Torsion [C]-CA--CB-[CG] |==|  0.31371
USER: genes 7 Torsion [CA]-CB--CG-[SD] |==|  0.73437
USER: genes 8 Torsion [CB]-CG--SD-[CE] |==|  0.19202
USER: genes 9 Torsion [C]-CA--CB-[CG] |==|  0.40507
USER: genes 10 Torsion [CA]-CB--CG-[CD2] |==|  0.03668
USER: genes 11 Torsion [N]-CA--CB-[CG] |==|  0.61262
USER: genes 12 Torsion [CA]-CB--CG-[CD] |==|  0.61532
USER: genes 13 Torsion [CB]-CG--CD-[NE] |==|  0.10639
USER: genes 14 Torsion [CG]-CD--NE-[CZ] |==|  0.19510
USER: genes 15 Torsion [N]-CA--C-[N] |==|  0.82022
USER: genes 16 Torsion [N]-CA--C-[O] |==|  0.40719
USER: genes 17 Torsion [C]-N--CA-[CB] |==|  0.37300
USER: genes 18 Torsion [N]-CA--CB-[CG] |==|  0.63682
USER: genes 19 Torsion [CA]-CB--CG-[CD2] |==|  0.84959
USER: genes 20 Torsion [N]-CA--C-[O] |==|  0.28280
ROOT
ATOM      1  CA  ARG X   4     -20.311  -7.053  42.372  1.00 29.51 LIG 0.18  C 
ENDROOT
BRANCH 1 2
ATOM      2  N   ARG X   4     -19.820  -8.423  42.493  1.00 29.26 LIG-0.35  N 
ATOM      3  C   TRP X   3     -19.837  -9.300  41.473  1.00 30.37 LIG 0.24  C 
ATOM      4 O    TRP X   3     -20.240  -9.017  40.325  1.00 30.38 LIG-0.27  OA
ATOM      5 H    ARG X   4     -19.519  -8.615  43.275  1.00 29.26 LIG 0.16  HD
BRANCH 3 6
ATOM      6  CA  TRP X   3     -19.303 -10.715  41.780  1.00 30.62 LIG 0.18  C 
BRANCH 6 7
ATOM      7  N   TRP X   3     -20.079 -11.769  41.106  1.00 31.45 LIG-0.34  N 
ATOM      8 H    TRP X   3     -19.628 -12.304  40.607  1.00 31.45 LIG 0.16  HD
ATOM      9  C   MET X   2     -21.395 -11.828  41.306  1.00 32.92 LIG 0.26  C 
ATOM     10 O    MET X   2     -21.968 -11.095  42.090  1.00 32.35 LIG-0.27  OA
BRANCH 9 11
ATOM     11  CA  MET X   2     -22.188 -12.867  40.564  1.00 34.28 LIG 0.40  C 
ATOM     12  N   MET X   2     -22.218 -12.588  39.074  1.00 35.36 LIG 0.61  N 
BRANCH 11 13
ATOM     13  CB  MET X   2     -21.572 -14.231  40.829  1.00 35.71 LIG 0.06  C 
BRANCH 13 14
ATOM     14  CG  MET X   2     -22.437 -15.165  41.631  1.00 37.62 LIG 0.08  C 
BRANCH 14 15
ATOM     15 SD   MET X   2     -22.157 -15.241  43.421  1.00 39.06 LIG-0.17  SA
ATOM     16  CE  MET X   2     -22.750 -13.600  43.939  1.00 45.88 LIG 0.09  C 
ENDBRANCH 14 15
ENDBRANCH 13 14
ENDBRANCH 11 13
ENDBRANCH 9 11
ENDBRANCH 6 7
BRANCH 6 17
ATOM     17  CB  TRP X   3     -17.805 -10.814  41.481  1.00 29.85 LIG 0.07  C 
BRANCH 17 18
ATOM     18  CG  TRP X   3     -17.090 -11.734  42.434  1.00 29.58 LIG-0.03  A 
ATOM     19  CD1 TRP X   3     -15.736 -11.843  42.597  1.00 26.84 LIG 0.10  A 
ATOM     20  NE1 TRP X   3     -15.459 -12.790  43.548  1.00 29.47 LIG-0.36  N 
ATOM     21 HE1  TRP X   3     -14.671 -13.022  43.802  1.00 29.47 LIG 0.17  HD
ATOM     22  CE2 TRP X   3     -16.636 -13.314  44.035  1.00 27.62 LIG 0.04  A 
ATOM     23  CZ2 TRP X   3     -16.865 -14.317  45.024  1.00 28.85 LIG 0.03  A 
ATOM     24  CD2 TRP X   3     -17.691 -12.671  43.352  1.00 25.33 LIG-0.00  A 
ATOM     25  CH2 TRP X   3     -18.194 -14.652  45.314  1.00 28.18 LIG 0.00  A 
ATOM     26  CZ3 TRP X   3     -19.257 -14.031  44.633  1.00 26.79 LIG 0.00  A 
ATOM     27  CE3 TRP X   3     -19.013 -13.049  43.638  1.00 25.86 LIG 0.01  A 
ENDBRANCH 17 18
ENDBRANCH 6 17
ENDBRANCH 3 6
ENDBRANCH 1 2
BRANCH 1 28
ATOM     28  CB  ARG X   4     -19.454  -6.067  43.193  1.00 29.55 LIG 0.04  C 
BRANCH 28 29
ATOM     29  CG  ARG X   4     -20.255  -4.994  43.928  1.00 28.17 LIG 0.02  C 
BRANCH 29 30
ATOM     30  CD  ARG X   4     -19.550  -3.634  43.818  1.00 27.09 LIG 0.14  C 
BRANCH 30 31
ATOM     31  NE  ARG X   4     -18.970  -3.485  42.486  1.00 25.46 LIG-0.23  N 
ATOM     32 HE   ARG X   4     -18.114  -3.508  42.410  1.00 25.46 LIG 0.18  HD
ATOM     33  CZ  ARG X   4     -19.700  -3.317  41.383  1.00 27.27 LIG 0.67  C 
ATOM     34  NH2 ARG X   4     -19.115  -3.195  40.194  1.00 24.12 LIG-0.23  N 
ATOM     35  NH1 ARG X   4     -21.026  -3.254  41.481  1.00 21.32 LIG-0.23  N 
ATOM     36 1HH2 ARG X   4     -18.258  -3.225  40.131  1.00 24.12 LIG 0.17  HD
ATOM     37 2HH2 ARG X   4     -19.594  -3.087  39.488  1.00 24.12 LIG 0.17  HD
ATOM     38 2HH1 ARG X   4     -21.504  -3.144  40.775  1.00 21.32 LIG 0.17  HD
ATOM     39 1HH1 ARG X   4     -21.404  -3.322  42.250  1.00 21.32 LIG 0.17  HD
ENDBRANCH 30 31
ENDBRANCH 29 30
ENDBRANCH 28 29
ENDBRANCH 1 28
BRANCH 1 40
ATOM     40  C   ARG X   4     -20.241  -6.667  40.917  1.00 30.38 LIG 0.24  C 
ATOM     41 O    ARG X   4     -21.278  -6.455  40.310  1.00 31.87 LIG-0.27  OA
ATOM     42  N   PRO X   5     -19.029  -6.594  40.345  1.00 30.60 LIG-0.34  N 
ATOM     43  CA  PRO X   5     -18.866  -6.039  38.982  1.00 31.31 LIG 0.18  C 
ATOM     44  CD  PRO X   5     -17.734  -6.968  40.976  1.00 29.99 LIG 0.13  C 
ATOM     45  CB  PRO X   5     -17.361  -5.772  38.896  1.00 30.70 LIG 0.04  C 
ATOM     46  CG  PRO X   5     -16.713  -6.789  39.882  1.00 29.42 LIG 0.02  C 
BRANCH 43 47
ATOM     47  C   PRO X   5     -19.304  -6.914  37.775  1.00 32.23 LIG 0.24  C 
ATOM     48 O    PRO X   5     -19.786  -6.371  36.735  1.00 32.23 LIG-0.27  OA
ATOM     49  N   TRP X   6     -19.127  -8.228  37.887  1.00 33.50 LIG-0.34  N 
ATOM     50 H    TRP X   6     -18.878  -8.623  38.609  1.00 33.50 LIG 0.16  HD
BRANCH 49 51
ATOM     51  CA  TRP X   6     -19.352  -9.122  36.743  1.00 34.66 LIG 0.19  C 
BRANCH 51 52
ATOM     52  CB  TRP X   6     -18.188 -10.127  36.628  1.00 34.41 LIG 0.08  C 
BRANCH 52 53
ATOM     53  CG  TRP X   6     -17.595 -10.240  35.235  1.00 32.39 LIG-0.03  A 
ATOM     54  CD2 TRP X   6     -18.297 -10.525  34.005  1.00 31.68 LIG-0.00  A 
ATOM     55  CE2 TRP X   6     -17.333 -10.548  32.977  1.00 33.29 LIG 0.04  A 
ATOM     56  CE3 TRP X   6     -19.640 -10.748  33.677  1.00 33.66 LIG 0.01  A 
ATOM     57  CZ2 TRP X   6     -17.674 -10.761  31.634  1.00 33.18 LIG 0.03  A 
ATOM     58  NE1 TRP X   6     -16.114 -10.280  33.551  1.00 30.87 LIG-0.36  N 
ATOM     59  CH2 TRP X   6     -18.983 -10.974  31.338  1.00 32.36 LIG 0.00  A 
ATOM     60  CZ3 TRP X   6     -19.972 -10.987  32.346  1.00 32.37 LIG 0.00  A 
ATOM     61 HE1  TRP X   6     -15.365 -10.226  33.130  1.00 30.87 LIG 0.17  HD
ATOM     62  CD1 TRP X   6     -16.281 -10.113  34.899  1.00 30.01 LIG 0.10  A 
ENDBRANCH 52 53
ENDBRANCH 51 52
BRANCH 51 63
ATOM     63  C   TRP X   6     -20.709  -9.852  36.807  1.00 36.76 LIG 0.20  C 
ATOM     64 O    TRP X   6     -21.715  -9.530  36.150  1.00 37.86 LIG-0.65  OA
ATOM     65 OXT  TRP X   6     -20.866 -10.820  37.561  1.00 39.11 LIG-0.65  OA
ENDBRANCH 51 63
ENDBRANCH 49 51
ENDBRANCH 43 47
ENDBRANCH 1 40
TORSDOF 19
ENDMDL
MODEL 2
USER: ADFR SOLUTION from run 150
USER: SCORE 19.833735 LL:  -5.635 LR: -15.361 RR:   0.000 FEB:  -9.693
USER: RMSD 2.185884
USER: SEED 149
USER: STATUS no improvement in best in 3 clusters for 5 generations
USER: GENES 21
USER: genes 0 Translation |==|  0.54564 0.57857 0.46873
USER: genes 1 Rotation |==|  0.43480 0.51497 0.51374 0.99531
USER: genes 2 Torsion [CB]-CA--N-[C] |==|  0.24770
USER: genes 3 Torsion [N]-C--CA-[N] |==|  0.41860
USER: genes 4 Torsion [C]-CA--N-[C] |==|  0.83876
USER: genes 5 Torsion [N]-C--CA-[N] |==|  0.46917
USER: genes 6 Torsion [C]-CA--CB-[CG] |==|  0.54074
USER: genes 7 Torsion [CA]-CB--CG-[SD] |==|  0.78895
USER: genes 8 Torsion [CB]-CG--SD-[CE] |==|  0.90858
USER: genes 9 Torsion [C]-CA--CB-[CG] |==|  0.09448
USER: genes 10 Torsion [CA]-CB--CG-[CD2] |==|  0.76141
USER: genes 11 Torsion [N]-CA--CB-[CG] |==|  0.95328
USER: genes 12 Torsion [CA]-CB--CG-[CD] |==|  0.48183
USER: genes 13 Torsion [CB]-CG--CD-[NE] |==|  0.36538
USER: genes 14 Torsion [CG]-CD--NE-[CZ] |==|  0.41834
USER: genes 15 Torsion [N]-CA--C-[N] |==|  0.35660
USER: genes 16 Torsion [N]-CA--C-[O] |==|  0.48456
USER: genes 17 Torsion [C]-N--CA-[CB] |==|  0.43298
USER: genes 18 Torsion [N]-CA--CB-[CG] |==|  0.99075
USER: genes 19 Torsion [CA]-CB--CG-[CD2] |==|  0.79218
USER: genes 20 Torsion [N]-CA--C-[O] |==|  0.57247
ROOT
ATOM      1  CA  ARG X   4     -20.407 -10.944  38.108  1.00 29.51 LIG 0.18  C 
ENDROOT
BRANCH 1 2
ATOM      2  N   ARG X   4     -20.693 -11.370  36.740  1.00 29.26 LIG-0.35  N 
ATOM      3  C   TRP X   3     -21.806 -11.006  36.077  1.00 30.37 LIG 0.24  C 
ATOM      4 O    TRP X   3     -22.676 -10.246  36.553  1.00 30.38 LIG-0.27  OA
ATOM      5 H    ARG X   4     -20.085 -11.873  36.400  1.00 29.26 LIG 0.16  HD
BRANCH 3 6
ATOM      6  CA  TRP X   3     -21.963 -11.566  34.648  1.00 30.62 LIG 0.18  C 
BRANCH 6 7
ATOM      7  N   TRP X   3     -23.373 -11.732  34.259  1.00 31.45 LIG-0.34  N 
ATOM      8 H    TRP X   3     -23.619 -11.304  33.555  1.00 31.45 LIG 0.16  HD
ATOM      9  C   MET X   2     -24.159 -12.512  35.000  1.00 32.92 LIG 0.26  C 
ATOM     10 O    MET X   2     -23.734 -13.160  35.938  1.00 32.35 LIG-0.27  OA
BRANCH 9 11
ATOM     11  CA  MET X   2     -25.612 -12.624  34.633  1.00 34.28 LIG 0.40  C 
ATOM     12  N   MET X   2     -26.297 -13.741  35.395  1.00 35.36 LIG 0.61  N 
BRANCH 11 13
ATOM     13  CB  MET X   2     -26.292 -11.296  34.928  1.00 35.71 LIG 0.06  C 
BRANCH 13 14
ATOM     14  CG  MET X   2     -27.796 -11.351  34.942  1.00 37.62 LIG 0.08  C 
BRANCH 14 15
ATOM     15 SD   MET X   2     -28.649 -11.437  33.344  1.00 39.06 LIG-0.17  SA
ATOM     16  CE  MET X   2     -27.527 -10.461  32.294  1.00 45.88 LIG 0.09  C 
ENDBRANCH 14 15
ENDBRANCH 13 14
ENDBRANCH 11 13
ENDBRANCH 9 11
ENDBRANCH 6 7
BRANCH 6 17
ATOM     17  CB  TRP X   3     -21.176 -10.728  33.639  1.00 29.85 LIG 0.07  C 
BRANCH 17 18
ATOM     18  CG  TRP X   3     -19.903 -10.174  34.221  1.00 29.58 LIG-0.03  A 
ATOM     19  CD1 TRP X   3     -18.659 -10.738  34.141  1.00 26.84 LIG 0.10  A 
ATOM     20  NE1 TRP X   3     -17.751  -9.949  34.798  1.00 29.47 LIG-0.36  N 
ATOM     21 HE1  TRP X   3     -16.912 -10.120  34.876  1.00 29.47 LIG 0.17  HD
ATOM     22  CE2 TRP X   3     -18.387  -8.843  35.313  1.00 27.62 LIG 0.04  A 
ATOM     23  CZ2 TRP X   3     -17.874  -7.746  36.070  1.00 28.85 LIG 0.03  A 
ATOM     24  CD2 TRP X   3     -19.752  -8.950  34.970  1.00 25.33 LIG-0.00  A 
ATOM     25  CH2 TRP X   3     -18.776  -6.751  36.466  1.00 28.18 LIG 0.00  A 
ATOM     26  CZ3 TRP X   3     -20.142  -6.849  36.144  1.00 26.79 LIG 0.00  A 
ATOM     27  CE3 TRP X   3     -20.642  -7.955  35.408  1.00 25.86 LIG 0.01  A 
ENDBRANCH 17 18
ENDBRANCH 6 17
ENDBRANCH 3 6
ENDBRANCH 1 2
BRANCH 1 28
ATOM     28  CB  ARG X   4     -20.992 -11.926  39.144  1.00 29.55 LIG 0.04  C 
BRANCH 28 29
ATOM     29  CG  ARG X   4     -22.054 -12.871  38.588  1.00 28.17 LIG 0.02  C 
BRANCH 29 30
ATOM     30  CD  ARG X   4     -22.452 -13.908  39.649  1.00 27.09 LIG 0.14  C 
BRANCH 30 31
ATOM     31  NE  ARG X   4     -23.907 -13.985  39.743  1.00 25.46 LIG-0.23  N 
ATOM     32 HE   ARG X   4     -24.365 -13.280  39.561  1.00 25.46 LIG 0.18  HD
ATOM     33  CZ  ARG X   4     -24.563 -15.092  40.097  1.00 27.27 LIG 0.67  C 
ATOM     34  NH2 ARG X   4     -25.891 -15.103  40.157  1.00 24.12 LIG-0.23  N 
ATOM     35  NH1 ARG X   4     -23.873 -16.187  40.408  1.00 21.32 LIG-0.23  N 
ATOM     36 1HH2 ARG X   4     -26.337 -14.393  39.967  1.00 24.12 LIG 0.17  HD
ATOM     37 2HH2 ARG X   4     -26.306 -15.822  40.386  1.00 24.12 LIG 0.17  HD
ATOM     38 2HH1 ARG X   4     -24.287 -16.904  40.638  1.00 21.32 LIG 0.17  HD
ATOM     39 1HH1 ARG X   4     -23.014 -16.177  40.379  1.00 21.32 LIG 0.17  HD
ENDBRANCH 30 31
ENDBRANCH 29 30
ENDBRANCH 28 29
ENDBRANCH 1 28
BRANCH 1 40
ATOM     40  C   ARG X   4     -18.909 -10.897  38.269  1.00 30.38 LIG 0.24  C 
ATOM     41 O    ARG X   4     -18.250 -11.880  37.970  1.00 31.87 LIG-0.27  OA
ATOM     42  N   PRO X   5     -18.364  -9.772  38.758  1.00 30.60 LIG-0.34  N 
ATOM     43  CA  PRO X   5     -16.896  -9.581  38.765  1.00 31.31 LIG 0.18  C 
ATOM     44  CD  PRO X   5     -19.105  -8.587  39.270  1.00 29.99 LIG 0.13  C 
ATOM     45  CB  PRO X   5     -16.747  -8.076  39.007  1.00 30.70 LIG 0.04  C 
ATOM     46  CG  PRO X   5     -18.032  -7.661  39.782  1.00 29.42 LIG 0.02  C 
BRANCH 43 47
ATOM     47  C   PRO X   5     -16.059 -10.358  39.818  1.00 32.23 LIG 0.24  C 
ATOM     48 O    PRO X   5     -14.792 -10.305  39.791  1.00 32.23 LIG-0.27  OA
ATOM     49  N   TRP X   6     -16.732 -11.045  40.737  1.00 33.50 LIG-0.34  N 
ATOM     50 H    TRP X   6     -17.585 -11.160  40.727  1.00 33.50 LIG 0.16  HD
BRANCH 49 51
ATOM     51  CA  TRP X   6     -16.041 -11.674  41.870  1.00 34.66 LIG 0.19  C 
BRANCH 51 52
ATOM     52  CB  TRP X   6     -17.023 -11.859  43.045  1.00 34.41 LIG 0.08  C 
BRANCH 52 53
ATOM     53  CG  TRP X   6     -18.408 -11.293  42.797  1.00 32.39 LIG-0.03  A 
ATOM     54  CD2 TRP X   6     -18.800  -9.902  42.803  1.00 31.68 LIG-0.00  A 
ATOM     55  CE2 TRP X   6     -20.184  -9.863  42.543  1.00 33.29 LIG 0.04  A 
ATOM     56  CE3 TRP X   6     -18.113  -8.696  42.990  1.00 33.66 LIG 0.01  A 
ATOM     57  CZ2 TRP X   6     -20.894  -8.658  42.438  1.00 33.18 LIG 0.03  A 
ATOM     58  NE1 TRP X   6     -20.608 -11.159  42.375  1.00 30.87 LIG-0.36  N 
ATOM     59  CH2 TRP X   6     -20.208  -7.500  42.622  1.00 32.36 LIG 0.00  A 
ATOM     60  CZ3 TRP X   6     -18.826  -7.502  42.913  1.00 32.37 LIG 0.00  A 
ATOM     61 HE1  TRP X   6     -21.413 -11.402  42.194  1.00 30.87 LIG 0.17  HD
ATOM     62  CD1 TRP X   6     -19.543 -12.003  42.544  1.00 30.01 LIG 0.10  A 
ENDBRANCH 52 53
ENDBRANCH 51 52
BRANCH 51 63
ATOM     63  C   TRP X   6     -15.365 -13.009  41.498  1.00 36.76 LIG 0.20  C 
ATOM     64 O    TRP X   6     -15.134 -13.931  42.301  1.00 37.86 LIG-0.65  OA
ATOM     65 OXT  TRP X   6     -14.990 -13.221  40.338  1.00 39.11 LIG-0.65  OA
ENDBRANCH 51 63
ENDBRANCH 49 51
ENDBRANCH 43 47
ENDBRANCH 1 40
TORSDOF 19
ENDMDL
MODEL 3
USER: ADFR SOLUTION from run 38
USER: SCORE 19.253929 LL:  -4.006 LR: -15.364 RR:   0.000 FEB:  -9.696
USER: RMSD 7.142793
USER: SEED 37
USER: STATUS 1 or 2 clusters left
USER: GENES 21
USER: genes 0 Translation |==|  0.52711 0.60457 0.29058
USER: genes 1 Rotation |==|  0.11824 0.54603 0.31237 0.75871
USER: genes 2 Torsion [CB]-CA--N-[C] |==|  0.85540
USER: genes 3 Torsion [N]-C--CA-[N] |==|  0.45093
USER: genes 4 Torsion [C]-CA--N-[C] |==|  0.75704
USER: genes 5 Torsion [N]-C--CA-[N] |==|  0.86022
USER: genes 6 Torsion [C]-CA--CB-[CG] |==|  0.17499
USER: genes 7 Torsion [CA]-CB--CG-[SD] |==|  0.55078
USER: genes 8 Torsion [CB]-CG--SD-[CE] |==|  0.91762
USER: genes 9 Torsion [C]-CA--CB-[CG] |==|  0.52437
USER: genes 10 Torsion [CA]-CB--CG-[CD2] |==|  0.45435
USER: genes 11 Torsion [N]-CA--CB-[CG] |==|  0.40418
USER: genes 12 Torsion [CA]-CB--CG-[CD] |==|  0.56961
USER: genes 13 Torsion [CB]-CG--CD-[NE] |==|  0.52576
USER: genes 14 Torsion [CG]-CD--NE-[CZ] |==|  0.47093
USER: genes 15 Torsion [N]-CA--C-[N] |==|  0.36111
USER: genes 16 Torsion [N]-CA--C-[O] |==|  0.86479
USER: genes 17 Torsion [C]-N--CA-[CB] |==|  0.26455
USER: genes 18 Torsion [N]-CA--CB-[CG] |==|  0.70046
USER: genes 19 Torsion [CA]-CB--CG-[CD2] |==|  0.56094
USER: genes 20 Torsion [N]-CA--C-[O] |==|  0.26450
ROOT
ATOM      1  CA  ARG X   4     -20.796 -10.437  34.767  1.00 29.51 LIG 0.18  C 
ENDROOT
BRANCH 1 2
ATOM      2  N   ARG X   4     -21.921 -11.346  34.965  1.00 29.26 LIG-0.35  N 
ATOM      3  C   TRP X   3     -22.516 -11.528  36.159  1.00 30.37 LIG 0.24  C 
ATOM      4 O    TRP X   3     -22.185 -10.914  37.196  1.00 30.38 LIG-0.27  OA
ATOM      5 H    ARG X   4     -22.168 -11.753  34.249  1.00 29.26 LIG 0.16  HD
BRANCH 3 6
ATOM      6  CA  TRP X   3     -23.675 -12.545  36.197  1.00 30.62 LIG 0.18  C 
BRANCH 6 7
ATOM      7  N   TRP X   3     -23.989 -12.992  37.564  1.00 31.45 LIG-0.34  N 
ATOM      8 H    TRP X   3     -24.600 -12.545  37.972  1.00 31.45 LIG 0.16  HD
ATOM      9  C   MET X   2     -23.326 -14.031  38.071  1.00 32.92 LIG 0.26  C 
ATOM     10 O    MET X   2     -22.531 -14.677  37.416  1.00 32.35 LIG-0.27  OA
BRANCH 9 11
ATOM     11  CA  MET X   2     -23.608 -14.438  39.490  1.00 34.28 LIG 0.40  C 
ATOM     12  N   MET X   2     -23.532 -13.257  40.437  1.00 35.36 LIG 0.61  N 
BRANCH 11 13
ATOM     13  CB  MET X   2     -24.989 -15.070  39.551  1.00 35.71 LIG 0.06  C 
BRANCH 13 14
ATOM     14  CG  MET X   2     -25.137 -16.334  38.748  1.00 37.62 LIG 0.08  C 
BRANCH 14 15
ATOM     15 SD   MET X   2     -26.818 -16.878  38.340  1.00 39.06 LIG-0.17  SA
ATOM     16  CE  MET X   2     -27.752 -16.226  39.759  1.00 45.88 LIG 0.09  C 
ENDBRANCH 14 15
ENDBRANCH 13 14
ENDBRANCH 11 13
ENDBRANCH 9 11
ENDBRANCH 6 7
BRANCH 6 17
ATOM     17  CB  TRP X   3     -24.905 -12.004  35.465  1.00 29.85 LIG 0.07  C 
BRANCH 17 18
ATOM     18  CG  TRP X   3     -26.118 -12.874  35.661  1.00 29.58 LIG-0.03  A 
ATOM     19  CD1 TRP X   3     -26.128 -14.164  36.117  1.00 26.84 LIG 0.10  A 
ATOM     20  NE1 TRP X   3     -27.416 -14.631  36.153  1.00 29.47 LIG-0.36  N 
ATOM     21 HE1  TRP X   3     -27.651 -15.420  36.403  1.00 29.47 LIG 0.17  HD
ATOM     22  CE2 TRP X   3     -28.278 -13.644  35.729  1.00 27.62 LIG 0.04  A 
ATOM     23  CZ2 TRP X   3     -29.699 -13.650  35.591  1.00 28.85 LIG 0.03  A 
ATOM     24  CD2 TRP X   3     -27.493 -12.517  35.407  1.00 25.33 LIG-0.00  A 
ATOM     25  CH2 TRP X   3     -30.311 -12.480  35.125  1.00 28.18 LIG 0.00  A 
ATOM     26  CZ3 TRP X   3     -29.542 -11.352  34.786  1.00 26.79 LIG 0.00  A 
ATOM     27  CE3 TRP X   3     -28.128 -11.367  34.910  1.00 25.86 LIG 0.01  A 
ENDBRANCH 17 18
ENDBRANCH 6 17
ENDBRANCH 3 6
ENDBRANCH 1 2
BRANCH 1 28
ATOM     28  CB  ARG X   4     -21.100  -9.027  35.315  1.00 29.55 LIG 0.04  C 
BRANCH 28 29
ATOM     29  CG  ARG X   4     -19.894  -8.306  35.911  1.00 28.17 LIG 0.02  C 
BRANCH 29 30
ATOM     30  CD  ARG X   4     -20.352  -7.264  36.943  1.00 27.09 LIG 0.14  C 
BRANCH 30 31
ATOM     31  NE  ARG X   4     -19.219  -6.435  37.342  1.00 25.46 LIG-0.23  N 
ATOM     32 HE   ARG X   4     -18.430  -6.676  37.097  1.00 25.46 LIG 0.18  HD
ATOM     33  CZ  ARG X   4     -19.343  -5.322  38.068  1.00 27.27 LIG 0.67  C 
ATOM     34  NH2 ARG X   4     -18.274  -4.602  38.395  1.00 24.12 LIG-0.23  N 
ATOM     35  NH1 ARG X   4     -20.551  -4.943  38.479  1.00 21.32 LIG-0.23  N 
ATOM     36 1HH2 ARG X   4     -17.492  -4.852  38.138  1.00 24.12 LIG 0.17  HD
ATOM     37 2HH2 ARG X   4     -18.364  -3.885  38.862  1.00 24.12 LIG 0.17  HD
ATOM     38 2HH1 ARG X   4     -20.641  -4.228  38.947  1.00 21.32 LIG 0.17  HD
ATOM     39 1HH1 ARG X   4     -21.241  -5.414  38.277  1.00 21.32 LIG 0.17  HD
ENDBRANCH 30 31
ENDBRANCH 29 30
ENDBRANCH 28 29
ENDBRANCH 1 28
BRANCH 1 40
ATOM     40  C   ARG X   4     -19.613 -11.004  35.509  1.00 30.38 LIG 0.24  C 
ATOM     41 O    ARG X   4     -19.745 -11.324  36.679  1.00 31.87 LIG-0.27  OA
ATOM     42  N   PRO X   5     -18.450 -11.114  34.847  1.00 30.60 LIG-0.34  N 
ATOM     43  CA  PRO X   5     -17.303 -11.835  35.443  1.00 31.31 LIG 0.18  C 
ATOM     44  CD  PRO X   5     -18.173 -10.623  33.469  1.00 29.99 LIG 0.13  C 
ATOM     45  CB  PRO X   5     -16.379 -12.065  34.243  1.00 30.70 LIG 0.04  C 
ATOM     46  CG  PRO X   5     -16.709 -10.910  33.251  1.00 29.42 LIG 0.02  C 
BRANCH 43 47
ATOM     47  C   PRO X   5     -16.506 -11.136  36.580  1.00 32.23 LIG 0.24  C 
ATOM     48 O    PRO X   5     -16.115  -9.938  36.441  1.00 32.23 LIG-0.27  OA
ATOM     49  N   TRP X   6     -16.286 -11.843  37.685  1.00 33.50 LIG-0.34  N 
ATOM     50 H    TRP X   6     -16.471 -12.679  37.769  1.00 33.50 LIG 0.16  HD
BRANCH 49 51
ATOM     51  CA  TRP X   6     -15.691 -11.222  38.876  1.00 34.66 LIG 0.19  C 
BRANCH 51 52
ATOM     52  CB  TRP X   6     -16.804 -10.776  39.845  1.00 34.41 LIG 0.08  C 
BRANCH 52 53
ATOM     53  CG  TRP X   6     -17.007  -9.274  39.916  1.00 32.39 LIG-0.03  A 
ATOM     54  CD2 TRP X   6     -17.618  -8.522  40.988  1.00 31.68 LIG-0.00  A 
ATOM     55  CE2 TRP X   6     -17.601  -7.167  40.603  1.00 33.29 LIG 0.04  A 
ATOM     56  CE3 TRP X   6     -18.161  -8.864  42.233  1.00 33.66 LIG 0.01  A 
ATOM     57  CZ2 TRP X   6     -18.086  -6.145  41.432  1.00 33.18 LIG 0.03  A 
ATOM     58  NE1 TRP X   6     -17.002  -7.098  39.368  1.00 30.87 LIG-0.36  N 
ATOM     59  CH2 TRP X   6     -18.607  -6.499  42.635  1.00 32.36 LIG 0.00  A 
ATOM     60  CZ3 TRP X   6     -18.666  -7.850  43.043  1.00 32.37 LIG 0.00  A 
ATOM     61 HE1  TRP X   6     -16.860  -6.377  38.921  1.00 30.87 LIG 0.17  HD
ATOM     62  CD1 TRP X   6     -16.665  -8.362  38.964  1.00 30.01 LIG 0.10  A 
ENDBRANCH 52 53
ENDBRANCH 51 52
BRANCH 51 63
ATOM     63  C   TRP X   6     -14.671 -12.135  39.586  1.00 36.76 LIG 0.20  C 
ATOM     64 O    TRP X   6     -13.442 -12.099  39.399  1.00 37.86 LIG-0.65  OA
ATOM     65 OXT  TRP X   6     -15.052 -12.991  40.393  1.00 39.11 LIG-0.65  OA
ENDBRANCH 51 63
ENDBRANCH 49 51
ENDBRANCH 43 47
ENDBRANCH 1 40
TORSDOF 19
ENDMDL
MODEL 4
USER: ADFR SOLUTION from run 81
USER: SCORE 18.764229 LL:  -5.565 LR: -15.234 RR:   0.000 FEB:  -9.566
USER: RMSD 8.549287
USER: SEED 80
USER: STATUS no improvement in best in 21 clusters for 5 generations
USER: GENES 21
USER: genes 0 Translation |==|  0.54540 0.75335 0.69806
USER: genes 1 Rotation |==|  0.24262 0.64764 0.82769 0.73362
USER: genes 2 Torsion [CB]-CA--N-[C] |==|  0.39116
USER: genes 3 Torsion [N]-C--CA-[N] |==|  0.60442
USER: genes 4 Torsion [C]-CA--N-[C] |==|  0.15362
USER: genes 5 Torsion [N]-C--CA-[N] |==|  0.69479
USER: genes 6 Torsion [C]-CA--CB-[CG] |==|  0.23916
USER: genes 7 Torsion [CA]-CB--CG-[SD] |==|  0.84336
USER: genes 8 Torsion [CB]-CG--SD-[CE] |==|  0.74716
USER: genes 9 Torsion [C]-CA--CB-[CG] |==|  0.37413
USER: genes 10 Torsion [CA]-CB--CG-[CD2] |==|  0.99567
USER: genes 11 Torsion [N]-CA--CB-[CG] |==|  0.33270
USER: genes 12 Torsion [CA]-CB--CG-[CD] |==|  0.31348
USER: genes 13 Torsion [CB]-CG--CD-[NE] |==|  0.71019
USER: genes 14 Torsion [CG]-CD--NE-[CZ] |==|  0.34030
USER: genes 15 Torsion [N]-CA--C-[N] |==|  0.84650
USER: genes 16 Torsion [N]-CA--C-[O] |==|  0.40655
USER: genes 17 Torsion [C]-N--CA-[CB] |==|  0.23935
USER: genes 18 Torsion [N]-CA--CB-[CG] |==|  0.23557
USER: genes 19 Torsion [CA]-CB--CG-[CD2] |==|  0.84518
USER: genes 20 Torsion [N]-CA--C-[O] |==|  0.29593
ROOT
ATOM      1  CA  ARG X   4     -20.412  -7.536  42.408  1.00 29.51 LIG 0.18  C 
ENDROOT
BRANCH 1 2
ATOM      2  N   ARG X   4     -19.790  -8.839  42.188  1.00 29.26 LIG-0.35  N 
ATOM      3  C   TRP X   3     -20.497  -9.978  42.074  1.00 30.37 LIG 0.24  C 
ATOM      4 O    TRP X   3     -21.745 -10.023  42.111  1.00 30.38 LIG-0.27  OA
ATOM      5 H    ARG X   4     -18.932  -8.810  42.138  1.00 29.26 LIG 0.16  HD
BRANCH 3 6
ATOM      6  CA  TRP X   3     -19.680 -11.271  41.870  1.00 30.62 LIG 0.18  C 
BRANCH 6 7
ATOM      7  N   TRP X   3     -20.333 -12.210  40.942  1.00 31.45 LIG-0.34  N 
ATOM      8 H    TRP X   3     -20.470 -13.002  41.247  1.00 31.45 LIG 0.16  HD
ATOM      9  C   MET X   2     -20.660 -11.787  39.722  1.00 32.92 LIG 0.26  C 
ATOM     10 O    MET X   2     -20.517 -10.630  39.374  1.00 32.35 LIG-0.27  OA
BRANCH 9 11
ATOM     11  CA  MET X   2     -21.267 -12.770  38.760  1.00 34.28 LIG 0.40  C 
ATOM     12  N   MET X   2     -20.311 -13.113  37.634  1.00 35.36 LIG 0.61  N 
BRANCH 11 13
ATOM     13  CB  MET X   2     -21.648 -14.028  39.525  1.00 35.71 LIG 0.06  C 
BRANCH 13 14
ATOM     14  CG  MET X   2     -23.009 -13.986  40.164  1.00 37.62 LIG 0.08  C 
BRANCH 14 15
ATOM     15 SD   MET X   2     -23.355 -12.628  41.315  1.00 39.06 LIG-0.17  SA
ATOM     16  CE  MET X   2     -22.846 -13.370  42.897  1.00 45.88 LIG 0.09  C 
ENDBRANCH 14 15
ENDBRANCH 13 14
ENDBRANCH 11 13
ENDBRANCH 9 11
ENDBRANCH 6 7
BRANCH 6 17
ATOM     17  CB  TRP X   3     -18.241 -10.953  41.460  1.00 29.85 LIG 0.07  C 
BRANCH 17 18
ATOM     18  CG  TRP X   3     -17.233 -11.772  42.220  1.00 29.58 LIG-0.03  A 
ATOM     19  CD1 TRP X   3     -15.874 -11.742  42.062  1.00 26.84 LIG 0.10  A 
ATOM     20  NE1 TRP X   3     -15.288 -12.632  42.923  1.00 29.47 LIG-0.36  N 
ATOM     21 HE1  TRP X   3     -14.443 -12.778  42.987  1.00 29.47 LIG 0.17  HD
ATOM     22  CE2 TRP X   3     -16.259 -13.257  43.673  1.00 27.62 LIG 0.04  A 
ATOM     23  CZ2 TRP X   3     -16.148 -14.252  44.691  1.00 28.85 LIG 0.03  A 
ATOM     24  CD2 TRP X   3     -17.504 -12.740  43.256  1.00 25.33 LIG-0.00  A 
ATOM     25  CH2 TRP X   3     -17.331 -14.709  45.285  1.00 28.18 LIG 0.00  A 
ATOM     26  CZ3 TRP X   3     -18.581 -14.214  44.871  1.00 26.79 LIG 0.00  A 
ATOM     27  CE3 TRP X   3     -18.678 -13.239  43.845  1.00 25.86 LIG 0.01  A 
ENDBRANCH 17 18
ENDBRANCH 6 17
ENDBRANCH 3 6
ENDBRANCH 1 2
BRANCH 1 28
ATOM     28  CB  ARG X   4     -19.594  -6.674  43.393  1.00 29.55 LIG 0.04  C 
BRANCH 28 29
ATOM     29  CG  ARG X   4     -19.090  -5.356  42.811  1.00 28.17 LIG 0.02  C 
BRANCH 29 30
ATOM     30  CD  ARG X   4     -19.787  -4.170  43.495  1.00 27.09 LIG 0.14  C 
BRANCH 30 31
ATOM     31  NE  ARG X   4     -20.798  -3.610  42.603  1.00 25.46 LIG-0.23  N 
ATOM     32 HE   ARG X   4     -20.549  -3.334  41.828  1.00 25.46 LIG 0.18  HD
ATOM     33  CZ  ARG X   4     -22.087  -3.505  42.929  1.00 27.27 LIG 0.67  C 
ATOM     34  NH2 ARG X   4     -22.965  -2.993  42.071  1.00 24.12 LIG-0.23  N 
ATOM     35  NH1 ARG X   4     -22.490  -3.903  44.134  1.00 21.32 LIG-0.23  N 
ATOM     36 1HH2 ARG X   4     -22.703  -2.726  41.297  1.00 24.12 LIG 0.17  HD
ATOM     37 2HH2 ARG X   4     -23.794  -2.929  42.290  1.00 24.12 LIG 0.17  HD
ATOM     38 2HH1 ARG X   4     -23.319  -3.838  44.353  1.00 21.32 LIG 0.17  HD
ATOM     39 1HH1 ARG X   4     -21.921  -4.224  44.693  1.00 21.32 LIG 0.17  HD
ENDBRANCH 30 31
ENDBRANCH 29 30
ENDBRANCH 28 29
ENDBRANCH 1 28
BRANCH 1 40
ATOM     40  C   ARG X   4     -20.477  -6.829  41.078  1.00 30.38 LIG 0.24  C 
ATOM     41 O    ARG X   4     -21.558  -6.440  40.666  1.00 31.87 LIG-0.27  OA
ATOM     42  N   PRO X   5     -19.334  -6.676  40.391  1.00 30.60 LIG-0.34  N 
ATOM     43  CA  PRO X   5     -19.286  -5.830  39.178  1.00 31.31 LIG 0.18  C 
ATOM     44  CD  PRO X   5     -18.005  -7.238  40.758  1.00 29.99 LIG 0.13  C 
ATOM     45  CB  PRO X   5     -17.784  -5.612  38.969  1.00 30.70 LIG 0.04  C 
ATOM     46  CG  PRO X   5     -17.102  -6.855  39.615  1.00 29.42 LIG 0.02  C 
BRANCH 43 47
ATOM     47  C   PRO X   5     -19.913  -6.385  37.869  1.00 32.23 LIG 0.24  C 
ATOM     48 O    PRO X   5     -20.473  -5.599  37.046  1.00 32.23 LIG-0.27  OA
ATOM     49  N   TRP X   6     -19.810  -7.695  37.660  1.00 33.50 LIG-0.34  N 
ATOM     50 H    TRP X   6     -19.507  -8.255  38.238  1.00 33.50 LIG 0.16  HD
BRANCH 49 51
ATOM     51  CA  TRP X   6     -20.221  -8.292  36.382  1.00 34.66 LIG 0.19  C 
BRANCH 51 52
ATOM     52  CB  TRP X   6     -19.054  -8.229  35.375  1.00 34.41 LIG 0.08  C 
BRANCH 52 53
ATOM     53  CG  TRP X   6     -18.069  -9.378  35.487  1.00 32.39 LIG-0.03  A 
ATOM     54  CD2 TRP X   6     -17.336  -9.792  36.661  1.00 31.68 LIG-0.00  A 
ATOM     55  CE2 TRP X   6     -16.534 -10.886  36.281  1.00 33.29 LIG 0.04  A 
ATOM     56  CE3 TRP X   6     -17.292  -9.351  37.990  1.00 33.66 LIG 0.01  A 
ATOM     57  CZ2 TRP X   6     -15.713 -11.567  37.191  1.00 33.18 LIG 0.03  A 
ATOM     58  NE1 TRP X   6     -16.776 -11.131  34.951  1.00 30.87 LIG-0.36  N 
ATOM     59  CH2 TRP X   6     -15.687 -11.123  38.475  1.00 32.36 LIG 0.00  A 
ATOM     60  CZ3 TRP X   6     -16.455 -10.012  38.885  1.00 32.37 LIG 0.00  A 
ATOM     61 HE1  TRP X   6     -16.417 -11.759  34.485  1.00 30.87 LIG 0.17  HD
ATOM     62  CD1 TRP X   6     -17.682 -10.216  34.485  1.00 30.01 LIG 0.10  A 
ENDBRANCH 52 53
ENDBRANCH 51 52
BRANCH 51 63
ATOM     63  C   TRP X   6     -20.746  -9.734  36.531  1.00 36.76 LIG 0.20  C 
ATOM     64 O    TRP X   6     -21.943 -10.062  36.443  1.00 37.86 LIG-0.65  OA
ATOM     65 OXT  TRP X   6     -19.966 -10.663  36.774  1.00 39.11 LIG-0.65  OA
ENDBRANCH 51 63
ENDBRANCH 49 51
ENDBRANCH 43 47
ENDBRANCH 1 40
TORSDOF 19
ENDMDL
MODEL 5
USER: ADFR SOLUTION from run 118
USER: SCORE 17.686545 LL:  -3.419 LR: -15.171 RR:   0.000 FEB:  -9.503
USER: RMSD 6.280249
USER: SEED 117
USER: STATUS no improvement in best in 16 clusters for 5 generations
USER: GENES 21
USER: genes 0 Translation |==|  0.39620 0.43835 0.53480
USER: genes 1 Rotation |==|  0.65779 0.47512 0.71407 0.92268
USER: genes 2 Torsion [CB]-CA--N-[C] |==|  0.86503
USER: genes 3 Torsion [N]-C--CA-[N] |==|  0.41667
USER: genes 4 Torsion [C]-CA--N-[C] |==|  0.83294
USER: genes 5 Torsion [N]-C--CA-[N] |==|  0.04397
USER: genes 6 Torsion [C]-CA--CB-[CG] |==|  0.28818
USER: genes 7 Torsion [CA]-CB--CG-[SD] |==|  0.54557
USER: genes 8 Torsion [CB]-CG--SD-[CE] |==|  0.53023
USER: genes 9 Torsion [C]-CA--CB-[CG] |==|  0.37249
USER: genes 10 Torsion [CA]-CB--CG-[CD2] |==|  0.68910
USER: genes 11 Torsion [N]-CA--CB-[CG] |==|  0.75083
USER: genes 12 Torsion [CA]-CB--CG-[CD] |==|  0.86462
USER: genes 13 Torsion [CB]-CG--CD-[NE] |==|  0.29141
USER: genes 14 Torsion [CG]-CD--NE-[CZ] |==|  0.35878
USER: genes 15 Torsion [N]-CA--C-[N] |==|  0.47210
USER: genes 16 Torsion [N]-CA--C-[O] |==|  0.86451
USER: genes 17 Torsion [C]-N--CA-[CB] |==|  0.48699
USER: genes 18 Torsion [N]-CA--CB-[CG] |==|  0.07755
USER: genes 19 Torsion [CA]-CB--CG-[CD2] |==|  0.68370
USER: genes 20 Torsion [N]-CA--C-[O] |==|  0.91982
ROOT
ATOM      1  CA  ARG X   4     -23.545 -13.678  39.346  1.00 29.51 LIG 0.18  C 
ENDROOT
BRANCH 1 2
ATOM      2  N   ARG X   4     -23.916 -13.013  38.101  1.00 29.26 LIG-0.35  N 
ATOM      3  C   TRP X   3     -23.098 -12.943  37.035  1.00 30.37 LIG 0.24  C 
ATOM      4 O    TRP X   3     -21.964 -13.467  36.999  1.00 30.38 LIG-0.27  OA
ATOM      5 H    ARG X   4     -24.705 -12.671  38.112  1.00 29.26 LIG 0.16  HD
BRANCH 3 6
ATOM      6  CA  TRP X   3     -23.639 -12.180  35.807  1.00 30.62 LIG 0.18  C 
BRANCH 6 7
ATOM      7  N   TRP X   3     -22.568 -11.543  35.022  1.00 31.45 LIG-0.34  N 
ATOM      8 H    TRP X   3     -22.500 -11.801  34.205  1.00 31.45 LIG 0.16  HD
ATOM      9  C   MET X   2     -21.792 -10.633  35.610  1.00 32.92 LIG 0.26  C 
ATOM     10 O    MET X   2     -21.988 -10.247  36.747  1.00 32.35 LIG-0.27  OA
BRANCH 9 11
ATOM     11  CA  MET X   2     -20.661 -10.036  34.820  1.00 34.28 LIG 0.40  C 
ATOM     12  N   MET X   2     -20.819 -10.297  33.335  1.00 35.36 LIG 0.61  N 
BRANCH 11 13
ATOM     13  CB  MET X   2     -20.616  -8.541  35.087  1.00 35.71 LIG 0.06  C 
BRANCH 13 14
ATOM     14  CG  MET X   2     -19.519  -8.103  36.020  1.00 37.62 LIG 0.08  C 
BRANCH 14 15
ATOM     15 SD   MET X   2     -19.651  -6.450  36.754  1.00 39.06 LIG-0.17  SA
ATOM     16  CE  MET X   2     -17.997  -6.260  37.491  1.00 45.88 LIG 0.09  C 
ENDBRANCH 14 15
ENDBRANCH 13 14
ENDBRANCH 11 13
ENDBRANCH 9 11
ENDBRANCH 6 7
BRANCH 6 17
ATOM     17  CB  TRP X   3     -24.532 -13.079  34.950  1.00 29.85 LIG 0.07  C 
BRANCH 17 18
ATOM     18  CG  TRP X   3     -25.810 -12.397  34.543  1.00 29.58 LIG-0.03  A 
ATOM     19  CD1 TRP X   3     -25.929 -11.340  33.682  1.00 26.84 LIG 0.10  A 
ATOM     20  NE1 TRP X   3     -27.248 -10.987  33.563  1.00 29.47 LIG-0.36  N 
ATOM     21 HE1  TRP X   3     -27.547 -10.344  33.076  1.00 29.47 LIG 0.17  HD
ATOM     22  CE2 TRP X   3     -28.021 -11.820  34.340  1.00 27.62 LIG 0.04  A 
ATOM     23  CZ2 TRP X   3     -29.434 -11.849  34.547  1.00 28.85 LIG 0.03  A 
ATOM     24  CD2 TRP X   3     -27.147 -12.725  34.978  1.00 25.33 LIG-0.00  A 
ATOM     25  CH2 TRP X   3     -29.944 -12.825  35.413  1.00 28.18 LIG 0.00  A 
ATOM     26  CZ3 TRP X   3     -29.084 -13.726  36.066  1.00 26.79 LIG 0.00  A 
ATOM     27  CE3 TRP X   3     -27.680 -13.673  35.866  1.00 25.86 LIG 0.01  A 
ENDBRANCH 17 18
ENDBRANCH 6 17
ENDBRANCH 3 6
ENDBRANCH 1 2
BRANCH 1 28
ATOM     28  CB  ARG X   4     -22.962 -15.083  39.089  1.00 29.55 LIG 0.04  C 
BRANCH 28 29
ATOM     29  CG  ARG X   4     -23.999 -16.203  39.065  1.00 28.17 LIG 0.02  C 
BRANCH 29 30
ATOM     30  CD  ARG X   4     -24.920 -16.102  40.290  1.00 27.09 LIG 0.14  C 
BRANCH 30 31
ATOM     31  NE  ARG X   4     -26.220 -15.574  39.888  1.00 25.46 LIG-0.23  N 
ATOM     32 HE   ARG X   4     -26.241 -14.852  39.421  1.00 25.46 LIG 0.18  HD
ATOM     33  CZ  ARG X   4     -27.379 -16.155  40.206  1.00 27.27 LIG 0.67  C 
ATOM     34  NH2 ARG X   4     -28.533 -15.631  39.803  1.00 24.12 LIG-0.23  N 
ATOM     35  NH1 ARG X   4     -27.373 -17.259  40.948  1.00 21.32 LIG-0.23  N 
ATOM     36 1HH2 ARG X   4     -28.538 -14.912  39.333  1.00 24.12 LIG 0.17  HD
ATOM     37 2HH2 ARG X   4     -29.276 -16.013  40.013  1.00 24.12 LIG 0.17  HD
ATOM     38 2HH1 ARG X   4     -28.114 -17.640  41.158  1.00 21.32 LIG 0.17  HD
ATOM     39 1HH1 ARG X   4     -26.627 -17.592  41.217  1.00 21.32 LIG 0.17  HD
ENDBRANCH 30 31
ENDBRANCH 29 30
ENDBRANCH 28 29
ENDBRANCH 1 28
BRANCH 1 40
ATOM     40  C   ARG X   4     -22.498 -12.831  40.024  1.00 30.38 LIG 0.24  C 
ATOM     41 O    ARG X   4     -21.988 -11.912  39.404  1.00 31.87 LIG-0.27  OA
ATOM     42  N   PRO X   5     -22.158 -13.143  41.284  1.00 30.60 LIG-0.34  N 
ATOM     43  CA  PRO X   5     -21.285 -12.247  42.077  1.00 31.31 LIG 0.18  C 
ATOM     44  CD  PRO X   5     -22.631 -14.323  42.057  1.00 29.99 LIG 0.13  C 
ATOM     45  CB  PRO X   5     -21.487 -12.750  43.510  1.00 30.70 LIG 0.04  C 
ATOM     46  CG  PRO X   5     -21.878 -14.250  43.361  1.00 29.42 LIG 0.02  C 
BRANCH 43 47
ATOM     47  C   PRO X   5     -19.766 -12.222  41.750  1.00 32.23 LIG 0.24  C 
ATOM     48 O    PRO X   5     -19.120 -13.308  41.638  1.00 32.23 LIG-0.27  OA
ATOM     49  N   TRP X   6     -19.207 -11.028  41.576  1.00 33.50 LIG-0.34  N 
ATOM     50 H    TRP X   6     -19.605 -10.280  41.725  1.00 33.50 LIG 0.16  HD
BRANCH 49 51
ATOM     51  CA  TRP X   6     -17.821 -10.903  41.102  1.00 34.66 LIG 0.19  C 
BRANCH 51 52
ATOM     52  CB  TRP X   6     -17.477  -9.415  40.881  1.00 34.41 LIG 0.08  C 
BRANCH 52 53
ATOM     53  CG  TRP X   6     -18.257  -8.455  41.760  1.00 32.39 LIG-0.03  A 
ATOM     54  CD2 TRP X   6     -19.234  -7.478  41.338  1.00 31.68 LIG-0.00  A 
ATOM     55  CE2 TRP X   6     -19.676  -6.809  42.497  1.00 33.29 LIG 0.04  A 
ATOM     56  CE3 TRP X   6     -19.781  -7.117  40.099  1.00 33.66 LIG 0.01  A 
ATOM     57  CZ2 TRP X   6     -20.662  -5.813  42.458  1.00 33.18 LIG 0.03  A 
ATOM     58  NE1 TRP X   6     -19.012  -7.360  43.567  1.00 30.87 LIG-0.36  N 
ATOM     59  CH2 TRP X   6     -21.179  -5.480  41.248  1.00 32.36 LIG 0.00  A 
ATOM     60  CZ3 TRP X   6     -20.740  -6.109  40.061  1.00 32.37 LIG 0.00  A 
ATOM     61 HE1  TRP X   6     -19.116  -7.132  44.390  1.00 30.87 LIG 0.17  HD
ATOM     62  CD1 TRP X   6     -18.159  -8.330  43.113  1.00 30.01 LIG 0.10  A 
ENDBRANCH 52 53
ENDBRANCH 51 52
BRANCH 51 63
ATOM     63  C   TRP X   6     -16.799 -11.574  42.040  1.00 36.76 LIG 0.20  C 
ATOM     64 O    TRP X   6     -16.950 -11.708  43.268  1.00 37.86 LIG-0.65  OA
ATOM     65 OXT  TRP X   6     -15.731 -12.010  41.595  1.00 39.11 LIG-0.65  OA
ENDBRANCH 51 63
ENDBRANCH 49 51
ENDBRANCH 43 47
ENDBRANCH 1 40
TORSDOF 19
ENDMDL
MODEL 6
USER: ADFR SOLUTION from run 130
USER: SCORE 18.204490 LL:  -4.895 LR: -14.950 RR:   0.000 FEB:  -9.282
USER: RMSD 7.548072
USER: SEED 129
USER: STATUS no improvement in best in 6 clusters for 5 generations
USER: GENES 21
USER: genes 0 Translation |==|  0.53693 0.51372 0.67305
USER: genes 1 Rotation |==|  0.36864 0.35028 0.83859 0.80933
USER: genes 2 Torsion [CB]-CA--N-[C] |==|  0.50859
USER: genes 3 Torsion [N]-C--CA-[N] |==|  0.52195
USER: genes 4 Torsion [C]-CA--N-[C] |==|  0.63122
USER: genes 5 Torsion [N]-C--CA-[N] |==|  0.88686
USER: genes 6 Torsion [C]-CA--CB-[CG] |==|  0.40181
USER: genes 7 Torsion [CA]-CB--CG-[SD] |==|  0.91702
USER: genes 8 Torsion [CB]-CG--SD-[CE] |==|  0.39454
USER: genes 9 Torsion [C]-CA--CB-[CG] |==|  0.23409
USER: genes 10 Torsion [CA]-CB--CG-[CD2] |==|  0.62439
USER: genes 11 Torsion [N]-CA--CB-[CG] |==|  0.67993
USER: genes 12 Torsion [CA]-CB--CG-[CD] |==|  0.87349
USER: genes 13 Torsion [CB]-CG--CD-[NE] |==|  0.27344
USER: genes 14 Torsion [CG]-CD--NE-[CZ] |==|  0.63356
USER: genes 15 Torsion [N]-CA--C-[N] |==|  0.86068
USER: genes 16 Torsion [N]-CA--C-[O] |==|  0.00632
USER: genes 17 Torsion [C]-N--CA-[CB] |==|  0.75228
USER: genes 18 Torsion [N]-CA--CB-[CG] |==|  0.11470
USER: genes 19 Torsion [CA]-CB--CG-[CD2] |==|  0.25789
USER: genes 20 Torsion [N]-CA--C-[O] |==|  0.68431
ROOT
ATOM      1  CA  ARG X   4     -20.589 -12.208  41.939  1.00 29.51 LIG 0.18  C 
ENDROOT
BRANCH 1 2
ATOM      2  N   ARG X   4     -19.491 -12.303  40.981  1.00 29.26 LIG-0.35  N 
ATOM      3  C   TRP X   3     -19.529 -11.729  39.764  1.00 30.37 LIG 0.24  C 
ATOM      4 O    TRP X   3     -20.486 -11.037  39.356  1.00 30.38 LIG-0.27  OA
ATOM      5 H    ARG X   4     -18.820 -12.758  41.266  1.00 29.26 LIG 0.16  HD
BRANCH 3 6
ATOM      6  CA  TRP X   3     -18.293 -11.949  38.867  1.00 30.62 LIG 0.18  C 
BRANCH 6 7
ATOM      7  N   TRP X   3     -18.337 -11.140  37.637  1.00 31.45 LIG-0.34  N 
ATOM      8 H    TRP X   3     -18.541 -10.311  37.743  1.00 31.45 LIG 0.16  HD
ATOM      9  C   MET X   2     -18.067 -11.724  36.471  1.00 32.92 LIG 0.26  C 
ATOM     10 O    MET X   2     -17.703 -12.882  36.392  1.00 32.35 LIG-0.27  OA
BRANCH 9 11
ATOM     11  CA  MET X   2     -18.178 -10.905  35.215  1.00 34.28 LIG 0.40  C 
ATOM     12  N   MET X   2     -19.391  -9.996  35.246  1.00 35.36 LIG 0.61  N 
BRANCH 11 13
ATOM     13  CB  MET X   2     -16.911 -10.081  35.057  1.00 35.71 LIG 0.06  C 
BRANCH 13 14
ATOM     14  CG  MET X   2     -16.458  -9.891  33.635  1.00 37.62 LIG 0.08  C 
BRANCH 14 15
ATOM     15 SD   MET X   2     -16.851 -11.203  32.447  1.00 39.06 LIG-0.17  SA
ATOM     16  CE  MET X   2     -17.240 -10.226  30.961  1.00 45.88 LIG 0.09  C 
ENDBRANCH 14 15
ENDBRANCH 13 14
ENDBRANCH 11 13
ENDBRANCH 9 11
ENDBRANCH 6 7
BRANCH 6 17
ATOM     17  CB  TRP X   3     -16.998 -11.741  39.654  1.00 29.85 LIG 0.07  C 
BRANCH 17 18
ATOM     18  CG  TRP X   3     -16.578 -12.976  40.404  1.00 29.58 LIG-0.03  A 
ATOM     19  CD1 TRP X   3     -16.565 -14.257  39.921  1.00 26.84 LIG 0.10  A 
ATOM     20  NE1 TRP X   3     -16.130 -15.114  40.897  1.00 29.47 LIG-0.36  N 
ATOM     21 HE1  TRP X   3     -16.051 -15.966  40.809  1.00 29.47 LIG 0.17  HD
ATOM     22  CE2 TRP X   3     -15.838 -14.404  42.040  1.00 27.62 LIG 0.04  A 
ATOM     23  CZ2 TRP X   3     -15.360 -14.848  43.310  1.00 28.85 LIG 0.03  A 
ATOM     24  CD2 TRP X   3     -16.110 -13.047  41.768  1.00 25.33 LIG-0.00  A 
ATOM     25  CH2 TRP X   3     -15.155 -13.879  44.301  1.00 28.18 LIG 0.00  A 
ATOM     26  CZ3 TRP X   3     -15.434 -12.523  44.050  1.00 26.79 LIG 0.00  A 
ATOM     27  CE3 TRP X   3     -15.928 -12.100  42.789  1.00 25.86 LIG 0.01  A 
ENDBRANCH 17 18
ENDBRANCH 6 17
ENDBRANCH 3 6
ENDBRANCH 1 2
BRANCH 1 28
ATOM     28  CB  ARG X   4     -20.239 -12.896  43.275  1.00 29.55 LIG 0.04  C 
BRANCH 28 29
ATOM     29  CG  ARG X   4     -21.099 -14.113  43.604  1.00 28.17 LIG 0.02  C 
BRANCH 29 30
ATOM     30  CD  ARG X   4     -22.581 -13.804  43.345  1.00 27.09 LIG 0.14  C 
BRANCH 30 31
ATOM     31  NE  ARG X   4     -22.974 -14.330  42.041  1.00 25.46 LIG-0.23  N 
ATOM     32 HE   ARG X   4     -22.759 -15.139  41.846  1.00 25.46 LIG 0.18  HD
ATOM     33  CZ  ARG X   4     -23.652 -13.619  41.137  1.00 27.27 LIG 0.67  C 
ATOM     34  NH2 ARG X   4     -23.990 -14.156  39.968  1.00 24.12 LIG-0.23  N 
ATOM     35  NH1 ARG X   4     -23.975 -12.357  41.408  1.00 21.32 LIG-0.23  N 
ATOM     36 1HH2 ARG X   4     -23.772 -14.967  39.788  1.00 24.12 LIG 0.17  HD
ATOM     37 2HH2 ARG X   4     -24.427 -13.690  39.391  1.00 24.12 LIG 0.17  HD
ATOM     38 2HH1 ARG X   4     -24.410 -11.892  40.831  1.00 21.32 LIG 0.17  HD
ATOM     39 1HH1 ARG X   4     -23.747 -12.007  42.160  1.00 21.32 LIG 0.17  HD
ENDBRANCH 30 31
ENDBRANCH 29 30
ENDBRANCH 28 29
ENDBRANCH 1 28
BRANCH 1 40
ATOM     40  C   ARG X   4     -20.850 -10.746  42.194  1.00 30.38 LIG 0.24  C 
ATOM     41 O    ARG X   4     -21.989 -10.321  42.093  1.00 31.87 LIG-0.27  OA
ATOM     42  N   PRO X   5     -19.803  -9.966  42.505  1.00 30.60 LIG-0.34  N 
ATOM     43  CA  PRO X   5     -20.004  -8.570  42.955  1.00 31.31 LIG 0.18  C 
ATOM     44  CD  PRO X   5     -18.372 -10.378  42.515  1.00 29.99 LIG 0.13  C 
ATOM     45  CB  PRO X   5     -18.648  -8.208  43.569  1.00 30.70 LIG 0.04  C 
ATOM     46  CG  PRO X   5     -17.616  -9.114  42.833  1.00 29.42 LIG 0.02  C 
BRANCH 43 47
ATOM     47  C   PRO X   5     -20.390  -7.504  41.893  1.00 32.23 LIG 0.24  C 
ATOM     48 O    PRO X   5     -20.568  -7.844  40.685  1.00 32.23 LIG-0.27  OA
ATOM     49  N   TRP X   6     -20.540  -6.254  42.321  1.00 33.50 LIG-0.34  N 
ATOM     50 H    TRP X   6     -20.347  -5.987  43.116  1.00 33.50 LIG 0.16  HD
BRANCH 49 51
ATOM     51  CA  TRP X   6     -21.064  -5.207  41.433  1.00 34.66 LIG 0.19  C 
BRANCH 51 52
ATOM     52  CB  TRP X   6     -19.902  -4.538  40.670  1.00 34.41 LIG 0.08  C 
BRANCH 52 53
ATOM     53  CG  TRP X   6     -18.842  -5.504  40.173  1.00 32.39 LIG-0.03  A 
ATOM     54  CD2 TRP X   6     -18.777  -6.142  38.878  1.00 31.68 LIG-0.00  A 
ATOM     55  CE2 TRP X   6     -17.632  -6.964  38.881  1.00 33.29 LIG 0.04  A 
ATOM     56  CE3 TRP X   6     -19.566  -6.086  37.722  1.00 33.66 LIG 0.01  A 
ATOM     57  CZ2 TRP X   6     -17.240  -7.707  37.759  1.00 33.18 LIG 0.03  A 
ATOM     58  NE1 TRP X   6     -17.028  -6.823  40.107  1.00 30.87 LIG-0.36  N 
ATOM     59  CH2 TRP X   6     -18.019  -7.637  36.648  1.00 32.36 LIG 0.00  A 
ATOM     60  CZ3 TRP X   6     -19.189  -6.847  36.619  1.00 32.37 LIG 0.00  A 
ATOM     61 HE1  TRP X   6     -16.302  -7.213  40.354  1.00 30.87 LIG 0.17  HD
ATOM     62  CD1 TRP X   6     -17.767  -5.962  40.873  1.00 30.01 LIG 0.10  A 
ENDBRANCH 52 53
ENDBRANCH 51 52
BRANCH 51 63
ATOM     63  C   TRP X   6     -22.140  -5.725  40.458  1.00 36.76 LIG 0.20  C 
ATOM     64 O    TRP X   6     -22.002  -5.786  39.223  1.00 37.86 LIG-0.65  OA
ATOM     65 OXT  TRP X   6     -23.240  -6.101  40.880  1.00 39.11 LIG-0.65  OA
ENDBRANCH 51 63
ENDBRANCH 49 51
ENDBRANCH 43 47
ENDBRANCH 1 40
TORSDOF 19
ENDMDL
MODEL 7
USER: ADFR SOLUTION from run 172
USER: SCORE 19.027852 LL:  -5.329 LR: -14.903 RR:   0.000 FEB:  -9.236
USER: RMSD 3.467684
USER: SEED 171
USER: STATUS no improvement in best in 4 clusters for 5 generations
USER: GENES 21
USER: genes 0 Translation |==|  0.55546 0.58436 0.49667
USER: genes 1 Rotation |==|  0.58917 0.39495 0.67115 0.94913
USER: genes 2 Torsion [CB]-CA--N-[C] |==|  0.26667
USER: genes 3 Torsion [N]-C--CA-[N] |==|  0.40828
USER: genes 4 Torsion [C]-CA--N-[C] |==|  0.64162
USER: genes 5 Torsion [N]-C--CA-[N] |==|  0.39491
USER: genes 6 Torsion [C]-CA--CB-[CG] |==|  0.13139
USER: genes 7 Torsion [CA]-CB--CG-[SD] |==|  0.15066
USER: genes 8 Torsion [CB]-CG--SD-[CE] |==|  0.50863
USER: genes 9 Torsion [C]-CA--CB-[CG] |==|  0.14841
USER: genes 10 Torsion [CA]-CB--CG-[CD2] |==|  0.67806
USER: genes 11 Torsion [N]-CA--CB-[CG] |==|  0.71732
USER: genes 12 Torsion [CA]-CB--CG-[CD] |==|  0.79340
USER: genes 13 Torsion [CB]-CG--CD-[NE] |==|  0.45495
USER: genes 14 Torsion [CG]-CD--NE-[CZ] |==|  0.28968
USER: genes 15 Torsion [N]-CA--C-[N] |==|  0.38573
USER: genes 16 Torsion [N]-CA--C-[O] |==|  0.59563
USER: genes 17 Torsion [C]-N--CA-[CB] |==|  0.15946
USER: genes 18 Torsion [N]-CA--CB-[CG] |==|  0.14965
USER: genes 19 Torsion [CA]-CB--CG-[CD2] |==|  0.41477
USER: genes 20 Torsion [N]-CA--C-[O] |==|  0.13500
ROOT
ATOM      1  CA  ARG X   4     -20.200 -10.831  38.631  1.00 29.51 LIG 0.18  C 
ENDROOT
BRANCH 1 2
ATOM      2  N   ARG X   4     -19.948 -10.306  37.292  1.00 29.26 LIG-0.35  N 
ATOM      3  C   TRP X   3     -20.929 -10.052  36.407  1.00 30.37 LIG 0.24  C 
ATOM      4 O    TRP X   3     -22.143 -10.208  36.658  1.00 30.38 LIG-0.27  OA
ATOM      5 H    ARG X   4     -19.115 -10.174  37.123  1.00 29.26 LIG 0.16  HD
BRANCH 3 6
ATOM      6  CA  TRP X   3     -20.484  -9.524  35.027  1.00 30.62 LIG 0.18  C 
BRANCH 6 7
ATOM      7  N   TRP X   3     -21.365  -9.979  33.938  1.00 31.45 LIG-0.34  N 
ATOM      8 H    TRP X   3     -22.206  -9.851  34.061  1.00 31.45 LIG 0.16  HD
ATOM      9  C   MET X   2     -20.820 -10.546  32.863  1.00 32.92 LIG 0.26  C 
ATOM     10 O    MET X   2     -19.616 -10.625  32.709  1.00 32.35 LIG-0.27  OA
BRANCH 9 11
ATOM     11  CA  MET X   2     -21.731 -11.066  31.786  1.00 34.28 LIG 0.40  C 
ATOM     12  N   MET X   2     -21.160 -10.820  30.404  1.00 35.36 LIG 0.61  N 
BRANCH 11 13
ATOM     13  CB  MET X   2     -21.945 -12.555  32.007  1.00 35.71 LIG 0.06  C 
BRANCH 13 14
ATOM     14  CG  MET X   2     -22.281 -12.938  33.422  1.00 37.62 LIG 0.08  C 
BRANCH 14 15
ATOM     15 SD   MET X   2     -23.689 -12.106  34.206  1.00 39.06 LIG-0.17  SA
ATOM     16  CE  MET X   2     -23.629 -12.816  35.881  1.00 45.88 LIG 0.09  C 
ENDBRANCH 14 15
ENDBRANCH 13 14
ENDBRANCH 11 13
ENDBRANCH 9 11
ENDBRANCH 6 7
BRANCH 6 17
ATOM     17  CB  TRP X   3     -20.323  -8.002  35.047  1.00 29.85 LIG 0.07  C 
BRANCH 17 18
ATOM     18  CG  TRP X   3     -19.415  -7.536  36.153  1.00 29.58 LIG-0.03  A 
ATOM     19  CD1 TRP X   3     -18.081  -7.814  36.282  1.00 26.84 LIG 0.10  A 
ATOM     20  NE1 TRP X   3     -17.594  -7.224  37.419  1.00 29.47 LIG-0.36  N 
ATOM     21 HE1  TRP X   3     -16.782  -7.275  37.695  1.00 29.47 LIG 0.17  HD
ATOM     22  CE2 TRP X   3     -18.605  -6.536  38.052  1.00 27.62 LIG 0.04  A 
ATOM     23  CZ2 TRP X   3     -18.593  -5.772  39.258  1.00 28.85 LIG 0.03  A 
ATOM     24  CD2 TRP X   3     -19.774  -6.711  37.282  1.00 25.33 LIG-0.00  A 
ATOM     25  CH2 TRP X   3     -19.795  -5.179  39.664  1.00 28.18 LIG 0.00  A 
ATOM     26  CZ3 TRP X   3     -20.972  -5.355  38.914  1.00 26.79 LIG 0.00  A 
ATOM     27  CE3 TRP X   3     -20.974  -6.134  37.728  1.00 25.86 LIG 0.01  A 
ENDBRANCH 17 18
ENDBRANCH 6 17
ENDBRANCH 3 6
ENDBRANCH 1 2
BRANCH 1 28
ATOM     28  CB  ARG X   4     -20.043 -12.365  38.680  1.00 29.55 LIG 0.04  C 
BRANCH 28 29
ATOM     29  CG  ARG X   4     -21.361 -13.136  38.670  1.00 28.17 LIG 0.02  C 
BRANCH 29 30
ATOM     30  CD  ARG X   4     -22.050 -13.030  40.039  1.00 27.09 LIG 0.14  C 
BRANCH 30 31
ATOM     31  NE  ARG X   4     -23.451 -13.424  39.917  1.00 25.46 LIG-0.23  N 
ATOM     32 HE   ARG X   4     -24.000 -12.870  39.555  1.00 25.46 LIG 0.18  HD
ATOM     33  CZ  ARG X   4     -23.922 -14.598  40.339  1.00 27.27 LIG 0.67  C 
ATOM     34  NH2 ARG X   4     -25.208 -14.905  40.194  1.00 24.12 LIG-0.23  N 
ATOM     35  NH1 ARG X   4     -23.095 -15.460  40.926  1.00 21.32 LIG-0.23  N 
ATOM     36 1HH2 ARG X   4     -25.745 -14.344  39.825  1.00 24.12 LIG 0.17  HD
ATOM     37 2HH2 ARG X   4     -25.503 -15.665  40.469  1.00 24.12 LIG 0.17  HD
ATOM     38 2HH1 ARG X   4     -23.390 -16.219  41.201  1.00 21.32 LIG 0.17  HD
ATOM     39 1HH1 ARG X   4     -22.266 -15.258  41.029  1.00 21.32 LIG 0.17  HD
ENDBRANCH 30 31
ENDBRANCH 29 30
ENDBRANCH 28 29
ENDBRANCH 1 28
BRANCH 1 40
ATOM     40  C   ARG X   4     -19.196 -10.207  39.566  1.00 30.38 LIG 0.24  C 
ATOM     41 O    ARG X   4     -18.036 -10.098  39.201  1.00 31.87 LIG-0.27  OA
ATOM     42  N   PRO X   5     -19.623  -9.814  40.776  1.00 30.60 LIG-0.34  N 
ATOM     43  CA  PRO X   5     -18.747  -9.023  41.669  1.00 31.31 LIG 0.18  C 
ATOM     44  CD  PRO X   5     -20.981 -10.034  41.344  1.00 29.99 LIG 0.13  C 
ATOM     45  CB  PRO X   5     -19.726  -8.466  42.707  1.00 30.70 LIG 0.04  C 
ATOM     46  CG  PRO X   5     -20.899  -9.490  42.747  1.00 29.42 LIG 0.02  C 
BRANCH 43 47
ATOM     47  C   PRO X   5     -17.586  -9.756  42.397  1.00 32.23 LIG 0.24  C 
ATOM     48 O    PRO X   5     -17.241  -9.402  43.565  1.00 32.23 LIG-0.27  OA
ATOM     49  N   TRP X   6     -17.008 -10.763  41.748  1.00 33.50 LIG-0.34  N 
ATOM     50 H    TRP X   6     -17.170 -10.968  40.928  1.00 33.50 LIG 0.16  HD
BRANCH 49 51
ATOM     51  CA  TRP X   6     -16.018 -11.622  42.411  1.00 34.66 LIG 0.19  C 
BRANCH 51 52
ATOM     52  CB  TRP X   6     -16.640 -12.262  43.670  1.00 34.41 LIG 0.08  C 
BRANCH 52 53
ATOM     53  CG  TRP X   6     -17.938 -13.005  43.417  1.00 32.39 LIG-0.03  A 
ATOM     54  CD2 TRP X   6     -18.441 -14.157  44.129  1.00 31.68 LIG-0.00  A 
ATOM     55  CE2 TRP X   6     -19.668 -14.508  43.532  1.00 33.29 LIG 0.04  A 
ATOM     56  CE3 TRP X   6     -17.978 -14.911  45.215  1.00 33.66 LIG 0.01  A 
ATOM     57  CZ2 TRP X   6     -20.456 -15.568  44.002  1.00 33.18 LIG 0.03  A 
ATOM     58  NE1 TRP X   6     -19.904 -13.609  42.519  1.00 30.87 LIG-0.36  N 
ATOM     59  CH2 TRP X   6     -19.988 -16.285  45.056  1.00 32.36 LIG 0.00  A 
ATOM     60  CZ3 TRP X   6     -18.749 -15.981  45.662  1.00 32.37 LIG 0.00  A 
ATOM     61 HE1  TRP X   6     -20.597 -13.601  42.010  1.00 30.87 LIG 0.17  HD
ATOM     62  CD1 TRP X   6     -18.858 -12.727  42.452  1.00 30.01 LIG 0.10  A 
ENDBRANCH 52 53
ENDBRANCH 51 52
BRANCH 51 63
ATOM     63  C   TRP X   6     -15.430 -12.698  41.477  1.00 36.76 LIG 0.20  C 
ATOM     64 O    TRP X   6     -14.988 -12.476  40.335  1.00 37.86 LIG-0.65  OA
ATOM     65 OXT  TRP X   6     -15.389 -13.883  41.831  1.00 39.11 LIG-0.65  OA
ENDBRANCH 51 63
ENDBRANCH 49 51
ENDBRANCH 43 47
ENDBRANCH 1 40
TORSDOF 19
ENDMDL
MODEL 8
USER: ADFR SOLUTION from run 81
USER: SCORE 18.302688 LL:  -5.415 LR: -14.886 RR:   0.000 FEB:  -9.218
USER: RMSD 8.582162
USER: SEED 80
USER: STATUS no improvement in best in 21 clusters for 5 generations
USER: GENES 21
USER: genes 0 Translation |==|  0.55572 0.72649 0.68842
USER: genes 1 Rotation |==|  0.27593 0.66930 0.81171 0.77198
USER: genes 2 Torsion [CB]-CA--N-[C] |==|  0.37594
USER: genes 3 Torsion [N]-C--CA-[N] |==|  0.65551
USER: genes 4 Torsion [C]-CA--N-[C] |==|  0.16667
USER: genes 5 Torsion [N]-C--CA-[N] |==|  0.74014
USER: genes 6 Torsion [C]-CA--CB-[CG] |==|  0.42788
USER: genes 7 Torsion [CA]-CB--CG-[SD] |==|  0.96538
USER: genes 8 Torsion [CB]-CG--SD-[CE] |==|  0.65824
USER: genes 9 Torsion [C]-CA--CB-[CG] |==|  0.27013
USER: genes 10 Torsion [CA]-CB--CG-[CD2] |==|  0.10138
USER: genes 11 Torsion [N]-CA--CB-[CG] |==|  0.36262
USER: genes 12 Torsion [CA]-CB--CG-[CD] |==|  0.24408
USER: genes 13 Torsion [CB]-CG--CD-[NE] |==|  0.72503
USER: genes 14 Torsion [CG]-CD--NE-[CZ] |==|  0.81640
USER: genes 15 Torsion [N]-CA--C-[N] |==|  0.83830
USER: genes 16 Torsion [N]-CA--C-[O] |==|  0.41278
USER: genes 17 Torsion [C]-N--CA-[CB] |==|  0.22737
USER: genes 18 Torsion [N]-CA--CB-[CG] |==|  0.16201
USER: genes 19 Torsion [CA]-CB--CG-[CD2] |==|  0.40947
USER: genes 20 Torsion [N]-CA--C-[O] |==|  0.70070
ROOT
ATOM      1  CA  ARG X   4     -20.195  -8.059  42.227  1.00 29.51 LIG 0.18  C 
ENDROOT
BRANCH 1 2
ATOM      2  N   ARG X   4     -19.877  -9.446  41.895  1.00 29.26 LIG-0.35  N 
ATOM      3  C   TRP X   3     -20.804 -10.421  41.858  1.00 30.37 LIG 0.24  C 
ATOM      4 O    TRP X   3     -22.020 -10.227  42.069  1.00 30.38 LIG-0.27  OA
ATOM      5 H    ARG X   4     -19.045  -9.580  41.726  1.00 29.26 LIG 0.16  HD
BRANCH 3 6
ATOM      6  CA  TRP X   3     -20.292 -11.836  41.514  1.00 30.62 LIG 0.18  C 
BRANCH 6 7
ATOM      7  N   TRP X   3     -20.985 -12.419  40.353  1.00 31.45 LIG-0.34  N 
ATOM      8 H    TRP X   3     -21.407 -13.154  40.501  1.00 31.45 LIG 0.16  HD
ATOM      9  C   MET X   2     -20.918 -11.792  39.180  1.00 32.92 LIG 0.26  C 
ATOM     10 O    MET X   2     -20.376 -10.710  39.051  1.00 32.35 LIG-0.27  OA
BRANCH 9 11
ATOM     11  CA  MET X   2     -21.574 -12.428  37.987  1.00 34.28 LIG 0.40  C 
ATOM     12  N   MET X   2     -20.597 -13.277  37.199  1.00 35.36 LIG 0.61  N 
BRANCH 11 13
ATOM     13  CB  MET X   2     -22.738 -13.280  38.468  1.00 35.71 LIG 0.06  C 
BRANCH 13 14
ATOM     14  CG  MET X   2     -23.833 -13.476  37.454  1.00 37.62 LIG 0.08  C 
BRANCH 14 15
ATOM     15 SD   MET X   2     -23.805 -12.429  35.974  1.00 39.06 LIG-0.17  SA
ATOM     16  CE  MET X   2     -25.445 -11.644  36.069  1.00 45.88 LIG 0.09  C 
ENDBRANCH 14 15
ENDBRANCH 13 14
ENDBRANCH 11 13
ENDBRANCH 9 11
ENDBRANCH 6 7
BRANCH 6 17
ATOM     17  CB  TRP X   3     -18.771 -11.846  41.349  1.00 29.85 LIG 0.07  C 
BRANCH 17 18
ATOM     18  CG  TRP X   3     -18.061 -12.296  42.597  1.00 29.58 LIG-0.03  A 
ATOM     19  CD1 TRP X   3     -16.871 -11.816  43.074  1.00 26.84 LIG 0.10  A 
ATOM     20  NE1 TRP X   3     -16.537 -12.474  44.229  1.00 29.47 LIG-0.36  N 
ATOM     21 HE1  TRP X   3     -15.826 -12.334  44.692  1.00 29.47 LIG 0.17  HD
ATOM     22  CE2 TRP X   3     -17.514 -13.395  44.535  1.00 27.62 LIG 0.04  A 
ATOM     23  CZ2 TRP X   3     -17.616 -14.311  45.626  1.00 28.85 LIG 0.03  A 
ATOM     24  CD2 TRP X   3     -18.495 -13.313  43.525  1.00 25.33 LIG-0.00  A 
ATOM     25  CH2 TRP X   3     -18.743 -15.141  45.674  1.00 28.18 LIG 0.00  A 
ATOM     26  CZ3 TRP X   3     -19.723 -15.081  44.667  1.00 26.79 LIG 0.00  A 
ATOM     27  CE3 TRP X   3     -19.599 -14.179  43.578  1.00 25.86 LIG 0.01  A 
ENDBRANCH 17 18
ENDBRANCH 6 17
ENDBRANCH 3 6
ENDBRANCH 1 2
BRANCH 1 28
ATOM     28  CB  ARG X   4     -19.171  -7.462  43.214  1.00 29.55 LIG 0.04  C 
BRANCH 28 29
ATOM     29  CG  ARG X   4     -18.610  -6.104  42.798  1.00 28.17 LIG 0.02  C 
BRANCH 29 30
ATOM     30  CD  ARG X   4     -19.512  -4.974  43.318  1.00 27.09 LIG 0.14  C 
BRANCH 30 31
ATOM     31  NE  ARG X   4     -20.396  -4.518  42.249  1.00 25.46 LIG-0.23  N 
ATOM     32 HE   ARG X   4     -21.241  -4.651  42.334  1.00 25.46 LIG 0.18  HD
ATOM     33  CZ  ARG X   4     -19.960  -3.904  41.147  1.00 27.27 LIG 0.67  C 
ATOM     34  NH2 ARG X   4     -20.815  -3.503  40.210  1.00 24.12 LIG-0.23  N 
ATOM     35  NH1 ARG X   4     -18.654  -3.709  40.983  1.00 21.32 LIG-0.23  N 
ATOM     36 1HH2 ARG X   4     -21.658  -3.638  40.311  1.00 24.12 LIG 0.17  HD
ATOM     37 2HH2 ARG X   4     -20.524  -3.108  39.503  1.00 24.12 LIG 0.17  HD
ATOM     38 2HH1 ARG X   4     -18.364  -3.316  40.276  1.00 21.32 LIG 0.17  HD
ATOM     39 1HH1 ARG X   4     -18.100  -3.978  41.583  1.00 21.32 LIG 0.17  HD
ENDBRANCH 30 31
ENDBRANCH 29 30
ENDBRANCH 28 29
ENDBRANCH 1 28
BRANCH 1 40
ATOM     40  C   ARG X   4     -20.163  -7.263  40.948  1.00 30.38 LIG 0.24  C 
ATOM     41 O    ARG X   4     -21.169  -6.671  40.593  1.00 31.87 LIG-0.27  OA
ATOM     42  N   PRO X   5     -19.023  -7.259  40.239  1.00 30.60 LIG-0.34  N 
ATOM     43  CA  PRO X   5     -18.854  -6.352  39.081  1.00 31.31 LIG 0.18  C 
ATOM     44  CD  PRO X   5     -17.803  -8.060  40.530  1.00 29.99 LIG 0.13  C 
ATOM     45  CB  PRO X   5     -17.341  -6.377  38.842  1.00 30.70 LIG 0.04  C 
ATOM     46  CG  PRO X   5     -16.868  -7.757  39.387  1.00 29.42 LIG 0.02  C 
BRANCH 43 47
ATOM     47  C   PRO X   5     -19.590  -6.703  37.758  1.00 32.23 LIG 0.24  C 
ATOM     48 O    PRO X   5     -19.986  -5.780  36.984  1.00 32.23 LIG-0.27  OA
ATOM     49  N   TRP X   6     -19.756  -7.994  37.485  1.00 33.50 LIG-0.34  N 
ATOM     50 H    TRP X   6     -19.568  -8.633  38.031  1.00 33.50 LIG 0.16  HD
BRANCH 49 51
ATOM     51  CA  TRP X   6     -20.288  -8.432  36.188  1.00 34.66 LIG 0.19  C 
BRANCH 51 52
ATOM     52  CB  TRP X   6     -19.159  -8.451  35.138  1.00 34.41 LIG 0.08  C 
BRANCH 52 53
ATOM     53  CG  TRP X   6     -17.989  -9.350  35.494  1.00 32.39 LIG-0.03  A 
ATOM     54  CD2 TRP X   6     -17.149 -10.096  34.585  1.00 31.68 LIG-0.00  A 
ATOM     55  CE2 TRP X   6     -16.212 -10.797  35.371  1.00 33.29 LIG 0.04  A 
ATOM     56  CE3 TRP X   6     -17.094 -10.225  33.191  1.00 33.66 LIG 0.01  A 
ATOM     57  CZ2 TRP X   6     -15.211 -11.599  34.806  1.00 33.18 LIG 0.03  A 
ATOM     58  NE1 TRP X   6     -16.463 -10.484  36.685  1.00 30.87 LIG-0.36  N 
ATOM     59  CH2 TRP X   6     -15.175 -11.709  33.453  1.00 32.36 LIG 0.00  A 
ATOM     60  CZ3 TRP X   6     -16.115 -11.045  32.635  1.00 32.37 LIG 0.00  A 
ATOM     61 HE1  TRP X   6     -16.018 -10.776  37.361  1.00 30.87 LIG 0.17  HD
ATOM     62  CD1 TRP X   6     -17.533  -9.632  36.746  1.00 30.01 LIG 0.10  A 
ENDBRANCH 52 53
ENDBRANCH 51 52
BRANCH 51 63
ATOM     63  C   TRP X   6     -21.002  -9.797  36.258  1.00 36.76 LIG 0.20  C 
ATOM     64 O    TRP X   6     -20.547 -10.856  35.790  1.00 37.86 LIG-0.65  OA
ATOM     65 OXT  TRP X   6     -22.115  -9.897  36.789  1.00 39.11 LIG-0.65  OA
ENDBRANCH 51 63
ENDBRANCH 49 51
ENDBRANCH 43 47
ENDBRANCH 1 40
TORSDOF 19
ENDMDL
MODEL 9
USER: ADFR SOLUTION from run 71
USER: SCORE 18.502496 LL:  -4.197 LR: -14.827 RR:   0.000 FEB:  -9.159
USER: RMSD 6.563187
USER: SEED 70
USER: STATUS no improvement in best in 13 clusters for 5 generations
USER: GENES 21
USER: genes 0 Translation |==|  0.55413 0.64291 0.28328
USER: genes 1 Rotation |==|  0.14768 0.55595 0.26194 0.75703
USER: genes 2 Torsion [CB]-CA--N-[C] |==|  0.85102
USER: genes 3 Torsion [N]-C--CA-[N] |==|  0.98544
USER: genes 4 Torsion [C]-CA--N-[C] |==|  0.20699
USER: genes 5 Torsion [N]-C--CA-[N] |==|  0.72949
USER: genes 6 Torsion [C]-CA--CB-[CG] |==|  0.28606
USER: genes 7 Torsion [CA]-CB--CG-[SD] |==|  0.58888
USER: genes 8 Torsion [CB]-CG--SD-[CE] |==|  0.33261
USER: genes 9 Torsion [C]-CA--CB-[CG] |==|  0.47104
USER: genes 10 Torsion [CA]-CB--CG-[CD2] |==|  0.95401
USER: genes 11 Torsion [N]-CA--CB-[CG] |==|  0.37030
USER: genes 12 Torsion [CA]-CB--CG-[CD] |==|  0.50241
USER: genes 13 Torsion [CB]-CG--CD-[NE] |==|  0.21393
USER: genes 14 Torsion [CG]-CD--NE-[CZ] |==|  0.42832
USER: genes 15 Torsion [N]-CA--C-[N] |==|  0.37776
USER: genes 16 Torsion [N]-CA--C-[O] |==|  0.87908
USER: genes 17 Torsion [C]-N--CA-[CB] |==|  0.28922
USER: genes 18 Torsion [N]-CA--CB-[CG] |==|  0.64526
USER: genes 19 Torsion [CA]-CB--CG-[CD2] |==|  0.14840
USER: genes 20 Torsion [N]-CA--C-[O] |==|  0.69104
ROOT
ATOM      1  CA  ARG X   4     -20.228  -9.689  34.630  1.00 29.51 LIG 0.18  C 
ENDROOT
BRANCH 1 2
ATOM      2  N   ARG X   4     -21.489 -10.424  34.573  1.00 29.26 LIG-0.35  N 
ATOM      3  C   TRP X   3     -22.293 -10.586  35.640  1.00 30.37 LIG 0.24  C 
ATOM      4 O    TRP X   3     -22.055 -10.096  36.764  1.00 30.38 LIG-0.27  OA
ATOM      5 H    ARG X   4     -21.669 -10.743  33.795  1.00 29.26 LIG 0.16  HD
BRANCH 3 6
ATOM      6  CA  TRP X   3     -23.575 -11.412  35.409  1.00 30.62 LIG 0.18  C 
BRANCH 6 7
ATOM      7  N   TRP X   3     -23.758 -11.787  33.997  1.00 31.45 LIG-0.34  N 
ATOM      8 H    TRP X   3     -24.364 -11.351  33.571  1.00 31.45 LIG 0.16  HD
ATOM      9  C   MET X   2     -22.996 -12.750  33.482  1.00 32.92 LIG 0.26  C 
ATOM     10 O    MET X   2     -22.096 -13.275  34.111  1.00 32.35 LIG-0.27  OA
BRANCH 9 11
ATOM     11  CA  MET X   2     -23.234 -13.170  32.058  1.00 34.28 LIG 0.40  C 
ATOM     12  N   MET X   2     -24.107 -14.407  31.979  1.00 35.36 LIG 0.61  N 
BRANCH 11 13
ATOM     13  CB  MET X   2     -23.890 -12.019  31.314  1.00 35.71 LIG 0.06  C 
BRANCH 13 14
ATOM     14  CG  MET X   2     -22.966 -11.247  30.412  1.00 37.62 LIG 0.08  C 
BRANCH 14 15
ATOM     15 SD   MET X   2     -23.291  -9.476  30.192  1.00 39.06 LIG-0.17  SA
ATOM     16  CE  MET X   2     -21.741  -8.755  30.817  1.00 45.88 LIG 0.09  C 
ENDBRANCH 14 15
ENDBRANCH 13 14
ENDBRANCH 11 13
ENDBRANCH 9 11
ENDBRANCH 6 7
BRANCH 6 17
ATOM     17  CB  TRP X   3     -23.625 -12.623  36.343  1.00 29.85 LIG 0.07  C 
BRANCH 17 18
ATOM     18  CG  TRP X   3     -24.965 -13.307  36.326  1.00 29.58 LIG-0.03  A 
ATOM     19  CD1 TRP X   3     -25.242 -14.566  36.784  1.00 26.84 LIG 0.10  A 
ATOM     20  NE1 TRP X   3     -26.570 -14.846  36.593  1.00 29.47 LIG-0.36  N 
ATOM     21 HE1  TRP X   3     -26.956 -15.585  36.803  1.00 29.47 LIG 0.17  HD
ATOM     22  CE2 TRP X   3     -27.192 -13.764  36.012  1.00 27.62 LIG 0.04  A 
ATOM     23  CZ2 TRP X   3     -28.552 -13.576  35.621  1.00 28.85 LIG 0.03  A 
ATOM     24  CD2 TRP X   3     -26.208 -12.770  35.826  1.00 25.33 LIG-0.00  A 
ATOM     25  CH2 TRP X   3     -28.897 -12.348  35.041  1.00 28.18 LIG 0.00  A 
ATOM     26  CZ3 TRP X   3     -27.926 -11.351  34.837  1.00 26.79 LIG 0.00  A 
ATOM     27  CE3 TRP X   3     -26.573 -11.560  35.212  1.00 25.86 LIG 0.01  A 
ENDBRANCH 17 18
ENDBRANCH 6 17
ENDBRANCH 3 6
ENDBRANCH 1 2
BRANCH 1 28
ATOM     28  CB  ARG X   4     -20.422  -8.271  35.208  1.00 29.55 LIG 0.04  C 
BRANCH 28 29
ATOM     29  CG  ARG X   4     -19.404  -7.879  36.275  1.00 28.17 LIG 0.02  C 
BRANCH 29 30
ATOM     30  CD  ARG X   4     -19.698  -6.464  36.797  1.00 27.09 LIG 0.14  C 
BRANCH 30 31
ATOM     31  NE  ARG X   4     -20.828  -6.504  37.721  1.00 25.46 LIG-0.23  N 
ATOM     32 HE   ARG X   4     -21.401  -7.139  37.636  1.00 25.46 LIG 0.18  HD
ATOM     33  CZ  ARG X   4     -21.016  -5.606  38.689  1.00 27.27 LIG 0.67  C 
ATOM     34  NH2 ARG X   4     -22.061  -5.699  39.507  1.00 24.12 LIG-0.23  N 
ATOM     35  NH1 ARG X   4     -20.154  -4.601  38.823  1.00 21.32 LIG-0.23  N 
ATOM     36 1HH2 ARG X   4     -22.624  -6.342  39.414  1.00 24.12 LIG 0.17  HD
ATOM     37 2HH2 ARG X   4     -22.174  -5.116  40.129  1.00 24.12 LIG 0.17  HD
ATOM     38 2HH1 ARG X   4     -20.268  -4.018  39.444  1.00 21.32 LIG 0.17  HD
ATOM     39 1HH1 ARG X   4     -19.484  -4.535  38.289  1.00 21.32 LIG 0.17  HD
ENDBRANCH 30 31
ENDBRANCH 29 30
ENDBRANCH 28 29
ENDBRANCH 1 28
BRANCH 1 40
ATOM     40  C   ARG X   4     -19.291 -10.457  35.526  1.00 30.38 LIG 0.24  C 
ATOM     41 O    ARG X   4     -19.709 -10.895  36.586  1.00 31.87 LIG-0.27  OA
ATOM     42  N   PRO X   5     -18.020 -10.611  35.121  1.00 30.60 LIG-0.34  N 
ATOM     43  CA  PRO X   5     -17.096 -11.510  35.848  1.00 31.31 LIG 0.18  C 
ATOM     44  CD  PRO X   5     -17.401  -9.996  33.915  1.00 29.99 LIG 0.13  C 
ATOM     45  CB  PRO X   5     -15.944 -11.695  34.856  1.00 30.70 LIG 0.04  C 
ATOM     46  CG  PRO X   5     -15.952 -10.406  33.981  1.00 29.42 LIG 0.02  C 
BRANCH 43 47
ATOM     47  C   PRO X   5     -16.528 -11.033  37.214  1.00 32.23 LIG 0.24  C 
ATOM     48 O    PRO X   5     -16.115  -9.842  37.351  1.00 32.23 LIG-0.27  OA
ATOM     49  N   TRP X   6     -16.522 -11.918  38.206  1.00 33.50 LIG-0.34  N 
ATOM     50 H    TRP X   6     -16.721 -12.750  38.115  1.00 33.50 LIG 0.16  HD
BRANCH 49 51
ATOM     51  CA  TRP X   6     -16.161 -11.519  39.574  1.00 34.66 LIG 0.19  C 
BRANCH 51 52
ATOM     52  CB  TRP X   6     -17.433 -11.417  40.441  1.00 34.41 LIG 0.08  C 
BRANCH 52 53
ATOM     53  CG  TRP X   6     -17.582 -10.099  41.179  1.00 32.39 LIG-0.03  A 
ATOM     54  CD2 TRP X   6     -17.540  -8.770  40.615  1.00 31.68 LIG-0.00  A 
ATOM     55  CE2 TRP X   6     -17.706  -7.864  41.681  1.00 33.29 LIG 0.04  A 
ATOM     56  CE3 TRP X   6     -17.392  -8.265  39.316  1.00 33.66 LIG 0.01  A 
ATOM     57  CZ2 TRP X   6     -17.753  -6.476  41.487  1.00 33.18 LIG 0.03  A 
ATOM     58  NE1 TRP X   6     -17.852  -8.604  42.830  1.00 30.87 LIG-0.36  N 
ATOM     59  CH2 TRP X   6     -17.609  -6.009  40.220  1.00 32.36 LIG 0.00  A 
ATOM     60  CZ3 TRP X   6     -17.413  -6.885  39.130  1.00 32.37 LIG 0.00  A 
ATOM     61 HE1  TRP X   6     -17.980  -8.283  43.618  1.00 30.87 LIG 0.17  HD
ATOM     62  CD1 TRP X   6     -17.762  -9.934  42.519  1.00 30.01 LIG 0.10  A 
ENDBRANCH 52 53
ENDBRANCH 51 52
BRANCH 51 63
ATOM     63  C   TRP X   6     -15.124 -12.458  40.222  1.00 36.76 LIG 0.20  C 
ATOM     64 O    TRP X   6     -15.363 -13.225  41.172  1.00 37.86 LIG-0.65  OA
ATOM     65 OXT  TRP X   6     -13.954 -12.474  39.820  1.00 39.11 LIG-0.65  OA
ENDBRANCH 51 63
ENDBRANCH 49 51
ENDBRANCH 43 47
ENDBRANCH 1 40
TORSDOF 19
ENDMDL
MODEL 10
USER: ADFR SOLUTION from run 133
USER: SCORE 17.425856 LL:  -5.023 LR: -14.823 RR:   0.000 FEB:  -9.155
USER: RMSD 8.571423
USER: SEED 132
USER: STATUS no improvement in best in 16 clusters for 5 generations
USER: GENES 21
USER: genes 0 Translation |==|  0.56652 0.73034 0.70106
USER: genes 1 Rotation |==|  0.25918 0.70718 0.78480 0.76071
USER: genes 2 Torsion [CB]-CA--N-[C] |==|  0.42079
USER: genes 3 Torsion [N]-C--CA-[N] |==|  0.46945
USER: genes 4 Torsion [C]-CA--N-[C] |==|  0.20124
USER: genes 5 Torsion [N]-C--CA-[N] |==|  0.55249
USER: genes 6 Torsion [C]-CA--CB-[CG] |==|  0.74246
USER: genes 7 Torsion [CA]-CB--CG-[SD] |==|  0.20319
USER: genes 8 Torsion [CB]-CG--SD-[CE] |==|  0.45338
USER: genes 9 Torsion [C]-CA--CB-[CG] |==|  0.24850
USER: genes 10 Torsion [CA]-CB--CG-[CD2] |==|  0.56052
USER: genes 11 Torsion [N]-CA--CB-[CG] |==|  0.40114
USER: genes 12 Torsion [CA]-CB--CG-[CD] |==|  0.23369
USER: genes 13 Torsion [CB]-CG--CD-[NE] |==|  0.71294
USER: genes 14 Torsion [CG]-CD--NE-[CZ] |==|  0.82935
USER: genes 15 Torsion [N]-CA--C-[N] |==|  0.82125
USER: genes 16 Torsion [N]-CA--C-[O] |==|  0.36893
USER: genes 17 Torsion [C]-N--CA-[CB] |==|  0.42020
USER: genes 18 Torsion [N]-CA--CB-[CG] |==|  0.69425
USER: genes 19 Torsion [CA]-CB--CG-[CD2] |==|  0.77797
USER: genes 20 Torsion [N]-CA--C-[O] |==|  0.24924
ROOT
ATOM      1  CA  ARG X   4     -19.968  -7.984  42.464  1.00 29.51 LIG 0.18  C 
ENDROOT
BRANCH 1 2
ATOM      2  N   ARG X   4     -19.760  -9.428  42.397  1.00 29.26 LIG-0.35  N 
ATOM      3  C   TRP X   3     -20.765 -10.307  42.227  1.00 30.37 LIG 0.24  C 
ATOM      4 O    TRP X   3     -21.959  -9.970  42.076  1.00 30.38 LIG-0.27  OA
ATOM      5 H    ARG X   4     -18.936  -9.664  42.476  1.00 29.26 LIG 0.16  HD
BRANCH 3 6
ATOM      6  CA  TRP X   3     -20.371 -11.799  42.204  1.00 30.62 LIG 0.18  C 
BRANCH 6 7
ATOM      7  N   TRP X   3     -21.541 -12.691  42.274  1.00 31.45 LIG-0.34  N 
ATOM      8 H    TRP X   3     -21.651 -13.103  43.021  1.00 31.45 LIG 0.16  HD
ATOM      9  C   MET X   2     -22.331 -12.803  41.208  1.00 32.92 LIG 0.26  C 
ATOM     10 O    MET X   2     -22.172 -12.131  40.206  1.00 32.35 LIG-0.27  OA
BRANCH 9 11
ATOM     11  CA  MET X   2     -23.485 -13.765  41.267  1.00 34.28 LIG 0.40  C 
ATOM     12  N   MET X   2     -23.990 -14.117  39.882  1.00 35.36 LIG 0.61  N 
BRANCH 11 13
ATOM     13  CB  MET X   2     -23.034 -15.021  41.995  1.00 35.71 LIG 0.06  C 
BRANCH 13 14
ATOM     14  CG  MET X   2     -22.512 -16.112  41.100  1.00 37.62 LIG 0.08  C 
BRANCH 14 15
ATOM     15 SD   MET X   2     -20.878 -15.873  40.349  1.00 39.06 LIG-0.17  SA
ATOM     16  CE  MET X   2     -20.477 -17.572  39.833  1.00 45.88 LIG 0.09  C 
ENDBRANCH 14 15
ENDBRANCH 13 14
ENDBRANCH 11 13
ENDBRANCH 9 11
ENDBRANCH 6 7
BRANCH 6 17
ATOM     17  CB  TRP X   3     -19.471 -12.112  41.007  1.00 29.85 LIG 0.07  C 
BRANCH 17 18
ATOM     18  CG  TRP X   3     -18.011 -11.932  41.324  1.00 29.58 LIG-0.03  A 
ATOM     19  CD1 TRP X   3     -17.441 -11.948  42.568  1.00 26.84 LIG 0.10  A 
ATOM     20  NE1 TRP X   3     -16.091 -11.742  42.460  1.00 29.47 LIG-0.36  N 
ATOM     21 HE1  TRP X   3     -15.540 -11.709  43.120  1.00 29.47 LIG 0.17  HD
ATOM     22  CE2 TRP X   3     -15.750 -11.597  41.134  1.00 27.62 LIG 0.04  A 
ATOM     23  CZ2 TRP X   3     -14.480 -11.364  40.524  1.00 28.85 LIG 0.03  A 
ATOM     24  CD2 TRP X   3     -16.939 -11.709  40.384  1.00 25.33 LIG-0.00  A 
ATOM     25  CH2 TRP X   3     -14.441 -11.256  39.128  1.00 28.18 LIG 0.00  A 
ATOM     26  CZ3 TRP X   3     -15.620 -11.352  38.366  1.00 26.79 LIG 0.00  A 
ATOM     27  CE3 TRP X   3     -16.877 -11.564  38.988  1.00 25.86 LIG 0.01  A 
ENDBRANCH 17 18
ENDBRANCH 6 17
ENDBRANCH 3 6
ENDBRANCH 1 2
BRANCH 1 28
ATOM     28  CB  ARG X   4     -18.888  -7.293  43.321  1.00 29.55 LIG 0.04  C 
BRANCH 28 29
ATOM     29  CG  ARG X   4     -18.472  -5.912  42.821  1.00 28.17 LIG 0.02  C 
BRANCH 29 30
ATOM     30  CD  ARG X   4     -19.446  -4.842  43.340  1.00 27.09 LIG 0.14  C 
BRANCH 30 31
ATOM     31  NE  ARG X   4     -20.353  -4.440  42.269  1.00 25.46 LIG-0.23  N 
ATOM     32 HE   ARG X   4     -21.195  -4.572  42.377  1.00 25.46 LIG 0.18  HD
ATOM     33  CZ  ARG X   4     -19.941  -3.877  41.131  1.00 27.27 LIG 0.67  C 
ATOM     34  NH2 ARG X   4     -20.816  -3.524  40.194  1.00 24.12 LIG-0.23  N 
ATOM     35  NH1 ARG X   4     -18.639  -3.686  40.932  1.00 21.32 LIG-0.23  N 
ATOM     36 1HH2 ARG X   4     -21.656  -3.657  40.318  1.00 24.12 LIG 0.17  HD
ATOM     37 2HH2 ARG X   4     -20.541  -3.161  39.464  1.00 24.12 LIG 0.17  HD
ATOM     38 2HH1 ARG X   4     -18.365  -3.325  40.201  1.00 21.32 LIG 0.17  HD
ATOM     39 1HH1 ARG X   4     -18.073  -3.924  41.533  1.00 21.32 LIG 0.17  HD
ENDBRANCH 30 31
ENDBRANCH 29 30
ENDBRANCH 28 29
ENDBRANCH 1 28
BRANCH 1 40
ATOM     40  C   ARG X   4     -19.896  -7.445  41.058  1.00 30.38 LIG 0.24  C 
ATOM     41 O    ARG X   4     -20.896  -6.955  40.560  1.00 31.87 LIG-0.27  OA
ATOM     42  N   PRO X   5     -18.728  -7.548  40.405  1.00 30.60 LIG-0.34  N 
ATOM     43  CA  PRO X   5     -18.525  -6.874  39.103  1.00 31.31 LIG 0.18  C 
ATOM     44  CD  PRO X   5     -17.508  -8.250  40.890  1.00 29.99 LIG 0.13  C 
ATOM     45  CB  PRO X   5     -17.003  -6.908  38.931  1.00 30.70 LIG 0.04  C 
ATOM     46  CG  PRO X   5     -16.531  -8.148  39.747  1.00 29.42 LIG 0.02  C 
BRANCH 43 47
ATOM     47  C   PRO X   5     -19.200  -7.488  37.845  1.00 32.23 LIG 0.24  C 
ATOM     48 O    PRO X   5     -19.841  -6.747  37.040  1.00 32.23 LIG-0.27  OA
ATOM     49  N   TRP X   6     -19.049  -8.796  37.658  1.00 33.50 LIG-0.34  N 
ATOM     50 H    TRP X   6     -18.688  -9.329  38.229  1.00 33.50 LIG 0.16  HD
BRANCH 49 51
ATOM     51  CA  TRP X   6     -19.504  -9.441  36.419  1.00 34.66 LIG 0.19  C 
BRANCH 51 52
ATOM     52  CB  TRP X   6     -18.636 -10.682  36.126  1.00 34.41 LIG 0.08  C 
BRANCH 52 53
ATOM     53  CG  TRP X   6     -17.715 -10.533  34.929  1.00 32.39 LIG-0.03  A 
ATOM     54  CD2 TRP X   6     -18.064 -10.668  33.533  1.00 31.68 LIG-0.00  A 
ATOM     55  CE2 TRP X   6     -16.884 -10.463  32.791  1.00 33.29 LIG 0.04  A 
ATOM     56  CE3 TRP X   6     -19.257 -10.930  32.846  1.00 33.66 LIG 0.01  A 
ATOM     57  CZ2 TRP X   6     -16.865 -10.485  31.390  1.00 33.18 LIG 0.03  A 
ATOM     58  NE1 TRP X   6     -15.875 -10.204  33.688  1.00 30.87 LIG-0.36  N 
ATOM     59  CH2 TRP X   6     -18.033 -10.739  30.744  1.00 32.36 LIG 0.00  A 
ATOM     60  CZ3 TRP X   6     -19.229 -10.979  31.455  1.00 32.37 LIG 0.00  A 
ATOM     61 HE1  TRP X   6     -15.057 -10.032  33.484  1.00 30.87 LIG 0.17  HD
ATOM     62  CD1 TRP X   6     -16.381 -10.263  34.959  1.00 30.01 LIG 0.10  A 
ENDBRANCH 52 53
ENDBRANCH 51 52
BRANCH 51 63
ATOM     63  C   TRP X   6     -21.002  -9.807  36.444  1.00 36.76 LIG 0.20  C 
ATOM     64 O    TRP X   6     -21.918  -9.055  36.067  1.00 37.86 LIG-0.65  OA
ATOM     65 OXT  TRP X   6     -21.372 -10.905  36.877  1.00 39.11 LIG-0.65  OA
ENDBRANCH 51 63
ENDBRANCH 49 51
ENDBRANCH 43 47
ENDBRANCH 1 40
TORSDOF 19
ENDMDL
MODEL 11
USER: ADFR SOLUTION from run 90
USER: SCORE 20.012917 LL:  -5.419 LR: -14.804 RR:   0.000 FEB:  -9.137
USER: RMSD 7.555791
USER: SEED 89
USER: STATUS searching
USER: GENES 21
USER: genes 0 Translation |==|  0.61681 0.67483 0.37742
USER: genes 1 Rotation |==|  0.29939 0.43998 0.13157 0.76536
USER: genes 2 Torsion [CB]-CA--N-[C] |==|  0.85835
USER: genes 3 Torsion [N]-C--CA-[N] |==|  0.99625
USER: genes 4 Torsion [C]-CA--N-[C] |==|  0.69181
USER: genes 5 Torsion [N]-C--CA-[N] |==|  0.58641
USER: genes 6 Torsion [C]-CA--CB-[CG] |==|  0.73938
USER: genes 7 Torsion [CA]-CB--CG-[SD] |==|  0.32294
USER: genes 8 Torsion [CB]-CG--SD-[CE] |==|  0.25148
USER: genes 9 Torsion [C]-CA--CB-[CG] |==|  0.39054
USER: genes 10 Torsion [CA]-CB--CG-[CD2] |==|  0.68380
USER: genes 11 Torsion [N]-CA--CB-[CG] |==|  0.59729
USER: genes 12 Torsion [CA]-CB--CG-[CD] |==|  0.57957
USER: genes 13 Torsion [CB]-CG--CD-[NE] |==|  0.04472
USER: genes 14 Torsion [CG]-CD--NE-[CZ] |==|  0.50284
USER: genes 15 Torsion [N]-CA--C-[N] |==|  0.35322
USER: genes 16 Torsion [N]-CA--C-[O] |==|  0.53617
USER: genes 17 Torsion [C]-N--CA-[CB] |==|  0.23993
USER: genes 18 Torsion [N]-CA--CB-[CG] |==|  0.20135
USER: genes 19 Torsion [CA]-CB--CG-[CD2] |==|  0.26636
USER: genes 20 Torsion [N]-CA--C-[O] |==|  0.33617
ROOT
ATOM      1  CA  ARG X   4     -18.912  -9.067  36.396  1.00 29.51 LIG 0.18  C 
ENDROOT
BRANCH 1 2
ATOM      2  N   ARG X   4     -19.594  -9.773  35.315  1.00 29.26 LIG-0.35  N 
ATOM      3  C   TRP X   3     -20.930  -9.931  35.271  1.00 30.37 LIG 0.24  C 
ATOM      4 O    TRP X   3     -21.710  -9.461  36.127  1.00 30.38 LIG-0.27  OA
ATOM      5 H    ARG X   4     -19.064 -10.078  34.711  1.00 29.26 LIG 0.16  HD
BRANCH 3 6
ATOM      6  CA  TRP X   3     -21.484 -10.726  34.070  1.00 30.62 LIG 0.18  C 
BRANCH 6 7
ATOM      7  N   TRP X   3     -20.425 -11.157  33.142  1.00 31.45 LIG-0.34  N 
ATOM      8 H    TRP X   3     -19.890 -11.761  33.441  1.00 31.45 LIG 0.16  HD
ATOM      9  C   MET X   2     -20.362 -10.602  31.933  1.00 32.92 LIG 0.26  C 
ATOM     10 O    MET X   2     -21.197  -9.812  31.535  1.00 32.35 LIG-0.27  OA
BRANCH 9 11
ATOM     11  CA  MET X   2     -19.238 -11.001  31.017  1.00 34.28 LIG 0.40  C 
ATOM     12  N   MET X   2     -18.835  -9.865  30.099  1.00 35.36 LIG 0.61  N 
BRANCH 11 13
ATOM     13  CB  MET X   2     -18.053 -11.437  31.863  1.00 35.71 LIG 0.06  C 
BRANCH 13 14
ATOM     14  CG  MET X   2     -17.050 -10.351  32.146  1.00 37.62 LIG 0.08  C 
BRANCH 14 15
ATOM     15 SD   MET X   2     -16.820  -9.851  33.873  1.00 39.06 LIG-0.17  SA
ATOM     16  CE  MET X   2     -15.483 -10.973  34.389  1.00 45.88 LIG 0.09  C 
ENDBRANCH 14 15
ENDBRANCH 13 14
ENDBRANCH 11 13
ENDBRANCH 9 11
ENDBRANCH 6 7
BRANCH 6 17
ATOM     17  CB  TRP X   3     -22.357 -11.892  34.538  1.00 29.85 LIG 0.07  C 
BRANCH 17 18
ATOM     18  CG  TRP X   3     -23.573 -12.083  33.672  1.00 29.58 LIG-0.03  A 
ATOM     19  CD1 TRP X   3     -23.583 -12.470  32.359  1.00 26.84 LIG 0.10  A 
ATOM     20  NE1 TRP X   3     -24.874 -12.526  31.904  1.00 29.47 LIG-0.36  N 
ATOM     21 HE1  TRP X   3     -25.110 -12.742  31.105  1.00 29.47 LIG 0.17  HD
ATOM     22  CE2 TRP X   3     -25.738 -12.185  32.920  1.00 27.62 LIG 0.04  A 
ATOM     23  CZ2 TRP X   3     -27.163 -12.096  32.935  1.00 28.85 LIG 0.03  A 
ATOM     24  CD2 TRP X   3     -24.951 -11.896  34.055  1.00 25.33 LIG-0.00  A 
ATOM     25  CH2 TRP X   3     -27.777 -11.714  34.135  1.00 28.18 LIG 0.00  A 
ATOM     26  CZ3 TRP X   3     -27.006 -11.409  35.272  1.00 26.79 LIG 0.00  A 
ATOM     27  CE3 TRP X   3     -25.590 -11.483  35.236  1.00 25.86 LIG 0.01  A 
ENDBRANCH 17 18
ENDBRANCH 6 17
ENDBRANCH 3 6
ENDBRANCH 1 2
BRANCH 1 28
ATOM     28  CB  ARG X   4     -19.535  -7.678  36.650  1.00 29.55 LIG 0.04  C 
BRANCH 28 29
ATOM     29  CG  ARG X   4     -18.533  -6.601  37.057  1.00 28.17 LIG 0.02  C 
BRANCH 29 30
ATOM     30  CD  ARG X   4     -19.215  -5.545  37.939  1.00 27.09 LIG 0.14  C 
BRANCH 30 31
ATOM     31  NE  ARG X   4     -20.485  -6.065  38.438  1.00 25.46 LIG-0.23  N 
ATOM     32 HE   ARG X   4     -20.713  -6.864  38.219  1.00 25.46 LIG 0.18  HD
ATOM     33  CZ  ARG X   4     -21.311  -5.362  39.216  1.00 27.27 LIG 0.67  C 
ATOM     34  NH2 ARG X   4     -22.453  -5.892  39.647  1.00 24.12 LIG-0.23  N 
ATOM     35  NH1 ARG X   4     -20.991  -4.113  39.547  1.00 21.32 LIG-0.23  N 
ATOM     36 1HH2 ARG X   4     -22.665  -6.695  39.425  1.00 24.12 LIG 0.17  HD
ATOM     37 2HH2 ARG X   4     -22.979  -5.432  40.149  1.00 24.12 LIG 0.17  HD
ATOM     38 2HH1 ARG X   4     -21.518  -3.653  40.047  1.00 21.32 LIG 0.17  HD
ATOM     39 1HH1 ARG X   4     -20.259  -3.767  39.260  1.00 21.32 LIG 0.17  HD
ENDBRANCH 30 31
ENDBRANCH 29 30
ENDBRANCH 28 29
ENDBRANCH 1 28
BRANCH 1 40
ATOM     40  C   ARG X   4     -19.047  -9.899  37.644  1.00 30.38 LIG 0.24  C 
ATOM     41 O    ARG X   4     -20.159 -10.248  38.006  1.00 31.87 LIG-0.27  OA
ATOM     42  N   PRO X   5     -17.928 -10.206  38.319  1.00 30.60 LIG-0.34  N 
ATOM     43  CA  PRO X   5     -17.959 -11.174  39.439  1.00 31.31 LIG 0.18  C 
ATOM     44  CD  PRO X   5     -16.557  -9.709  38.021  1.00 29.99 LIG 0.13  C 
ATOM     45  CB  PRO X   5     -16.480 -11.522  39.634  1.00 30.70 LIG 0.04  C 
ATOM     46  CG  PRO X   5     -15.700 -10.274  39.125  1.00 29.42 LIG 0.02  C 
BRANCH 43 47
ATOM     47  C   PRO X   5     -18.563 -10.712  40.794  1.00 32.23 LIG 0.24  C 
ATOM     48 O    PRO X   5     -18.390 -11.408  41.840  1.00 32.23 LIG-0.27  OA
ATOM     49  N   TRP X   6     -19.233  -9.563  40.794  1.00 33.50 LIG-0.34  N 
ATOM     50 H    TRP X   6     -19.430  -9.117  40.085  1.00 33.50 LIG 0.16  HD
BRANCH 49 51
ATOM     51  CA  TRP X   6     -19.698  -8.958  42.050  1.00 34.66 LIG 0.19  C 
BRANCH 51 52
ATOM     52  CB  TRP X   6     -18.580  -8.085  42.655  1.00 34.41 LIG 0.08  C 
BRANCH 52 53
ATOM     53  CG  TRP X   6     -18.330  -6.786  41.912  1.00 32.39 LIG-0.03  A 
ATOM     54  CD2 TRP X   6     -18.870  -5.482  42.222  1.00 31.68 LIG-0.00  A 
ATOM     55  CE2 TRP X   6     -18.376  -4.590  41.249  1.00 33.29 LIG 0.04  A 
ATOM     56  CE3 TRP X   6     -19.709  -4.987  43.229  1.00 33.66 LIG 0.01  A 
ATOM     57  CZ2 TRP X   6     -18.672  -3.219  41.269  1.00 33.18 LIG 0.03  A 
ATOM     58  NE1 TRP X   6     -17.569  -5.311  40.402  1.00 30.87 LIG-0.36  N 
ATOM     59  CH2 TRP X   6     -19.486  -2.761  42.255  1.00 32.36 LIG 0.00  A 
ATOM     60  CZ3 TRP X   6     -20.023  -3.630  43.230  1.00 32.37 LIG 0.00  A 
ATOM     61 HE1  TRP X   6     -17.138  -4.991  39.730  1.00 30.87 LIG 0.17  HD
ATOM     62  CD1 TRP X   6     -17.562  -6.621  40.800  1.00 30.01 LIG 0.10  A 
ENDBRANCH 52 53
ENDBRANCH 51 52
BRANCH 51 63
ATOM     63  C   TRP X   6     -21.002  -8.152  41.885  1.00 36.76 LIG 0.20  C 
ATOM     64 O    TRP X   6     -22.059  -8.387  42.498  1.00 37.86 LIG-0.65  OA
ATOM     65 OXT  TRP X   6     -21.060  -7.210  41.086  1.00 39.11 LIG-0.65  OA
ENDBRANCH 51 63
ENDBRANCH 49 51
ENDBRANCH 43 47
ENDBRANCH 1 40
TORSDOF 19
ENDMDL
MODEL 12
USER: ADFR SOLUTION from run 130
USER: SCORE 18.984588 LL:  -5.809 LR: -14.785 RR:   0.000 FEB:  -9.117
USER: RMSD 7.388492
USER: SEED 129
USER: STATUS no improvement in best in 6 clusters for 5 generations
USER: GENES 21
USER: genes 0 Translation |==|  0.54328 0.48907 0.63800
USER: genes 1 Rotation |==|  0.44551 0.36181 0.84003 0.83513
USER: genes 2 Torsion [CB]-CA--N-[C] |==|  0.51441
USER: genes 3 Torsion [N]-C--CA-[N] |==|  0.93248
USER: genes 4 Torsion [C]-CA--N-[C] |==|  0.64606
USER: genes 5 Torsion [N]-C--CA-[N] |==|  0.37340
USER: genes 6 Torsion [C]-CA--CB-[CG] |==|  0.31470
USER: genes 7 Torsion [CA]-CB--CG-[SD] |==|  0.91113
USER: genes 8 Torsion [CB]-CG--SD-[CE] |==|  0.57745
USER: genes 9 Torsion [C]-CA--CB-[CG] |==|  0.18460
USER: genes 10 Torsion [CA]-CB--CG-[CD2] |==|  0.71883
USER: genes 11 Torsion [N]-CA--CB-[CG] |==|  0.59137
USER: genes 12 Torsion [CA]-CB--CG-[CD] |==|  0.94455
USER: genes 13 Torsion [CB]-CG--CD-[NE] |==|  0.26389
USER: genes 14 Torsion [CG]-CD--NE-[CZ] |==|  0.64103
USER: genes 15 Torsion [N]-CA--C-[N] |==|  0.85302
USER: genes 16 Torsion [N]-CA--C-[O] |==|  0.00546
USER: genes 17 Torsion [C]-N--CA-[CB] |==|  0.75197
USER: genes 18 Torsion [N]-CA--CB-[CG] |==|  0.09559
USER: genes 19 Torsion [CA]-CB--CG-[CD2] |==|  0.24810
USER: genes 20 Torsion [N]-CA--C-[O] |==|  0.69808
ROOT
ATOM      1  CA  ARG X   4     -20.456 -12.689  41.282  1.00 29.51 LIG 0.18  C 
ENDROOT
BRANCH 1 2
ATOM      2  N   ARG X   4     -19.655 -12.567  40.067  1.00 29.26 LIG-0.35  N 
ATOM      3  C   TRP X   3     -19.988 -11.755  39.047  1.00 30.37 LIG 0.24  C 
ATOM      4 O    TRP X   3     -20.989 -11.007  39.059  1.00 30.38 LIG-0.27  OA
ATOM      5 H    ARG X   4     -18.952 -13.062  40.064  1.00 29.26 LIG 0.16  HD
BRANCH 3 6
ATOM      6  CA  TRP X   3     -19.043 -11.767  37.828  1.00 30.62 LIG 0.18  C 
BRANCH 6 7
ATOM      7  N   TRP X   3     -17.679 -12.199  38.176  1.00 31.45 LIG-0.34  N 
ATOM      8 H    TRP X   3     -17.620 -12.946  38.598  1.00 31.45 LIG 0.16  HD
ATOM      9  C   MET X   2     -16.650 -11.429  37.826  1.00 32.92 LIG 0.26  C 
ATOM     10 O    MET X   2     -16.787 -10.424  37.155  1.00 32.35 LIG-0.27  OA
BRANCH 9 11
ATOM     11  CA  MET X   2     -15.267 -11.846  38.242  1.00 34.28 LIG 0.40  C 
ATOM     12  N   MET X   2     -14.279 -11.726  37.099  1.00 35.36 LIG 0.61  N 
BRANCH 11 13
ATOM     13  CB  MET X   2     -14.826 -10.977  39.409  1.00 35.71 LIG 0.06  C 
BRANCH 13 14
ATOM     14  CG  MET X   2     -14.665 -11.711  40.713  1.00 37.62 LIG 0.08  C 
BRANCH 14 15
ATOM     15 SD   MET X   2     -15.757 -13.125  41.021  1.00 39.06 LIG-0.17  SA
ATOM     16  CE  MET X   2     -15.839 -13.115  42.840  1.00 45.88 LIG 0.09  C 
ENDBRANCH 14 15
ENDBRANCH 13 14
ENDBRANCH 11 13
ENDBRANCH 9 11
ENDBRANCH 6 7
BRANCH 6 17
ATOM     17  CB  TRP X   3     -19.637 -12.585  36.679  1.00 29.85 LIG 0.07  C 
BRANCH 17 18
ATOM     18  CG  TRP X   3     -20.877 -11.954  36.107  1.00 29.58 LIG-0.03  A 
ATOM     19  CD1 TRP X   3     -20.926 -10.902  35.233  1.00 26.84 LIG 0.10  A 
ATOM     20  NE1 TRP X   3     -22.231 -10.601  34.943  1.00 29.47 LIG-0.36  N 
ATOM     21 HE1  TRP X   3     -22.490  -9.970  34.419  1.00 29.47 LIG 0.17  HD
ATOM     22  CE2 TRP X   3     -23.065 -11.463  35.619  1.00 27.62 LIG 0.04  A 
ATOM     23  CZ2 TRP X   3     -24.490 -11.547  35.642  1.00 28.85 LIG 0.03  A 
ATOM     24  CD2 TRP X   3     -22.245 -12.334  36.368  1.00 25.33 LIG-0.00  A 
ATOM     25  CH2 TRP X   3     -25.069 -12.543  36.439  1.00 28.18 LIG 0.00  A 
ATOM     26  CZ3 TRP X   3     -24.266 -13.410  37.202  1.00 26.79 LIG 0.00  A 
ATOM     27  CE3 TRP X   3     -22.851 -13.302  37.185  1.00 25.86 LIG 0.01  A 
ENDBRANCH 17 18
ENDBRANCH 6 17
ENDBRANCH 3 6
ENDBRANCH 1 2
BRANCH 1 28
ATOM     28  CB  ARG X   4     -19.770 -13.592  42.328  1.00 29.55 LIG 0.04  C 
BRANCH 28 29
ATOM     29  CG  ARG X   4     -20.733 -14.398  43.196  1.00 28.17 LIG 0.02  C 
BRANCH 29 30
ATOM     30  CD  ARG X   4     -22.133 -13.766  43.166  1.00 27.09 LIG 0.14  C 
BRANCH 30 31
ATOM     31  NE  ARG X   4     -22.949 -14.423  42.149  1.00 25.46 LIG-0.23  N 
ATOM     32 HE   ARG X   4     -22.993 -15.282  42.154  1.00 25.46 LIG 0.18  HD
ATOM     33  CZ  ARG X   4     -23.629 -13.759  41.213  1.00 27.27 LIG 0.67  C 
ATOM     34  NH2 ARG X   4     -24.363 -14.413  40.316  1.00 24.12 LIG-0.23  N 
ATOM     35  NH1 ARG X   4     -23.555 -12.431  41.171  1.00 21.32 LIG-0.23  N 
ATOM     36 1HH2 ARG X   4     -24.403 -15.271  40.336  1.00 24.12 LIG 0.17  HD
ATOM     37 2HH2 ARG X   4     -24.799 -13.976  39.717  1.00 24.12 LIG 0.17  HD
ATOM     38 2HH1 ARG X   4     -23.990 -11.995  40.571  1.00 21.32 LIG 0.17  HD
ATOM     39 1HH1 ARG X   4     -23.073 -12.009  41.744  1.00 21.32 LIG 0.17  HD
ENDBRANCH 30 31
ENDBRANCH 29 30
ENDBRANCH 28 29
ENDBRANCH 1 28
BRANCH 1 40
ATOM     40  C   ARG X   4     -20.623 -11.308  41.861  1.00 30.38 LIG 0.24  C 
ATOM     41 O    ARG X   4     -21.747 -10.896  42.097  1.00 31.87 LIG-0.27  OA
ATOM     42  N   PRO X   5     -19.516 -10.579  42.074  1.00 30.60 LIG-0.34  N 
ATOM     43  CA  PRO X   5     -19.583  -9.298  42.814  1.00 31.31 LIG 0.18  C 
ATOM     44  CD  PRO X   5     -18.128 -10.953  41.689  1.00 29.99 LIG 0.13  C 
ATOM     45  CB  PRO X   5     -18.117  -9.030  43.170  1.00 30.70 LIG 0.04  C 
ATOM     46  CG  PRO X   5     -17.293  -9.757  42.066  1.00 29.42 LIG 0.02  C 
BRANCH 43 47
ATOM     47  C   PRO X   5     -20.172  -8.058  42.086  1.00 32.23 LIG 0.24  C 
ATOM     48 O    PRO X   5     -20.615  -8.165  40.903  1.00 32.23 LIG-0.27  OA
ATOM     49  N   TRP X   6     -20.203  -6.917  42.768  1.00 33.50 LIG-0.34  N 
ATOM     50 H    TRP X   6     -19.836  -6.803  43.539  1.00 33.50 LIG 0.16  HD
BRANCH 49 51
ATOM     51  CA  TRP X   6     -20.888  -5.733  42.233  1.00 34.66 LIG 0.19  C 
BRANCH 51 52
ATOM     52  CB  TRP X   6     -19.907  -4.901  41.381  1.00 34.41 LIG 0.08  C 
BRANCH 52 53
ATOM     53  CG  TRP X   6     -18.889  -5.726  40.616  1.00 32.39 LIG-0.03  A 
ATOM     54  CD2 TRP X   6     -19.027  -6.277  39.287  1.00 31.68 LIG-0.00  A 
ATOM     55  CE2 TRP X   6     -17.838  -6.979  39.006  1.00 33.29 LIG 0.04  A 
ATOM     56  CE3 TRP X   6     -20.032  -6.231  38.312  1.00 33.66 LIG 0.01  A 
ATOM     57  CZ2 TRP X   6     -17.615  -7.612  37.775  1.00 33.18 LIG 0.03  A 
ATOM     58  NE1 TRP X   6     -17.017  -6.851  40.100  1.00 30.87 LIG-0.36  N 
ATOM     59  CH2 TRP X   6     -18.602  -7.555  36.844  1.00 32.36 LIG 0.00  A 
ATOM     60  CZ3 TRP X   6     -19.818  -6.885  37.101  1.00 32.37 LIG 0.00  A 
ATOM     61 HE1  TRP X   6     -16.226  -7.181  40.172  1.00 30.87 LIG 0.17  HD
ATOM     62  CD1 TRP X   6     -17.661  -6.114  41.058  1.00 30.01 LIG 0.10  A 
ENDBRANCH 52 53
ENDBRANCH 51 52
BRANCH 51 63
ATOM     63  C   TRP X   6     -22.158  -6.082  41.431  1.00 36.76 LIG 0.20  C 
ATOM     64 O    TRP X   6     -22.262  -5.983  40.196  1.00 37.86 LIG-0.65  OA
ATOM     65 OXT  TRP X   6     -23.178  -6.473  42.011  1.00 39.11 LIG-0.65  OA
ENDBRANCH 51 63
ENDBRANCH 49 51
ENDBRANCH 43 47
ENDBRANCH 1 40
TORSDOF 19
ENDMDL
MODEL 13
USER: ADFR SOLUTION from run 115
USER: SCORE 19.684741 LL:  -6.955 LR: -14.778 RR:   0.000 FEB:  -9.111
USER: RMSD 8.627766
USER: SEED 114
USER: STATUS no improvement in best in 3 clusters for 5 generations
USER: GENES 21
USER: genes 0 Translation |==|  0.56964 0.85329 0.58625
USER: genes 1 Rotation |==|  0.24359 0.80498 0.72212 0.70469
USER: genes 2 Torsion [CB]-CA--N-[C] |==|  0.37698
USER: genes 3 Torsion [N]-C--CA-[N] |==|  0.78086
USER: genes 4 Torsion [C]-CA--N-[C] |==|  0.62557
USER: genes 5 Torsion [N]-C--CA-[N] |==|  0.15104
USER: genes 6 Torsion [C]-CA--CB-[CG] |==|  0.68531
USER: genes 7 Torsion [CA]-CB--CG-[SD] |==|  0.33049
USER: genes 8 Torsion [CB]-CG--SD-[CE] |==|  0.99352
USER: genes 9 Torsion [C]-CA--CB-[CG] |==|  0.70936
USER: genes 10 Torsion [CA]-CB--CG-[CD2] |==|  0.72247
USER: genes 11 Torsion [N]-CA--CB-[CG] |==|  0.62335
USER: genes 12 Torsion [CA]-CB--CG-[CD] |==|  0.24461
USER: genes 13 Torsion [CB]-CG--CD-[NE] |==|  0.73578
USER: genes 14 Torsion [CG]-CD--NE-[CZ] |==|  0.35939
USER: genes 15 Torsion [N]-CA--C-[N] |==|  0.83826
USER: genes 16 Torsion [N]-CA--C-[O] |==|  0.36291
USER: genes 17 Torsion [C]-N--CA-[CB] |==|  0.25826
USER: genes 18 Torsion [N]-CA--CB-[CG] |==|  0.05603
USER: genes 19 Torsion [CA]-CB--CG-[CD2] |==|  0.16642
USER: genes 20 Torsion [N]-CA--C-[O] |==|  0.40246
ROOT
ATOM      1  CA  ARG X   4     -19.903  -5.587  40.311  1.00 29.51 LIG 0.18  C 
ENDROOT
BRANCH 1 2
ATOM      2  N   ARG X   4     -19.894  -6.923  40.900  1.00 29.26 LIG-0.35  N 
ATOM      3  C   TRP X   3     -20.958  -7.452  41.533  1.00 30.37 LIG 0.24  C 
ATOM      4 O    TRP X   3     -22.057  -6.866  41.645  1.00 30.38 LIG-0.27  OA
ATOM      5 H    ARG X   4     -19.148  -7.339  40.805  1.00 29.26 LIG 0.16  HD
BRANCH 3 6
ATOM      6  CA  TRP X   3     -20.770  -8.866  42.120  1.00 30.62 LIG 0.18  C 
BRANCH 6 7
ATOM      7  N   TRP X   3     -20.874  -9.920  41.096  1.00 31.45 LIG-0.34  N 
ATOM      8 H    TRP X   3     -20.447  -9.772  40.364  1.00 31.45 LIG 0.16  HD
ATOM      9  C   MET X   2     -21.601 -11.004  41.358  1.00 32.92 LIG 0.26  C 
ATOM     10 O    MET X   2     -22.115 -11.196  42.444  1.00 32.35 LIG-0.27  OA
BRANCH 9 11
ATOM     11  CA  MET X   2     -21.754 -12.044  40.283  1.00 34.28 LIG 0.40  C 
ATOM     12  N   MET X   2     -20.409 -12.513  39.764  1.00 35.36 LIG 0.61  N 
BRANCH 11 13
ATOM     13  CB  MET X   2     -22.536 -13.218  40.848  1.00 35.71 LIG 0.06  C 
BRANCH 13 14
ATOM     14  CG  MET X   2     -21.749 -14.495  40.973  1.00 37.62 LIG 0.08  C 
BRANCH 14 15
ATOM     15 SD   MET X   2     -21.549 -15.199  42.632  1.00 39.06 LIG-0.17  SA
ATOM     16  CE  MET X   2     -22.399 -13.951  43.648  1.00 45.88 LIG 0.09  C 
ENDBRANCH 14 15
ENDBRANCH 13 14
ENDBRANCH 11 13
ENDBRANCH 9 11
ENDBRANCH 6 7
BRANCH 6 17
ATOM     17  CB  TRP X   3     -19.471  -8.961  42.922  1.00 29.85 LIG 0.07  C 
BRANCH 17 18
ATOM     18  CG  TRP X   3     -18.393  -9.707  42.183  1.00 29.58 LIG-0.03  A 
ATOM     19  CD1 TRP X   3     -17.588  -9.206  41.195  1.00 26.84 LIG 0.10  A 
ATOM     20  NE1 TRP X   3     -16.734 -10.184  40.756  1.00 29.47 LIG-0.36  N 
ATOM     21 HE1  TRP X   3     -16.147 -10.086  40.135  1.00 29.47 LIG 0.17  HD
ATOM     22  CE2 TRP X   3     -16.959 -11.345  41.459  1.00 27.62 LIG 0.04  A 
ATOM     23  CZ2 TRP X   3     -16.331 -12.624  41.364  1.00 28.85 LIG 0.03  A 
ATOM     24  CD2 TRP X   3     -18.004 -11.084  42.371  1.00 25.33 LIG-0.00  A 
ATOM     25  CH2 TRP X   3     -16.781 -13.635  42.224  1.00 28.18 LIG 0.00  A 
ATOM     26  CZ3 TRP X   3     -17.830 -13.394  43.129  1.00 26.79 LIG 0.00  A 
ATOM     27  CE3 TRP X   3     -18.459 -12.123  43.199  1.00 25.86 LIG 0.01  A 
ENDBRANCH 17 18
ENDBRANCH 6 17
ENDBRANCH 3 6
ENDBRANCH 1 2
BRANCH 1 28
ATOM     28  CB  ARG X   4     -18.610  -4.812  40.642  1.00 29.55 LIG 0.04  C 
BRANCH 28 29
ATOM     29  CG  ARG X   4     -18.834  -3.363  41.066  1.00 28.17 LIG 0.02  C 
BRANCH 29 30
ATOM     30  CD  ARG X   4     -19.060  -3.281  42.583  1.00 27.09 LIG 0.14  C 
BRANCH 30 31
ATOM     31  NE  ARG X   4     -20.492  -3.284  42.869  1.00 25.46 LIG-0.23  N 
ATOM     32 HE   ARG X   4     -20.994  -2.729  42.446  1.00 25.46 LIG 0.18  HD
ATOM     33  CZ  ARG X   4     -21.062  -4.105  43.753  1.00 27.27 LIG 0.67  C 
ATOM     34  NH2 ARG X   4     -22.375  -4.068  43.965  1.00 24.12 LIG-0.23  N 
ATOM     35  NH1 ARG X   4     -20.302  -4.956  44.438  1.00 21.32 LIG-0.23  N 
ATOM     36 1HH2 ARG X   4     -22.865  -3.511  43.531  1.00 24.12 LIG 0.17  HD
ATOM     37 2HH2 ARG X   4     -22.734  -4.602  44.536  1.00 24.12 LIG 0.17  HD
ATOM     38 2HH1 ARG X   4     -20.661  -5.489  45.009  1.00 21.32 LIG 0.17  HD
ATOM     39 1HH1 ARG X   4     -19.452  -4.973  44.308  1.00 21.32 LIG 0.17  HD
ENDBRANCH 30 31
ENDBRANCH 29 30
ENDBRANCH 28 29
ENDBRANCH 1 28
BRANCH 1 40
ATOM     40  C   ARG X   4     -20.009  -5.746  38.816  1.00 30.38 LIG 0.24  C 
ATOM     41 O    ARG X   4     -20.955  -5.243  38.233  1.00 31.87 LIG-0.27  OA
ATOM     42  N   PRO X   5     -19.058  -6.458  38.191  1.00 30.60 LIG-0.34  N 
ATOM     43  CA  PRO X   5     -18.988  -6.496  36.713  1.00 31.31 LIG 0.18  C 
ATOM     44  CD  PRO X   5     -17.952  -7.212  38.843  1.00 29.99 LIG 0.13  C 
ATOM     45  CB  PRO X   5     -17.584  -7.048  36.449  1.00 30.70 LIG 0.04  C 
ATOM     46  CG  PRO X   5     -17.241  -7.901  37.707  1.00 29.42 LIG 0.02  C 
BRANCH 43 47
ATOM     47  C   PRO X   5     -20.032  -7.357  35.950  1.00 32.23 LIG 0.24  C 
ATOM     48 O    PRO X   5     -20.675  -6.864  34.975  1.00 32.23 LIG-0.27  OA
ATOM     49  N   TRP X   6     -20.190  -8.614  36.356  1.00 33.50 LIG-0.34  N 
ATOM     50 H    TRP X   6     -19.825  -8.944  37.062  1.00 33.50 LIG 0.16  HD
BRANCH 49 51
ATOM     51  CA  TRP X   6     -21.027  -9.555  35.600  1.00 34.66 LIG 0.19  C 
BRANCH 51 52
ATOM     52  CB  TRP X   6     -20.156 -10.342  34.599  1.00 34.41 LIG 0.08  C 
BRANCH 52 53
ATOM     53  CG  TRP X   6     -18.675 -10.350  34.930  1.00 32.39 LIG-0.03  A 
ATOM     54  CD2 TRP X   6     -18.049 -10.860  36.128  1.00 31.68 LIG-0.00  A 
ATOM     55  CE2 TRP X   6     -16.664 -10.636  35.995  1.00 33.29 LIG 0.04  A 
ATOM     56  CE3 TRP X   6     -18.524 -11.491  37.285  1.00 33.66 LIG 0.01  A 
ATOM     57  CZ2 TRP X   6     -15.741 -11.045  36.969  1.00 33.18 LIG 0.03  A 
ATOM     58  NE1 TRP X   6     -16.459 -10.033  34.778  1.00 30.87 LIG-0.36  N 
ATOM     59  CH2 TRP X   6     -16.223 -11.656  38.082  1.00 32.36 LIG 0.00  A 
ATOM     60  CZ3 TRP X   6     -17.608 -11.871  38.262  1.00 32.37 LIG 0.00  A 
ATOM     61 HE1  TRP X   6     -15.695  -9.804  34.455  1.00 30.87 LIG 0.17  HD
ATOM     62  CD1 TRP X   6     -17.668  -9.855  34.158  1.00 30.01 LIG 0.10  A 
ENDBRANCH 52 53
ENDBRANCH 51 52
BRANCH 51 63
ATOM     63  C   TRP X   6     -21.830 -10.511  36.505  1.00 36.76 LIG 0.20  C 
ATOM     64 O    TRP X   6     -22.976 -10.924  36.254  1.00 37.86 LIG-0.65  OA
ATOM     65 OXT  TRP X   6     -21.354 -10.908  37.575  1.00 39.11 LIG-0.65  OA
ENDBRANCH 51 63
ENDBRANCH 49 51
ENDBRANCH 43 47
ENDBRANCH 1 40
TORSDOF 19
ENDMDL
MODEL 14
USER: ADFR SOLUTION from run 118
USER: SCORE 17.693132 LL:  -3.447 LR: -14.749 RR:   0.000 FEB:  -9.081
USER: RMSD 6.169408
USER: SEED 117
USER: STATUS no improvement in best in 16 clusters for 5 generations
USER: GENES 21
USER: genes 0 Translation |==|  0.41490 0.44478 0.53599
USER: genes 1 Rotation |==|  0.64267 0.51804 0.66186 0.95069
USER: genes 2 Torsion [CB]-CA--N-[C] |==|  0.85556
USER: genes 3 Torsion [N]-C--CA-[N] |==|  0.42998
USER: genes 4 Torsion [C]-CA--N-[C] |==|  0.80417
USER: genes 5 Torsion [N]-C--CA-[N] |==|  0.95938
USER: genes 6 Torsion [C]-CA--CB-[CG] |==|  0.65086
USER: genes 7 Torsion [CA]-CB--CG-[SD] |==|  0.44949
USER: genes 8 Torsion [CB]-CG--SD-[CE] |==|  0.62886
USER: genes 9 Torsion [C]-CA--CB-[CG] |==|  0.40529
USER: genes 10 Torsion [CA]-CB--CG-[CD2] |==|  0.62168
USER: genes 11 Torsion [N]-CA--CB-[CG] |==|  0.82405
USER: genes 12 Torsion [CA]-CB--CG-[CD] |==|  0.80345
USER: genes 13 Torsion [CB]-CG--CD-[NE] |==|  0.33825
USER: genes 14 Torsion [CG]-CD--NE-[CZ] |==|  0.36529
USER: genes 15 Torsion [N]-CA--C-[N] |==|  0.44711
USER: genes 16 Torsion [N]-CA--C-[O] |==|  0.80157
USER: genes 17 Torsion [C]-N--CA-[CB] |==|  0.47331
USER: genes 18 Torsion [N]-CA--CB-[CG] |==|  0.10254
USER: genes 19 Torsion [CA]-CB--CG-[CD2] |==|  0.66236
USER: genes 20 Torsion [N]-CA--C-[O] |==|  0.95113
ROOT
ATOM      1  CA  ARG X   4     -23.152 -13.553  39.369  1.00 29.51 LIG 0.18  C 
ENDROOT
BRANCH 1 2
ATOM      2  N   ARG X   4     -23.658 -12.999  38.116  1.00 29.26 LIG-0.35  N 
ATOM      3  C   TRP X   3     -23.034 -13.168  36.935  1.00 30.37 LIG 0.24  C 
ATOM      4 O    TRP X   3     -21.989 -13.839  36.796  1.00 30.38 LIG-0.27  OA
ATOM      5 H    ARG X   4     -24.390 -12.557  38.202  1.00 29.26 LIG 0.16  HD
BRANCH 3 6
ATOM      6  CA  TRP X   3     -23.691 -12.494  35.713  1.00 30.62 LIG 0.18  C 
BRANCH 6 7
ATOM      7  N   TRP X   3     -22.724 -12.206  34.640  1.00 31.45 LIG-0.34  N 
ATOM      8 H    TRP X   3     -22.798 -12.689  33.932  1.00 31.45 LIG 0.16  HD
ATOM      9  C   MET X   2     -21.822 -11.245  34.827  1.00 32.92 LIG 0.26  C 
ATOM     10 O    MET X   2     -21.819 -10.538  35.817  1.00 32.35 LIG-0.27  OA
BRANCH 9 11
ATOM     11  CA  MET X   2     -20.798 -11.003  33.752  1.00 34.28 LIG 0.40  C 
ATOM     12  N   MET X   2     -20.748 -12.148  32.760  1.00 35.36 LIG 0.61  N 
BRANCH 11 13
ATOM     13  CB  MET X   2     -21.141  -9.706  33.037  1.00 35.71 LIG 0.06  C 
BRANCH 13 14
ATOM     14  CG  MET X   2     -21.274  -9.829  31.543  1.00 37.62 LIG 0.08  C 
BRANCH 14 15
ATOM     15 SD   MET X   2     -22.153  -8.507  30.667  1.00 39.06 LIG-0.17  SA
ATOM     16  CE  MET X   2     -23.248  -9.474  29.581  1.00 45.88 LIG 0.09  C 
ENDBRANCH 14 15
ENDBRANCH 13 14
ENDBRANCH 11 13
ENDBRANCH 9 11
ENDBRANCH 6 7
BRANCH 6 17
ATOM     17  CB  TRP X   3     -24.888 -13.306  35.215  1.00 29.85 LIG 0.07  C 
BRANCH 17 18
ATOM     18  CG  TRP X   3     -25.987 -12.434  34.669  1.00 29.58 LIG-0.03  A 
ATOM     19  CD1 TRP X   3     -25.833 -11.354  33.842  1.00 26.84 LIG 0.10  A 
ATOM     20  NE1 TRP X   3     -27.058 -10.807  33.564  1.00 29.47 LIG-0.36  N 
ATOM     21 HE1  TRP X   3     -27.192 -10.117  33.068  1.00 29.47 LIG 0.17  HD
ATOM     22  CE2 TRP X   3     -28.042 -11.529  34.200  1.00 27.62 LIG 0.04  A 
ATOM     23  CZ2 TRP X   3     -29.459 -11.351  34.218  1.00 28.85 LIG 0.03  A 
ATOM     24  CD2 TRP X   3     -27.403 -12.567  34.911  1.00 25.33 LIG-0.00  A 
ATOM     25  CH2 TRP X   3     -30.218 -12.257  34.969  1.00 28.18 LIG 0.00  A 
ATOM     26  CZ3 TRP X   3     -29.595 -13.289  35.695  1.00 26.79 LIG 0.00  A 
ATOM     27  CE3 TRP X   3     -28.185 -13.442  35.684  1.00 25.86 LIG 0.01  A 
ENDBRANCH 17 18
ENDBRANCH 6 17
ENDBRANCH 3 6
ENDBRANCH 1 2
BRANCH 1 28
ATOM     28  CB  ARG X   4     -22.861 -15.063  39.247  1.00 29.55 LIG 0.04  C 
BRANCH 28 29
ATOM     29  CG  ARG X   4     -24.090 -15.922  38.960  1.00 28.17 LIG 0.02  C 
BRANCH 29 30
ATOM     30  CD  ARG X   4     -25.000 -15.980  40.196  1.00 27.09 LIG 0.14  C 
BRANCH 30 31
ATOM     31  NE  ARG X   4     -26.328 -15.477  39.855  1.00 25.46 LIG-0.23  N 
ATOM     32 HE   ARG X   4     -26.385 -14.730  39.433  1.00 25.46 LIG 0.18  HD
ATOM     33  CZ  ARG X   4     -27.457 -16.117  40.165  1.00 27.27 LIG 0.67  C 
ATOM     34  NH2 ARG X   4     -28.639 -15.613  39.820  1.00 24.12 LIG-0.23  N 
ATOM     35  NH1 ARG X   4     -27.394 -17.261  40.841  1.00 21.32 LIG-0.23  N 
ATOM     36 1HH2 ARG X   4     -28.681 -14.868  39.393  1.00 24.12 LIG 0.17  HD
ATOM     37 2HH2 ARG X   4     -29.362 -16.032  40.024  1.00 24.12 LIG 0.17  HD
ATOM     38 2HH1 ARG X   4     -28.117 -17.680  41.045  1.00 21.32 LIG 0.17  HD
ATOM     39 1HH1 ARG X   4     -26.631 -17.582  41.073  1.00 21.32 LIG 0.17  HD
ENDBRANCH 30 31
ENDBRANCH 29 30
ENDBRANCH 28 29
ENDBRANCH 1 28
BRANCH 1 40
ATOM     40  C   ARG X   4     -21.871 -12.834  39.703  1.00 30.38 LIG 0.24  C 
ATOM     41 O    ARG X   4     -21.270 -12.249  38.816  1.00 31.87 LIG-0.27  OA
ATOM     42  N   PRO X   5     -21.434 -12.885  40.972  1.00 30.60 LIG-0.34  N 
ATOM     43  CA  PRO X   5     -20.295 -12.050  41.416  1.00 31.31 LIG 0.18  C 
ATOM     44  CD  PRO X   5     -22.032 -13.684  42.076  1.00 29.99 LIG 0.13  C 
ATOM     45  CB  PRO X   5     -20.401 -12.109  42.943  1.00 30.70 LIG 0.04  C 
ATOM     46  CG  PRO X   5     -21.111 -13.462  43.248  1.00 29.42 LIG 0.02  C 
BRANCH 43 47
ATOM     47  C   PRO X   5     -18.863 -12.469  40.982  1.00 32.23 LIG 0.24  C 
ATOM     48 O    PRO X   5     -18.317 -13.494  41.490  1.00 32.23 LIG-0.27  OA
ATOM     49  N   TRP X   6     -18.271 -11.720  40.056  1.00 33.50 LIG-0.34  N 
ATOM     50 H    TRP X   6     -18.588 -10.978  39.757  1.00 33.50 LIG 0.16  HD
BRANCH 49 51
ATOM     51  CA  TRP X   6     -16.991 -12.125  39.459  1.00 34.66 LIG 0.19  C 
BRANCH 51 52
ATOM     52  CB  TRP X   6     -16.661 -11.213  38.260  1.00 34.41 LIG 0.08  C 
BRANCH 52 53
ATOM     53  CG  TRP X   6     -17.064  -9.762  38.447  1.00 32.39 LIG-0.03  A 
ATOM     54  CD2 TRP X   6     -17.961  -8.989  37.620  1.00 31.68 LIG-0.00  A 
ATOM     55  CE2 TRP X   6     -18.016  -7.693  38.170  1.00 33.29 LIG 0.04  A 
ATOM     56  CE3 TRP X   6     -18.727  -9.272  36.481  1.00 33.66 LIG 0.01  A 
ATOM     57  CZ2 TRP X   6     -18.829  -6.684  37.635  1.00 33.18 LIG 0.03  A 
ATOM     58  NE1 TRP X   6     -17.205  -7.684  39.280  1.00 30.87 LIG-0.36  N 
ATOM     59  CH2 TRP X   6     -19.563  -6.981  36.532  1.00 32.36 LIG 0.00  A 
ATOM     60  CZ3 TRP X   6     -19.512  -8.260  35.935  1.00 32.37 LIG 0.00  A 
ATOM     61 HE1  TRP X   6     -17.078  -7.010  39.800  1.00 30.87 LIG 0.17  HD
ATOM     62  CD1 TRP X   6     -16.633  -8.919  39.426  1.00 30.01 LIG 0.10  A 
ENDBRANCH 52 53
ENDBRANCH 51 52
BRANCH 51 63
ATOM     63  C   TRP X   6     -15.831 -12.144  40.476  1.00 36.76 LIG 0.20  C 
ATOM     64 O    TRP X   6     -15.851 -11.570  41.579  1.00 37.86 LIG-0.65  OA
ATOM     65 OXT  TRP X   6     -14.780 -12.742  40.217  1.00 39.11 LIG-0.65  OA
ENDBRANCH 51 63
ENDBRANCH 49 51
ENDBRANCH 43 47
ENDBRANCH 1 40
TORSDOF 19
ENDMDL
MODEL 15
USER: ADFR SOLUTION from run 133
USER: SCORE 17.398368 LL:  -4.177 LR: -14.741 RR:   0.000 FEB:  -9.073
USER: RMSD 9.700270
USER: SEED 132
USER: STATUS no improvement in best in 16 clusters for 5 generations
USER: GENES 21
USER: genes 0 Translation |==|  0.55719 0.72961 0.69367
USER: genes 1 Rotation |==|  0.26009 0.69812 0.77587 0.77765
USER: genes 2 Torsion [CB]-CA--N-[C] |==|  0.39711
USER: genes 3 Torsion [N]-C--CA-[N] |==|  0.93627
USER: genes 4 Torsion [C]-CA--N-[C] |==|  0.82308
USER: genes 5 Torsion [N]-C--CA-[N] |==|  0.55427
USER: genes 6 Torsion [C]-CA--CB-[CG] |==|  0.27839
USER: genes 7 Torsion [CA]-CB--CG-[SD] |==|  0.55019
USER: genes 8 Torsion [CB]-CG--SD-[CE] |==|  0.30900
USER: genes 9 Torsion [C]-CA--CB-[CG] |==|  0.40406
USER: genes 10 Torsion [CA]-CB--CG-[CD2] |==|  0.88676
USER: genes 11 Torsion [N]-CA--CB-[CG] |==|  0.39217
USER: genes 12 Torsion [CA]-CB--CG-[CD] |==|  0.24118
USER: genes 13 Torsion [CB]-CG--CD-[NE] |==|  0.72679
USER: genes 14 Torsion [CG]-CD--NE-[CZ] |==|  0.81237
USER: genes 15 Torsion [N]-CA--C-[N] |==|  0.82243
USER: genes 16 Torsion [N]-CA--C-[O] |==|  0.33257
USER: genes 17 Torsion [C]-N--CA-[CB] |==|  0.47322
USER: genes 18 Torsion [N]-CA--CB-[CG] |==|  0.66700
USER: genes 19 Torsion [CA]-CB--CG-[CD2] |==|  0.77489
USER: genes 20 Torsion [N]-CA--C-[O] |==|  0.35503
ROOT
ATOM      1  CA  ARG X   4     -20.164  -7.999  42.325  1.00 29.51 LIG 0.18  C 
ENDROOT
BRANCH 1 2
ATOM      2  N   ARG X   4     -20.010  -9.446  42.211  1.00 29.26 LIG-0.35  N 
ATOM      3  C   TRP X   3     -21.054 -10.289  42.110  1.00 30.37 LIG 0.24  C 
ATOM      4 O    TRP X   3     -22.245  -9.912  42.069  1.00 30.38 LIG-0.27  OA
ATOM      5 H    ARG X   4     -19.191  -9.709  42.215  1.00 29.26 LIG 0.16  HD
BRANCH 3 6
ATOM      6  CA  TRP X   3     -20.713 -11.792  42.023  1.00 30.62 LIG 0.18  C 
BRANCH 6 7
ATOM      7  N   TRP X   3     -19.345 -12.032  41.533  1.00 31.45 LIG-0.34  N 
ATOM      8 H    TRP X   3     -18.812 -12.415  42.088  1.00 31.45 LIG 0.16  HD
ATOM      9  C   MET X   2     -19.027 -11.651  40.297  1.00 32.92 LIG 0.26  C 
ATOM     10 O    MET X   2     -19.848 -11.189  39.527  1.00 32.35 LIG-0.27  OA
BRANCH 9 11
ATOM     11  CA  MET X   2     -17.611 -11.842  39.829  1.00 34.28 LIG 0.40  C 
ATOM     12  N   MET X   2     -17.293 -10.960  38.637  1.00 35.36 LIG 0.61  N 
BRANCH 11 13
ATOM     13  CB  MET X   2     -16.671 -11.525  40.980  1.00 35.71 LIG 0.06  C 
BRANCH 13 14
ATOM     14  CG  MET X   2     -16.137 -12.731  41.705  1.00 37.62 LIG 0.08  C 
BRANCH 14 15
ATOM     15 SD   MET X   2     -15.435 -12.476  43.357  1.00 39.06 LIG-0.17  SA
ATOM     16  CE  MET X   2     -16.671 -13.318  44.396  1.00 45.88 LIG 0.09  C 
ENDBRANCH 14 15
ENDBRANCH 13 14
ENDBRANCH 11 13
ENDBRANCH 9 11
ENDBRANCH 6 7
BRANCH 6 17
ATOM     17  CB  TRP X   3     -20.987 -12.495  43.353  1.00 29.85 LIG 0.07  C 
BRANCH 17 18
ATOM     18  CG  TRP X   3     -21.477 -13.906  43.166  1.00 29.58 LIG-0.03  A 
ATOM     19  CD1 TRP X   3     -21.113 -14.999  43.906  1.00 26.84 LIG 0.10  A 
ATOM     20  NE1 TRP X   3     -21.759 -16.111  43.435  1.00 29.47 LIG-0.36  N 
ATOM     21 HE1  TRP X   3     -21.671 -16.906  43.751  1.00 29.47 LIG 0.17  HD
ATOM     22  CE2 TRP X   3     -22.571 -15.763  42.380  1.00 27.62 LIG 0.04  A 
ATOM     23  CZ2 TRP X   3     -23.431 -16.562  41.568  1.00 28.85 LIG 0.03  A 
ATOM     24  CD2 TRP X   3     -22.418 -14.375  42.178  1.00 25.33 LIG-0.00  A 
ATOM     25  CH2 TRP X   3     -24.144 -15.920  40.547  1.00 28.18 LIG 0.00  A 
ATOM     26  CZ3 TRP X   3     -23.992 -14.539  40.325  1.00 26.79 LIG 0.00  A 
ATOM     27  CE3 TRP X   3     -23.118 -13.760  41.127  1.00 25.86 LIG 0.01  A 
ENDBRANCH 17 18
ENDBRANCH 6 17
ENDBRANCH 3 6
ENDBRANCH 1 2
BRANCH 1 28
ATOM     28  CB  ARG X   4     -19.113  -7.388  43.275  1.00 29.55 LIG 0.04  C 
BRANCH 28 29
ATOM     29  CG  ARG X   4     -18.555  -6.042  42.819  1.00 28.17 LIG 0.02  C 
BRANCH 29 30
ATOM     30  CD  ARG X   4     -19.452  -4.898  43.315  1.00 27.09 LIG 0.14  C 
BRANCH 30 31
ATOM     31  NE  ARG X   4     -20.355  -4.480  42.246  1.00 25.46 LIG-0.23  N 
ATOM     32 HE   ARG X   4     -21.196  -4.630  42.341  1.00 25.46 LIG 0.18  HD
ATOM     33  CZ  ARG X   4     -19.941  -3.877  41.130  1.00 27.27 LIG 0.67  C 
ATOM     34  NH2 ARG X   4     -20.812  -3.511  40.194  1.00 24.12 LIG-0.23  N 
ATOM     35  NH1 ARG X   4     -18.641  -3.657  40.951  1.00 21.32 LIG-0.23  N 
ATOM     36 1HH2 ARG X   4     -21.651  -3.662  40.305  1.00 24.12 LIG 0.17  HD
ATOM     37 2HH2 ARG X   4     -20.536  -3.122  39.478  1.00 24.12 LIG 0.17  HD
ATOM     38 2HH1 ARG X   4     -18.365  -3.270  40.235  1.00 21.32 LIG 0.17  HD
ATOM     39 1HH1 ARG X   4     -18.076  -3.903  41.551  1.00 21.32 LIG 0.17  HD
ENDBRANCH 30 31
ENDBRANCH 29 30
ENDBRANCH 28 29
ENDBRANCH 1 28
BRANCH 1 40
ATOM     40  C   ARG X   4     -19.982  -7.409  40.951  1.00 30.38 LIG 0.24  C 
ATOM     41 O    ARG X   4     -20.926  -6.850  40.416  1.00 31.87 LIG-0.27  OA
ATOM     42  N   PRO X   5     -18.783  -7.543  40.363  1.00 30.60 LIG-0.34  N 
ATOM     43  CA  PRO X   5     -18.471  -6.829  39.104  1.00 31.31 LIG 0.18  C 
ATOM     44  CD  PRO X   5     -17.629  -8.323  40.888  1.00 29.99 LIG 0.13  C 
ATOM     45  CB  PRO X   5     -16.945  -6.931  39.020  1.00 30.70 LIG 0.04  C 
ATOM     46  CG  PRO X   5     -16.581  -8.224  39.809  1.00 29.42 LIG 0.02  C 
BRANCH 43 47
ATOM     47  C   PRO X   5     -19.096  -7.358  37.784  1.00 32.23 LIG 0.24  C 
ATOM     48 O    PRO X   5     -19.861  -6.615  37.098  1.00 32.23 LIG-0.27  OA
ATOM     49  N   TRP X   6     -18.772  -8.595  37.417  1.00 33.50 LIG-0.34  N 
ATOM     50 H    TRP X   6     -18.321  -9.143  37.904  1.00 33.50 LIG 0.16  HD
BRANCH 49 51
ATOM     51  CA  TRP X   6     -19.175  -9.127  36.108  1.00 34.66 LIG 0.19  C 
BRANCH 51 52
ATOM     52  CB  TRP X   6     -18.469 -10.474  35.850  1.00 34.41 LIG 0.08  C 
BRANCH 52 53
ATOM     53  CG  TRP X   6     -17.583 -10.490  34.618  1.00 32.39 LIG-0.03  A 
ATOM     54  CD2 TRP X   6     -17.996 -10.670  33.245  1.00 31.68 LIG-0.00  A 
ATOM     55  CE2 TRP X   6     -16.829 -10.630  32.456  1.00 33.29 LIG 0.04  A 
ATOM     56  CE3 TRP X   6     -19.234 -10.848  32.614  1.00 33.66 LIG 0.01  A 
ATOM     57  CZ2 TRP X   6     -16.865 -10.736  31.058  1.00 33.18 LIG 0.03  A 
ATOM     58  NE1 TRP X   6     -15.767 -10.424  33.303  1.00 30.87 LIG-0.36  N 
ATOM     59  CH2 TRP X   6     -18.076 -10.906  30.467  1.00 32.36 LIG 0.00  A 
ATOM     60  CZ3 TRP X   6     -19.263 -10.980  31.228  1.00 32.37 LIG 0.00  A 
ATOM     61 HE1  TRP X   6     -14.944 -10.349  33.063  1.00 30.87 LIG 0.17  HD
ATOM     62  CD1 TRP X   6     -16.228 -10.357  34.590  1.00 30.01 LIG 0.10  A 
ENDBRANCH 52 53
ENDBRANCH 51 52
BRANCH 51 63
ATOM     63  C   TRP X   6     -20.703  -9.266  35.958  1.00 36.76 LIG 0.20  C 
ATOM     64 O    TRP X   6     -21.365  -8.799  35.014  1.00 37.86 LIG-0.65  OA
ATOM     65 OXT  TRP X   6     -21.367  -9.857  36.819  1.00 39.11 LIG-0.65  OA
ENDBRANCH 51 63
ENDBRANCH 49 51
ENDBRANCH 43 47
ENDBRANCH 1 40
TORSDOF 19
ENDMDL
MODEL 16
USER: ADFR SOLUTION from run 55
USER: SCORE 17.942776 LL:  -5.082 LR: -14.726 RR:   0.000 FEB:  -9.059
USER: RMSD 7.791406
USER: SEED 54
USER: STATUS no improvement in best in 10 clusters for 5 generations
USER: GENES 21
USER: genes 0 Translation |==|  0.65426 0.69262 0.50657
USER: genes 1 Rotation |==|  0.10202 0.73660 0.44437 0.68037
USER: genes 2 Torsion [CB]-CA--N-[C] |==|  0.47796
USER: genes 3 Torsion [N]-C--CA-[N] |==|  0.54011
USER: genes 4 Torsion [C]-CA--N-[C] |==|  0.62852
USER: genes 5 Torsion [N]-C--CA-[N] |==|  0.81705
USER: genes 6 Torsion [C]-CA--CB-[CG] |==|  0.15617
USER: genes 7 Torsion [CA]-CB--CG-[SD] |==|  0.73242
USER: genes 8 Torsion [CB]-CG--SD-[CE] |==|  0.82896
USER: genes 9 Torsion [C]-CA--CB-[CG] |==|  0.20528
USER: genes 10 Torsion [CA]-CB--CG-[CD2] |==|  0.11011
USER: genes 11 Torsion [N]-CA--CB-[CG] |==|  0.67537
USER: genes 12 Torsion [CA]-CB--CG-[CD] |==|  0.13821
USER: genes 13 Torsion [CB]-CG--CD-[NE] |==|  0.32704
USER: genes 14 Torsion [CG]-CD--NE-[CZ] |==|  0.57335
USER: genes 15 Torsion [N]-CA--C-[N] |==|  0.87977
USER: genes 16 Torsion [N]-CA--C-[O] |==|  0.95928
USER: genes 17 Torsion [C]-N--CA-[CB] |==|  0.33158
USER: genes 18 Torsion [N]-CA--CB-[CG] |==|  0.91387
USER: genes 19 Torsion [CA]-CB--CG-[CD2] |==|  0.82135
USER: genes 20 Torsion [N]-CA--C-[O] |==|  0.64633
ROOT
ATOM      1  CA  ARG X   4     -18.125  -8.720  38.817  1.00 29.51 LIG 0.18  C 
ENDROOT
BRANCH 1 2
ATOM      2  N   ARG X   4     -18.959  -9.207  39.913  1.00 29.26 LIG-0.35  N 
ATOM      3  C   TRP X   3     -19.860 -10.195  39.766  1.00 30.37 LIG 0.24  C 
ATOM      4 O    TRP X   3     -20.043 -10.809  38.693  1.00 30.38 LIG-0.27  OA
ATOM      5 H    ARG X   4     -18.820  -8.803  40.660  1.00 29.26 LIG 0.16  HD
BRANCH 3 6
ATOM      6  CA  TRP X   3     -20.675 -10.569  41.022  1.00 30.62 LIG 0.18  C 
BRANCH 6 7
ATOM      7  N   TRP X   3     -21.378 -11.855  40.876  1.00 31.45 LIG-0.34  N 
ATOM      8 H    TRP X   3     -20.910 -12.501  40.555  1.00 31.45 LIG 0.16  HD
ATOM      9  C   MET X   2     -22.656 -11.936  41.240  1.00 32.92 LIG 0.26  C 
ATOM     10 O    MET X   2     -23.243 -11.010  41.766  1.00 32.35 LIG-0.27  OA
BRANCH 9 11
ATOM     11  CA  MET X   2     -23.382 -13.235  41.027  1.00 34.28 LIG 0.40  C 
ATOM     12  N   MET X   2     -23.532 -13.557  39.553  1.00 35.36 LIG 0.61  N 
BRANCH 11 13
ATOM     13  CB  MET X   2     -22.614 -14.343  41.729  1.00 35.71 LIG 0.06  C 
BRANCH 13 14
ATOM     14  CG  MET X   2     -22.383 -14.112  43.198  1.00 37.62 LIG 0.08  C 
BRANCH 14 15
ATOM     15 SD   MET X   2     -20.793 -13.397  43.695  1.00 39.06 LIG-0.17  SA
ATOM     16  CE  MET X   2     -19.635 -14.672  43.108  1.00 45.88 LIG 0.09  C 
ENDBRANCH 14 15
ENDBRANCH 13 14
ENDBRANCH 11 13
ENDBRANCH 9 11
ENDBRANCH 6 7
BRANCH 6 17
ATOM     17  CB  TRP X   3     -19.803 -10.521  42.278  1.00 29.85 LIG 0.07  C 
BRANCH 17 18
ATOM     18  CG  TRP X   3     -19.494  -9.113  42.709  1.00 29.58 LIG-0.03  A 
ATOM     19  CD1 TRP X   3     -18.299  -8.654  43.194  1.00 26.84 LIG 0.10  A 
ATOM     20  NE1 TRP X   3     -18.401  -7.320  43.487  1.00 29.47 LIG-0.36  N 
ATOM     21 HE1  TRP X   3     -17.769  -6.833  43.809  1.00 29.47 LIG 0.17  HD
ATOM     22  CE2 TRP X   3     -19.669  -6.876  43.187  1.00 27.62 LIG 0.04  A 
ATOM     23  CZ2 TRP X   3     -20.253  -5.580  43.318  1.00 28.85 LIG 0.03  A 
ATOM     24  CD2 TRP X   3     -20.391  -7.983  42.693  1.00 25.33 LIG-0.00  A 
ATOM     25  CH2 TRP X   3     -21.590  -5.427  42.928  1.00 28.18 LIG 0.00  A 
ATOM     26  CZ3 TRP X   3     -22.328  -6.524  42.446  1.00 26.79 LIG 0.00  A 
ATOM     27  CE3 TRP X   3     -21.740  -7.811  42.340  1.00 25.86 LIG 0.01  A 
ENDBRANCH 17 18
ENDBRANCH 6 17
ENDBRANCH 3 6
ENDBRANCH 1 2
BRANCH 1 28
ATOM     28  CB  ARG X   4     -17.332  -7.460  39.222  1.00 29.55 LIG 0.04  C 
BRANCH 28 29
ATOM     29  CG  ARG X   4     -17.683  -6.208  38.423  1.00 28.17 LIG 0.02  C 
BRANCH 29 30
ATOM     30  CD  ARG X   4     -19.206  -6.007  38.391  1.00 27.09 LIG 0.14  C 
BRANCH 30 31
ATOM     31  NE  ARG X   4     -19.550  -4.747  39.043  1.00 25.46 LIG-0.23  N 
ATOM     32 HE   ARG X   4     -18.962  -4.119  39.054  1.00 25.46 LIG 0.18  HD
ATOM     33  CZ  ARG X   4     -20.730  -4.519  39.623  1.00 27.27 LIG 0.67  C 
ATOM     34  NH2 ARG X   4     -20.990  -3.346  40.195  1.00 24.12 LIG-0.23  N 
ATOM     35  NH1 ARG X   4     -21.646  -5.484  39.640  1.00 21.32 LIG-0.23  N 
ATOM     36 1HH2 ARG X   4     -20.395  -2.726  40.194  1.00 24.12 LIG 0.17  HD
ATOM     37 2HH2 ARG X   4     -21.754  -3.209  40.566  1.00 24.12 LIG 0.17  HD
ATOM     38 2HH1 ARG X   4     -22.409  -5.347  40.011  1.00 21.32 LIG 0.17  HD
ATOM     39 1HH1 ARG X   4     -21.475  -6.246  39.279  1.00 21.32 LIG 0.17  HD
ENDBRANCH 30 31
ENDBRANCH 29 30
ENDBRANCH 28 29
ENDBRANCH 1 28
BRANCH 1 40
ATOM     40  C   ARG X   4     -17.155  -9.815  38.459  1.00 30.38 LIG 0.24  C 
ATOM     41 O    ARG X   4     -16.961 -10.073  37.282  1.00 31.87 LIG-0.27  OA
ATOM     42  N   PRO X   5     -16.556 -10.478  39.461  1.00 30.60 LIG-0.34  N 
ATOM     43  CA  PRO X   5     -15.454 -11.429  39.191  1.00 31.31 LIG 0.18  C 
ATOM     44  CD  PRO X   5     -16.839 -10.317  40.914  1.00 29.99 LIG 0.13  C 
ATOM     45  CB  PRO X   5     -14.823 -11.625  40.573  1.00 30.70 LIG 0.04  C 
ATOM     46  CG  PRO X   5     -15.973 -11.351  41.586  1.00 29.42 LIG 0.02  C 
BRANCH 43 47
ATOM     47  C   PRO X   5     -15.811 -12.814  38.585  1.00 32.23 LIG 0.24  C 
ATOM     48 O    PRO X   5     -17.012 -13.222  38.590  1.00 32.23 LIG-0.27  OA
ATOM     49  N   TRP X   6     -14.813 -13.516  38.057  1.00 33.50 LIG-0.34  N 
ATOM     50 H    TRP X   6     -13.983 -13.297  38.114  1.00 33.50 LIG 0.16  HD
BRANCH 49 51
ATOM     51  CA  TRP X   6     -15.070 -14.758  37.314  1.00 34.66 LIG 0.19  C 
BRANCH 51 52
ATOM     52  CB  TRP X   6     -14.566 -14.615  35.864  1.00 34.41 LIG 0.08  C 
BRANCH 52 53
ATOM     53  CG  TRP X   6     -14.638 -13.202  35.313  1.00 32.39 LIG-0.03  A 
ATOM     54  CD2 TRP X   6     -15.825 -12.414  35.077  1.00 31.68 LIG-0.00  A 
ATOM     55  CE2 TRP X   6     -15.401 -11.180  34.545  1.00 33.29 LIG 0.04  A 
ATOM     56  CE3 TRP X   6     -17.195 -12.630  35.275  1.00 33.66 LIG 0.01  A 
ATOM     57  CZ2 TRP X   6     -16.299 -10.150  34.231  1.00 33.18 LIG 0.03  A 
ATOM     58  NE1 TRP X   6     -14.029 -11.213  34.474  1.00 30.87 LIG-0.36  N 
ATOM     59  CH2 TRP X   6     -17.623 -10.380  34.432  1.00 32.36 LIG 0.00  A 
ATOM     60  CZ3 TRP X   6     -18.087 -11.616  34.936  1.00 32.37 LIG 0.00  A 
ATOM     61 HE1  TRP X   6     -13.528 -10.572  34.194  1.00 30.87 LIG 0.17  HD
ATOM     62  CD1 TRP X   6     -13.587 -12.429  34.921  1.00 30.01 LIG 0.10  A 
ENDBRANCH 52 53
ENDBRANCH 51 52
BRANCH 51 63
ATOM     63  C   TRP X   6     -14.463 -16.003  37.991  1.00 36.76 LIG 0.20  C 
ATOM     64 O    TRP X   6     -13.717 -16.821  37.424  1.00 37.86 LIG-0.65  OA
ATOM     65 OXT  TRP X   6     -14.717 -16.261  39.174  1.00 39.11 LIG-0.65  OA
ENDBRANCH 51 63
ENDBRANCH 49 51
ENDBRANCH 43 47
ENDBRANCH 1 40
TORSDOF 19
ENDMDL
MODEL 17
USER: ADFR SOLUTION from run 164
USER: SCORE 17.682347 LL:  -4.144 LR: -14.712 RR:   0.000 FEB:  -9.044
USER: RMSD 5.281035
USER: SEED 163
USER: STATUS no improvement in best in 22 clusters for 5 generations
USER: GENES 21
USER: genes 0 Translation |==|  0.43662 0.48305 0.56959
USER: genes 1 Rotation |==|  0.54765 0.36611 0.74020 0.91486
USER: genes 2 Torsion [CB]-CA--N-[C] |==|  0.25000
USER: genes 3 Torsion [N]-C--CA-[N] |==|  0.49847
USER: genes 4 Torsion [C]-CA--N-[C] |==|  0.63957
USER: genes 5 Torsion [N]-C--CA-[N] |==|  0.63477
USER: genes 6 Torsion [C]-CA--CB-[CG] |==|  0.29382
USER: genes 7 Torsion [CA]-CB--CG-[SD] |==|  0.58873
USER: genes 8 Torsion [CB]-CG--SD-[CE] |==|  0.07659
USER: genes 9 Torsion [C]-CA--CB-[CG] |==|  0.26342
USER: genes 10 Torsion [CA]-CB--CG-[CD2] |==|  0.25197
USER: genes 11 Torsion [N]-CA--CB-[CG] |==|  0.64121
USER: genes 12 Torsion [CA]-CB--CG-[CD] |==|  0.19581
USER: genes 13 Torsion [CB]-CG--CD-[NE] |==|  0.65951
USER: genes 14 Torsion [CG]-CD--NE-[CZ] |==|  0.68857
USER: genes 15 Torsion [N]-CA--C-[N] |==|  0.82785
USER: genes 16 Torsion [N]-CA--C-[O] |==|  0.87067
USER: genes 17 Torsion [C]-N--CA-[CB] |==|  0.81611
USER: genes 18 Torsion [N]-CA--CB-[CG] |==|  0.33020
USER: genes 19 Torsion [CA]-CB--CG-[CD2] |==|  0.70699
USER: genes 20 Torsion [N]-CA--C-[O] |==|  0.79682
ROOT
ATOM      1  CA  ARG X   4     -22.696 -12.806  39.999  1.00 29.51 LIG 0.18  C 
ENDROOT
BRANCH 1 2
ATOM      2  N   ARG X   4     -22.235 -12.388  38.678  1.00 29.26 LIG-0.35  N 
ATOM      3  C   TRP X   3     -22.945 -12.598  37.554  1.00 30.37 LIG 0.24  C 
ATOM      4 O    TRP X   3     -24.073 -13.136  37.539  1.00 30.38 LIG-0.27  OA
ATOM      5 H    ARG X   4     -21.470 -11.996  38.685  1.00 29.26 LIG 0.16  HD
BRANCH 3 6
ATOM      6  CA  TRP X   3     -22.299 -12.115  36.238  1.00 30.62 LIG 0.18  C 
BRANCH 6 7
ATOM      7  N   TRP X   3     -23.139 -12.397  35.061  1.00 31.45 LIG-0.34  N 
ATOM      8 H    TRP X   3     -23.959 -12.147  35.120  1.00 31.45 LIG 0.16  HD
ATOM      9  C   MET X   2     -22.591 -13.004  34.010  1.00 32.92 LIG 0.26  C 
ATOM     10 O    MET X   2     -21.403 -13.259  33.951  1.00 32.35 LIG-0.27  OA
BRANCH 9 11
ATOM     11  CA  MET X   2     -23.471 -13.345  32.839  1.00 34.28 LIG 0.40  C 
ATOM     12  N   MET X   2     -23.275 -14.781  32.394  1.00 35.36 LIG 0.61  N 
BRANCH 11 13
ATOM     13  CB  MET X   2     -24.920 -13.113  33.235  1.00 35.71 LIG 0.06  C 
BRANCH 13 14
ATOM     14  CG  MET X   2     -25.545 -11.883  32.635  1.00 37.62 LIG 0.08  C 
BRANCH 14 15
ATOM     15 SD   MET X   2     -26.808 -11.021  33.611  1.00 39.06 LIG-0.17  SA
ATOM     16  CE  MET X   2     -26.300 -11.455  35.304  1.00 45.88 LIG 0.09  C 
ENDBRANCH 14 15
ENDBRANCH 13 14
ENDBRANCH 11 13
ENDBRANCH 9 11
ENDBRANCH 6 7
BRANCH 6 17
ATOM     17  CB  TRP X   3     -21.902 -10.640  36.330  1.00 29.85 LIG 0.07  C 
BRANCH 17 18
ATOM     18  CG  TRP X   3     -20.464 -10.457  36.733  1.00 29.58 LIG-0.03  A 
ATOM     19  CD1 TRP X   3     -19.984 -10.357  38.011  1.00 26.84 LIG 0.10  A 
ATOM     20  NE1 TRP X   3     -18.624 -10.189  37.981  1.00 29.47 LIG-0.36  N 
ATOM     21 HE1  TRP X   3     -18.121 -10.099  38.673  1.00 29.47 LIG 0.17  HD
ATOM     22  CE2 TRP X   3     -18.186 -10.187  36.676  1.00 27.62 LIG 0.04  A 
ATOM     23  CZ2 TRP X   3     -16.871 -10.043  36.139  1.00 28.85 LIG 0.03  A 
ATOM     24  CD2 TRP X   3     -19.322 -10.353  35.856  1.00 25.33 LIG-0.00  A 
ATOM     25  CH2 TRP X   3     -16.731 -10.078  34.746  1.00 28.18 LIG 0.00  A 
ATOM     26  CZ3 TRP X   3     -17.855 -10.229  33.914  1.00 26.79 LIG 0.00  A 
ATOM     27  CE3 TRP X   3     -19.159 -10.352  34.461  1.00 25.86 LIG 0.01  A 
ENDBRANCH 17 18
ENDBRANCH 6 17
ENDBRANCH 3 6
ENDBRANCH 1 2
BRANCH 1 28
ATOM     28  CB  ARG X   4     -22.225 -14.236  40.339  1.00 29.55 LIG 0.04  C 
BRANCH 28 29
ATOM     29  CG  ARG X   4     -23.334 -15.170  40.816  1.00 28.17 LIG 0.02  C 
BRANCH 29 30
ATOM     30  CD  ARG X   4     -24.272 -15.521  39.651  1.00 27.09 LIG 0.14  C 
BRANCH 30 31
ATOM     31  NE  ARG X   4     -25.640 -15.138  39.987  1.00 25.46 LIG-0.23  N 
ATOM     32 HE   ARG X   4     -25.825 -14.301  40.055  1.00 25.46 LIG 0.18  HD
ATOM     33  CZ  ARG X   4     -26.619 -16.021  40.194  1.00 27.27 LIG 0.67  C 
ATOM     34  NH2 ARG X   4     -27.850 -15.612  40.489  1.00 24.12 LIG-0.23  N 
ATOM     35  NH1 ARG X   4     -26.351 -17.322  40.119  1.00 21.32 LIG-0.23  N 
ATOM     36 1HH2 ARG X   4     -28.022 -14.772  40.548  1.00 24.12 LIG 0.17  HD
ATOM     37 2HH2 ARG X   4     -28.476 -16.188  40.620  1.00 24.12 LIG 0.17  HD
ATOM     38 2HH1 ARG X   4     -26.976 -17.898  40.252  1.00 21.32 LIG 0.17  HD
ATOM     39 1HH1 ARG X   4     -25.554 -17.587  39.939  1.00 21.32 LIG 0.17  HD
ENDBRANCH 30 31
ENDBRANCH 29 30
ENDBRANCH 28 29
ENDBRANCH 1 28
BRANCH 1 40
ATOM     40  C   ARG X   4     -22.120 -11.848  41.009  1.00 30.38 LIG 0.24  C 
ATOM     41 O    ARG X   4     -22.879 -11.160  41.673  1.00 31.87 LIG-0.27  OA
ATOM     42  N   PRO X   5     -20.784 -11.780  41.121  1.00 30.60 LIG-0.34  N 
ATOM     43  CA  PRO X   5     -20.153 -11.010  42.216  1.00 31.31 LIG 0.18  C 
ATOM     44  CD  PRO X   5     -19.793 -12.481  40.260  1.00 29.99 LIG 0.13  C 
ATOM     45  CB  PRO X   5     -18.709 -11.521  42.208  1.00 30.70 LIG 0.04  C 
ATOM     46  CG  PRO X   5     -18.453 -11.990  40.744  1.00 29.42 LIG 0.02  C 
BRANCH 43 47
ATOM     47  C   PRO X   5     -20.151  -9.459  42.119  1.00 32.23 LIG 0.24  C 
ATOM     48 O    PRO X   5     -19.818  -8.889  41.036  1.00 32.23 LIG-0.27  OA
ATOM     49  N   TRP X   6     -20.530  -8.787  43.202  1.00 33.50 LIG-0.34  N 
ATOM     50 H    TRP X   6     -20.682  -9.148  43.968  1.00 33.50 LIG 0.16  HD
BRANCH 49 51
ATOM     51  CA  TRP X   6     -20.722  -7.331  43.160  1.00 34.66 LIG 0.19  C 
BRANCH 51 52
ATOM     52  CB  TRP X   6     -19.368  -6.632  42.915  1.00 34.41 LIG 0.08  C 
BRANCH 52 53
ATOM     53  CG  TRP X   6     -19.309  -5.813  41.639  1.00 32.39 LIG-0.03  A 
ATOM     54  CD2 TRP X   6     -18.627  -6.151  40.412  1.00 31.68 LIG-0.00  A 
ATOM     55  CE2 TRP X   6     -18.836  -5.084  39.516  1.00 33.29 LIG 0.04  A 
ATOM     56  CE3 TRP X   6     -17.875  -7.254  39.986  1.00 33.66 LIG 0.01  A 
ATOM     57  CZ2 TRP X   6     -18.340  -5.097  38.205  1.00 33.18 LIG 0.03  A 
ATOM     58  NE1 TRP X   6     -19.614  -4.153  40.161  1.00 30.87 LIG-0.36  N 
ATOM     59  CH2 TRP X   6     -17.615  -6.176  37.812  1.00 32.36 LIG 0.00  A 
ATOM     60  CZ3 TRP X   6     -17.361  -7.251  38.692  1.00 32.37 LIG 0.00  A 
ATOM     61 HE1  TRP X   6     -19.891  -3.412  39.822  1.00 30.87 LIG 0.17  HD
ATOM     62  CD1 TRP X   6     -19.877  -4.592  41.431  1.00 30.01 LIG 0.10  A 
ENDBRANCH 52 53
ENDBRANCH 51 52
BRANCH 51 63
ATOM     63  C   TRP X   6     -21.769  -6.889  42.119  1.00 36.76 LIG 0.20  C 
ATOM     64 O    TRP X   6     -21.587  -6.897  40.888  1.00 37.86 LIG-0.65  OA
ATOM     65 OXT  TRP X   6     -22.876  -6.472  42.480  1.00 39.11 LIG-0.65  OA
ENDBRANCH 51 63
ENDBRANCH 49 51
ENDBRANCH 43 47
ENDBRANCH 1 40
TORSDOF 19
ENDMDL
MODEL 18
USER: ADFR SOLUTION from run 91
USER: SCORE 19.896704 LL:  -5.382 LR: -14.692 RR:   0.000 FEB:  -9.024
USER: RMSD 7.337258
USER: SEED 90
USER: STATUS no improvement in best in 2 clusters for 5 generations
USER: GENES 21
USER: genes 0 Translation |==|  0.58270 0.68439 0.36589
USER: genes 1 Rotation |==|  0.31906 0.41907 0.15946 0.80781
USER: genes 2 Torsion [CB]-CA--N-[C] |==|  0.86109
USER: genes 3 Torsion [N]-C--CA-[N] |==|  0.02305
USER: genes 4 Torsion [C]-CA--N-[C] |==|  0.70726
USER: genes 5 Torsion [N]-C--CA-[N] |==|  0.57905
USER: genes 6 Torsion [C]-CA--CB-[CG] |==|  0.73546
USER: genes 7 Torsion [CA]-CB--CG-[SD] |==|  0.32641
USER: genes 8 Torsion [CB]-CG--SD-[CE] |==|  0.14062
USER: genes 9 Torsion [C]-CA--CB-[CG] |==|  0.96912
USER: genes 10 Torsion [CA]-CB--CG-[CD2] |==|  0.80537
USER: genes 11 Torsion [N]-CA--CB-[CG] |==|  0.51212
USER: genes 12 Torsion [CA]-CB--CG-[CD] |==|  0.13865
USER: genes 13 Torsion [CB]-CG--CD-[NE] |==|  0.60729
USER: genes 14 Torsion [CG]-CD--NE-[CZ] |==|  0.77856
USER: genes 15 Torsion [N]-CA--C-[N] |==|  0.34464
USER: genes 16 Torsion [N]-CA--C-[O] |==|  0.45059
USER: genes 17 Torsion [C]-N--CA-[CB] |==|  0.40471
USER: genes 18 Torsion [N]-CA--CB-[CG] |==|  0.24144
USER: genes 19 Torsion [CA]-CB--CG-[CD2] |==|  0.37594
USER: genes 20 Torsion [N]-CA--C-[O] |==|  0.66361
ROOT
ATOM      1  CA  ARG X   4     -19.628  -8.880  36.180  1.00 29.51 LIG 0.18  C 
ENDROOT
BRANCH 1 2
ATOM      2  N   ARG X   4     -20.097  -9.680  35.051  1.00 29.26 LIG-0.35  N 
ATOM      3  C   TRP X   3     -21.365 -10.116  34.938  1.00 30.37 LIG 0.24  C 
ATOM      4 O    TRP X   3     -22.263  -9.851  35.765  1.00 30.38 LIG-0.27  OA
ATOM      5 H    ARG X   4     -19.488  -9.845  34.466  1.00 29.26 LIG 0.16  HD
BRANCH 3 6
ATOM      6  CA  TRP X   3     -21.684 -10.971  33.693  1.00 30.62 LIG 0.18  C 
BRANCH 6 7
ATOM      7  N   TRP X   3     -20.477 -11.327  32.929  1.00 31.45 LIG-0.34  N 
ATOM      8 H    TRP X   3     -19.980 -11.936  33.278  1.00 31.45 LIG 0.16  HD
ATOM      9  C   MET X   2     -20.236 -10.702  31.777  1.00 32.92 LIG 0.26  C 
ATOM     10 O    MET X   2     -21.019  -9.908  31.291  1.00 32.35 LIG-0.27  OA
BRANCH 9 11
ATOM     11  CA  MET X   2     -18.968 -11.026  31.037  1.00 34.28 LIG 0.40  C 
ATOM     12  N   MET X   2     -18.490  -9.851  30.207  1.00 35.36 LIG 0.61  N 
BRANCH 11 13
ATOM     13  CB  MET X   2     -17.902 -11.422  32.046  1.00 35.71 LIG 0.06  C 
BRANCH 13 14
ATOM     14  CG  MET X   2     -16.991 -10.301  32.468  1.00 37.62 LIG 0.08  C 
BRANCH 14 15
ATOM     15 SD   MET X   2     -17.005  -9.821  34.216  1.00 39.06 LIG-0.17  SA
ATOM     16  CE  MET X   2     -16.785 -11.436  35.026  1.00 45.88 LIG 0.09  C 
ENDBRANCH 14 15
ENDBRANCH 13 14
ENDBRANCH 11 13
ENDBRANCH 9 11
ENDBRANCH 6 7
BRANCH 6 17
ATOM     17  CB  TRP X   3     -22.518 -12.198  34.068  1.00 29.85 LIG 0.07  C 
BRANCH 17 18
ATOM     18  CG  TRP X   3     -22.590 -12.410  35.556  1.00 29.58 LIG-0.03  A 
ATOM     19  CD1 TRP X   3     -23.691 -12.238  36.351  1.00 26.84 LIG 0.10  A 
ATOM     20  NE1 TRP X   3     -23.370 -12.518  37.653  1.00 29.47 LIG-0.36  N 
ATOM     21 HE1  TRP X   3     -23.912 -12.468  38.319  1.00 29.47 LIG 0.17  HD
ATOM     22  CE2 TRP X   3     -22.047 -12.890  37.733  1.00 27.62 LIG 0.04  A 
ATOM     23  CZ2 TRP X   3     -21.257 -13.269  38.860  1.00 28.85 LIG 0.03  A 
ATOM     24  CD2 TRP X   3     -21.518 -12.833  36.426  1.00 25.33 LIG-0.00  A 
ATOM     25  CH2 TRP X   3     -19.914 -13.598  38.632  1.00 28.18 LIG 0.00  A 
ATOM     26  CZ3 TRP X   3     -19.369 -13.533  37.337  1.00 26.79 LIG 0.00  A 
ATOM     27  CE3 TRP X   3     -20.161 -13.135  36.229  1.00 25.86 LIG 0.01  A 
ENDBRANCH 17 18
ENDBRANCH 6 17
ENDBRANCH 3 6
ENDBRANCH 1 2
BRANCH 1 28
ATOM     28  CB  ARG X   4     -20.558  -7.679  36.450  1.00 29.55 LIG 0.04  C 
BRANCH 28 29
ATOM     29  CG  ARG X   4     -20.072  -6.740  37.551  1.00 28.17 LIG 0.02  C 
BRANCH 29 30
ATOM     30  CD  ARG X   4     -18.604  -6.352  37.311  1.00 27.09 LIG 0.14  C 
BRANCH 30 31
ATOM     31  NE  ARG X   4     -17.894  -6.299  38.586  1.00 25.46 LIG-0.23  N 
ATOM     32 HE   ARG X   4     -17.403  -6.970  38.808  1.00 25.46 LIG 0.18  HD
ATOM     33  CZ  ARG X   4     -17.967  -5.264  39.424  1.00 27.27 LIG 0.67  C 
ATOM     34  NH2 ARG X   4     -17.290  -5.268  40.569  1.00 24.12 LIG-0.23  N 
ATOM     35  NH1 ARG X   4     -18.740  -4.226  39.113  1.00 21.32 LIG-0.23  N 
ATOM     36 1HH2 ARG X   4     -16.799  -5.943  40.775  1.00 24.12 LIG 0.17  HD
ATOM     37 2HH2 ARG X   4     -17.343  -4.596  41.103  1.00 24.12 LIG 0.17  HD
ATOM     38 2HH1 ARG X   4     -18.793  -3.554  39.648  1.00 21.32 LIG 0.17  HD
ATOM     39 1HH1 ARG X   4     -19.186  -4.227  38.378  1.00 21.32 LIG 0.17  HD
ENDBRANCH 30 31
ENDBRANCH 29 30
ENDBRANCH 28 29
ENDBRANCH 1 28
BRANCH 1 40
ATOM     40  C   ARG X   4     -19.613  -9.770  37.396  1.00 30.38 LIG 0.24  C 
ATOM     41 O    ARG X   4     -20.643 -10.329  37.734  1.00 31.87 LIG-0.27  OA
ATOM     42  N   PRO X   5     -18.458  -9.893  38.070  1.00 30.60 LIG-0.34  N 
ATOM     43  CA  PRO X   5     -18.315 -10.891  39.153  1.00 31.31 LIG 0.18  C 
ATOM     44  CD  PRO X   5     -17.200  -9.143  37.803  1.00 29.99 LIG 0.13  C 
ATOM     45  CB  PRO X   5     -16.798 -10.970  39.350  1.00 30.70 LIG 0.04  C 
ATOM     46  CG  PRO X   5     -16.258  -9.582  38.894  1.00 29.42 LIG 0.02  C 
BRANCH 43 47
ATOM     47  C   PRO X   5     -18.997 -10.598  40.518  1.00 32.23 LIG 0.24  C 
ATOM     48 O    PRO X   5     -19.194 -11.537  41.347  1.00 32.23 LIG-0.27  OA
ATOM     49  N   TRP X   6     -19.331  -9.335  40.766  1.00 33.50 LIG-0.34  N 
ATOM     50 H    TRP X   6     -19.281  -8.698  40.189  1.00 33.50 LIG 0.16  HD
BRANCH 49 51
ATOM     51  CA  TRP X   6     -19.827  -8.928  42.088  1.00 34.66 LIG 0.19  C 
BRANCH 51 52
ATOM     52  CB  TRP X   6     -19.346  -7.498  42.409  1.00 34.41 LIG 0.08  C 
BRANCH 52 53
ATOM     53  CG  TRP X   6     -20.255  -6.400  41.889  1.00 32.39 LIG-0.03  A 
ATOM     54  CD2 TRP X   6     -20.695  -5.219  42.594  1.00 31.68 LIG-0.00  A 
ATOM     55  CE2 TRP X   6     -21.538  -4.505  41.719  1.00 33.29 LIG 0.04  A 
ATOM     56  CE3 TRP X   6     -20.446  -4.695  43.870  1.00 33.66 LIG 0.01  A 
ATOM     57  CZ2 TRP X   6     -22.116  -3.277  42.069  1.00 33.18 LIG 0.03  A 
ATOM     58  NE1 TRP X   6     -21.597  -5.210  40.541  1.00 30.87 LIG-0.36  N 
ATOM     59  CH2 TRP X   6     -21.860  -2.787  43.310  1.00 32.36 LIG 0.00  A 
ATOM     60  CZ3 TRP X   6     -21.044  -3.488  44.224  1.00 32.37 LIG 0.00  A 
ATOM     61 HE1  TRP X   6     -22.039  -4.976  39.841  1.00 30.87 LIG 0.17  HD
ATOM     62  CD1 TRP X   6     -20.840  -6.345  40.660  1.00 30.01 LIG 0.10  A 
ENDBRANCH 52 53
ENDBRANCH 51 52
BRANCH 51 63
ATOM     63  C   TRP X   6     -21.360  -9.039  42.217  1.00 36.76 LIG 0.20  C 
ATOM     64 O    TRP X   6     -22.115  -8.089  42.490  1.00 37.86 LIG-0.65  OA
ATOM     65 OXT  TRP X   6     -21.925 -10.129  42.069  1.00 39.11 LIG-0.65  OA
ENDBRANCH 51 63
ENDBRANCH 49 51
ENDBRANCH 43 47
ENDBRANCH 1 40
TORSDOF 19
ENDMDL
MODEL 19
USER: ADFR SOLUTION from run 137
USER: SCORE 19.362690 LL:  -5.431 LR: -14.681 RR:   0.000 FEB:  -9.014
USER: RMSD 3.865695
USER: SEED 136
USER: STATUS no improvement in best in 1 clusters for 5 generations
USER: GENES 21
USER: genes 0 Translation |==|  0.46431 0.49188 0.48279
USER: genes 1 Rotation |==|  0.64857 0.32324 0.52335 0.94288
USER: genes 2 Torsion [CB]-CA--N-[C] |==|  0.19209
USER: genes 3 Torsion [N]-C--CA-[N] |==|  0.41222
USER: genes 4 Torsion [C]-CA--N-[C] |==|  0.61229
USER: genes 5 Torsion [N]-C--CA-[N] |==|  0.40522
USER: genes 6 Torsion [C]-CA--CB-[CG] |==|  0.26509
USER: genes 7 Torsion [CA]-CB--CG-[SD] |==|  0.82703
USER: genes 8 Torsion [CB]-CG--SD-[CE] |==|  0.73952
USER: genes 9 Torsion [C]-CA--CB-[CG] |==|  0.23420
USER: genes 10 Torsion [CA]-CB--CG-[CD2] |==|  0.50983
USER: genes 11 Torsion [N]-CA--CB-[CG] |==|  0.65666
USER: genes 12 Torsion [CA]-CB--CG-[CD] |==|  0.67769
USER: genes 13 Torsion [CB]-CG--CD-[NE] |==|  0.42867
USER: genes 14 Torsion [CG]-CD--NE-[CZ] |==|  0.38182
USER: genes 15 Torsion [N]-CA--C-[N] |==|  0.83786
USER: genes 16 Torsion [N]-CA--C-[O] |==|  0.42580
USER: genes 17 Torsion [C]-N--CA-[CB] |==|  0.82375
USER: genes 18 Torsion [N]-CA--CB-[CG] |==|  0.84040
USER: genes 19 Torsion [CA]-CB--CG-[CD2] |==|  0.67734
USER: genes 20 Torsion [N]-CA--C-[O] |==|  0.08185
ROOT
ATOM      1  CA  ARG X   4     -22.114 -12.634  38.371  1.00 29.51 LIG 0.18  C 
ENDROOT
BRANCH 1 2
ATOM      2  N   ARG X   4     -21.397 -11.834  37.383  1.00 29.26 LIG-0.35  N 
ATOM      3  C   TRP X   3     -22.016 -11.175  36.385  1.00 30.37 LIG 0.24  C 
ATOM      4 O    TRP X   3     -23.256 -11.158  36.233  1.00 30.38 LIG-0.27  OA
ATOM      5 H    ARG X   4     -20.545 -11.823  37.497  1.00 29.26 LIG 0.16  HD
BRANCH 3 6
ATOM      6  CA  TRP X   3     -21.105 -10.397  35.413  1.00 30.62 LIG 0.18  C 
BRANCH 6 7
ATOM      7  N   TRP X   3     -21.652 -10.346  34.046  1.00 31.45 LIG-0.34  N 
ATOM      8 H    TRP X   3     -22.500 -10.221  33.989  1.00 31.45 LIG 0.16  HD
ATOM      9  C   MET X   2     -20.822 -10.492  33.015  1.00 32.92 LIG 0.26  C 
ATOM     10 O    MET X   2     -19.617 -10.582  33.155  1.00 32.35 LIG-0.27  OA
BRANCH 9 11
ATOM     11  CA  MET X   2     -21.399 -10.503  31.626  1.00 34.28 LIG 0.40  C 
ATOM     12  N   MET X   2     -20.457  -9.864  30.625  1.00 35.36 LIG 0.61  N 
BRANCH 11 13
ATOM     13  CB  MET X   2     -21.686 -11.943  31.230  1.00 35.71 LIG 0.06  C 
BRANCH 13 14
ATOM     14  CG  MET X   2     -23.102 -12.389  31.471  1.00 37.62 LIG 0.08  C 
BRANCH 14 15
ATOM     15 SD   MET X   2     -23.702 -12.394  33.183  1.00 39.06 LIG-0.17  SA
ATOM     16  CE  MET X   2     -23.359 -14.114  33.670  1.00 45.88 LIG 0.09  C 
ENDBRANCH 14 15
ENDBRANCH 13 14
ENDBRANCH 11 13
ENDBRANCH 9 11
ENDBRANCH 6 7
BRANCH 6 17
ATOM     17  CB  TRP X   3     -20.776  -9.006  35.960  1.00 29.85 LIG 0.07  C 
BRANCH 17 18
ATOM     18  CG  TRP X   3     -19.612  -9.025  36.913  1.00 29.58 LIG-0.03  A 
ATOM     19  CD1 TRP X   3     -18.844 -10.110  37.239  1.00 26.84 LIG 0.10  A 
ATOM     20  NE1 TRP X   3     -17.884  -9.743  38.144  1.00 29.47 LIG-0.36  N 
ATOM     21 HE1  TRP X   3     -17.298 -10.271  38.487  1.00 29.47 LIG 0.17  HD
ATOM     22  CE2 TRP X   3     -18.000  -8.399  38.422  1.00 27.62 LIG 0.04  A 
ATOM     23  CZ2 TRP X   3     -17.240  -7.563  39.294  1.00 28.85 LIG 0.03  A 
ATOM     24  CD2 TRP X   3     -19.084  -7.910  37.663  1.00 25.33 LIG-0.00  A 
ATOM     25  CH2 TRP X   3     -17.598  -6.212  39.375  1.00 28.18 LIG 0.00  A 
ATOM     26  CZ3 TRP X   3     -18.685  -5.711  38.635  1.00 26.79 LIG 0.00  A 
ATOM     27  CE3 TRP X   3     -19.444  -6.558  37.786  1.00 25.86 LIG 0.01  A 
ENDBRANCH 17 18
ENDBRANCH 6 17
ENDBRANCH 3 6
ENDBRANCH 1 2
BRANCH 1 28
ATOM     28  CB  ARG X   4     -22.717 -13.908  37.743  1.00 29.55 LIG 0.04  C 
BRANCH 28 29
ATOM     29  CG  ARG X   4     -24.225 -14.053  37.932  1.00 28.17 LIG 0.02  C 
BRANCH 29 30
ATOM     30  CD  ARG X   4     -24.538 -15.291  38.787  1.00 27.09 LIG 0.14  C 
BRANCH 30 31
ATOM     31  NE  ARG X   4     -25.820 -15.112  39.463  1.00 25.46 LIG-0.23  N 
ATOM     32 HE   ARG X   4     -25.993 -14.346  39.812  1.00 25.46 LIG 0.18  HD
ATOM     33  CZ  ARG X   4     -26.736 -16.076  39.565  1.00 27.27 LIG 0.67  C 
ATOM     34  NH2 ARG X   4     -27.891 -15.851  40.186  1.00 24.12 LIG-0.23  N 
ATOM     35  NH1 ARG X   4     -26.480 -17.277  39.053  1.00 21.32 LIG-0.23  N 
ATOM     36 1HH2 ARG X   4     -28.053 -15.079  40.527  1.00 24.12 LIG 0.17  HD
ATOM     37 2HH2 ARG X   4     -28.476 -16.479  40.247  1.00 24.12 LIG 0.17  HD
ATOM     38 2HH1 ARG X   4     -27.065 -17.905  39.115  1.00 21.32 LIG 0.17  HD
ATOM     39 1HH1 ARG X   4     -25.730 -17.426  38.660  1.00 21.32 LIG 0.17  HD
ENDBRANCH 30 31
ENDBRANCH 29 30
ENDBRANCH 28 29
ENDBRANCH 1 28
BRANCH 1 40
ATOM     40  C   ARG X   4     -21.129 -13.035  39.439  1.00 30.38 LIG 0.24  C 
ATOM     41 O    ARG X   4     -21.336 -12.697  40.593  1.00 31.87 LIG-0.27  OA
ATOM     42  N   PRO X   5     -20.046 -13.735  39.064  1.00 30.60 LIG-0.34  N 
ATOM     43  CA  PRO X   5     -19.138 -14.326  40.072  1.00 31.31 LIG 0.18  C 
ATOM     44  CD  PRO X   5     -19.654 -14.066  37.667  1.00 29.99 LIG 0.13  C 
ATOM     45  CB  PRO X   5     -18.323 -15.331  39.254  1.00 30.70 LIG 0.04  C 
ATOM     46  CG  PRO X   5     -18.328 -14.770  37.801  1.00 29.42 LIG 0.02  C 
BRANCH 43 47
ATOM     47  C   PRO X   5     -18.172 -13.378  40.836  1.00 32.23 LIG 0.24  C 
ATOM     48 O    PRO X   5     -17.763 -13.685  41.996  1.00 32.23 LIG-0.27  OA
ATOM     49  N   TRP X   6     -17.794 -12.269  40.208  1.00 33.50 LIG-0.34  N 
ATOM     50 H    TRP X   6     -18.119 -12.002  39.457  1.00 33.50 LIG 0.16  HD
BRANCH 49 51
ATOM     51  CA  TRP X   6     -16.757 -11.394  40.773  1.00 34.66 LIG 0.19  C 
BRANCH 51 52
ATOM     52  CB  TRP X   6     -17.241 -10.811  42.117  1.00 34.41 LIG 0.08  C 
BRANCH 52 53
ATOM     53  CG  TRP X   6     -18.541 -10.033  42.030  1.00 32.39 LIG-0.03  A 
ATOM     54  CD2 TRP X   6     -18.739  -8.626  42.292  1.00 31.68 LIG-0.00  A 
ATOM     55  CE2 TRP X   6     -20.110  -8.361  42.101  1.00 33.29 LIG 0.04  A 
ATOM     56  CE3 TRP X   6     -17.891  -7.573  42.656  1.00 33.66 LIG 0.01  A 
ATOM     57  CZ2 TRP X   6     -20.651  -7.075  42.236  1.00 33.18 LIG 0.03  A 
ATOM     58  NE1 TRP X   6     -20.709  -9.541  41.731  1.00 30.87 LIG-0.36  N 
ATOM     59  CH2 TRP X   6     -19.810  -6.067  42.588  1.00 32.36 LIG 0.00  A 
ATOM     60  CZ3 TRP X   6     -18.436  -6.301  42.816  1.00 32.37 LIG 0.00  A 
ATOM     61 HE1  TRP X   6     -21.543  -9.640  41.544  1.00 30.87 LIG 0.17  HD
ATOM     62  CD1 TRP X   6     -19.766 -10.533  41.706  1.00 30.01 LIG 0.10  A 
ENDBRANCH 52 53
ENDBRANCH 51 52
BRANCH 51 63
ATOM     63  C   TRP X   6     -15.395 -12.098  40.934  1.00 36.76 LIG 0.20  C 
ATOM     64 O    TRP X   6     -14.990 -13.024  40.209  1.00 37.86 LIG-0.65  OA
ATOM     65 OXT  TRP X   6     -14.622 -11.769  41.842  1.00 39.11 LIG-0.65  OA
ENDBRANCH 51 63
ENDBRANCH 49 51
ENDBRANCH 43 47
ENDBRANCH 1 40
TORSDOF 19
ENDMDL
MODEL 20
USER: ADFR SOLUTION from run 172
USER: SCORE 20.659896 LL:  -6.505 LR: -14.670 RR:   0.000 FEB:  -9.002
USER: RMSD 3.029230
USER: SEED 171
USER: STATUS no improvement in best in 4 clusters for 5 generations
USER: GENES 21
USER: genes 0 Translation |==|  0.56627 0.55430 0.48166
USER: genes 1 Rotation |==|  0.63122 0.45016 0.44231 0.97641
USER: genes 2 Torsion [CB]-CA--N-[C] |==|  0.14708
USER: genes 3 Torsion [N]-C--CA-[N] |==|  0.35735
USER: genes 4 Torsion [C]-CA--N-[C] |==|  0.66847
USER: genes 5 Torsion [N]-C--CA-[N] |==|  0.40499
USER: genes 6 Torsion [C]-CA--CB-[CG] |==|  0.13237
USER: genes 7 Torsion [CA]-CB--CG-[SD] |==|  0.17298
USER: genes 8 Torsion [CB]-CG--SD-[CE] |==|  0.53102
USER: genes 9 Torsion [C]-CA--CB-[CG] |==|  0.17312
USER: genes 10 Torsion [CA]-CB--CG-[CD2] |==|  0.65457
USER: genes 11 Torsion [N]-CA--CB-[CG] |==|  0.65072
USER: genes 12 Torsion [CA]-CB--CG-[CD] |==|  0.60220
USER: genes 13 Torsion [CB]-CG--CD-[NE] |==|  0.60582
USER: genes 14 Torsion [CG]-CD--NE-[CZ] |==|  0.41827
USER: genes 15 Torsion [N]-CA--C-[N] |==|  0.17127
USER: genes 16 Torsion [N]-CA--C-[O] |==|  0.55503
USER: genes 17 Torsion [C]-N--CA-[CB] |==|  0.41705
USER: genes 18 Torsion [N]-CA--CB-[CG] |==|  0.97711
USER: genes 19 Torsion [CA]-CB--CG-[CD2] |==|  0.80805
USER: genes 20 Torsion [N]-CA--C-[O] |==|  0.13463
ROOT
ATOM      1  CA  ARG X   4     -19.973 -11.417  38.350  1.00 29.51 LIG 0.18  C 
ENDROOT
BRANCH 1 2
ATOM      2  N   ARG X   4     -19.823 -10.705  37.084  1.00 29.26 LIG-0.35  N 
ATOM      3  C   TRP X   3     -20.863 -10.180  36.410  1.00 30.37 LIG 0.24  C 
ATOM      4 O    TRP X   3     -22.043 -10.222  36.819  1.00 30.38 LIG-0.27  OA
ATOM      5 H    ARG X   4     -19.009 -10.653  36.810  1.00 29.26 LIG 0.16  HD
BRANCH 3 6
ATOM      6  CA  TRP X   3     -20.529  -9.482  35.075  1.00 30.62 LIG 0.18  C 
BRANCH 6 7
ATOM      7  N   TRP X   3     -21.361  -9.967  33.962  1.00 31.45 LIG-0.34  N 
ATOM      8 H    TRP X   3     -22.208  -9.851  34.051  1.00 31.45 LIG 0.16  HD
ATOM      9  C   MET X   2     -20.768 -10.540  32.916  1.00 32.92 LIG 0.26  C 
ATOM     10 O    MET X   2     -19.558 -10.602  32.807  1.00 32.35 LIG-0.27  OA
BRANCH 9 11
ATOM     11  CA  MET X   2     -21.630 -11.090  31.814  1.00 34.28 LIG 0.40  C 
ATOM     12  N   MET X   2     -20.972 -10.933  30.458  1.00 35.36 LIG 0.61  N 
BRANCH 11 13
ATOM     13  CB  MET X   2     -21.903 -12.559  32.096  1.00 35.71 LIG 0.06  C 
BRANCH 13 14
ATOM     14  CG  MET X   2     -22.342 -12.856  33.505  1.00 37.62 LIG 0.08  C 
BRANCH 14 15
ATOM     15 SD   MET X   2     -23.897 -12.117  34.074  1.00 39.06 LIG-0.17  SA
ATOM     16  CE  MET X   2     -23.816 -12.461  35.860  1.00 45.88 LIG 0.09  C 
ENDBRANCH 14 15
ENDBRANCH 13 14
ENDBRANCH 11 13
ENDBRANCH 9 11
ENDBRANCH 6 7
BRANCH 6 17
ATOM     17  CB  TRP X   3     -20.583  -7.960  35.222  1.00 29.85 LIG 0.07  C 
BRANCH 17 18
ATOM     18  CG  TRP X   3     -19.568  -7.441  36.205  1.00 29.58 LIG-0.03  A 
ATOM     19  CD1 TRP X   3     -18.217  -7.655  36.169  1.00 26.84 LIG 0.10  A 
ATOM     20  NE1 TRP X   3     -17.622  -7.033  37.235  1.00 29.47 LIG-0.36  N 
ATOM     21 HE1  TRP X   3     -16.780  -7.044  37.408  1.00 29.47 LIG 0.17  HD
ATOM     22  CE2 TRP X   3     -18.578  -6.388  37.986  1.00 27.62 LIG 0.04  A 
ATOM     23  CZ2 TRP X   3     -18.453  -5.614  39.179  1.00 28.85 LIG 0.03  A 
ATOM     24  CD2 TRP X   3     -19.824  -6.625  37.367  1.00 25.33 LIG-0.00  A 
ATOM     25  CH2 TRP X   3     -19.623  -5.075  39.730  1.00 28.18 LIG 0.00  A 
ATOM     26  CZ3 TRP X   3     -20.874  -5.313  39.132  1.00 26.79 LIG 0.00  A 
ATOM     27  CE3 TRP X   3     -20.986  -6.101  37.957  1.00 25.86 LIG 0.01  A 
ENDBRANCH 17 18
ENDBRANCH 6 17
ENDBRANCH 3 6
ENDBRANCH 1 2
BRANCH 1 28
ATOM     28  CB  ARG X   4     -21.015 -12.551  38.245  1.00 29.55 LIG 0.04  C 
BRANCH 28 29
ATOM     29  CG  ARG X   4     -22.127 -12.486  39.288  1.00 28.17 LIG 0.02  C 
BRANCH 29 30
ATOM     30  CD  ARG X   4     -22.515 -13.901  39.742  1.00 27.09 LIG 0.14  C 
BRANCH 30 31
ATOM     31  NE  ARG X   4     -23.960 -13.976  39.941  1.00 25.46 LIG-0.23  N 
ATOM     32 HE   ARG X   4     -24.377 -13.262  40.177  1.00 25.46 LIG 0.18  HD
ATOM     33  CZ  ARG X   4     -24.666 -15.096  39.776  1.00 27.27 LIG 0.67  C 
ATOM     34  NH2 ARG X   4     -25.983 -15.102  39.963  1.00 24.12 LIG-0.23  N 
ATOM     35  NH1 ARG X   4     -24.038 -16.219  39.436  1.00 21.32 LIG-0.23  N 
ATOM     36 1HH2 ARG X   4     -26.388 -14.379  40.193  1.00 24.12 LIG 0.17  HD
ATOM     37 2HH2 ARG X   4     -26.430 -15.828  39.854  1.00 24.12 LIG 0.17  HD
ATOM     38 2HH1 ARG X   4     -24.485 -16.945  39.328  1.00 21.32 LIG 0.17  HD
ATOM     39 1HH1 ARG X   4     -23.186 -16.218  39.324  1.00 21.32 LIG 0.17  HD
ENDBRANCH 30 31
ENDBRANCH 29 30
ENDBRANCH 28 29
ENDBRANCH 1 28
BRANCH 1 40
ATOM     40  C   ARG X   4     -18.635 -12.014  38.702  1.00 30.38 LIG 0.24  C 
ATOM     41 O    ARG X   4     -18.537 -13.225  38.814  1.00 31.87 LIG-0.27  OA
ATOM     42  N   PRO X   5     -17.605 -11.175  38.898  1.00 30.60 LIG-0.34  N 
ATOM     43  CA  PRO X   5     -16.227 -11.691  39.056  1.00 31.31 LIG 0.18  C 
ATOM     44  CD  PRO X   5     -17.673  -9.688  38.914  1.00 29.99 LIG 0.13  C 
ATOM     45  CB  PRO X   5     -15.366 -10.441  38.847  1.00 30.70 LIG 0.04  C 
ATOM     46  CG  PRO X   5     -16.275  -9.248  39.267  1.00 29.42 LIG 0.02  C 
BRANCH 43 47
ATOM     47  C   PRO X   5     -15.843 -12.362  40.404  1.00 32.23 LIG 0.24  C 
ATOM     48 O    PRO X   5     -14.624 -12.476  40.735  1.00 32.23 LIG-0.27  OA
ATOM     49  N   TRP X   6     -16.842 -12.776  41.177  1.00 33.50 LIG-0.34  N 
ATOM     50 H    TRP X   6     -17.669 -12.782  40.939  1.00 33.50 LIG 0.16  HD
BRANCH 49 51
ATOM     51  CA  TRP X   6     -16.592 -13.270  42.538  1.00 34.66 LIG 0.19  C 
BRANCH 51 52
ATOM     52  CB  TRP X   6     -17.815 -12.979  43.433  1.00 34.41 LIG 0.08  C 
BRANCH 52 53
ATOM     53  CG  TRP X   6     -18.871 -12.103  42.784  1.00 32.39 LIG-0.03  A 
ATOM     54  CD2 TRP X   6     -18.763 -10.701  42.453  1.00 31.68 LIG-0.00  A 
ATOM     55  CE2 TRP X   6     -19.995 -10.316  41.887  1.00 33.29 LIG 0.04  A 
ATOM     56  CE3 TRP X   6     -17.745  -9.746  42.571  1.00 33.66 LIG 0.01  A 
ATOM     57  CZ2 TRP X   6     -20.229  -9.017  41.413  1.00 33.18 LIG 0.03  A 
ATOM     58  NE1 TRP X   6     -20.802 -11.427  41.864  1.00 30.87 LIG-0.36  N 
ATOM     59  CH2 TRP X   6     -19.227  -8.108  41.535  1.00 32.36 LIG 0.00  A 
ATOM     60  CZ3 TRP X   6     -17.990  -8.450  42.124  1.00 32.37 LIG 0.00  A 
ATOM     61 HE1  TRP X   6     -21.604 -11.456  41.554  1.00 30.87 LIG 0.17  HD
ATOM     62  CD1 TRP X   6     -20.125 -12.483  42.415  1.00 30.01 LIG 0.10  A 
ENDBRANCH 52 53
ENDBRANCH 51 52
BRANCH 51 63
ATOM     63  C   TRP X   6     -16.221 -14.766  42.579  1.00 36.76 LIG 0.20  C 
ATOM     64 O    TRP X   6     -15.365 -15.300  41.851  1.00 37.86 LIG-0.65  OA
ATOM     65 OXT  TRP X   6     -16.797 -15.534  43.358  1.00 39.11 LIG-0.65  OA
ENDBRANCH 51 63
ENDBRANCH 49 51
ENDBRANCH 43 47
ENDBRANCH 1 40
TORSDOF 19
ENDMDL
MODEL 21
USER: ADFR SOLUTION from run 197
USER: SCORE 20.166013 LL:  -6.227 LR: -14.651 RR:   0.000 FEB:  -8.983
USER: RMSD 8.613964
USER: SEED 196
USER: STATUS 1 or 2 clusters left
USER: GENES 21
USER: genes 0 Translation |==|  0.56236 0.79425 0.62273
USER: genes 1 Rotation |==|  0.25322 0.75127 0.78602 0.71014
USER: genes 2 Torsion [CB]-CA--N-[C] |==|  0.19508
USER: genes 3 Torsion [N]-C--CA-[N] |==|  0.89087
USER: genes 4 Torsion [C]-CA--N-[C] |==|  0.79444
USER: genes 5 Torsion [N]-C--CA-[N] |==|  0.08089
USER: genes 6 Torsion [C]-CA--CB-[CG] |==|  0.80485
USER: genes 7 Torsion [CA]-CB--CG-[SD] |==|  0.24963
USER: genes 8 Torsion [CB]-CG--SD-[CE] |==|  0.67688
USER: genes 9 Torsion [C]-CA--CB-[CG] |==|  0.60381
USER: genes 10 Torsion [CA]-CB--CG-[CD2] |==|  0.32786
USER: genes 11 Torsion [N]-CA--CB-[CG] |==|  0.46602
USER: genes 12 Torsion [CA]-CB--CG-[CD] |==|  0.32382
USER: genes 13 Torsion [CB]-CG--CD-[NE] |==|  0.76561
USER: genes 14 Torsion [CG]-CD--NE-[CZ] |==|  0.28071
USER: genes 15 Torsion [N]-CA--C-[N] |==|  0.83955
USER: genes 16 Torsion [N]-CA--C-[O] |==|  0.43478
USER: genes 17 Torsion [C]-N--CA-[CB] |==|  0.21791
USER: genes 18 Torsion [N]-CA--CB-[CG] |==|  0.12214
USER: genes 19 Torsion [CA]-CB--CG-[CD2] |==|  0.55427
USER: genes 20 Torsion [N]-CA--C-[O] |==|  0.40893
ROOT
ATOM      1  CA  ARG X   4     -20.055  -6.738  40.995  1.00 29.51 LIG 0.18  C 
ENDROOT
BRANCH 1 2
ATOM      2  N   ARG X   4     -19.775  -8.158  41.189  1.00 29.26 LIG-0.35  N 
ATOM      3  C   TRP X   3     -19.747  -8.741  42.401  1.00 30.37 LIG 0.24  C 
ATOM      4 O    TRP X   3     -19.991  -8.134  43.466  1.00 30.38 LIG-0.27  OA
ATOM      5 H    ARG X   4     -19.630  -8.586  40.457  1.00 29.26 LIG 0.16  HD
BRANCH 3 6
ATOM      6  CA  TRP X   3     -19.409 -10.247  42.427  1.00 30.62 LIG 0.18  C 
BRANCH 6 7
ATOM      7  N   TRP X   3     -20.034 -10.984  41.315  1.00 31.45 LIG-0.34  N 
ATOM      8 H    TRP X   3     -19.503 -11.224  40.683  1.00 31.45 LIG 0.16  HD
ATOM      9  C   MET X   2     -21.343 -11.226  41.357  1.00 32.92 LIG 0.26  C 
ATOM     10 O    MET X   2     -22.028 -10.934  42.319  1.00 32.35 LIG-0.27  OA
BRANCH 9 11
ATOM     11  CA  MET X   2     -21.982 -11.921  40.188  1.00 34.28 LIG 0.40  C 
ATOM     12  N   MET X   2     -21.006 -12.843  39.484  1.00 35.36 LIG 0.61  N 
BRANCH 11 13
ATOM     13  CB  MET X   2     -23.181 -12.712  40.687  1.00 35.71 LIG 0.06  C 
BRANCH 13 14
ATOM     14  CG  MET X   2     -22.835 -13.917  41.520  1.00 37.62 LIG 0.08  C 
BRANCH 14 15
ATOM     15 SD   MET X   2     -22.682 -13.684  43.312  1.00 39.06 LIG-0.17  SA
ATOM     16  CE  MET X   2     -20.925 -14.082  43.569  1.00 45.88 LIG 0.09  C 
ENDBRANCH 14 15
ENDBRANCH 13 14
ENDBRANCH 11 13
ENDBRANCH 9 11
ENDBRANCH 6 7
BRANCH 6 17
ATOM     17  CB  TRP X   3     -17.897 -10.470  42.497  1.00 29.85 LIG 0.07  C 
BRANCH 17 18
ATOM     18  CG  TRP X   3     -17.454 -11.654  41.680  1.00 29.58 LIG-0.03  A 
ATOM     19  CD1 TRP X   3     -17.825 -12.957  41.868  1.00 26.84 LIG 0.10  A 
ATOM     20  NE1 TRP X   3     -17.212 -13.752  40.935  1.00 29.47 LIG-0.36  N 
ATOM     21 HE1  TRP X   3     -17.301 -14.605  40.875  1.00 29.47 LIG 0.17  HD
ATOM     22  CE2 TRP X   3     -16.433 -12.976  40.107  1.00 27.62 LIG 0.04  A 
ATOM     23  CZ2 TRP X   3     -15.610 -13.340  38.999  1.00 28.85 LIG 0.03  A 
ATOM     24  CD2 TRP X   3     -16.558 -11.641  40.548  1.00 25.33 LIG-0.00  A 
ATOM     25  CH2 TRP X   3     -14.920 -12.316  38.338  1.00 28.18 LIG 0.00  A 
ATOM     26  CZ3 TRP X   3     -15.023 -10.982  38.773  1.00 26.79 LIG 0.00  A 
ATOM     27  CE3 TRP X   3     -15.830 -10.638  39.889  1.00 25.86 LIG 0.01  A 
ENDBRANCH 17 18
ENDBRANCH 6 17
ENDBRANCH 3 6
ENDBRANCH 1 2
BRANCH 1 28
ATOM     28  CB  ARG X   4     -18.896  -5.855  41.501  1.00 29.55 LIG 0.04  C 
BRANCH 28 29
ATOM     29  CG  ARG X   4     -18.981  -4.393  41.072  1.00 28.17 LIG 0.02  C 
BRANCH 29 30
ATOM     30  CD  ARG X   4     -19.135  -3.485  42.301  1.00 27.09 LIG 0.14  C 
BRANCH 30 31
ATOM     31  NE  ARG X   4     -20.542  -3.408  42.685  1.00 25.46 LIG-0.23  N 
ATOM     32 HE   ARG X   4     -21.059  -2.887  42.237  1.00 25.46 LIG 0.18  HD
ATOM     33  CZ  ARG X   4     -21.067  -4.105  43.695  1.00 27.27 LIG 0.67  C 
ATOM     34  NH2 ARG X   4     -22.359  -4.000  43.992  1.00 24.12 LIG-0.23  N 
ATOM     35  NH1 ARG X   4     -20.280  -4.898  44.418  1.00 21.32 LIG-0.23  N 
ATOM     36 1HH2 ARG X   4     -22.865  -3.480  43.532  1.00 24.12 LIG 0.17  HD
ATOM     37 2HH2 ARG X   4     -22.688  -4.454  44.645  1.00 24.12 LIG 0.17  HD
ATOM     38 2HH1 ARG X   4     -20.609  -5.350  45.071  1.00 21.32 LIG 0.17  HD
ATOM     39 1HH1 ARG X   4     -19.443  -4.958  44.232  1.00 21.32 LIG 0.17  HD
ENDBRANCH 30 31
ENDBRANCH 29 30
ENDBRANCH 28 29
ENDBRANCH 1 28
BRANCH 1 40
ATOM     40  C   ARG X   4     -20.239  -6.504  39.518  1.00 30.38 LIG 0.24  C 
ATOM     41 O    ARG X   4     -21.294  -6.040  39.118  1.00 31.87 LIG-0.27  OA
ATOM     42  N   PRO X   5     -19.231  -6.840  38.698  1.00 30.60 LIG-0.34  N 
ATOM     43  CA  PRO X   5     -19.260  -6.466  37.266  1.00 31.31 LIG 0.18  C 
ATOM     44  CD  PRO X   5     -17.973  -7.534  39.090  1.00 29.99 LIG 0.13  C 
ATOM     45  CB  PRO X   5     -17.806  -6.668  36.828  1.00 30.70 LIG 0.04  C 
ATOM     46  CG  PRO X   5     -17.240  -7.753  37.791  1.00 29.42 LIG 0.02  C 
BRANCH 43 47
ATOM     47  C   PRO X   5     -20.200  -7.260  36.318  1.00 32.23 LIG 0.24  C 
ATOM     48 O    PRO X   5     -20.603  -6.738  35.235  1.00 32.23 LIG-0.27  OA
ATOM     49  N   TRP X   6     -20.527  -8.495  36.689  1.00 33.50 LIG-0.34  N 
ATOM     50 H    TRP X   6     -20.331  -8.839  37.453  1.00 33.50 LIG 0.16  HD
BRANCH 49 51
ATOM     51  CA  TRP X   6     -21.271  -9.385  35.787  1.00 34.66 LIG 0.19  C 
BRANCH 51 52
ATOM     52  CB  TRP X   6     -20.316  -9.978  34.732  1.00 34.41 LIG 0.08  C 
BRANCH 52 53
ATOM     53  CG  TRP X   6     -18.988 -10.457  35.289  1.00 32.39 LIG-0.03  A 
ATOM     54  CD2 TRP X   6     -17.763 -10.688  34.558  1.00 31.68 LIG-0.00  A 
ATOM     55  CE2 TRP X   6     -16.808 -11.143  35.488  1.00 33.29 LIG 0.04  A 
ATOM     56  CE3 TRP X   6     -17.385 -10.541  33.217  1.00 33.66 LIG 0.01  A 
ATOM     57  CZ2 TRP X   6     -15.484 -11.430  35.124  1.00 33.18 LIG 0.03  A 
ATOM     58  NE1 TRP X   6     -17.416 -11.176  36.719  1.00 30.87 LIG-0.36  N 
ATOM     59  CH2 TRP X   6     -15.139 -11.280  33.819  1.00 32.36 LIG 0.00  A 
ATOM     60  CZ3 TRP X   6     -16.077 -10.853  32.854  1.00 32.37 LIG 0.00  A 
ATOM     61 HE1  TRP X   6     -17.039 -11.408  37.457  1.00 30.87 LIG 0.17  HD
ATOM     62  CD1 TRP X   6     -18.720 -10.779  36.585  1.00 30.01 LIG 0.10  A 
ENDBRANCH 52 53
ENDBRANCH 51 52
BRANCH 51 63
ATOM     63  C   TRP X   6     -22.033 -10.499  36.532  1.00 36.76 LIG 0.20  C 
ATOM     64 O    TRP X   6     -23.119 -10.980  36.162  1.00 37.86 LIG-0.65  OA
ATOM     65 OXT  TRP X   6     -21.587 -10.968  37.586  1.00 39.11 LIG-0.65  OA
ENDBRANCH 51 63
ENDBRANCH 49 51
ENDBRANCH 43 47
ENDBRANCH 1 40
TORSDOF 19
ENDMDL
MODEL 22
USER: ADFR SOLUTION from run 112
USER: SCORE 17.750409 LL:  -5.105 LR: -14.595 RR:   0.000 FEB:  -8.928
USER: RMSD 6.690374
USER: SEED 111
USER: STATUS no improvement in best in 11 clusters for 5 generations
USER: GENES 21
USER: genes 0 Translation |==|  0.53542 0.62102 0.65478
USER: genes 1 Rotation |==|  0.18346 0.55787 0.50847 0.88260
USER: genes 2 Torsion [CB]-CA--N-[C] |==|  0.16395
USER: genes 3 Torsion [N]-C--CA-[N] |==|  0.61511
USER: genes 4 Torsion [C]-CA--N-[C] |==|  0.53049
USER: genes 5 Torsion [N]-C--CA-[N] |==|  0.16102
USER: genes 6 Torsion [C]-CA--CB-[CG] |==|  0.27508
USER: genes 7 Torsion [CA]-CB--CG-[SD] |==|  0.61920
USER: genes 8 Torsion [CB]-CG--SD-[CE] |==|  0.65324
USER: genes 9 Torsion [C]-CA--CB-[CG] |==|  0.74928
USER: genes 10 Torsion [CA]-CB--CG-[CD2] |==|  0.20267
USER: genes 11 Torsion [N]-CA--CB-[CG] |==|  0.45726
USER: genes 12 Torsion [CA]-CB--CG-[CD] |==|  0.26643
USER: genes 13 Torsion [CB]-CG--CD-[NE] |==|  0.74116
USER: genes 14 Torsion [CG]-CD--NE-[CZ] |==|  0.46740
USER: genes 15 Torsion [N]-CA--C-[N] |==|  0.86664
USER: genes 16 Torsion [N]-CA--C-[O] |==|  0.51988
USER: genes 17 Torsion [C]-N--CA-[CB] |==|  0.76386
USER: genes 18 Torsion [N]-CA--CB-[CG] |==|  0.82014
USER: genes 19 Torsion [CA]-CB--CG-[CD2] |==|  0.25924
USER: genes 20 Torsion [N]-CA--C-[O] |==|  0.68307
ROOT
ATOM      1  CA  ARG X   4     -20.621 -10.116  41.596  1.00 29.51 LIG 0.18  C 
ENDROOT
BRANCH 1 2
ATOM      2  N   ARG X   4     -21.047 -11.503  41.431  1.00 29.26 LIG-0.35  N 
ATOM      3  C   TRP X   3     -22.329 -11.895  41.547  1.00 30.37 LIG 0.24  C 
ATOM      4 O    TRP X   3     -23.274 -11.109  41.771  1.00 30.38 LIG-0.27  OA
ATOM      5 H    ARG X   4     -20.403 -12.045  41.253  1.00 29.26 LIG 0.16  HD
BRANCH 3 6
ATOM      6  CA  TRP X   3     -22.601 -13.404  41.368  1.00 30.62 LIG 0.18  C 
BRANCH 6 7
ATOM      7  N   TRP X   3     -23.814 -13.668  40.575  1.00 31.45 LIG-0.34  N 
ATOM      8 H    TRP X   3     -24.155 -12.986  40.177  1.00 31.45 LIG 0.16  HD
ATOM      9  C   MET X   2     -24.294 -14.909  40.526  1.00 32.92 LIG 0.26  C 
ATOM     10 O    MET X   2     -23.720 -15.850  41.042  1.00 32.35 LIG-0.27  OA
BRANCH 9 11
ATOM     11  CA  MET X   2     -25.568 -15.156  39.767  1.00 34.28 LIG 0.40  C 
ATOM     12  N   MET X   2     -25.449 -14.726  38.319  1.00 35.36 LIG 0.61  N 
BRANCH 11 13
ATOM     13  CB  MET X   2     -25.903 -16.637  39.848  1.00 35.71 LIG 0.06  C 
BRANCH 13 14
ATOM     14  CG  MET X   2     -26.931 -16.992  40.888  1.00 37.62 LIG 0.08  C 
BRANCH 14 15
ATOM     15 SD   MET X   2     -26.625 -18.464  41.902  1.00 39.06 LIG-0.17  SA
ATOM     16  CE  MET X   2     -28.152 -19.412  41.613  1.00 45.88 LIG 0.09  C 
ENDBRANCH 14 15
ENDBRANCH 13 14
ENDBRANCH 11 13
ENDBRANCH 9 11
ENDBRANCH 6 7
BRANCH 6 17
ATOM     17  CB  TRP X   3     -21.372 -14.121  40.807  1.00 29.85 LIG 0.07  C 
BRANCH 17 18
ATOM     18  CG  TRP X   3     -21.367 -14.160  39.302  1.00 29.58 LIG-0.03  A 
ATOM     19  CD1 TRP X   3     -21.608 -15.254  38.516  1.00 26.84 LIG 0.10  A 
ATOM     20  NE1 TRP X   3     -21.508 -14.905  37.195  1.00 29.47 LIG-0.36  N 
ATOM     21 HE1  TRP X   3     -21.616 -15.440  36.531  1.00 29.47 LIG 0.17  HD
ATOM     22  CE2 TRP X   3     -21.210 -13.565  37.092  1.00 27.62 LIG 0.04  A 
ATOM     23  CZ2 TRP X   3     -21.006 -12.745  35.941  1.00 28.85 LIG 0.03  A 
ATOM     24  CD2 TRP X   3     -21.111 -13.059  38.405  1.00 25.33 LIG-0.00  A 
ATOM     25  CH2 TRP X   3     -20.707 -11.393  36.150  1.00 28.18 LIG 0.00  A 
ATOM     26  CZ3 TRP X   3     -20.592 -10.876  37.453  1.00 26.79 LIG 0.00  A 
ATOM     27  CE3 TRP X   3     -20.777 -11.707  38.589  1.00 25.86 LIG 0.01  A 
ENDBRANCH 17 18
ENDBRANCH 6 17
ENDBRANCH 3 6
ENDBRANCH 1 2
BRANCH 1 28
ATOM     28  CB  ARG X   4     -20.986  -9.571  42.993  1.00 29.55 LIG 0.04  C 
BRANCH 28 29
ATOM     29  CG  ARG X   4     -20.264  -8.282  43.376  1.00 28.17 LIG 0.02  C 
BRANCH 29 30
ATOM     30  CD  ARG X   4     -21.147  -7.064  43.063  1.00 27.09 LIG 0.14  C 
BRANCH 30 31
ATOM     31  NE  ARG X   4     -20.833  -6.557  41.731  1.00 25.46 LIG-0.23  N 
ATOM     32 HE   ARG X   4     -20.129  -6.854  41.337  1.00 25.46 LIG 0.18  HD
ATOM     33  CZ  ARG X   4     -21.582  -5.656  41.093  1.00 27.27 LIG 0.67  C 
ATOM     34  NH2 ARG X   4     -21.250  -5.237  39.875  1.00 24.12 LIG-0.23  N 
ATOM     35  NH1 ARG X   4     -22.663  -5.163  41.694  1.00 21.32 LIG-0.23  N 
ATOM     36 1HH2 ARG X   4     -20.546  -5.546  39.491  1.00 24.12 LIG 0.17  HD
ATOM     37 2HH2 ARG X   4     -21.740  -4.655  39.471  1.00 24.12 LIG 0.17  HD
ATOM     38 2HH1 ARG X   4     -23.151  -4.582  41.290  1.00 21.32 LIG 0.17  HD
ATOM     39 1HH1 ARG X   4     -22.872  -5.426  42.485  1.00 21.32 LIG 0.17  HD
ENDBRANCH 30 31
ENDBRANCH 29 30
ENDBRANCH 28 29
ENDBRANCH 1 28
BRANCH 1 40
ATOM     40  C   ARG X   4     -19.124 -10.074  41.430  1.00 30.38 LIG 0.24  C 
ATOM     41 O    ARG X   4     -18.634  -9.243  40.682  1.00 31.87 LIG-0.27  OA
ATOM     42  N   PRO X   5     -18.391 -10.973  42.105  1.00 30.60 LIG-0.34  N 
ATOM     43  CA  PRO X   5     -16.915 -10.873  42.145  1.00 31.31 LIG 0.18  C 
ATOM     44  CD  PRO X   5     -18.918 -12.098  42.926  1.00 29.99 LIG 0.13  C 
ATOM     45  CB  PRO X   5     -16.538 -11.801  43.303  1.00 30.70 LIG 0.04  C 
ATOM     46  CG  PRO X   5     -17.690 -12.848  43.375  1.00 29.42 LIG 0.02  C 
BRANCH 43 47
ATOM     47  C   PRO X   5     -16.116 -11.282  40.876  1.00 32.23 LIG 0.24  C 
ATOM     48 O    PRO X   5     -14.850 -11.341  40.911  1.00 32.23 LIG-0.27  OA
ATOM     49  N   TRP X   6     -16.823 -11.579  39.789  1.00 33.50 LIG-0.34  N 
ATOM     50 H    TRP X   6     -17.673 -11.469  39.719  1.00 33.50 LIG 0.16  HD
BRANCH 49 51
ATOM     51  CA  TRP X   6     -16.174 -12.135  38.593  1.00 34.66 LIG 0.19  C 
BRANCH 51 52
ATOM     52  CB  TRP X   6     -15.617 -10.991  37.721  1.00 34.41 LIG 0.08  C 
BRANCH 52 53
ATOM     53  CG  TRP X   6     -16.678 -10.073  37.141  1.00 32.39 LIG-0.03  A 
ATOM     54  CD2 TRP X   6     -17.169  -8.837  37.704  1.00 31.68 LIG-0.00  A 
ATOM     55  CE2 TRP X   6     -18.158  -8.348  36.826  1.00 33.29 LIG 0.04  A 
ATOM     56  CE3 TRP X   6     -16.859  -8.096  38.852  1.00 33.66 LIG 0.01  A 
ATOM     57  CZ2 TRP X   6     -18.824  -7.135  37.047  1.00 33.18 LIG 0.03  A 
ATOM     58  NE1 TRP X   6     -18.253  -9.235  35.780  1.00 30.87 LIG-0.36  N 
ATOM     59  CH2 TRP X   6     -18.507  -6.432  38.165  1.00 32.36 LIG 0.00  A 
ATOM     60  CZ3 TRP X   6     -17.542  -6.905  39.082  1.00 32.37 LIG 0.00  A 
ATOM     61 HE1  TRP X   6     -18.778  -9.155  35.104  1.00 30.87 LIG 0.17  HD
ATOM     62  CD1 TRP X   6     -17.376 -10.266  35.987  1.00 30.01 LIG 0.10  A 
ENDBRANCH 52 53
ENDBRANCH 51 52
BRANCH 51 63
ATOM     63  C   TRP X   6     -15.074 -13.163  38.925  1.00 36.76 LIG 0.20  C 
ATOM     64 O    TRP X   6     -13.863 -12.999  38.694  1.00 37.86 LIG-0.65  OA
ATOM     65 OXT  TRP X   6     -15.366 -14.248  39.441  1.00 39.11 LIG-0.65  OA
ENDBRANCH 51 63
ENDBRANCH 49 51
ENDBRANCH 43 47
ENDBRANCH 1 40
TORSDOF 19
ENDMDL
MODEL 23
USER: ADFR SOLUTION from run 173
USER: SCORE 18.823441 LL:  -5.503 LR: -14.582 RR:   0.000 FEB:  -8.914
USER: RMSD 3.578804
USER: SEED 172
USER: STATUS no improvement in best in 7 clusters for 5 generations
USER: GENES 21
USER: genes 0 Translation |==|  0.48179 0.50839 0.47229
USER: genes 1 Rotation |==|  0.64645 0.44999 0.44908 0.97271
USER: genes 2 Torsion [CB]-CA--N-[C] |==|  0.50017
USER: genes 3 Torsion [N]-C--CA-[N] |==|  0.00444
USER: genes 4 Torsion [C]-CA--N-[C] |==|  0.74447
USER: genes 5 Torsion [N]-C--CA-[N] |==|  0.40491
USER: genes 6 Torsion [C]-CA--CB-[CG] |==|  0.17674
USER: genes 7 Torsion [CA]-CB--CG-[SD] |==|  0.21004
USER: genes 8 Torsion [CB]-CG--SD-[CE] |==|  0.57266
USER: genes 9 Torsion [C]-CA--CB-[CG] |==|  0.19030
USER: genes 10 Torsion [CA]-CB--CG-[CD2] |==|  0.62071
USER: genes 11 Torsion [N]-CA--CB-[CG] |==|  0.56059
USER: genes 12 Torsion [CA]-CB--CG-[CD] |==|  0.51674
USER: genes 13 Torsion [CB]-CG--CD-[NE] |==|  0.64394
USER: genes 14 Torsion [CG]-CD--NE-[CZ] |==|  0.55147
USER: genes 15 Torsion [N]-CA--C-[N] |==|  0.83283
USER: genes 16 Torsion [N]-CA--C-[O] |==|  0.65111
USER: genes 17 Torsion [C]-N--CA-[CB] |==|  0.44595
USER: genes 18 Torsion [N]-CA--CB-[CG] |==|  0.11754
USER: genes 19 Torsion [CA]-CB--CG-[CD2] |==|  0.59812
USER: genes 20 Torsion [N]-CA--C-[O] |==|  0.41035
ROOT
ATOM      1  CA  ARG X   4     -21.747 -12.312  38.174  1.00 29.51 LIG 0.18  C 
ENDROOT
BRANCH 1 2
ATOM      2  N   ARG X   4     -21.599 -11.522  36.955  1.00 29.26 LIG-0.35  N 
ATOM      3  C   TRP X   3     -20.779 -10.459  36.866  1.00 30.37 LIG 0.24  C 
ATOM      4 O    TRP X   3     -20.046 -10.072  37.801  1.00 30.38 LIG-0.27  OA
ATOM      5 H    ARG X   4     -22.084 -11.799  36.301  1.00 29.26 LIG 0.16  HD
BRANCH 3 6
ATOM      6  CA  TRP X   3     -20.762  -9.721  35.511  1.00 30.62 LIG 0.18  C 
BRANCH 6 7
ATOM      7  N   TRP X   3     -21.701 -10.306  34.539  1.00 31.45 LIG-0.34  N 
ATOM      8 H    TRP X   3     -22.503  -9.998  34.563  1.00 31.45 LIG 0.16  HD
ATOM      9  C   MET X   2     -21.263 -11.250  33.707  1.00 32.92 LIG 0.26  C 
ATOM     10 O    MET X   2     -20.095 -11.588  33.663  1.00 32.35 LIG-0.27  OA
BRANCH 9 11
ATOM     11  CA  MET X   2     -22.245 -11.887  32.763  1.00 34.28 LIG 0.40  C 
ATOM     12  N   MET X   2     -21.597 -12.241  31.439  1.00 35.36 LIG 0.61  N 
BRANCH 11 13
ATOM     13  CB  MET X   2     -22.811 -13.136  33.419  1.00 35.71 LIG 0.06  C 
BRANCH 13 14
ATOM     14  CG  MET X   2     -23.607 -12.881  34.671  1.00 37.62 LIG 0.08  C 
BRANCH 14 15
ATOM     15 SD   MET X   2     -25.279 -12.207  34.481  1.00 39.06 LIG-0.17  SA
ATOM     16  CE  MET X   2     -25.496 -11.351  36.073  1.00 45.88 LIG 0.09  C 
ENDBRANCH 14 15
ENDBRANCH 13 14
ENDBRANCH 11 13
ENDBRANCH 9 11
ENDBRANCH 6 7
BRANCH 6 17
ATOM     17  CB  TRP X   3     -20.981  -8.219  35.700  1.00 29.85 LIG 0.07  C 
BRANCH 17 18
ATOM     18  CG  TRP X   3     -19.819  -7.551  36.384  1.00 29.58 LIG-0.03  A 
ATOM     19  CD1 TRP X   3     -18.492  -7.761  36.125  1.00 26.84 LIG 0.10  A 
ATOM     20  NE1 TRP X   3     -17.730  -6.980  36.953  1.00 29.47 LIG-0.36  N 
ATOM     21 HE1  TRP X   3     -16.870  -6.960  36.963  1.00 29.47 LIG 0.17  HD
ATOM     22  CE2 TRP X   3     -18.550  -6.233  37.768  1.00 27.62 LIG 0.04  A 
ATOM     23  CZ2 TRP X   3     -18.231  -5.285  38.787  1.00 28.85 LIG 0.03  A 
ATOM     24  CD2 TRP X   3     -19.880  -6.568  37.439  1.00 25.33 LIG-0.00  A 
ATOM     25  CH2 TRP X   3     -19.295  -4.674  39.462  1.00 28.18 LIG 0.00  A 
ATOM     26  CZ3 TRP X   3     -20.627  -5.006  39.155  1.00 26.79 LIG 0.00  A 
ATOM     27  CE3 TRP X   3     -20.929  -5.965  38.154  1.00 25.86 LIG 0.01  A 
ENDBRANCH 17 18
ENDBRANCH 6 17
ENDBRANCH 3 6
ENDBRANCH 1 2
BRANCH 1 28
ATOM     28  CB  ARG X   4     -22.752 -13.468  37.985  1.00 29.55 LIG 0.04  C 
BRANCH 28 29
ATOM     29  CG  ARG X   4     -23.355 -14.000  39.282  1.00 28.17 LIG 0.02  C 
BRANCH 29 30
ATOM     30  CD  ARG X   4     -24.220 -15.238  38.999  1.00 27.09 LIG 0.14  C 
BRANCH 30 31
ATOM     31  NE  ARG X   4     -25.542 -15.062  39.595  1.00 25.46 LIG-0.23  N 
ATOM     32 HE   ARG X   4     -25.793 -14.267  39.804  1.00 25.46 LIG 0.18  HD
ATOM     33  CZ  ARG X   4     -26.379 -16.073  39.833  1.00 27.27 LIG 0.67  C 
ATOM     34  NH2 ARG X   4     -27.575 -15.851  40.371  1.00 24.12 LIG-0.23  N 
ATOM     35  NH1 ARG X   4     -26.002 -17.316  39.542  1.00 21.32 LIG-0.23  N 
ATOM     36 1HH2 ARG X   4     -27.815 -15.050  40.570  1.00 24.12 LIG 0.17  HD
ATOM     37 2HH2 ARG X   4     -28.109 -16.509  40.521  1.00 24.12 LIG 0.17  HD
ATOM     38 2HH1 ARG X   4     -26.535 -17.973  39.692  1.00 21.32 LIG 0.17  HD
ATOM     39 1HH1 ARG X   4     -25.225 -17.461  39.204  1.00 21.32 LIG 0.17  HD
ENDBRANCH 30 31
ENDBRANCH 29 30
ENDBRANCH 28 29
ENDBRANCH 1 28
BRANCH 1 40
ATOM     40  C   ARG X   4     -20.397 -12.889  38.514  1.00 30.38 LIG 0.24  C 
ATOM     41 O    ARG X   4     -19.874 -12.589  39.575  1.00 31.87 LIG-0.27  OA
ATOM     42  N   PRO X   5     -19.816 -13.699  37.615  1.00 30.60 LIG-0.34  N 
ATOM     43  CA  PRO X   5     -18.587 -14.452  37.955  1.00 31.31 LIG 0.18  C 
ATOM     44  CD  PRO X   5     -20.322 -14.004  36.249  1.00 29.99 LIG 0.13  C 
ATOM     45  CB  PRO X   5     -18.514 -15.508  36.848  1.00 30.70 LIG 0.04  C 
ATOM     46  CG  PRO X   5     -19.257 -14.876  35.635  1.00 29.42 LIG 0.02  C 
BRANCH 43 47
ATOM     47  C   PRO X   5     -17.243 -13.675  38.017  1.00 32.23 LIG 0.24  C 
ATOM     48 O    PRO X   5     -16.250 -14.064  37.330  1.00 32.23 LIG-0.27  OA
ATOM     49  N   TRP X   6     -17.205 -12.597  38.794  1.00 33.50 LIG-0.34  N 
ATOM     50 H    TRP X   6     -17.838 -12.361  39.327  1.00 33.50 LIG 0.16  HD
BRANCH 49 51
ATOM     51  CA  TRP X   6     -16.039 -11.703  38.792  1.00 34.66 LIG 0.19  C 
BRANCH 51 52
ATOM     52  CB  TRP X   6     -16.432 -10.329  39.372  1.00 34.41 LIG 0.08  C 
BRANCH 52 53
ATOM     53  CG  TRP X   6     -17.321 -10.399  40.600  1.00 32.39 LIG-0.03  A 
ATOM     54  CD2 TRP X   6     -18.386  -9.492  40.962  1.00 31.68 LIG-0.00  A 
ATOM     55  CE2 TRP X   6     -18.913  -9.946  42.188  1.00 33.29 LIG 0.04  A 
ATOM     56  CE3 TRP X   6     -18.947  -8.357  40.364  1.00 33.66 LIG 0.01  A 
ATOM     57  CZ2 TRP X   6     -19.996  -9.316  42.818  1.00 33.18 LIG 0.03  A 
ATOM     58  NE1 TRP X   6     -18.214 -11.073  42.544  1.00 30.87 LIG-0.36  N 
ATOM     59  CH2 TRP X   6     -20.526  -8.217  42.220  1.00 32.36 LIG 0.00  A 
ATOM     60  CZ3 TRP X   6     -20.005  -7.717  41.006  1.00 32.37 LIG 0.00  A 
ATOM     61 HE1  TRP X   6     -18.353 -11.546  43.249  1.00 30.87 LIG 0.17  HD
ATOM     62  CD1 TRP X   6     -17.258 -11.324  41.596  1.00 30.01 LIG 0.10  A 
ENDBRANCH 52 53
ENDBRANCH 51 52
BRANCH 51 63
ATOM     63  C   TRP X   6     -14.826 -12.292  39.540  1.00 36.76 LIG 0.20  C 
ATOM     64 O    TRP X   6     -13.638 -12.078  39.238  1.00 37.86 LIG-0.65  OA
ATOM     65 OXT  TRP X   6     -14.991 -13.052  40.502  1.00 39.11 LIG-0.65  OA
ENDBRANCH 51 63
ENDBRANCH 49 51
ENDBRANCH 43 47
ENDBRANCH 1 40
TORSDOF 19
ENDMDL
MODEL 24
USER: ADFR SOLUTION from run 130
USER: SCORE 18.937002 LL:  -5.692 LR: -14.562 RR:   0.000 FEB:  -8.894
USER: RMSD 6.766368
USER: SEED 129
USER: STATUS no improvement in best in 6 clusters for 5 generations
USER: GENES 21
USER: genes 0 Translation |==|  0.54397 0.50428 0.65394
USER: genes 1 Rotation |==|  0.41225 0.36500 0.84498 0.82413
USER: genes 2 Torsion [CB]-CA--N-[C] |==|  0.50702
USER: genes 3 Torsion [N]-C--CA-[N] |==|  0.41176
USER: genes 4 Torsion [C]-CA--N-[C] |==|  0.61746
USER: genes 5 Torsion [N]-C--CA-[N] |==|  0.73252
USER: genes 6 Torsion [C]-CA--CB-[CG] |==|  0.23686
USER: genes 7 Torsion [CA]-CB--CG-[SD] |==|  0.86462
USER: genes 8 Torsion [CB]-CG--SD-[CE] |==|  0.39153
USER: genes 9 Torsion [C]-CA--CB-[CG] |==|  0.32710
USER: genes 10 Torsion [CA]-CB--CG-[CD2] |==|  0.27479
USER: genes 11 Torsion [N]-CA--CB-[CG] |==|  0.61267
USER: genes 12 Torsion [CA]-CB--CG-[CD] |==|  0.92373
USER: genes 13 Torsion [CB]-CG--CD-[NE] |==|  0.28140
USER: genes 14 Torsion [CG]-CD--NE-[CZ] |==|  0.64310
USER: genes 15 Torsion [N]-CA--C-[N] |==|  0.85189
USER: genes 16 Torsion [N]-CA--C-[O] |==|  0.01544
USER: genes 17 Torsion [C]-N--CA-[CB] |==|  0.74875
USER: genes 18 Torsion [N]-CA--CB-[CG] |==|  0.10896
USER: genes 19 Torsion [CA]-CB--CG-[CD2] |==|  0.25330
USER: genes 20 Torsion [N]-CA--C-[O] |==|  0.69441
ROOT
ATOM      1  CA  ARG X   4     -20.442 -12.393  41.580  1.00 29.51 LIG 0.18  C 
ENDROOT
BRANCH 1 2
ATOM      2  N   ARG X   4     -19.532 -12.394  40.438  1.00 29.26 LIG-0.35  N 
ATOM      3  C   TRP X   3     -19.794 -11.741  39.291  1.00 30.37 LIG 0.24  C 
ATOM      4 O    TRP X   3     -20.818 -11.049  39.109  1.00 30.38 LIG-0.27  OA
ATOM      5 H    ARG X   4     -18.814 -12.850  40.567  1.00 29.26 LIG 0.16  HD
BRANCH 3 6
ATOM      6  CA  TRP X   3     -18.736 -11.869  38.175  1.00 30.62 LIG 0.18  C 
BRANCH 6 7
ATOM      7  N   TRP X   3     -19.330 -11.822  36.828  1.00 31.45 LIG-0.34  N 
ATOM      8 H    TRP X   3     -19.945 -11.233  36.711  1.00 31.45 LIG 0.16  HD
ATOM      9  C   MET X   2     -18.889 -12.670  35.900  1.00 32.92 LIG 0.26  C 
ATOM     10 O    MET X   2     -17.956 -13.425  36.098  1.00 32.35 LIG-0.27  OA
BRANCH 9 11
ATOM     11  CA  MET X   2     -19.545 -12.658  34.547  1.00 34.28 LIG 0.40  C 
ATOM     12  N   MET X   2     -20.616 -13.725  34.436  1.00 35.36 LIG 0.61  N 
BRANCH 11 13
ATOM     13  CB  MET X   2     -20.149 -11.284  34.311  1.00 35.71 LIG 0.06  C 
BRANCH 13 14
ATOM     14  CG  MET X   2     -19.193 -10.265  33.751  1.00 37.62 LIG 0.08  C 
BRANCH 14 15
ATOM     15 SD   MET X   2     -17.580 -10.095  34.560  1.00 39.06 LIG-0.17  SA
ATOM     16  CE  MET X   2     -16.490  -9.851  33.122  1.00 45.88 LIG 0.09  C 
ENDBRANCH 14 15
ENDBRANCH 13 14
ENDBRANCH 11 13
ENDBRANCH 9 11
ENDBRANCH 6 7
BRANCH 6 17
ATOM     17  CB  TRP X   3     -17.620 -10.839  38.355  1.00 29.85 LIG 0.07  C 
BRANCH 17 18
ATOM     18  CG  TRP X   3     -16.277 -11.481  38.580  1.00 29.58 LIG-0.03  A 
ATOM     19  CD1 TRP X   3     -15.801 -11.978  39.763  1.00 26.84 LIG 0.10  A 
ATOM     20  NE1 TRP X   3     -14.538 -12.476  39.580  1.00 29.47 LIG-0.36  N 
ATOM     21 HE1  TRP X   3     -14.051 -12.831  40.194  1.00 29.47 LIG 0.17  HD
ATOM     22  CE2 TRP X   3     -14.167 -12.323  38.263  1.00 27.62 LIG 0.04  A 
ATOM     23  CZ2 TRP X   3     -12.958 -12.680  37.593  1.00 28.85 LIG 0.03  A 
ATOM     24  CD2 TRP X   3     -15.241 -11.695  37.598  1.00 25.33 LIG-0.00  A 
ATOM     25  CH2 TRP X   3     -12.864 -12.392  36.225  1.00 28.18 LIG 0.00  A 
ATOM     26  CZ3 TRP X   3     -13.921 -11.755  35.551  1.00 26.79 LIG 0.00  A 
ATOM     27  CE3 TRP X   3     -15.109 -11.388  36.234  1.00 25.86 LIG 0.01  A 
ENDBRANCH 17 18
ENDBRANCH 6 17
ENDBRANCH 3 6
ENDBRANCH 1 2
BRANCH 1 28
ATOM     28  CB  ARG X   4     -19.854 -13.170  42.777  1.00 29.55 LIG 0.04  C 
BRANCH 28 29
ATOM     29  CG  ARG X   4     -20.865 -14.035  43.525  1.00 28.17 LIG 0.02  C 
BRANCH 29 30
ATOM     30  CD  ARG X   4     -22.277 -13.448  43.384  1.00 27.09 LIG 0.14  C 
BRANCH 30 31
ATOM     31  NE  ARG X   4     -23.024 -14.195  42.376  1.00 25.46 LIG-0.23  N 
ATOM     32 HE   ARG X   4     -23.054 -15.052  42.443  1.00 25.46 LIG 0.18  HD
ATOM     33  CZ  ARG X   4     -23.661 -13.618  41.356  1.00 27.27 LIG 0.67  C 
ATOM     34  NH2 ARG X   4     -24.332 -14.351  40.472  1.00 24.12 LIG-0.23  N 
ATOM     35  NH1 ARG X   4     -23.606 -12.295  41.217  1.00 21.32 LIG-0.23  N 
ATOM     36 1HH2 ARG X   4     -24.359 -15.206  40.555  1.00 24.12 LIG 0.17  HD
ATOM     37 2HH2 ARG X   4     -24.741 -13.969  39.818  1.00 24.12 LIG 0.17  HD
ATOM     38 2HH1 ARG X   4     -24.013 -11.914  40.563  1.00 21.32 LIG 0.17  HD
ATOM     39 1HH1 ARG X   4     -23.163 -11.822  41.782  1.00 21.32 LIG 0.17  HD
ENDBRANCH 30 31
ENDBRANCH 29 30
ENDBRANCH 28 29
ENDBRANCH 1 28
BRANCH 1 40
ATOM     40  C   ARG X   4     -20.661 -10.959  41.990  1.00 30.38 LIG 0.24  C 
ATOM     41 O    ARG X   4     -21.802 -10.533  42.069  1.00 31.87 LIG-0.27  OA
ATOM     42  N   PRO X   5     -19.579 -10.202  42.231  1.00 30.60 LIG-0.34  N 
ATOM     43  CA  PRO X   5     -19.714  -8.850  42.820  1.00 31.31 LIG 0.18  C 
ATOM     44  CD  PRO X   5     -18.160 -10.605  42.026  1.00 29.99 LIG 0.13  C 
ATOM     45  CB  PRO X   5     -18.290  -8.534  43.287  1.00 30.70 LIG 0.04  C 
ATOM     46  CG  PRO X   5     -17.363  -9.368  42.353  1.00 29.42 LIG 0.02  C 
BRANCH 43 47
ATOM     47  C   PRO X   5     -20.226  -7.700  41.909  1.00 32.23 LIG 0.24  C 
ATOM     48 O    PRO X   5     -20.615  -7.948  40.728  1.00 32.23 LIG-0.27  OA
ATOM     49  N   TRP X   6     -20.251  -6.479  42.436  1.00 33.50 LIG-0.34  N 
ATOM     50 H    TRP X   6     -19.919  -6.276  43.203  1.00 33.50 LIG 0.16  HD
BRANCH 49 51
ATOM     51  CA  TRP X   6     -20.870  -5.357  41.718  1.00 34.66 LIG 0.19  C 
BRANCH 51 52
ATOM     52  CB  TRP X   6     -19.815  -4.652  40.841  1.00 34.41 LIG 0.08  C 
BRANCH 52 53
ATOM     53  CG  TRP X   6     -18.840  -5.593  40.158  1.00 32.39 LIG-0.03  A 
ATOM     54  CD2 TRP X   6     -18.970  -6.189  38.848  1.00 31.68 LIG-0.00  A 
ATOM     55  CE2 TRP X   6     -17.835  -7.000  38.650  1.00 33.29 LIG 0.04  A 
ATOM     56  CE3 TRP X   6     -19.926  -6.104  37.828  1.00 33.66 LIG 0.01  A 
ATOM     57  CZ2 TRP X   6     -17.615  -7.706  37.459  1.00 33.18 LIG 0.03  A 
ATOM     58  NE1 TRP X   6     -17.052  -6.892  39.774  1.00 30.87 LIG-0.36  N 
ATOM     59  CH2 TRP X   6     -18.554  -7.608  36.482  1.00 32.36 LIG 0.00  A 
ATOM     60  CZ3 TRP X   6     -19.718  -6.828  36.656  1.00 32.37 LIG 0.00  A 
ATOM     61 HE1  TRP X   6     -16.295  -7.283  39.895  1.00 30.87 LIG 0.17  HD
ATOM     62  CD1 TRP X   6     -17.669  -6.062  40.671  1.00 30.01 LIG 0.10  A 
ENDBRANCH 52 53
ENDBRANCH 51 52
BRANCH 51 63
ATOM     63  C   TRP X   6     -22.094  -5.777  40.880  1.00 36.76 LIG 0.20  C 
ATOM     64 O    TRP X   6     -22.122  -5.805  39.637  1.00 37.86 LIG-0.65  OA
ATOM     65 OXT  TRP X   6     -23.151  -6.101  41.434  1.00 39.11 LIG-0.65  OA
ENDBRANCH 51 63
ENDBRANCH 49 51
ENDBRANCH 43 47
ENDBRANCH 1 40
TORSDOF 19
ENDMDL
MODEL 25
USER: ADFR SOLUTION from run 130
USER: SCORE 17.212461 LL:  -4.264 LR: -14.543 RR:   0.000 FEB:  -8.875
USER: RMSD 7.499429
USER: SEED 129
USER: STATUS no improvement in best in 6 clusters for 5 generations
USER: GENES 21
USER: genes 0 Translation |==|  0.54647 0.49625 0.64448
USER: genes 1 Rotation |==|  0.57053 0.48380 0.86846 0.83016
USER: genes 2 Torsion [CB]-CA--N-[C] |==|  0.44411
USER: genes 3 Torsion [N]-C--CA-[N] |==|  0.97585
USER: genes 4 Torsion [C]-CA--N-[C] |==|  0.72791
USER: genes 5 Torsion [N]-C--CA-[N] |==|  0.36564
USER: genes 6 Torsion [C]-CA--CB-[CG] |==|  0.43449
USER: genes 7 Torsion [CA]-CB--CG-[SD] |==|  0.64643
USER: genes 8 Torsion [CB]-CG--SD-[CE] |==|  0.44048
USER: genes 9 Torsion [C]-CA--CB-[CG] |==|  0.35243
USER: genes 10 Torsion [CA]-CB--CG-[CD2] |==|  0.61489
USER: genes 11 Torsion [N]-CA--CB-[CG] |==|  0.72362
USER: genes 12 Torsion [CA]-CB--CG-[CD] |==|  0.82804
USER: genes 13 Torsion [CB]-CG--CD-[NE] |==|  0.38222
USER: genes 14 Torsion [CG]-CD--NE-[CZ] |==|  0.56392
USER: genes 15 Torsion [N]-CA--C-[N] |==|  0.80659
USER: genes 16 Torsion [N]-CA--C-[O] |==|  0.96445
USER: genes 17 Torsion [C]-N--CA-[CB] |==|  0.75471
USER: genes 18 Torsion [N]-CA--CB-[CG] |==|  0.07776
USER: genes 19 Torsion [CA]-CB--CG-[CD2] |==|  0.26204
USER: genes 20 Torsion [N]-CA--C-[O] |==|  0.69476
ROOT
ATOM      1  CA  ARG X   4     -20.389 -12.549  41.403  1.00 29.51 LIG 0.18  C 
ENDROOT
BRANCH 1 2
ATOM      2  N   ARG X   4     -20.567 -12.412  39.960  1.00 29.26 LIG-0.35  N 
ATOM      3  C   TRP X   3     -21.769 -12.218  39.385  1.00 30.37 LIG 0.24  C 
ATOM      4 O    TRP X   3     -22.833 -12.102  40.030  1.00 30.38 LIG-0.27  OA
ATOM      5 H    ARG X   4     -19.835 -12.467  39.513  1.00 29.26 LIG 0.16  HD
BRANCH 3 6
ATOM      6  CA  TRP X   3     -21.781 -12.120  37.845  1.00 30.62 LIG 0.18  C 
BRANCH 6 7
ATOM      7  N   TRP X   3     -20.425 -12.055  37.274  1.00 31.45 LIG-0.34  N 
ATOM      8 H    TRP X   3     -20.024 -12.810  37.179  1.00 31.45 LIG 0.16  HD
ATOM      9  C   MET X   2     -19.918 -10.867  36.949  1.00 32.92 LIG 0.26  C 
ATOM     10 O    MET X   2     -20.565  -9.840  37.028  1.00 32.35 LIG-0.27  OA
BRANCH 9 11
ATOM     11  CA  MET X   2     -18.510 -10.806  36.427  1.00 34.28 LIG 0.40  C 
ATOM     12  N   MET X   2     -18.417  -9.969  35.167  1.00 35.36 LIG 0.61  N 
BRANCH 11 13
ATOM     13  CB  MET X   2     -17.614 -10.224  37.509  1.00 35.71 LIG 0.06  C 
BRANCH 13 14
ATOM     14  CG  MET X   2     -16.161 -10.595  37.388  1.00 37.62 LIG 0.08  C 
BRANCH 14 15
ATOM     15 SD   MET X   2     -15.354 -11.316  38.844  1.00 39.06 LIG-0.17  SA
ATOM     16  CE  MET X   2     -13.942 -12.170  38.075  1.00 45.88 LIG 0.09  C 
ENDBRANCH 14 15
ENDBRANCH 13 14
ENDBRANCH 11 13
ENDBRANCH 9 11
ENDBRANCH 6 7
BRANCH 6 17
ATOM     17  CB  TRP X   3     -22.619 -13.242  37.229  1.00 29.85 LIG 0.07  C 
BRANCH 17 18
ATOM     18  CG  TRP X   3     -23.667 -12.722  36.283  1.00 29.58 LIG-0.03  A 
ATOM     19  CD1 TRP X   3     -23.510 -11.718  35.366  1.00 26.84 LIG 0.10  A 
ATOM     20  NE1 TRP X   3     -24.686 -11.519  34.693  1.00 29.47 LIG-0.36  N 
ATOM     21 HE1  TRP X   3     -24.811 -10.932  34.077  1.00 29.47 LIG 0.17  HD
ATOM     22  CE2 TRP X   3     -25.638 -12.401  35.153  1.00 27.62 LIG 0.04  A 
ATOM     23  CZ2 TRP X   3     -27.001 -12.578  34.768  1.00 28.85 LIG 0.03  A 
ATOM     24  CD2 TRP X   3     -25.031 -13.179  36.161  1.00 25.33 LIG-0.00  A 
ATOM     25  CH2 TRP X   3     -27.738 -13.571  35.426  1.00 28.18 LIG 0.00  A 
ATOM     26  CZ3 TRP X   3     -27.152 -14.346  36.444  1.00 26.79 LIG 0.00  A 
ATOM     27  CE3 TRP X   3     -25.801 -14.146  36.829  1.00 25.86 LIG 0.01  A 
ENDBRANCH 17 18
ENDBRANCH 6 17
ENDBRANCH 3 6
ENDBRANCH 1 2
BRANCH 1 28
ATOM     28  CB  ARG X   4     -19.054 -13.241  41.748  1.00 29.55 LIG 0.04  C 
BRANCH 28 29
ATOM     29  CG  ARG X   4     -19.178 -14.727  42.074  1.00 28.17 LIG 0.02  C 
BRANCH 29 30
ATOM     30  CD  ARG X   4     -20.062 -14.929  43.314  1.00 27.09 LIG 0.14  C 
BRANCH 30 31
ATOM     31  NE  ARG X   4     -20.966 -16.054  43.097  1.00 25.46 LIG-0.23  N 
ATOM     32 HE   ARG X   4     -20.746 -16.648  42.516  1.00 25.46 LIG 0.18  HD
ATOM     33  CZ  ARG X   4     -22.117 -16.208  43.755  1.00 27.27 LIG 0.67  C 
ATOM     34  NH2 ARG X   4     -22.897 -17.260  43.520  1.00 24.12 LIG-0.23  N 
ATOM     35  NH1 ARG X   4     -22.490 -15.288  44.641  1.00 21.32 LIG-0.23  N 
ATOM     36 1HH2 ARG X   4     -22.662 -17.849  42.940  1.00 24.12 LIG 0.17  HD
ATOM     37 2HH2 ARG X   4     -23.637 -17.351  43.950  1.00 24.12 LIG 0.17  HD
ATOM     38 2HH1 ARG X   4     -23.230 -15.379  45.069  1.00 21.32 LIG 0.17  HD
ATOM     39 1HH1 ARG X   4     -21.991 -14.603  44.785  1.00 21.32 LIG 0.17  HD
ENDBRANCH 30 31
ENDBRANCH 29 30
ENDBRANCH 28 29
ENDBRANCH 1 28
BRANCH 1 40
ATOM     40  C   ARG X   4     -20.391 -11.165  41.998  1.00 30.38 LIG 0.24  C 
ATOM     41 O    ARG X   4     -21.344 -10.812  42.674  1.00 31.87 LIG-0.27  OA
ATOM     42  N   PRO X   5     -19.342 -10.368  41.739  1.00 30.60 LIG-0.34  N 
ATOM     43  CA  PRO X   5     -19.181  -9.074  42.441  1.00 31.31 LIG 0.18  C 
ATOM     44  CD  PRO X   5     -18.212 -10.673  40.820  1.00 29.99 LIG 0.13  C 
ATOM     45  CB  PRO X   5     -17.718  -8.713  42.165  1.00 30.70 LIG 0.04  C 
ATOM     46  CG  PRO X   5     -17.373  -9.421  40.821  1.00 29.42 LIG 0.02  C 
BRANCH 43 47
ATOM     47  C   PRO X   5     -20.093  -7.890  42.016  1.00 32.23 LIG 0.24  C 
ATOM     48 O    PRO X   5     -20.771  -7.959  40.946  1.00 32.23 LIG-0.27  OA
ATOM     49  N   TRP X   6     -20.136  -6.840  42.831  1.00 33.50 LIG-0.34  N 
ATOM     50 H    TRP X   6     -19.626  -6.738  43.517  1.00 33.50 LIG 0.16  HD
BRANCH 49 51
ATOM     51  CA  TRP X   6     -21.089  -5.744  42.606  1.00 34.66 LIG 0.19  C 
BRANCH 51 52
ATOM     52  CB  TRP X   6     -20.466  -4.694  41.664  1.00 34.41 LIG 0.08  C 
BRANCH 52 53
ATOM     53  CG  TRP X   6     -19.435  -5.251  40.699  1.00 32.39 LIG-0.03  A 
ATOM     54  CD2 TRP X   6     -19.655  -5.692  39.341  1.00 31.68 LIG-0.00  A 
ATOM     55  CE2 TRP X   6     -18.414  -6.144  38.849  1.00 33.29 LIG 0.04  A 
ATOM     56  CE3 TRP X   6     -20.773  -5.735  38.498  1.00 33.66 LIG 0.01  A 
ATOM     57  CZ2 TRP X   6     -18.253  -6.611  37.537  1.00 33.18 LIG 0.03  A 
ATOM     58  NE1 TRP X   6     -17.489  -5.975  39.850  1.00 30.87 LIG-0.36  N 
ATOM     59  CH2 TRP X   6     -19.350  -6.643  36.736  1.00 32.36 LIG 0.00  A 
ATOM     60  CZ3 TRP X   6     -20.615  -6.225  37.204  1.00 32.37 LIG 0.00  A 
ATOM     61 HE1  TRP X   6     -16.652  -6.165  39.794  1.00 30.87 LIG 0.17  HD
ATOM     62  CD1 TRP X   6     -18.113  -5.456  40.953  1.00 30.01 LIG 0.10  A 
ENDBRANCH 52 53
ENDBRANCH 51 52
BRANCH 51 63
ATOM     63  C   TRP X   6     -22.450  -6.230  42.069  1.00 36.76 LIG 0.20  C 
ATOM     64 O    TRP X   6     -22.866  -6.029  40.914  1.00 37.86 LIG-0.65  OA
ATOM     65 OXT  TRP X   6     -23.228  -6.851  42.803  1.00 39.11 LIG-0.65  OA
ENDBRANCH 51 63
ENDBRANCH 49 51
ENDBRANCH 43 47
ENDBRANCH 1 40
TORSDOF 19
ENDMDL
MODEL 26
USER: ADFR SOLUTION from run 165
USER: SCORE 18.517456 LL:  -4.061 LR: -14.524 RR:   0.000 FEB:  -8.856
USER: RMSD 9.198340
USER: SEED 164
USER: STATUS no improvement in best in 24 clusters for 5 generations
USER: GENES 21
USER: genes 0 Translation |==|  0.55017 0.55444 0.67776
USER: genes 1 Rotation |==|  0.24388 0.13569 0.64549 0.67467
USER: genes 2 Torsion [CB]-CA--N-[C] |==|  0.14656
USER: genes 3 Torsion [N]-C--CA-[N] |==|  0.40836
USER: genes 4 Torsion [C]-CA--N-[C] |==|  0.82648
USER: genes 5 Torsion [N]-C--CA-[N] |==|  0.62522
USER: genes 6 Torsion [C]-CA--CB-[CG] |==|  0.22815
USER: genes 7 Torsion [CA]-CB--CG-[SD] |==|  0.16469
USER: genes 8 Torsion [CB]-CG--SD-[CE] |==|  0.30321
USER: genes 9 Torsion [C]-CA--CB-[CG] |==|  0.91178
USER: genes 10 Torsion [CA]-CB--CG-[CD2] |==|  0.29309
USER: genes 11 Torsion [N]-CA--CB-[CG] |==|  0.56056
USER: genes 12 Torsion [CA]-CB--CG-[CD] |==|  0.45797
USER: genes 13 Torsion [CB]-CG--CD-[NE] |==|  0.45522
USER: genes 14 Torsion [CG]-CD--NE-[CZ] |==|  0.39837
USER: genes 15 Torsion [N]-CA--C-[N] |==|  0.11201
USER: genes 16 Torsion [N]-CA--C-[O] |==|  0.32171
USER: genes 17 Torsion [C]-N--CA-[CB] |==|  0.26232
USER: genes 18 Torsion [N]-CA--CB-[CG] |==|  0.96961
USER: genes 19 Torsion [CA]-CB--CG-[CD2] |==|  0.74174
USER: genes 20 Torsion [N]-CA--C-[O] |==|  0.56436
ROOT
ATOM      1  CA  ARG X   4     -20.311 -11.414  42.027  1.00 29.51 LIG 0.18  C 
ENDROOT
BRANCH 1 2
ATOM      2  N   ARG X   4     -19.119 -11.535  42.862  1.00 29.26 LIG-0.35  N 
ATOM      3  C   TRP X   3     -18.437 -12.686  43.003  1.00 30.37 LIG 0.24  C 
ATOM      4 O    TRP X   3     -18.737 -13.744  42.410  1.00 30.38 LIG-0.27  OA
ATOM      5 H    ARG X   4     -18.895 -10.803  43.254  1.00 29.26 LIG 0.16  HD
BRANCH 3 6
ATOM      6  CA  TRP X   3     -17.214 -12.644  43.943  1.00 30.62 LIG 0.18  C 
BRANCH 6 7
ATOM      7  N   TRP X   3     -17.001 -13.920  44.648  1.00 31.45 LIG-0.34  N 
ATOM      8 H    TRP X   3     -16.260 -14.320  44.479  1.00 31.45 LIG 0.16  HD
ATOM      9  C   MET X   2     -17.943 -14.361  45.480  1.00 32.92 LIG 0.26  C 
ATOM     10 O    MET X   2     -18.936 -13.710  45.744  1.00 32.35 LIG-0.27  OA
BRANCH 9 11
ATOM     11  CA  MET X   2     -17.746 -15.695  46.145  1.00 34.28 LIG 0.40  C 
ATOM     12  N   MET X   2     -19.007 -16.535  46.098  1.00 35.36 LIG 0.61  N 
BRANCH 11 13
ATOM     13  CB  MET X   2     -16.606 -16.422  45.450  1.00 35.71 LIG 0.06  C 
BRANCH 13 14
ATOM     14  CG  MET X   2     -15.231 -16.017  45.907  1.00 37.62 LIG 0.08  C 
BRANCH 14 15
ATOM     15 SD   MET X   2     -14.830 -16.240  47.662  1.00 39.06 LIG-0.17  SA
ATOM     16  CE  MET X   2     -13.649 -17.623  47.579  1.00 45.88 LIG 0.09  C 
ENDBRANCH 14 15
ENDBRANCH 13 14
ENDBRANCH 11 13
ENDBRANCH 9 11
ENDBRANCH 6 7
BRANCH 6 17
ATOM     17  CB  TRP X   3     -15.963 -12.175  43.198  1.00 29.85 LIG 0.07  C 
BRANCH 17 18
ATOM     18  CG  TRP X   3     -15.968 -12.589  41.751  1.00 29.58 LIG-0.03  A 
ATOM     19  CD1 TRP X   3     -15.740 -13.847  41.264  1.00 26.84 LIG 0.10  A 
ATOM     20  NE1 TRP X   3     -15.819 -13.834  39.896  1.00 29.47 LIG-0.36  N 
ATOM     21 HE1  TRP X   3     -15.703 -14.517  39.386  1.00 29.47 LIG 0.17  HD
ATOM     22  CE2 TRP X   3     -16.112 -12.560  39.462  1.00 27.62 LIG 0.04  A 
ATOM     23  CZ2 TRP X   3     -16.291 -12.049  38.141  1.00 28.85 LIG 0.03  A 
ATOM     24  CD2 TRP X   3     -16.212 -11.743  40.607  1.00 25.33 LIG-0.00  A 
ATOM     25  CH2 TRP X   3     -16.584 -10.686  38.006  1.00 28.18 LIG 0.00  A 
ATOM     26  CZ3 TRP X   3     -16.674  -9.855  39.137  1.00 26.79 LIG 0.00  A 
ATOM     27  CE3 TRP X   3     -16.474 -10.373  40.443  1.00 25.86 LIG 0.01  A 
ENDBRANCH 17 18
ENDBRANCH 6 17
ENDBRANCH 3 6
ENDBRANCH 1 2
BRANCH 1 28
ATOM     28  CB  ARG X   4     -21.365 -12.485  42.382  1.00 29.55 LIG 0.04  C 
BRANCH 28 29
ATOM     29  CG  ARG X   4     -22.370 -12.774  41.270  1.00 28.17 LIG 0.02  C 
BRANCH 29 30
ATOM     30  CD  ARG X   4     -23.122 -14.083  41.559  1.00 27.09 LIG 0.14  C 
BRANCH 30 31
ATOM     31  NE  ARG X   4     -24.318 -14.158  40.725  1.00 25.46 LIG-0.23  N 
ATOM     32 HE   ARG X   4     -24.753 -13.433  40.569  1.00 25.46 LIG 0.18  HD
ATOM     33  CZ  ARG X   4     -24.771 -15.295  40.193  1.00 27.27 LIG 0.67  C 
ATOM     34  NH2 ARG X   4     -25.863 -15.301  39.434  1.00 24.12 LIG-0.23  N 
ATOM     35  NH1 ARG X   4     -24.128 -16.434  40.442  1.00 21.32 LIG-0.23  N 
ATOM     36 1HH2 ARG X   4     -26.285 -14.568  39.282  1.00 24.12 LIG 0.17  HD
ATOM     37 2HH2 ARG X   4     -26.148 -16.039  39.095  1.00 24.12 LIG 0.17  HD
ATOM     38 2HH1 ARG X   4     -24.413 -17.171  40.104  1.00 21.32 LIG 0.17  HD
ATOM     39 1HH1 ARG X   4     -23.428 -16.432  40.941  1.00 21.32 LIG 0.17  HD
ENDBRANCH 30 31
ENDBRANCH 29 30
ENDBRANCH 28 29
ENDBRANCH 1 28
BRANCH 1 40
ATOM     40  C   ARG X   4     -20.902 -10.049  42.266  1.00 30.38 LIG 0.24  C 
ATOM     41 O    ARG X   4     -22.115  -9.930  42.326  1.00 31.87 LIG-0.27  OA
ATOM     42  N   PRO X   5     -20.058  -9.011  42.384  1.00 30.60 LIG-0.34  N 
ATOM     43  CA  PRO X   5     -20.548  -7.680  42.809  1.00 31.31 LIG 0.18  C 
ATOM     44  CD  PRO X   5     -18.583  -9.051  42.189  1.00 29.99 LIG 0.13  C 
ATOM     45  CB  PRO X   5     -19.259  -6.947  43.194  1.00 30.70 LIG 0.04  C 
ATOM     46  CG  PRO X   5     -18.141  -7.618  42.342  1.00 29.42 LIG 0.02  C 
BRANCH 43 47
ATOM     47  C   PRO X   5     -21.340  -6.826  41.781  1.00 32.23 LIG 0.24  C 
ATOM     48 O    PRO X   5     -22.556  -6.538  41.994  1.00 32.23 LIG-0.27  OA
ATOM     49  N   TRP X   6     -20.677  -6.409  40.706  1.00 33.50 LIG-0.34  N 
ATOM     50 H    TRP X   6     -19.879  -6.657  40.502  1.00 33.50 LIG 0.16  HD
BRANCH 49 51
ATOM     51  CA  TRP X   6     -21.285  -5.462  39.761  1.00 34.66 LIG 0.19  C 
BRANCH 51 52
ATOM     52  CB  TRP X   6     -20.870  -4.021  40.124  1.00 34.41 LIG 0.08  C 
BRANCH 52 53
ATOM     53  CG  TRP X   6     -20.182  -3.889  41.470  1.00 32.39 LIG-0.03  A 
ATOM     54  CD2 TRP X   6     -20.797  -3.587  42.742  1.00 31.68 LIG-0.00  A 
ATOM     55  CE2 TRP X   6     -19.765  -3.549  43.701  1.00 33.29 LIG 0.04  A 
ATOM     56  CE3 TRP X   6     -22.115  -3.359  43.159  1.00 33.66 LIG 0.01  A 
ATOM     57  CZ2 TRP X   6     -20.012  -3.317  45.061  1.00 33.18 LIG 0.03  A 
ATOM     58  NE1 TRP X   6     -18.588  -3.825  43.048  1.00 30.87 LIG-0.36  N 
ATOM     59  CH2 TRP X   6     -21.297  -3.100  45.443  1.00 32.36 LIG 0.00  A 
ATOM     60  CZ3 TRP X   6     -22.354  -3.102  44.507  1.00 32.37 LIG 0.00  A 
ATOM     61 HE1  TRP X   6     -17.812  -3.873  43.416  1.00 30.87 LIG 0.17  HD
ATOM     62  CD1 TRP X   6     -18.848  -4.011  41.716  1.00 30.01 LIG 0.10  A 
ENDBRANCH 52 53
ENDBRANCH 51 52
BRANCH 51 63
ATOM     63  C   TRP X   6     -20.952  -5.780  38.290  1.00 36.76 LIG 0.20  C 
ATOM     64 O    TRP X   6     -20.983  -4.949  37.364  1.00 37.86 LIG-0.65  OA
ATOM     65 OXT  TRP X   6     -20.647  -6.929  37.950  1.00 39.11 LIG-0.65  OA
ENDBRANCH 51 63
ENDBRANCH 49 51
ENDBRANCH 43 47
ENDBRANCH 1 40
TORSDOF 19
ENDMDL
MODEL 27
USER: ADFR SOLUTION from run 118
USER: SCORE 17.909575 LL:  -3.583 LR: -14.520 RR:   0.000 FEB:  -8.853
USER: RMSD 6.158029
USER: SEED 117
USER: STATUS no improvement in best in 16 clusters for 5 generations
USER: GENES 21
USER: genes 0 Translation |==|  0.41088 0.44110 0.52406
USER: genes 1 Rotation |==|  0.68265 0.48164 0.65647 0.93797
USER: genes 2 Torsion [CB]-CA--N-[C] |==|  0.86557
USER: genes 3 Torsion [N]-C--CA-[N] |==|  0.37276
USER: genes 4 Torsion [C]-CA--N-[C] |==|  0.84714
USER: genes 5 Torsion [N]-C--CA-[N] |==|  0.98469
USER: genes 6 Torsion [C]-CA--CB-[CG] |==|  0.25928
USER: genes 7 Torsion [CA]-CB--CG-[SD] |==|  0.57679
USER: genes 8 Torsion [CB]-CG--SD-[CE] |==|  0.53877
USER: genes 9 Torsion [C]-CA--CB-[CG] |==|  0.27000
USER: genes 10 Torsion [CA]-CB--CG-[CD2] |==|  0.69726
USER: genes 11 Torsion [N]-CA--CB-[CG] |==|  0.77912
USER: genes 12 Torsion [CA]-CB--CG-[CD] |==|  0.84204
USER: genes 13 Torsion [CB]-CG--CD-[NE] |==|  0.35423
USER: genes 14 Torsion [CG]-CD--NE-[CZ] |==|  0.35573
USER: genes 15 Torsion [N]-CA--C-[N] |==|  0.38550
USER: genes 16 Torsion [N]-CA--C-[O] |==|  0.02833
USER: genes 17 Torsion [C]-N--CA-[CB] |==|  0.84452
USER: genes 18 Torsion [N]-CA--CB-[CG] |==|  0.81452
USER: genes 19 Torsion [CA]-CB--CG-[CD2] |==|  0.67934
USER: genes 20 Torsion [N]-CA--C-[O] |==|  0.04212
ROOT
ATOM      1  CA  ARG X   4     -23.237 -13.625  39.145  1.00 29.51 LIG 0.18  C 
ENDROOT
BRANCH 1 2
ATOM      2  N   ARG X   4     -23.621 -12.801  38.002  1.00 29.26 LIG-0.35  N 
ATOM      3  C   TRP X   3     -22.957 -12.817  36.831  1.00 30.37 LIG 0.24  C 
ATOM      4 O    TRP X   3     -21.977 -13.557  36.603  1.00 30.38 LIG-0.27  OA
ATOM      5 H    ARG X   4     -24.310 -12.308  38.146  1.00 29.26 LIG 0.16  HD
BRANCH 3 6
ATOM      6  CA  TRP X   3     -23.483 -11.865  35.736  1.00 30.62 LIG 0.18  C 
BRANCH 6 7
ATOM      7  N   TRP X   3     -22.401 -11.115  35.074  1.00 31.45 LIG-0.34  N 
ATOM      8 H    TRP X   3     -22.368 -11.186  34.218  1.00 31.45 LIG 0.16  HD
ATOM      9  C   MET X   2     -21.567 -10.395  35.822  1.00 32.92 LIG 0.26  C 
ATOM     10 O    MET X   2     -21.714 -10.266  37.022  1.00 32.35 LIG-0.27  OA
BRANCH 9 11
ATOM     11  CA  MET X   2     -20.427  -9.685  35.144  1.00 34.28 LIG 0.40  C 
ATOM     12  N   MET X   2     -20.349 -10.034  33.671  1.00 35.36 LIG 0.61  N 
BRANCH 11 13
ATOM     13  CB  MET X   2     -20.615  -8.187  35.319  1.00 35.71 LIG 0.06  C 
BRANCH 13 14
ATOM     14  CG  MET X   2     -19.906  -7.600  36.510  1.00 37.62 LIG 0.08  C 
BRANCH 14 15
ATOM     15 SD   MET X   2     -20.615  -6.108  37.257  1.00 39.06 LIG-0.17  SA
ATOM     16  CE  MET X   2     -19.239  -5.557  38.314  1.00 45.88 LIG 0.09  C 
ENDBRANCH 14 15
ENDBRANCH 13 14
ENDBRANCH 11 13
ENDBRANCH 9 11
ENDBRANCH 6 7
BRANCH 6 17
ATOM     17  CB  TRP X   3     -24.368 -12.613  34.736  1.00 29.85 LIG 0.07  C 
BRANCH 17 18
ATOM     18  CG  TRP X   3     -25.833 -12.467  35.046  1.00 29.58 LIG-0.03  A 
ATOM     19  CD1 TRP X   3     -26.587 -11.334  34.899  1.00 26.84 LIG 0.10  A 
ATOM     20  NE1 TRP X   3     -27.876 -11.583  35.291  1.00 29.47 LIG-0.36  N 
ATOM     21 HE1  TRP X   3     -28.516 -11.008  35.285  1.00 29.47 LIG 0.17  HD
ATOM     22  CE2 TRP X   3     -27.992 -12.894  35.694  1.00 27.62 LIG 0.04  A 
ATOM     23  CZ2 TRP X   3     -29.122 -13.617  36.184  1.00 28.85 LIG 0.03  A 
ATOM     24  CD2 TRP X   3     -26.719 -13.486  35.556  1.00 25.33 LIG-0.00  A 
ATOM     25  CH2 TRP X   3     -28.934 -14.963  36.525  1.00 28.18 LIG 0.00  A 
ATOM     26  CZ3 TRP X   3     -27.668 -15.564  36.405  1.00 26.79 LIG 0.00  A 
ATOM     27  CE3 TRP X   3     -26.550 -14.828  35.935  1.00 25.86 LIG 0.01  A 
ENDBRANCH 17 18
ENDBRANCH 6 17
ENDBRANCH 3 6
ENDBRANCH 1 2
BRANCH 1 28
ATOM     28  CB  ARG X   4     -23.002 -15.094  38.735  1.00 29.55 LIG 0.04  C 
BRANCH 28 29
ATOM     29  CG  ARG X   4     -24.278 -15.915  38.570  1.00 28.17 LIG 0.02  C 
BRANCH 29 30
ATOM     30  CD  ARG X   4     -25.101 -15.887  39.867  1.00 27.09 LIG 0.14  C 
BRANCH 30 31
ATOM     31  NE  ARG X   4     -26.471 -15.476  39.573  1.00 25.46 LIG-0.23  N 
ATOM     32 HE   ARG X   4     -26.592 -14.754  39.123  1.00 25.46 LIG 0.18  HD
ATOM     33  CZ  ARG X   4     -27.544 -16.165  39.967  1.00 27.27 LIG 0.67  C 
ATOM     34  NH2 ARG X   4     -28.769 -15.745  39.661  1.00 24.12 LIG-0.23  N 
ATOM     35  NH1 ARG X   4     -27.381 -17.272  40.686  1.00 21.32 LIG-0.23  N 
ATOM     36 1HH2 ARG X   4     -28.875 -15.024  39.206  1.00 24.12 LIG 0.17  HD
ATOM     37 2HH2 ARG X   4     -29.455 -16.196  39.919  1.00 24.12 LIG 0.17  HD
ATOM     38 2HH1 ARG X   4     -28.066 -17.722  40.944  1.00 21.32 LIG 0.17  HD
ATOM     39 1HH1 ARG X   4     -26.589 -17.538  40.892  1.00 21.32 LIG 0.17  HD
ENDBRANCH 30 31
ENDBRANCH 29 30
ENDBRANCH 28 29
ENDBRANCH 1 28
BRANCH 1 40
ATOM     40  C   ARG X   4     -21.955 -13.062  39.704  1.00 30.38 LIG 0.24  C 
ATOM     41 O    ARG X   4     -21.078 -12.707  38.933  1.00 31.87 LIG-0.27  OA
ATOM     42  N   PRO X   5     -21.827 -12.996  41.039  1.00 30.60 LIG-0.34  N 
ATOM     43  CA  PRO X   5     -20.686 -12.283  41.657  1.00 31.31 LIG 0.18  C 
ATOM     44  CD  PRO X   5     -22.788 -13.531  42.042  1.00 29.99 LIG 0.13  C 
ATOM     45  CB  PRO X   5     -21.138 -12.107  43.110  1.00 30.70 LIG 0.04  C 
ATOM     46  CG  PRO X   5     -22.126 -13.282  43.372  1.00 29.42 LIG 0.02  C 
BRANCH 43 47
ATOM     47  C   PRO X   5     -19.291 -12.967  41.630  1.00 32.23 LIG 0.24  C 
ATOM     48 O    PRO X   5     -19.104 -14.006  40.927  1.00 32.23 LIG-0.27  OA
ATOM     49  N   TRP X   6     -18.328 -12.399  42.350  1.00 33.50 LIG-0.34  N 
ATOM     50 H    TRP X   6     -18.452 -11.744  42.894  1.00 33.50 LIG 0.16  HD
BRANCH 49 51
ATOM     51  CA  TRP X   6     -16.939 -12.870  42.261  1.00 34.66 LIG 0.19  C 
BRANCH 51 52
ATOM     52  CB  TRP X   6     -16.875 -14.378  42.578  1.00 34.41 LIG 0.08  C 
BRANCH 52 53
ATOM     53  CG  TRP X   6     -17.221 -14.730  44.013  1.00 32.39 LIG-0.03  A 
ATOM     54  CD2 TRP X   6     -16.348 -15.314  45.006  1.00 31.68 LIG-0.00  A 
ATOM     55  CE2 TRP X   6     -17.111 -15.476  46.180  1.00 33.29 LIG 0.04  A 
ATOM     56  CE3 TRP X   6     -15.002 -15.700  45.016  1.00 33.66 LIG 0.01  A 
ATOM     57  CZ2 TRP X   6     -16.563 -15.986  47.366  1.00 33.18 LIG 0.03  A 
ATOM     58  NE1 TRP X   6     -18.374 -15.005  45.918  1.00 30.87 LIG-0.36  N 
ATOM     59  CH2 TRP X   6     -15.255 -16.353  47.353  1.00 32.36 LIG 0.00  A 
ATOM     60  CZ3 TRP X   6     -14.468 -16.232  46.187  1.00 32.37 LIG 0.00  A 
ATOM     61 HE1  TRP X   6     -19.026 -14.982  46.479  1.00 30.87 LIG 0.17  HD
ATOM     62  CD1 TRP X   6     -18.431 -14.576  44.618  1.00 30.01 LIG 0.10  A 
ENDBRANCH 52 53
ENDBRANCH 51 52
BRANCH 51 63
ATOM     63  C   TRP X   6     -16.284 -12.563  40.899  1.00 36.76 LIG 0.20  C 
ATOM     64 O    TRP X   6     -16.736 -11.759  40.064  1.00 37.86 LIG-0.65  OA
ATOM     65 OXT  TRP X   6     -15.246 -13.143  40.557  1.00 39.11 LIG-0.65  OA
ENDBRANCH 51 63
ENDBRANCH 49 51
ENDBRANCH 43 47
ENDBRANCH 1 40
TORSDOF 19
ENDMDL
MODEL 28
USER: ADFR SOLUTION from run 118
USER: SCORE 17.705652 LL:  -3.584 LR: -14.514 RR:   0.000 FEB:  -8.846
USER: RMSD 6.327732
USER: SEED 117
USER: STATUS no improvement in best in 16 clusters for 5 generations
USER: GENES 21
USER: genes 0 Translation |==|  0.42057 0.42296 0.58014
USER: genes 1 Rotation |==|  0.60707 0.62022 0.67621 0.93936
USER: genes 2 Torsion [CB]-CA--N-[C] |==|  0.83889
USER: genes 3 Torsion [N]-C--CA-[N] |==|  0.39873
USER: genes 4 Torsion [C]-CA--N-[C] |==|  0.82635
USER: genes 5 Torsion [N]-C--CA-[N] |==|  0.69228
USER: genes 6 Torsion [C]-CA--CB-[CG] |==|  0.77143
USER: genes 7 Torsion [CA]-CB--CG-[SD] |==|  0.32988
USER: genes 8 Torsion [CB]-CG--SD-[CE] |==|  0.30056
USER: genes 9 Torsion [C]-CA--CB-[CG] |==|  0.37669
USER: genes 10 Torsion [CA]-CB--CG-[CD2] |==|  0.10539
USER: genes 11 Torsion [N]-CA--CB-[CG] |==|  0.88689
USER: genes 12 Torsion [CA]-CB--CG-[CD] |==|  0.91835
USER: genes 13 Torsion [CB]-CG--CD-[NE] |==|  0.52818
USER: genes 14 Torsion [CG]-CD--NE-[CZ] |==|  0.54118
USER: genes 15 Torsion [N]-CA--C-[N] |==|  0.46488
USER: genes 16 Torsion [N]-CA--C-[O] |==|  0.12122
USER: genes 17 Torsion [C]-N--CA-[CB] |==|  0.33536
USER: genes 18 Torsion [N]-CA--CB-[CG] |==|  0.81990
USER: genes 19 Torsion [CA]-CB--CG-[CD2] |==|  0.34012
USER: genes 20 Torsion [N]-CA--C-[O] |==|  0.06236
ROOT
ATOM      1  CA  ARG X   4     -23.033 -13.978  40.197  1.00 29.51 LIG 0.18  C 
ENDROOT
BRANCH 1 2
ATOM      2  N   ARG X   4     -23.975 -13.862  39.087  1.00 29.26 LIG-0.35  N 
ATOM      3  C   TRP X   3     -23.645 -14.138  37.812  1.00 30.37 LIG 0.24  C 
ATOM      4 O    TRP X   3     -22.517 -14.550  37.465  1.00 30.38 LIG-0.27  OA
ATOM      5 H    ARG X   4     -24.760 -13.601  39.324  1.00 29.26 LIG 0.16  HD
BRANCH 3 6
ATOM      6  CA  TRP X   3     -24.755 -13.938  36.760  1.00 30.62 LIG 0.18  C 
BRANCH 6 7
ATOM      7  N   TRP X   3     -24.235 -13.419  35.483  1.00 31.45 LIG-0.34  N 
ATOM      8 H    TRP X   3     -24.339 -13.933  34.802  1.00 31.45 LIG 0.16  HD
ATOM      9  C   MET X   2     -23.652 -12.221  35.464  1.00 32.92 LIG 0.26  C 
ATOM     10 O    MET X   2     -23.608 -11.503  36.444  1.00 32.35 LIG-0.27  OA
BRANCH 9 11
ATOM     11  CA  MET X   2     -23.067 -11.729  34.169  1.00 34.28 LIG 0.40  C 
ATOM     12  N   MET X   2     -21.553 -11.680  34.224  1.00 35.36 LIG 0.61  N 
BRANCH 11 13
ATOM     13  CB  MET X   2     -23.521 -12.650  33.048  1.00 35.71 LIG 0.06  C 
BRANCH 13 14
ATOM     14  CG  MET X   2     -22.711 -13.910  32.904  1.00 37.62 LIG 0.08  C 
BRANCH 14 15
ATOM     15 SD   MET X   2     -23.571 -15.491  33.123  1.00 39.06 LIG-0.17  SA
ATOM     16  CE  MET X   2     -23.614 -16.107  31.410  1.00 45.88 LIG 0.09  C 
ENDBRANCH 14 15
ENDBRANCH 13 14
ENDBRANCH 11 13
ENDBRANCH 9 11
ENDBRANCH 6 7
BRANCH 6 17
ATOM     17  CB  TRP X   3     -25.577 -15.215  36.577  1.00 29.85 LIG 0.07  C 
BRANCH 17 18
ATOM     18  CG  TRP X   3     -27.056 -14.943  36.528  1.00 29.58 LIG-0.03  A 
ATOM     19  CD1 TRP X   3     -28.045 -15.718  37.072  1.00 26.84 LIG 0.10  A 
ATOM     20  NE1 TRP X   3     -29.267 -15.154  36.816  1.00 29.47 LIG-0.36  N 
ATOM     21 HE1  TRP X   3     -30.024 -15.479  37.063  1.00 29.47 LIG 0.17  HD
ATOM     22  CE2 TRP X   3     -29.099 -13.988  36.104  1.00 27.62 LIG 0.04  A 
ATOM     23  CZ2 TRP X   3     -30.062 -13.058  35.607  1.00 28.85 LIG 0.03  A 
ATOM     24  CD2 TRP X   3     -27.713 -13.821  35.900  1.00 25.33 LIG-0.00  A 
ATOM     25  CH2 TRP X   3     -29.586 -11.945  34.903  1.00 28.18 LIG 0.00  A 
ATOM     26  CZ3 TRP X   3     -28.208 -11.771  34.679  1.00 26.79 LIG 0.00  A 
ATOM     27  CE3 TRP X   3     -27.264 -12.714  35.162  1.00 25.86 LIG 0.01  A 
ENDBRANCH 17 18
ENDBRANCH 6 17
ENDBRANCH 3 6
ENDBRANCH 1 2
BRANCH 1 28
ATOM     28  CB  ARG X   4     -22.460 -15.407  40.309  1.00 29.55 LIG 0.04  C 
BRANCH 28 29
ATOM     29  CG  ARG X   4     -23.482 -16.517  40.078  1.00 28.17 LIG 0.02  C 
BRANCH 29 30
ATOM     30  CD  ARG X   4     -24.882 -16.048  40.502  1.00 27.09 LIG 0.14  C 
BRANCH 30 31
ATOM     31  NE  ARG X   4     -25.802 -17.183  40.506  1.00 25.46 LIG-0.23  N 
ATOM     32 HE   ARG X   4     -25.471 -17.976  40.479  1.00 25.46 LIG 0.18  HD
ATOM     33  CZ  ARG X   4     -27.129 -17.052  40.551  1.00 27.27 LIG 0.67  C 
ATOM     34  NH2 ARG X   4     -27.916 -18.124  40.560  1.00 24.12 LIG-0.23  N 
ATOM     35  NH1 ARG X   4     -27.664 -15.834  40.568  1.00 21.32 LIG-0.23  N 
ATOM     36 1HH2 ARG X   4     -27.571 -18.911  40.538  1.00 24.12 LIG 0.17  HD
ATOM     37 2HH2 ARG X   4     -28.771 -18.030  40.590  1.00 24.12 LIG 0.17  HD
ATOM     38 2HH1 ARG X   4     -28.518 -15.740  40.596  1.00 21.32 LIG 0.17  HD
ATOM     39 1HH1 ARG X   4     -27.155 -15.140  40.552  1.00 21.32 LIG 0.17  HD
ENDBRANCH 30 31
ENDBRANCH 29 30
ENDBRANCH 28 29
ENDBRANCH 1 28
BRANCH 1 40
ATOM     40  C   ARG X   4     -21.902 -13.017  39.939  1.00 30.38 LIG 0.24  C 
ATOM     41 O    ARG X   4     -21.787 -12.520  38.831  1.00 31.87 LIG-0.27  OA
ATOM     42  N   PRO X   5     -21.051 -12.763  40.947  1.00 30.60 LIG-0.34  N 
ATOM     43  CA  PRO X   5     -20.037 -11.691  40.831  1.00 31.31 LIG 0.18  C 
ATOM     44  CD  PRO X   5     -21.043 -13.427  42.279  1.00 29.99 LIG 0.13  C 
ATOM     45  CB  PRO X   5     -19.591 -11.482  42.281  1.00 30.70 LIG 0.04  C 
ATOM     46  CG  PRO X   5     -19.843 -12.849  42.984  1.00 29.42 LIG 0.02  C 
BRANCH 43 47
ATOM     47  C   PRO X   5     -18.790 -11.952  39.941  1.00 32.23 LIG 0.24  C 
ATOM     48 O    PRO X   5     -18.922 -12.499  38.804  1.00 32.23 LIG-0.27  OA
ATOM     49  N   TRP X   6     -17.614 -11.557  40.420  1.00 33.50 LIG-0.34  N 
ATOM     50 H    TRP X   6     -17.491 -11.259  41.218  1.00 33.50 LIG 0.16  HD
BRANCH 49 51
ATOM     51  CA  TRP X   6     -16.403 -11.607  39.590  1.00 34.66 LIG 0.19  C 
BRANCH 51 52
ATOM     52  CB  TRP X   6     -15.800 -10.193  39.458  1.00 34.41 LIG 0.08  C 
BRANCH 52 53
ATOM     53  CG  TRP X   6     -16.681  -9.204  38.717  1.00 32.39 LIG-0.03  A 
ATOM     54  CD2 TRP X   6     -17.180  -7.939  39.206  1.00 31.68 LIG-0.00  A 
ATOM     55  CE2 TRP X   6     -17.966  -7.382  38.177  1.00 33.29 LIG 0.04  A 
ATOM     56  CE3 TRP X   6     -17.027  -7.226  40.402  1.00 33.66 LIG 0.01  A 
ATOM     57  CZ2 TRP X   6     -18.580  -6.127  38.298  1.00 33.18 LIG 0.03  A 
ATOM     58  NE1 TRP X   6     -17.936  -8.256  37.118  1.00 30.87 LIG-0.36  N 
ATOM     59  CH2 TRP X   6     -18.417  -5.452  39.466  1.00 32.36 LIG 0.00  A 
ATOM     60  CZ3 TRP X   6     -17.660  -5.992  40.529  1.00 32.37 LIG 0.00  A 
ATOM     61 HE1  TRP X   6     -18.329  -8.138  36.362  1.00 30.87 LIG 0.17  HD
ATOM     62  CD1 TRP X   6     -17.178  -9.345  37.457  1.00 30.01 LIG 0.10  A 
ENDBRANCH 52 53
ENDBRANCH 51 52
BRANCH 51 63
ATOM     63  C   TRP X   6     -15.354 -12.609  40.112  1.00 36.76 LIG 0.20  C 
ATOM     64 O    TRP X   6     -15.610 -13.577  40.851  1.00 37.86 LIG-0.65  OA
ATOM     65 OXT  TRP X   6     -14.159 -12.476  39.821  1.00 39.11 LIG-0.65  OA
ENDBRANCH 51 63
ENDBRANCH 49 51
ENDBRANCH 43 47
ENDBRANCH 1 40
TORSDOF 19
ENDMDL
MODEL 29
USER: ADFR SOLUTION from run 118
USER: SCORE 18.907248 LL:  -4.545 LR: -14.500 RR:   0.000 FEB:  -8.832
USER: RMSD 6.029610
USER: SEED 117
USER: STATUS no improvement in best in 16 clusters for 5 generations
USER: GENES 21
USER: genes 0 Translation |==|  0.40985 0.43524 0.51844
USER: genes 1 Rotation |==|  0.69540 0.47320 0.66548 0.92862
USER: genes 2 Torsion [CB]-CA--N-[C] |==|  0.86556
USER: genes 3 Torsion [N]-C--CA-[N] |==|  0.37824
USER: genes 4 Torsion [C]-CA--N-[C] |==|  0.85550
USER: genes 5 Torsion [N]-C--CA-[N] |==|  0.97613
USER: genes 6 Torsion [C]-CA--CB-[CG] |==|  0.27359
USER: genes 7 Torsion [CA]-CB--CG-[SD] |==|  0.57465
USER: genes 8 Torsion [CB]-CG--SD-[CE] |==|  0.55443
USER: genes 9 Torsion [C]-CA--CB-[CG] |==|  0.24991
USER: genes 10 Torsion [CA]-CB--CG-[CD2] |==|  0.72783
USER: genes 11 Torsion [N]-CA--CB-[CG] |==|  0.74438
USER: genes 12 Torsion [CA]-CB--CG-[CD] |==|  0.85832
USER: genes 13 Torsion [CB]-CG--CD-[NE] |==|  0.31489
USER: genes 14 Torsion [CG]-CD--NE-[CZ] |==|  0.35555
USER: genes 15 Torsion [N]-CA--C-[N] |==|  0.36460
USER: genes 16 Torsion [N]-CA--C-[O] |==|  0.08069
USER: genes 17 Torsion [C]-N--CA-[CB] |==|  0.27737
USER: genes 18 Torsion [N]-CA--CB-[CG] |==|  0.92322
USER: genes 19 Torsion [CA]-CB--CG-[CD2] |==|  0.24844
USER: genes 20 Torsion [N]-CA--C-[O] |==|  0.06251
ROOT
ATOM      1  CA  ARG X   4     -23.258 -13.739  39.040  1.00 29.51 LIG 0.18  C 
ENDROOT
BRANCH 1 2
ATOM      2  N   ARG X   4     -23.639 -12.853  37.943  1.00 29.26 LIG-0.35  N 
ATOM      3  C   TRP X   3     -22.944 -12.767  36.794  1.00 30.37 LIG 0.24  C 
ATOM      4 O    TRP X   3     -21.933 -13.458  36.546  1.00 30.38 LIG-0.27  OA
ATOM      5 H    ARG X   4     -24.348 -12.392  38.100  1.00 29.26 LIG 0.16  HD
BRANCH 3 6
ATOM      6  CA  TRP X   3     -23.471 -11.761  35.750  1.00 30.62 LIG 0.18  C 
BRANCH 6 7
ATOM      7  N   TRP X   3     -22.393 -10.965  35.139  1.00 31.45 LIG-0.34  N 
ATOM      8 H    TRP X   3     -22.378 -10.955  34.280  1.00 31.45 LIG 0.16  HD
ATOM      9  C   MET X   2     -21.532 -10.329  35.933  1.00 32.92 LIG 0.26  C 
ATOM     10 O    MET X   2     -21.653 -10.312  37.143  1.00 32.35 LIG-0.27  OA
BRANCH 9 11
ATOM     11  CA  MET X   2     -20.397  -9.573  35.300  1.00 34.28 LIG 0.40  C 
ATOM     12  N   MET X   2     -20.308  -9.841  33.811  1.00 35.36 LIG 0.61  N 
BRANCH 11 13
ATOM     13  CB  MET X   2     -20.600  -8.088  35.554  1.00 35.71 LIG 0.06  C 
BRANCH 13 14
ATOM     14  CG  MET X   2     -19.807  -7.534  36.706  1.00 37.62 LIG 0.08  C 
BRANCH 14 15
ATOM     15 SD   MET X   2     -20.470  -6.078  37.560  1.00 39.06 LIG-0.17  SA
ATOM     16  CE  MET X   2     -18.978  -5.447  38.388  1.00 45.88 LIG 0.09  C 
ENDBRANCH 14 15
ENDBRANCH 13 14
ENDBRANCH 11 13
ENDBRANCH 9 11
ENDBRANCH 6 7
BRANCH 6 17
ATOM     17  CB  TRP X   3     -24.343 -12.459  34.705  1.00 29.85 LIG 0.07  C 
BRANCH 17 18
ATOM     18  CG  TRP X   3     -25.795 -12.495  35.100  1.00 29.58 LIG-0.03  A 
ATOM     19  CD1 TRP X   3     -26.707 -11.487  34.940  1.00 26.84 LIG 0.10  A 
ATOM     20  NE1 TRP X   3     -27.925 -11.883  35.427  1.00 29.47 LIG-0.36  N 
ATOM     21 HE1  TRP X   3     -28.638 -11.402  35.431  1.00 29.47 LIG 0.17  HD
ATOM     22  CE2 TRP X   3     -27.833 -13.171  35.907  1.00 27.62 LIG 0.04  A 
ATOM     23  CZ2 TRP X   3     -28.822 -14.009  36.507  1.00 28.85 LIG 0.03  A 
ATOM     24  CD2 TRP X   3     -26.500 -13.591  35.719  1.00 25.33 LIG-0.00  A 
ATOM     25  CH2 TRP X   3     -28.429 -15.292  36.907  1.00 28.18 LIG 0.00  A 
ATOM     26  CZ3 TRP X   3     -27.100 -15.722  36.739  1.00 26.79 LIG 0.00  A 
ATOM     27  CE3 TRP X   3     -26.124 -14.871  36.159  1.00 25.86 LIG 0.01  A 
ENDBRANCH 17 18
ENDBRANCH 6 17
ENDBRANCH 3 6
ENDBRANCH 1 2
BRANCH 1 28
ATOM     28  CB  ARG X   4     -22.963 -15.168  38.539  1.00 29.55 LIG 0.04  C 
BRANCH 28 29
ATOM     29  CG  ARG X   4     -24.165 -16.108  38.568  1.00 28.17 LIG 0.02  C 
BRANCH 29 30
ATOM     30  CD  ARG X   4     -24.833 -16.077  39.952  1.00 27.09 LIG 0.14  C 
BRANCH 30 31
ATOM     31  NE  ARG X   4     -26.164 -15.486  39.844  1.00 25.46 LIG-0.23  N 
ATOM     32 HE   ARG X   4     -26.241 -14.723  39.455  1.00 25.46 LIG 0.18  HD
ATOM     33  CZ  ARG X   4     -27.266 -16.070  40.317  1.00 27.27 LIG 0.67  C 
ATOM     34  NH2 ARG X   4     -28.454 -15.487  40.182  1.00 24.12 LIG-0.23  N 
ATOM     35  NH1 ARG X   4     -27.167 -17.240  40.944  1.00 21.32 LIG-0.23  N 
ATOM     36 1HH2 ARG X   4     -28.517 -14.726  39.787  1.00 24.12 LIG 0.17  HD
ATOM     37 2HH2 ARG X   4     -29.160 -15.871  40.490  1.00 24.12 LIG 0.17  HD
ATOM     38 2HH1 ARG X   4     -27.873 -17.622  41.253  1.00 21.32 LIG 0.17  HD
ATOM     39 1HH1 ARG X   4     -26.399 -17.612  41.041  1.00 21.32 LIG 0.17  HD
ENDBRANCH 30 31
ENDBRANCH 29 30
ENDBRANCH 28 29
ENDBRANCH 1 28
BRANCH 1 40
ATOM     40  C   ARG X   4     -22.012 -13.175  39.672  1.00 30.38 LIG 0.24  C 
ATOM     41 O    ARG X   4     -21.072 -12.869  38.958  1.00 31.87 LIG-0.27  OA
ATOM     42  N   PRO X   5     -21.986 -13.053  41.009  1.00 30.60 LIG-0.34  N 
ATOM     43  CA  PRO X   5     -20.881 -12.335  41.683  1.00 31.31 LIG 0.18  C 
ATOM     44  CD  PRO X   5     -23.032 -13.528  41.956  1.00 29.99 LIG 0.13  C 
ATOM     45  CB  PRO X   5     -21.439 -12.088  43.089  1.00 30.70 LIG 0.04  C 
ATOM     46  CG  PRO X   5     -22.469 -13.233  43.322  1.00 29.42 LIG 0.02  C 
BRANCH 43 47
ATOM     47  C   PRO X   5     -19.502 -13.043  41.793  1.00 32.23 LIG 0.24  C 
ATOM     48 O    PRO X   5     -19.146 -13.884  40.914  1.00 32.23 LIG-0.27  OA
ATOM     49  N   TRP X   6     -18.732 -12.707  42.824  1.00 33.50 LIG-0.34  N 
ATOM     50 H    TRP X   6     -18.985 -12.202  43.474  1.00 33.50 LIG 0.16  HD
BRANCH 49 51
ATOM     51  CA  TRP X   6     -17.350 -13.193  42.927  1.00 34.66 LIG 0.19  C 
BRANCH 51 52
ATOM     52  CB  TRP X   6     -16.373 -12.094  42.462  1.00 34.41 LIG 0.08  C 
BRANCH 52 53
ATOM     53  CG  TRP X   6     -16.956 -11.127  41.448  1.00 32.39 LIG-0.03  A 
ATOM     54  CD2 TRP X   6     -17.660  -9.895  41.718  1.00 31.68 LIG-0.00  A 
ATOM     55  CE2 TRP X   6     -18.028  -9.349  40.472  1.00 33.29 LIG 0.04  A 
ATOM     56  CE3 TRP X   6     -17.999  -9.201  42.887  1.00 33.66 LIG 0.01  A 
ATOM     57  CZ2 TRP X   6     -18.699  -8.123  40.359  1.00 33.18 LIG 0.03  A 
ATOM     58  NE1 TRP X   6     -17.562 -10.198  39.498  1.00 30.87 LIG-0.36  N 
ATOM     59  CH2 TRP X   6     -19.018  -7.467  41.505  1.00 32.36 LIG 0.00  A 
ATOM     60  CZ3 TRP X   6     -18.691  -7.997  42.772  1.00 32.37 LIG 0.00  A 
ATOM     61 HE1  TRP X   6     -17.648 -10.081  38.650  1.00 30.87 LIG 0.17  HD
ATOM     62  CD1 TRP X   6     -16.938 -11.262  40.093  1.00 30.01 LIG 0.10  A 
ENDBRANCH 52 53
ENDBRANCH 51 52
BRANCH 51 63
ATOM     63  C   TRP X   6     -16.989 -13.692  44.341  1.00 36.76 LIG 0.20  C 
ATOM     64 O    TRP X   6     -17.818 -14.070  45.188  1.00 37.86 LIG-0.65  OA
ATOM     65 OXT  TRP X   6     -15.810 -13.719  44.715  1.00 39.11 LIG-0.65  OA
ENDBRANCH 51 63
ENDBRANCH 49 51
ENDBRANCH 43 47
ENDBRANCH 1 40
TORSDOF 19
ENDMDL
MODEL 30
USER: ADFR SOLUTION from run 141
USER: SCORE 17.321999 LL:  -4.693 LR: -14.494 RR:   0.000 FEB:  -8.827
USER: RMSD 7.672810
USER: SEED 140
USER: STATUS no improvement in best in 12 clusters for 5 generations
USER: GENES 21
USER: genes 0 Translation |==|  0.60755 0.68855 0.66442
USER: genes 1 Rotation |==|  0.14863 0.65545 0.43700 0.81369
USER: genes 2 Torsion [CB]-CA--N-[C] |==|  0.44987
USER: genes 3 Torsion [N]-C--CA-[N] |==|  0.55392
USER: genes 4 Torsion [C]-CA--N-[C] |==|  0.61320
USER: genes 5 Torsion [N]-C--CA-[N] |==|  0.44564
USER: genes 6 Torsion [C]-CA--CB-[CG] |==|  0.15539
USER: genes 7 Torsion [CA]-CB--CG-[SD] |==|  0.53521
USER: genes 8 Torsion [CB]-CG--SD-[CE] |==|  0.02791
USER: genes 9 Torsion [C]-CA--CB-[CG] |==|  0.60219
USER: genes 10 Torsion [CA]-CB--CG-[CD2] |==|  0.22633
USER: genes 11 Torsion [N]-CA--CB-[CG] |==|  0.76922
USER: genes 12 Torsion [CA]-CB--CG-[CD] |==|  0.62613
USER: genes 13 Torsion [CB]-CG--CD-[NE] |==|  0.23501
USER: genes 14 Torsion [CG]-CD--NE-[CZ] |==|  0.19336
USER: genes 15 Torsion [N]-CA--C-[N] |==|  0.90500
USER: genes 16 Torsion [N]-CA--C-[O] |==|  0.65132
USER: genes 17 Torsion [C]-N--CA-[CB] |==|  0.49331
USER: genes 18 Torsion [N]-CA--CB-[CG] |==|  0.84723
USER: genes 19 Torsion [CA]-CB--CG-[CD2] |==|  0.29231
USER: genes 20 Torsion [N]-CA--C-[O] |==|  0.34779
ROOT
ATOM      1  CA  ARG X   4     -19.106  -8.799  41.777  1.00 29.51 LIG 0.18  C 
ENDROOT
BRANCH 1 2
ATOM      2  N   ARG X   4     -20.080  -9.831  42.124  1.00 29.26 LIG-0.35  N 
ATOM      3  C   TRP X   3     -20.684 -10.607  41.206  1.00 30.37 LIG 0.24  C 
ATOM      4 O    TRP X   3     -20.446 -10.541  39.981  1.00 30.38 LIG-0.27  OA
ATOM      5 H    ARG X   4     -20.229  -9.897  42.968  1.00 29.26 LIG 0.16  HD
BRANCH 3 6
ATOM      6  CA  TRP X   3     -21.706 -11.631  41.743  1.00 30.62 LIG 0.18  C 
BRANCH 6 7
ATOM      7  N   TRP X   3     -21.974 -12.717  40.785  1.00 31.45 LIG-0.34  N 
ATOM      8 H    TRP X   3     -21.288 -13.020  40.363  1.00 31.45 LIG 0.16  HD
ATOM      9  C   MET X   2     -23.225 -13.149  40.634  1.00 32.92 LIG 0.26  C 
ATOM     10 O    MET X   2     -24.142 -12.739  41.319  1.00 32.35 LIG-0.27  OA
BRANCH 9 11
ATOM     11  CA  MET X   2     -23.497 -14.212  39.607  1.00 34.28 LIG 0.40  C 
ATOM     12  N   MET X   2     -24.811 -14.922  39.872  1.00 35.36 LIG 0.61  N 
BRANCH 11 13
ATOM     13  CB  MET X   2     -23.520 -13.566  38.231  1.00 35.71 LIG 0.06  C 
BRANCH 13 14
ATOM     14  CG  MET X   2     -22.273 -12.802  37.876  1.00 37.62 LIG 0.08  C 
BRANCH 14 15
ATOM     15 SD   MET X   2     -22.338 -11.715  36.426  1.00 39.06 LIG-0.17  SA
ATOM     16  CE  MET X   2     -24.121 -11.726  36.059  1.00 45.88 LIG 0.09  C 
ENDBRANCH 14 15
ENDBRANCH 13 14
ENDBRANCH 11 13
ENDBRANCH 9 11
ENDBRANCH 6 7
BRANCH 6 17
ATOM     17  CB  TRP X   3     -21.286 -12.158  43.117  1.00 29.85 LIG 0.07  C 
BRANCH 17 18
ATOM     18  CG  TRP X   3     -21.612 -13.617  43.296  1.00 29.58 LIG-0.03  A 
ATOM     19  CD1 TRP X   3     -22.701 -14.133  43.944  1.00 26.84 LIG 0.10  A 
ATOM     20  NE1 TRP X   3     -22.653 -15.502  43.910  1.00 29.47 LIG-0.36  N 
ATOM     21 HE1  TRP X   3     -23.235 -16.028  44.262  1.00 29.47 LIG 0.17  HD
ATOM     22  CE2 TRP X   3     -21.530 -15.908  43.225  1.00 27.62 LIG 0.04  A 
ATOM     23  CZ2 TRP X   3     -21.048 -17.219  42.929  1.00 28.85 LIG 0.03  A 
ATOM     24  CD2 TRP X   3     -20.844 -14.743  42.821  1.00 25.33 LIG-0.00  A 
ATOM     25  CH2 TRP X   3     -19.853 -17.324  42.204  1.00 28.18 LIG 0.00  A 
ATOM     26  CZ3 TRP X   3     -19.151 -16.172  41.807  1.00 26.79 LIG 0.00  A 
ATOM     27  CE3 TRP X   3     -19.632 -14.876  42.125  1.00 25.86 LIG 0.01  A 
ENDBRANCH 17 18
ENDBRANCH 6 17
ENDBRANCH 3 6
ENDBRANCH 1 2
BRANCH 1 28
ATOM     28  CB  ARG X   4     -18.915  -7.788  42.927  1.00 29.55 LIG 0.04  C 
BRANCH 28 29
ATOM     29  CG  ARG X   4     -19.961  -6.677  42.972  1.00 28.17 LIG 0.02  C 
BRANCH 29 30
ATOM     30  CD  ARG X   4     -19.283  -5.316  43.194  1.00 27.09 LIG 0.14  C 
BRANCH 30 31
ATOM     31  NE  ARG X   4     -18.835  -4.774  41.914  1.00 25.46 LIG-0.23  N 
ATOM     32 HE   ARG X   4     -17.990  -4.734  41.762  1.00 25.46 LIG 0.18  HD
ATOM     33  CZ  ARG X   4     -19.670  -4.337  40.970  1.00 27.27 LIG 0.67  C 
ATOM     34  NH2 ARG X   4     -19.203  -3.861  39.819  1.00 24.12 LIG-0.23  N 
ATOM     35  NH1 ARG X   4     -20.982  -4.366  41.194  1.00 21.32 LIG-0.23  N 
ATOM     36 1HH2 ARG X   4     -18.356  -3.832  39.678  1.00 24.12 LIG 0.17  HD
ATOM     37 2HH2 ARG X   4     -19.749  -3.582  39.215  1.00 24.12 LIG 0.17  HD
ATOM     38 2HH1 ARG X   4     -21.527  -4.086  40.591  1.00 21.32 LIG 0.17  HD
ATOM     39 1HH1 ARG X   4     -21.284  -4.665  41.942  1.00 21.32 LIG 0.17  HD
ENDBRANCH 30 31
ENDBRANCH 29 30
ENDBRANCH 28 29
ENDBRANCH 1 28
BRANCH 1 40
ATOM     40  C   ARG X   4     -17.792  -9.483  41.503  1.00 30.38 LIG 0.24  C 
ATOM     41 O    ARG X   4     -17.060  -9.034  40.635  1.00 31.87 LIG-0.27  OA
ATOM     42  N   PRO X   5     -17.491 -10.577  42.219  1.00 30.60 LIG-0.34  N 
ATOM     43  CA  PRO X   5     -16.144 -11.187  42.144  1.00 31.31 LIG 0.18  C 
ATOM     44  CD  PRO X   5     -18.383 -11.263  43.194  1.00 29.99 LIG 0.13  C 
ATOM     45  CB  PRO X   5     -16.114 -12.107  43.368  1.00 30.70 LIG 0.04  C 
ATOM     46  CG  PRO X   5     -17.604 -12.475  43.635  1.00 29.42 LIG 0.02  C 
BRANCH 43 47
ATOM     47  C   PRO X   5     -15.779 -12.006  40.875  1.00 32.23 LIG 0.24  C 
ATOM     48 O    PRO X   5     -15.365 -13.200  40.983  1.00 32.23 LIG-0.27  OA
ATOM     49  N   TRP X   6     -15.943 -11.404  39.700  1.00 33.50 LIG-0.34  N 
ATOM     50 H    TRP X   6     -16.144 -10.572  39.606  1.00 33.50 LIG 0.16  HD
BRANCH 49 51
ATOM     51  CA  TRP X   6     -15.785 -12.144  38.441  1.00 34.66 LIG 0.19  C 
BRANCH 51 52
ATOM     52  CB  TRP X   6     -16.090 -11.216  37.247  1.00 34.41 LIG 0.08  C 
BRANCH 52 53
ATOM     53  CG  TRP X   6     -17.451 -10.547  37.306  1.00 32.39 LIG-0.03  A 
ATOM     54  CD2 TRP X   6     -17.736  -9.168  37.630  1.00 31.68 LIG-0.00  A 
ATOM     55  CE2 TRP X   6     -19.136  -9.014  37.577  1.00 33.29 LIG 0.04  A 
ATOM     56  CE3 TRP X   6     -16.945  -8.056  37.944  1.00 33.66 LIG 0.01  A 
ATOM     57  CZ2 TRP X   6     -19.764  -7.781  37.802  1.00 33.18 LIG 0.03  A 
ATOM     58  NE1 TRP X   6     -19.671 -10.231  37.228  1.00 30.87 LIG-0.36  N 
ATOM     59  CH2 TRP X   6     -18.977  -6.715  38.104  1.00 32.36 LIG 0.00  A 
ATOM     60  CZ3 TRP X   6     -17.573  -6.839  38.194  1.00 32.37 LIG 0.00  A 
ATOM     61 HE1  TRP X   6     -20.508 -10.395  37.118  1.00 30.87 LIG 0.17  HD
ATOM     62  CD1 TRP X   6     -18.657 -11.140  37.084  1.00 30.01 LIG 0.10  A 
ENDBRANCH 52 53
ENDBRANCH 51 52
BRANCH 51 63
ATOM     63  C   TRP X   6     -14.395 -12.795  38.294  1.00 36.76 LIG 0.20  C 
ATOM     64 O    TRP X   6     -14.202 -14.004  38.072  1.00 37.86 LIG-0.65  OA
ATOM     65 OXT  TRP X   6     -13.368 -12.116  38.415  1.00 39.11 LIG-0.65  OA
ENDBRANCH 51 63
ENDBRANCH 49 51
ENDBRANCH 43 47
ENDBRANCH 1 40
TORSDOF 19
ENDMDL
MODEL 31
USER: ADFR SOLUTION from run 118
USER: SCORE 18.403148 LL:  -4.551 LR: -14.482 RR:   0.000 FEB:  -8.814
USER: RMSD 5.816439
USER: SEED 117
USER: STATUS no improvement in best in 16 clusters for 5 generations
USER: GENES 21
USER: genes 0 Translation |==|  0.42436 0.44631 0.54979
USER: genes 1 Rotation |==|  0.66556 0.54361 0.64491 0.94687
USER: genes 2 Torsion [CB]-CA--N-[C] |==|  0.84588
USER: genes 3 Torsion [N]-C--CA-[N] |==|  0.40555
USER: genes 4 Torsion [C]-CA--N-[C] |==|  0.83635
USER: genes 5 Torsion [N]-C--CA-[N] |==|  0.66047
USER: genes 6 Torsion [C]-CA--CB-[CG] |==|  0.73918
USER: genes 7 Torsion [CA]-CB--CG-[SD] |==|  0.20178
USER: genes 8 Torsion [CB]-CG--SD-[CE] |==|  0.23872
USER: genes 9 Torsion [C]-CA--CB-[CG] |==|  0.45338
USER: genes 10 Torsion [CA]-CB--CG-[CD2] |==|  0.22414
USER: genes 11 Torsion [N]-CA--CB-[CG] |==|  0.85659
USER: genes 12 Torsion [CA]-CB--CG-[CD] |==|  0.77996
USER: genes 13 Torsion [CB]-CG--CD-[NE] |==|  0.33674
USER: genes 14 Torsion [CG]-CD--NE-[CZ] |==|  0.39140
USER: genes 15 Torsion [N]-CA--C-[N] |==|  0.46998
USER: genes 16 Torsion [N]-CA--C-[O] |==|  0.90500
USER: genes 17 Torsion [C]-N--CA-[CB] |==|  0.42222
USER: genes 18 Torsion [N]-CA--CB-[CG] |==|  0.89962
USER: genes 19 Torsion [CA]-CB--CG-[CD2] |==|  0.34722
USER: genes 20 Torsion [N]-CA--C-[O] |==|  0.59035
ROOT
ATOM      1  CA  ARG X   4     -22.953 -13.523  39.628  1.00 29.51 LIG 0.18  C 
ENDROOT
BRANCH 1 2
ATOM      2  N   ARG X   4     -23.611 -12.890  38.488  1.00 29.26 LIG-0.35  N 
ATOM      3  C   TRP X   3     -23.128 -12.956  37.233  1.00 30.37 LIG 0.24  C 
ATOM      4 O    TRP X   3     -22.096 -13.589  36.923  1.00 30.38 LIG-0.27  OA
ATOM      5 H    ARG X   4     -24.335 -12.473  38.692  1.00 29.26 LIG 0.16  HD
BRANCH 3 6
ATOM      6  CA  TRP X   3     -23.934 -12.209  36.151  1.00 30.62 LIG 0.18  C 
BRANCH 6 7
ATOM      7  N   TRP X   3     -23.074 -11.639  35.099  1.00 31.45 LIG-0.34  N 
ATOM      8 H    TRP X   3     -23.233 -11.912  34.300  1.00 31.45 LIG 0.16  HD
ATOM      9  C   MET X   2     -22.132 -10.763  35.443  1.00 32.92 LIG 0.26  C 
ATOM     10 O    MET X   2     -22.009 -10.351  36.581  1.00 32.35 LIG-0.27  OA
BRANCH 9 11
ATOM     11  CA  MET X   2     -21.217 -10.236  34.372  1.00 34.28 LIG 0.40  C 
ATOM     12  N   MET X   2     -19.762 -10.517  34.692  1.00 35.36 LIG 0.61  N 
BRANCH 11 13
ATOM     13  CB  MET X   2     -21.596 -10.880  33.048  1.00 35.71 LIG 0.06  C 
BRANCH 13 14
ATOM     14  CG  MET X   2     -20.811 -12.117  32.704  1.00 37.62 LIG 0.08  C 
BRANCH 14 15
ATOM     15 SD   MET X   2     -21.172 -13.628  33.640  1.00 39.06 LIG-0.17  SA
ATOM     16  CE  MET X   2     -22.565 -14.308  32.686  1.00 45.88 LIG 0.09  C 
ENDBRANCH 14 15
ENDBRANCH 13 14
ENDBRANCH 11 13
ENDBRANCH 9 11
ENDBRANCH 6 7
BRANCH 6 17
ATOM     17  CB  TRP X   3     -25.041 -13.097  35.579  1.00 29.85 LIG 0.07  C 
BRANCH 17 18
ATOM     18  CG  TRP X   3     -26.085 -12.307  34.836  1.00 29.58 LIG-0.03  A 
ATOM     19  CD1 TRP X   3     -27.304 -11.915  35.318  1.00 26.84 LIG 0.10  A 
ATOM     20  NE1 TRP X   3     -27.982 -11.220  34.351  1.00 29.47 LIG-0.36  N 
ATOM     21 HE1  TRP X   3     -28.770 -10.888  34.439  1.00 29.47 LIG 0.17  HD
ATOM     22  CE2 TRP X   3     -27.209 -11.136  33.215  1.00 27.62 LIG 0.04  A 
ATOM     23  CZ2 TRP X   3     -27.477 -10.521  31.954  1.00 28.85 LIG 0.03  A 
ATOM     24  CD2 TRP X   3     -26.001 -11.814  33.482  1.00 25.33 LIG-0.00  A 
ATOM     25  CH2 TRP X   3     -26.484 -10.601  30.968  1.00 28.18 LIG 0.00  A 
ATOM     26  CZ3 TRP X   3     -25.280 -11.284  31.215  1.00 26.79 LIG 0.00  A 
ATOM     27  CE3 TRP X   3     -25.036 -11.908  32.466  1.00 25.86 LIG 0.01  A 
ENDBRANCH 17 18
ENDBRANCH 6 17
ENDBRANCH 3 6
ENDBRANCH 1 2
BRANCH 1 28
ATOM     28  CB  ARG X   4     -22.734 -15.032  39.392  1.00 29.55 LIG 0.04  C 
BRANCH 28 29
ATOM     29  CG  ARG X   4     -23.985 -15.793  38.963  1.00 28.17 LIG 0.02  C 
BRANCH 29 30
ATOM     30  CD  ARG X   4     -24.874 -16.087  40.181  1.00 27.09 LIG 0.14  C 
BRANCH 30 31
ATOM     31  NE  ARG X   4     -26.193 -15.491  39.985  1.00 25.46 LIG-0.23  N 
ATOM     32 HE   ARG X   4     -26.239 -14.717  39.614  1.00 25.46 LIG 0.18  HD
ATOM     33  CZ  ARG X   4     -27.329 -16.087  40.351  1.00 27.27 LIG 0.67  C 
ATOM     34  NH2 ARG X   4     -28.503 -15.498  40.138  1.00 24.12 LIG-0.23  N 
ATOM     35  NH1 ARG X   4     -27.280 -17.274  40.950  1.00 21.32 LIG-0.23  N 
ATOM     36 1HH2 ARG X   4     -28.535 -14.726  39.762  1.00 24.12 LIG 0.17  HD
ATOM     37 2HH2 ARG X   4     -29.231 -15.890  40.378  1.00 24.12 LIG 0.17  HD
ATOM     38 2HH1 ARG X   4     -28.007 -17.665  41.189  1.00 21.32 LIG 0.17  HD
ATOM     39 1HH1 ARG X   4     -26.521 -17.651  41.096  1.00 21.32 LIG 0.17  HD
ENDBRANCH 30 31
ENDBRANCH 29 30
ENDBRANCH 28 29
ENDBRANCH 1 28
BRANCH 1 40
ATOM     40  C   ARG X   4     -21.614 -12.857  39.812  1.00 30.38 LIG 0.24  C 
ATOM     41 O    ARG X   4     -21.194 -12.118  38.935  1.00 31.87 LIG-0.27  OA
ATOM     42  N   PRO X   5     -20.928 -13.124  40.934  1.00 30.60 LIG-0.34  N 
ATOM     43  CA  PRO X   5     -19.704 -12.365  41.274  1.00 31.31 LIG 0.18  C 
ATOM     44  CD  PRO X   5     -21.307 -14.112  41.982  1.00 29.99 LIG 0.13  C 
ATOM     45  CB  PRO X   5     -19.496 -12.692  42.755  1.00 30.70 LIG 0.04  C 
ATOM     46  CG  PRO X   5     -20.160 -14.086  42.960  1.00 29.42 LIG 0.02  C 
BRANCH 43 47
ATOM     47  C   PRO X   5     -18.401 -12.682  40.488  1.00 32.23 LIG 0.24  C 
ATOM     48 O    PRO X   5     -18.161 -13.866  40.103  1.00 32.23 LIG-0.27  OA
ATOM     49  N   TRP X   6     -17.587 -11.662  40.233  1.00 33.50 LIG-0.34  N 
ATOM     50 H    TRP X   6     -17.689 -10.869  40.552  1.00 33.50 LIG 0.16  HD
BRANCH 49 51
ATOM     51  CA  TRP X   6     -16.418 -11.826  39.358  1.00 34.66 LIG 0.19  C 
BRANCH 51 52
ATOM     52  CB  TRP X   6     -16.080 -10.483  38.679  1.00 34.41 LIG 0.08  C 
BRANCH 52 53
ATOM     53  CG  TRP X   6     -17.291  -9.646  38.311  1.00 32.39 LIG-0.03  A 
ATOM     54  CD2 TRP X   6     -17.561  -8.279  38.695  1.00 31.68 LIG-0.00  A 
ATOM     55  CE2 TRP X   6     -18.808  -7.932  38.137  1.00 33.29 LIG 0.04  A 
ATOM     56  CE3 TRP X   6     -16.865  -7.320  39.443  1.00 33.66 LIG 0.01  A 
ATOM     57  CZ2 TRP X   6     -19.364  -6.654  38.281  1.00 33.18 LIG 0.03  A 
ATOM     58  NE1 TRP X   6     -19.264  -9.026  37.441  1.00 30.87 LIG-0.36  N 
ATOM     59  CH2 TRP X   6     -18.672  -5.739  39.008  1.00 32.36 LIG 0.00  A 
ATOM     60  CZ3 TRP X   6     -17.434  -6.060  39.607  1.00 32.37 LIG 0.00  A 
ATOM     61 HE1  TRP X   6     -20.001  -9.064  36.998  1.00 30.87 LIG 0.17  HD
ATOM     62  CD1 TRP X   6     -18.358 -10.045  37.565  1.00 30.01 LIG 0.10  A 
ENDBRANCH 52 53
ENDBRANCH 51 52
BRANCH 51 63
ATOM     63  C   TRP X   6     -15.190 -12.398  40.093  1.00 36.76 LIG 0.20  C 
ATOM     64 O    TRP X   6     -14.009 -12.117  39.819  1.00 37.86 LIG-0.65  OA
ATOM     65 OXT  TRP X   6     -15.333 -13.211  41.014  1.00 39.11 LIG-0.65  OA
ENDBRANCH 51 63
ENDBRANCH 49 51
ENDBRANCH 43 47
ENDBRANCH 1 40
TORSDOF 19
ENDMDL
MODEL 32
USER: ADFR SOLUTION from run 118
USER: SCORE 18.806720 LL:  -5.180 LR: -14.438 RR:   0.000 FEB:  -8.771
USER: RMSD 6.505406
USER: SEED 117
USER: STATUS no improvement in best in 16 clusters for 5 generations
USER: GENES 21
USER: genes 0 Translation |==|  0.41519 0.45288 0.51556
USER: genes 1 Rotation |==|  0.67483 0.50807 0.64311 0.94597
USER: genes 2 Torsion [CB]-CA--N-[C] |==|  0.84167
USER: genes 3 Torsion [N]-C--CA-[N] |==|  0.37998
USER: genes 4 Torsion [C]-CA--N-[C] |==|  0.86667
USER: genes 5 Torsion [N]-C--CA-[N] |==|  0.37678
USER: genes 6 Torsion [C]-CA--CB-[CG] |==|  0.61580
USER: genes 7 Torsion [CA]-CB--CG-[SD] |==|  0.60251
USER: genes 8 Torsion [CB]-CG--SD-[CE] |==|  0.74877
USER: genes 9 Torsion [C]-CA--CB-[CG] |==|  0.27296
USER: genes 10 Torsion [CA]-CB--CG-[CD2] |==|  0.68958
USER: genes 11 Torsion [N]-CA--CB-[CG] |==|  0.81956
USER: genes 12 Torsion [CA]-CB--CG-[CD] |==|  0.78780
USER: genes 13 Torsion [CB]-CG--CD-[NE] |==|  0.36424
USER: genes 14 Torsion [CG]-CD--NE-[CZ] |==|  0.40126
USER: genes 15 Torsion [N]-CA--C-[N] |==|  0.48679
USER: genes 16 Torsion [N]-CA--C-[O] |==|  0.91927
USER: genes 17 Torsion [C]-N--CA-[CB] |==|  0.38191
USER: genes 18 Torsion [N]-CA--CB-[CG] |==|  0.91013
USER: genes 19 Torsion [CA]-CB--CG-[CD2] |==|  0.38673
USER: genes 20 Torsion [N]-CA--C-[O] |==|  0.59765
ROOT
ATOM      1  CA  ARG X   4     -23.146 -13.395  38.986  1.00 29.51 LIG 0.18  C 
ENDROOT
BRANCH 1 2
ATOM      2  N   ARG X   4     -23.634 -12.644  37.832  1.00 29.26 LIG-0.35  N 
ATOM      3  C   TRP X   3     -22.997 -12.625  36.647  1.00 30.37 LIG 0.24  C 
ATOM      4 O    TRP X   3     -21.954 -13.271  36.413  1.00 30.38 LIG-0.27  OA
ATOM      5 H    ARG X   4     -24.366 -12.217  37.981  1.00 29.26 LIG 0.16  HD
BRANCH 3 6
ATOM      6  CA  TRP X   3     -23.638 -11.759  35.542  1.00 30.62 LIG 0.18  C 
BRANCH 6 7
ATOM      7  N   TRP X   3     -22.642 -10.969  34.796  1.00 31.45 LIG-0.34  N 
ATOM      8 H    TRP X   3     -22.706 -11.002  33.940  1.00 31.45 LIG 0.16  HD
ATOM      9  C   MET X   2     -21.732 -10.274  35.476  1.00 32.92 LIG 0.26  C 
ATOM     10 O    MET X   2     -21.743 -10.198  36.690  1.00 32.35 LIG-0.27  OA
BRANCH 9 11
ATOM     11  CA  MET X   2     -20.681  -9.524  34.706  1.00 34.28 LIG 0.40  C 
ATOM     12  N   MET X   2     -20.474  -8.127  35.258  1.00 35.36 LIG 0.61  N 
BRANCH 11 13
ATOM     13  CB  MET X   2     -19.380 -10.308  34.766  1.00 35.71 LIG 0.06  C 
BRANCH 13 14
ATOM     14  CG  MET X   2     -18.150  -9.468  34.982  1.00 37.62 LIG 0.08  C 
BRANCH 14 15
ATOM     15 SD   MET X   2     -16.634  -9.962  34.119  1.00 39.06 LIG-0.17  SA
ATOM     16  CE  MET X   2     -15.877 -11.073  35.347  1.00 45.88 LIG 0.09  C 
ENDBRANCH 14 15
ENDBRANCH 13 14
ENDBRANCH 11 13
ENDBRANCH 9 11
ENDBRANCH 6 7
BRANCH 6 17
ATOM     17  CB  TRP X   3     -24.517 -12.606  34.620  1.00 29.85 LIG 0.07  C 
BRANCH 17 18
ATOM     18  CG  TRP X   3     -25.975 -12.522  34.982  1.00 29.58 LIG-0.03  A 
ATOM     19  CD1 TRP X   3     -26.783 -11.425  34.855  1.00 26.84 LIG 0.10  A 
ATOM     20  NE1 TRP X   3     -28.046 -11.727  35.295  1.00 29.47 LIG-0.36  N 
ATOM     21 HE1  TRP X   3     -28.710 -11.181  35.309  1.00 29.47 LIG 0.17  HD
ATOM     22  CE2 TRP X   3     -28.089 -13.039  35.709  1.00 27.62 LIG 0.04  A 
ATOM     23  CZ2 TRP X   3     -29.167 -13.808  36.243  1.00 28.85 LIG 0.03  A 
ATOM     24  CD2 TRP X   3     -26.797 -13.576  35.528  1.00 25.33 LIG-0.00  A 
ATOM     25  CH2 TRP X   3     -28.908 -15.141  36.585  1.00 28.18 LIG 0.00  A 
ATOM     26  CZ3 TRP X   3     -27.621 -15.688  36.423  1.00 26.79 LIG 0.00  A 
ATOM     27  CE3 TRP X   3     -26.554 -14.906  35.909  1.00 25.86 LIG 0.01  A 
ENDBRANCH 17 18
ENDBRANCH 6 17
ENDBRANCH 3 6
ENDBRANCH 1 2
BRANCH 1 28
ATOM     28  CB  ARG X   4     -22.978 -14.894  38.659  1.00 29.55 LIG 0.04  C 
BRANCH 28 29
ATOM     29  CG  ARG X   4     -24.282 -15.620  38.341  1.00 28.17 LIG 0.02  C 
BRANCH 29 30
ATOM     30  CD  ARG X   4     -25.066 -15.899  39.633  1.00 27.09 LIG 0.14  C 
BRANCH 30 31
ATOM     31  NE  ARG X   4     -26.454 -15.476  39.468  1.00 25.46 LIG-0.23  N 
ATOM     32 HE   ARG X   4     -26.614 -14.775  38.996  1.00 25.46 LIG 0.18  HD
ATOM     33  CZ  ARG X   4     -27.487 -16.122  40.011  1.00 27.27 LIG 0.67  C 
ATOM     34  NH2 ARG X   4     -28.732 -15.694  39.819  1.00 24.12 LIG-0.23  N 
ATOM     35  NH1 ARG X   4     -27.262 -17.195  40.766  1.00 21.32 LIG-0.23  N 
ATOM     36 1HH2 ARG X   4     -28.877 -14.995  39.341  1.00 24.12 LIG 0.17  HD
ATOM     37 2HH2 ARG X   4     -29.392 -16.117  40.173  1.00 24.12 LIG 0.17  HD
ATOM     38 2HH1 ARG X   4     -27.922 -17.617  41.121  1.00 21.32 LIG 0.17  HD
ATOM     39 1HH1 ARG X   4     -26.457 -17.466  40.899  1.00 21.32 LIG 0.17  HD
ENDBRANCH 30 31
ENDBRANCH 29 30
ENDBRANCH 28 29
ENDBRANCH 1 28
BRANCH 1 40
ATOM     40  C   ARG X   4     -21.805 -12.825  39.369  1.00 30.38 LIG 0.24  C 
ATOM     41 O    ARG X   4     -21.301 -11.969  38.660  1.00 31.87 LIG-0.27  OA
ATOM     42  N   PRO X   5     -21.210 -13.304  40.473  1.00 30.60 LIG-0.34  N 
ATOM     43  CA  PRO X   5     -19.991 -12.664  41.017  1.00 31.31 LIG 0.18  C 
ATOM     44  CD  PRO X   5     -21.693 -14.436  41.310  1.00 29.99 LIG 0.13  C 
ATOM     45  CB  PRO X   5     -19.902 -13.242  42.433  1.00 30.70 LIG 0.04  C 
ATOM     46  CG  PRO X   5     -20.620 -14.621  42.353  1.00 29.42 LIG 0.02  C 
BRANCH 43 47
ATOM     47  C   PRO X   5     -18.645 -12.899  40.278  1.00 32.23 LIG 0.24  C 
ATOM     48 O    PRO X   5     -18.452 -13.973  39.632  1.00 32.23 LIG-0.27  OA
ATOM     49  N   TRP X   6     -17.743 -11.924  40.343  1.00 33.50 LIG-0.34  N 
ATOM     50 H    TRP X   6     -17.820 -11.225  40.839  1.00 33.50 LIG 0.16  HD
BRANCH 49 51
ATOM     51  CA  TRP X   6     -16.510 -11.978  39.545  1.00 34.66 LIG 0.19  C 
BRANCH 51 52
ATOM     52  CB  TRP X   6     -16.218 -10.590  38.940  1.00 34.41 LIG 0.08  C 
BRANCH 52 53
ATOM     53  CG  TRP X   6     -17.457  -9.780  38.604  1.00 32.39 LIG-0.03  A 
ATOM     54  CD2 TRP X   6     -17.661  -8.365  38.811  1.00 31.68 LIG-0.00  A 
ATOM     55  CE2 TRP X   6     -18.964  -8.067  38.365  1.00 33.29 LIG 0.04  A 
ATOM     56  CE3 TRP X   6     -16.865  -7.328  39.316  1.00 33.66 LIG 0.01  A 
ATOM     57  CZ2 TRP X   6     -19.484  -6.765  38.385  1.00 33.18 LIG 0.03  A 
ATOM     58  NE1 TRP X   6     -19.517  -9.236  37.901  1.00 30.87 LIG-0.36  N 
ATOM     59  CH2 TRP X   6     -18.695  -5.775  38.877  1.00 32.36 LIG 0.00  A 
ATOM     60  CZ3 TRP X   6     -17.395  -6.041  39.359  1.00 32.37 LIG 0.00  A 
ATOM     61 HE1  TRP X   6     -20.304  -9.317  37.564  1.00 30.87 LIG 0.17  HD
ATOM     62  CD1 TRP X   6     -18.614 -10.253  38.063  1.00 30.01 LIG 0.10  A 
ENDBRANCH 52 53
ENDBRANCH 51 52
BRANCH 51 63
ATOM     63  C   TRP X   6     -15.298 -12.501  40.342  1.00 36.76 LIG 0.20  C 
ATOM     64 O    TRP X   6     -14.130 -12.101  40.191  1.00 37.86 LIG-0.65  OA
ATOM     65 OXT  TRP X   6     -15.440 -13.392  41.187  1.00 39.11 LIG-0.65  OA
ENDBRANCH 51 63
ENDBRANCH 49 51
ENDBRANCH 43 47
ENDBRANCH 1 40
TORSDOF 19
ENDMDL
MODEL 33
USER: ADFR SOLUTION from run 29
USER: SCORE 18.805841 LL:  -5.263 LR: -14.443 RR:   0.000 FEB:  -8.775
USER: RMSD 5.095806
USER: SEED 28
USER: STATUS no improvement in best in 9 clusters for 5 generations
USER: GENES 21
USER: genes 0 Translation |==|  0.55667 0.53036 0.48583
USER: genes 1 Rotation |==|  0.71655 0.33335 0.47592 0.91803
USER: genes 2 Torsion [CB]-CA--N-[C] |==|  0.17778
USER: genes 3 Torsion [N]-C--CA-[N] |==|  0.23066
USER: genes 4 Torsion [C]-CA--N-[C] |==|  0.75383
USER: genes 5 Torsion [N]-C--CA-[N] |==|  0.24538
USER: genes 6 Torsion [C]-CA--CB-[CG] |==|  0.61816
USER: genes 7 Torsion [CA]-CB--CG-[SD] |==|  0.41690
USER: genes 8 Torsion [CB]-CG--SD-[CE] |==|  0.80431
USER: genes 9 Torsion [C]-CA--CB-[CG] |==|  0.24521
USER: genes 10 Torsion [CA]-CB--CG-[CD2] |==|  0.04939
USER: genes 11 Torsion [N]-CA--CB-[CG] |==|  0.63860
USER: genes 12 Torsion [CA]-CB--CG-[CD] |==|  0.81772
USER: genes 13 Torsion [CB]-CG--CD-[NE] |==|  0.48138
USER: genes 14 Torsion [CG]-CD--NE-[CZ] |==|  0.29556
USER: genes 15 Torsion [N]-CA--C-[N] |==|  0.85213
USER: genes 16 Torsion [N]-CA--C-[O] |==|  0.79065
USER: genes 17 Torsion [C]-N--CA-[CB] |==|  0.25911
USER: genes 18 Torsion [N]-CA--CB-[CG] |==|  0.08414
USER: genes 19 Torsion [CA]-CB--CG-[CD2] |==|  0.60599
USER: genes 20 Torsion [N]-CA--C-[O] |==|  0.22069
ROOT
ATOM      1  CA  ARG X   4     -20.175 -11.884  38.428  1.00 29.51 LIG 0.18  C 
ENDROOT
BRANCH 1 2
ATOM      2  N   ARG X   4     -19.467 -10.832  37.705  1.00 29.26 LIG-0.35  N 
ATOM      3  C   TRP X   3     -20.094  -9.912  36.949  1.00 30.37 LIG 0.24  C 
ATOM      4 O    TRP X   3     -21.336  -9.851  36.823  1.00 30.38 LIG-0.27  OA
ATOM      5 H    ARG X   4     -18.613 -10.854  37.807  1.00 29.26 LIG 0.16  HD
BRANCH 3 6
ATOM      6  CA  TRP X   3     -19.191  -8.886  36.232  1.00 30.62 LIG 0.18  C 
BRANCH 6 7
ATOM      7  N   TRP X   3     -18.644  -9.404  34.967  1.00 31.45 LIG-0.34  N 
ATOM      8 H    TRP X   3     -19.112  -9.243  34.264  1.00 31.45 LIG 0.16  HD
ATOM      9  C   MET X   2     -17.491 -10.071  34.989  1.00 32.92 LIG 0.26  C 
ATOM     10 O    MET X   2     -16.831 -10.197  36.002  1.00 32.35 LIG-0.27  OA
BRANCH 9 11
ATOM     11  CA  MET X   2     -16.974 -10.652  33.702  1.00 34.28 LIG 0.40  C 
ATOM     12  N   MET X   2     -16.117  -9.657  32.945  1.00 35.36 LIG 0.61  N 
BRANCH 11 13
ATOM     13  CB  MET X   2     -16.168 -11.901  34.021  1.00 35.71 LIG 0.06  C 
BRANCH 13 14
ATOM     14  CG  MET X   2     -14.884 -12.034  33.247  1.00 37.62 LIG 0.08  C 
BRANCH 14 15
ATOM     15 SD   MET X   2     -13.512 -12.914  34.042  1.00 39.06 LIG-0.17  SA
ATOM     16  CE  MET X   2     -13.038 -11.726  35.337  1.00 45.88 LIG 0.09  C 
ENDBRANCH 14 15
ENDBRANCH 13 14
ENDBRANCH 11 13
ENDBRANCH 9 11
ENDBRANCH 6 7
BRANCH 6 17
ATOM     17  CB  TRP X   3     -19.914  -7.550  36.049  1.00 29.85 LIG 0.07  C 
BRANCH 17 18
ATOM     18  CG  TRP X   3     -19.733  -6.634  37.229  1.00 29.58 LIG-0.03  A 
ATOM     19  CD1 TRP X   3     -20.498  -5.541  37.536  1.00 26.84 LIG 0.10  A 
ATOM     20  NE1 TRP X   3     -20.025  -4.951  38.679  1.00 29.47 LIG-0.36  N 
ATOM     21 HE1  TRP X   3     -20.354  -4.247  39.046  1.00 29.47 LIG 0.17  HD
ATOM     22  CE2 TRP X   3     -18.941  -5.659  39.149  1.00 27.62 LIG 0.04  A 
ATOM     23  CZ2 TRP X   3     -18.117  -5.439  40.294  1.00 28.85 LIG 0.03  A 
ATOM     24  CD2 TRP X   3     -18.725  -6.730  38.257  1.00 25.33 LIG-0.00  A 
ATOM     25  CH2 TRP X   3     -17.067  -6.338  40.521  1.00 28.18 LIG 0.00  A 
ATOM     26  CZ3 TRP X   3     -16.829  -7.404  39.634  1.00 26.79 LIG 0.00  A 
ATOM     27  CE3 TRP X   3     -17.645  -7.599  38.489  1.00 25.86 LIG 0.01  A 
ENDBRANCH 17 18
ENDBRANCH 6 17
ENDBRANCH 3 6
ENDBRANCH 1 2
BRANCH 1 28
ATOM     28  CB  ARG X   4     -20.897 -12.850  37.465  1.00 29.55 LIG 0.04  C 
BRANCH 28 29
ATOM     29  CG  ARG X   4     -22.362 -13.106  37.808  1.00 28.17 LIG 0.02  C 
BRANCH 29 30
ATOM     30  CD  ARG X   4     -22.474 -13.846  39.149  1.00 27.09 LIG 0.14  C 
BRANCH 30 31
ATOM     31  NE  ARG X   4     -23.876 -13.944  39.543  1.00 25.46 LIG-0.23  N 
ATOM     32 HE   ARG X   4     -24.270 -13.235  39.829  1.00 25.46 LIG 0.18  HD
ATOM     33  CZ  ARG X   4     -24.579 -15.077  39.482  1.00 27.27 LIG 0.67  C 
ATOM     34  NH2 ARG X   4     -25.858 -15.104  39.846  1.00 24.12 LIG-0.23  N 
ATOM     35  NH1 ARG X   4     -23.983 -16.192  39.066  1.00 21.32 LIG-0.23  N 
ATOM     36 1HH2 ARG X   4     -26.240 -14.386  40.125  1.00 24.12 LIG 0.17  HD
ATOM     37 2HH2 ARG X   4     -26.302 -15.839  39.803  1.00 24.12 LIG 0.17  HD
ATOM     38 2HH1 ARG X   4     -24.427 -16.927  39.024  1.00 21.32 LIG 0.17  HD
ATOM     39 1HH1 ARG X   4     -23.153 -16.178  38.840  1.00 21.32 LIG 0.17  HD
ENDBRANCH 30 31
ENDBRANCH 29 30
ENDBRANCH 28 29
ENDBRANCH 1 28
BRANCH 1 40
ATOM     40  C   ARG X   4     -19.156 -12.658  39.224  1.00 30.38 LIG 0.24  C 
ATOM     41 O    ARG X   4     -19.323 -12.795  40.426  1.00 31.87 LIG-0.27  OA
ATOM     42  N   PRO X   5     -18.091 -13.150  38.572  1.00 30.60 LIG-0.34  N 
ATOM     43  CA  PRO X   5     -17.153 -14.078  39.244  1.00 31.31 LIG 0.18  C 
ATOM     44  CD  PRO X   5     -17.747 -12.912  37.144  1.00 29.99 LIG 0.13  C 
ATOM     45  CB  PRO X   5     -16.370 -14.682  38.074  1.00 30.70 LIG 0.04  C 
ATOM     46  CG  PRO X   5     -16.422 -13.603  36.952  1.00 29.42 LIG 0.02  C 
BRANCH 43 47
ATOM     47  C   PRO X   5     -16.156 -13.492  40.282  1.00 32.23 LIG 0.24  C 
ATOM     48 O    PRO X   5     -15.141 -12.839  39.893  1.00 32.23 LIG-0.27  OA
ATOM     49  N   TRP X   6     -16.437 -13.692  41.566  1.00 33.50 LIG-0.34  N 
ATOM     50 H    TRP X   6     -17.072 -14.198  41.850  1.00 33.50 LIG 0.16  HD
BRANCH 49 51
ATOM     51  CA  TRP X   6     -15.651 -13.041  42.624  1.00 34.66 LIG 0.19  C 
BRANCH 51 52
ATOM     52  CB  TRP X   6     -16.326 -11.717  43.036  1.00 34.41 LIG 0.08  C 
BRANCH 52 53
ATOM     53  CG  TRP X   6     -17.837 -11.712  42.889  1.00 32.39 LIG-0.03  A 
ATOM     54  CD2 TRP X   6     -18.670 -10.619  42.444  1.00 31.68 LIG-0.00  A 
ATOM     55  CE2 TRP X   6     -20.003 -11.073  42.487  1.00 33.29 LIG 0.04  A 
ATOM     56  CE3 TRP X   6     -18.415  -9.313  42.005  1.00 33.66 LIG 0.01  A 
ATOM     57  CZ2 TRP X   6     -21.082 -10.274  42.082  1.00 33.18 LIG 0.03  A 
ATOM     58  NE1 TRP X   6     -19.980 -12.376  42.923  1.00 30.87 LIG-0.36  N 
ATOM     59  CH2 TRP X   6     -20.811  -9.012  41.658  1.00 32.36 LIG 0.00  A 
ATOM     60  CZ3 TRP X   6     -19.490  -8.513  41.629  1.00 32.37 LIG 0.00  A 
ATOM     61 HE1  TRP X   6     -20.668 -12.882  43.023  1.00 30.87 LIG 0.17  HD
ATOM     62  CD1 TRP X   6     -18.684 -12.740  43.173  1.00 30.01 LIG 0.10  A 
ENDBRANCH 52 53
ENDBRANCH 51 52
BRANCH 51 63
ATOM     63  C   TRP X   6     -15.419 -13.948  43.849  1.00 36.76 LIG 0.20  C 
ATOM     64 O    TRP X   6     -14.560 -14.846  43.908  1.00 37.86 LIG-0.65  OA
ATOM     65 OXT  TRP X   6     -16.120 -13.828  44.860  1.00 39.11 LIG-0.65  OA
ENDBRANCH 51 63
ENDBRANCH 49 51
ENDBRANCH 43 47
ENDBRANCH 1 40
TORSDOF 19
ENDMDL
MODEL 34
USER: ADFR SOLUTION from run 7
USER: SCORE 17.193606 LL:  -5.298 LR: -14.417 RR:   0.000 FEB:  -8.749
USER: RMSD 9.210651
USER: SEED 408224
USER: STATUS no improvement in best in 10 clusters for 5 generations
USER: GENES 21
USER: genes 0 Translation |==|  0.54893 0.84261 0.58734
USER: genes 1 Rotation |==|  0.23190 0.79447 0.72334 0.70378
USER: genes 2 Torsion [CB]-CA--N-[C] |==|  0.33734
USER: genes 3 Torsion [N]-C--CA-[N] |==|  0.77802
USER: genes 4 Torsion [C]-CA--N-[C] |==|  0.57484
USER: genes 5 Torsion [N]-C--CA-[N] |==|  0.18661
USER: genes 6 Torsion [C]-CA--CB-[CG] |==|  0.74603
USER: genes 7 Torsion [CA]-CB--CG-[SD] |==|  0.14628
USER: genes 8 Torsion [CB]-CG--SD-[CE] |==|  0.61672
USER: genes 9 Torsion [C]-CA--CB-[CG] |==|  0.72335
USER: genes 10 Torsion [CA]-CB--CG-[CD2] |==|  0.61218
USER: genes 11 Torsion [N]-CA--CB-[CG] |==|  0.54557
USER: genes 12 Torsion [CA]-CB--CG-[CD] |==|  0.28871
USER: genes 13 Torsion [CB]-CG--CD-[NE] |==|  0.91775
USER: genes 14 Torsion [CG]-CD--NE-[CZ] |==|  0.78852
USER: genes 15 Torsion [N]-CA--C-[N] |==|  0.81628
USER: genes 16 Torsion [N]-CA--C-[O] |==|  0.42298
USER: genes 17 Torsion [C]-N--CA-[CB] |==|  0.22829
USER: genes 18 Torsion [N]-CA--CB-[CG] |==|  0.66845
USER: genes 19 Torsion [CA]-CB--CG-[CD2] |==|  0.40165
USER: genes 20 Torsion [N]-CA--C-[O] |==|  0.88054
ROOT
ATOM      1  CA  ARG X   4     -20.338  -5.795  40.332  1.00 29.51 LIG 0.18  C 
ENDROOT
BRANCH 1 2
ATOM      2  N   ARG X   4     -20.277  -7.130  40.921  1.00 29.26 LIG-0.35  N 
ATOM      3  C   TRP X   3     -21.222  -7.607  41.752  1.00 30.37 LIG 0.24  C 
ATOM      4 O    TRP X   3     -22.250  -6.971  42.068  1.00 30.38 LIG-0.27  OA
ATOM      5 H    ARG X   4     -19.584  -7.581  40.688  1.00 29.26 LIG 0.16  HD
BRANCH 3 6
ATOM      6  CA  TRP X   3     -20.990  -9.029  42.305  1.00 30.62 LIG 0.18  C 
BRANCH 6 7
ATOM      7  N   TRP X   3     -21.360 -10.077  41.340  1.00 31.45 LIG-0.34  N 
ATOM      8 H    TRP X   3     -21.313  -9.854  40.511  1.00 31.45 LIG 0.16  HD
ATOM      9  C   MET X   2     -21.736 -11.271  41.797  1.00 32.92 LIG 0.26  C 
ATOM     10 O    MET X   2     -21.704 -11.555  42.979  1.00 32.35 LIG-0.27  OA
BRANCH 9 11
ATOM     11  CA  MET X   2     -22.174 -12.313  40.806  1.00 34.28 LIG 0.40  C 
ATOM     12  N   MET X   2     -21.024 -12.772  39.932  1.00 35.36 LIG 0.61  N 
BRANCH 11 13
ATOM     13  CB  MET X   2     -22.757 -13.493  41.566  1.00 35.71 LIG 0.06  C 
BRANCH 13 14
ATOM     14  CG  MET X   2     -21.764 -14.572  41.907  1.00 37.62 LIG 0.08  C 
BRANCH 14 15
ATOM     15 SD   MET X   2     -20.248 -14.076  42.769  1.00 39.06 LIG-0.17  SA
ATOM     16  CE  MET X   2     -19.004 -15.076  41.893  1.00 45.88 LIG 0.09  C 
ENDBRANCH 14 15
ENDBRANCH 13 14
ENDBRANCH 11 13
ENDBRANCH 9 11
ENDBRANCH 6 7
BRANCH 6 17
ATOM     17  CB  TRP X   3     -19.558  -9.192  42.819  1.00 29.85 LIG 0.07  C 
BRANCH 17 18
ATOM     18  CG  TRP X   3     -18.668  -9.891  41.827  1.00 29.58 LIG-0.03  A 
ATOM     19  CD1 TRP X   3     -18.657  -9.704  40.472  1.00 26.84 LIG 0.10  A 
ATOM     20  NE1 TRP X   3     -17.718 -10.523  39.900  1.00 29.47 LIG-0.36  N 
ATOM     21 HE1  TRP X   3     -17.549 -10.571  39.058  1.00 29.47 LIG 0.17  HD
ATOM     22  CE2 TRP X   3     -17.088 -11.257  40.879  1.00 27.62 LIG 0.04  A 
ATOM     23  CZ2 TRP X   3     -16.052 -12.235  40.782  1.00 28.85 LIG 0.03  A 
ATOM     24  CD2 TRP X   3     -17.662 -10.886  42.113  1.00 25.33 LIG-0.00  A 
ATOM     25  CH2 TRP X   3     -15.604 -12.827  41.970  1.00 28.18 LIG 0.00  A 
ATOM     26  CZ3 TRP X   3     -16.176 -12.478  43.207  1.00 26.79 LIG 0.00  A 
ATOM     27  CE3 TRP X   3     -17.218 -11.518  43.286  1.00 25.86 LIG 0.01  A 
ENDBRANCH 17 18
ENDBRANCH 6 17
ENDBRANCH 3 6
ENDBRANCH 1 2
BRANCH 1 28
ATOM     28  CB  ARG X   4     -19.100  -4.952  40.705  1.00 29.55 LIG 0.04  C 
BRANCH 28 29
ATOM     29  CG  ARG X   4     -19.263  -3.453  40.469  1.00 28.17 LIG 0.02  C 
BRANCH 29 30
ATOM     30  CD  ARG X   4     -19.492  -2.726  41.803  1.00 27.09 LIG 0.14  C 
BRANCH 30 31
ATOM     31  NE  ARG X   4     -20.165  -3.619  42.742  1.00 25.46 LIG-0.23  N 
ATOM     32 HE   ARG X   4     -19.699  -3.975  43.372  1.00 25.46 LIG 0.18  HD
ATOM     33  CZ  ARG X   4     -21.465  -3.910  42.674  1.00 27.27 LIG 0.67  C 
ATOM     34  NH2 ARG X   4     -22.026  -4.725  43.564  1.00 24.12 LIG-0.23  N 
ATOM     35  NH1 ARG X   4     -22.200  -3.390  41.694  1.00 21.32 LIG-0.23  N 
ATOM     36 1HH2 ARG X   4     -21.549  -5.069  44.191  1.00 24.12 LIG 0.17  HD
ATOM     37 2HH2 ARG X   4     -22.865  -4.906  43.513  1.00 24.12 LIG 0.17  HD
ATOM     38 2HH1 ARG X   4     -23.038  -3.573  41.642  1.00 21.32 LIG 0.17  HD
ATOM     39 1HH1 ARG X   4     -21.836  -2.871  41.113  1.00 21.32 LIG 0.17  HD
ENDBRANCH 30 31
ENDBRANCH 29 30
ENDBRANCH 28 29
ENDBRANCH 1 28
BRANCH 1 40
ATOM     40  C   ARG X   4     -20.385  -5.957  38.834  1.00 30.38 LIG 0.24  C 
ATOM     41 O    ARG X   4     -21.400  -5.638  38.236  1.00 31.87 LIG-0.27  OA
ATOM     42  N   PRO X   5     -19.306  -6.470  38.223  1.00 30.60 LIG-0.34  N 
ATOM     43  CA  PRO X   5     -19.204  -6.481  36.746  1.00 31.31 LIG 0.18  C 
ATOM     44  CD  PRO X   5     -18.089  -7.007  38.891  1.00 29.99 LIG 0.13  C 
ATOM     45  CB  PRO X   5     -17.716  -6.754  36.506  1.00 30.70 LIG 0.04  C 
ATOM     46  CG  PRO X   5     -17.240  -7.538  37.765  1.00 29.42 LIG 0.02  C 
BRANCH 43 47
ATOM     47  C   PRO X   5     -20.052  -7.517  35.958  1.00 32.23 LIG 0.24  C 
ATOM     48 O    PRO X   5     -20.423  -7.267  34.772  1.00 32.23 LIG-0.27  OA
ATOM     49  N   TRP X   6     -20.338  -8.658  36.579  1.00 33.50 LIG-0.34  N 
ATOM     50 H    TRP X   6     -20.167  -8.816  37.407  1.00 33.50 LIG 0.16  HD
BRANCH 49 51
ATOM     51  CA  TRP X   6     -20.990  -9.765  35.865  1.00 34.66 LIG 0.19  C 
BRANCH 51 52
ATOM     52  CB  TRP X   6     -19.936 -10.573  35.080  1.00 34.41 LIG 0.08  C 
BRANCH 52 53
ATOM     53  CG  TRP X   6     -20.161 -10.602  33.579  1.00 32.39 LIG-0.03  A 
ATOM     54  CD2 TRP X   6     -19.154 -10.601  32.543  1.00 31.68 LIG-0.00  A 
ATOM     55  CE2 TRP X   6     -19.834 -10.615  31.309  1.00 33.29 LIG 0.04  A 
ATOM     56  CE3 TRP X   6     -17.753 -10.602  32.543  1.00 33.66 LIG 0.01  A 
ATOM     57  CZ2 TRP X   6     -19.158 -10.656  30.081  1.00 33.18 LIG 0.03  A 
ATOM     58  NE1 TRP X   6     -21.180 -10.636  31.581  1.00 30.87 LIG-0.36  N 
ATOM     59  CH2 TRP X   6     -17.800 -10.657  30.104  1.00 32.36 LIG 0.00  A 
ATOM     60  CZ3 TRP X   6     -17.085 -10.615  31.322  1.00 32.37 LIG 0.00  A 
ATOM     61 HE1  TRP X   6     -21.808 -10.659  30.994  1.00 30.87 LIG 0.17  HD
ATOM     62  CD1 TRP X   6     -21.362 -10.613  32.938  1.00 30.01 LIG 0.10  A 
ENDBRANCH 52 53
ENDBRANCH 51 52
BRANCH 51 63
ATOM     63  C   TRP X   6     -21.810 -10.682  36.794  1.00 36.76 LIG 0.20  C 
ATOM     64 O    TRP X   6     -21.431 -11.076  37.911  1.00 37.86 LIG-0.65  OA
ATOM     65 OXT  TRP X   6     -22.922 -11.097  36.444  1.00 39.11 LIG-0.65  OA
ENDBRANCH 51 63
ENDBRANCH 49 51
ENDBRANCH 43 47
ENDBRANCH 1 40
TORSDOF 19
ENDMDL
MODEL 35
USER: ADFR SOLUTION from run 118
USER: SCORE 18.399580 LL:  -4.225 LR: -14.417 RR:   0.000 FEB:  -8.750
USER: RMSD 5.605450
USER: SEED 117
USER: STATUS no improvement in best in 16 clusters for 5 generations
USER: GENES 21
USER: genes 0 Translation |==|  0.41686 0.44915 0.51957
USER: genes 1 Rotation |==|  0.68082 0.50737 0.65322 0.94020
USER: genes 2 Torsion [CB]-CA--N-[C] |==|  0.86208
USER: genes 3 Torsion [N]-C--CA-[N] |==|  0.36418
USER: genes 4 Torsion [C]-CA--N-[C] |==|  0.86849
USER: genes 5 Torsion [N]-C--CA-[N] |==|  0.01017
USER: genes 6 Torsion [C]-CA--CB-[CG] |==|  0.36433
USER: genes 7 Torsion [CA]-CB--CG-[SD] |==|  0.67668
USER: genes 8 Torsion [CB]-CG--SD-[CE] |==|  0.85255
USER: genes 9 Torsion [C]-CA--CB-[CG] |==|  0.23361
USER: genes 10 Torsion [CA]-CB--CG-[CD2] |==|  0.31214
USER: genes 11 Torsion [N]-CA--CB-[CG] |==|  0.80917
USER: genes 12 Torsion [CA]-CB--CG-[CD] |==|  0.79293
USER: genes 13 Torsion [CB]-CG--CD-[NE] |==|  0.33400
USER: genes 14 Torsion [CG]-CD--NE-[CZ] |==|  0.38729
USER: genes 15 Torsion [N]-CA--C-[N] |==|  0.36515
USER: genes 16 Torsion [N]-CA--C-[O] |==|  0.09626
USER: genes 17 Torsion [C]-N--CA-[CB] |==|  0.79368
USER: genes 18 Torsion [N]-CA--CB-[CG] |==|  0.92261
USER: genes 19 Torsion [CA]-CB--CG-[CD2] |==|  0.26694
USER: genes 20 Torsion [N]-CA--C-[O] |==|  0.05885
ROOT
ATOM      1  CA  ARG X   4     -23.111 -13.468  39.061  1.00 29.51 LIG 0.18  C 
ENDROOT
BRANCH 1 2
ATOM      2  N   ARG X   4     -23.620 -12.702  37.926  1.00 29.26 LIG-0.35  N 
ATOM      3  C   TRP X   3     -23.052 -12.734  36.707  1.00 30.37 LIG 0.24  C 
ATOM      4 O    TRP X   3     -22.063 -13.443  36.423  1.00 30.38 LIG-0.27  OA
ATOM      5 H    ARG X   4     -24.315 -12.230  38.110  1.00 29.26 LIG 0.16  HD
BRANCH 3 6
ATOM      6  CA  TRP X   3     -23.703 -11.844  35.627  1.00 30.62 LIG 0.18  C 
BRANCH 6 7
ATOM      7  N   TRP X   3     -22.717 -11.023  34.904  1.00 31.45 LIG-0.34  N 
ATOM      8 H    TRP X   3     -22.786 -11.025  34.047  1.00 31.45 LIG 0.16  HD
ATOM      9  C   MET X   2     -21.805 -10.347  35.602  1.00 32.92 LIG 0.26  C 
ATOM     10 O    MET X   2     -21.808 -10.316  36.818  1.00 32.35 LIG-0.27  OA
BRANCH 9 11
ATOM     11  CA  MET X   2     -20.764  -9.563  34.853  1.00 34.28 LIG 0.40  C 
ATOM     12  N   MET X   2     -20.996  -9.614  33.356  1.00 35.36 LIG 0.61  N 
BRANCH 11 13
ATOM     13  CB  MET X   2     -20.794  -8.124  35.340  1.00 35.71 LIG 0.06  C 
BRANCH 13 14
ATOM     14  CG  MET X   2     -19.447  -7.553  35.694  1.00 37.62 LIG 0.08  C 
BRANCH 14 15
ATOM     15 SD   MET X   2     -19.166  -7.075  37.421  1.00 39.06 LIG-0.17  SA
ATOM     16  CE  MET X   2     -20.589  -5.981  37.719  1.00 45.88 LIG 0.09  C 
ENDBRANCH 14 15
ENDBRANCH 13 14
ENDBRANCH 11 13
ENDBRANCH 9 11
ENDBRANCH 6 7
BRANCH 6 17
ATOM     17  CB  TRP X   3     -24.573 -12.674  34.681  1.00 29.85 LIG 0.07  C 
BRANCH 17 18
ATOM     18  CG  TRP X   3     -25.958 -12.899  35.226  1.00 29.58 LIG-0.03  A 
ATOM     19  CD1 TRP X   3     -26.290 -13.654  36.319  1.00 26.84 LIG 0.10  A 
ATOM     20  NE1 TRP X   3     -27.647 -13.631  36.502  1.00 29.47 LIG-0.36  N 
ATOM     21 HE1  TRP X   3     -28.070 -14.043  37.127  1.00 29.47 LIG 0.17  HD
ATOM     22  CE2 TRP X   3     -28.231 -12.846  35.533  1.00 27.62 LIG 0.04  A 
ATOM     23  CZ2 TRP X   3     -29.603 -12.521  35.305  1.00 28.85 LIG 0.03  A 
ATOM     24  CD2 TRP X   3     -27.194 -12.367  34.705  1.00 25.33 LIG-0.00  A 
ATOM     25  CH2 TRP X   3     -29.901 -11.687  34.219  1.00 28.18 LIG 0.00  A 
ATOM     26  CZ3 TRP X   3     -28.880 -11.212  33.376  1.00 26.79 LIG 0.00  A 
ATOM     27  CE3 TRP X   3     -27.523 -11.560  33.603  1.00 25.86 LIG 0.01  A 
ENDBRANCH 17 18
ENDBRANCH 6 17
ENDBRANCH 3 6
ENDBRANCH 1 2
BRANCH 1 28
ATOM     28  CB  ARG X   4     -22.878 -14.947  38.690  1.00 29.55 LIG 0.04  C 
BRANCH 28 29
ATOM     29  CG  ARG X   4     -24.156 -15.740  38.424  1.00 28.17 LIG 0.02  C 
BRANCH 29 30
ATOM     30  CD  ARG X   4     -24.876 -16.049  39.745  1.00 27.09 LIG 0.14  C 
BRANCH 30 31
ATOM     31  NE  ARG X   4     -26.214 -15.466  39.726  1.00 25.46 LIG-0.23  N 
ATOM     32 HE   ARG X   4     -26.312 -14.682  39.387  1.00 25.46 LIG 0.18  HD
ATOM     33  CZ  ARG X   4     -27.293 -16.087  40.207  1.00 27.27 LIG 0.67  C 
ATOM     34  NH2 ARG X   4     -28.489 -15.508  40.154  1.00 24.12 LIG-0.23  N 
ATOM     35  NH1 ARG X   4     -27.160 -17.290  40.759  1.00 21.32 LIG-0.23  N 
ATOM     36 1HH2 ARG X   4     -28.573 -14.726  39.807  1.00 24.12 LIG 0.17  HD
ATOM     37 2HH2 ARG X   4     -29.179 -15.916  40.466  1.00 24.12 LIG 0.17  HD
ATOM     38 2HH1 ARG X   4     -27.850 -17.698  41.072  1.00 21.32 LIG 0.17  HD
ATOM     39 1HH1 ARG X   4     -26.385 -17.660  40.803  1.00 21.32 LIG 0.17  HD
ENDBRANCH 30 31
ENDBRANCH 29 30
ENDBRANCH 28 29
ENDBRANCH 1 28
BRANCH 1 40
ATOM     40  C   ARG X   4     -21.798 -12.855  39.475  1.00 30.38 LIG 0.24  C 
ATOM     41 O    ARG X   4     -20.951 -12.638  38.623  1.00 31.87 LIG-0.27  OA
ATOM     42  N   PRO X   5     -21.610 -12.591  40.777  1.00 30.60 LIG-0.34  N 
ATOM     43  CA  PRO X   5     -20.433 -11.818  41.233  1.00 31.31 LIG 0.18  C 
ATOM     44  CD  PRO X   5     -22.534 -12.948  41.889  1.00 29.99 LIG 0.13  C 
ATOM     45  CB  PRO X   5     -20.817 -11.415  42.660  1.00 30.70 LIG 0.04  C 
ATOM     46  CG  PRO X   5     -21.810 -12.516  43.138  1.00 29.42 LIG 0.02  C 
BRANCH 43 47
ATOM     47  C   PRO X   5     -19.050 -12.528  41.252  1.00 32.23 LIG 0.24  C 
ATOM     48 O    PRO X   5     -18.763 -13.387  40.366  1.00 32.23 LIG-0.27  OA
ATOM     49  N   TRP X   6     -18.204 -12.172  42.214  1.00 33.50 LIG-0.34  N 
ATOM     50 H    TRP X   6     -18.406 -11.653  42.870  1.00 33.50 LIG 0.16  HD
BRANCH 49 51
ATOM     51  CA  TRP X   6     -16.818 -12.660  42.221  1.00 34.66 LIG 0.19  C 
BRANCH 51 52
ATOM     52  CB  TRP X   6     -16.787 -14.142  42.649  1.00 34.41 LIG 0.08  C 
BRANCH 52 53
ATOM     53  CG  TRP X   6     -17.931 -14.555  43.555  1.00 32.39 LIG-0.03  A 
ATOM     54  CD2 TRP X   6     -19.172 -15.185  43.167  1.00 31.68 LIG-0.00  A 
ATOM     55  CE2 TRP X   6     -19.929 -15.362  44.342  1.00 33.29 LIG 0.04  A 
ATOM     56  CE3 TRP X   6     -19.704 -15.623  41.948  1.00 33.66 LIG 0.01  A 
ATOM     57  CZ2 TRP X   6     -21.186 -15.984  44.339  1.00 33.18 LIG 0.03  A 
ATOM     58  NE1 TRP X   6     -19.183 -14.877  45.389  1.00 30.87 LIG-0.36  N 
ATOM     59  CH2 TRP X   6     -21.682 -16.403  43.146  1.00 32.36 LIG 0.00  A 
ATOM     60  CZ3 TRP X   6     -20.964 -16.216  41.944  1.00 32.37 LIG 0.00  A 
ATOM     61 HE1  TRP X   6     -19.420 -14.881  46.216  1.00 30.87 LIG 0.17  HD
ATOM     62  CD1 TRP X   6     -18.000 -14.386  44.905  1.00 30.01 LIG 0.10  A 
ENDBRANCH 52 53
ENDBRANCH 51 52
BRANCH 51 63
ATOM     63  C   TRP X   6     -16.100 -12.458  40.872  1.00 36.76 LIG 0.20  C 
ATOM     64 O    TRP X   6     -16.445 -11.634  40.006  1.00 37.86 LIG-0.65  OA
ATOM     65 OXT  TRP X   6     -15.119 -13.150  40.573  1.00 39.11 LIG-0.65  OA
ENDBRANCH 51 63
ENDBRANCH 49 51
ENDBRANCH 43 47
ENDBRANCH 1 40
TORSDOF 19
ENDMDL
MODEL 36
USER: ADFR SOLUTION from run 71
USER: SCORE 18.112815 LL:  -4.357 LR: -14.377 RR:   0.000 FEB:  -8.709
USER: RMSD 6.617659
USER: SEED 70
USER: STATUS no improvement in best in 13 clusters for 5 generations
USER: GENES 21
USER: genes 0 Translation |==|  0.54581 0.62718 0.28017
USER: genes 1 Rotation |==|  0.12829 0.54917 0.27834 0.74552
USER: genes 2 Torsion [CB]-CA--N-[C] |==|  0.86111
USER: genes 3 Torsion [N]-C--CA-[N] |==|  0.85590
USER: genes 4 Torsion [C]-CA--N-[C] |==|  0.62884
USER: genes 5 Torsion [N]-C--CA-[N] |==|  0.04061
USER: genes 6 Torsion [C]-CA--CB-[CG] |==|  0.22438
USER: genes 7 Torsion [CA]-CB--CG-[SD] |==|  0.46933
USER: genes 8 Torsion [CB]-CG--SD-[CE] |==|  0.28137
USER: genes 9 Torsion [C]-CA--CB-[CG] |==|  0.57636
USER: genes 10 Torsion [CA]-CB--CG-[CD2] |==|  0.77897
USER: genes 11 Torsion [N]-CA--CB-[CG] |==|  0.33814
USER: genes 12 Torsion [CA]-CB--CG-[CD] |==|  0.47324
USER: genes 13 Torsion [CB]-CG--CD-[NE] |==|  0.25437
USER: genes 14 Torsion [CG]-CD--NE-[CZ] |==|  0.39258
USER: genes 15 Torsion [N]-CA--C-[N] |==|  0.38745
USER: genes 16 Torsion [N]-CA--C-[O] |==|  0.89038
USER: genes 17 Torsion [C]-N--CA-[CB] |==|  0.29071
USER: genes 18 Torsion [N]-CA--CB-[CG] |==|  0.63972
USER: genes 19 Torsion [CA]-CB--CG-[CD2] |==|  0.12729
USER: genes 20 Torsion [N]-CA--C-[O] |==|  0.17980
ROOT
ATOM      1  CA  ARG X   4     -20.403  -9.996  34.572  1.00 29.51 LIG 0.18  C 
ENDROOT
BRANCH 1 2
ATOM      2  N   ARG X   4     -21.632 -10.779  34.666  1.00 29.26 LIG-0.35  N 
ATOM      3  C   TRP X   3     -22.387 -10.828  35.780  1.00 30.37 LIG 0.24  C 
ATOM      4 O    TRP X   3     -22.127 -10.185  36.819  1.00 30.38 LIG-0.27  OA
ATOM      5 H    ARG X   4     -21.828 -11.204  33.945  1.00 29.26 LIG 0.16  HD
BRANCH 3 6
ATOM      6  CA  TRP X   3     -23.641 -11.725  35.715  1.00 30.62 LIG 0.18  C 
BRANCH 6 7
ATOM      7  N   TRP X   3     -24.486 -11.429  34.546  1.00 31.45 LIG-0.34  N 
ATOM      8 H    TRP X   3     -24.072 -11.351  33.797  1.00 31.45 LIG 0.16  HD
ATOM      9  C   MET X   2     -25.801 -11.306  34.717  1.00 32.92 LIG 0.26  C 
ATOM     10 O    MET X   2     -26.341 -11.510  35.788  1.00 32.35 LIG-0.27  OA
BRANCH 9 11
ATOM     11  CA  MET X   2     -26.648 -10.940  33.529  1.00 34.28 LIG 0.40  C 
ATOM     12  N   MET X   2     -25.890 -11.114  32.228  1.00 35.36 LIG 0.61  N 
BRANCH 11 13
ATOM     13  CB  MET X   2     -27.892 -11.814  33.531  1.00 35.71 LIG 0.06  C 
BRANCH 13 14
ATOM     14  CG  MET X   2     -28.983 -11.351  34.459  1.00 37.62 LIG 0.08  C 
BRANCH 14 15
ATOM     15 SD   MET X   2     -30.607 -12.142  34.306  1.00 39.06 LIG-0.17  SA
ATOM     16  CE  MET X   2     -30.563 -13.307  35.704  1.00 45.88 LIG 0.09  C 
ENDBRANCH 14 15
ENDBRANCH 13 14
ENDBRANCH 11 13
ENDBRANCH 9 11
ENDBRANCH 6 7
BRANCH 6 17
ATOM     17  CB  TRP X   3     -23.263 -13.205  35.801  1.00 29.85 LIG 0.07  C 
BRANCH 17 18
ATOM     18  CG  TRP X   3     -24.263 -14.093  35.112  1.00 29.58 LIG-0.03  A 
ATOM     19  CD1 TRP X   3     -24.139 -14.645  33.866  1.00 26.84 LIG 0.10  A 
ATOM     20  NE1 TRP X   3     -25.254 -15.386  33.575  1.00 29.47 LIG-0.36  N 
ATOM     21 HE1  TRP X   3     -25.387 -15.815  32.841  1.00 29.47 LIG 0.17  HD
ATOM     22  CE2 TRP X   3     -26.128 -15.342  34.637  1.00 27.62 LIG 0.04  A 
ATOM     23  CZ2 TRP X   3     -27.410 -15.947  34.809  1.00 28.85 LIG 0.03  A 
ATOM     24  CD2 TRP X   3     -25.537 -14.531  35.629  1.00 25.33 LIG-0.00  A 
ATOM     25  CH2 TRP X   3     -28.080 -15.717  36.018  1.00 28.18 LIG 0.00  A 
ATOM     26  CZ3 TRP X   3     -27.511 -14.901  37.011  1.00 26.79 LIG 0.00  A 
ATOM     27  CE3 TRP X   3     -26.244 -14.290  36.819  1.00 25.86 LIG 0.01  A 
ENDBRANCH 17 18
ENDBRANCH 6 17
ENDBRANCH 3 6
ENDBRANCH 1 2
BRANCH 1 28
ATOM     28  CB  ARG X   4     -20.615  -8.545  35.053  1.00 29.55 LIG 0.04  C 
BRANCH 28 29
ATOM     29  CG  ARG X   4     -19.711  -8.124  36.208  1.00 28.17 LIG 0.02  C 
BRANCH 29 30
ATOM     30  CD  ARG X   4     -19.826  -6.612  36.451  1.00 27.09 LIG 0.14  C 
BRANCH 30 31
ATOM     31  NE  ARG X   4     -20.866  -6.349  37.442  1.00 25.46 LIG-0.23  N 
ATOM     32 HE   ARG X   4     -21.581  -6.825  37.418  1.00 25.46 LIG 0.18  HD
ATOM     33  CZ  ARG X   4     -20.762  -5.409  38.383  1.00 27.27 LIG 0.67  C 
ATOM     34  NH2 ARG X   4     -21.740  -5.221  39.265  1.00 24.12 LIG-0.23  N 
ATOM     35  NH1 ARG X   4     -19.674  -4.644  38.424  1.00 21.32 LIG-0.23  N 
ATOM     36 1HH2 ARG X   4     -22.448  -5.707  39.232  1.00 24.12 LIG 0.17  HD
ATOM     37 2HH2 ARG X   4     -21.664  -4.612  39.868  1.00 24.12 LIG 0.17  HD
ATOM     38 2HH1 ARG X   4     -19.599  -4.035  39.027  1.00 21.32 LIG 0.17  HD
ATOM     39 1HH1 ARG X   4     -19.046  -4.758  37.848  1.00 21.32 LIG 0.17  HD
ENDBRANCH 30 31
ENDBRANCH 29 30
ENDBRANCH 28 29
ENDBRANCH 1 28
BRANCH 1 40
ATOM     40  C   ARG X   4     -19.371 -10.656  35.450  1.00 30.38 LIG 0.24  C 
ATOM     41 O    ARG X   4     -19.708 -11.081  36.543  1.00 31.87 LIG-0.27  OA
ATOM     42  N   PRO X   5     -18.111 -10.730  34.992  1.00 30.60 LIG-0.34  N 
ATOM     43  CA  PRO X   5     -17.090 -11.529  35.707  1.00 31.31 LIG 0.18  C 
ATOM     44  CD  PRO X   5     -17.595 -10.119  33.737  1.00 29.99 LIG 0.13  C 
ATOM     45  CB  PRO X   5     -15.973 -11.667  34.669  1.00 30.70 LIG 0.04  C 
ATOM     46  CG  PRO X   5     -16.117 -10.418  33.750  1.00 29.42 LIG 0.02  C 
BRANCH 43 47
ATOM     47  C   PRO X   5     -16.501 -10.957  37.026  1.00 32.23 LIG 0.24  C 
ATOM     48 O    PRO X   5     -16.246  -9.718  37.126  1.00 32.23 LIG-0.27  OA
ATOM     49  N   TRP X   6     -16.306 -11.816  38.022  1.00 33.50 LIG-0.34  N 
ATOM     50 H    TRP X   6     -16.395 -12.669  37.950  1.00 33.50 LIG 0.16  HD
BRANCH 49 51
ATOM     51  CA  TRP X   6     -15.911 -11.350  39.358  1.00 34.66 LIG 0.19  C 
BRANCH 51 52
ATOM     52  CB  TRP X   6     -17.119 -11.420  40.315  1.00 34.41 LIG 0.08  C 
BRANCH 52 53
ATOM     53  CG  TRP X   6     -17.375 -10.142  41.092  1.00 32.39 LIG-0.03  A 
ATOM     54  CD2 TRP X   6     -17.390  -8.792  40.578  1.00 31.68 LIG-0.00  A 
ATOM     55  CE2 TRP X   6     -17.652  -7.938  41.668  1.00 33.29 LIG 0.04  A 
ATOM     56  CE3 TRP X   6     -17.220  -8.231  39.306  1.00 33.66 LIG 0.01  A 
ATOM     57  CZ2 TRP X   6     -17.774  -6.550  41.521  1.00 33.18 LIG 0.03  A 
ATOM     58  NE1 TRP X   6     -17.801  -8.729  42.782  1.00 30.87 LIG-0.36  N 
ATOM     59  CH2 TRP X   6     -17.607  -6.027  40.279  1.00 32.36 LIG 0.00  A 
ATOM     60  CZ3 TRP X   6     -17.314  -6.848  39.168  1.00 32.37 LIG 0.00  A 
ATOM     61 HE1  TRP X   6     -17.979  -8.446  43.575  1.00 30.87 LIG 0.17  HD
ATOM     62  CD1 TRP X   6     -17.619 -10.039  42.428  1.00 30.01 LIG 0.10  A 
ENDBRANCH 52 53
ENDBRANCH 51 52
BRANCH 51 63
ATOM     63  C   TRP X   6     -14.704 -12.119  39.933  1.00 36.76 LIG 0.20  C 
ATOM     64 O    TRP X   6     -13.559 -12.099  39.449  1.00 37.86 LIG-0.65  OA
ATOM     65 OXT  TRP X   6     -14.836 -12.835  40.934  1.00 39.11 LIG-0.65  OA
ENDBRANCH 51 63
ENDBRANCH 49 51
ENDBRANCH 43 47
ENDBRANCH 1 40
TORSDOF 19
ENDMDL
MODEL 37
USER: ADFR SOLUTION from run 178
USER: SCORE 18.110434 LL:  -4.995 LR: -14.367 RR:   0.000 FEB:  -8.699
USER: RMSD 3.733961
USER: SEED 177
USER: STATUS searching
USER: GENES 21
USER: genes 0 Translation |==|  0.53837 0.56917 0.50182
USER: genes 1 Rotation |==|  0.55340 0.38640 0.58696 0.97611
USER: genes 2 Torsion [CB]-CA--N-[C] |==|  0.27216
USER: genes 3 Torsion [N]-C--CA-[N] |==|  0.39168
USER: genes 4 Torsion [C]-CA--N-[C] |==|  0.64865
USER: genes 5 Torsion [N]-C--CA-[N] |==|  0.48916
USER: genes 6 Torsion [C]-CA--CB-[CG] |==|  0.89325
USER: genes 7 Torsion [CA]-CB--CG-[SD] |==|  0.29312
USER: genes 8 Torsion [CB]-CG--SD-[CE] |==|  0.12103
USER: genes 9 Torsion [C]-CA--CB-[CG] |==|  0.00618
USER: genes 10 Torsion [CA]-CB--CG-[CD2] |==|  0.24743
USER: genes 11 Torsion [N]-CA--CB-[CG] |==|  0.72893
USER: genes 12 Torsion [CA]-CB--CG-[CD] |==|  0.54897
USER: genes 13 Torsion [CB]-CG--CD-[NE] |==|  0.46557
USER: genes 14 Torsion [CG]-CD--NE-[CZ] |==|  0.45537
USER: genes 15 Torsion [N]-CA--C-[N] |==|  0.39230
USER: genes 16 Torsion [N]-CA--C-[O] |==|  0.59285
USER: genes 17 Torsion [C]-N--CA-[CB] |==|  0.29585
USER: genes 18 Torsion [N]-CA--CB-[CG] |==|  0.64602
USER: genes 19 Torsion [CA]-CB--CG-[CD2] |==|  0.83113
USER: genes 20 Torsion [N]-CA--C-[O] |==|  0.08076
ROOT
ATOM      1  CA  ARG X   4     -20.559 -11.127  38.728  1.00 29.51 LIG 0.18  C 
ENDROOT
BRANCH 1 2
ATOM      2  N   ARG X   4     -20.151 -10.818  37.360  1.00 29.26 LIG-0.35  N 
ATOM      3  C   TRP X   3     -20.972 -10.242  36.463  1.00 30.37 LIG 0.24  C 
ATOM      4 O    TRP X   3     -22.141  -9.888  36.724  1.00 30.38 LIG-0.27  OA
ATOM      5 H    ARG X   4     -19.339 -11.039  37.183  1.00 29.26 LIG 0.16  HD
BRANCH 3 6
ATOM      6  CA  TRP X   3     -20.387 -10.009  35.054  1.00 30.62 LIG 0.18  C 
BRANCH 6 7
ATOM      7  N   TRP X   3     -21.368 -10.270  33.986  1.00 31.45 LIG-0.34  N 
ATOM      8 H    TRP X   3     -22.115  -9.851  34.056  1.00 31.45 LIG 0.16  HD
ATOM      9  C   MET X   2     -21.046 -11.116  33.009  1.00 32.92 LIG 0.26  C 
ATOM     10 O    MET X   2     -19.941 -11.616  32.918  1.00 32.35 LIG-0.27  OA
BRANCH 9 11
ATOM     11  CA  MET X   2     -22.077 -11.426  31.959  1.00 34.28 LIG 0.40  C 
ATOM     12  N   MET X   2     -21.518 -12.326  30.875  1.00 35.36 LIG 0.61  N 
BRANCH 11 13
ATOM     13  CB  MET X   2     -23.268 -12.091  32.629  1.00 35.71 LIG 0.06  C 
BRANCH 13 14
ATOM     14  CG  MET X   2     -22.914 -13.053  33.730  1.00 37.62 LIG 0.08  C 
BRANCH 14 15
ATOM     15 SD   MET X   2     -23.199 -12.517  35.439  1.00 39.06 LIG-0.17  SA
ATOM     16  CE  MET X   2     -24.842 -11.748  35.295  1.00 45.88 LIG 0.09  C 
ENDBRANCH 14 15
ENDBRANCH 13 14
ENDBRANCH 11 13
ENDBRANCH 9 11
ENDBRANCH 6 7
BRANCH 6 17
ATOM     17  CB  TRP X   3     -19.762  -8.617  34.941  1.00 29.85 LIG 0.07  C 
BRANCH 17 18
ATOM     18  CG  TRP X   3     -19.825  -7.853  36.236  1.00 29.58 LIG-0.03  A 
ATOM     19  CD1 TRP X   3     -20.828  -7.011  36.636  1.00 26.84 LIG 0.10  A 
ATOM     20  NE1 TRP X   3     -20.531  -6.492  37.869  1.00 29.47 LIG-0.36  N 
ATOM     21 HE1  TRP X   3     -21.023  -5.936  38.304  1.00 29.47 LIG 0.17  HD
ATOM     22  CE2 TRP X   3     -19.327  -6.997  38.305  1.00 27.62 LIG 0.04  A 
ATOM     23  CZ2 TRP X   3     -18.604  -6.757  39.513  1.00 28.85 LIG 0.03  A 
ATOM     24  CD2 TRP X   3     -18.848  -7.861  37.298  1.00 25.33 LIG-0.00  A 
ATOM     25  CH2 TRP X   3     -17.383  -7.421  39.682  1.00 28.18 LIG 0.00  A 
ATOM     26  CZ3 TRP X   3     -16.885  -8.276  38.682  1.00 26.79 LIG 0.00  A 
ATOM     27  CE3 TRP X   3     -17.605  -8.490  37.478  1.00 25.86 LIG 0.01  A 
ENDBRANCH 17 18
ENDBRANCH 6 17
ENDBRANCH 3 6
ENDBRANCH 1 2
BRANCH 1 28
ATOM     28  CB  ARG X   4     -20.978 -12.605  38.877  1.00 29.55 LIG 0.04  C 
BRANCH 28 29
ATOM     29  CG  ARG X   4     -22.484 -12.845  38.804  1.00 28.17 LIG 0.02  C 
BRANCH 29 30
ATOM     30  CD  ARG X   4     -22.832 -14.223  39.386  1.00 27.09 LIG 0.14  C 
BRANCH 30 31
ATOM     31  NE  ARG X   4     -24.275 -14.324  39.584  1.00 25.46 LIG-0.23  N 
ATOM     32 HE   ARG X   4     -24.740 -13.601  39.575  1.00 25.46 LIG 0.18  HD
ATOM     33  CZ  ARG X   4     -24.910 -15.482  39.777  1.00 27.27 LIG 0.67  C 
ATOM     34  NH2 ARG X   4     -26.230 -15.513  39.943  1.00 24.12 LIG-0.23  N 
ATOM     35  NH1 ARG X   4     -24.208 -16.612  39.819  1.00 21.32 LIG-0.23  N 
ATOM     36 1HH2 ARG X   4     -26.682 -14.782  39.926  1.00 24.12 LIG 0.17  HD
ATOM     37 2HH2 ARG X   4     -26.631 -16.264  40.066  1.00 24.12 LIG 0.17  HD
ATOM     38 2HH1 ARG X   4     -24.609 -17.362  39.943  1.00 21.32 LIG 0.17  HD
ATOM     39 1HH1 ARG X   4     -23.354 -16.591  39.722  1.00 21.32 LIG 0.17  HD
ENDBRANCH 30 31
ENDBRANCH 29 30
ENDBRANCH 28 29
ENDBRANCH 1 28
BRANCH 1 40
ATOM     40  C   ARG X   4     -19.381 -10.860  39.629  1.00 30.38 LIG 0.24  C 
ATOM     41 O    ARG X   4     -18.263 -11.170  39.251  1.00 31.87 LIG-0.27  OA
ATOM     42  N   PRO X   5     -19.620 -10.305  40.828  1.00 30.60 LIG-0.34  N 
ATOM     43  CA  PRO X   5     -18.506  -9.838  41.683  1.00 31.31 LIG 0.18  C 
ATOM     44  CD  PRO X   5     -20.959 -10.024  41.416  1.00 29.99 LIG 0.13  C 
ATOM     45  CB  PRO X   5     -19.211  -8.944  42.709  1.00 30.70 LIG 0.04  C 
ATOM     46  CG  PRO X   5     -20.664  -9.497  42.797  1.00 29.42 LIG 0.02  C 
BRANCH 43 47
ATOM     47  C   PRO X   5     -17.654 -10.904  42.427  1.00 32.23 LIG 0.24  C 
ATOM     48 O    PRO X   5     -17.168 -10.647  43.570  1.00 32.23 LIG-0.27  OA
ATOM     49  N   TRP X   6     -17.491 -12.075  41.820  1.00 33.50 LIG-0.34  N 
ATOM     50 H    TRP X   6     -17.742 -12.243  41.015  1.00 33.50 LIG 0.16  HD
BRANCH 49 51
ATOM     51  CA  TRP X   6     -16.845 -13.202  42.509  1.00 34.66 LIG 0.19  C 
BRANCH 51 52
ATOM     52  CB  TRP X   6     -17.904 -14.256  42.893  1.00 34.41 LIG 0.08  C 
BRANCH 52 53
ATOM     53  CG  TRP X   6     -17.884 -14.658  44.356  1.00 32.39 LIG-0.03  A 
ATOM     54  CD2 TRP X   6     -16.794 -15.268  45.082  1.00 31.68 LIG-0.00  A 
ATOM     55  CE2 TRP X   6     -17.243 -15.475  46.402  1.00 33.29 LIG 0.04  A 
ATOM     56  CE3 TRP X   6     -15.488 -15.646  44.745  1.00 33.66 LIG 0.01  A 
ATOM     57  CZ2 TRP X   6     -16.420 -16.020  47.397  1.00 33.18 LIG 0.03  A 
ATOM     58  NE1 TRP X   6     -18.531 -15.003  46.477  1.00 30.87 LIG-0.36  N 
ATOM     59  CH2 TRP X   6     -15.156 -16.377  47.049  1.00 32.36 LIG 0.00  A 
ATOM     60  CZ3 TRP X   6     -14.682 -16.213  45.729  1.00 32.37 LIG 0.00  A 
ATOM     61 HE1  TRP X   6     -19.023 -15.003  47.182  1.00 30.87 LIG 0.17  HD
ATOM     62  CD1 TRP X   6     -18.907 -14.532  45.247  1.00 30.01 LIG 0.10  A 
ENDBRANCH 52 53
ENDBRANCH 51 52
BRANCH 51 63
ATOM     63  C   TRP X   6     -15.704 -13.837  41.689  1.00 36.76 LIG 0.20  C 
ATOM     64 O    TRP X   6     -15.003 -13.224  40.864  1.00 37.86 LIG-0.65  OA
ATOM     65 OXT  TRP X   6     -15.440 -15.039  41.809  1.00 39.11 LIG-0.65  OA
ENDBRANCH 51 63
ENDBRANCH 49 51
ENDBRANCH 43 47
ENDBRANCH 1 40
TORSDOF 19
ENDMDL
MODEL 38
USER: ADFR SOLUTION from run 126
USER: SCORE 16.812595 LL:  -4.549 LR: -14.347 RR:   0.000 FEB:  -8.680
USER: RMSD 9.035946
USER: SEED 125
USER: STATUS no improvement in best in 13 clusters for 5 generations
USER: GENES 21
USER: genes 0 Translation |==|  0.57939 0.69859 0.70634
USER: genes 1 Rotation |==|  0.23037 0.73569 0.73588 0.75712
USER: genes 2 Torsion [CB]-CA--N-[C] |==|  0.44444
USER: genes 3 Torsion [N]-C--CA-[N] |==|  0.57963
USER: genes 4 Torsion [C]-CA--N-[C] |==|  0.75462
USER: genes 5 Torsion [N]-C--CA-[N] |==|  0.81676
USER: genes 6 Torsion [C]-CA--CB-[CG] |==|  0.24067
USER: genes 7 Torsion [CA]-CB--CG-[SD] |==|  0.76267
USER: genes 8 Torsion [CB]-CG--SD-[CE] |==|  0.82555
USER: genes 9 Torsion [C]-CA--CB-[CG] |==|  0.39813
USER: genes 10 Torsion [CA]-CB--CG-[CD2] |==|  0.50560
USER: genes 11 Torsion [N]-CA--CB-[CG] |==|  0.42989
USER: genes 12 Torsion [CA]-CB--CG-[CD] |==|  0.22539
USER: genes 13 Torsion [CB]-CG--CD-[NE] |==|  0.71644
USER: genes 14 Torsion [CG]-CD--NE-[CZ] |==|  0.34878
USER: genes 15 Torsion [N]-CA--C-[N] |==|  0.85771
USER: genes 16 Torsion [N]-CA--C-[O] |==|  0.94171
USER: genes 17 Torsion [C]-N--CA-[CB] |==|  0.80313
USER: genes 18 Torsion [N]-CA--CB-[CG] |==|  0.87731
USER: genes 19 Torsion [CA]-CB--CG-[CD2] |==|  0.28012
USER: genes 20 Torsion [N]-CA--C-[O] |==|  0.72138
ROOT
ATOM      1  CA  ARG X   4     -19.698  -8.603  42.563  1.00 29.51 LIG 0.18  C 
ENDROOT
BRANCH 1 2
ATOM      2  N   ARG X   4     -19.645 -10.040  42.818  1.00 29.26 LIG-0.35  N 
ATOM      3  C   TRP X   3     -20.678 -10.867  42.570  1.00 30.37 LIG 0.24  C 
ATOM      4 O    TRP X   3     -21.759 -10.491  42.069  1.00 30.38 LIG-0.27  OA
ATOM      5 H    ARG X   4     -18.894 -10.308  43.140  1.00 29.26 LIG 0.16  HD
BRANCH 3 6
ATOM      6  CA  TRP X   3     -20.461 -12.354  42.921  1.00 30.62 LIG 0.18  C 
BRANCH 6 7
ATOM      7  N   TRP X   3     -21.255 -13.256  42.069  1.00 31.45 LIG-0.34  N 
ATOM      8 H    TRP X   3     -20.864 -13.537  41.357  1.00 31.45 LIG 0.16  HD
ATOM      9  C   MET X   2     -22.494 -13.571  42.443  1.00 32.92 LIG 0.26  C 
ATOM     10 O    MET X   2     -22.966 -13.209  43.505  1.00 32.35 LIG-0.27  OA
BRANCH 9 11
ATOM     11  CA  MET X   2     -23.319 -14.440  41.535  1.00 34.28 LIG 0.40  C 
ATOM     12  N   MET X   2     -23.636 -13.740  40.229  1.00 35.36 LIG 0.61  N 
BRANCH 11 13
ATOM     13  CB  MET X   2     -22.556 -15.727  41.268  1.00 35.71 LIG 0.06  C 
BRANCH 13 14
ATOM     14  CG  MET X   2     -22.772 -16.809  42.291  1.00 37.62 LIG 0.08  C 
BRANCH 14 15
ATOM     15 SD   MET X   2     -21.733 -16.779  43.777  1.00 39.06 LIG-0.17  SA
ATOM     16  CE  MET X   2     -20.079 -17.013  43.054  1.00 45.88 LIG 0.09  C 
ENDBRANCH 14 15
ENDBRANCH 13 14
ENDBRANCH 11 13
ENDBRANCH 9 11
ENDBRANCH 6 7
BRANCH 6 17
ATOM     17  CB  TRP X   3     -18.973 -12.710  42.917  1.00 29.85 LIG 0.07  C 
BRANCH 17 18
ATOM     18  CG  TRP X   3     -18.616 -13.697  43.995  1.00 29.58 LIG-0.03  A 
ATOM     19  CD1 TRP X   3     -19.480 -14.282  44.881  1.00 26.84 LIG 0.10  A 
ATOM     20  NE1 TRP X   3     -18.788 -15.119  45.717  1.00 29.47 LIG-0.36  N 
ATOM     21 HE1  TRP X   3     -19.135 -15.582  46.353  1.00 29.47 LIG 0.17  HD
ATOM     22  CE2 TRP X   3     -17.452 -15.104  45.384  1.00 27.62 LIG 0.04  A 
ATOM     23  CZ2 TRP X   3     -16.346 -15.801  45.958  1.00 28.85 LIG 0.03  A 
ATOM     24  CD2 TRP X   3     -17.304 -14.215  44.299  1.00 25.33 LIG-0.00  A 
ATOM     25  CH2 TRP X   3     -15.080 -15.581  45.400  1.00 28.18 LIG 0.00  A 
ATOM     26  CZ3 TRP X   3     -14.913 -14.687  44.326  1.00 26.79 LIG 0.00  A 
ATOM     27  CE3 TRP X   3     -16.019 -13.987  43.779  1.00 25.86 LIG 0.01  A 
ENDBRANCH 17 18
ENDBRANCH 6 17
ENDBRANCH 3 6
ENDBRANCH 1 2
BRANCH 1 28
ATOM     28  CB  ARG X   4     -18.623  -7.843  43.367  1.00 29.55 LIG 0.04  C 
BRANCH 28 29
ATOM     29  CG  ARG X   4     -18.197  -6.513  42.752  1.00 28.17 LIG 0.02  C 
BRANCH 29 30
ATOM     30  CD  ARG X   4     -19.211  -5.414  43.105  1.00 27.09 LIG 0.14  C 
BRANCH 30 31
ATOM     31  NE  ARG X   4     -20.080  -5.159  41.960  1.00 25.46 LIG-0.23  N 
ATOM     32 HE   ARG X   4     -19.715  -4.967  41.205  1.00 25.46 LIG 0.18  HD
ATOM     33  CZ  ARG X   4     -21.412  -5.210  42.024  1.00 27.27 LIG 0.67  C 
ATOM     34  NH2 ARG X   4     -22.153  -4.977  40.944  1.00 24.12 LIG-0.23  N 
ATOM     35  NH1 ARG X   4     -22.000  -5.481  43.187  1.00 21.32 LIG-0.23  N 
ATOM     36 1HH2 ARG X   4     -21.774  -4.791  40.195  1.00 24.12 LIG 0.17  HD
ATOM     37 2HH2 ARG X   4     -23.011  -5.012  40.995  1.00 24.12 LIG 0.17  HD
ATOM     38 2HH1 ARG X   4     -22.857  -5.515  43.238  1.00 21.32 LIG 0.17  HD
ATOM     39 1HH1 ARG X   4     -21.521  -5.622  43.888  1.00 21.32 LIG 0.17  HD
ENDBRANCH 30 31
ENDBRANCH 29 30
ENDBRANCH 28 29
ENDBRANCH 1 28
BRANCH 1 40
ATOM     40  C   ARG X   4     -19.450  -8.390  41.092  1.00 30.38 LIG 0.24  C 
ATOM     41 O    ARG X   4     -20.240  -7.716  40.450  1.00 31.87 LIG-0.27  OA
ATOM     42  N   PRO X   5     -18.372  -8.972  40.545  1.00 30.60 LIG-0.34  N 
ATOM     43  CA  PRO X   5     -17.958  -8.654  39.160  1.00 31.31 LIG 0.18  C 
ATOM     44  CD  PRO X   5     -17.441  -9.914  41.225  1.00 29.99 LIG 0.13  C 
ATOM     45  CB  PRO X   5     -16.525  -9.191  39.096  1.00 30.70 LIG 0.04  C 
ATOM     46  CG  PRO X   5     -16.476 -10.339  40.148  1.00 29.42 LIG 0.02  C 
BRANCH 43 47
ATOM     47  C   PRO X   5     -18.786  -9.253  37.989  1.00 32.23 LIG 0.24  C 
ATOM     48 O    PRO X   5     -19.509 -10.277  38.179  1.00 32.23 LIG-0.27  OA
ATOM     49  N   TRP X   6     -18.708  -8.632  36.816  1.00 33.50 LIG-0.34  N 
ATOM     50 H    TRP X   6     -18.165  -7.988  36.644  1.00 33.50 LIG 0.16  HD
BRANCH 49 51
ATOM     51  CA  TRP X   6     -19.577  -9.019  35.695  1.00 34.66 LIG 0.19  C 
BRANCH 51 52
ATOM     52  CB  TRP X   6     -19.145 -10.396  35.151  1.00 34.41 LIG 0.08  C 
BRANCH 52 53
ATOM     53  CG  TRP X   6     -17.645 -10.564  34.992  1.00 32.39 LIG-0.03  A 
ATOM     54  CD2 TRP X   6     -16.743 -11.258  35.882  1.00 31.68 LIG-0.00  A 
ATOM     55  CE2 TRP X   6     -15.449 -11.134  35.335  1.00 33.29 LIG 0.04  A 
ATOM     56  CE3 TRP X   6     -16.907 -11.978  37.072  1.00 33.66 LIG 0.01  A 
ATOM     57  CZ2 TRP X   6     -14.325 -11.727  35.927  1.00 33.18 LIG 0.03  A 
ATOM     58  NE1 TRP X   6     -15.563 -10.414  34.171  1.00 30.87 LIG-0.36  N 
ATOM     59  CH2 TRP X   6     -14.508 -12.421  37.081  1.00 32.36 LIG 0.00  A 
ATOM     60  CZ3 TRP X   6     -15.784 -12.542  37.672  1.00 32.37 LIG 0.00  A 
ATOM     61 HE1  TRP X   6     -14.914 -10.213  33.642  1.00 30.87 LIG 0.17  HD
ATOM     62  CD1 TRP X   6     -16.875 -10.068  33.985  1.00 30.01 LIG 0.10  A 
ENDBRANCH 52 53
ENDBRANCH 51 52
BRANCH 51 63
ATOM     63  C   TRP X   6     -21.074  -9.014  36.062  1.00 36.76 LIG 0.20  C 
ATOM     64 O    TRP X   6     -21.735 -10.030  36.342  1.00 37.86 LIG-0.65  OA
ATOM     65 OXT  TRP X   6     -21.713  -7.955  36.075  1.00 39.11 LIG-0.65  OA
ENDBRANCH 51 63
ENDBRANCH 49 51
ENDBRANCH 43 47
ENDBRANCH 1 40
TORSDOF 19
ENDMDL
MODEL 39
USER: ADFR SOLUTION from run 118
USER: SCORE 18.054459 LL:  -4.912 LR: -14.306 RR:   0.000 FEB:  -8.638
USER: RMSD 4.670881
USER: SEED 117
USER: STATUS no improvement in best in 16 clusters for 5 generations
USER: GENES 21
USER: genes 0 Translation |==|  0.49214 0.52891 0.48522
USER: genes 1 Rotation |==|  0.63900 0.32798 0.60061 0.93699
USER: genes 2 Torsion [CB]-CA--N-[C] |==|  0.24350
USER: genes 3 Torsion [N]-C--CA-[N] |==|  0.35937
USER: genes 4 Torsion [C]-CA--N-[C] |==|  0.64983
USER: genes 5 Torsion [N]-C--CA-[N] |==|  0.23292
USER: genes 6 Torsion [C]-CA--CB-[CG] |==|  0.69832
USER: genes 7 Torsion [CA]-CB--CG-[SD] |==|  0.25637
USER: genes 8 Torsion [CB]-CG--SD-[CE] |==|  0.11912
USER: genes 9 Torsion [C]-CA--CB-[CG] |==|  0.27927
USER: genes 10 Torsion [CA]-CB--CG-[CD2] |==|  0.61388
USER: genes 11 Torsion [N]-CA--CB-[CG] |==|  0.88032
USER: genes 12 Torsion [CA]-CB--CG-[CD] |==|  0.70294
USER: genes 13 Torsion [CB]-CG--CD-[NE] |==|  0.03602
USER: genes 14 Torsion [CG]-CD--NE-[CZ] |==|  0.69171
USER: genes 15 Torsion [N]-CA--C-[N] |==|  0.46111
USER: genes 16 Torsion [N]-CA--C-[O] |==|  0.95869
USER: genes 17 Torsion [C]-N--CA-[CB] |==|  0.30546
USER: genes 18 Torsion [N]-CA--CB-[CG] |==|  0.88852
USER: genes 19 Torsion [CA]-CB--CG-[CD2] |==|  0.20300
USER: genes 20 Torsion [N]-CA--C-[O] |==|  0.02751
ROOT
ATOM      1  CA  ARG X   4     -21.530 -11.912  38.417  1.00 29.51 LIG 0.18  C 
ENDROOT
BRANCH 1 2
ATOM      2  N   ARG X   4     -20.946 -11.077  37.371  1.00 29.26 LIG-0.35  N 
ATOM      3  C   TRP X   3     -21.686 -10.441  36.443  1.00 30.37 LIG 0.24  C 
ATOM      4 O    TRP X   3     -22.934 -10.477  36.411  1.00 30.38 LIG-0.27  OA
ATOM      5 H    ARG X   4     -20.089 -11.030  37.403  1.00 29.26 LIG 0.16  HD
BRANCH 3 6
ATOM      6  CA  TRP X   3     -20.906  -9.620  35.394  1.00 30.62 LIG 0.18  C 
BRANCH 6 7
ATOM      7  N   TRP X   3     -21.312  -9.938  34.015  1.00 31.45 LIG-0.34  N 
ATOM      8 H    TRP X   3     -22.153  -9.874  33.849  1.00 31.45 LIG 0.16  HD
ATOM      9  C   MET X   2     -20.378 -10.294  33.134  1.00 32.92 LIG 0.26  C 
ATOM     10 O    MET X   2     -19.192 -10.286  33.404  1.00 32.35 LIG-0.27  OA
BRANCH 9 11
ATOM     11  CA  MET X   2     -20.809 -10.679  31.746  1.00 34.28 LIG 0.40  C 
ATOM     12  N   MET X   2     -20.990  -9.463  30.860  1.00 35.36 LIG 0.61  N 
BRANCH 11 13
ATOM     13  CB  MET X   2     -19.765 -11.610  31.152  1.00 35.71 LIG 0.06  C 
BRANCH 13 14
ATOM     14  CG  MET X   2     -18.931 -11.000  30.058  1.00 37.62 LIG 0.08  C 
BRANCH 14 15
ATOM     15 SD   MET X   2     -17.366 -10.216  30.533  1.00 39.06 LIG-0.17  SA
ATOM     16  CE  MET X   2     -16.715 -11.425  31.727  1.00 45.88 LIG 0.09  C 
ENDBRANCH 14 15
ENDBRANCH 13 14
ENDBRANCH 11 13
ENDBRANCH 9 11
ENDBRANCH 6 7
BRANCH 6 17
ATOM     17  CB  TRP X   3     -20.990  -8.122  35.695  1.00 29.85 LIG 0.07  C 
BRANCH 17 18
ATOM     18  CG  TRP X   3     -19.750  -7.603  36.371  1.00 29.58 LIG-0.03  A 
ATOM     19  CD1 TRP X   3     -18.457  -7.937  36.069  1.00 26.84 LIG 0.10  A 
ATOM     20  NE1 TRP X   3     -17.600  -7.270  36.903  1.00 29.47 LIG-0.36  N 
ATOM     21 HE1  TRP X   3     -16.742  -7.338  36.891  1.00 29.47 LIG 0.17  HD
ATOM     22  CE2 TRP X   3     -18.320  -6.473  37.765  1.00 27.62 LIG 0.04  A 
ATOM     23  CZ2 TRP X   3     -17.881  -5.601  38.807  1.00 28.85 LIG 0.03  A 
ATOM     24  CD2 TRP X   3     -19.685  -6.658  37.460  1.00 25.33 LIG-0.00  A 
ATOM     25  CH2 TRP X   3     -18.861  -4.910  39.531  1.00 28.18 LIG 0.00  A 
ATOM     26  CZ3 TRP X   3     -20.227  -5.093  39.249  1.00 26.79 LIG 0.00  A 
ATOM     27  CE3 TRP X   3     -20.649  -5.979  38.223  1.00 25.86 LIG 0.01  A 
ENDBRANCH 17 18
ENDBRANCH 6 17
ENDBRANCH 3 6
ENDBRANCH 1 2
BRANCH 1 28
ATOM     28  CB  ARG X   4     -21.716 -13.369  37.944  1.00 29.55 LIG 0.04  C 
BRANCH 28 29
ATOM     29  CG  ARG X   4     -22.274 -13.508  36.530  1.00 28.17 LIG 0.02  C 
BRANCH 29 30
ATOM     30  CD  ARG X   4     -23.737 -13.975  36.578  1.00 27.09 LIG 0.14  C 
BRANCH 30 31
ATOM     31  NE  ARG X   4     -24.250 -13.852  37.940  1.00 25.46 LIG-0.23  N 
ATOM     32 HE   ARG X   4     -24.368 -13.063  38.261  1.00 25.46 LIG 0.18  HD
ATOM     33  CZ  ARG X   4     -24.544 -14.900  38.710  1.00 27.27 LIG 0.67  C 
ATOM     34  NH2 ARG X   4     -25.017 -14.726  39.942  1.00 24.12 LIG-0.23  N 
ATOM     35  NH1 ARG X   4     -24.346 -16.130  38.242  1.00 21.32 LIG-0.23  N 
ATOM     36 1HH2 ARG X   4     -25.135 -13.932  40.248  1.00 24.12 LIG 0.17  HD
ATOM     37 2HH2 ARG X   4     -25.204 -15.408  40.431  1.00 24.12 LIG 0.17  HD
ATOM     38 2HH1 ARG X   4     -24.533 -16.812  38.732  1.00 21.32 LIG 0.17  HD
ATOM     39 1HH1 ARG X   4     -24.031 -16.243  37.450  1.00 21.32 LIG 0.17  HD
ENDBRANCH 30 31
ENDBRANCH 29 30
ENDBRANCH 28 29
ENDBRANCH 1 28
BRANCH 1 40
ATOM     40  C   ARG X   4     -20.589 -11.897  39.594  1.00 30.38 LIG 0.24  C 
ATOM     41 O    ARG X   4     -19.450 -11.488  39.436  1.00 31.87 LIG-0.27  OA
ATOM     42  N   PRO X   5     -21.046 -12.356  40.769  1.00 30.60 LIG-0.34  N 
ATOM     43  CA  PRO X   5     -20.250 -12.195  42.007  1.00 31.31 LIG 0.18  C 
ATOM     44  CD  PRO X   5     -22.369 -12.993  41.011  1.00 29.99 LIG 0.13  C 
ATOM     45  CB  PRO X   5     -21.274 -12.470  43.113  1.00 30.70 LIG 0.04  C 
ATOM     46  CG  PRO X   5     -22.334 -13.406  42.460  1.00 29.42 LIG 0.02  C 
BRANCH 43 47
ATOM     47  C   PRO X   5     -19.013 -13.114  42.211  1.00 32.23 LIG 0.24  C 
ATOM     48 O    PRO X   5     -18.862 -14.148  41.492  1.00 32.23 LIG-0.27  OA
ATOM     49  N   TRP X   6     -18.137 -12.748  43.142  1.00 33.50 LIG-0.34  N 
ATOM     50 H    TRP X   6     -18.259 -12.099  43.693  1.00 33.50 LIG 0.16  HD
BRANCH 49 51
ATOM     51  CA  TRP X   6     -16.858 -13.454  43.298  1.00 34.66 LIG 0.19  C 
BRANCH 51 52
ATOM     52  CB  TRP X   6     -15.699 -12.544  42.842  1.00 34.41 LIG 0.08  C 
BRANCH 52 53
ATOM     53  CG  TRP X   6     -15.997 -11.729  41.597  1.00 32.39 LIG-0.03  A 
ATOM     54  CD2 TRP X   6     -16.866 -10.581  41.489  1.00 31.68 LIG-0.00  A 
ATOM     55  CE2 TRP X   6     -16.843 -10.171  40.140  1.00 33.29 LIG 0.04  A 
ATOM     56  CE3 TRP X   6     -17.647  -9.858  42.401  1.00 33.66 LIG 0.01  A 
ATOM     57  CZ2 TRP X   6     -17.552  -9.051  39.684  1.00 33.18 LIG 0.03  A 
ATOM     58  NE1 TRP X   6     -15.995 -11.018  39.469  1.00 30.87 LIG-0.36  N 
ATOM     59  CH2 TRP X   6     -18.301  -8.365  40.586  1.00 32.36 LIG 0.00  A 
ATOM     60  CZ3 TRP X   6     -18.372  -8.763  41.939  1.00 32.37 LIG 0.00  A 
ATOM     61 HE1  TRP X   6     -15.801 -10.970  38.632  1.00 30.87 LIG 0.17  HD
ATOM     62  CD1 TRP X   6     -15.508 -11.952  40.345  1.00 30.01 LIG 0.10  A 
ENDBRANCH 52 53
ENDBRANCH 51 52
BRANCH 51 63
ATOM     63  C   TRP X   6     -16.625 -13.971  44.731  1.00 36.76 LIG 0.20  C 
ATOM     64 O    TRP X   6     -17.486 -13.977  45.628  1.00 37.86 LIG-0.65  OA
ATOM     65 OXT  TRP X   6     -15.516 -14.404  45.070  1.00 39.11 LIG-0.65  OA
ENDBRANCH 51 63
ENDBRANCH 49 51
ENDBRANCH 43 47
ENDBRANCH 1 40
TORSDOF 19
ENDMDL
MODEL 40
USER: ADFR SOLUTION from run 133
USER: SCORE 16.924235 LL:  -4.808 LR: -14.314 RR:   0.000 FEB:  -8.646
USER: RMSD 8.417910
USER: SEED 132
USER: STATUS no improvement in best in 16 clusters for 5 generations
USER: GENES 21
USER: genes 0 Translation |==|  0.57334 0.68936 0.69511
USER: genes 1 Rotation |==|  0.22127 0.73197 0.69558 0.78328
USER: genes 2 Torsion [CB]-CA--N-[C] |==|  0.41928
USER: genes 3 Torsion [N]-C--CA-[N] |==|  0.51780
USER: genes 4 Torsion [C]-CA--N-[C] |==|  0.18488
USER: genes 5 Torsion [N]-C--CA-[N] |==|  0.48345
USER: genes 6 Torsion [C]-CA--CB-[CG] |==|  0.56767
USER: genes 7 Torsion [CA]-CB--CG-[SD] |==|  0.61491
USER: genes 8 Torsion [CB]-CG--SD-[CE] |==|  0.31514
USER: genes 9 Torsion [C]-CA--CB-[CG] |==|  0.36354
USER: genes 10 Torsion [CA]-CB--CG-[CD2] |==|  0.61536
USER: genes 11 Torsion [N]-CA--CB-[CG] |==|  0.45036
USER: genes 12 Torsion [CA]-CB--CG-[CD] |==|  0.23185
USER: genes 13 Torsion [CB]-CG--CD-[NE] |==|  0.72347
USER: genes 14 Torsion [CG]-CD--NE-[CZ] |==|  0.35280
USER: genes 15 Torsion [N]-CA--C-[N] |==|  0.85604
USER: genes 16 Torsion [N]-CA--C-[O] |==|  0.02316
USER: genes 17 Torsion [C]-N--CA-[CB] |==|  0.25398
USER: genes 18 Torsion [N]-CA--CB-[CG] |==|  0.87867
USER: genes 19 Torsion [CA]-CB--CG-[CD2] |==|  0.21809
USER: genes 20 Torsion [N]-CA--C-[O] |==|  0.99554
ROOT
ATOM      1  CA  ARG X   4     -19.825  -8.783  42.352  1.00 29.51 LIG 0.18  C 
ENDROOT
BRANCH 1 2
ATOM      2  N   ARG X   4     -19.970 -10.207  42.645  1.00 29.26 LIG-0.35  N 
ATOM      3  C   TRP X   3     -21.105 -10.891  42.410  1.00 30.37 LIG 0.24  C 
ATOM      4 O    TRP X   3     -22.123 -10.384  41.891  1.00 30.38 LIG-0.27  OA
ATOM      5 H    ARG X   4     -19.264 -10.566  42.980  1.00 29.26 LIG 0.16  HD
BRANCH 3 6
ATOM      6  CA  TRP X   3     -21.096 -12.384  42.801  1.00 30.62 LIG 0.18  C 
BRANCH 6 7
ATOM      7  N   TRP X   3     -22.317 -13.086  42.374  1.00 31.45 LIG-0.34  N 
ATOM      8 H    TRP X   3     -22.828 -13.366  43.006  1.00 31.45 LIG 0.16  HD
ATOM      9  C   MET X   2     -22.549 -13.242  41.071  1.00 32.92 LIG 0.26  C 
ATOM     10 O    MET X   2     -21.832 -12.751  40.219  1.00 32.35 LIG-0.27  OA
BRANCH 9 11
ATOM     11  CA  MET X   2     -23.765 -14.016  40.645  1.00 34.28 LIG 0.40  C 
ATOM     12  N   MET X   2     -23.956 -13.974  39.142  1.00 35.36 LIG 0.61  N 
BRANCH 11 13
ATOM     13  CB  MET X   2     -23.615 -15.455  41.114  1.00 35.71 LIG 0.06  C 
BRANCH 13 14
ATOM     14  CG  MET X   2     -24.404 -16.460  40.319  1.00 37.62 LIG 0.08  C 
BRANCH 14 15
ATOM     15 SD   MET X   2     -25.248 -17.778  41.234  1.00 39.06 LIG-0.17  SA
ATOM     16  CE  MET X   2     -26.992 -17.355  40.931  1.00 45.88 LIG 0.09  C 
ENDBRANCH 14 15
ENDBRANCH 13 14
ENDBRANCH 11 13
ENDBRANCH 9 11
ENDBRANCH 6 7
BRANCH 6 17
ATOM     17  CB  TRP X   3     -19.824 -13.074  42.306  1.00 29.85 LIG 0.07  C 
BRANCH 17 18
ATOM     18  CG  TRP X   3     -19.150 -13.879  43.385  1.00 29.58 LIG-0.03  A 
ATOM     19  CD1 TRP X   3     -19.767 -14.678  44.309  1.00 26.84 LIG 0.10  A 
ATOM     20  NE1 TRP X   3     -18.828 -15.241  45.133  1.00 29.47 LIG-0.36  N 
ATOM     21 HE1  TRP X   3     -18.998 -15.773  45.787  1.00 29.47 LIG 0.17  HD
ATOM     22  CE2 TRP X   3     -17.571 -14.827  44.753  1.00 27.62 LIG 0.04  A 
ATOM     23  CZ2 TRP X   3     -16.289 -15.136  45.299  1.00 28.85 LIG 0.03  A 
ATOM     24  CD2 TRP X   3     -17.734 -13.962  43.651  1.00 25.33 LIG-0.00  A 
ATOM     25  CH2 TRP X   3     -15.168 -14.553  44.694  1.00 28.18 LIG 0.00  A 
ATOM     26  CZ3 TRP X   3     -15.314 -13.678  43.602  1.00 26.79 LIG 0.00  A 
ATOM     27  CE3 TRP X   3     -16.597 -13.364  43.083  1.00 25.86 LIG 0.01  A 
ENDBRANCH 17 18
ENDBRANCH 6 17
ENDBRANCH 3 6
ENDBRANCH 1 2
BRANCH 1 28
ATOM     28  CB  ARG X   4     -18.814  -8.108  43.303  1.00 29.55 LIG 0.04  C 
BRANCH 28 29
ATOM     29  CG  ARG X   4     -18.287  -6.762  42.811  1.00 28.17 LIG 0.02  C 
BRANCH 29 30
ATOM     30  CD  ARG X   4     -19.271  -5.640  43.174  1.00 27.09 LIG 0.14  C 
BRANCH 30 31
ATOM     31  NE  ARG X   4     -20.090  -5.307  42.012  1.00 25.46 LIG-0.23  N 
ATOM     32 HE   ARG X   4     -19.692  -5.118  41.274  1.00 25.46 LIG 0.18  HD
ATOM     33  CZ  ARG X   4     -21.423  -5.280  42.038  1.00 27.27 LIG 0.67  C 
ATOM     34  NH2 ARG X   4     -22.117  -4.978  40.944  1.00 24.12 LIG-0.23  N 
ATOM     35  NH1 ARG X   4     -22.060  -5.545  43.177  1.00 21.32 LIG-0.23  N 
ATOM     36 1HH2 ARG X   4     -21.706  -4.796  40.211  1.00 24.12 LIG 0.17  HD
ATOM     37 2HH2 ARG X   4     -22.977  -4.964  40.970  1.00 24.12 LIG 0.17  HD
ATOM     38 2HH1 ARG X   4     -22.919  -5.530  43.202  1.00 21.32 LIG 0.17  HD
ATOM     39 1HH1 ARG X   4     -21.611  -5.730  43.886  1.00 21.32 LIG 0.17  HD
ENDBRANCH 30 31
ENDBRANCH 29 30
ENDBRANCH 28 29
ENDBRANCH 1 28
BRANCH 1 40
ATOM     40  C   ARG X   4     -19.325  -8.655  40.936  1.00 30.38 LIG 0.24  C 
ATOM     41 O    ARG X   4     -19.932  -7.938  40.157  1.00 31.87 LIG-0.27  OA
ATOM     42  N   PRO X   5     -18.236  -9.358  40.588  1.00 30.60 LIG-0.34  N 
ATOM     43  CA  PRO X   5     -17.577  -9.138  39.281  1.00 31.31 LIG 0.18  C 
ATOM     44  CD  PRO X   5     -17.524 -10.354  41.435  1.00 29.99 LIG 0.13  C 
ATOM     45  CB  PRO X   5     -16.213  -9.810  39.466  1.00 30.70 LIG 0.04  C 
ATOM     46  CG  PRO X   5     -16.447 -10.912  40.541  1.00 29.42 LIG 0.02  C 
BRANCH 43 47
ATOM     47  C   PRO X   5     -18.262  -9.706  38.007  1.00 32.23 LIG 0.24  C 
ATOM     48 O    PRO X   5     -19.429 -10.199  38.077  1.00 32.23 LIG-0.27  OA
ATOM     49  N   TRP X   6     -17.580  -9.625  36.869  1.00 33.50 LIG-0.34  N 
ATOM     50 H    TRP X   6     -16.760  -9.370  36.812  1.00 33.50 LIG 0.16  HD
BRANCH 49 51
ATOM     51  CA  TRP X   6     -18.202  -9.980  35.586  1.00 34.66 LIG 0.19  C 
BRANCH 51 52
ATOM     52  CB  TRP X   6     -18.832  -8.726  34.945  1.00 34.41 LIG 0.08  C 
BRANCH 52 53
ATOM     53  CG  TRP X   6     -19.607  -7.852  35.913  1.00 32.39 LIG-0.03  A 
ATOM     54  CD2 TRP X   6     -19.067  -6.907  36.864  1.00 31.68 LIG-0.00  A 
ATOM     55  CE2 TRP X   6     -20.161  -6.346  37.554  1.00 33.29 LIG 0.04  A 
ATOM     56  CE3 TRP X   6     -17.773  -6.478  37.186  1.00 33.66 LIG 0.01  A 
ATOM     57  CZ2 TRP X   6     -20.003  -5.355  38.532  1.00 33.18 LIG 0.03  A 
ATOM     58  NE1 TRP X   6     -21.303  -6.911  37.040  1.00 30.87 LIG-0.36  N 
ATOM     59  CH2 TRP X   6     -18.739  -4.952  38.828  1.00 32.36 LIG 0.00  A 
ATOM     60  CZ3 TRP X   6     -17.617  -5.513  38.178  1.00 32.37 LIG 0.00  A 
ATOM     61 HE1  TRP X   6     -22.107  -6.725  37.286  1.00 30.87 LIG 0.17  HD
ATOM     62  CD1 TRP X   6     -20.959  -7.817  36.073  1.00 30.01 LIG 0.10  A 
ENDBRANCH 52 53
ENDBRANCH 51 52
BRANCH 51 63
ATOM     63  C   TRP X   6     -17.225 -10.668  34.611  1.00 36.76 LIG 0.20  C 
ATOM     64 O    TRP X   6     -16.023 -10.882  34.851  1.00 37.86 LIG-0.65  OA
ATOM     65 OXT  TRP X   6     -17.608 -11.034  33.493  1.00 39.11 LIG-0.65  OA
ENDBRANCH 51 63
ENDBRANCH 49 51
ENDBRANCH 43 47
ENDBRANCH 1 40
TORSDOF 19
ENDMDL
MODEL 41
USER: ADFR SOLUTION from run 79
USER: SCORE 18.202542 LL:  -5.092 LR: -14.275 RR:   0.000 FEB:  -8.608
USER: RMSD 7.427996
USER: SEED 78
USER: STATUS no improvement in best in 17 clusters for 5 generations
USER: GENES 21
USER: genes 0 Translation |==|  0.53772 0.50099 0.61872
USER: genes 1 Rotation |==|  0.88209 0.51193 0.28704 0.74189
USER: genes 2 Torsion [CB]-CA--N-[C] |==|  0.16111
USER: genes 3 Torsion [N]-C--CA-[N] |==|  0.15102
USER: genes 4 Torsion [C]-CA--N-[C] |==|  0.74794
USER: genes 5 Torsion [N]-C--CA-[N] |==|  0.50396
USER: genes 6 Torsion [C]-CA--CB-[CG] |==|  0.43305
USER: genes 7 Torsion [CA]-CB--CG-[SD] |==|  0.76345
USER: genes 8 Torsion [CB]-CG--SD-[CE] |==|  0.20174
USER: genes 9 Torsion [C]-CA--CB-[CG] |==|  0.73556
USER: genes 10 Torsion [CA]-CB--CG-[CD2] |==|  0.76115
USER: genes 11 Torsion [N]-CA--CB-[CG] |==|  0.66676
USER: genes 12 Torsion [CA]-CB--CG-[CD] |==|  0.77492
USER: genes 13 Torsion [CB]-CG--CD-[NE] |==|  0.66577
USER: genes 14 Torsion [CG]-CD--NE-[CZ] |==|  0.53723
USER: genes 15 Torsion [N]-CA--C-[N] |==|  0.81829
USER: genes 16 Torsion [N]-CA--C-[O] |==|  0.40303
USER: genes 17 Torsion [C]-N--CA-[CB] |==|  0.31802
USER: genes 18 Torsion [N]-CA--CB-[CG] |==|  0.91780
USER: genes 19 Torsion [CA]-CB--CG-[CD2] |==|  0.73597
USER: genes 20 Torsion [N]-CA--C-[O] |==|  0.07280
ROOT
ATOM      1  CA  ARG X   4     -20.573 -12.457  40.920  1.00 29.51 LIG 0.18  C 
ENDROOT
BRANCH 1 2
ATOM      2  N   ARG X   4     -19.821 -11.257  41.278  1.00 29.26 LIG-0.35  N 
ATOM      3  C   TRP X   3     -20.242 -10.378  42.206  1.00 30.37 LIG 0.24  C 
ATOM      4 O    TRP X   3     -21.292 -10.522  42.868  1.00 30.38 LIG-0.27  OA
ATOM      5 H    ARG X   4     -19.086 -11.165  40.842  1.00 29.26 LIG 0.16  HD
BRANCH 3 6
ATOM      6  CA  TRP X   3     -19.338  -9.150  42.444  1.00 30.62 LIG 0.18  C 
BRANCH 6 7
ATOM      7  N   TRP X   3     -19.055  -8.410  41.202  1.00 31.45 LIG-0.34  N 
ATOM      8 H    TRP X   3     -19.615  -7.791  41.001  1.00 31.45 LIG 0.16  HD
ATOM      9  C   MET X   2     -17.978  -8.738  40.489  1.00 32.92 LIG 0.26  C 
ATOM     10 O    MET X   2     -17.174  -9.568  40.867  1.00 32.35 LIG-0.27  OA
BRANCH 9 11
ATOM     11  CA  MET X   2     -17.733  -8.021  39.190  1.00 34.28 LIG 0.40  C 
ATOM     12  N   MET X   2     -16.490  -8.537  38.493  1.00 35.36 LIG 0.61  N 
BRANCH 11 13
ATOM     13  CB  MET X   2     -18.949  -8.203  38.296  1.00 35.71 LIG 0.06  C 
BRANCH 13 14
ATOM     14  CG  MET X   2     -19.124  -7.135  37.250  1.00 37.62 LIG 0.08  C 
BRANCH 14 15
ATOM     15 SD   MET X   2     -19.992  -5.619  37.735  1.00 39.06 LIG-0.17  SA
ATOM     16  CE  MET X   2     -18.740  -4.819  38.788  1.00 45.88 LIG 0.09  C 
ENDBRANCH 14 15
ENDBRANCH 13 14
ENDBRANCH 11 13
ENDBRANCH 9 11
ENDBRANCH 6 7
BRANCH 6 17
ATOM     17  CB  TRP X   3     -19.911  -8.249  43.540  1.00 29.85 LIG 0.07  C 
BRANCH 17 18
ATOM     18  CG  TRP X   3     -20.740  -7.124  42.982  1.00 29.58 LIG-0.03  A 
ATOM     19  CD1 TRP X   3     -22.097  -7.123  42.805  1.00 26.84 LIG 0.10  A 
ATOM     20  NE1 TRP X   3     -22.493  -5.927  42.267  1.00 29.47 LIG-0.36  N 
ATOM     21 HE1  TRP X   3     -23.302  -5.716  42.069  1.00 29.47 LIG 0.17  HD
ATOM     22  CE2 TRP X   3     -21.395  -5.114  42.090  1.00 27.62 LIG 0.04  A 
ATOM     23  CZ2 TRP X   3     -21.297  -3.790  41.566  1.00 28.85 LIG 0.03  A 
ATOM     24  CD2 TRP X   3     -20.267  -5.837  42.530  1.00 25.33 LIG-0.00  A 
ATOM     25  CH2 TRP X   3     -20.024  -3.208  41.504  1.00 28.18 LIG 0.00  A 
ATOM     26  CZ3 TRP X   3     -18.887  -3.921  41.927  1.00 26.79 LIG 0.00  A 
ATOM     27  CE3 TRP X   3     -18.998  -5.244  42.427  1.00 25.86 LIG 0.01  A 
ENDBRANCH 17 18
ENDBRANCH 6 17
ENDBRANCH 3 6
ENDBRANCH 1 2
BRANCH 1 28
ATOM     28  CB  ARG X   4     -21.992 -12.111  40.424  1.00 29.55 LIG 0.04  C 
BRANCH 28 29
ATOM     29  CG  ARG X   4     -23.118 -12.723  41.254  1.00 28.17 LIG 0.02  C 
BRANCH 29 30
ATOM     30  CD  ARG X   4     -23.348 -14.186  40.844  1.00 27.09 LIG 0.14  C 
BRANCH 30 31
ATOM     31  NE  ARG X   4     -24.719 -14.356  40.372  1.00 25.46 LIG-0.23  N 
ATOM     32 HE   ARG X   4     -25.181 -13.652  40.199  1.00 25.46 LIG 0.18  HD
ATOM     33  CZ  ARG X   4     -25.291 -15.548  40.193  1.00 27.27 LIG 0.67  C 
ATOM     34  NH2 ARG X   4     -26.542 -15.641  39.752  1.00 24.12 LIG-0.23  N 
ATOM     35  NH1 ARG X   4     -24.603 -16.651  40.478  1.00 21.32 LIG-0.23  N 
ATOM     36 1HH2 ARG X   4     -26.991 -14.928  39.578  1.00 24.12 LIG 0.17  HD
ATOM     37 2HH2 ARG X   4     -26.903 -16.414  39.639  1.00 24.12 LIG 0.17  HD
ATOM     38 2HH1 ARG X   4     -24.964 -17.423  40.367  1.00 21.32 LIG 0.17  HD
ATOM     39 1HH1 ARG X   4     -23.798 -16.591  40.773  1.00 21.32 LIG 0.17  HD
ENDBRANCH 30 31
ENDBRANCH 29 30
ENDBRANCH 28 29
ENDBRANCH 1 28
BRANCH 1 40
ATOM     40  C   ARG X   4     -19.824 -13.153  39.813  1.00 30.38 LIG 0.24  C 
ATOM     41 O    ARG X   4     -19.325 -14.246  40.032  1.00 31.87 LIG-0.27  OA
ATOM     42  N   PRO X   5     -19.721 -12.525  38.632  1.00 30.60 LIG-0.34  N 
ATOM     43  CA  PRO X   5     -19.172 -13.222  37.447  1.00 31.31 LIG 0.18  C 
ATOM     44  CD  PRO X   5     -20.181 -11.142  38.328  1.00 29.99 LIG 0.13  C 
ATOM     45  CB  PRO X   5     -19.604 -12.322  36.286  1.00 30.70 LIG 0.04  C 
ATOM     46  CG  PRO X   5     -19.743 -10.900  36.907  1.00 29.42 LIG 0.02  C 
BRANCH 43 47
ATOM     47  C   PRO X   5     -17.636 -13.452  37.376  1.00 32.23 LIG 0.24  C 
ATOM     48 O    PRO X   5     -17.174 -14.507  36.845  1.00 32.23 LIG-0.27  OA
ATOM     49  N   TRP X   6     -16.860 -12.493  37.872  1.00 33.50 LIG-0.34  N 
ATOM     50 H    TRP X   6     -17.151 -11.810  38.307  1.00 33.50 LIG 0.16  HD
BRANCH 49 51
ATOM     51  CA  TRP X   6     -15.401 -12.538  37.705  1.00 34.66 LIG 0.19  C 
BRANCH 51 52
ATOM     52  CB  TRP X   6     -14.939 -11.364  36.818  1.00 34.41 LIG 0.08  C 
BRANCH 52 53
ATOM     53  CG  TRP X   6     -15.967 -10.908  35.799  1.00 32.39 LIG-0.03  A 
ATOM     54  CD2 TRP X   6     -16.071 -11.316  34.417  1.00 31.68 LIG-0.00  A 
ATOM     55  CE2 TRP X   6     -17.164 -10.620  33.862  1.00 33.29 LIG 0.04  A 
ATOM     56  CE3 TRP X   6     -15.356 -12.208  33.606  1.00 33.66 LIG 0.01  A 
ATOM     57  CZ2 TRP X   6     -17.577 -10.806  32.535  1.00 33.18 LIG 0.03  A 
ATOM     58  NE1 TRP X   6     -17.701  -9.840  34.857  1.00 30.87 LIG-0.36  N 
ATOM     59  CH2 TRP X   6     -16.870 -11.676  31.768  1.00 32.36 LIG 0.00  A 
ATOM     60  CZ3 TRP X   6     -15.752 -12.370  32.281  1.00 32.37 LIG 0.00  A 
ATOM     61 HE1  TRP X   6     -18.387  -9.327  34.774  1.00 30.87 LIG 0.17  HD
ATOM     62  CD1 TRP X   6     -16.971 -10.010  36.003  1.00 30.01 LIG 0.10  A 
ENDBRANCH 52 53
ENDBRANCH 51 52
BRANCH 51 63
ATOM     63  C   TRP X   6     -14.640 -12.551  39.046  1.00 36.76 LIG 0.20  C 
ATOM     64 O    TRP X   6     -15.104 -12.982  40.116  1.00 37.86 LIG-0.65  OA
ATOM     65 OXT  TRP X   6     -13.492 -12.096  39.120  1.00 39.11 LIG-0.65  OA
ENDBRANCH 51 63
ENDBRANCH 49 51
ENDBRANCH 43 47
ENDBRANCH 1 40
TORSDOF 19
ENDMDL
MODEL 42
USER: ADFR SOLUTION from run 118
USER: SCORE 18.048537 LL:  -4.326 LR: -14.246 RR:   0.000 FEB:  -8.578
USER: RMSD 6.048287
USER: SEED 117
USER: STATUS no improvement in best in 16 clusters for 5 generations
USER: GENES 21
USER: genes 0 Translation |==|  0.41943 0.45462 0.53162
USER: genes 1 Rotation |==|  0.64713 0.50065 0.70153 0.93329
USER: genes 2 Torsion [CB]-CA--N-[C] |==|  0.85887
USER: genes 3 Torsion [N]-C--CA-[N] |==|  0.39858
USER: genes 4 Torsion [C]-CA--N-[C] |==|  0.81799
USER: genes 5 Torsion [N]-C--CA-[N] |==|  0.09404
USER: genes 6 Torsion [C]-CA--CB-[CG] |==|  0.34258
USER: genes 7 Torsion [CA]-CB--CG-[SD] |==|  0.72082
USER: genes 8 Torsion [CB]-CG--SD-[CE] |==|  0.14611
USER: genes 9 Torsion [C]-CA--CB-[CG] |==|  0.25912
USER: genes 10 Torsion [CA]-CB--CG-[CD2] |==|  0.26639
USER: genes 11 Torsion [N]-CA--CB-[CG] |==|  0.72172
USER: genes 12 Torsion [CA]-CB--CG-[CD] |==|  0.18016
USER: genes 13 Torsion [CB]-CG--CD-[NE] |==|  0.69419
USER: genes 14 Torsion [CG]-CD--NE-[CZ] |==|  0.72660
USER: genes 15 Torsion [N]-CA--C-[N] |==|  0.44444
USER: genes 16 Torsion [N]-CA--C-[O] |==|  0.68912
USER: genes 17 Torsion [C]-N--CA-[CB] |==|  0.80164
USER: genes 18 Torsion [N]-CA--CB-[CG] |==|  0.86667
USER: genes 19 Torsion [CA]-CB--CG-[CD2] |==|  0.25562
USER: genes 20 Torsion [N]-CA--C-[O] |==|  0.06620
ROOT
ATOM      1  CA  ARG X   4     -23.057 -13.361  39.287  1.00 29.51 LIG 0.18  C 
ENDROOT
BRANCH 1 2
ATOM      2  N   ARG X   4     -23.518 -12.797  38.021  1.00 29.26 LIG-0.35  N 
ATOM      3  C   TRP X   3     -22.776 -12.812  36.898  1.00 30.37 LIG 0.24  C 
ATOM      4 O    TRP X   3     -21.645 -13.338  36.825  1.00 30.38 LIG-0.27  OA
ATOM      5 H    ARG X   4     -24.306 -12.455  38.060  1.00 29.26 LIG 0.16  HD
BRANCH 3 6
ATOM      6  CA  TRP X   3     -23.405 -12.149  35.655  1.00 30.62 LIG 0.18  C 
BRANCH 6 7
ATOM      7  N   TRP X   3     -22.411 -11.445  34.828  1.00 31.45 LIG-0.34  N 
ATOM      8 H    TRP X   3     -22.281 -11.771  34.043  1.00 31.45 LIG 0.16  HD
ATOM      9  C   MET X   2     -21.794 -10.378  35.332  1.00 32.92 LIG 0.26  C 
ATOM     10 O    MET X   2     -22.080  -9.912  36.419  1.00 32.35 LIG-0.27  OA
BRANCH 9 11
ATOM     11  CA  MET X   2     -20.734  -9.704  34.505  1.00 34.28 LIG 0.40  C 
ATOM     12  N   MET X   2     -21.055  -9.770  33.025  1.00 35.36 LIG 0.61  N 
BRANCH 11 13
ATOM     13  CB  MET X   2     -20.615  -8.256  34.951  1.00 35.71 LIG 0.06  C 
BRANCH 13 14
ATOM     14  CG  MET X   2     -19.236  -7.846  35.391  1.00 37.62 LIG 0.08  C 
BRANCH 14 15
ATOM     15 SD   MET X   2     -18.910  -7.775  37.174  1.00 39.06 LIG-0.17  SA
ATOM     16  CE  MET X   2     -19.457  -9.430  37.697  1.00 45.88 LIG 0.09  C 
ENDBRANCH 14 15
ENDBRANCH 13 14
ENDBRANCH 11 13
ENDBRANCH 9 11
ENDBRANCH 6 7
BRANCH 6 17
ATOM     17  CB  TRP X   3     -24.223 -13.160  34.848  1.00 29.85 LIG 0.07  C 
BRANCH 17 18
ATOM     18  CG  TRP X   3     -25.677 -13.161  35.235  1.00 29.58 LIG-0.03  A 
ATOM     19  CD1 TRP X   3     -26.241 -13.848  36.276  1.00 26.84 LIG 0.10  A 
ATOM     20  NE1 TRP X   3     -27.590 -13.609  36.310  1.00 29.47 LIG-0.36  N 
ATOM     21 HE1  TRP X   3     -28.139 -13.946  36.880  1.00 29.47 LIG 0.17  HD
ATOM     22  CE2 TRP X   3     -27.933 -12.749  35.291  1.00 27.62 LIG 0.04  A 
ATOM     23  CZ2 TRP X   3     -29.203 -12.213  34.919  1.00 28.85 LIG 0.03  A 
ATOM     24  CD2 TRP X   3     -26.749 -12.444  34.588  1.00 25.33 LIG-0.00  A 
ATOM     25  CH2 TRP X   3     -29.245 -11.349  33.816  1.00 28.18 LIG 0.00  A 
ATOM     26  CZ3 TRP X   3     -28.076 -11.045  33.096  1.00 26.79 LIG 0.00  A 
ATOM     27  CE3 TRP X   3     -26.824 -11.602  33.466  1.00 25.86 LIG 0.01  A 
ENDBRANCH 17 18
ENDBRANCH 6 17
ENDBRANCH 3 6
ENDBRANCH 1 2
BRANCH 1 28
ATOM     28  CB  ARG X   4     -22.536 -14.803  39.111  1.00 29.55 LIG 0.04  C 
BRANCH 28 29
ATOM     29  CG  ARG X   4     -23.529 -15.887  39.521  1.00 28.17 LIG 0.02  C 
BRANCH 29 30
ATOM     30  CD  ARG X   4     -24.759 -15.859  38.602  1.00 27.09 LIG 0.14  C 
BRANCH 30 31
ATOM     31  NE  ARG X   4     -25.920 -15.379  39.346  1.00 25.46 LIG-0.23  N 
ATOM     32 HE   ARG X   4     -26.018 -14.531  39.446  1.00 25.46 LIG 0.18  HD
ATOM     33  CZ  ARG X   4     -26.837 -16.189  39.877  1.00 27.27 LIG 0.67  C 
ATOM     34  NH2 ARG X   4     -27.880 -15.693  40.538  1.00 24.12 LIG-0.23  N 
ATOM     35  NH1 ARG X   4     -26.693 -17.507  39.755  1.00 21.32 LIG-0.23  N 
ATOM     36 1HH2 ARG X   4     -27.967 -14.843  40.627  1.00 24.12 LIG 0.17  HD
ATOM     37 2HH2 ARG X   4     -28.466 -16.223  40.877  1.00 24.12 LIG 0.17  HD
ATOM     38 2HH1 ARG X   4     -27.279 -18.036  40.095  1.00 21.32 LIG 0.17  HD
ATOM     39 1HH1 ARG X   4     -26.014 -17.828  39.337  1.00 21.32 LIG 0.17  HD
ENDBRANCH 30 31
ENDBRANCH 29 30
ENDBRANCH 28 29
ENDBRANCH 1 28
BRANCH 1 40
ATOM     40  C   ARG X   4     -21.934 -12.494  39.793  1.00 30.38 LIG 0.24  C 
ATOM     41 O    ARG X   4     -21.333 -11.782  39.004  1.00 31.87 LIG-0.27  OA
ATOM     42  N   PRO X   5     -21.629 -12.559  41.099  1.00 30.60 LIG-0.34  N 
ATOM     43  CA  PRO X   5     -20.673 -11.602  41.703  1.00 31.31 LIG 0.18  C 
ATOM     44  CD  PRO X   5     -22.219 -13.495  42.094  1.00 29.99 LIG 0.13  C 
ATOM     45  CB  PRO X   5     -20.928 -11.764  43.205  1.00 30.70 LIG 0.04  C 
ATOM     46  CG  PRO X   5     -21.466 -13.217  43.370  1.00 29.42 LIG 0.02  C 
BRANCH 43 47
ATOM     47  C   PRO X   5     -19.159 -11.795  41.414  1.00 32.23 LIG 0.24  C 
ATOM     48 O    PRO X   5     -18.372 -12.145  42.344  1.00 32.23 LIG-0.27  OA
ATOM     49  N   TRP X   6     -18.754 -11.598  40.162  1.00 33.50 LIG-0.34  N 
ATOM     50 H    TRP X   6     -19.253 -11.284  39.536  1.00 33.50 LIG 0.16  HD
BRANCH 49 51
ATOM     51  CA  TRP X   6     -17.379 -11.914  39.752  1.00 34.66 LIG 0.19  C 
BRANCH 51 52
ATOM     52  CB  TRP X   6     -16.402 -10.889  40.364  1.00 34.41 LIG 0.08  C 
BRANCH 52 53
ATOM     53  CG  TRP X   6     -16.824  -9.442  40.191  1.00 32.39 LIG-0.03  A 
ATOM     54  CD2 TRP X   6     -17.607  -8.642  41.106  1.00 31.68 LIG-0.00  A 
ATOM     55  CE2 TRP X   6     -17.761  -7.372  40.515  1.00 33.29 LIG 0.04  A 
ATOM     56  CE3 TRP X   6     -18.177  -8.876  42.364  1.00 33.66 LIG 0.01  A 
ATOM     57  CZ2 TRP X   6     -18.442  -6.326  41.153  1.00 33.18 LIG 0.03  A 
ATOM     58  NE1 TRP X   6     -17.097  -7.396  39.312  1.00 30.87 LIG-0.36  N 
ATOM     59  CH2 TRP X   6     -18.985  -6.574  42.373  1.00 32.36 LIG 0.00  A 
ATOM     60  CZ3 TRP X   6     -18.876  -7.843  42.983  1.00 32.37 LIG 0.00  A 
ATOM     61 HE1  TRP X   6     -17.032  -6.735  38.765  1.00 30.87 LIG 0.17  HD
ATOM     62  CD1 TRP X   6     -16.556  -8.639  39.124  1.00 30.01 LIG 0.10  A 
ENDBRANCH 52 53
ENDBRANCH 51 52
BRANCH 51 63
ATOM     63  C   TRP X   6     -16.961 -13.355  40.104  1.00 36.76 LIG 0.20  C 
ATOM     64 O    TRP X   6     -17.754 -14.299  40.272  1.00 37.86 LIG-0.65  OA
ATOM     65 OXT  TRP X   6     -15.768 -13.642  40.258  1.00 39.11 LIG-0.65  OA
ENDBRANCH 51 63
ENDBRANCH 49 51
ENDBRANCH 43 47
ENDBRANCH 1 40
TORSDOF 19
ENDMDL
MODEL 43
USER: ADFR SOLUTION from run 71
USER: SCORE 18.468239 LL:  -4.424 LR: -14.249 RR:   0.000 FEB:  -8.581
USER: RMSD 7.007693
USER: SEED 70
USER: STATUS no improvement in best in 13 clusters for 5 generations
USER: GENES 21
USER: genes 0 Translation |==|  0.54780 0.64912 0.30542
USER: genes 1 Rotation |==|  0.19775 0.58659 0.25976 0.80567
USER: genes 2 Torsion [CB]-CA--N-[C] |==|  0.84957
USER: genes 3 Torsion [N]-C--CA-[N] |==|  0.05556
USER: genes 4 Torsion [C]-CA--N-[C] |==|  0.18796
USER: genes 5 Torsion [N]-C--CA-[N] |==|  0.71586
USER: genes 6 Torsion [C]-CA--CB-[CG] |==|  0.26213
USER: genes 7 Torsion [CA]-CB--CG-[SD] |==|  0.82310
USER: genes 8 Torsion [CB]-CG--SD-[CE] |==|  0.25053
USER: genes 9 Torsion [C]-CA--CB-[CG] |==|  0.42880
USER: genes 10 Torsion [CA]-CB--CG-[CD2] |==|  0.46344
USER: genes 11 Torsion [N]-CA--CB-[CG] |==|  0.38831
USER: genes 12 Torsion [CA]-CB--CG-[CD] |==|  0.38212
USER: genes 13 Torsion [CB]-CG--CD-[NE] |==|  0.20814
USER: genes 14 Torsion [CG]-CD--NE-[CZ] |==|  0.42396
USER: genes 15 Torsion [N]-CA--C-[N] |==|  0.37618
USER: genes 16 Torsion [N]-CA--C-[O] |==|  0.32753
USER: genes 17 Torsion [C]-N--CA-[CB] |==|  0.80739
USER: genes 18 Torsion [N]-CA--CB-[CG] |==|  0.77848
USER: genes 19 Torsion [CA]-CB--CG-[CD2] |==|  0.51228
USER: genes 20 Torsion [N]-CA--C-[O] |==|  0.19599
ROOT
ATOM      1  CA  ARG X   4     -20.361  -9.568  35.046  1.00 29.51 LIG 0.18  C 
ENDROOT
BRANCH 1 2
ATOM      2  N   ARG X   4     -21.624 -10.216  34.702  1.00 29.26 LIG-0.35  N 
ATOM      3  C   TRP X   3     -22.490 -10.669  35.627  1.00 30.37 LIG 0.24  C 
ATOM      4 O    TRP X   3     -22.313 -10.548  36.858  1.00 30.38 LIG-0.27  OA
ATOM      5 H    ARG X   4     -21.762 -10.281  33.856  1.00 29.26 LIG 0.16  HD
BRANCH 3 6
ATOM      6  CA  TRP X   3     -23.766 -11.352  35.091  1.00 30.62 LIG 0.18  C 
BRANCH 6 7
ATOM      7  N   TRP X   3     -23.617 -11.812  33.700  1.00 31.45 LIG-0.34  N 
ATOM      8 H    TRP X   3     -24.095 -11.399  33.118  1.00 31.45 LIG 0.16  HD
ATOM      9  C   MET X   2     -22.776 -12.811  33.438  1.00 32.92 LIG 0.26  C 
ATOM     10 O    MET X   2     -22.062 -13.302  34.292  1.00 32.35 LIG-0.27  OA
BRANCH 9 11
ATOM     11  CA  MET X   2     -22.679 -13.316  32.025  1.00 34.28 LIG 0.40  C 
ATOM     12  N   MET X   2     -23.438 -14.615  31.843  1.00 35.36 LIG 0.61  N 
BRANCH 11 13
ATOM     13  CB  MET X   2     -23.229 -12.252  31.089  1.00 35.71 LIG 0.06  C 
BRANCH 13 14
ATOM     14  CG  MET X   2     -22.192 -11.328  30.511  1.00 37.62 LIG 0.08  C 
BRANCH 14 15
ATOM     15 SD   MET X   2     -21.278 -10.266  31.662  1.00 39.06 LIG-0.17  SA
ATOM     16  CE  MET X   2     -19.858 -11.331  32.068  1.00 45.88 LIG 0.09  C 
ENDBRANCH 14 15
ENDBRANCH 13 14
ENDBRANCH 11 13
ENDBRANCH 9 11
ENDBRANCH 6 7
BRANCH 6 17
ATOM     17  CB  TRP X   3     -24.226 -12.472  36.028  1.00 29.85 LIG 0.07  C 
BRANCH 17 18
ATOM     18  CG  TRP X   3     -25.703 -12.739  35.921  1.00 29.58 LIG-0.03  A 
ATOM     19  CD1 TRP X   3     -26.630 -11.946  35.302  1.00 26.84 LIG 0.10  A 
ATOM     20  NE1 TRP X   3     -27.873 -12.511  35.417  1.00 29.47 LIG-0.36  N 
ATOM     21 HE1  TRP X   3     -28.601 -12.176  35.105  1.00 29.47 LIG 0.17  HD
ATOM     22  CE2 TRP X   3     -27.778 -13.698  36.109  1.00 27.62 LIG 0.04  A 
ATOM     23  CZ2 TRP X   3     -28.787 -14.638  36.479  1.00 28.85 LIG 0.03  A 
ATOM     24  CD2 TRP X   3     -26.420 -13.876  36.446  1.00 25.33 LIG-0.00  A 
ATOM     25  CH2 TRP X   3     -28.386 -15.773  37.196  1.00 28.18 LIG 0.00  A 
ATOM     26  CZ3 TRP X   3     -27.037 -15.959  37.551  1.00 26.79 LIG 0.00  A 
ATOM     27  CE3 TRP X   3     -26.049 -15.006  37.193  1.00 25.86 LIG 0.01  A 
ENDBRANCH 17 18
ENDBRANCH 6 17
ENDBRANCH 3 6
ENDBRANCH 1 2
BRANCH 1 28
ATOM     28  CB  ARG X   4     -20.575  -8.377  36.003  1.00 29.55 LIG 0.04  C 
BRANCH 28 29
ATOM     29  CG  ARG X   4     -19.526  -8.257  37.105  1.00 28.17 LIG 0.02  C 
BRANCH 29 30
ATOM     30  CD  ARG X   4     -19.111  -6.789  37.288  1.00 27.09 LIG 0.14  C 
BRANCH 30 31
ATOM     31  NE  ARG X   4     -20.167  -6.061  37.985  1.00 25.46 LIG-0.23  N 
ATOM     32 HE   ARG X   4     -20.976  -6.340  37.906  1.00 25.46 LIG 0.18  HD
ATOM     33  CZ  ARG X   4     -19.940  -4.984  38.741  1.00 27.27 LIG 0.67  C 
ATOM     34  NH2 ARG X   4     -20.942  -4.367  39.360  1.00 24.12 LIG-0.23  N 
ATOM     35  NH1 ARG X   4     -18.698  -4.520  38.858  1.00 21.32 LIG-0.23  N 
ATOM     36 1HH2 ARG X   4     -21.746  -4.660  39.275  1.00 24.12 LIG 0.17  HD
ATOM     37 2HH2 ARG X   4     -20.786  -3.673  39.845  1.00 24.12 LIG 0.17  HD
ATOM     38 2HH1 ARG X   4     -18.543  -3.826  39.343  1.00 21.32 LIG 0.17  HD
ATOM     39 1HH1 ARG X   4     -18.052  -4.913  38.450  1.00 21.32 LIG 0.17  HD
ENDBRANCH 30 31
ENDBRANCH 29 30
ENDBRANCH 28 29
ENDBRANCH 1 28
BRANCH 1 40
ATOM     40  C   ARG X   4     -19.490 -10.592  35.726  1.00 30.38 LIG 0.24  C 
ATOM     41 O    ARG X   4     -19.977 -11.302  36.592  1.00 31.87 LIG-0.27  OA
ATOM     42  N   PRO X   5     -18.201 -10.665  35.359  1.00 30.60 LIG-0.34  N 
ATOM     43  CA  PRO X   5     -17.337 -11.766  35.840  1.00 31.31 LIG 0.18  C 
ATOM     44  CD  PRO X   5     -17.503  -9.751  34.414  1.00 29.99 LIG 0.13  C 
ATOM     45  CB  PRO X   5     -16.133 -11.697  34.895  1.00 30.70 LIG 0.04  C 
ATOM     46  CG  PRO X   5     -16.068 -10.211  34.431  1.00 29.42 LIG 0.02  C 
BRANCH 43 47
ATOM     47  C   PRO X   5     -16.840 -11.721  37.312  1.00 32.23 LIG 0.24  C 
ATOM     48 O    PRO X   5     -17.168 -12.638  38.124  1.00 32.23 LIG-0.27  OA
ATOM     49  N   TRP X   6     -16.053 -10.704  37.651  1.00 33.50 LIG-0.34  N 
ATOM     50 H    TRP X   6     -15.883 -10.032  37.142  1.00 33.50 LIG 0.16  HD
BRANCH 49 51
ATOM     51  CA  TRP X   6     -15.399 -10.659  38.966  1.00 34.66 LIG 0.19  C 
BRANCH 51 52
ATOM     52  CB  TRP X   6     -16.454 -10.432  40.068  1.00 34.41 LIG 0.08  C 
BRANCH 52 53
ATOM     53  CG  TRP X   6     -16.900  -8.990  40.219  1.00 32.39 LIG-0.03  A 
ATOM     54  CD2 TRP X   6     -17.801  -8.452  41.213  1.00 31.68 LIG-0.00  A 
ATOM     55  CE2 TRP X   6     -17.931  -7.074  40.947  1.00 33.29 LIG 0.04  A 
ATOM     56  CE3 TRP X   6     -18.494  -8.999  42.300  1.00 33.66 LIG 0.01  A 
ATOM     57  CZ2 TRP X   6     -18.709  -6.226  41.748  1.00 33.18 LIG 0.03  A 
ATOM     58  NE1 TRP X   6     -17.142  -6.789  39.859  1.00 30.87 LIG-0.36  N 
ATOM     59  CH2 TRP X   6     -19.371  -6.777  42.798  1.00 32.36 LIG 0.00  A 
ATOM     60  CZ3 TRP X   6     -19.288  -8.159  43.077  1.00 32.37 LIG 0.00  A 
ATOM     61 HE1  TRP X   6     -17.039  -6.011  39.506  1.00 30.87 LIG 0.17  HD
ATOM     62  CD1 TRP X   6     -16.544  -7.942  39.426  1.00 30.01 LIG 0.10  A 
ENDBRANCH 52 53
ENDBRANCH 51 52
BRANCH 51 63
ATOM     63  C   TRP X   6     -14.551 -11.912  39.261  1.00 36.76 LIG 0.20  C 
ATOM     64 O    TRP X   6     -13.478 -12.188  38.694  1.00 37.86 LIG-0.65  OA
ATOM     65 OXT  TRP X   6     -14.928 -12.742  40.097  1.00 39.11 LIG-0.65  OA
ENDBRANCH 51 63
ENDBRANCH 49 51
ENDBRANCH 43 47
ENDBRANCH 1 40
TORSDOF 19
ENDMDL
MODEL 44
USER: ADFR SOLUTION from run 118
USER: SCORE 18.101478 LL:  -4.233 LR: -14.238 RR:   0.000 FEB:  -8.570
USER: RMSD 6.610364
USER: SEED 117
USER: STATUS no improvement in best in 16 clusters for 5 generations
USER: GENES 21
USER: genes 0 Translation |==|  0.41805 0.43820 0.51842
USER: genes 1 Rotation |==|  0.69452 0.50287 0.65171 0.93490
USER: genes 2 Torsion [CB]-CA--N-[C] |==|  0.86525
USER: genes 3 Torsion [N]-C--CA-[N] |==|  0.35875
USER: genes 4 Torsion [C]-CA--N-[C] |==|  0.87540
USER: genes 5 Torsion [N]-C--CA-[N] |==|  0.98982
USER: genes 6 Torsion [C]-CA--CB-[CG] |==|  0.27329
USER: genes 7 Torsion [CA]-CB--CG-[SD] |==|  0.54430
USER: genes 8 Torsion [CB]-CG--SD-[CE] |==|  0.55014
USER: genes 9 Torsion [C]-CA--CB-[CG] |==|  0.27277
USER: genes 10 Torsion [CA]-CB--CG-[CD2] |==|  0.71504
USER: genes 11 Torsion [N]-CA--CB-[CG] |==|  0.76355
USER: genes 12 Torsion [CA]-CB--CG-[CD] |==|  0.86956
USER: genes 13 Torsion [CB]-CG--CD-[NE] |==|  0.34795
USER: genes 14 Torsion [CG]-CD--NE-[CZ] |==|  0.32557
USER: genes 15 Torsion [N]-CA--C-[N] |==|  0.38031
USER: genes 16 Torsion [N]-CA--C-[O] |==|  0.74802
USER: genes 17 Torsion [C]-N--CA-[CB] |==|  0.46362
USER: genes 18 Torsion [N]-CA--CB-[CG] |==|  0.12491
USER: genes 19 Torsion [CA]-CB--CG-[CD2] |==|  0.56724
USER: genes 20 Torsion [N]-CA--C-[O] |==|  0.12320
ROOT
ATOM      1  CA  ARG X   4     -23.086 -13.681  39.039  1.00 29.51 LIG 0.18  C 
ENDROOT
BRANCH 1 2
ATOM      2  N   ARG X   4     -23.594 -12.844  37.956  1.00 29.26 LIG-0.35  N 
ATOM      3  C   TRP X   3     -23.044 -12.822  36.728  1.00 30.37 LIG 0.24  C 
ATOM      4 O    TRP X   3     -22.074 -13.535  36.392  1.00 30.38 LIG-0.27  OA
ATOM      5 H    ARG X   4     -24.276 -12.369  38.175  1.00 29.26 LIG 0.16  HD
BRANCH 3 6
ATOM      6  CA  TRP X   3     -23.690 -11.861  35.708  1.00 30.62 LIG 0.18  C 
BRANCH 6 7
ATOM      7  N   TRP X   3     -22.701 -10.990  35.049  1.00 31.45 LIG-0.34  N 
ATOM      8 H    TRP X   3     -22.786 -10.907  34.197  1.00 31.45 LIG 0.16  HD
ATOM      9  C   MET X   2     -21.765 -10.402  35.791  1.00 32.92 LIG 0.26  C 
ATOM     10 O    MET X   2     -21.745 -10.490  37.004  1.00 32.35 LIG-0.27  OA
BRANCH 9 11
ATOM     11  CA  MET X   2     -20.722  -9.567  35.102  1.00 34.28 LIG 0.40  C 
ATOM     12  N   MET X   2     -20.877  -9.612  33.595  1.00 35.36 LIG 0.61  N 
BRANCH 11 13
ATOM     13  CB  MET X   2     -20.838  -8.135  35.598  1.00 35.71 LIG 0.06  C 
BRANCH 13 14
ATOM     14  CG  MET X   2     -19.858  -7.764  36.678  1.00 37.62 LIG 0.08  C 
BRANCH 14 15
ATOM     15 SD   MET X   2     -20.193  -6.260  37.634  1.00 39.06 LIG-0.17  SA
ATOM     16  CE  MET X   2     -18.556  -5.935  38.362  1.00 45.88 LIG 0.09  C 
ENDBRANCH 14 15
ENDBRANCH 13 14
ENDBRANCH 11 13
ENDBRANCH 9 11
ENDBRANCH 6 7
BRANCH 6 17
ATOM     17  CB  TRP X   3     -24.553 -12.625  34.702  1.00 29.85 LIG 0.07  C 
BRANCH 17 18
ATOM     18  CG  TRP X   3     -26.014 -12.597  35.062  1.00 29.58 LIG-0.03  A 
ATOM     19  CD1 TRP X   3     -26.878 -11.553  34.875  1.00 26.84 LIG 0.10  A 
ATOM     20  NE1 TRP X   3     -28.123 -11.895  35.334  1.00 29.47 LIG-0.36  N 
ATOM     21 HE1  TRP X   3     -28.815 -11.384  35.318  1.00 29.47 LIG 0.17  HD
ATOM     22  CE2 TRP X   3     -28.098 -13.182  35.823  1.00 27.62 LIG 0.04  A 
ATOM     23  CZ2 TRP X   3     -29.135 -13.974  36.402  1.00 28.85 LIG 0.03  A 
ATOM     24  CD2 TRP X   3     -26.780 -13.660  35.670  1.00 25.33 LIG-0.00  A 
ATOM     25  CH2 TRP X   3     -28.807 -15.270  36.819  1.00 28.18 LIG 0.00  A 
ATOM     26  CZ3 TRP X   3     -27.493 -15.757  36.685  1.00 26.79 LIG 0.00  A 
ATOM     27  CE3 TRP X   3     -26.468 -14.951  36.125  1.00 25.86 LIG 0.01  A 
ENDBRANCH 17 18
ENDBRANCH 6 17
ENDBRANCH 3 6
ENDBRANCH 1 2
BRANCH 1 28
ATOM     28  CB  ARG X   4     -22.864 -15.137  38.578  1.00 29.55 LIG 0.04  C 
BRANCH 28 29
ATOM     29  CG  ARG X   4     -24.108 -16.018  38.647  1.00 28.17 LIG 0.02  C 
BRANCH 29 30
ATOM     30  CD  ARG X   4     -24.814 -15.839  40.000  1.00 27.09 LIG 0.14  C 
BRANCH 30 31
ATOM     31  NE  ARG X   4     -26.210 -15.470  39.783  1.00 25.46 LIG-0.23  N 
ATOM     32 HE   ARG X   4     -26.378 -14.727  39.383  1.00 25.46 LIG 0.18  HD
ATOM     33  CZ  ARG X   4     -27.238 -16.226  40.172  1.00 27.27 LIG 0.67  C 
ATOM     34  NH2 ARG X   4     -28.490 -15.841  39.939  1.00 24.12 LIG-0.23  N 
ATOM     35  NH1 ARG X   4     -27.002 -17.367  40.815  1.00 21.32 LIG-0.23  N 
ATOM     36 1HH2 ARG X   4     -28.643 -15.098  39.534  1.00 24.12 LIG 0.17  HD
ATOM     37 2HH2 ARG X   4     -29.147 -16.335  40.194  1.00 24.12 LIG 0.17  HD
ATOM     38 2HH1 ARG X   4     -27.658 -17.860  41.070  1.00 21.32 LIG 0.17  HD
ATOM     39 1HH1 ARG X   4     -26.193 -17.611  40.975  1.00 21.32 LIG 0.17  HD
ENDBRANCH 30 31
ENDBRANCH 29 30
ENDBRANCH 28 29
ENDBRANCH 1 28
BRANCH 1 40
ATOM     40  C   ARG X   4     -21.768 -13.103  39.485  1.00 30.38 LIG 0.24  C 
ATOM     41 O    ARG X   4     -20.962 -12.746  38.641  1.00 31.87 LIG-0.27  OA
ATOM     42  N   PRO X   5     -21.530 -13.024  40.804  1.00 30.60 LIG-0.34  N 
ATOM     43  CA  PRO X   5     -20.348 -12.297  41.319  1.00 31.31 LIG 0.18  C 
ATOM     44  CD  PRO X   5     -22.399 -13.559  41.888  1.00 29.99 LIG 0.13  C 
ATOM     45  CB  PRO X   5     -20.678 -12.112  42.804  1.00 30.70 LIG 0.04  C 
ATOM     46  CG  PRO X   5     -21.630 -13.293  43.157  1.00 29.42 LIG 0.02  C 
BRANCH 43 47
ATOM     47  C   PRO X   5     -18.954 -12.968  41.181  1.00 32.23 LIG 0.24  C 
ATOM     48 O    PRO X   5     -18.509 -13.710  42.109  1.00 32.23 LIG-0.27  OA
ATOM     49  N   TRP X   6     -18.285 -12.742  40.054  1.00 33.50 LIG-0.34  N 
ATOM     50 H    TRP X   6     -18.530 -12.181  39.450  1.00 33.50 LIG 0.16  HD
BRANCH 49 51
ATOM     51  CA  TRP X   6     -17.038 -13.460  39.757  1.00 34.66 LIG 0.19  C 
BRANCH 51 52
ATOM     52  CB  TRP X   6     -16.657 -13.257  38.276  1.00 34.41 LIG 0.08  C 
BRANCH 52 53
ATOM     53  CG  TRP X   6     -16.784 -11.825  37.789  1.00 32.39 LIG-0.03  A 
ATOM     54  CD2 TRP X   6     -16.980 -11.377  36.429  1.00 31.68 LIG-0.00  A 
ATOM     55  CE2 TRP X   6     -17.018  -9.968  36.461  1.00 33.29 LIG 0.04  A 
ATOM     56  CE3 TRP X   6     -17.138 -12.029  35.200  1.00 33.66 LIG 0.01  A 
ATOM     57  CZ2 TRP X   6     -17.235  -9.197  35.311  1.00 33.18 LIG 0.03  A 
ATOM     58  NE1 TRP X   6     -16.866  -9.583  37.771  1.00 30.87 LIG-0.36  N 
ATOM     59  CH2 TRP X   6     -17.387  -9.851  34.129  1.00 32.36 LIG 0.00  A 
ATOM     60  CZ3 TRP X   6     -17.326 -11.260  34.055  1.00 32.37 LIG 0.00  A 
ATOM     61 HE1  TRP X   6     -16.867  -8.771  38.057  1.00 30.87 LIG 0.17  HD
ATOM     62  CD1 TRP X   6     -16.712 -10.699  38.551  1.00 30.01 LIG 0.10  A 
ENDBRANCH 52 53
ENDBRANCH 51 52
BRANCH 51 63
ATOM     63  C   TRP X   6     -15.875 -13.061  40.687  1.00 36.76 LIG 0.20  C 
ATOM     64 O    TRP X   6     -15.972 -12.925  41.920  1.00 37.86 LIG-0.65  OA
ATOM     65 OXT  TRP X   6     -14.752 -12.829  40.223  1.00 39.11 LIG-0.65  OA
ENDBRANCH 51 63
ENDBRANCH 49 51
ENDBRANCH 43 47
ENDBRANCH 1 40
TORSDOF 19
ENDMDL
MODEL 45
USER: ADFR SOLUTION from run 116
USER: SCORE 19.160402 LL:  -6.160 LR: -14.232 RR:   0.000 FEB:  -8.564
USER: RMSD 3.068957
USER: SEED 115
USER: STATUS no improvement in best in 8 clusters for 5 generations
USER: GENES 21
USER: genes 0 Translation |==|  0.53569 0.57091 0.48639
USER: genes 1 Rotation |==|  0.59528 0.37974 0.58136 0.96887
USER: genes 2 Torsion [CB]-CA--N-[C] |==|  0.24443
USER: genes 3 Torsion [N]-C--CA-[N] |==|  0.36746
USER: genes 4 Torsion [C]-CA--N-[C] |==|  0.63774
USER: genes 5 Torsion [N]-C--CA-[N] |==|  0.44973
USER: genes 6 Torsion [C]-CA--CB-[CG] |==|  0.21353
USER: genes 7 Torsion [CA]-CB--CG-[SD] |==|  0.71376
USER: genes 8 Torsion [CB]-CG--SD-[CE] |==|  0.44381
USER: genes 9 Torsion [C]-CA--CB-[CG] |==|  0.08047
USER: genes 10 Torsion [CA]-CB--CG-[CD2] |==|  0.17676
USER: genes 11 Torsion [N]-CA--CB-[CG] |==|  0.72775
USER: genes 12 Torsion [CA]-CB--CG-[CD] |==|  0.55844
USER: genes 13 Torsion [CB]-CG--CD-[NE] |==|  0.42118
USER: genes 14 Torsion [CG]-CD--NE-[CZ] |==|  0.45306
USER: genes 15 Torsion [N]-CA--C-[N] |==|  0.37122
USER: genes 16 Torsion [N]-CA--C-[O] |==|  0.58308
USER: genes 17 Torsion [C]-N--CA-[CB] |==|  0.36277
USER: genes 18 Torsion [N]-CA--CB-[CG] |==|  0.79062
USER: genes 19 Torsion [CA]-CB--CG-[CD2] |==|  0.24470
USER: genes 20 Torsion [N]-CA--C-[O] |==|  0.06491
ROOT
ATOM      1  CA  ARG X   4     -20.615 -11.093  38.439  1.00 29.51 LIG 0.18  C 
ENDROOT
BRANCH 1 2
ATOM      2  N   ARG X   4     -20.215 -10.547  37.145  1.00 29.26 LIG-0.35  N 
ATOM      3  C   TRP X   3     -21.089 -10.012  36.273  1.00 30.37 LIG 0.24  C 
ATOM      4 O    TRP X   3     -22.313  -9.902  36.501  1.00 30.38 LIG-0.27  OA
ATOM      5 H    ARG X   4     -19.370 -10.598  36.994  1.00 29.26 LIG 0.16  HD
BRANCH 3 6
ATOM      6  CA  TRP X   3     -20.500  -9.503  34.941  1.00 30.62 LIG 0.18  C 
BRANCH 6 7
ATOM      7  N   TRP X   3     -21.266  -9.968  33.772  1.00 31.45 LIG-0.34  N 
ATOM      8 H    TRP X   3     -22.116  -9.851  33.812  1.00 31.45 LIG 0.16  HD
ATOM      9  C   MET X   2     -20.612 -10.526  32.754  1.00 32.92 LIG 0.26  C 
ATOM     10 O    MET X   2     -19.398 -10.590  32.716  1.00 32.35 LIG-0.27  OA
BRANCH 9 11
ATOM     11  CA  MET X   2     -21.408 -11.056  31.594  1.00 34.28 LIG 0.40  C 
ATOM     12  N   MET X   2     -20.544 -11.244  30.363  1.00 35.36 LIG 0.61  N 
BRANCH 11 13
ATOM     13  CB  MET X   2     -22.038 -12.379  31.999  1.00 35.71 LIG 0.06  C 
BRANCH 13 14
ATOM     14  CG  MET X   2     -23.244 -12.253  32.890  1.00 37.62 LIG 0.08  C 
BRANCH 14 15
ATOM     15 SD   MET X   2     -23.023 -12.599  34.656  1.00 39.06 LIG-0.17  SA
ATOM     16  CE  MET X   2     -24.467 -11.746  35.364  1.00 45.88 LIG 0.09  C 
ENDBRANCH 14 15
ENDBRANCH 13 14
ENDBRANCH 11 13
ENDBRANCH 9 11
ENDBRANCH 6 7
BRANCH 6 17
ATOM     17  CB  TRP X   3     -20.332  -7.983  34.958  1.00 29.85 LIG 0.07  C 
BRANCH 17 18
ATOM     18  CG  TRP X   3     -20.093  -7.448  36.345  1.00 29.58 LIG-0.03  A 
ATOM     19  CD1 TRP X   3     -20.909  -6.599  37.041  1.00 26.84 LIG 0.10  A 
ATOM     20  NE1 TRP X   3     -20.357  -6.327  38.266  1.00 29.47 LIG-0.36  N 
ATOM     21 HE1  TRP X   3     -20.702  -5.811  38.861  1.00 29.47 LIG 0.17  HD
ATOM     22  CE2 TRP X   3     -19.167  -7.006  38.397  1.00 27.62 LIG 0.04  A 
ATOM     23  CZ2 TRP X   3     -18.234  -7.042  39.477  1.00 28.85 LIG 0.03  A 
ATOM     24  CD2 TRP X   3     -18.964  -7.726  37.200  1.00 25.33 LIG-0.00  A 
ATOM     25  CH2 TRP X   3     -17.089  -7.834  39.321  1.00 28.18 LIG 0.00  A 
ATOM     26  CZ3 TRP X   3     -16.866  -8.547  38.129  1.00 26.79 LIG 0.00  A 
ATOM     27  CE3 TRP X   3     -17.792  -8.486  37.056  1.00 25.86 LIG 0.01  A 
ENDBRANCH 17 18
ENDBRANCH 6 17
ENDBRANCH 3 6
ENDBRANCH 1 2
BRANCH 1 28
ATOM     28  CB  ARG X   4     -21.006 -12.582  38.331  1.00 29.55 LIG 0.04  C 
BRANCH 28 29
ATOM     29  CG  ARG X   4     -22.508 -12.835  38.225  1.00 28.17 LIG 0.02  C 
BRANCH 29 30
ATOM     30  CD  ARG X   4     -22.836 -14.276  38.643  1.00 27.09 LIG 0.14  C 
BRANCH 30 31
ATOM     31  NE  ARG X   4     -24.191 -14.337  39.184  1.00 25.46 LIG-0.23  N 
ATOM     32 HE   ARG X   4     -24.567 -13.602  39.424  1.00 25.46 LIG 0.18  HD
ATOM     33  CZ  ARG X   4     -24.875 -15.474  39.325  1.00 27.27 LIG 0.67  C 
ATOM     34  NH2 ARG X   4     -26.110 -15.465  39.817  1.00 24.12 LIG-0.23  N 
ATOM     35  NH1 ARG X   4     -24.302 -16.626  38.984  1.00 21.32 LIG-0.23  N 
ATOM     36 1HH2 ARG X   4     -26.476 -14.722  40.048  1.00 24.12 LIG 0.17  HD
ATOM     37 2HH2 ARG X   4     -26.544 -16.203  39.905  1.00 24.12 LIG 0.17  HD
ATOM     38 2HH1 ARG X   4     -24.736 -17.363  39.073  1.00 21.32 LIG 0.17  HD
ATOM     39 1HH1 ARG X   4     -23.500 -16.633  38.676  1.00 21.32 LIG 0.17  HD
ENDBRANCH 30 31
ENDBRANCH 29 30
ENDBRANCH 28 29
ENDBRANCH 1 28
BRANCH 1 40
ATOM     40  C   ARG X   4     -19.442 -10.962  39.375  1.00 30.38 LIG 0.24  C 
ATOM     41 O    ARG X   4     -18.337 -11.315  38.993  1.00 31.87 LIG-0.27  OA
ATOM     42  N   PRO X   5     -19.670 -10.477  40.605  1.00 30.60 LIG-0.34  N 
ATOM     43  CA  PRO X   5     -18.547 -10.140  41.509  1.00 31.31 LIG 0.18  C 
ATOM     44  CD  PRO X   5     -21.000 -10.154  41.190  1.00 29.99 LIG 0.13  C 
ATOM     45  CB  PRO X   5     -19.216  -9.277  42.583  1.00 30.70 LIG 0.04  C 
ATOM     46  CG  PRO X   5     -20.702  -9.742  42.609  1.00 29.42 LIG 0.02  C 
BRANCH 43 47
ATOM     47  C   PRO X   5     -17.777 -11.306  42.190  1.00 32.23 LIG 0.24  C 
ATOM     48 O    PRO X   5     -17.241 -11.137  43.327  1.00 32.23 LIG-0.27  OA
ATOM     49  N   TRP X   6     -17.735 -12.463  41.537  1.00 33.50 LIG-0.34  N 
ATOM     50 H    TRP X   6     -18.021 -12.577  40.733  1.00 33.50 LIG 0.16  HD
BRANCH 49 51
ATOM     51  CA  TRP X   6     -17.178 -13.668  42.167  1.00 34.66 LIG 0.19  C 
BRANCH 51 52
ATOM     52  CB  TRP X   6     -18.157 -14.848  41.998  1.00 34.41 LIG 0.08  C 
BRANCH 52 53
ATOM     53  CG  TRP X   6     -19.369 -14.790  42.909  1.00 32.39 LIG-0.03  A 
ATOM     54  CD2 TRP X   6     -20.630 -14.133  42.650  1.00 31.68 LIG-0.00  A 
ATOM     55  CE2 TRP X   6     -21.440 -14.332  43.785  1.00 33.29 LIG 0.04  A 
ATOM     56  CE3 TRP X   6     -21.149 -13.411  41.567  1.00 33.66 LIG 0.01  A 
ATOM     57  CZ2 TRP X   6     -22.756 -13.856  43.861  1.00 33.18 LIG 0.03  A 
ATOM     58  NE1 TRP X   6     -20.715 -15.081  44.681  1.00 30.87 LIG-0.36  N 
ATOM     59  CH2 TRP X   6     -23.240 -13.160  42.800  1.00 32.36 LIG 0.00  A 
ATOM     60  CZ3 TRP X   6     -22.448 -12.916  41.657  1.00 32.37 LIG 0.00  A 
ATOM     61 HE1  TRP X   6     -20.993 -15.348  45.450  1.00 30.87 LIG 0.17  HD
ATOM     62  CD1 TRP X   6     -19.477 -15.335  44.153  1.00 30.01 LIG 0.10  A 
ENDBRANCH 52 53
ENDBRANCH 51 52
BRANCH 51 63
ATOM     63  C   TRP X   6     -15.776 -14.033  41.638  1.00 36.76 LIG 0.20  C 
ATOM     64 O    TRP X   6     -14.990 -13.226  41.110  1.00 37.86 LIG-0.65  OA
ATOM     65 OXT  TRP X   6     -15.365 -15.197  41.701  1.00 39.11 LIG-0.65  OA
ENDBRANCH 51 63
ENDBRANCH 49 51
ENDBRANCH 43 47
ENDBRANCH 1 40
TORSDOF 19
ENDMDL
MODEL 46
USER: ADFR SOLUTION from run 73
USER: SCORE 17.864306 LL:  -3.998 LR: -14.230 RR:   0.000 FEB:  -8.562
USER: RMSD 9.185460
USER: SEED 72
USER: STATUS no improvement in best in 13 clusters for 5 generations
USER: GENES 21
USER: genes 0 Translation |==|  0.66091 0.66678 0.48000
USER: genes 1 Rotation |==|  0.20844 0.85186 0.44028 0.69398
USER: genes 2 Torsion [CB]-CA--N-[C] |==|  0.83041
USER: genes 3 Torsion [N]-C--CA-[N] |==|  0.32837
USER: genes 4 Torsion [C]-CA--N-[C] |==|  0.62216
USER: genes 5 Torsion [N]-C--CA-[N] |==|  0.61252
USER: genes 6 Torsion [C]-CA--CB-[CG] |==|  0.25439
USER: genes 7 Torsion [CA]-CB--CG-[SD] |==|  0.04106
USER: genes 8 Torsion [CB]-CG--SD-[CE] |==|  0.46744
USER: genes 9 Torsion [C]-CA--CB-[CG] |==|  0.20294
USER: genes 10 Torsion [CA]-CB--CG-[CD2] |==|  0.16848
USER: genes 11 Torsion [N]-CA--CB-[CG] |==|  0.87510
USER: genes 12 Torsion [CA]-CB--CG-[CD] |==|  0.83437
USER: genes 13 Torsion [CB]-CG--CD-[NE] |==|  0.50604
USER: genes 14 Torsion [CG]-CD--NE-[CZ] |==|  0.56859
USER: genes 15 Torsion [N]-CA--C-[N] |==|  0.43487
USER: genes 16 Torsion [N]-CA--C-[O] |==|  0.39680
USER: genes 17 Torsion [C]-N--CA-[CB] |==|  0.35200
USER: genes 18 Torsion [N]-CA--CB-[CG] |==|  0.82124
USER: genes 19 Torsion [CA]-CB--CG-[CD2] |==|  0.44770
USER: genes 20 Torsion [N]-CA--C-[O] |==|  0.39451
ROOT
ATOM      1  CA  ARG X   4     -17.986  -9.224  38.319  1.00 29.51 LIG 0.18  C 
ENDROOT
BRANCH 1 2
ATOM      2  N   ARG X   4     -18.941  -9.451  39.400  1.00 29.26 LIG-0.35  N 
ATOM      3  C   TRP X   3     -18.733 -10.344  40.386  1.00 30.37 LIG 0.24  C 
ATOM      4 O    TRP X   3     -17.696 -11.032  40.487  1.00 30.38 LIG-0.27  OA
ATOM      5 H    ARG X   4     -19.646  -8.962  39.348  1.00 29.26 LIG 0.16  HD
BRANCH 3 6
ATOM      6  CA  TRP X   3     -19.857 -10.476  41.435  1.00 30.62 LIG 0.18  C 
BRANCH 6 7
ATOM      7  N   TRP X   3     -20.445 -11.826  41.465  1.00 31.45 LIG-0.34  N 
ATOM      8 H    TRP X   3     -19.885 -12.477  41.435  1.00 31.45 LIG 0.16  HD
ATOM      9  C   MET X   2     -21.769 -11.950  41.533  1.00 32.92 LIG 0.26  C 
ATOM     10 O    MET X   2     -22.508 -10.992  41.657  1.00 32.35 LIG-0.27  OA
BRANCH 9 11
ATOM     11  CA  MET X   2     -22.363 -13.331  41.497  1.00 34.28 LIG 0.40  C 
ATOM     12  N   MET X   2     -23.617 -13.378  40.648  1.00 35.36 LIG 0.61  N 
BRANCH 11 13
ATOM     13  CB  MET X   2     -21.323 -14.295  40.949  1.00 35.71 LIG 0.06  C 
BRANCH 13 14
ATOM     14  CG  MET X   2     -20.461 -14.950  41.994  1.00 37.62 LIG 0.08  C 
BRANCH 14 15
ATOM     15 SD   MET X   2     -21.012 -14.851  43.719  1.00 39.06 LIG-0.17  SA
ATOM     16  CE  MET X   2     -19.896 -16.050  44.513  1.00 45.88 LIG 0.09  C 
ENDBRANCH 14 15
ENDBRANCH 13 14
ENDBRANCH 11 13
ENDBRANCH 9 11
ENDBRANCH 6 7
BRANCH 6 17
ATOM     17  CB  TRP X   3     -19.378 -10.020  42.815  1.00 29.85 LIG 0.07  C 
BRANCH 17 18
ATOM     18  CG  TRP X   3     -19.232  -8.525  42.906  1.00 29.58 LIG-0.03  A 
ATOM     19  CD1 TRP X   3     -18.081  -7.835  43.175  1.00 26.84 LIG 0.10  A 
ATOM     20  NE1 TRP X   3     -18.340  -6.489  43.185  1.00 29.47 LIG-0.36  N 
ATOM     21 HE1  TRP X   3     -17.760  -5.873  43.339  1.00 29.47 LIG 0.17  HD
ATOM     22  CE2 TRP X   3     -19.672  -6.273  42.910  1.00 27.62 LIG 0.04  A 
ATOM     23  CZ2 TRP X   3     -20.413  -5.057  42.812  1.00 28.85 LIG 0.03  A 
ATOM     24  CD2 TRP X   3     -20.270  -7.538  42.729  1.00 25.33 LIG-0.00  A 
ATOM     25  CH2 TRP X   3     -21.780  -5.151  42.518  1.00 28.18 LIG 0.00  A 
ATOM     26  CZ3 TRP X   3     -22.394  -6.405  42.348  1.00 26.79 LIG 0.00  A 
ATOM     27  CE3 TRP X   3     -21.648  -7.606  42.467  1.00 25.86 LIG 0.01  A 
ENDBRANCH 17 18
ENDBRANCH 6 17
ENDBRANCH 3 6
ENDBRANCH 1 2
BRANCH 1 28
ATOM     28  CB  ARG X   4     -16.627  -8.726  38.855  1.00 29.55 LIG 0.04  C 
BRANCH 28 29
ATOM     29  CG  ARG X   4     -16.729  -7.633  39.916  1.00 28.17 LIG 0.02  C 
BRANCH 29 30
ATOM     30  CD  ARG X   4     -17.456  -6.405  39.347  1.00 27.09 LIG 0.14  C 
BRANCH 30 31
ATOM     31  NE  ARG X   4     -17.501  -5.349  40.354  1.00 25.46 LIG-0.23  N 
ATOM     32 HE   ARG X   4     -16.900  -5.345  40.969  1.00 25.46 LIG 0.18  HD
ATOM     33  CZ  ARG X   4     -18.427  -4.388  40.369  1.00 27.27 LIG 0.67  C 
ATOM     34  NH2 ARG X   4     -18.412  -3.446  41.308  1.00 24.12 LIG-0.23  N 
ATOM     35  NH1 ARG X   4     -19.382  -4.388  39.442  1.00 21.32 LIG-0.23  N 
ATOM     36 1HH2 ARG X   4     -17.801  -3.452  41.913  1.00 24.12 LIG 0.17  HD
ATOM     37 2HH2 ARG X   4     -19.013  -2.830  41.309  1.00 24.12 LIG 0.17  HD
ATOM     38 2HH1 ARG X   4     -19.983  -3.773  39.445  1.00 21.32 LIG 0.17  HD
ATOM     39 1HH1 ARG X   4     -19.398  -5.003  38.841  1.00 21.32 LIG 0.17  HD
ENDBRANCH 30 31
ENDBRANCH 29 30
ENDBRANCH 28 29
ENDBRANCH 1 28
BRANCH 1 40
ATOM     40  C   ARG X   4     -17.780 -10.535  37.606  1.00 30.38 LIG 0.24  C 
ATOM     41 O    ARG X   4     -17.991 -11.576  38.208  1.00 31.87 LIG-0.27  OA
ATOM     42  N   PRO X   5     -17.350 -10.499  36.335  1.00 30.60 LIG-0.34  N 
ATOM     43  CA  PRO X   5     -17.309 -11.730  35.513  1.00 31.31 LIG 0.18  C 
ATOM     44  CD  PRO X   5     -16.942  -9.284  35.579  1.00 29.99 LIG 0.13  C 
ATOM     45  CB  PRO X   5     -17.164 -11.187  34.088  1.00 30.70 LIG 0.04  C 
ATOM     46  CG  PRO X   5     -16.460  -9.807  34.250  1.00 29.42 LIG 0.02  C 
BRANCH 43 47
ATOM     47  C   PRO X   5     -16.180 -12.761  35.789  1.00 32.23 LIG 0.24  C 
ATOM     48 O    PRO X   5     -16.418 -14.004  35.708  1.00 32.23 LIG-0.27  OA
ATOM     49  N   TRP X   6     -14.978 -12.274  36.085  1.00 33.50 LIG-0.34  N 
ATOM     50 H    TRP X   6     -14.814 -11.441  36.223  1.00 33.50 LIG 0.16  HD
BRANCH 49 51
ATOM     51  CA  TRP X   6     -13.810 -13.158  36.199  1.00 34.66 LIG 0.19  C 
BRANCH 51 52
ATOM     52  CB  TRP X   6     -12.674 -12.644  35.291  1.00 34.41 LIG 0.08  C 
BRANCH 52 53
ATOM     53  CG  TRP X   6     -12.995 -12.676  33.808  1.00 32.39 LIG-0.03  A 
ATOM     54  CD2 TRP X   6     -12.334 -11.943  32.753  1.00 31.68 LIG-0.00  A 
ATOM     55  CE2 TRP X   6     -12.986 -12.277  31.549  1.00 33.29 LIG 0.04  A 
ATOM     56  CE3 TRP X   6     -11.254 -11.052  32.713  1.00 33.66 LIG 0.01  A 
ATOM     57  CZ2 TRP X   6     -12.575 -11.770  30.308  1.00 33.18 LIG 0.03  A 
ATOM     58  NE1 TRP X   6     -13.980 -13.174  31.855  1.00 30.87 LIG-0.36  N 
ATOM     59  CH2 TRP X   6     -11.525 -10.909  30.292  1.00 32.36 LIG 0.00  A 
ATOM     60  CZ3 TRP X   6     -10.866 -10.529  31.482  1.00 32.37 LIG 0.00  A 
ATOM     61 HE1  TRP X   6     -14.515 -13.540  31.289  1.00 30.87 LIG 0.17  HD
ATOM     62  CD1 TRP X   6     -13.985 -13.393  33.207  1.00 30.01 LIG 0.10  A 
ENDBRANCH 52 53
ENDBRANCH 51 52
BRANCH 51 63
ATOM     63  C   TRP X   6     -13.323 -13.330  37.652  1.00 36.76 LIG 0.20  C 
ATOM     64 O    TRP X   6     -12.894 -14.395  38.130  1.00 37.86 LIG-0.65  OA
ATOM     65 OXT  TRP X   6     -13.359 -12.379  38.442  1.00 39.11 LIG-0.65  OA
ENDBRANCH 51 63
ENDBRANCH 49 51
ENDBRANCH 43 47
ENDBRANCH 1 40
TORSDOF 19
ENDMDL
MODEL 47
USER: ADFR SOLUTION from run 136
USER: SCORE 18.604270 LL:  -4.967 LR: -14.201 RR:   0.000 FEB:  -8.533
USER: RMSD 8.460568
USER: SEED 135
USER: STATUS no improvement in best in 3 clusters for 5 generations
USER: GENES 21
USER: genes 0 Translation |==|  0.66437 0.64669 0.48895
USER: genes 1 Rotation |==|  0.07170 0.71987 0.40210 0.59291
USER: genes 2 Torsion [CB]-CA--N-[C] |==|  0.55859
USER: genes 3 Torsion [N]-C--CA-[N] |==|  0.44444
USER: genes 4 Torsion [C]-CA--N-[C] |==|  0.66655
USER: genes 5 Torsion [N]-C--CA-[N] |==|  0.67371
USER: genes 6 Torsion [C]-CA--CB-[CG] |==|  0.23280
USER: genes 7 Torsion [CA]-CB--CG-[SD] |==|  0.57812
USER: genes 8 Torsion [CB]-CG--SD-[CE] |==|  0.20170
USER: genes 9 Torsion [C]-CA--CB-[CG] |==|  0.23074
USER: genes 10 Torsion [CA]-CB--CG-[CD2] |==|  0.15751
USER: genes 11 Torsion [N]-CA--CB-[CG] |==|  0.04798
USER: genes 12 Torsion [CA]-CB--CG-[CD] |==|  0.65598
USER: genes 13 Torsion [CB]-CG--CD-[NE] |==|  0.21079
USER: genes 14 Torsion [CG]-CD--NE-[CZ] |==|  0.44472
USER: genes 15 Torsion [N]-CA--C-[N] |==|  0.32257
USER: genes 16 Torsion [N]-CA--C-[O] |==|  0.11049
USER: genes 17 Torsion [C]-N--CA-[CB] |==|  0.82880
USER: genes 18 Torsion [N]-CA--CB-[CG] |==|  0.85103
USER: genes 19 Torsion [CA]-CB--CG-[CD2] |==|  0.26096
USER: genes 20 Torsion [N]-CA--C-[O] |==|  0.79392
ROOT
ATOM      1  CA  ARG X   4     -17.913  -9.615  38.487  1.00 29.51 LIG 0.18  C 
ENDROOT
BRANCH 1 2
ATOM      2  N   ARG X   4     -18.720  -9.627  39.704  1.00 29.26 LIG-0.35  N 
ATOM      3  C   TRP X   3     -19.157 -10.760  40.283  1.00 30.37 LIG 0.24  C 
ATOM      4 O    TRP X   3     -18.886 -11.903  39.856  1.00 30.38 LIG-0.27  OA
ATOM      5 H    ARG X   4     -18.889  -8.843  40.016  1.00 29.26 LIG 0.16  HD
BRANCH 3 6
ATOM      6  CA  TRP X   3     -20.020 -10.591  41.551  1.00 30.62 LIG 0.18  C 
BRANCH 6 7
ATOM      7  N   TRP X   3     -20.829 -11.785  41.847  1.00 31.45 LIG-0.34  N 
ATOM      8 H    TRP X   3     -20.387 -12.511  41.982  1.00 31.45 LIG 0.16  HD
ATOM      9  C   MET X   2     -22.155 -11.672  41.885  1.00 32.92 LIG 0.26  C 
ATOM     10 O    MET X   2     -22.721 -10.601  41.769  1.00 32.35 LIG-0.27  OA
BRANCH 9 11
ATOM     11  CA  MET X   2     -22.975 -12.909  42.124  1.00 34.28 LIG 0.40  C 
ATOM     12  N   MET X   2     -23.876 -13.218  40.945  1.00 35.36 LIG 0.61  N 
BRANCH 11 13
ATOM     13  CB  MET X   2     -22.034 -14.075  42.382  1.00 35.71 LIG 0.06  C 
BRANCH 13 14
ATOM     14  CG  MET X   2     -21.555 -14.192  43.804  1.00 37.62 LIG 0.08  C 
BRANCH 14 15
ATOM     15 SD   MET X   2     -19.937 -14.960  44.085  1.00 39.06 LIG-0.17  SA
ATOM     16  CE  MET X   2     -18.820 -13.652  43.489  1.00 45.88 LIG 0.09  C 
ENDBRANCH 14 15
ENDBRANCH 13 14
ENDBRANCH 11 13
ENDBRANCH 9 11
ENDBRANCH 6 7
BRANCH 6 17
ATOM     17  CB  TRP X   3     -19.165 -10.157  42.744  1.00 29.85 LIG 0.07  C 
BRANCH 17 18
ATOM     18  CG  TRP X   3     -18.925  -8.671  42.768  1.00 29.58 LIG-0.03  A 
ATOM     19  CD1 TRP X   3     -17.709  -8.044  42.783  1.00 26.84 LIG 0.10  A 
ATOM     20  NE1 TRP X   3     -17.890  -6.686  42.813  1.00 29.47 LIG-0.36  N 
ATOM     21 HE1  TRP X   3     -17.259  -6.102  42.832  1.00 29.47 LIG 0.17  HD
ATOM     22  CE2 TRP X   3     -19.237  -6.399  42.807  1.00 27.62 LIG 0.04  A 
ATOM     23  CZ2 TRP X   3     -19.918  -5.144  42.831  1.00 28.85 LIG 0.03  A 
ATOM     24  CD2 TRP X   3     -19.925  -7.630  42.781  1.00 25.33 LIG-0.00  A 
ATOM     25  CH2 TRP X   3     -21.318  -5.165  42.820  1.00 28.18 LIG 0.00  A 
ATOM     26  CZ3 TRP X   3     -22.019  -6.384  42.808  1.00 26.79 LIG 0.00  A 
ATOM     27  CE3 TRP X   3     -21.329  -7.624  42.804  1.00 25.86 LIG 0.01  A 
ENDBRANCH 17 18
ENDBRANCH 6 17
ENDBRANCH 3 6
ENDBRANCH 1 2
BRANCH 1 28
ATOM     28  CB  ARG X   4     -17.131  -8.294  38.335  1.00 29.55 LIG 0.04  C 
BRANCH 28 29
ATOM     29  CG  ARG X   4     -17.016  -7.477  39.619  1.00 28.17 LIG 0.02  C 
BRANCH 29 30
ATOM     30  CD  ARG X   4     -17.573  -6.062  39.402  1.00 27.09 LIG 0.14  C 
BRANCH 30 31
ATOM     31  NE  ARG X   4     -19.032  -6.103  39.389  1.00 25.46 LIG-0.23  N 
ATOM     32 HE   ARG X   4     -19.418  -6.856  39.234  1.00 25.46 LIG 0.18  HD
ATOM     33  CZ  ARG X   4     -19.799  -5.032  39.603  1.00 27.27 LIG 0.67  C 
ATOM     34  NH2 ARG X   4     -21.125  -5.132  39.587  1.00 24.12 LIG-0.23  N 
ATOM     35  NH1 ARG X   4     -19.224  -3.851  39.819  1.00 21.32 LIG-0.23  N 
ATOM     36 1HH2 ARG X   4     -21.497  -5.893  39.437  1.00 24.12 LIG 0.17  HD
ATOM     37 2HH2 ARG X   4     -21.611  -4.436  39.727  1.00 24.12 LIG 0.17  HD
ATOM     38 2HH1 ARG X   4     -19.710  -3.156  39.957  1.00 21.32 LIG 0.17  HD
ATOM     39 1HH1 ARG X   4     -18.367  -3.784  39.819  1.00 21.32 LIG 0.17  HD
ENDBRANCH 30 31
ENDBRANCH 29 30
ENDBRANCH 28 29
ENDBRANCH 1 28
BRANCH 1 40
ATOM     40  C   ARG X   4     -16.933 -10.757  38.576  1.00 30.38 LIG 0.24  C 
ATOM     41 O    ARG X   4     -16.077 -10.736  39.446  1.00 31.87 LIG-0.27  OA
ATOM     42  N   PRO X   5     -17.035 -11.745  37.673  1.00 30.60 LIG-0.34  N 
ATOM     43  CA  PRO X   5     -16.238 -12.984  37.812  1.00 31.31 LIG 0.18  C 
ATOM     44  CD  PRO X   5     -17.958 -11.778  36.506  1.00 29.99 LIG 0.13  C 
ATOM     45  CB  PRO X   5     -16.938 -13.953  36.854  1.00 30.70 LIG 0.04  C 
ATOM     46  CG  PRO X   5     -17.601 -13.046  35.775  1.00 29.42 LIG 0.02  C 
BRANCH 43 47
ATOM     47  C   PRO X   5     -14.723 -12.927  37.471  1.00 32.23 LIG 0.24  C 
ATOM     48 O    PRO X   5     -14.032 -11.918  37.808  1.00 32.23 LIG-0.27  OA
ATOM     49  N   TRP X   6     -14.206 -13.979  36.842  1.00 33.50 LIG-0.34  N 
ATOM     50 H    TRP X   6     -14.670 -14.635  36.535  1.00 33.50 LIG 0.16  HD
BRANCH 49 51
ATOM     51  CA  TRP X   6     -12.758 -14.094  36.624  1.00 34.66 LIG 0.19  C 
BRANCH 51 52
ATOM     52  CB  TRP X   6     -12.266 -12.923  35.748  1.00 34.41 LIG 0.08  C 
BRANCH 52 53
ATOM     53  CG  TRP X   6     -13.018 -12.761  34.440  1.00 32.39 LIG-0.03  A 
ATOM     54  CD2 TRP X   6     -14.154 -11.907  34.182  1.00 31.68 LIG-0.00  A 
ATOM     55  CE2 TRP X   6     -14.522 -12.104  32.836  1.00 33.29 LIG 0.04  A 
ATOM     56  CE3 TRP X   6     -14.881 -10.991  34.954  1.00 33.66 LIG 0.01  A 
ATOM     57  CZ2 TRP X   6     -15.573 -11.398  32.234  1.00 33.18 LIG 0.03  A 
ATOM     58  NE1 TRP X   6     -13.648 -13.021  32.302  1.00 30.87 LIG-0.36  N 
ATOM     59  CH2 TRP X   6     -16.263 -10.514  33.001  1.00 32.36 LIG 0.00  A 
ATOM     60  CZ3 TRP X   6     -15.942 -10.311  34.361  1.00 32.37 LIG 0.00  A 
ATOM     61 HE1  TRP X   6     -13.655 -13.302  31.489  1.00 30.87 LIG 0.17  HD
ATOM     62  CD1 TRP X   6     -12.766 -13.416  33.272  1.00 30.01 LIG 0.10  A 
ENDBRANCH 52 53
ENDBRANCH 51 52
BRANCH 51 63
ATOM     63  C   TRP X   6     -11.954 -14.178  37.937  1.00 36.76 LIG 0.20  C 
ATOM     64 O    TRP X   6     -11.743 -13.217  38.698  1.00 37.86 LIG-0.65  OA
ATOM     65 OXT  TRP X   6     -11.447 -15.248  38.294  1.00 39.11 LIG-0.65  OA
ENDBRANCH 51 63
ENDBRANCH 49 51
ENDBRANCH 43 47
ENDBRANCH 1 40
TORSDOF 19
ENDMDL
MODEL 48
USER: ADFR SOLUTION from run 10
USER: SCORE 18.455646 LL:  -5.781 LR: -14.196 RR:   0.000 FEB:  -8.528
USER: RMSD 6.357265
USER: SEED 189125
USER: STATUS no improvement in best in 9 clusters for 5 generations
USER: GENES 21
USER: genes 0 Translation |==|  0.63385 0.73150 0.49165
USER: genes 1 Rotation |==|  0.17087 0.44940 0.23639 0.76387
USER: genes 2 Torsion [CB]-CA--N-[C] |==|  0.53917
USER: genes 3 Torsion [N]-C--CA-[N] |==|  0.23459
USER: genes 4 Torsion [C]-CA--N-[C] |==|  0.65470
USER: genes 5 Torsion [N]-C--CA-[N] |==|  0.42865
USER: genes 6 Torsion [C]-CA--CB-[CG] |==|  0.07053
USER: genes 7 Torsion [CA]-CB--CG-[SD] |==|  0.75595
USER: genes 8 Torsion [CB]-CG--SD-[CE] |==|  0.62572
USER: genes 9 Torsion [C]-CA--CB-[CG] |==|  0.32840
USER: genes 10 Torsion [CA]-CB--CG-[CD2] |==|  0.69298
USER: genes 11 Torsion [N]-CA--CB-[CG] |==|  0.43607
USER: genes 12 Torsion [CA]-CB--CG-[CD] |==|  0.58113
USER: genes 13 Torsion [CB]-CG--CD-[NE] |==|  0.30899
USER: genes 14 Torsion [CG]-CD--NE-[CZ] |==|  0.62715
USER: genes 15 Torsion [N]-CA--C-[N] |==|  0.84493
USER: genes 16 Torsion [N]-CA--C-[O] |==|  0.59204
USER: genes 17 Torsion [C]-N--CA-[CB] |==|  0.19444
USER: genes 18 Torsion [N]-CA--CB-[CG] |==|  0.69971
USER: genes 19 Torsion [CA]-CB--CG-[CD2] |==|  0.50489
USER: genes 20 Torsion [N]-CA--C-[O] |==|  0.66961
ROOT
ATOM      1  CA  ARG X   4     -18.554  -7.962  38.538  1.00 29.51 LIG 0.18  C 
ENDROOT
BRANCH 1 2
ATOM      2  N   ARG X   4     -19.522  -9.011  38.228  1.00 29.26 LIG-0.35  N 
ATOM      3  C   TRP X   3     -19.220 -10.322  38.269  1.00 30.37 LIG 0.24  C 
ATOM      4 O    TRP X   3     -18.101 -10.763  38.608  1.00 30.38 LIG-0.27  OA
ATOM      5 H    ARG X   4     -20.300  -8.713  38.017  1.00 29.26 LIG 0.16  HD
BRANCH 3 6
ATOM      6  CA  TRP X   3     -20.354 -11.296  37.888  1.00 30.62 LIG 0.18  C 
BRANCH 6 7
ATOM      7  N   TRP X   3     -20.456 -11.500  36.433  1.00 31.45 LIG-0.34  N 
ATOM      8 H    TRP X   3     -19.739 -11.770  36.043  1.00 31.45 LIG 0.16  HD
ATOM      9  C   MET X   2     -21.619 -11.262  35.828  1.00 32.92 LIG 0.26  C 
ATOM     10 O    MET X   2     -22.624 -10.962  36.445  1.00 32.35 LIG-0.27  OA
BRANCH 9 11
ATOM     11  CA  MET X   2     -21.695 -11.411  34.334  1.00 34.28 LIG 0.40  C 
ATOM     12  N   MET X   2     -23.105 -11.726  33.875  1.00 35.36 LIG 0.61  N 
BRANCH 11 13
ATOM     13  CB  MET X   2     -21.210 -10.122  33.691  1.00 35.71 LIG 0.06  C 
BRANCH 13 14
ATOM     14  CG  MET X   2     -20.264  -9.315  34.537  1.00 37.62 LIG 0.08  C 
BRANCH 14 15
ATOM     15 SD   MET X   2     -20.983  -8.118  35.694  1.00 39.06 LIG-0.17  SA
ATOM     16  CE  MET X   2     -19.927  -6.665  35.398  1.00 45.88 LIG 0.09  C 
ENDBRANCH 14 15
ENDBRANCH 13 14
ENDBRANCH 11 13
ENDBRANCH 9 11
ENDBRANCH 6 7
BRANCH 6 17
ATOM     17  CB  TRP X   3     -20.228 -12.614  38.653  1.00 29.85 LIG 0.07  C 
BRANCH 17 18
ATOM     18  CG  TRP X   3     -21.415 -12.879  39.540  1.00 29.58 LIG-0.03  A 
ATOM     19  CD1 TRP X   3     -22.684 -13.185  39.131  1.00 26.84 LIG 0.10  A 
ATOM     20  NE1 TRP X   3     -23.495 -13.349  40.223  1.00 29.47 LIG-0.36  N 
ATOM     21 HE1  TRP X   3     -24.334 -13.539  40.194  1.00 29.47 LIG 0.17  HD
ATOM     22  CE2 TRP X   3     -22.764 -13.163  41.374  1.00 27.62 LIG 0.04  A 
ATOM     23  CZ2 TRP X   3     -23.159 -13.226  42.744  1.00 28.85 LIG 0.03  A 
ATOM     24  CD2 TRP X   3     -21.442 -12.862  40.983  1.00 25.33 LIG-0.00  A 
ATOM     25  CH2 TRP X   3     -22.179 -12.984  43.715  1.00 28.18 LIG 0.00  A 
ATOM     26  CZ3 TRP X   3     -20.860 -12.669  43.342  1.00 26.79 LIG 0.00  A 
ATOM     27  CE3 TRP X   3     -20.485 -12.591  41.975  1.00 25.86 LIG 0.01  A 
ENDBRANCH 17 18
ENDBRANCH 6 17
ENDBRANCH 3 6
ENDBRANCH 1 2
BRANCH 1 28
ATOM     28  CB  ARG X   4     -19.243  -6.598  38.751  1.00 29.55 LIG 0.04  C 
BRANCH 28 29
ATOM     29  CG  ARG X   4     -18.438  -5.608  39.590  1.00 28.17 LIG 0.02  C 
BRANCH 29 30
ATOM     30  CD  ARG X   4     -19.381  -4.658  40.343  1.00 27.09 LIG 0.14  C 
BRANCH 30 31
ATOM     31  NE  ARG X   4     -19.321  -4.937  41.775  1.00 25.46 LIG-0.23  N 
ATOM     32 HE   ARG X   4     -18.549  -5.039  42.139  1.00 25.46 LIG 0.18  HD
ATOM     33  CZ  ARG X   4     -20.404  -5.040  42.549  1.00 27.27 LIG 0.67  C 
ATOM     34  NH2 ARG X   4     -20.286  -5.287  43.850  1.00 24.12 LIG-0.23  N 
ATOM     35  NH1 ARG X   4     -21.610  -4.910  42.003  1.00 21.32 LIG-0.23  N 
ATOM     36 1HH2 ARG X   4     -19.507  -5.382  44.202  1.00 24.12 LIG 0.17  HD
ATOM     37 2HH2 ARG X   4     -20.990  -5.352  44.341  1.00 24.12 LIG 0.17  HD
ATOM     38 2HH1 ARG X   4     -22.313  -4.976  42.493  1.00 21.32 LIG 0.17  HD
ATOM     39 1HH1 ARG X   4     -21.687  -4.761  41.159  1.00 21.32 LIG 0.17  HD
ENDBRANCH 30 31
ENDBRANCH 29 30
ENDBRANCH 28 29
ENDBRANCH 1 28
BRANCH 1 40
ATOM     40  C   ARG X   4     -17.843  -8.355  39.807  1.00 30.38 LIG 0.24  C 
ATOM     41 O    ARG X   4     -16.626  -8.449  39.799  1.00 31.87 LIG-0.27  OA
ATOM     42  N   PRO X   5     -18.590  -8.604  40.894  1.00 30.60 LIG-0.34  N 
ATOM     43  CA  PRO X   5     -17.959  -8.806  42.218  1.00 31.31 LIG 0.18  C 
ATOM     44  CD  PRO X   5     -20.077  -8.644  40.949  1.00 29.99 LIG 0.13  C 
ATOM     45  CB  PRO X   5     -19.135  -8.653  43.187  1.00 30.70 LIG 0.04  C 
ATOM     46  CG  PRO X   5     -20.393  -9.058  42.363  1.00 29.42 LIG 0.02  C 
BRANCH 43 47
ATOM     47  C   PRO X   5     -17.239 -10.156  42.491  1.00 32.23 LIG 0.24  C 
ATOM     48 O    PRO X   5     -17.240 -10.655  43.657  1.00 32.23 LIG-0.27  OA
ATOM     49  N   TRP X   6     -16.658 -10.751  41.452  1.00 33.50 LIG-0.34  N 
ATOM     50 H    TRP X   6     -16.576 -10.394  40.673  1.00 33.50 LIG 0.16  HD
BRANCH 49 51
ATOM     51  CA  TRP X   6     -16.098 -12.104  41.570  1.00 34.66 LIG 0.19  C 
BRANCH 51 52
ATOM     52  CB  TRP X   6     -17.239 -13.131  41.720  1.00 34.41 LIG 0.08  C 
BRANCH 52 53
ATOM     53  CG  TRP X   6     -17.362 -13.731  43.108  1.00 32.39 LIG-0.03  A 
ATOM     54  CD2 TRP X   6     -18.302 -14.737  43.547  1.00 31.68 LIG-0.00  A 
ATOM     55  CE2 TRP X   6     -18.052 -14.965  44.915  1.00 33.29 LIG 0.04  A 
ATOM     56  CE3 TRP X   6     -19.313 -15.470  42.913  1.00 33.66 LIG 0.01  A 
ATOM     57  CZ2 TRP X   6     -18.763 -15.917  45.659  1.00 33.18 LIG 0.03  A 
ATOM     58  NE1 TRP X   6     -17.010 -14.149  45.284  1.00 30.87 LIG-0.36  N 
ATOM     59  CH2 TRP X   6     -19.739 -16.617  45.025  1.00 32.36 LIG 0.00  A 
ATOM     60  CZ3 TRP X   6     -20.036 -16.396  43.662  1.00 32.37 LIG 0.00  A 
ATOM     61 HE1  TRP X   6     -16.660 -14.110  46.069  1.00 30.87 LIG 0.17  HD
ATOM     62  CD1 TRP X   6     -16.617 -13.408  44.202  1.00 30.01 LIG 0.10  A 
ENDBRANCH 52 53
ENDBRANCH 51 52
BRANCH 51 63
ATOM     63  C   TRP X   6     -15.168 -12.476  40.398  1.00 36.76 LIG 0.20  C 
ATOM     64 O    TRP X   6     -15.365 -13.421  39.614  1.00 37.86 LIG-0.65  OA
ATOM     65 OXT  TRP X   6     -14.132 -11.834  40.191  1.00 39.11 LIG-0.65  OA
ENDBRANCH 51 63
ENDBRANCH 49 51
ENDBRANCH 43 47
ENDBRANCH 1 40
TORSDOF 19
ENDMDL
MODEL 49
USER: ADFR SOLUTION from run 130
USER: SCORE 17.745139 LL:  -4.775 LR: -14.192 RR:   0.000 FEB:  -8.524
USER: RMSD 7.501967
USER: SEED 129
USER: STATUS no improvement in best in 6 clusters for 5 generations
USER: GENES 21
USER: genes 0 Translation |==|  0.64928 0.68053 0.55479
USER: genes 1 Rotation |==|  0.23320 0.61598 0.38681 0.89058
USER: genes 2 Torsion [CB]-CA--N-[C] |==|  0.52224
USER: genes 3 Torsion [N]-C--CA-[N] |==|  0.42575
USER: genes 4 Torsion [C]-CA--N-[C] |==|  0.67052
USER: genes 5 Torsion [N]-C--CA-[N] |==|  0.41179
USER: genes 6 Torsion [C]-CA--CB-[CG] |==|  0.08019
USER: genes 7 Torsion [CA]-CB--CG-[SD] |==|  0.75037
USER: genes 8 Torsion [CB]-CG--SD-[CE] |==|  0.50720
USER: genes 9 Torsion [C]-CA--CB-[CG] |==|  0.33367
USER: genes 10 Torsion [CA]-CB--CG-[CD2] |==|  0.66976
USER: genes 11 Torsion [N]-CA--CB-[CG] |==|  0.86191
USER: genes 12 Torsion [CA]-CB--CG-[CD] |==|  0.42293
USER: genes 13 Torsion [CB]-CG--CD-[NE] |==|  0.25072
USER: genes 14 Torsion [CG]-CD--NE-[CZ] |==|  0.23997
USER: genes 15 Torsion [N]-CA--C-[N] |==|  0.81936
USER: genes 16 Torsion [N]-CA--C-[O] |==|  0.77755
USER: genes 17 Torsion [C]-N--CA-[CB] |==|  0.46104
USER: genes 18 Torsion [N]-CA--CB-[CG] |==|  0.65029
USER: genes 19 Torsion [CA]-CB--CG-[CD2] |==|  0.18618
USER: genes 20 Torsion [N]-CA--C-[O] |==|  0.33276
ROOT
ATOM      1  CA  ARG X   4     -18.230  -8.956  39.721  1.00 29.51 LIG 0.18  C 
ENDROOT
BRANCH 1 2
ATOM      2  N   ARG X   4     -19.276  -9.893  39.320  1.00 29.26 LIG-0.35  N 
ATOM      3  C   TRP X   3     -19.209 -10.629  38.195  1.00 30.37 LIG 0.24  C 
ATOM      4 O    TRP X   3     -18.236 -10.604  37.411  1.00 30.38 LIG-0.27  OA
ATOM      5 H    ARG X   4     -19.937  -9.931  39.869  1.00 29.26 LIG 0.16  HD
BRANCH 3 6
ATOM      6  CA  TRP X   3     -20.413 -11.550  37.909  1.00 30.62 LIG 0.18  C 
BRANCH 6 7
ATOM      7  N   TRP X   3     -20.589 -11.818  36.472  1.00 31.45 LIG-0.34  N 
ATOM      8 H    TRP X   3     -19.934 -12.219  36.084  1.00 31.45 LIG 0.16  HD
ATOM      9  C   MET X   2     -21.718 -11.435  35.879  1.00 32.92 LIG 0.26  C 
ATOM     10 O    MET X   2     -22.645 -10.948  36.497  1.00 32.35 LIG-0.27  OA
BRANCH 9 11
ATOM     11  CA  MET X   2     -21.862 -11.655  34.398  1.00 34.28 LIG 0.40  C 
ATOM     12  N   MET X   2     -23.303 -11.918  34.010  1.00 35.36 LIG 0.61  N 
BRANCH 11 13
ATOM     13  CB  MET X   2     -21.339 -10.427  33.671  1.00 35.71 LIG 0.06  C 
BRANCH 13 14
ATOM     14  CG  MET X   2     -20.260  -9.676  34.403  1.00 37.62 LIG 0.08  C 
BRANCH 14 15
ATOM     15 SD   MET X   2     -20.776  -8.356  35.535  1.00 39.06 LIG-0.17  SA
ATOM     16  CE  MET X   2     -19.163  -7.721  36.090  1.00 45.88 LIG 0.09  C 
ENDBRANCH 14 15
ENDBRANCH 13 14
ENDBRANCH 11 13
ENDBRANCH 9 11
ENDBRANCH 6 7
BRANCH 6 17
ATOM     17  CB  TRP X   3     -20.329 -12.836  38.735  1.00 29.85 LIG 0.07  C 
BRANCH 17 18
ATOM     18  CG  TRP X   3     -21.513 -13.009  39.648  1.00 29.58 LIG-0.03  A 
ATOM     19  CD1 TRP X   3     -22.823 -13.122  39.269  1.00 26.84 LIG 0.10  A 
ATOM     20  NE1 TRP X   3     -23.615 -13.257  40.379  1.00 29.47 LIG-0.36  N 
ATOM     21 HE1  TRP X   3     -24.471 -13.337  40.371  1.00 29.47 LIG 0.17  HD
ATOM     22  CE2 TRP X   3     -22.831 -13.247  41.511  1.00 27.62 LIG 0.04  A 
ATOM     23  CZ2 TRP X   3     -23.189 -13.354  42.889  1.00 28.85 LIG 0.03  A 
ATOM     24  CD2 TRP X   3     -21.494 -13.090  41.089  1.00 25.33 LIG-0.00  A 
ATOM     25  CH2 TRP X   3     -22.157 -13.307  43.834  1.00 28.18 LIG 0.00  A 
ATOM     26  CZ3 TRP X   3     -20.820 -13.138  43.431  1.00 26.79 LIG 0.00  A 
ATOM     27  CE3 TRP X   3     -20.481 -13.012  42.059  1.00 25.86 LIG 0.01  A 
ENDBRANCH 17 18
ENDBRANCH 6 17
ENDBRANCH 3 6
ENDBRANCH 1 2
BRANCH 1 28
ATOM     28  CB  ARG X   4     -18.476  -8.403  41.141  1.00 29.55 LIG 0.04  C 
BRANCH 28 29
ATOM     29  CG  ARG X   4     -19.886  -7.868  41.375  1.00 28.17 LIG 0.02  C 
BRANCH 29 30
ATOM     30  CD  ARG X   4     -20.263  -7.991  42.859  1.00 27.09 LIG 0.14  C 
BRANCH 30 31
ATOM     31  NE  ARG X   4     -19.875  -6.774  43.568  1.00 25.46 LIG-0.23  N 
ATOM     32 HE   ARG X   4     -19.107  -6.754  43.954  1.00 25.46 LIG 0.18  HD
ATOM     33  CZ  ARG X   4     -20.653  -5.693  43.648  1.00 27.27 LIG 0.67  C 
ATOM     34  NH2 ARG X   4     -20.242  -4.609  44.302  1.00 24.12 LIG-0.23  N 
ATOM     35  NH1 ARG X   4     -21.856  -5.710  43.081  1.00 21.32 LIG-0.23  N 
ATOM     36 1HH2 ARG X   4     -19.469  -4.601  44.678  1.00 24.12 LIG 0.17  HD
ATOM     37 2HH2 ARG X   4     -20.750  -3.916  44.348  1.00 24.12 LIG 0.17  HD
ATOM     38 2HH1 ARG X   4     -22.364  -5.018  43.128  1.00 21.32 LIG 0.17  HD
ATOM     39 1HH1 ARG X   4     -22.126  -6.414  42.667  1.00 21.32 LIG 0.17  HD
ENDBRANCH 30 31
ENDBRANCH 29 30
ENDBRANCH 28 29
ENDBRANCH 1 28
BRANCH 1 40
ATOM     40  C   ARG X   4     -16.919  -9.698  39.706  1.00 30.38 LIG 0.24  C 
ATOM     41 O    ARG X   4     -16.066  -9.378  38.894  1.00 31.87 LIG-0.27  OA
ATOM     42  N   PRO X   5     -16.755 -10.702  40.582  1.00 30.60 LIG-0.34  N 
ATOM     43  CA  PRO X   5     -15.434 -11.347  40.757  1.00 31.31 LIG 0.18  C 
ATOM     44  CD  PRO X   5     -17.790 -11.240  41.507  1.00 29.99 LIG 0.13  C 
ATOM     45  CB  PRO X   5     -15.596 -12.108  42.077  1.00 30.70 LIG 0.04  C 
ATOM     46  CG  PRO X   5     -17.120 -12.405  42.189  1.00 29.42 LIG 0.02  C 
BRANCH 43 47
ATOM     47  C   PRO X   5     -14.942 -12.326  39.655  1.00 32.23 LIG 0.24  C 
ATOM     48 O    PRO X   5     -15.370 -13.519  39.624  1.00 32.23 LIG-0.27  OA
ATOM     49  N   TRP X   6     -14.087 -11.843  38.758  1.00 33.50 LIG-0.34  N 
ATOM     50 H    TRP X   6     -13.723 -11.064  38.806  1.00 33.50 LIG 0.16  HD
BRANCH 49 51
ATOM     51  CA  TRP X   6     -13.692 -12.634  37.585  1.00 34.66 LIG 0.19  C 
BRANCH 51 52
ATOM     52  CB  TRP X   6     -12.991 -11.727  36.553  1.00 34.41 LIG 0.08  C 
BRANCH 52 53
ATOM     53  CG  TRP X   6     -13.596 -11.776  35.163  1.00 32.39 LIG-0.03  A 
ATOM     54  CD2 TRP X   6     -14.902 -11.308  34.758  1.00 31.68 LIG-0.00  A 
ATOM     55  CE2 TRP X   6     -15.029 -11.580  33.382  1.00 33.29 LIG 0.04  A 
ATOM     56  CE3 TRP X   6     -15.962 -10.678  35.424  1.00 33.66 LIG 0.01  A 
ATOM     57  CZ2 TRP X   6     -16.168 -11.219  32.648  1.00 33.18 LIG 0.03  A 
ATOM     58  NE1 TRP X   6     -13.859 -12.171  32.970  1.00 30.87 LIG-0.36  N 
ATOM     59  CH2 TRP X   6     -17.183 -10.608  33.312  1.00 32.36 LIG 0.00  A 
ATOM     60  CZ3 TRP X   6     -17.102 -10.346  34.698  1.00 32.37 LIG 0.00  A 
ATOM     61 HE1  TRP X   6     -13.682 -12.422  32.166  1.00 30.87 LIG 0.17  HD
ATOM     62  CD1 TRP X   6     -13.019 -12.295  34.044  1.00 30.01 LIG 0.10  A 
ENDBRANCH 52 53
ENDBRANCH 51 52
BRANCH 51 63
ATOM     63  C   TRP X   6     -12.811 -13.847  37.944  1.00 36.76 LIG 0.20  C 
ATOM     64 O    TRP X   6     -13.112 -15.031  37.709  1.00 37.86 LIG-0.65  OA
ATOM     65 OXT  TRP X   6     -11.730 -13.688  38.523  1.00 39.11 LIG-0.65  OA
ENDBRANCH 51 63
ENDBRANCH 49 51
ENDBRANCH 43 47
ENDBRANCH 1 40
TORSDOF 19
ENDMDL
MODEL 50
USER: ADFR SOLUTION from run 81
USER: SCORE 18.275496 LL:  -5.627 LR: -14.193 RR:   0.000 FEB:  -8.525
USER: RMSD 8.605571
USER: SEED 80
USER: STATUS no improvement in best in 21 clusters for 5 generations
USER: GENES 21
USER: genes 0 Translation |==|  0.56619 0.72365 0.68950
USER: genes 1 Rotation |==|  0.28342 0.66081 0.83547 0.75435
USER: genes 2 Torsion [CB]-CA--N-[C] |==|  0.37989
USER: genes 3 Torsion [N]-C--CA-[N] |==|  0.39613
USER: genes 4 Torsion [C]-CA--N-[C] |==|  0.69812
USER: genes 5 Torsion [N]-C--CA-[N] |==|  0.58105
USER: genes 6 Torsion [C]-CA--CB-[CG] |==|  0.27217
USER: genes 7 Torsion [CA]-CB--CG-[SD] |==|  0.74594
USER: genes 8 Torsion [CB]-CG--SD-[CE] |==|  0.85263
USER: genes 9 Torsion [C]-CA--CB-[CG] |==|  0.38244
USER: genes 10 Torsion [CA]-CB--CG-[CD2] |==|  0.83737
USER: genes 11 Torsion [N]-CA--CB-[CG] |==|  0.36322
USER: genes 12 Torsion [CA]-CB--CG-[CD] |==|  0.24523
USER: genes 13 Torsion [CB]-CG--CD-[NE] |==|  0.70236
USER: genes 14 Torsion [CG]-CD--NE-[CZ] |==|  0.82544
USER: genes 15 Torsion [N]-CA--C-[N] |==|  0.83333
USER: genes 16 Torsion [N]-CA--C-[O] |==|  0.41613
USER: genes 17 Torsion [C]-N--CA-[CB] |==|  0.24702
USER: genes 18 Torsion [N]-CA--CB-[CG] |==|  0.15898
USER: genes 19 Torsion [CA]-CB--CG-[CD2] |==|  0.41266
USER: genes 20 Torsion [N]-CA--C-[O] |==|  0.47563
ROOT
ATOM      1  CA  ARG X   4     -19.975  -8.115  42.247  1.00 29.51 LIG 0.18  C 
ENDROOT
BRANCH 1 2
ATOM      2  N   ARG X   4     -19.545  -9.449  41.838  1.00 29.26 LIG-0.35  N 
ATOM      3  C   TRP X   3     -20.377 -10.506  41.795  1.00 30.37 LIG 0.24  C 
ATOM      4 O    TRP X   3     -21.595 -10.438  42.064  1.00 30.38 LIG-0.27  OA
ATOM      5 H    ARG X   4     -18.712  -9.496  41.629  1.00 29.26 LIG 0.16  HD
BRANCH 3 6
ATOM      6  CA  TRP X   3     -19.752 -11.850  41.365  1.00 30.62 LIG 0.18  C 
BRANCH 6 7
ATOM      7  N   TRP X   3     -20.309 -12.994  42.106  1.00 31.45 LIG-0.34  N 
ATOM      8 H    TRP X   3     -21.118 -13.208  41.909  1.00 31.45 LIG 0.16  HD
ATOM      9  C   MET X   2     -19.548 -13.608  43.010  1.00 32.92 LIG 0.26  C 
ATOM     10 O    MET X   2     -18.381 -13.314  43.187  1.00 32.35 LIG-0.27  OA
BRANCH 9 11
ATOM     11  CA  MET X   2     -20.147 -14.733  43.808  1.00 34.28 LIG 0.40  C 
ATOM     12  N   MET X   2     -19.509 -14.848  45.178  1.00 35.36 LIG 0.61  N 
BRANCH 11 13
ATOM     13  CB  MET X   2     -21.642 -14.491  43.945  1.00 35.71 LIG 0.06  C 
BRANCH 13 14
ATOM     14  CG  MET X   2     -22.493 -15.245  42.959  1.00 37.62 LIG 0.08  C 
BRANCH 14 15
ATOM     15 SD   MET X   2     -22.897 -14.422  41.395  1.00 39.06 LIG-0.17  SA
ATOM     16  CE  MET X   2     -23.590 -12.850  41.995  1.00 45.88 LIG 0.09  C 
ENDBRANCH 14 15
ENDBRANCH 13 14
ENDBRANCH 11 13
ENDBRANCH 9 11
ENDBRANCH 6 7
BRANCH 6 17
ATOM     17  CB  TRP X   3     -19.843 -12.039  39.849  1.00 29.85 LIG 0.07  C 
BRANCH 17 18
ATOM     18  CG  TRP X   3     -18.575 -12.601  39.264  1.00 29.58 LIG-0.03  A 
ATOM     19  CD1 TRP X   3     -18.453 -13.764  38.553  1.00 26.84 LIG 0.10  A 
ATOM     20  NE1 TRP X   3     -17.145 -13.950  38.192  1.00 29.47 LIG-0.36  N 
ATOM     21 HE1  TRP X   3     -16.844 -14.621  37.745  1.00 29.47 LIG 0.17  HD
ATOM     22  CE2 TRP X   3     -16.384 -12.900  38.655  1.00 27.62 LIG 0.04  A 
ATOM     23  CZ2 TRP X   3     -14.984 -12.646  38.535  1.00 28.85 LIG 0.03  A 
ATOM     24  CD2 TRP X   3     -17.253 -12.026  39.340  1.00 25.33 LIG-0.00  A 
ATOM     25  CH2 TRP X   3     -14.483 -11.477  39.121  1.00 28.18 LIG 0.00  A 
ATOM     26  CZ3 TRP X   3     -15.335 -10.601  39.819  1.00 26.79 LIG 0.00  A 
ATOM     27  CE3 TRP X   3     -16.721 -10.877  39.947  1.00 25.86 LIG 0.01  A 
ENDBRANCH 17 18
ENDBRANCH 6 17
ENDBRANCH 3 6
ENDBRANCH 1 2
BRANCH 1 28
ATOM     28  CB  ARG X   4     -18.950  -7.450  43.190  1.00 29.55 LIG 0.04  C 
BRANCH 28 29
ATOM     29  CG  ARG X   4     -18.561  -6.027  42.798  1.00 28.17 LIG 0.02  C 
BRANCH 29 30
ATOM     30  CD  ARG X   4     -19.528  -5.017  43.433  1.00 27.09 LIG 0.14  C 
BRANCH 30 31
ATOM     31  NE  ARG X   4     -20.410  -4.467  42.408  1.00 25.46 LIG-0.23  N 
ATOM     32 HE   ARG X   4     -21.255  -4.613  42.476  1.00 25.46 LIG 0.18  HD
ATOM     33  CZ  ARG X   4     -19.973  -3.748  41.372  1.00 27.27 LIG 0.67  C 
ATOM     34  NH2 ARG X   4     -20.826  -3.265  40.473  1.00 24.12 LIG-0.23  N 
ATOM     35  NH1 ARG X   4     -18.667  -3.530  41.234  1.00 21.32 LIG-0.23  N 
ATOM     36 1HH2 ARG X   4     -21.669  -3.415  40.556  1.00 24.12 LIG 0.17  HD
ATOM     37 2HH2 ARG X   4     -20.535  -2.803  39.809  1.00 24.12 LIG 0.17  HD
ATOM     38 2HH1 ARG X   4     -18.377  -3.069  40.569  1.00 21.32 LIG 0.17  HD
ATOM     39 1HH1 ARG X   4     -18.115  -3.851  41.809  1.00 21.32 LIG 0.17  HD
ENDBRANCH 30 31
ENDBRANCH 29 30
ENDBRANCH 28 29
ENDBRANCH 1 28
BRANCH 1 40
ATOM     40  C   ARG X   4     -20.110  -7.276  41.002  1.00 30.38 LIG 0.24  C 
ATOM     41 O    ARG X   4     -21.200  -6.804  40.721  1.00 31.87 LIG-0.27  OA
ATOM     42  N   PRO X   5     -19.018  -7.100  40.242  1.00 30.60 LIG-0.34  N 
ATOM     43  CA  PRO X   5     -19.025  -6.138  39.116  1.00 31.31 LIG 0.18  C 
ATOM     44  CD  PRO X   5     -17.694  -7.749  40.441  1.00 29.99 LIG 0.13  C 
ATOM     45  CB  PRO X   5     -17.535  -5.962  38.806  1.00 30.70 LIG 0.04  C 
ATOM     46  CG  PRO X   5     -16.865  -7.289  39.269  1.00 29.42 LIG 0.02  C 
BRANCH 43 47
ATOM     47  C   PRO X   5     -19.779  -6.533  37.816  1.00 32.23 LIG 0.24  C 
ATOM     48 O    PRO X   5     -20.307  -5.639  37.089  1.00 32.23 LIG-0.27  OA
ATOM     49  N   TRP X   6     -19.816  -7.827  37.510  1.00 33.50 LIG-0.34  N 
ATOM     50 H    TRP X   6     -19.536  -8.455  38.027  1.00 33.50 LIG 0.16  HD
BRANCH 49 51
ATOM     51  CA  TRP X   6     -20.357  -8.286  36.224  1.00 34.66 LIG 0.19  C 
BRANCH 51 52
ATOM     52  CB  TRP X   6     -19.235  -8.321  35.166  1.00 34.41 LIG 0.08  C 
BRANCH 52 53
ATOM     53  CG  TRP X   6     -18.051  -9.193  35.540  1.00 32.39 LIG-0.03  A 
ATOM     54  CD2 TRP X   6     -17.193  -9.936  34.646  1.00 31.68 LIG-0.00  A 
ATOM     55  CE2 TRP X   6     -16.247 -10.608  35.445  1.00 33.29 LIG 0.04  A 
ATOM     56  CE3 TRP X   6     -17.129 -10.085  33.254  1.00 33.66 LIG 0.01  A 
ATOM     57  CZ2 TRP X   6     -15.228 -11.400  34.897  1.00 33.18 LIG 0.03  A 
ATOM     58  NE1 TRP X   6     -16.509 -10.281  36.754  1.00 30.87 LIG-0.36  N 
ATOM     59  CH2 TRP X   6     -15.184 -11.529  33.545  1.00 32.36 LIG 0.00  A 
ATOM     60  CZ3 TRP X   6     -16.133 -10.894  32.714  1.00 32.37 LIG 0.00  A 
ATOM     61 HE1  TRP X   6     -16.062 -10.555  37.436  1.00 30.87 LIG 0.17  HD
ATOM     62  CD1 TRP X   6     -17.595  -9.449  36.798  1.00 30.01 LIG 0.10  A 
ENDBRANCH 52 53
ENDBRANCH 51 52
BRANCH 51 63
ATOM     63  C   TRP X   6     -21.070  -9.650  36.321  1.00 36.76 LIG 0.20  C 
ATOM     64 O    TRP X   6     -21.737 -10.164  35.405  1.00 37.86 LIG-0.65  OA
ATOM     65 OXT  TRP X   6     -21.021 -10.310  37.365  1.00 39.11 LIG-0.65  OA
ENDBRANCH 51 63
ENDBRANCH 49 51
ENDBRANCH 43 47
ENDBRANCH 1 40
TORSDOF 19
ENDMDL
MODEL 51
USER: ADFR SOLUTION from run 28
USER: SCORE 18.324659 LL:  -4.842 LR: -14.171 RR:   0.000 FEB:  -8.503
USER: RMSD 9.324223
USER: SEED 27
USER: STATUS no improvement in best in 4 clusters for 5 generations
USER: GENES 21
USER: genes 0 Translation |==|  0.58880 0.76606 0.59316
USER: genes 1 Rotation |==|  0.26875 0.78507 0.77134 0.70404
USER: genes 2 Torsion [CB]-CA--N-[C] |==|  0.19018
USER: genes 3 Torsion [N]-C--CA-[N] |==|  0.88578
USER: genes 4 Torsion [C]-CA--N-[C] |==|  0.83506
USER: genes 5 Torsion [N]-C--CA-[N] |==|  0.03685
USER: genes 6 Torsion [C]-CA--CB-[CG] |==|  0.69523
USER: genes 7 Torsion [CA]-CB--CG-[SD] |==|  0.25787
USER: genes 8 Torsion [CB]-CG--SD-[CE] |==|  0.08436
USER: genes 9 Torsion [C]-CA--CB-[CG] |==|  0.36862
USER: genes 10 Torsion [CA]-CB--CG-[CD2] |==|  0.09461
USER: genes 11 Torsion [N]-CA--CB-[CG] |==|  0.71817
USER: genes 12 Torsion [CA]-CB--CG-[CD] |==|  0.79077
USER: genes 13 Torsion [CB]-CG--CD-[NE] |==|  0.22504
USER: genes 14 Torsion [CG]-CD--NE-[CZ] |==|  0.15329
USER: genes 15 Torsion [N]-CA--C-[N] |==|  0.84178
USER: genes 16 Torsion [N]-CA--C-[O] |==|  0.41492
USER: genes 17 Torsion [C]-N--CA-[CB] |==|  0.27904
USER: genes 18 Torsion [N]-CA--CB-[CG] |==|  0.71106
USER: genes 19 Torsion [CA]-CB--CG-[CD2] |==|  0.34174
USER: genes 20 Torsion [N]-CA--C-[O] |==|  0.37056
ROOT
ATOM      1  CA  ARG X   4     -19.500  -7.288  40.441  1.00 29.51 LIG 0.18  C 
ENDROOT
BRANCH 1 2
ATOM      2  N   ARG X   4     -19.355  -8.708  40.750  1.00 29.26 LIG-0.35  N 
ATOM      3  C   TRP X   3     -19.257  -9.178  42.008  1.00 30.37 LIG 0.24  C 
ATOM      4 O    TRP X   3     -19.315  -8.451  43.023  1.00 30.38 LIG-0.27  OA
ATOM      5 H    ARG X   4     -19.339  -9.214  40.055  1.00 29.26 LIG 0.16  HD
BRANCH 3 6
ATOM      6  CA  TRP X   3     -19.083 -10.704  42.154  1.00 30.62 LIG 0.18  C 
BRANCH 6 7
ATOM      7  N   TRP X   3     -19.935 -11.460  41.221  1.00 31.45 LIG-0.34  N 
ATOM      8 H    TRP X   3     -19.521 -11.979  40.674  1.00 31.45 LIG 0.16  HD
ATOM      9  C   MET X   2     -21.256 -11.300  41.280  1.00 32.92 LIG 0.26  C 
ATOM     10 O    MET X   2     -21.792 -10.615  42.131  1.00 32.35 LIG-0.27  OA
BRANCH 9 11
ATOM     11  CA  MET X   2     -22.113 -12.027  40.281  1.00 34.28 LIG 0.40  C 
ATOM     12  N   MET X   2     -21.329 -13.097  39.547  1.00 35.36 LIG 0.61  N 
BRANCH 11 13
ATOM     13  CB  MET X   2     -23.292 -12.649  41.011  1.00 35.71 LIG 0.06  C 
BRANCH 13 14
ATOM     14  CG  MET X   2     -23.250 -14.150  41.107  1.00 37.62 LIG 0.08  C 
BRANCH 14 15
ATOM     15 SD   MET X   2     -22.494 -14.876  42.587  1.00 39.06 LIG-0.17  SA
ATOM     16  CE  MET X   2     -22.865 -13.601  43.832  1.00 45.88 LIG 0.09  C 
ENDBRANCH 14 15
ENDBRANCH 13 14
ENDBRANCH 11 13
ENDBRANCH 9 11
ENDBRANCH 6 7
BRANCH 6 17
ATOM     17  CB  TRP X   3     -17.610 -11.102  42.050  1.00 29.85 LIG 0.07  C 
BRANCH 17 18
ATOM     18  CG  TRP X   3     -17.193 -12.048  43.144  1.00 29.58 LIG-0.03  A 
ATOM     19  CD1 TRP X   3     -15.967 -12.101  43.750  1.00 26.84 LIG 0.10  A 
ATOM     20  NE1 TRP X   3     -15.959 -13.096  44.692  1.00 29.47 LIG-0.36  N 
ATOM     21 HE1  TRP X   3     -15.288 -13.306  45.186  1.00 29.47 LIG 0.17  HD
ATOM     22  CE2 TRP X   3     -17.192 -13.709  44.726  1.00 27.62 LIG 0.04  A 
ATOM     23  CZ2 TRP X   3     -17.668 -14.788  45.530  1.00 28.85 LIG 0.03  A 
ATOM     24  CD2 TRP X   3     -17.999 -13.075  43.759  1.00 25.33 LIG-0.00  A 
ATOM     25  CH2 TRP X   3     -18.991 -15.207  45.337  1.00 28.18 LIG 0.00  A 
ATOM     26  CZ3 TRP X   3     -19.805 -14.594  44.368  1.00 26.79 LIG 0.00  A 
ATOM     27  CE3 TRP X   3     -19.312 -13.535  43.562  1.00 25.86 LIG 0.01  A 
ENDBRANCH 17 18
ENDBRANCH 6 17
ENDBRANCH 3 6
ENDBRANCH 1 2
BRANCH 1 28
ATOM     28  CB  ARG X   4     -18.217  -6.499  40.776  1.00 29.55 LIG 0.04  C 
BRANCH 28 29
ATOM     29  CG  ARG X   4     -18.281  -5.717  42.086  1.00 28.17 LIG 0.02  C 
BRANCH 29 30
ATOM     30  CD  ARG X   4     -19.145  -4.458  41.913  1.00 27.09 LIG 0.14  C 
BRANCH 30 31
ATOM     31  NE  ARG X   4     -20.558  -4.811  42.019  1.00 25.46 LIG-0.23  N 
ATOM     32 HE   ARG X   4     -21.082  -4.595  41.373  1.00 25.46 LIG 0.18  HD
ATOM     33  CZ  ARG X   4     -21.077  -5.451  43.068  1.00 27.27 LIG 0.67  C 
ATOM     34  NH2 ARG X   4     -22.372  -5.754  43.105  1.00 24.12 LIG-0.23  N 
ATOM     35  NH1 ARG X   4     -20.289  -5.774  44.091  1.00 21.32 LIG-0.23  N 
ATOM     36 1HH2 ARG X   4     -22.883  -5.537  42.449  1.00 24.12 LIG 0.17  HD
ATOM     37 2HH2 ARG X   4     -22.698  -6.168  43.786  1.00 24.12 LIG 0.17  HD
ATOM     38 2HH1 ARG X   4     -20.616  -6.186  44.772  1.00 21.32 LIG 0.17  HD
ATOM     39 1HH1 ARG X   4     -19.454  -5.569  44.072  1.00 21.32 LIG 0.17  HD
ENDBRANCH 30 31
ENDBRANCH 29 30
ENDBRANCH 28 29
ENDBRANCH 1 28
BRANCH 1 40
ATOM     40  C   ARG X   4     -19.777  -7.167  38.964  1.00 30.38 LIG 0.24  C 
ATOM     41 O    ARG X   4     -20.799  -6.611  38.597  1.00 31.87 LIG-0.27  OA
ATOM     42  N   PRO X   5     -18.886  -7.699  38.113  1.00 30.60 LIG-0.34  N 
ATOM     43  CA  PRO X   5     -18.989  -7.453  36.656  1.00 31.31 LIG 0.18  C 
ATOM     44  CD  PRO X   5     -17.691  -8.507  38.480  1.00 29.99 LIG 0.13  C 
ATOM     45  CB  PRO X   5     -17.611  -7.875  36.138  1.00 30.70 LIG 0.04  C 
ATOM     46  CG  PRO X   5     -17.099  -8.932  37.161  1.00 29.42 LIG 0.02  C 
BRANCH 43 47
ATOM     47  C   PRO X   5     -20.092  -8.206  35.860  1.00 32.23 LIG 0.24  C 
ATOM     48 O    PRO X   5     -20.615  -7.672  34.836  1.00 32.23 LIG-0.27  OA
ATOM     49  N   TRP X   6     -20.427  -9.418  36.294  1.00 33.50 LIG-0.34  N 
ATOM     50 H    TRP X   6     -20.145  -9.765  37.029  1.00 33.50 LIG 0.16  HD
BRANCH 49 51
ATOM     51  CA  TRP X   6     -21.334 -10.275  35.519  1.00 34.66 LIG 0.19  C 
BRANCH 51 52
ATOM     52  CB  TRP X   6     -20.520 -11.324  34.734  1.00 34.41 LIG 0.08  C 
BRANCH 52 53
ATOM     53  CG  TRP X   6     -20.385 -11.031  33.252  1.00 32.39 LIG-0.03  A 
ATOM     54  CD2 TRP X   6     -19.162 -10.886  32.495  1.00 31.68 LIG-0.00  A 
ATOM     55  CE2 TRP X   6     -19.532 -10.601  31.166  1.00 33.29 LIG 0.04  A 
ATOM     56  CE3 TRP X   6     -17.801 -10.983  32.813  1.00 33.66 LIG 0.01  A 
ATOM     57  CZ2 TRP X   6     -18.586 -10.436  30.143  1.00 33.18 LIG 0.03  A 
ATOM     58  NE1 TRP X   6     -20.905 -10.585  31.115  1.00 30.87 LIG-0.36  N 
ATOM     59  CH2 TRP X   6     -17.273 -10.535  30.473  1.00 32.36 LIG 0.00  A 
ATOM     60  CZ3 TRP X   6     -16.864 -10.791  31.801  1.00 32.37 LIG 0.00  A 
ATOM     61 HE1  TRP X   6     -21.377 -10.445  30.409  1.00 30.87 LIG 0.17  HD
ATOM     62  CD1 TRP X   6     -21.401 -10.828  32.368  1.00 30.01 LIG 0.10  A 
ENDBRANCH 52 53
ENDBRANCH 51 52
BRANCH 51 63
ATOM     63  C   TRP X   6     -22.416 -10.949  36.386  1.00 36.76 LIG 0.20  C 
ATOM     64 O    TRP X   6     -23.625 -10.993  36.099  1.00 37.86 LIG-0.65  OA
ATOM     65 OXT  TRP X   6     -22.115 -11.482  37.461  1.00 39.11 LIG-0.65  OA
ENDBRANCH 51 63
ENDBRANCH 49 51
ENDBRANCH 43 47
ENDBRANCH 1 40
TORSDOF 19
ENDMDL
MODEL 52
USER: ADFR SOLUTION from run 116
USER: SCORE 17.385026 LL:  -4.511 LR: -14.156 RR:   0.000 FEB:  -8.489
USER: RMSD 5.342416
USER: SEED 115
USER: STATUS no improvement in best in 8 clusters for 5 generations
USER: GENES 21
USER: genes 0 Translation |==|  0.53012 0.55177 0.51603
USER: genes 1 Rotation |==|  0.63685 0.28524 0.58878 0.92103
USER: genes 2 Torsion [CB]-CA--N-[C] |==|  0.20813
USER: genes 3 Torsion [N]-C--CA-[N] |==|  0.28098
USER: genes 4 Torsion [C]-CA--N-[C] |==|  0.62222
USER: genes 5 Torsion [N]-C--CA-[N] |==|  0.32148
USER: genes 6 Torsion [C]-CA--CB-[CG] |==|  0.11599
USER: genes 7 Torsion [CA]-CB--CG-[SD] |==|  0.70263
USER: genes 8 Torsion [CB]-CG--SD-[CE] |==|  0.36203
USER: genes 9 Torsion [C]-CA--CB-[CG] |==|  0.23770
USER: genes 10 Torsion [CA]-CB--CG-[CD2] |==|  0.06240
USER: genes 11 Torsion [N]-CA--CB-[CG] |==|  0.67758
USER: genes 12 Torsion [CA]-CB--CG-[CD] |==|  0.64180
USER: genes 13 Torsion [CB]-CG--CD-[NE] |==|  0.40120
USER: genes 14 Torsion [CG]-CD--NE-[CZ] |==|  0.39996
USER: genes 15 Torsion [N]-CA--C-[N] |==|  0.47135
USER: genes 16 Torsion [N]-CA--C-[O] |==|  0.55661
USER: genes 17 Torsion [C]-N--CA-[CB] |==|  0.23278
USER: genes 18 Torsion [N]-CA--CB-[CG] |==|  0.77343
USER: genes 19 Torsion [CA]-CB--CG-[CD2] |==|  0.85011
USER: genes 20 Torsion [N]-CA--C-[O] |==|  0.10230
ROOT
ATOM      1  CA  ARG X   4     -20.732 -11.467  38.995  1.00 29.51 LIG 0.18  C 
ENDROOT
BRANCH 1 2
ATOM      2  N   ARG X   4     -19.927 -10.627  38.111  1.00 29.26 LIG-0.35  N 
ATOM      3  C   TRP X   3     -20.409 -10.081  36.980  1.00 30.37 LIG 0.24  C 
ATOM      4 O    TRP X   3     -21.592 -10.211  36.599  1.00 30.38 LIG-0.27  OA
ATOM      5 H    ARG X   4     -19.119 -10.515  38.381  1.00 29.26 LIG 0.16  HD
BRANCH 3 6
ATOM      6  CA  TRP X   3     -19.415  -9.242  36.150  1.00 30.62 LIG 0.18  C 
BRANCH 6 7
ATOM      7  N   TRP X   3     -18.885  -9.980  34.990  1.00 31.45 LIG-0.34  N 
ATOM      8 H    TRP X   3     -19.462 -10.427  34.538  1.00 31.45 LIG 0.16  HD
ATOM      9  C   MET X   2     -17.582  -9.909  34.723  1.00 32.92 LIG 0.26  C 
ATOM     10 O    MET X   2     -16.826  -9.192  35.350  1.00 32.35 LIG-0.27  OA
BRANCH 9 11
ATOM     11  CA  MET X   2     -17.040 -10.717  33.577  1.00 34.28 LIG 0.40  C 
ATOM     12  N   MET X   2     -16.491  -9.829  32.478  1.00 35.36 LIG 0.61  N 
BRANCH 11 13
ATOM     13  CB  MET X   2     -15.949 -11.636  34.101  1.00 35.71 LIG 0.06  C 
BRANCH 13 14
ATOM     14  CG  MET X   2     -16.260 -12.291  35.420  1.00 37.62 LIG 0.08  C 
BRANCH 14 15
ATOM     15 SD   MET X   2     -15.375 -11.692  36.885  1.00 39.06 LIG-0.17  SA
ATOM     16  CE  MET X   2     -16.754 -11.431  38.045  1.00 45.88 LIG 0.09  C 
ENDBRANCH 14 15
ENDBRANCH 13 14
ENDBRANCH 11 13
ENDBRANCH 9 11
ENDBRANCH 6 7
BRANCH 6 17
ATOM     17  CB  TRP X   3     -20.028  -7.897  35.753  1.00 29.85 LIG 0.07  C 
BRANCH 17 18
ATOM     18  CG  TRP X   3     -19.855  -6.851  36.821  1.00 29.58 LIG-0.03  A 
ATOM     19  CD1 TRP X   3     -20.616  -5.725  36.988  1.00 26.84 LIG 0.10  A 
ATOM     20  NE1 TRP X   3     -20.154  -5.010  38.061  1.00 29.47 LIG-0.36  N 
ATOM     21 HE1  TRP X   3     -20.483  -4.265  38.339  1.00 29.47 LIG 0.17  HD
ATOM     22  CE2 TRP X   3     -19.082  -5.663  38.625  1.00 27.62 LIG 0.04  A 
ATOM     23  CZ2 TRP X   3     -18.270  -5.317  39.748  1.00 28.85 LIG 0.03  A 
ATOM     24  CD2 TRP X   3     -18.861  -6.833  37.867  1.00 25.33 LIG-0.00  A 
ATOM     25  CH2 TRP X   3     -17.230  -6.190  40.092  1.00 28.18 LIG 0.00  A 
ATOM     26  CZ3 TRP X   3     -16.989  -7.353  39.338  1.00 26.79 LIG 0.00  A 
ATOM     27  CE3 TRP X   3     -17.791  -7.674  38.213  1.00 25.86 LIG 0.01  A 
ENDBRANCH 17 18
ENDBRANCH 6 17
ENDBRANCH 3 6
ENDBRANCH 1 2
BRANCH 1 28
ATOM     28  CB  ARG X   4     -20.947 -12.875  38.402  1.00 29.55 LIG 0.04  C 
BRANCH 28 29
ATOM     29  CG  ARG X   4     -22.401 -13.211  38.081  1.00 28.17 LIG 0.02  C 
BRANCH 29 30
ATOM     30  CD  ARG X   4     -22.786 -14.560  38.706  1.00 27.09 LIG 0.14  C 
BRANCH 30 31
ATOM     31  NE  ARG X   4     -24.175 -14.517  39.154  1.00 25.46 LIG-0.23  N 
ATOM     32 HE   ARG X   4     -24.476 -13.781  39.481  1.00 25.46 LIG 0.18  HD
ATOM     33  CZ  ARG X   4     -25.002 -15.562  39.083  1.00 27.27 LIG 0.67  C 
ATOM     34  NH2 ARG X   4     -26.261 -15.460  39.500  1.00 24.12 LIG-0.23  N 
ATOM     35  NH1 ARG X   4     -24.551 -16.719  38.605  1.00 21.32 LIG-0.23  N 
ATOM     36 1HH2 ARG X   4     -26.550 -14.716  39.819  1.00 24.12 LIG 0.17  HD
ATOM     37 2HH2 ARG X   4     -26.787 -16.139  39.449  1.00 24.12 LIG 0.17  HD
ATOM     38 2HH1 ARG X   4     -25.077 -17.398  38.556  1.00 21.32 LIG 0.17  HD
ATOM     39 1HH1 ARG X   4     -23.735 -16.788  38.345  1.00 21.32 LIG 0.17  HD
ENDBRANCH 30 31
ENDBRANCH 29 30
ENDBRANCH 28 29
ENDBRANCH 1 28
BRANCH 1 40
ATOM     40  C   ARG X   4     -19.996 -11.593  40.303  1.00 30.38 LIG 0.24  C 
ATOM     41 O    ARG X   4     -18.839 -11.210  40.371  1.00 31.87 LIG-0.27  OA
ATOM     42  N   PRO X   5     -20.646 -12.146  41.339  1.00 30.60 LIG-0.34  N 
ATOM     43  CA  PRO X   5     -20.059 -12.130  42.698  1.00 31.31 LIG 0.18  C 
ATOM     44  CD  PRO X   5     -22.002 -12.759  41.301  1.00 29.99 LIG 0.13  C 
ATOM     45  CB  PRO X   5     -21.254 -12.473  43.593  1.00 30.70 LIG 0.04  C 
ATOM     46  CG  PRO X   5     -22.210 -13.307  42.689  1.00 29.42 LIG 0.02  C 
BRANCH 43 47
ATOM     47  C   PRO X   5     -18.889 -13.104  43.006  1.00 32.23 LIG 0.24  C 
ATOM     48 O    PRO X   5     -18.613 -13.411  44.205  1.00 32.23 LIG-0.27  OA
ATOM     49  N   TRP X   6     -18.228 -13.601  41.964  1.00 33.50 LIG-0.34  N 
ATOM     50 H    TRP X   6     -18.345 -13.346  41.150  1.00 33.50 LIG 0.16  HD
BRANCH 49 51
ATOM     51  CA  TRP X   6     -17.218 -14.653  42.139  1.00 34.66 LIG 0.19  C 
BRANCH 51 52
ATOM     52  CB  TRP X   6     -17.905 -16.034  42.188  1.00 34.41 LIG 0.08  C 
BRANCH 52 53
ATOM     53  CG  TRP X   6     -18.486 -16.396  43.543  1.00 32.39 LIG-0.03  A 
ATOM     54  CD2 TRP X   6     -17.801 -16.406  44.815  1.00 31.68 LIG-0.00  A 
ATOM     55  CE2 TRP X   6     -18.736 -16.824  45.783  1.00 33.29 LIG 0.04  A 
ATOM     56  CE3 TRP X   6     -16.499 -16.092  45.225  1.00 33.66 LIG 0.01  A 
ATOM     57  CZ2 TRP X   6     -18.417 -16.911  47.145  1.00 33.18 LIG 0.03  A 
ATOM     58  NE1 TRP X   6     -19.928 -17.043  45.135  1.00 30.87 LIG-0.36  N 
ATOM     59  CH2 TRP X   6     -17.150 -16.601  47.521  1.00 32.36 LIG 0.00  A 
ATOM     60  CZ3 TRP X   6     -16.178 -16.206  46.575  1.00 32.37 LIG 0.00  A 
ATOM     61 HE1  TRP X   6     -20.661 -17.294  45.508  1.00 30.87 LIG 0.17  HD
ATOM     62  CD1 TRP X   6     -19.761 -16.799  43.798  1.00 30.01 LIG 0.10  A 
ENDBRANCH 52 53
ENDBRANCH 51 52
BRANCH 51 63
ATOM     63  C   TRP X   6     -16.118 -14.621  41.059  1.00 36.76 LIG 0.20  C 
ATOM     64 O    TRP X   6     -15.646 -13.581  40.565  1.00 37.86 LIG-0.65  OA
ATOM     65 OXT  TRP X   6     -15.654 -15.673  40.605  1.00 39.11 LIG-0.65  OA
ENDBRANCH 51 63
ENDBRANCH 49 51
ENDBRANCH 43 47
ENDBRANCH 1 40
TORSDOF 19
ENDMDL
MODEL 53
USER: ADFR SOLUTION from run 178
USER: SCORE 19.244730 LL:  -5.760 LR: -14.152 RR:   0.000 FEB:  -8.485
USER: RMSD 4.187475
USER: SEED 177
USER: STATUS searching
USER: GENES 21
USER: genes 0 Translation |==|  0.56696 0.54946 0.49676
USER: genes 1 Rotation |==|  0.70867 0.34377 0.47433 0.92590
USER: genes 2 Torsion [CB]-CA--N-[C] |==|  0.15146
USER: genes 3 Torsion [N]-C--CA-[N] |==|  0.25515
USER: genes 4 Torsion [C]-CA--N-[C] |==|  0.75469
USER: genes 5 Torsion [N]-C--CA-[N] |==|  0.47697
USER: genes 6 Torsion [C]-CA--CB-[CG] |==|  0.90926
USER: genes 7 Torsion [CA]-CB--CG-[SD] |==|  0.35331
USER: genes 8 Torsion [CB]-CG--SD-[CE] |==|  0.91539
USER: genes 9 Torsion [C]-CA--CB-[CG] |==|  0.22692
USER: genes 10 Torsion [CA]-CB--CG-[CD2] |==|  0.05905
USER: genes 11 Torsion [N]-CA--CB-[CG] |==|  0.65539
USER: genes 12 Torsion [CA]-CB--CG-[CD] |==|  0.71351
USER: genes 13 Torsion [CB]-CG--CD-[NE] |==|  0.48857
USER: genes 14 Torsion [CG]-CD--NE-[CZ] |==|  0.48462
USER: genes 15 Torsion [N]-CA--C-[N] |==|  0.18233
USER: genes 16 Torsion [N]-CA--C-[O] |==|  0.32249
USER: genes 17 Torsion [C]-N--CA-[CB] |==|  0.83440
USER: genes 18 Torsion [N]-CA--CB-[CG] |==|  0.78439
USER: genes 19 Torsion [CA]-CB--CG-[CD2] |==|  0.13848
USER: genes 20 Torsion [N]-CA--C-[O] |==|  0.02559
ROOT
ATOM      1  CA  ARG X   4     -19.959 -11.512  38.633  1.00 29.51 LIG 0.18  C 
ENDROOT
BRANCH 1 2
ATOM      2  N   ARG X   4     -19.292 -10.484  37.838  1.00 29.26 LIG-0.35  N 
ATOM      3  C   TRP X   3     -19.939  -9.715  36.943  1.00 30.37 LIG 0.24  C 
ATOM      4 O    TRP X   3     -21.169  -9.785  36.733  1.00 30.38 LIG-0.27  OA
ATOM      5 H    ARG X   4     -18.450 -10.416  37.996  1.00 29.26 LIG 0.16  HD
BRANCH 3 6
ATOM      6  CA  TRP X   3     -19.077  -8.695  36.170  1.00 30.62 LIG 0.18  C 
BRANCH 6 7
ATOM      7  N   TRP X   3     -18.565  -9.238  34.900  1.00 31.45 LIG-0.34  N 
ATOM      8 H    TRP X   3     -19.057  -9.098  34.209  1.00 31.45 LIG 0.16  HD
ATOM      9  C   MET X   2     -17.404  -9.892  34.901  1.00 32.92 LIG 0.26  C 
ATOM     10 O    MET X   2     -16.711  -9.986  35.895  1.00 32.35 LIG-0.27  OA
BRANCH 9 11
ATOM     11  CA  MET X   2     -16.921 -10.498  33.612  1.00 34.28 LIG 0.40  C 
ATOM     12  N   MET X   2     -15.506 -11.025  33.739  1.00 35.36 LIG 0.61  N 
BRANCH 11 13
ATOM     13  CB  MET X   2     -17.865 -11.622  33.219  1.00 35.71 LIG 0.06  C 
BRANCH 13 14
ATOM     14  CG  MET X   2     -18.475 -12.365  34.377  1.00 37.62 LIG 0.08  C 
BRANCH 14 15
ATOM     15 SD   MET X   2     -20.280 -12.529  34.413  1.00 39.06 LIG-0.17  SA
ATOM     16  CE  MET X   2     -20.788 -11.001  33.563  1.00 45.88 LIG 0.09  C 
ENDBRANCH 14 15
ENDBRANCH 13 14
ENDBRANCH 11 13
ENDBRANCH 9 11
ENDBRANCH 6 7
BRANCH 6 17
ATOM     17  CB  TRP X   3     -19.827  -7.375  35.978  1.00 29.85 LIG 0.07  C 
BRANCH 17 18
ATOM     18  CG  TRP X   3     -19.751  -6.491  37.193  1.00 29.58 LIG-0.03  A 
ATOM     19  CD1 TRP X   3     -20.608  -5.472  37.512  1.00 26.84 LIG 0.10  A 
ATOM     20  NE1 TRP X   3     -20.214  -4.889  38.688  1.00 29.47 LIG-0.36  N 
ATOM     21 HE1  TRP X   3     -20.608  -4.226  39.069  1.00 29.47 LIG 0.17  HD
ATOM     22  CE2 TRP X   3     -19.093  -5.527  39.168  1.00 27.62 LIG 0.04  A 
ATOM     23  CZ2 TRP X   3     -18.320  -5.285  40.344  1.00 28.85 LIG 0.03  A 
ATOM     24  CD2 TRP X   3     -18.768  -6.546  38.248  1.00 25.33 LIG-0.00  A 
ATOM     25  CH2 TRP X   3     -17.210  -6.109  40.573  1.00 28.18 LIG 0.00  A 
ATOM     26  CZ3 TRP X   3     -16.865  -7.120  39.658  1.00 26.79 LIG 0.00  A 
ATOM     27  CE3 TRP X   3     -17.631  -7.336  38.483  1.00 25.86 LIG 0.01  A 
ENDBRANCH 17 18
ENDBRANCH 6 17
ENDBRANCH 3 6
ENDBRANCH 1 2
BRANCH 1 28
ATOM     28  CB  ARG X   4     -20.723 -12.513  37.742  1.00 29.55 LIG 0.04  C 
BRANCH 28 29
ATOM     29  CG  ARG X   4     -22.206 -12.652  38.076  1.00 28.17 LIG 0.02  C 
BRANCH 29 30
ATOM     30  CD  ARG X   4     -22.458 -13.952  38.855  1.00 27.09 LIG 0.14  C 
BRANCH 30 31
ATOM     31  NE  ARG X   4     -23.861 -14.025  39.253  1.00 25.46 LIG-0.23  N 
ATOM     32 HE   ARG X   4     -24.365 -13.347  39.094  1.00 25.46 LIG 0.18  HD
ATOM     33  CZ  ARG X   4     -24.400 -15.089  39.850  1.00 27.27 LIG 0.67  C 
ATOM     34  NH2 ARG X   4     -25.688 -15.101  40.182  1.00 24.12 LIG-0.23  N 
ATOM     35  NH1 ARG X   4     -23.632 -16.140  40.129  1.00 21.32 LIG-0.23  N 
ATOM     36 1HH2 ARG X   4     -26.182 -14.418  40.012  1.00 24.12 LIG 0.17  HD
ATOM     37 2HH2 ARG X   4     -26.027 -15.792  40.566  1.00 24.12 LIG 0.17  HD
ATOM     38 2HH1 ARG X   4     -23.971 -16.830  40.514  1.00 21.32 LIG 0.17  HD
ATOM     39 1HH1 ARG X   4     -22.797 -16.128  39.924  1.00 21.32 LIG 0.17  HD
ENDBRANCH 30 31
ENDBRANCH 29 30
ENDBRANCH 28 29
ENDBRANCH 1 28
BRANCH 1 40
ATOM     40  C   ARG X   4     -18.898 -12.254  39.405  1.00 30.38 LIG 0.24  C 
ATOM     41 O    ARG X   4     -18.709 -13.435  39.166  1.00 31.87 LIG-0.27  OA
ATOM     42  N   PRO X   5     -18.217 -11.579  40.344  1.00 30.60 LIG-0.34  N 
ATOM     43  CA  PRO X   5     -17.037 -12.181  41.005  1.00 31.31 LIG 0.18  C 
ATOM     44  CD  PRO X   5     -18.478 -10.182  40.788  1.00 29.99 LIG 0.13  C 
ATOM     45  CB  PRO X   5     -16.357 -10.976  41.661  1.00 30.70 LIG 0.04  C 
ATOM     46  CG  PRO X   5     -17.504  -9.952  41.914  1.00 29.42 LIG 0.02  C 
BRANCH 43 47
ATOM     47  C   PRO X   5     -17.277 -13.283  42.074  1.00 32.23 LIG 0.24  C 
ATOM     48 O    PRO X   5     -16.858 -14.464  41.878  1.00 32.23 LIG-0.27  OA
ATOM     49  N   TRP X   6     -17.910 -12.918  43.185  1.00 33.50 LIG-0.34  N 
ATOM     50 H    TRP X   6     -18.271 -12.146  43.305  1.00 33.50 LIG 0.16  HD
BRANCH 49 51
ATOM     51  CA  TRP X   6     -18.038 -13.840  44.322  1.00 34.66 LIG 0.19  C 
BRANCH 51 52
ATOM     52  CB  TRP X   6     -18.791 -15.112  43.882  1.00 34.41 LIG 0.08  C 
BRANCH 52 53
ATOM     53  CG  TRP X   6     -20.294 -14.940  43.765  1.00 32.39 LIG-0.03  A 
ATOM     54  CD2 TRP X   6     -21.005 -13.895  43.064  1.00 31.68 LIG-0.00  A 
ATOM     55  CE2 TRP X   6     -22.381 -14.138  43.248  1.00 33.29 LIG 0.04  A 
ATOM     56  CE3 TRP X   6     -20.609 -12.795  42.293  1.00 33.66 LIG 0.01  A 
ATOM     57  CZ2 TRP X   6     -23.369 -13.331  42.666  1.00 33.18 LIG 0.03  A 
ATOM     58  NE1 TRP X   6     -22.499 -15.274  44.010  1.00 30.87 LIG-0.36  N 
ATOM     59  CH2 TRP X   6     -22.963 -12.270  41.922  1.00 32.36 LIG 0.00  A 
ATOM     60  CZ3 TRP X   6     -21.593 -11.980  41.739  1.00 32.37 LIG 0.00  A 
ATOM     61 HE1  TRP X   6     -23.240 -15.639  44.252  1.00 30.87 LIG 0.17  HD
ATOM     62  CD1 TRP X   6     -21.248 -15.735  44.324  1.00 30.01 LIG 0.10  A 
ENDBRANCH 52 53
ENDBRANCH 51 52
BRANCH 51 63
ATOM     63  C   TRP X   6     -16.683 -14.194  44.967  1.00 36.76 LIG 0.20  C 
ATOM     64 O    TRP X   6     -15.605 -13.638  44.694  1.00 37.86 LIG-0.65  OA
ATOM     65 OXT  TRP X   6     -16.606 -15.099  45.807  1.00 39.11 LIG-0.65  OA
ENDBRANCH 51 63
ENDBRANCH 49 51
ENDBRANCH 43 47
ENDBRANCH 1 40
TORSDOF 19
ENDMDL
MODEL 54
USER: ADFR SOLUTION from run 196
USER: SCORE 18.675935 LL:  -4.942 LR: -14.129 RR:   0.000 FEB:  -8.461
USER: RMSD 7.124159
USER: SEED 195
USER: STATUS no improvement in best in 16 clusters for 5 generations
USER: GENES 21
USER: genes 0 Translation |==|  0.64011 0.64561 0.57292
USER: genes 1 Rotation |==|  0.73166 0.53636 0.43440 0.93670
USER: genes 2 Torsion [CB]-CA--N-[C] |==|  0.52872
USER: genes 3 Torsion [N]-C--CA-[N] |==|  0.92587
USER: genes 4 Torsion [C]-CA--N-[C] |==|  0.85000
USER: genes 5 Torsion [N]-C--CA-[N] |==|  0.50953
USER: genes 6 Torsion [C]-CA--CB-[CG] |==|  0.66606
USER: genes 7 Torsion [CA]-CB--CG-[SD] |==|  0.27708
USER: genes 8 Torsion [CB]-CG--SD-[CE] |==|  0.73436
USER: genes 9 Torsion [C]-CA--CB-[CG] |==|  0.82326
USER: genes 10 Torsion [CA]-CB--CG-[CD2] |==|  0.23079
USER: genes 11 Torsion [N]-CA--CB-[CG] |==|  0.60279
USER: genes 12 Torsion [CA]-CB--CG-[CD] |==|  0.26914
USER: genes 13 Torsion [CB]-CG--CD-[NE] |==|  0.26760
USER: genes 14 Torsion [CG]-CD--NE-[CZ] |==|  0.28919
USER: genes 15 Torsion [N]-CA--C-[N] |==|  0.43195
USER: genes 16 Torsion [N]-CA--C-[O] |==|  0.85755
USER: genes 17 Torsion [C]-N--CA-[CB] |==|  0.46008
USER: genes 18 Torsion [N]-CA--CB-[CG] |==|  0.66737
USER: genes 19 Torsion [CA]-CB--CG-[CD2] |==|  0.13328
USER: genes 20 Torsion [N]-CA--C-[O] |==|  0.79516
ROOT
ATOM      1  CA  ARG X   4     -18.423  -9.637  40.061  1.00 29.51 LIG 0.18  C 
ENDROOT
BRANCH 1 2
ATOM      2  N   ARG X   4     -18.647  -8.428  39.272  1.00 29.26 LIG-0.35  N 
ATOM      3  C   TRP X   3     -17.783  -7.397  39.249  1.00 30.37 LIG 0.24  C 
ATOM      4 O    TRP X   3     -16.698  -7.391  39.868  1.00 30.38 LIG-0.27  OA
ATOM      5 H    ARG X   4     -19.382  -8.438  38.825  1.00 29.26 LIG 0.16  HD
BRANCH 3 6
ATOM      6  CA  TRP X   3     -18.188  -6.187  38.382  1.00 30.62 LIG 0.18  C 
BRANCH 6 7
ATOM      7  N   TRP X   3     -19.080  -6.562  37.271  1.00 31.45 LIG-0.34  N 
ATOM      8 H    TRP X   3     -19.819  -6.125  37.223  1.00 31.45 LIG 0.16  HD
ATOM      9  C   MET X   2     -18.698  -7.526  36.435  1.00 32.92 LIG 0.26  C 
ATOM     10 O    MET X   2     -17.602  -8.050  36.503  1.00 32.35 LIG-0.27  OA
BRANCH 9 11
ATOM     11  CA  MET X   2     -19.643  -7.946  35.344  1.00 34.28 LIG 0.40  C 
ATOM     12  N   MET X   2     -19.088  -9.104  34.540  1.00 35.36 LIG 0.61  N 
BRANCH 11 13
ATOM     13  CB  MET X   2     -20.971  -8.334  35.973  1.00 35.71 LIG 0.06  C 
BRANCH 13 14
ATOM     14  CG  MET X   2     -21.398  -9.753  35.714  1.00 37.62 LIG 0.08  C 
BRANCH 14 15
ATOM     15 SD   MET X   2     -21.105 -10.971  37.025  1.00 39.06 LIG-0.17  SA
ATOM     16  CE  MET X   2     -19.519 -11.687  36.491  1.00 45.88 LIG 0.09  C 
ENDBRANCH 14 15
ENDBRANCH 13 14
ENDBRANCH 11 13
ENDBRANCH 9 11
ENDBRANCH 6 7
BRANCH 6 17
ATOM     17  CB  TRP X   3     -18.770  -5.064  39.242  1.00 29.85 LIG 0.07  C 
BRANCH 17 18
ATOM     18  CG  TRP X   3     -20.046  -5.471  39.929  1.00 29.58 LIG-0.03  A 
ATOM     19  CD1 TRP X   3     -21.320  -5.213  39.500  1.00 26.84 LIG 0.10  A 
ATOM     20  NE1 TRP X   3     -22.222  -5.732  40.390  1.00 29.47 LIG-0.36  N 
ATOM     21 HE1  TRP X   3     -23.077  -5.678  40.318  1.00 29.47 LIG 0.17  HD
ATOM     22  CE2 TRP X   3     -21.551  -6.352  41.420  1.00 27.62 LIG 0.04  A 
ATOM     23  CZ2 TRP X   3     -22.047  -7.029  42.575  1.00 28.85 LIG 0.03  A 
ATOM     24  CD2 TRP X   3     -20.171  -6.206  41.165  1.00 25.33 LIG-0.00  A 
ATOM     25  CH2 TRP X   3     -21.108  -7.567  43.466  1.00 28.18 LIG 0.00  A 
ATOM     26  CZ3 TRP X   3     -19.729  -7.419  43.232  1.00 26.79 LIG 0.00  A 
ATOM     27  CE3 TRP X   3     -19.251  -6.725  42.090  1.00 25.86 LIG 0.01  A 
ENDBRANCH 17 18
ENDBRANCH 6 17
ENDBRANCH 3 6
ENDBRANCH 1 2
BRANCH 1 28
ATOM     28  CB  ARG X   4     -19.435 -10.746  39.704  1.00 29.55 LIG 0.04  C 
BRANCH 28 29
ATOM     29  CG  ARG X   4     -19.898 -11.584  40.892  1.00 28.17 LIG 0.02  C 
BRANCH 29 30
ATOM     30  CD  ARG X   4     -21.239 -11.058  41.425  1.00 27.09 LIG 0.14  C 
BRANCH 30 31
ATOM     31  NE  ARG X   4     -22.336 -11.833  40.852  1.00 25.46 LIG-0.23  N 
ATOM     32 HE   ARG X   4     -22.560 -11.682  40.036  1.00 25.46 LIG 0.18  HD
ATOM     33  CZ  ARG X   4     -23.009 -12.765  41.531  1.00 27.27 LIG 0.67  C 
ATOM     34  NH2 ARG X   4     -23.994 -13.446  40.952  1.00 24.12 LIG-0.23  N 
ATOM     35  NH1 ARG X   4     -22.696 -12.998  42.803  1.00 21.32 LIG-0.23  N 
ATOM     36 1HH2 ARG X   4     -24.203 -13.288  40.134  1.00 24.12 LIG 0.17  HD
ATOM     37 2HH2 ARG X   4     -24.422 -14.045  41.398  1.00 24.12 LIG 0.17  HD
ATOM     38 2HH1 ARG X   4     -23.125 -13.596  43.248  1.00 21.32 LIG 0.17  HD
ATOM     39 1HH1 ARG X   4     -22.066 -12.551  43.180  1.00 21.32 LIG 0.17  HD
ENDBRANCH 30 31
ENDBRANCH 29 30
ENDBRANCH 28 29
ENDBRANCH 1 28
BRANCH 1 40
ATOM     40  C   ARG X   4     -17.031 -10.129  39.759  1.00 30.38 LIG 0.24  C 
ATOM     41 O    ARG X   4     -16.520  -9.841  38.689  1.00 31.87 LIG-0.27  OA
ATOM     42  N   PRO X   5     -16.418 -10.886  40.683  1.00 30.60 LIG-0.34  N 
ATOM     43  CA  PRO X   5     -14.988 -11.243  40.542  1.00 31.31 LIG 0.18  C 
ATOM     44  CD  PRO X   5     -17.020 -11.391  41.947  1.00 29.99 LIG 0.13  C 
ATOM     45  CB  PRO X   5     -14.616 -11.731  41.946  1.00 30.70 LIG 0.04  C 
ATOM     46  CG  PRO X   5     -15.948 -12.256  42.558  1.00 29.42 LIG 0.02  C 
BRANCH 43 47
ATOM     47  C   PRO X   5     -14.600 -12.329  39.500  1.00 32.23 LIG 0.24  C 
ATOM     48 O    PRO X   5     -15.194 -13.449  39.496  1.00 32.23 LIG-0.27  OA
ATOM     49  N   TRP X   6     -13.651 -12.012  38.625  1.00 33.50 LIG-0.34  N 
ATOM     50 H    TRP X   6     -13.181 -11.292  38.659  1.00 33.50 LIG 0.16  HD
BRANCH 49 51
ATOM     51  CA  TRP X   6     -13.330 -12.902  37.500  1.00 34.66 LIG 0.19  C 
BRANCH 51 52
ATOM     52  CB  TRP X   6     -12.474 -12.148  36.463  1.00 34.41 LIG 0.08  C 
BRANCH 52 53
ATOM     53  CG  TRP X   6     -13.102 -12.050  35.085  1.00 32.39 LIG-0.03  A 
ATOM     54  CD2 TRP X   6     -14.454 -11.651  34.766  1.00 31.68 LIG-0.00  A 
ATOM     55  CE2 TRP X   6     -14.586 -11.729  33.365  1.00 33.29 LIG 0.04  A 
ATOM     56  CE3 TRP X   6     -15.551 -11.226  35.525  1.00 33.66 LIG 0.01  A 
ATOM     57  CZ2 TRP X   6     -15.768 -11.373  32.702  1.00 33.18 LIG 0.03  A 
ATOM     58  NE1 TRP X   6     -13.376 -12.142  32.861  1.00 30.87 LIG-0.36  N 
ATOM     59  CH2 TRP X   6     -16.820 -10.962  33.457  1.00 32.36 LIG 0.00  A 
ATOM     60  CZ3 TRP X   6     -16.733 -10.899  34.866  1.00 32.37 LIG 0.00  A 
ATOM     61 HE1  TRP X   6     -13.195 -12.256  32.027  1.00 30.87 LIG 0.17  HD
ATOM     62  CD1 TRP X   6     -12.505 -12.344  33.897  1.00 30.01 LIG 0.10  A 
ENDBRANCH 52 53
ENDBRANCH 51 52
BRANCH 51 63
ATOM     63  C   TRP X   6     -12.640 -14.208  37.943  1.00 36.76 LIG 0.20  C 
ATOM     64 O    TRP X   6     -11.459 -14.287  38.326  1.00 37.86 LIG-0.65  OA
ATOM     65 OXT  TRP X   6     -13.253 -15.282  37.915  1.00 39.11 LIG-0.65  OA
ENDBRANCH 51 63
ENDBRANCH 49 51
ENDBRANCH 43 47
ENDBRANCH 1 40
TORSDOF 19
ENDMDL
MODEL 55
USER: ADFR SOLUTION from run 108
USER: SCORE 18.502160 LL:  -5.613 LR: -14.118 RR:   0.000 FEB:  -8.450
USER: RMSD 7.794632
USER: SEED 107
USER: STATUS 1 or 2 clusters left
USER: GENES 21
USER: genes 0 Translation |==|  0.47907 0.48290 0.57334
USER: genes 1 Rotation |==|  0.26897 0.24386 0.53084 0.86065
USER: genes 2 Torsion [CB]-CA--N-[C] |==|  0.81868
USER: genes 3 Torsion [N]-C--CA-[N] |==|  0.14705
USER: genes 4 Torsion [C]-CA--N-[C] |==|  0.74857
USER: genes 5 Torsion [N]-C--CA-[N] |==|  0.54855
USER: genes 6 Torsion [C]-CA--CB-[CG] |==|  0.42510
USER: genes 7 Torsion [CA]-CB--CG-[SD] |==|  0.52976
USER: genes 8 Torsion [CB]-CG--SD-[CE] |==|  0.13081
USER: genes 9 Torsion [C]-CA--CB-[CG] |==|  0.70953
USER: genes 10 Torsion [CA]-CB--CG-[CD2] |==|  0.19315
USER: genes 11 Torsion [N]-CA--CB-[CG] |==|  0.83180
USER: genes 12 Torsion [CA]-CB--CG-[CD] |==|  0.40965
USER: genes 13 Torsion [CB]-CG--CD-[NE] |==|  0.27591
USER: genes 14 Torsion [CG]-CD--NE-[CZ] |==|  0.42653
USER: genes 15 Torsion [N]-CA--C-[N] |==|  0.16111
USER: genes 16 Torsion [N]-CA--C-[O] |==|  0.31691
USER: genes 17 Torsion [C]-N--CA-[CB] |==|  0.38816
USER: genes 18 Torsion [N]-CA--CB-[CG] |==|  0.06122
USER: genes 19 Torsion [CA]-CB--CG-[CD2] |==|  0.22522
USER: genes 20 Torsion [N]-CA--C-[O] |==|  0.26956
ROOT
ATOM      1  CA  ARG X   4     -21.805 -12.810  40.069  1.00 29.51 LIG 0.18  C 
ENDROOT
BRANCH 1 2
ATOM      2  N   ARG X   4     -20.771 -13.825  39.884  1.00 29.26 LIG-0.35  N 
ATOM      3  C   TRP X   3     -20.299 -14.582  40.892  1.00 30.37 LIG 0.24  C 
ATOM      4 O    TRP X   3     -20.722 -14.512  42.065  1.00 30.38 LIG-0.27  OA
ATOM      5 H    ARG X   4     -20.494 -13.894  39.073  1.00 29.26 LIG 0.16  HD
BRANCH 3 6
ATOM      6  CA  TRP X   3     -19.189 -15.590  40.526  1.00 30.62 LIG 0.18  C 
BRANCH 6 7
ATOM      7  N   TRP X   3     -18.060 -14.955  39.825  1.00 31.45 LIG-0.34  N 
ATOM      8 H    TRP X   3     -17.431 -14.653  40.327  1.00 31.45 LIG 0.16  HD
ATOM      9  C   MET X   2     -18.083 -14.890  38.495  1.00 32.92 LIG 0.26  C 
ATOM     10 O    MET X   2     -18.961 -15.409  37.832  1.00 32.35 LIG-0.27  OA
BRANCH 9 11
ATOM     11  CA  MET X   2     -16.957 -14.183  37.792  1.00 34.28 LIG 0.40  C 
ATOM     12  N   MET X   2     -17.327 -13.825  36.366  1.00 35.36 LIG 0.61  N 
BRANCH 11 13
ATOM     13  CB  MET X   2     -16.607 -12.927  38.574  1.00 35.71 LIG 0.06  C 
BRANCH 13 14
ATOM     14  CG  MET X   2     -15.183 -12.467  38.417  1.00 37.62 LIG 0.08  C 
BRANCH 14 15
ATOM     15 SD   MET X   2     -14.594 -11.164  39.532  1.00 39.06 LIG-0.17  SA
ATOM     16  CE  MET X   2     -15.184 -11.784  41.138  1.00 45.88 LIG 0.09  C 
ENDBRANCH 14 15
ENDBRANCH 13 14
ENDBRANCH 11 13
ENDBRANCH 9 11
ENDBRANCH 6 7
BRANCH 6 17
ATOM     17  CB  TRP X   3     -18.739 -16.382  41.755  1.00 29.85 LIG 0.07  C 
BRANCH 17 18
ATOM     18  CG  TRP X   3     -17.406 -15.920  42.279  1.00 29.58 LIG-0.03  A 
ATOM     19  CD1 TRP X   3     -16.228 -16.614  42.230  1.00 26.84 LIG 0.10  A 
ATOM     20  NE1 TRP X   3     -15.232 -15.876  42.814  1.00 29.47 LIG-0.36  N 
ATOM     21 HE1  TRP X   3     -14.413 -16.126  42.896  1.00 29.47 LIG 0.17  HD
ATOM     22  CE2 TRP X   3     -15.742 -14.674  43.250  1.00 27.62 LIG 0.04  A 
ATOM     23  CZ2 TRP X   3     -15.106 -13.583  43.914  1.00 28.85 LIG 0.03  A 
ATOM     24  CD2 TRP X   3     -17.117 -14.665  42.931  1.00 25.33 LIG-0.00  A 
ATOM     25  CH2 TRP X   3     -15.894 -12.473  44.243  1.00 28.18 LIG 0.00  A 
ATOM     26  CZ3 TRP X   3     -17.269 -12.454  43.944  1.00 26.79 LIG 0.00  A 
ATOM     27  CE3 TRP X   3     -17.892 -13.555  43.301  1.00 25.86 LIG 0.01  A 
ENDBRANCH 17 18
ENDBRANCH 6 17
ENDBRANCH 3 6
ENDBRANCH 1 2
BRANCH 1 28
ATOM     28  CB  ARG X   4     -23.151 -13.437  40.486  1.00 29.55 LIG 0.04  C 
BRANCH 28 29
ATOM     29  CG  ARG X   4     -23.730 -14.421  39.473  1.00 28.17 LIG 0.02  C 
BRANCH 29 30
ATOM     30  CD  ARG X   4     -24.509 -15.532  40.193  1.00 27.09 LIG 0.14  C 
BRANCH 30 31
ATOM     31  NE  ARG X   4     -25.939 -15.237  40.153  1.00 25.46 LIG-0.23  N 
ATOM     32 HE   ARG X   4     -26.184 -14.416  40.087  1.00 25.46 LIG 0.18  HD
ATOM     33  CZ  ARG X   4     -26.883 -16.178  40.212  1.00 27.27 LIG 0.67  C 
ATOM     34  NH2 ARG X   4     -28.172 -15.850  40.162  1.00 24.12 LIG-0.23  N 
ATOM     35  NH1 ARG X   4     -26.527 -17.454  40.340  1.00 21.32 LIG-0.23  N 
ATOM     36 1HH2 ARG X   4     -28.403 -15.025  40.091  1.00 24.12 LIG 0.17  HD
ATOM     37 2HH2 ARG X   4     -28.774 -16.463  40.201  1.00 24.12 LIG 0.17  HD
ATOM     38 2HH1 ARG X   4     -27.129 -18.066  40.379  1.00 21.32 LIG 0.17  HD
ATOM     39 1HH1 ARG X   4     -25.695 -17.665  40.382  1.00 21.32 LIG 0.17  HD
ENDBRANCH 30 31
ENDBRANCH 29 30
ENDBRANCH 28 29
ENDBRANCH 1 28
BRANCH 1 40
ATOM     40  C   ARG X   4     -21.341 -11.877  41.159  1.00 30.38 LIG 0.24  C 
ATOM     41 O    ARG X   4     -22.046 -11.719  42.142  1.00 31.87 LIG-0.27  OA
ATOM     42  N   PRO X   5     -20.171 -11.242  40.987  1.00 30.60 LIG-0.34  N 
ATOM     43  CA  PRO X   5     -19.561 -10.465  42.089  1.00 31.31 LIG 0.18  C 
ATOM     44  CD  PRO X   5     -19.324 -11.276  39.764  1.00 29.99 LIG 0.13  C 
ATOM     45  CB  PRO X   5     -18.117 -10.272  41.616  1.00 30.70 LIG 0.04  C 
ATOM     46  CG  PRO X   5     -18.190 -10.328  40.061  1.00 29.42 LIG 0.02  C 
BRANCH 43 47
ATOM     47  C   PRO X   5     -20.177  -9.083  42.443  1.00 32.23 LIG 0.24  C 
ATOM     48 O    PRO X   5     -20.741  -8.905  43.565  1.00 32.23 LIG-0.27  OA
ATOM     49  N   TRP X   6     -20.059  -8.120  41.534  1.00 33.50 LIG-0.34  N 
ATOM     50 H    TRP X   6     -19.753  -8.239  40.738  1.00 33.50 LIG 0.16  HD
BRANCH 49 51
ATOM     51  CA  TRP X   6     -20.459  -6.739  41.837  1.00 34.66 LIG 0.19  C 
BRANCH 51 52
ATOM     52  CB  TRP X   6     -19.438  -5.754  41.230  1.00 34.41 LIG 0.08  C 
BRANCH 52 53
ATOM     53  CG  TRP X   6     -18.625  -6.324  40.082  1.00 32.39 LIG-0.03  A 
ATOM     54  CD2 TRP X   6     -19.028  -6.447  38.700  1.00 31.68 LIG-0.00  A 
ATOM     55  CE2 TRP X   6     -17.956  -7.048  38.011  1.00 33.29 LIG 0.04  A 
ATOM     56  CE3 TRP X   6     -20.181  -6.097  37.985  1.00 33.66 LIG 0.01  A 
ATOM     57  CZ2 TRP X   6     -17.991  -7.285  36.629  1.00 33.18 LIG 0.03  A 
ATOM     58  NE1 TRP X   6     -16.952  -7.266  38.923  1.00 30.87 LIG-0.36  N 
ATOM     59  CH2 TRP X   6     -19.118  -6.937  35.955  1.00 32.36 LIG 0.00  A 
ATOM     60  CZ3 TRP X   6     -20.223  -6.359  36.618  1.00 32.37 LIG 0.00  A 
ATOM     61 HE1  TRP X   6     -16.184  -7.613  38.747  1.00 30.87 LIG 0.17  HD
ATOM     62  CD1 TRP X   6     -17.369  -6.844  40.157  1.00 30.01 LIG 0.10  A 
ENDBRANCH 52 53
ENDBRANCH 51 52
BRANCH 51 63
ATOM     63  C   TRP X   6     -21.891  -6.409  41.371  1.00 36.76 LIG 0.20  C 
ATOM     64 O    TRP X   6     -22.896  -6.444  42.103  1.00 37.86 LIG-0.65  OA
ATOM     65 OXT  TRP X   6     -22.112  -6.101  40.194  1.00 39.11 LIG-0.65  OA
ENDBRANCH 51 63
ENDBRANCH 49 51
ENDBRANCH 43 47
ENDBRANCH 1 40
TORSDOF 19
ENDMDL
MODEL 56
USER: ADFR SOLUTION from run 133
USER: SCORE 17.475038 LL:  -5.595 LR: -14.121 RR:   0.000 FEB:  -8.453
USER: RMSD 8.062295
USER: SEED 132
USER: STATUS no improvement in best in 16 clusters for 5 generations
USER: GENES 21
USER: genes 0 Translation |==|  0.56361 0.70121 0.67885
USER: genes 1 Rotation |==|  0.26712 0.71085 0.73665 0.80872
USER: genes 2 Torsion [CB]-CA--N-[C] |==|  0.36667
USER: genes 3 Torsion [N]-C--CA-[N] |==|  0.61538
USER: genes 4 Torsion [C]-CA--N-[C] |==|  0.19781
USER: genes 5 Torsion [N]-C--CA-[N] |==|  0.50133
USER: genes 6 Torsion [C]-CA--CB-[CG] |==|  0.42001
USER: genes 7 Torsion [CA]-CB--CG-[SD] |==|  0.63449
USER: genes 8 Torsion [CB]-CG--SD-[CE] |==|  0.39605
USER: genes 9 Torsion [C]-CA--CB-[CG] |==|  0.27346
USER: genes 10 Torsion [CA]-CB--CG-[CD2] |==|  0.60208
USER: genes 11 Torsion [N]-CA--CB-[CG] |==|  0.42689
USER: genes 12 Torsion [CA]-CB--CG-[CD] |==|  0.20925
USER: genes 13 Torsion [CB]-CG--CD-[NE] |==|  0.74638
USER: genes 14 Torsion [CG]-CD--NE-[CZ] |==|  0.34085
USER: genes 15 Torsion [N]-CA--C-[N] |==|  0.83889
USER: genes 16 Torsion [N]-CA--C-[O] |==|  0.40045
USER: genes 17 Torsion [C]-N--CA-[CB] |==|  0.35680
USER: genes 18 Torsion [N]-CA--CB-[CG] |==|  0.81290
USER: genes 19 Torsion [CA]-CB--CG-[CD2] |==|  0.31181
USER: genes 20 Torsion [N]-CA--C-[O] |==|  0.64587
ROOT
ATOM      1  CA  ARG X   4     -20.029  -8.552  42.047  1.00 29.51 LIG 0.18  C 
ENDROOT
BRANCH 1 2
ATOM      2  N   ARG X   4     -20.145 -10.005  41.957  1.00 29.26 LIG-0.35  N 
ATOM      3  C   TRP X   3     -21.327 -10.650  41.991  1.00 30.37 LIG 0.24  C 
ATOM      4 O    TRP X   3     -22.429 -10.067  42.069  1.00 30.38 LIG-0.27  OA
ATOM      5 H    ARG X   4     -19.390 -10.410  41.879  1.00 29.26 LIG 0.16  HD
BRANCH 3 6
ATOM      6  CA  TRP X   3     -21.267 -12.189  41.909  1.00 30.62 LIG 0.18  C 
BRANCH 6 7
ATOM      7  N   TRP X   3     -22.313 -12.748  41.035  1.00 31.45 LIG-0.34  N 
ATOM      8 H    TRP X   3     -22.947 -13.168  41.435  1.00 31.45 LIG 0.16  HD
ATOM      9  C   MET X   2     -22.213 -12.574  39.718  1.00 32.92 LIG 0.26  C 
ATOM     10 O    MET X   2     -21.335 -11.898  39.216  1.00 32.35 LIG-0.27  OA
BRANCH 9 11
ATOM     11  CA  MET X   2     -23.250 -13.203  38.831  1.00 34.28 LIG 0.40  C 
ATOM     12  N   MET X   2     -22.981 -12.916  37.367  1.00 35.36 LIG 0.61  N 
BRANCH 11 13
ATOM     13  CB  MET X   2     -23.258 -14.703  39.077  1.00 35.71 LIG 0.06  C 
BRANCH 13 14
ATOM     14  CG  MET X   2     -24.584 -15.372  38.839  1.00 37.62 LIG 0.08  C 
BRANCH 14 15
ATOM     15 SD   MET X   2     -25.201 -16.496  40.121  1.00 39.06 LIG-0.17  SA
ATOM     16  CE  MET X   2     -26.985 -16.136  40.074  1.00 45.88 LIG 0.09  C 
ENDBRANCH 14 15
ENDBRANCH 13 14
ENDBRANCH 11 13
ENDBRANCH 9 11
ENDBRANCH 6 7
BRANCH 6 17
ATOM     17  CB  TRP X   3     -19.866 -12.666  41.518  1.00 29.85 LIG 0.07  C 
BRANCH 17 18
ATOM     18  CG  TRP X   3     -19.053 -13.095  42.709  1.00 29.58 LIG-0.03  A 
ATOM     19  CD1 TRP X   3     -19.517 -13.749  43.818  1.00 26.84 LIG 0.10  A 
ATOM     20  NE1 TRP X   3     -18.485 -13.965  44.693  1.00 29.47 LIG-0.36  N 
ATOM     21 HE1  TRP X   3     -18.556 -14.355  45.457  1.00 29.47 LIG 0.17  HD
ATOM     22  CE2 TRP X   3     -17.318 -13.462  44.164  1.00 27.62 LIG 0.04  A 
ATOM     23  CZ2 TRP X   3     -15.992 -13.444  44.694  1.00 28.85 LIG 0.03  A 
ATOM     24  CD2 TRP X   3     -17.637 -12.902  42.909  1.00 25.33 LIG-0.00  A 
ATOM     25  CH2 TRP X   3     -14.990 -12.850  43.916  1.00 28.18 LIG 0.00  A 
ATOM     26  CZ3 TRP X   3     -15.294 -12.276  42.669  1.00 26.79 LIG 0.00  A 
ATOM     27  CE3 TRP X   3     -16.620 -12.283  42.164  1.00 25.86 LIG 0.01  A 
ENDBRANCH 17 18
ENDBRANCH 6 17
ENDBRANCH 3 6
ENDBRANCH 1 2
BRANCH 1 28
ATOM     28  CB  ARG X   4     -18.959  -8.131  43.076  1.00 29.55 LIG 0.04  C 
BRANCH 28 29
ATOM     29  CG  ARG X   4     -18.329  -6.766  42.808  1.00 28.17 LIG 0.02  C 
BRANCH 29 30
ATOM     30  CD  ARG X   4     -19.303  -5.644  43.194  1.00 27.09 LIG 0.14  C 
BRANCH 30 31
ATOM     31  NE  ARG X   4     -20.112  -5.273  42.036  1.00 25.46 LIG-0.23  N 
ATOM     32 HE   ARG X   4     -19.709  -5.015  41.322  1.00 25.46 LIG 0.18  HD
ATOM     33  CZ  ARG X   4     -21.446  -5.314  42.030  1.00 27.27 LIG 0.67  C 
ATOM     34  NH2 ARG X   4     -22.130  -4.973  40.941  1.00 24.12 LIG-0.23  N 
ATOM     35  NH1 ARG X   4     -22.093  -5.687  43.132  1.00 21.32 LIG-0.23  N 
ATOM     36 1HH2 ARG X   4     -21.713  -4.722  40.232  1.00 24.12 LIG 0.17  HD
ATOM     37 2HH2 ARG X   4     -22.990  -5.003  40.946  1.00 24.12 LIG 0.17  HD
ATOM     38 2HH1 ARG X   4     -22.952  -5.715  43.136  1.00 21.32 LIG 0.17  HD
ATOM     39 1HH1 ARG X   4     -21.652  -5.898  43.839  1.00 21.32 LIG 0.17  HD
ENDBRANCH 30 31
ENDBRANCH 29 30
ENDBRANCH 28 29
ENDBRANCH 1 28
BRANCH 1 40
ATOM     40  C   ARG X   4     -19.630  -8.039  40.688  1.00 30.38 LIG 0.24  C 
ATOM     41 O    ARG X   4     -20.355  -7.238  40.121  1.00 31.87 LIG-0.27  OA
ATOM     42  N   PRO X   5     -18.493  -8.506  40.149  1.00 30.60 LIG-0.34  N 
ATOM     43  CA  PRO X   5     -17.939  -7.910  38.912  1.00 31.31 LIG 0.18  C 
ATOM     44  CD  PRO X   5     -17.629  -9.579  40.712  1.00 29.99 LIG 0.13  C 
ATOM     45  CB  PRO X   5     -16.502  -8.438  38.889  1.00 30.70 LIG 0.04  C 
ATOM     46  CG  PRO X   5     -16.551  -9.780  39.678  1.00 29.42 LIG 0.02  C 
BRANCH 43 47
ATOM     47  C   PRO X   5     -18.632  -8.243  37.561  1.00 32.23 LIG 0.24  C 
ATOM     48 O    PRO X   5     -18.712  -7.364  36.651  1.00 32.23 LIG-0.27  OA
ATOM     49  N   TRP X   6     -19.103  -9.479  37.414  1.00 33.50 LIG-0.34  N 
ATOM     50 H    TRP X   6     -19.131 -10.065  38.043  1.00 33.50 LIG 0.16  HD
BRANCH 49 51
ATOM     51  CA  TRP X   6     -19.624  -9.941  36.120  1.00 34.66 LIG 0.19  C 
BRANCH 51 52
ATOM     52  CB  TRP X   6     -18.951 -11.274  35.732  1.00 34.41 LIG 0.08  C 
BRANCH 52 53
ATOM     53  CG  TRP X   6     -17.470 -11.160  35.422  1.00 32.39 LIG-0.03  A 
ATOM     54  CD2 TRP X   6     -16.371 -11.705  36.186  1.00 31.68 LIG-0.00  A 
ATOM     55  CE2 TRP X   6     -15.184 -11.330  35.526  1.00 33.29 LIG 0.04  A 
ATOM     56  CE3 TRP X   6     -16.281 -12.480  37.350  1.00 33.66 LIG 0.01  A 
ATOM     57  CZ2 TRP X   6     -13.917 -11.726  35.977  1.00 33.18 LIG 0.03  A 
ATOM     58  NE1 TRP X   6     -15.543 -10.607  34.414  1.00 30.87 LIG-0.36  N 
ATOM     59  CH2 TRP X   6     -13.853 -12.477  37.107  1.00 32.36 LIG 0.00  A 
ATOM     60  CZ3 TRP X   6     -15.020 -12.848  37.812  1.00 32.37 LIG 0.00  A 
ATOM     61 HE1  TRP X   6     -14.999 -10.275  33.837  1.00 30.87 LIG 0.17  HD
ATOM     62  CD1 TRP X   6     -16.908 -10.500  34.372  1.00 30.01 LIG 0.10  A 
ENDBRANCH 52 53
ENDBRANCH 51 52
BRANCH 51 63
ATOM     63  C   TRP X   6     -21.160 -10.070  36.100  1.00 36.76 LIG 0.20  C 
ATOM     64 O    TRP X   6     -21.777 -11.091  35.748  1.00 37.86 LIG-0.65  OA
ATOM     65 OXT  TRP X   6     -21.874  -9.115  36.428  1.00 39.11 LIG-0.65  OA
ENDBRANCH 51 63
ENDBRANCH 49 51
ENDBRANCH 43 47
ENDBRANCH 1 40
TORSDOF 19
ENDMDL
MODEL 57
USER: ADFR SOLUTION from run 111
USER: SCORE 19.510731 LL:  -5.963 LR: -14.112 RR:   0.000 FEB:  -8.444
USER: RMSD 5.308478
USER: SEED 110
USER: STATUS no improvement in best in 6 clusters for 5 generations
USER: GENES 21
USER: genes 0 Translation |==|  0.70137 0.68438 0.54470
USER: genes 1 Rotation |==|  0.42904 0.58217 0.12617 0.81379
USER: genes 2 Torsion [CB]-CA--N-[C] |==|  0.83001
USER: genes 3 Torsion [N]-C--CA-[N] |==|  0.41717
USER: genes 4 Torsion [C]-CA--N-[C] |==|  0.82188
USER: genes 5 Torsion [N]-C--CA-[N] |==|  0.37074
USER: genes 6 Torsion [C]-CA--CB-[CG] |==|  0.95445
USER: genes 7 Torsion [CA]-CB--CG-[SD] |==|  0.58262
USER: genes 8 Torsion [CB]-CG--SD-[CE] |==|  0.36547
USER: genes 9 Torsion [C]-CA--CB-[CG] |==|  0.05116
USER: genes 10 Torsion [CA]-CB--CG-[CD2] |==|  0.72517
USER: genes 11 Torsion [N]-CA--CB-[CG] |==|  0.42899
USER: genes 12 Torsion [CA]-CB--CG-[CD] |==|  0.62001
USER: genes 13 Torsion [CB]-CG--CD-[NE] |==|  0.77211
USER: genes 14 Torsion [CG]-CD--NE-[CZ] |==|  0.43933
USER: genes 15 Torsion [N]-CA--C-[N] |==|  0.28902
USER: genes 16 Torsion [N]-CA--C-[O] |==|  0.61847
USER: genes 17 Torsion [C]-N--CA-[CB] |==|  0.80846
USER: genes 18 Torsion [N]-CA--CB-[CG] |==|  0.76598
USER: genes 19 Torsion [CA]-CB--CG-[CD2] |==|  0.08626
USER: genes 20 Torsion [N]-CA--C-[O] |==|  0.57637
ROOT
ATOM      1  CA  ARG X   4     -17.136  -8.880  39.532  1.00 29.51 LIG 0.18  C 
ENDROOT
BRANCH 1 2
ATOM      2  N   ARG X   4     -17.741  -8.565  38.241  1.00 29.26 LIG-0.35  N 
ATOM      3  C   TRP X   3     -19.047  -8.758  37.976  1.00 30.37 LIG 0.24  C 
ATOM      4 O    TRP X   3     -19.865  -9.190  38.816  1.00 30.38 LIG-0.27  OA
ATOM      5 H    ARG X   4     -17.186  -8.246  37.667  1.00 29.26 LIG 0.16  HD
BRANCH 3 6
ATOM      6  CA  TRP X   3     -19.515  -8.396  36.552  1.00 30.62 LIG 0.18  C 
BRANCH 6 7
ATOM      7  N   TRP X   3     -20.652  -9.219  36.105  1.00 31.45 LIG-0.34  N 
ATOM      8 H    TRP X   3     -21.386  -8.796  35.962  1.00 31.45 LIG 0.16  HD
ATOM      9  C   MET X   2     -20.477 -10.531  35.956  1.00 32.92 LIG 0.26  C 
ATOM     10 O    MET X   2     -19.392 -11.063  36.093  1.00 32.35 LIG-0.27  OA
BRANCH 9 11
ATOM     11  CA  MET X   2     -21.659 -11.373  35.562  1.00 34.28 LIG 0.40  C 
ATOM     12  N   MET X   2     -21.313 -12.334  34.443  1.00 35.36 LIG 0.61  N 
BRANCH 11 13
ATOM     13  CB  MET X   2     -22.138 -12.141  36.784  1.00 35.71 LIG 0.06  C 
BRANCH 13 14
ATOM     14  CG  MET X   2     -21.150 -12.198  37.917  1.00 37.62 LIG 0.08  C 
BRANCH 14 15
ATOM     15 SD   MET X   2     -21.196 -13.653  38.998  1.00 39.06 LIG-0.17  SA
ATOM     16  CE  MET X   2     -19.434 -14.109  39.049  1.00 45.88 LIG 0.09  C 
ENDBRANCH 14 15
ENDBRANCH 13 14
ENDBRANCH 11 13
ENDBRANCH 9 11
ENDBRANCH 6 7
BRANCH 6 17
ATOM     17  CB  TRP X   3     -19.800  -6.897  36.431  1.00 29.85 LIG 0.07  C 
BRANCH 17 18
ATOM     18  CG  TRP X   3     -19.155  -6.100  37.533  1.00 29.58 LIG-0.03  A 
ATOM     19  CD1 TRP X   3     -17.849  -5.692  37.584  1.00 26.84 LIG 0.10  A 
ATOM     20  NE1 TRP X   3     -17.628  -4.997  38.744  1.00 29.47 LIG-0.36  N 
ATOM     21 HE1  TRP X   3     -16.875  -4.655  38.981  1.00 29.47 LIG 0.17  HD
ATOM     22  CE2 TRP X   3     -18.795  -4.927  39.471  1.00 27.62 LIG 0.04  A 
ATOM     23  CZ2 TRP X   3     -19.066  -4.317  40.733  1.00 28.85 LIG 0.03  A 
ATOM     24  CD2 TRP X   3     -19.784  -5.616  38.738  1.00 25.33 LIG-0.00  A 
ATOM     25  CH2 TRP X   3     -20.371  -4.413  41.234  1.00 28.18 LIG 0.00  A 
ATOM     26  CZ3 TRP X   3     -21.365  -5.107  40.522  1.00 26.79 LIG 0.00  A 
ATOM     27  CE3 TRP X   3     -21.076  -5.726  39.278  1.00 25.86 LIG 0.01  A 
ENDBRANCH 17 18
ENDBRANCH 6 17
ENDBRANCH 3 6
ENDBRANCH 1 2
BRANCH 1 28
ATOM     28  CB  ARG X   4     -17.767  -8.055  40.673  1.00 29.55 LIG 0.04  C 
BRANCH 28 29
ATOM     29  CG  ARG X   4     -17.672  -8.705  42.051  1.00 28.17 LIG 0.02  C 
BRANCH 29 30
ATOM     30  CD  ARG X   4     -19.004  -8.561  42.801  1.00 27.09 LIG 0.14  C 
BRANCH 30 31
ATOM     31  NE  ARG X   4     -19.082  -7.241  43.421  1.00 25.46 LIG-0.23  N 
ATOM     32 HE   ARG X   4     -18.349  -6.817  43.569  1.00 25.46 LIG 0.18  HD
ATOM     33  CZ  ARG X   4     -20.232  -6.660  43.768  1.00 27.27 LIG 0.67  C 
ATOM     34  NH2 ARG X   4     -20.240  -5.451  44.322  1.00 24.12 LIG-0.23  N 
ATOM     35  NH1 ARG X   4     -21.377  -7.309  43.571  1.00 21.32 LIG-0.23  N 
ATOM     36 1HH2 ARG X   4     -19.500  -5.036  44.460  1.00 24.12 LIG 0.17  HD
ATOM     37 2HH2 ARG X   4     -20.986  -5.084  44.543  1.00 24.12 LIG 0.17  HD
ATOM     38 2HH1 ARG X   4     -22.122  -6.942  43.792  1.00 21.32 LIG 0.17  HD
ATOM     39 1HH1 ARG X   4     -21.371  -8.095  43.222  1.00 21.32 LIG 0.17  HD
ENDBRANCH 30 31
ENDBRANCH 29 30
ENDBRANCH 28 29
ENDBRANCH 1 28
BRANCH 1 40
ATOM     40  C   ARG X   4     -17.369 -10.345  39.802  1.00 30.38 LIG 0.24  C 
ATOM     41 O    ARG X   4     -18.472 -10.711  40.173  1.00 31.87 LIG-0.27  OA
ATOM     42  N   PRO X   5     -16.335 -11.186  39.639  1.00 30.60 LIG-0.34  N 
ATOM     43  CA  PRO X   5     -16.533 -12.652  39.697  1.00 31.31 LIG 0.18  C 
ATOM     44  CD  PRO X   5     -14.932 -10.803  39.322  1.00 29.99 LIG 0.13  C 
ATOM     45  CB  PRO X   5     -15.244 -13.198  39.077  1.00 30.70 LIG 0.04  C 
ATOM     46  CG  PRO X   5     -14.170 -12.103  39.346  1.00 29.42 LIG 0.02  C 
BRANCH 43 47
ATOM     47  C   PRO X   5     -16.755 -13.308  41.088  1.00 32.23 LIG 0.24  C 
ATOM     48 O    PRO X   5     -16.174 -14.397  41.378  1.00 32.23 LIG-0.27  OA
ATOM     49  N   TRP X   6     -17.550 -12.666  41.938  1.00 33.50 LIG-0.34  N 
ATOM     50 H    TRP X   6     -18.016 -11.971  41.736  1.00 33.50 LIG 0.16  HD
BRANCH 49 51
ATOM     51  CA  TRP X   6     -17.692 -13.115  43.330  1.00 34.66 LIG 0.19  C 
BRANCH 51 52
ATOM     52  CB  TRP X   6     -18.441 -14.463  43.371  1.00 34.41 LIG 0.08  C 
BRANCH 52 53
ATOM     53  CG  TRP X   6     -19.953 -14.339  43.343  1.00 32.39 LIG-0.03  A 
ATOM     54  CD2 TRP X   6     -20.736 -13.310  42.699  1.00 31.68 LIG-0.00  A 
ATOM     55  CE2 TRP X   6     -22.091 -13.600  42.958  1.00 33.29 LIG 0.04  A 
ATOM     56  CE3 TRP X   6     -20.422 -12.188  41.922  1.00 33.66 LIG 0.01  A 
ATOM     57  CZ2 TRP X   6     -23.136 -12.819  42.446  1.00 33.18 LIG 0.03  A 
ATOM     58  NE1 TRP X   6     -22.128 -14.749  43.710  1.00 30.87 LIG-0.36  N 
ATOM     59  CH2 TRP X   6     -22.809 -11.736  41.694  1.00 32.36 LIG 0.00  A 
ATOM     60  CZ3 TRP X   6     -21.462 -11.399  41.437  1.00 32.37 LIG 0.00  A 
ATOM     61 HE1  TRP X   6     -22.842 -15.141  43.988  1.00 30.87 LIG 0.17  HD
ATOM     62  CD1 TRP X   6     -20.847 -15.172  43.945  1.00 30.01 LIG 0.10  A 
ENDBRANCH 52 53
ENDBRANCH 51 52
BRANCH 51 63
ATOM     63  C   TRP X   6     -16.345 -13.208  44.074  1.00 36.76 LIG 0.20  C 
ATOM     64 O    TRP X   6     -16.115 -13.979  45.023  1.00 37.86 LIG-0.65  OA
ATOM     65 OXT  TRP X   6     -15.401 -12.475  43.757  1.00 39.11 LIG-0.65  OA
ENDBRANCH 51 63
ENDBRANCH 49 51
ENDBRANCH 43 47
ENDBRANCH 1 40
TORSDOF 19
ENDMDL
MODEL 58
USER: ADFR SOLUTION from run 144
USER: SCORE 18.368950 LL:  -4.908 LR: -14.104 RR:   0.000 FEB:  -8.436
USER: RMSD 6.160198
USER: SEED 143
USER: STATUS no improvement in best in 5 clusters for 5 generations
USER: GENES 21
USER: genes 0 Translation |==|  0.61174 0.53557 0.35125
USER: genes 1 Rotation |==|  0.95326 0.61815 0.67411 0.51688
USER: genes 2 Torsion [CB]-CA--N-[C] |==|  0.20252
USER: genes 3 Torsion [N]-C--CA-[N] |==|  0.41813
USER: genes 4 Torsion [C]-CA--N-[C] |==|  0.80767
USER: genes 5 Torsion [N]-C--CA-[N] |==|  0.10078
USER: genes 6 Torsion [C]-CA--CB-[CG] |==|  0.44025
USER: genes 7 Torsion [CA]-CB--CG-[SD] |==|  0.33154
USER: genes 8 Torsion [CB]-CG--SD-[CE] |==|  0.72974
USER: genes 9 Torsion [C]-CA--CB-[CG] |==|  0.40081
USER: genes 10 Torsion [CA]-CB--CG-[CD2] |==|  0.48258
USER: genes 11 Torsion [N]-CA--CB-[CG] |==|  0.40128
USER: genes 12 Torsion [CA]-CB--CG-[CD] |==|  0.24886
USER: genes 13 Torsion [CB]-CG--CD-[NE] |==|  0.63698
USER: genes 14 Torsion [CG]-CD--NE-[CZ] |==|  0.26278
USER: genes 15 Torsion [N]-CA--C-[N] |==|  0.84382
USER: genes 16 Torsion [N]-CA--C-[O] |==|  0.57952
USER: genes 17 Torsion [C]-N--CA-[CB] |==|  0.29683
USER: genes 18 Torsion [N]-CA--CB-[CG] |==|  0.87914
USER: genes 19 Torsion [CA]-CB--CG-[CD2] |==|  0.81871
USER: genes 20 Torsion [N]-CA--C-[O] |==|  0.11102
ROOT
ATOM      1  CA  ARG X   4     -19.019 -11.782  35.905  1.00 29.51 LIG 0.18  C 
ENDROOT
BRANCH 1 2
ATOM      2  N   ARG X   4     -20.108 -11.991  36.854  1.00 29.26 LIG-0.35  N 
ATOM      3  C   TRP X   3     -21.121 -12.850  36.631  1.00 30.37 LIG 0.24  C 
ATOM      4 O    TRP X   3     -21.204 -13.570  35.613  1.00 30.38 LIG-0.27  OA
ATOM      5 H    ARG X   4     -20.043 -11.515  37.568  1.00 29.26 LIG 0.16  HD
BRANCH 3 6
ATOM      6  CA  TRP X   3     -22.203 -12.929  37.728  1.00 30.62 LIG 0.18  C 
BRANCH 6 7
ATOM      7  N   TRP X   3     -23.527 -13.285  37.189  1.00 31.45 LIG-0.34  N 
ATOM      8 H    TRP X   3     -23.819 -14.065  37.402  1.00 31.45 LIG 0.16  HD
ATOM      9  C   MET X   2     -24.171 -12.402  36.427  1.00 32.92 LIG 0.26  C 
ATOM     10 O    MET X   2     -23.744 -11.280  36.228  1.00 32.35 LIG-0.27  OA
BRANCH 9 11
ATOM     11  CA  MET X   2     -25.491 -12.799  35.829  1.00 34.28 LIG 0.40  C 
ATOM     12  N   MET X   2     -26.293 -13.672  36.774  1.00 35.36 LIG 0.61  N 
BRANCH 11 13
ATOM     13  CB  MET X   2     -26.272 -11.539  35.490  1.00 35.71 LIG 0.06  C 
BRANCH 13 14
ATOM     14  CG  MET X   2     -27.347 -11.726  34.455  1.00 37.62 LIG 0.08  C 
BRANCH 14 15
ATOM     15 SD   MET X   2     -29.056 -11.366  34.944  1.00 39.06 LIG-0.17  SA
ATOM     16  CE  MET X   2     -29.664 -13.034  35.348  1.00 45.88 LIG 0.09  C 
ENDBRANCH 14 15
ENDBRANCH 13 14
ENDBRANCH 11 13
ENDBRANCH 9 11
ENDBRANCH 6 7
BRANCH 6 17
ATOM     17  CB  TRP X   3     -21.768 -13.858  38.864  1.00 29.85 LIG 0.07  C 
BRANCH 17 18
ATOM     18  CG  TRP X   3     -22.236 -13.375  40.210  1.00 29.58 LIG-0.03  A 
ATOM     19  CD1 TRP X   3     -22.864 -12.188  40.476  1.00 26.84 LIG 0.10  A 
ATOM     20  NE1 TRP X   3     -23.129 -12.096  41.817  1.00 29.47 LIG-0.36  N 
ATOM     21 HE1  TRP X   3     -23.514 -11.430  42.202  1.00 29.47 LIG 0.17  HD
ATOM     22  CE2 TRP X   3     -22.687 -13.233  42.455  1.00 27.62 LIG 0.04  A 
ATOM     23  CZ2 TRP X   3     -22.734 -13.601  43.834  1.00 28.85 LIG 0.03  A 
ATOM     24  CD2 TRP X   3     -22.114 -14.066  41.471  1.00 25.33 LIG-0.00  A 
ATOM     25  CH2 TRP X   3     -22.193 -14.841  44.195  1.00 28.18 LIG 0.00  A 
ATOM     26  CZ3 TRP X   3     -21.606 -15.678  43.228  1.00 26.79 LIG 0.00  A 
ATOM     27  CE3 TRP X   3     -21.548 -15.290  41.864  1.00 25.86 LIG 0.01  A 
ENDBRANCH 17 18
ENDBRANCH 6 17
ENDBRANCH 3 6
ENDBRANCH 1 2
BRANCH 1 28
ATOM     28  CB  ARG X   4     -19.484 -10.981  34.671  1.00 29.55 LIG 0.04  C 
BRANCH 28 29
ATOM     29  CG  ARG X   4     -18.438 -10.023  34.108  1.00 28.17 LIG 0.02  C 
BRANCH 29 30
ATOM     30  CD  ARG X   4     -17.575 -10.736  33.056  1.00 27.09 LIG 0.14  C 
BRANCH 30 31
ATOM     31  NE  ARG X   4     -16.161 -10.503  33.338  1.00 25.46 LIG-0.23  N 
ATOM     32 HE   ARG X   4     -15.797  -9.786  33.033  1.00 25.46 LIG 0.18  HD
ATOM     33  CZ  ARG X   4     -15.405 -11.346  34.044  1.00 27.27 LIG 0.67  C 
ATOM     34  NH2 ARG X   4     -14.123 -11.076  34.276  1.00 24.12 LIG-0.23  N 
ATOM     35  NH1 ARG X   4     -15.941 -12.474  34.503  1.00 21.32 LIG-0.23  N 
ATOM     36 1HH2 ARG X   4     -13.774 -10.352  33.970  1.00 24.12 LIG 0.17  HD
ATOM     37 2HH2 ARG X   4     -13.644 -11.625  34.732  1.00 24.12 LIG 0.17  HD
ATOM     38 2HH1 ARG X   4     -15.461 -13.023  34.959  1.00 21.32 LIG 0.17  HD
ATOM     39 1HH1 ARG X   4     -16.766 -12.654  34.345  1.00 21.32 LIG 0.17  HD
ENDBRANCH 30 31
ENDBRANCH 29 30
ENDBRANCH 28 29
ENDBRANCH 1 28
BRANCH 1 40
ATOM     40  C   ARG X   4     -17.937 -11.007  36.612  1.00 30.38 LIG 0.24  C 
ATOM     41 O    ARG X   4     -16.814 -11.478  36.674  1.00 31.87 LIG-0.27  OA
ATOM     42  N   PRO X   5     -18.268  -9.829  37.164  1.00 30.60 LIG-0.34  N 
ATOM     43  CA  PRO X   5     -17.227  -8.925  37.704  1.00 31.31 LIG 0.18  C 
ATOM     44  CD  PRO X   5     -19.637  -9.251  37.250  1.00 29.99 LIG 0.13  C 
ATOM     45  CB  PRO X   5     -17.968  -7.592  37.845  1.00 30.70 LIG 0.04  C 
ATOM     46  CG  PRO X   5     -19.464  -7.979  38.039  1.00 29.42 LIG 0.02  C 
BRANCH 43 47
ATOM     47  C   PRO X   5     -16.566  -9.293  39.061  1.00 32.23 LIG 0.24  C 
ATOM     48 O    PRO X   5     -16.116  -8.382  39.819  1.00 32.23 LIG-0.27  OA
ATOM     49  N   TRP X   6     -16.522 -10.584  39.380  1.00 33.50 LIG-0.34  N 
ATOM     50 H    TRP X   6     -16.748 -11.222  38.848  1.00 33.50 LIG 0.16  HD
BRANCH 49 51
ATOM     51  CA  TRP X   6     -16.071 -11.021  40.708  1.00 34.66 LIG 0.19  C 
BRANCH 51 52
ATOM     52  CB  TRP X   6     -17.277 -11.506  41.537  1.00 34.41 LIG 0.08  C 
BRANCH 52 53
ATOM     53  CG  TRP X   6     -18.503 -10.617  41.438  1.00 32.39 LIG-0.03  A 
ATOM     54  CD2 TRP X   6     -18.635  -9.254  41.899  1.00 31.68 LIG-0.00  A 
ATOM     55  CE2 TRP X   6     -19.953  -8.848  41.609  1.00 33.29 LIG 0.04  A 
ATOM     56  CE3 TRP X   6     -17.767  -8.343  42.514  1.00 33.66 LIG 0.01  A 
ATOM     57  CZ2 TRP X   6     -20.419  -7.555  41.890  1.00 33.18 LIG 0.03  A 
ATOM     58  NE1 TRP X   6     -20.583  -9.903  40.994  1.00 30.87 LIG-0.36  N 
ATOM     59  CH2 TRP X   6     -19.559  -6.688  42.485  1.00 32.36 LIG 0.00  A 
ATOM     60  CZ3 TRP X   6     -18.240  -7.069  42.816  1.00 32.37 LIG 0.00  A 
ATOM     61 HE1  TRP X   6     -21.394  -9.902  40.707  1.00 30.87 LIG 0.17  HD
ATOM     62  CD1 TRP X   6     -19.712 -10.956  40.912  1.00 30.01 LIG 0.10  A 
ENDBRANCH 52 53
ENDBRANCH 51 52
BRANCH 51 63
ATOM     63  C   TRP X   6     -14.972 -12.101  40.646  1.00 36.76 LIG 0.20  C 
ATOM     64 O    TRP X   6     -14.032 -12.105  39.831  1.00 37.86 LIG-0.65  OA
ATOM     65 OXT  TRP X   6     -14.990 -13.060  41.427  1.00 39.11 LIG-0.65  OA
ENDBRANCH 51 63
ENDBRANCH 49 51
ENDBRANCH 43 47
ENDBRANCH 1 40
TORSDOF 19
ENDMDL
MODEL 59
USER: ADFR SOLUTION from run 46
USER: SCORE 18.799183 LL:  -6.105 LR: -14.075 RR:   0.000 FEB:  -8.407
USER: RMSD 4.818340
USER: SEED 45
USER: STATUS no improvement in best in 20 clusters for 5 generations
USER: GENES 21
USER: genes 0 Translation |==|  0.49245 0.55690 0.41368
USER: genes 1 Rotation |==|  0.68723 0.27504 0.49373 0.90534
USER: genes 2 Torsion [CB]-CA--N-[C] |==|  0.52081
USER: genes 3 Torsion [N]-C--CA-[N] |==|  0.91858
USER: genes 4 Torsion [C]-CA--N-[C] |==|  0.73118
USER: genes 5 Torsion [N]-C--CA-[N] |==|  0.61720
USER: genes 6 Torsion [C]-CA--CB-[CG] |==|  0.77680
USER: genes 7 Torsion [CA]-CB--CG-[SD] |==|  0.41904
USER: genes 8 Torsion [CB]-CG--SD-[CE] |==|  0.90209
USER: genes 9 Torsion [C]-CA--CB-[CG] |==|  0.20230
USER: genes 10 Torsion [CA]-CB--CG-[CD2] |==|  0.07311
USER: genes 11 Torsion [N]-CA--CB-[CG] |==|  0.55982
USER: genes 12 Torsion [CA]-CB--CG-[CD] |==|  0.77400
USER: genes 13 Torsion [CB]-CG--CD-[NE] |==|  0.39041
USER: genes 14 Torsion [CG]-CD--NE-[CZ] |==|  0.35865
USER: genes 15 Torsion [N]-CA--C-[N] |==|  0.84914
USER: genes 16 Torsion [N]-CA--C-[O] |==|  0.42540
USER: genes 17 Torsion [C]-N--CA-[CB] |==|  0.84928
USER: genes 18 Torsion [N]-CA--CB-[CG] |==|  0.71681
USER: genes 19 Torsion [CA]-CB--CG-[CD2] |==|  0.27476
USER: genes 20 Torsion [N]-CA--C-[O] |==|  0.03610
ROOT
ATOM      1  CA  ARG X   4     -21.524 -11.367  37.075  1.00 29.51 LIG 0.18  C 
ENDROOT
BRANCH 1 2
ATOM      2  N   ARG X   4     -20.571 -10.460  36.441  1.00 29.26 LIG-0.35  N 
ATOM      3  C   TRP X   3     -19.828  -9.576  37.133  1.00 30.37 LIG 0.24  C 
ATOM      4 O    TRP X   3     -19.859  -9.472  38.377  1.00 30.38 LIG-0.27  OA
ATOM      5 H    ARG X   4     -20.528 -10.544  35.586  1.00 29.26 LIG 0.16  HD
BRANCH 3 6
ATOM      6  CA  TRP X   3     -18.889  -8.675  36.302  1.00 30.62 LIG 0.18  C 
BRANCH 6 7
ATOM      7  N   TRP X   3     -18.435  -9.327  35.062  1.00 31.45 LIG-0.34  N 
ATOM      8 H    TRP X   3     -18.976  -9.278  34.395  1.00 31.45 LIG 0.16  HD
ATOM      9  C   MET X   2     -17.249  -9.934  35.050  1.00 32.92 LIG 0.26  C 
ATOM     10 O    MET X   2     -16.490  -9.898  36.000  1.00 32.35 LIG-0.27  OA
BRANCH 9 11
ATOM     11  CA  MET X   2     -16.823 -10.651  33.799  1.00 34.28 LIG 0.40  C 
ATOM     12  N   MET X   2     -16.171 -11.983  34.114  1.00 35.36 LIG 0.61  N 
BRANCH 11 13
ATOM     13  CB  MET X   2     -18.043 -10.861  32.918  1.00 35.71 LIG 0.06  C 
BRANCH 13 14
ATOM     14  CG  MET X   2     -18.909 -12.027  33.311  1.00 37.62 LIG 0.08  C 
BRANCH 14 15
ATOM     15 SD   MET X   2     -20.680 -11.924  32.934  1.00 39.06 LIG-0.17  SA
ATOM     16  CE  MET X   2     -20.990 -10.149  33.191  1.00 45.88 LIG 0.09  C 
ENDBRANCH 14 15
ENDBRANCH 13 14
ENDBRANCH 11 13
ENDBRANCH 9 11
ENDBRANCH 6 7
BRANCH 6 17
ATOM     17  CB  TRP X   3     -19.526  -7.309  36.042  1.00 29.85 LIG 0.07  C 
BRANCH 17 18
ATOM     18  CG  TRP X   3     -19.555  -6.445  37.274  1.00 29.58 LIG-0.03  A 
ATOM     19  CD1 TRP X   3     -20.445  -5.441  37.543  1.00 26.84 LIG 0.10  A 
ATOM     20  NE1 TRP X   3     -20.151  -4.875  38.756  1.00 29.47 LIG-0.36  N 
ATOM     21 HE1  TRP X   3     -20.581  -4.223  39.116  1.00 29.47 LIG 0.17  HD
ATOM     22  CE2 TRP X   3     -19.064  -5.511  39.311  1.00 27.62 LIG 0.04  A 
ATOM     23  CZ2 TRP X   3     -18.389  -5.284  40.549  1.00 28.85 LIG 0.03  A 
ATOM     24  CD2 TRP X   3     -18.657  -6.511  38.402  1.00 25.33 LIG-0.00  A 
ATOM     25  CH2 TRP X   3     -17.291  -6.101  40.850  1.00 28.18 LIG 0.00  A 
ATOM     26  CZ3 TRP X   3     -16.865  -7.093  39.948  1.00 26.79 LIG 0.00  A 
ATOM     27  CE3 TRP X   3     -17.534  -7.294  38.713  1.00 25.86 LIG 0.01  A 
ENDBRANCH 17 18
ENDBRANCH 6 17
ENDBRANCH 3 6
ENDBRANCH 1 2
BRANCH 1 28
ATOM     28  CB  ARG X   4     -22.093 -12.389  36.069  1.00 29.55 LIG 0.04  C 
BRANCH 28 29
ATOM     29  CG  ARG X   4     -23.424 -13.009  36.485  1.00 28.17 LIG 0.02  C 
BRANCH 29 30
ATOM     30  CD  ARG X   4     -23.190 -14.155  37.480  1.00 27.09 LIG 0.14  C 
BRANCH 30 31
ATOM     31  NE  ARG X   4     -24.218 -14.125  38.517  1.00 25.46 LIG-0.23  N 
ATOM     32 HE   ARG X   4     -24.365 -13.383  38.925  1.00 25.46 LIG 0.18  HD
ATOM     33  CZ  ARG X   4     -24.943 -15.191  38.863  1.00 27.27 LIG 0.67  C 
ATOM     34  NH2 ARG X   4     -25.872 -15.101  39.810  1.00 24.12 LIG-0.23  N 
ATOM     35  NH1 ARG X   4     -24.716 -16.357  38.263  1.00 21.32 LIG-0.23  N 
ATOM     36 1HH2 ARG X   4     -26.012 -14.351  40.206  1.00 24.12 LIG 0.17  HD
ATOM     37 2HH2 ARG X   4     -26.335 -15.794  40.027  1.00 24.12 LIG 0.17  HD
ATOM     38 2HH1 ARG X   4     -25.177 -17.049  38.480  1.00 21.32 LIG 0.17  HD
ATOM     39 1HH1 ARG X   4     -24.108 -16.418  37.658  1.00 21.32 LIG 0.17  HD
ENDBRANCH 30 31
ENDBRANCH 29 30
ENDBRANCH 28 29
ENDBRANCH 1 28
BRANCH 1 40
ATOM     40  C   ARG X   4     -20.794 -12.108  38.166  1.00 30.38 LIG 0.24  C 
ATOM     41 O    ARG X   4     -21.234 -12.072  39.304  1.00 31.87 LIG-0.27  OA
ATOM     42  N   PRO X   5     -19.671 -12.765  37.836  1.00 30.60 LIG-0.34  N 
ATOM     43  CA  PRO X   5     -19.009 -13.669  38.804  1.00 31.31 LIG 0.18  C 
ATOM     44  CD  PRO X   5     -18.998 -12.746  36.508  1.00 29.99 LIG 0.13  C 
ATOM     45  CB  PRO X   5     -18.059 -14.483  37.920  1.00 30.70 LIG 0.04  C 
ATOM     46  CG  PRO X   5     -17.745 -13.560  36.705  1.00 29.42 LIG 0.02  C 
BRANCH 43 47
ATOM     47  C   PRO X   5     -18.207 -13.033  39.974  1.00 32.23 LIG 0.24  C 
ATOM     48 O    PRO X   5     -18.062 -13.664  41.064  1.00 32.23 LIG-0.27  OA
ATOM     49  N   TRP X   6     -17.680 -11.831  39.760  1.00 33.50 LIG-0.34  N 
ATOM     50 H    TRP X   6     -17.833 -11.352  39.061  1.00 33.50 LIG 0.16  HD
BRANCH 49 51
ATOM     51  CA  TRP X   6     -16.770 -11.218  40.737  1.00 34.66 LIG 0.19  C 
BRANCH 51 52
ATOM     52  CB  TRP X   6     -17.440 -11.182  42.126  1.00 34.41 LIG 0.08  C 
BRANCH 52 53
ATOM     53  CG  TRP X   6     -17.996  -9.826  42.517  1.00 32.39 LIG-0.03  A 
ATOM     54  CD2 TRP X   6     -19.368  -9.381  42.424  1.00 31.68 LIG-0.00  A 
ATOM     55  CE2 TRP X   6     -19.401  -8.049  42.883  1.00 33.29 LIG 0.04  A 
ATOM     56  CE3 TRP X   6     -20.563  -9.984  42.012  1.00 33.66 LIG 0.01  A 
ATOM     57  CZ2 TRP X   6     -20.592  -7.314  42.966  1.00 33.18 LIG 0.03  A 
ATOM     58  NE1 TRP X   6     -18.121  -7.708  43.246  1.00 30.87 LIG-0.36  N 
ATOM     59  CH2 TRP X   6     -21.740  -7.919  42.562  1.00 32.36 LIG 0.00  A 
ATOM     60  CZ3 TRP X   6     -21.740  -9.242  42.069  1.00 32.37 LIG 0.00  A 
ATOM     61 HE1  TRP X   6     -17.880  -6.948  43.570  1.00 30.87 LIG 0.17  HD
ATOM     62  CD1 TRP X   6     -17.290  -8.770  43.009  1.00 30.01 LIG 0.10  A 
ENDBRANCH 52 53
ENDBRANCH 51 52
BRANCH 51 63
ATOM     63  C   TRP X   6     -15.397 -11.917  40.803  1.00 36.76 LIG 0.20  C 
ATOM     64 O    TRP X   6     -14.983 -12.740  39.967  1.00 37.86 LIG-0.65  OA
ATOM     65 OXT  TRP X   6     -14.624 -11.693  41.742  1.00 39.11 LIG-0.65  OA
ENDBRANCH 51 63
ENDBRANCH 49 51
ENDBRANCH 43 47
ENDBRANCH 1 40
TORSDOF 19
ENDMDL
MODEL 60
USER: ADFR SOLUTION from run 117
USER: SCORE 18.710585 LL:  -5.890 LR: -14.061 RR:   0.000 FEB:  -8.393
USER: RMSD 8.002513
USER: SEED 116
USER: STATUS no improvement in best in 4 clusters for 5 generations
USER: GENES 21
USER: genes 0 Translation |==|  0.54875 0.68842 0.36975
USER: genes 1 Rotation |==|  0.73889 0.09190 0.49739 0.66241
USER: genes 2 Torsion [CB]-CA--N-[C] |==|  0.20695
USER: genes 3 Torsion [N]-C--CA-[N] |==|  0.65286
USER: genes 4 Torsion [C]-CA--N-[C] |==|  0.13413
USER: genes 5 Torsion [N]-C--CA-[N] |==|  0.59293
USER: genes 6 Torsion [C]-CA--CB-[CG] |==|  0.58944
USER: genes 7 Torsion [CA]-CB--CG-[SD] |==|  0.26996
USER: genes 8 Torsion [CB]-CG--SD-[CE] |==|  0.64034
USER: genes 9 Torsion [C]-CA--CB-[CG] |==|  0.63975
USER: genes 10 Torsion [CA]-CB--CG-[CD2] |==|  0.26499
USER: genes 11 Torsion [N]-CA--CB-[CG] |==|  0.39089
USER: genes 12 Torsion [CA]-CB--CG-[CD] |==|  0.56564
USER: genes 13 Torsion [CB]-CG--CD-[NE] |==|  0.14601
USER: genes 14 Torsion [CG]-CD--NE-[CZ] |==|  0.63957
USER: genes 15 Torsion [N]-CA--C-[N] |==|  0.85415
USER: genes 16 Torsion [N]-CA--C-[O] |==|  0.29319
USER: genes 17 Torsion [C]-N--CA-[CB] |==|  0.48854
USER: genes 18 Torsion [N]-CA--CB-[CG] |==|  0.06047
USER: genes 19 Torsion [CA]-CB--CG-[CD2] |==|  0.76294
USER: genes 20 Torsion [N]-CA--C-[O] |==|  0.35223
ROOT
ATOM      1  CA  ARG X   4     -20.341  -8.802  36.252  1.00 29.51 LIG 0.18  C 
ENDROOT
BRANCH 1 2
ATOM      2  N   ARG X   4     -19.465  -8.221  37.265  1.00 29.26 LIG-0.35  N 
ATOM      3  C   TRP X   3     -19.023  -6.951  37.212  1.00 30.37 LIG 0.24  C 
ATOM      4 O    TRP X   3     -19.348  -6.144  36.315  1.00 30.38 LIG-0.27  OA
ATOM      5 H    ARG X   4     -19.258  -8.765  37.898  1.00 29.26 LIG 0.16  HD
BRANCH 3 6
ATOM      6  CA  TRP X   3     -18.083  -6.506  38.352  1.00 30.62 LIG 0.18  C 
BRANCH 6 7
ATOM      7  N   TRP X   3     -18.570  -5.303  39.047  1.00 31.45 LIG-0.34  N 
ATOM      8 H    TRP X   3     -17.990  -4.679  39.163  1.00 31.45 LIG 0.16  HD
ATOM      9  C   MET X   2     -19.841  -5.257  39.442  1.00 32.92 LIG 0.26  C 
ATOM     10 O    MET X   2     -20.638  -6.136  39.175  1.00 32.35 LIG-0.27  OA
BRANCH 9 11
ATOM     11  CA  MET X   2     -20.312  -4.052  40.208  1.00 34.28 LIG 0.40  C 
ATOM     12  N   MET X   2     -21.370  -4.417  41.230  1.00 35.36 LIG 0.61  N 
BRANCH 11 13
ATOM     13  CB  MET X   2     -19.116  -3.415  40.897  1.00 35.71 LIG 0.06  C 
BRANCH 13 14
ATOM     14  CG  MET X   2     -19.428  -2.754  42.212  1.00 37.62 LIG 0.08  C 
BRANCH 14 15
ATOM     15 SD   MET X   2     -19.115  -3.705  43.724  1.00 39.06 LIG-0.17  SA
ATOM     16  CE  MET X   2     -20.705  -3.518  44.591  1.00 45.88 LIG 0.09  C 
ENDBRANCH 14 15
ENDBRANCH 13 14
ENDBRANCH 11 13
ENDBRANCH 9 11
ENDBRANCH 6 7
BRANCH 6 17
ATOM     17  CB  TRP X   3     -17.802  -7.661  39.315  1.00 29.85 LIG 0.07  C 
BRANCH 17 18
ATOM     18  CG  TRP X   3     -18.027  -7.277  40.753  1.00 29.58 LIG-0.03  A 
ATOM     19  CD1 TRP X   3     -17.131  -6.654  41.578  1.00 26.84 LIG 0.10  A 
ATOM     20  NE1 TRP X   3     -17.690  -6.476  42.817  1.00 29.47 LIG-0.36  N 
ATOM     21 HE1  TRP X   3     -17.298  -6.110  43.489  1.00 29.47 LIG 0.17  HD
ATOM     22  CE2 TRP X   3     -18.974  -6.972  42.820  1.00 27.62 LIG 0.04  A 
ATOM     23  CZ2 TRP X   3     -19.947  -7.019  43.864  1.00 28.85 LIG 0.03  A 
ATOM     24  CD2 TRP X   3     -19.224  -7.489  41.531  1.00 25.33 LIG-0.00  A 
ATOM     25  CH2 TRP X   3     -21.189  -7.597  43.569  1.00 28.18 LIG 0.00  A 
ATOM     26  CZ3 TRP X   3     -21.449  -8.129  42.293  1.00 26.79 LIG 0.00  A 
ATOM     27  CE3 TRP X   3     -20.465  -8.094  41.271  1.00 25.86 LIG 0.01  A 
ENDBRANCH 17 18
ENDBRANCH 6 17
ENDBRANCH 3 6
ENDBRANCH 1 2
BRANCH 1 28
ATOM     28  CB  ARG X   4     -19.577  -9.110  34.947  1.00 29.55 LIG 0.04  C 
BRANCH 28 29
ATOM     29  CG  ARG X   4     -19.983 -10.417  34.271  1.00 28.17 LIG 0.02  C 
BRANCH 29 30
ATOM     30  CD  ARG X   4     -18.844 -10.930  33.378  1.00 27.09 LIG 0.14  C 
BRANCH 30 31
ATOM     31  NE  ARG X   4     -17.605 -10.999  34.148  1.00 25.46 LIG-0.23  N 
ATOM     32 HE   ARG X   4     -17.619 -11.401  34.908  1.00 25.46 LIG 0.18  HD
ATOM     33  CZ  ARG X   4     -16.453 -10.469  33.733  1.00 27.27 LIG 0.67  C 
ATOM     34  NH2 ARG X   4     -15.354 -10.570  34.475  1.00 24.12 LIG-0.23  N 
ATOM     35  NH1 ARG X   4     -16.414  -9.820  32.572  1.00 21.32 LIG-0.23  N 
ATOM     36 1HH2 ARG X   4     -15.381 -10.980  35.231  1.00 24.12 LIG 0.17  HD
ATOM     37 2HH2 ARG X   4     -14.615 -10.226  34.199  1.00 24.12 LIG 0.17  HD
ATOM     38 2HH1 ARG X   4     -15.676  -9.476  32.297  1.00 21.32 LIG 0.17  HD
ATOM     39 1HH1 ARG X   4     -17.126  -9.746  32.096  1.00 21.32 LIG 0.17  HD
ENDBRANCH 30 31
ENDBRANCH 29 30
ENDBRANCH 28 29
ENDBRANCH 1 28
BRANCH 1 40
ATOM     40  C   ARG X   4     -20.896 -10.087  36.808  1.00 30.38 LIG 0.24  C 
ATOM     41 O    ARG X   4     -22.105 -10.255  36.819  1.00 31.87 LIG-0.27  OA
ATOM     42  N   PRO X   5     -20.028 -10.990  37.290  1.00 30.60 LIG-0.34  N 
ATOM     43  CA  PRO X   5     -20.479 -12.347  37.674  1.00 31.31 LIG 0.18  C 
ATOM     44  CD  PRO X   5     -18.558 -10.805  37.438  1.00 29.99 LIG 0.13  C 
ATOM     45  CB  PRO X   5     -19.167 -13.132  37.768  1.00 30.70 LIG 0.04  C 
ATOM     46  CG  PRO X   5     -18.082 -12.068  38.108  1.00 29.42 LIG 0.02  C 
BRANCH 43 47
ATOM     47  C   PRO X   5     -21.273 -12.510  39.000  1.00 32.23 LIG 0.24  C 
ATOM     48 O    PRO X   5     -22.524 -12.713  38.973  1.00 32.23 LIG-0.27  OA
ATOM     49  N   TRP X   6     -20.576 -12.448  40.131  1.00 33.50 LIG-0.34  N 
ATOM     50 H    TRP X   6     -19.745 -12.232  40.177  1.00 33.50 LIG 0.16  HD
BRANCH 49 51
ATOM     51  CA  TRP X   6     -21.203 -12.754  41.424  1.00 34.66 LIG 0.19  C 
BRANCH 51 52
ATOM     52  CB  TRP X   6     -20.144 -12.703  42.544  1.00 34.41 LIG 0.08  C 
BRANCH 52 53
ATOM     53  CG  TRP X   6     -18.912 -11.884  42.204  1.00 32.39 LIG-0.03  A 
ATOM     54  CD2 TRP X   6     -17.736 -12.327  41.491  1.00 31.68 LIG-0.00  A 
ATOM     55  CE2 TRP X   6     -16.854 -11.230  41.431  1.00 33.29 LIG 0.04  A 
ATOM     56  CE3 TRP X   6     -17.354 -13.535  40.893  1.00 33.66 LIG 0.01  A 
ATOM     57  CZ2 TRP X   6     -15.618 -11.296  40.771  1.00 33.18 LIG 0.03  A 
ATOM     58  NE1 TRP X   6     -17.467 -10.174  42.062  1.00 30.87 LIG-0.36  N 
ATOM     59  CH2 TRP X   6     -15.269 -12.476  40.196  1.00 32.36 LIG 0.00  A 
ATOM     60  CZ3 TRP X   6     -16.115 -13.605  40.262  1.00 32.37 LIG 0.00  A 
ATOM     61 HE1  TRP X   6     -17.137  -9.384  42.148  1.00 30.87 LIG 0.17  HD
ATOM     62  CD1 TRP X   6     -18.687 -10.581  42.531  1.00 30.01 LIG 0.10  A 
ENDBRANCH 52 53
ENDBRANCH 51 52
BRANCH 51 63
ATOM     63  C   TRP X   6     -22.397 -11.834  41.749  1.00 36.76 LIG 0.20  C 
ATOM     64 O    TRP X   6     -23.533 -12.235  42.059  1.00 37.86 LIG-0.65  OA
ATOM     65 OXT  TRP X   6     -22.274 -10.604  41.694  1.00 39.11 LIG-0.65  OA
ENDBRANCH 51 63
ENDBRANCH 49 51
ENDBRANCH 43 47
ENDBRANCH 1 40
TORSDOF 19
ENDMDL
MODEL 61
USER: ADFR SOLUTION from run 29
USER: SCORE 17.092336 LL:  -4.355 LR: -14.042 RR:   0.000 FEB:  -8.374
USER: RMSD 6.046922
USER: SEED 28
USER: STATUS no improvement in best in 9 clusters for 5 generations
USER: GENES 21
USER: genes 0 Translation |==|  0.53279 0.55706 0.50351
USER: genes 1 Rotation |==|  0.66923 0.28843 0.52345 0.91958
USER: genes 2 Torsion [CB]-CA--N-[C] |==|  0.16976
USER: genes 3 Torsion [N]-C--CA-[N] |==|  0.27915
USER: genes 4 Torsion [C]-CA--N-[C] |==|  0.70556
USER: genes 5 Torsion [N]-C--CA-[N] |==|  0.19777
USER: genes 6 Torsion [C]-CA--CB-[CG] |==|  0.51676
USER: genes 7 Torsion [CA]-CB--CG-[SD] |==|  0.44719
USER: genes 8 Torsion [CB]-CG--SD-[CE] |==|  0.96861
USER: genes 9 Torsion [C]-CA--CB-[CG] |==|  0.22670
USER: genes 10 Torsion [CA]-CB--CG-[CD2] |==|  0.08211
USER: genes 11 Torsion [N]-CA--CB-[CG] |==|  0.63462
USER: genes 12 Torsion [CA]-CB--CG-[CD] |==|  0.66064
USER: genes 13 Torsion [CB]-CG--CD-[NE] |==|  0.44356
USER: genes 14 Torsion [CG]-CD--NE-[CZ] |==|  0.46682
USER: genes 15 Torsion [N]-CA--C-[N] |==|  0.44585
USER: genes 16 Torsion [N]-CA--C-[O] |==|  0.66331
USER: genes 17 Torsion [C]-N--CA-[CB] |==|  0.36004
USER: genes 18 Torsion [N]-CA--CB-[CG] |==|  0.23937
USER: genes 19 Torsion [CA]-CB--CG-[CD2] |==|  0.88343
USER: genes 20 Torsion [N]-CA--C-[O] |==|  0.02074
ROOT
ATOM      1  CA  ARG X   4     -20.677 -11.363  38.760  1.00 29.51 LIG 0.18  C 
ENDROOT
BRANCH 1 2
ATOM      2  N   ARG X   4     -19.818 -10.474  37.983  1.00 29.26 LIG-0.35  N 
ATOM      3  C   TRP X   3     -20.241  -9.822  36.884  1.00 30.37 LIG 0.24  C 
ATOM      4 O    TRP X   3     -21.410  -9.891  36.447  1.00 30.38 LIG-0.27  OA
ATOM      5 H    ARG X   4     -19.019 -10.405  38.293  1.00 29.26 LIG 0.16  HD
BRANCH 3 6
ATOM      6  CA  TRP X   3     -19.196  -8.942  36.167  1.00 30.62 LIG 0.18  C 
BRANCH 6 7
ATOM      7  N   TRP X   3     -18.623  -9.599  34.980  1.00 31.45 LIG-0.34  N 
ATOM      8 H    TRP X   3     -19.138  -9.642  34.293  1.00 31.45 LIG 0.16  HD
ATOM      9  C   MET X   2     -17.379 -10.072  35.043  1.00 32.92 LIG 0.26  C 
ATOM     10 O    MET X   2     -16.668  -9.907  36.015  1.00 32.35 LIG-0.27  OA
BRANCH 9 11
ATOM     11  CA  MET X   2     -16.827 -10.798  33.848  1.00 34.28 LIG 0.40  C 
ATOM     12  N   MET X   2     -16.551  -9.851  32.697  1.00 35.36 LIG 0.61  N 
BRANCH 11 13
ATOM     13  CB  MET X   2     -15.548 -11.510  34.259  1.00 35.71 LIG 0.06  C 
BRANCH 13 14
ATOM     14  CG  MET X   2     -14.803 -12.165  33.127  1.00 37.62 LIG 0.08  C 
BRANCH 14 15
ATOM     15 SD   MET X   2     -13.056 -12.568  33.394  1.00 39.06 LIG-0.17  SA
ATOM     16  CE  MET X   2     -12.722 -11.674  34.944  1.00 45.88 LIG 0.09  C 
ENDBRANCH 14 15
ENDBRANCH 13 14
ENDBRANCH 11 13
ENDBRANCH 9 11
ENDBRANCH 6 7
BRANCH 6 17
ATOM     17  CB  TRP X   3     -19.768  -7.559  35.848  1.00 29.85 LIG 0.07  C 
BRANCH 17 18
ATOM     18  CG  TRP X   3     -19.716  -6.629  37.030  1.00 29.58 LIG-0.03  A 
ATOM     19  CD1 TRP X   3     -20.582  -5.603  37.296  1.00 26.84 LIG 0.10  A 
ATOM     20  NE1 TRP X   3     -20.211  -4.975  38.456  1.00 29.47 LIG-0.36  N 
ATOM     21 HE1  TRP X   3     -20.614  -4.300  38.805  1.00 29.47 LIG 0.17  HD
ATOM     22  CE2 TRP X   3     -19.095  -5.590  38.978  1.00 27.62 LIG 0.04  A 
ATOM     23  CZ2 TRP X   3     -18.344  -5.301  40.158  1.00 28.85 LIG 0.03  A 
ATOM     24  CD2 TRP X   3     -18.751  -6.641  38.103  1.00 25.33 LIG-0.00  A 
ATOM     25  CH2 TRP X   3     -17.235  -6.111  40.436  1.00 28.18 LIG 0.00  A 
ATOM     26  CZ3 TRP X   3     -16.870  -7.154  39.566  1.00 26.79 LIG 0.00  A 
ATOM     27  CE3 TRP X   3     -17.615  -7.417  38.387  1.00 25.86 LIG 0.01  A 
ENDBRANCH 17 18
ENDBRANCH 6 17
ENDBRANCH 3 6
ENDBRANCH 1 2
BRANCH 1 28
ATOM     28  CB  ARG X   4     -21.175 -12.554  37.914  1.00 29.55 LIG 0.04  C 
BRANCH 28 29
ATOM     29  CG  ARG X   4     -22.677 -12.810  38.009  1.00 28.17 LIG 0.02  C 
BRANCH 29 30
ATOM     30  CD  ARG X   4     -22.944 -14.240  38.503  1.00 27.09 LIG 0.14  C 
BRANCH 30 31
ATOM     31  NE  ARG X   4     -24.297 -14.331  39.044  1.00 25.46 LIG-0.23  N 
ATOM     32 HE   ARG X   4     -24.730 -13.602  39.183  1.00 25.46 LIG 0.18  HD
ATOM     33  CZ  ARG X   4     -24.895 -15.488  39.335  1.00 27.27 LIG 0.67  C 
ATOM     34  NH2 ARG X   4     -26.134 -15.508  39.819  1.00 24.12 LIG-0.23  N 
ATOM     35  NH1 ARG X   4     -24.233 -16.628  39.152  1.00 21.32 LIG-0.23  N 
ATOM     36 1HH2 ARG X   4     -26.557 -14.771  39.947  1.00 24.12 LIG 0.17  HD
ATOM     37 2HH2 ARG X   4     -26.511 -16.259  40.003  1.00 24.12 LIG 0.17  HD
ATOM     38 2HH1 ARG X   4     -24.611 -17.378  39.337  1.00 21.32 LIG 0.17  HD
ATOM     39 1HH1 ARG X   4     -23.429 -16.615  38.849  1.00 21.32 LIG 0.17  HD
ENDBRANCH 30 31
ENDBRANCH 29 30
ENDBRANCH 28 29
ENDBRANCH 1 28
BRANCH 1 40
ATOM     40  C   ARG X   4     -19.865 -11.890  39.915  1.00 30.38 LIG 0.24  C 
ATOM     41 O    ARG X   4     -18.646 -11.858  39.846  1.00 31.87 LIG-0.27  OA
ATOM     42  N   PRO X   5     -20.525 -12.394  40.969  1.00 30.60 LIG-0.34  N 
ATOM     43  CA  PRO X   5     -19.807 -12.751  42.214  1.00 31.31 LIG 0.18  C 
ATOM     44  CD  PRO X   5     -21.997 -12.593  41.072  1.00 29.99 LIG 0.13  C 
ATOM     45  CB  PRO X   5     -20.939 -12.882  43.238  1.00 30.70 LIG 0.04  C 
ATOM     46  CG  PRO X   5     -22.196 -13.269  42.404  1.00 29.42 LIG 0.02  C 
BRANCH 43 47
ATOM     47  C   PRO X   5     -18.951 -14.047  42.223  1.00 32.23 LIG 0.24  C 
ATOM     48 O    PRO X   5     -19.200 -14.970  43.056  1.00 32.23 LIG-0.27  OA
ATOM     49  N   TRP X   6     -17.983 -14.136  41.315  1.00 33.50 LIG-0.34  N 
ATOM     50 H    TRP X   6     -17.745 -13.493  40.796  1.00 33.50 LIG 0.16  HD
BRANCH 49 51
ATOM     51  CA  TRP X   6     -17.228 -15.384  41.133  1.00 34.66 LIG 0.19  C 
BRANCH 51 52
ATOM     52  CB  TRP X   6     -17.205 -15.767  39.639  1.00 34.41 LIG 0.08  C 
BRANCH 52 53
ATOM     53  CG  TRP X   6     -16.085 -15.121  38.845  1.00 32.39 LIG-0.03  A 
ATOM     54  CD2 TRP X   6     -15.625 -13.755  38.932  1.00 31.68 LIG-0.00  A 
ATOM     55  CE2 TRP X   6     -14.582 -13.610  37.995  1.00 33.29 LIG 0.04  A 
ATOM     56  CE3 TRP X   6     -15.985 -12.652  39.717  1.00 33.66 LIG 0.01  A 
ATOM     57  CZ2 TRP X   6     -13.875 -12.410  37.838  1.00 33.18 LIG 0.03  A 
ATOM     58  NE1 TRP X   6     -14.411 -14.827  37.380  1.00 30.87 LIG-0.36  N 
ATOM     59  CH2 TRP X   6     -14.240 -11.354  38.611  1.00 32.36 LIG 0.00  A 
ATOM     60  CZ3 TRP X   6     -15.299 -11.453  39.540  1.00 32.37 LIG 0.00  A 
ATOM     61 HE1  TRP X   6     -13.825 -15.003  36.775  1.00 30.87 LIG 0.17  HD
ATOM     62  CD1 TRP X   6     -15.322 -15.715  37.885  1.00 30.01 LIG 0.10  A 
ENDBRANCH 52 53
ENDBRANCH 51 52
BRANCH 51 63
ATOM     63  C   TRP X   6     -15.800 -15.315  41.709  1.00 36.76 LIG 0.20  C 
ATOM     64 O    TRP X   6     -15.358 -14.371  42.388  1.00 37.86 LIG-0.65  OA
ATOM     65 OXT  TRP X   6     -14.992 -16.227  41.494  1.00 39.11 LIG-0.65  OA
ENDBRANCH 51 63
ENDBRANCH 49 51
ENDBRANCH 43 47
ENDBRANCH 1 40
TORSDOF 19
ENDMDL
MODEL 62
USER: ADFR SOLUTION from run 66
USER: SCORE 18.687707 LL:  -5.740 LR: -14.034 RR:   0.000 FEB:  -8.367
USER: RMSD 6.415849
USER: SEED 65
USER: STATUS no improvement in best in 8 clusters for 5 generations
USER: GENES 21
USER: genes 0 Translation |==|  0.51488 0.59713 0.37332
USER: genes 1 Rotation |==|  0.73748 0.23419 0.47812 0.84996
USER: genes 2 Torsion [CB]-CA--N-[C] |==|  0.53378
USER: genes 3 Torsion [N]-C--CA-[N] |==|  0.89827
USER: genes 4 Torsion [C]-CA--N-[C] |==|  0.83629
USER: genes 5 Torsion [N]-C--CA-[N] |==|  0.47550
USER: genes 6 Torsion [C]-CA--CB-[CG] |==|  0.64042
USER: genes 7 Torsion [CA]-CB--CG-[SD] |==|  0.71331
USER: genes 8 Torsion [CB]-CG--SD-[CE] |==|  0.32047
USER: genes 9 Torsion [C]-CA--CB-[CG] |==|  0.13909
USER: genes 10 Torsion [CA]-CB--CG-[CD2] |==|  0.13489
USER: genes 11 Torsion [N]-CA--CB-[CG] |==|  0.97050
USER: genes 12 Torsion [CA]-CB--CG-[CD] |==|  0.52185
USER: genes 13 Torsion [CB]-CG--CD-[NE] |==|  0.32848
USER: genes 14 Torsion [CG]-CD--NE-[CZ] |==|  0.27160
USER: genes 15 Torsion [N]-CA--C-[N] |==|  0.81548
USER: genes 16 Torsion [N]-CA--C-[O] |==|  0.45222
USER: genes 17 Torsion [C]-N--CA-[CB] |==|  0.82032
USER: genes 18 Torsion [N]-CA--CB-[CG] |==|  0.90186
USER: genes 19 Torsion [CA]-CB--CG-[CD2] |==|  0.30455
USER: genes 20 Torsion [N]-CA--C-[O] |==|  0.66024
ROOT
ATOM      1  CA  ARG X   4     -21.052 -10.582  36.319  1.00 29.51 LIG 0.18  C 
ENDROOT
BRANCH 1 2
ATOM      2  N   ARG X   4     -19.991  -9.591  36.162  1.00 29.26 LIG-0.35  N 
ATOM      3  C   TRP X   3     -19.353  -9.029  37.206  1.00 30.37 LIG 0.24  C 
ATOM      4 O    TRP X   3     -19.583  -9.326  38.397  1.00 30.38 LIG-0.27  OA
ATOM      5 H    ARG X   4     -19.813  -9.401  35.343  1.00 29.26 LIG 0.16  HD
BRANCH 3 6
ATOM      6  CA  TRP X   3     -18.275  -7.981  36.862  1.00 30.62 LIG 0.18  C 
BRANCH 6 7
ATOM      7  N   TRP X   3     -17.521  -8.326  35.645  1.00 31.45 LIG-0.34  N 
ATOM      8 H    TRP X   3     -17.553  -7.747  35.010  1.00 31.45 LIG 0.16  HD
ATOM      9  C   MET X   2     -16.855  -9.479  35.605  1.00 32.92 LIG 0.26  C 
ATOM     10 O    MET X   2     -16.777 -10.219  36.566  1.00 32.35 LIG-0.27  OA
BRANCH 9 11
ATOM     11  CA  MET X   2     -16.141  -9.851  34.335  1.00 34.28 LIG 0.40  C 
ATOM     12  N   MET X   2     -15.265 -11.074  34.524  1.00 35.36 LIG 0.61  N 
BRANCH 11 13
ATOM     13  CB  MET X   2     -17.177 -10.112  33.253  1.00 35.71 LIG 0.06  C 
BRANCH 13 14
ATOM     14  CG  MET X   2     -17.004 -11.415  32.520  1.00 37.62 LIG 0.08  C 
BRANCH 14 15
ATOM     15 SD   MET X   2     -16.286 -11.354  30.856  1.00 39.06 LIG-0.17  SA
ATOM     16  CE  MET X   2     -14.730 -12.263  31.112  1.00 45.88 LIG 0.09  C 
ENDBRANCH 14 15
ENDBRANCH 13 14
ENDBRANCH 11 13
ENDBRANCH 9 11
ENDBRANCH 6 7
BRANCH 6 17
ATOM     17  CB  TRP X   3     -18.876  -6.575  36.795  1.00 29.85 LIG 0.07  C 
BRANCH 17 18
ATOM     18  CG  TRP X   3     -19.705  -6.247  38.007  1.00 29.58 LIG-0.03  A 
ATOM     19  CD1 TRP X   3     -20.966  -5.716  38.011  1.00 26.84 LIG 0.10  A 
ATOM     20  NE1 TRP X   3     -21.394  -5.550  39.302  1.00 29.47 LIG-0.36  N 
ATOM     21 HE1  TRP X   3     -22.156  -5.225  39.534  1.00 29.47 LIG 0.17  HD
ATOM     22  CE2 TRP X   3     -20.418  -5.982  40.172  1.00 27.62 LIG 0.04  A 
ATOM     23  CZ2 TRP X   3     -20.394  -6.010  41.599  1.00 28.85 LIG 0.03  A 
ATOM     24  CD2 TRP X   3     -19.333  -6.430  39.390  1.00 25.33 LIG-0.00  A 
ATOM     25  CH2 TRP X   3     -19.243  -6.511  42.220  1.00 28.18 LIG 0.00  A 
ATOM     26  CZ3 TRP X   3     -18.147  -6.949  41.455  1.00 26.79 LIG 0.00  A 
ATOM     27  CE3 TRP X   3     -18.177  -6.897  40.037  1.00 25.86 LIG 0.01  A 
ENDBRANCH 17 18
ENDBRANCH 6 17
ENDBRANCH 3 6
ENDBRANCH 1 2
BRANCH 1 28
ATOM     28  CB  ARG X   4     -21.391 -11.269  34.979  1.00 29.55 LIG 0.04  C 
BRANCH 28 29
ATOM     29  CG  ARG X   4     -20.757 -10.614  33.755  1.00 28.17 LIG 0.02  C 
BRANCH 29 30
ATOM     30  CD  ARG X   4     -21.307 -11.246  32.468  1.00 27.09 LIG 0.14  C 
BRANCH 30 31
ATOM     31  NE  ARG X   4     -21.999 -10.231  31.678  1.00 25.46 LIG-0.23  N 
ATOM     32 HE   ARG X   4     -22.812 -10.040  31.882  1.00 25.46 LIG 0.18  HD
ATOM     33  CZ  ARG X   4     -21.435  -9.586  30.655  1.00 27.27 LIG 0.67  C 
ATOM     34  NH2 ARG X   4     -22.113  -8.664  29.977  1.00 24.12 LIG-0.23  N 
ATOM     35  NH1 ARG X   4     -20.186  -9.884  30.305  1.00 21.32 LIG-0.23  N 
ATOM     36 1HH2 ARG X   4     -22.923  -8.479  30.196  1.00 24.12 LIG 0.17  HD
ATOM     37 2HH2 ARG X   4     -21.740  -8.253  29.319  1.00 24.12 LIG 0.17  HD
ATOM     38 2HH1 ARG X   4     -19.814  -9.474  29.647  1.00 21.32 LIG 0.17  HD
ATOM     39 1HH1 ARG X   4     -19.751 -10.487  30.737  1.00 21.32 LIG 0.17  HD
ENDBRANCH 30 31
ENDBRANCH 29 30
ENDBRANCH 28 29
ENDBRANCH 1 28
BRANCH 1 40
ATOM     40  C   ARG X   4     -20.566 -11.624  37.293  1.00 30.38 LIG 0.24  C 
ATOM     41 O    ARG X   4     -21.107 -11.713  38.384  1.00 31.87 LIG-0.27  OA
ATOM     42  N   PRO X   5     -19.537 -12.400  36.921  1.00 30.60 LIG-0.34  N 
ATOM     43  CA  PRO X   5     -19.130 -13.565  37.740  1.00 31.31 LIG 0.18  C 
ATOM     44  CD  PRO X   5     -18.739 -12.264  35.672  1.00 29.99 LIG 0.13  C 
ATOM     45  CB  PRO X   5     -18.240 -14.364  36.784  1.00 30.70 LIG 0.04  C 
ATOM     46  CG  PRO X   5     -17.661 -13.310  35.794  1.00 29.42 LIG 0.02  C 
BRANCH 43 47
ATOM     47  C   PRO X   5     -18.359 -13.300  39.063  1.00 32.23 LIG 0.24  C 
ATOM     48 O    PRO X   5     -18.277 -14.207  39.945  1.00 32.23 LIG-0.27  OA
ATOM     49  N   TRP X   6     -17.788 -12.107  39.199  1.00 33.50 LIG-0.34  N 
ATOM     50 H    TRP X   6     -17.898 -11.452  38.652  1.00 33.50 LIG 0.16  HD
BRANCH 49 51
ATOM     51  CA  TRP X   6     -16.901 -11.817  40.334  1.00 34.66 LIG 0.19  C 
BRANCH 51 52
ATOM     52  CB  TRP X   6     -17.700 -11.877  41.652  1.00 34.41 LIG 0.08  C 
BRANCH 52 53
ATOM     53  CG  TRP X   6     -19.128 -11.376  41.541  1.00 32.39 LIG-0.03  A 
ATOM     54  CD2 TRP X   6     -20.340 -12.161  41.605  1.00 31.68 LIG-0.00  A 
ATOM     55  CE2 TRP X   6     -21.418 -11.269  41.435  1.00 33.29 LIG 0.04  A 
ATOM     56  CE3 TRP X   6     -20.612 -13.521  41.800  1.00 33.66 LIG 0.01  A 
ATOM     57  CZ2 TRP X   6     -22.754 -11.691  41.481  1.00 33.18 LIG 0.03  A 
ATOM     58  NE1 TRP X   6     -20.890 -10.009  41.289  1.00 30.87 LIG-0.36  N 
ATOM     59  CH2 TRP X   6     -22.995 -13.014  41.672  1.00 32.36 LIG 0.00  A 
ATOM     60  CZ3 TRP X   6     -21.939 -13.941  41.817  1.00 32.37 LIG 0.00  A 
ATOM     61 HE1  TRP X   6     -21.344  -9.287  41.183  1.00 30.87 LIG 0.17  HD
ATOM     62  CD1 TRP X   6     -19.524 -10.088  41.339  1.00 30.01 LIG 0.10  A 
ENDBRANCH 52 53
ENDBRANCH 51 52
BRANCH 51 63
ATOM     63  C   TRP X   6     -15.671 -12.744  40.390  1.00 36.76 LIG 0.20  C 
ATOM     64 O    TRP X   6     -15.378 -13.470  41.357  1.00 37.86 LIG-0.65  OA
ATOM     65 OXT  TRP X   6     -14.878 -12.792  39.442  1.00 39.11 LIG-0.65  OA
ENDBRANCH 51 63
ENDBRANCH 49 51
ENDBRANCH 43 47
ENDBRANCH 1 40
TORSDOF 19
ENDMDL
MODEL 63
USER: ADFR SOLUTION from run 173
USER: SCORE 18.050457 LL:  -4.527 LR: -14.022 RR:   0.000 FEB:  -8.355
USER: RMSD 2.327835
USER: SEED 172
USER: STATUS no improvement in best in 7 clusters for 5 generations
USER: GENES 21
USER: genes 0 Translation |==|  0.47538 0.51179 0.47879
USER: genes 1 Rotation |==|  0.58700 0.43002 0.55315 0.98447
USER: genes 2 Torsion [CB]-CA--N-[C] |==|  0.54167
USER: genes 3 Torsion [N]-C--CA-[N] |==|  0.05556
USER: genes 4 Torsion [C]-CA--N-[C] |==|  0.70973
USER: genes 5 Torsion [N]-C--CA-[N] |==|  0.40849
USER: genes 6 Torsion [C]-CA--CB-[CG] |==|  0.17425
USER: genes 7 Torsion [CA]-CB--CG-[SD] |==|  0.20063
USER: genes 8 Torsion [CB]-CG--SD-[CE] |==|  0.58706
USER: genes 9 Torsion [C]-CA--CB-[CG] |==|  0.16198
USER: genes 10 Torsion [CA]-CB--CG-[CD2] |==|  0.65875
USER: genes 11 Torsion [N]-CA--CB-[CG] |==|  0.60091
USER: genes 12 Torsion [CA]-CB--CG-[CD] |==|  0.44838
USER: genes 13 Torsion [CB]-CG--CD-[NE] |==|  0.60562
USER: genes 14 Torsion [CG]-CD--NE-[CZ] |==|  0.55945
USER: genes 15 Torsion [N]-CA--C-[N] |==|  0.37400
USER: genes 16 Torsion [N]-CA--C-[O] |==|  0.11229
USER: genes 17 Torsion [C]-N--CA-[CB] |==|  0.75908
USER: genes 18 Torsion [N]-CA--CB-[CG] |==|  0.14875
USER: genes 19 Torsion [CA]-CB--CG-[CD2] |==|  0.73586
USER: genes 20 Torsion [N]-CA--C-[O] |==|  0.62176
ROOT
ATOM      1  CA  ARG X   4     -21.882 -12.246  38.296  1.00 29.51 LIG 0.18  C 
ENDROOT
BRANCH 1 2
ATOM      2  N   ARG X   4     -21.734 -11.788  36.917  1.00 29.26 LIG-0.35  N 
ATOM      3  C   TRP X   3     -21.032 -10.691  36.581  1.00 30.37 LIG 0.24  C 
ATOM      4 O    TRP X   3     -20.416  -9.984  37.408  1.00 30.38 LIG-0.27  OA
ATOM      5 H    ARG X   4     -22.136 -12.285  36.342  1.00 29.26 LIG 0.16  HD
BRANCH 3 6
ATOM      6  CA  TRP X   3     -20.998 -10.335  35.080  1.00 30.62 LIG 0.18  C 
BRANCH 6 7
ATOM      7  N   TRP X   3     -22.098 -10.962  34.327  1.00 31.45 LIG-0.34  N 
ATOM      8 H    TRP X   3     -22.873 -10.605  34.432  1.00 31.45 LIG 0.16  HD
ATOM      9  C   MET X   2     -21.832 -12.013  33.554  1.00 32.92 LIG 0.26  C 
ATOM     10 O    MET X   2     -20.701 -12.424  33.379  1.00 32.35 LIG-0.27  OA
BRANCH 9 11
ATOM     11  CA  MET X   2     -22.972 -12.686  32.841  1.00 34.28 LIG 0.40  C 
ATOM     12  N   MET X   2     -22.541 -13.244  31.499  1.00 35.36 LIG 0.61  N 
BRANCH 11 13
ATOM     13  CB  MET X   2     -23.509 -13.801  33.724  1.00 35.71 LIG 0.06  C 
BRANCH 13 14
ATOM     14  CG  MET X   2     -24.084 -13.341  35.036  1.00 37.62 LIG 0.08  C 
BRANCH 14 15
ATOM     15 SD   MET X   2     -25.676 -12.475  34.998  1.00 39.06 LIG-0.17  SA
ATOM     16  CE  MET X   2     -25.498 -11.351  36.419  1.00 45.88 LIG 0.09  C 
ENDBRANCH 14 15
ENDBRANCH 13 14
ENDBRANCH 11 13
ENDBRANCH 9 11
ENDBRANCH 6 7
BRANCH 6 17
ATOM     17  CB  TRP X   3     -20.943  -8.820  34.875  1.00 29.85 LIG 0.07  C 
BRANCH 17 18
ATOM     18  CG  TRP X   3     -19.746  -8.195  35.538  1.00 29.58 LIG-0.03  A 
ATOM     19  CD1 TRP X   3     -18.433  -8.516  35.320  1.00 26.84 LIG 0.10  A 
ATOM     20  NE1 TRP X   3     -17.629  -7.740  36.112  1.00 29.47 LIG-0.36  N 
ATOM     21 HE1  TRP X   3     -16.770  -7.782  36.138  1.00 29.47 LIG 0.17  HD
ATOM     22  CE2 TRP X   3     -18.405  -6.884  36.860  1.00 27.62 LIG 0.04  A 
ATOM     23  CZ2 TRP X   3     -18.032  -5.897  37.822  1.00 28.85 LIG 0.03  A 
ATOM     24  CD2 TRP X   3     -19.751  -7.143  36.526  1.00 25.33 LIG-0.00  A 
ATOM     25  CH2 TRP X   3     -19.059  -5.167  38.435  1.00 28.18 LIG 0.00  A 
ATOM     26  CZ3 TRP X   3     -20.407  -5.422  38.123  1.00 26.79 LIG 0.00  A 
ATOM     27  CE3 TRP X   3     -20.763  -6.421  37.180  1.00 25.86 LIG 0.01  A 
ENDBRANCH 17 18
ENDBRANCH 6 17
ENDBRANCH 3 6
ENDBRANCH 1 2
BRANCH 1 28
ATOM     28  CB  ARG X   4     -22.404 -13.697  38.361  1.00 29.55 LIG 0.04  C 
BRANCH 28 29
ATOM     29  CG  ARG X   4     -23.364 -13.971  39.516  1.00 28.17 LIG 0.02  C 
BRANCH 29 30
ATOM     30  CD  ARG X   4     -24.171 -15.250  39.245  1.00 27.09 LIG 0.14  C 
BRANCH 30 31
ATOM     31  NE  ARG X   4     -25.543 -15.076  39.714  1.00 25.46 LIG-0.23  N 
ATOM     32 HE   ARG X   4     -25.843 -14.276  39.811  1.00 25.46 LIG 0.18  HD
ATOM     33  CZ  ARG X   4     -26.355 -16.095  40.001  1.00 27.27 LIG 0.67  C 
ATOM     34  NH2 ARG X   4     -27.599 -15.875  40.417  1.00 24.12 LIG-0.23  N 
ATOM     35  NH1 ARG X   4     -25.905 -17.342  39.883  1.00 21.32 LIG-0.23  N 
ATOM     36 1HH2 ARG X   4     -27.887 -15.070  40.504  1.00 24.12 LIG 0.17  HD
ATOM     37 2HH2 ARG X   4     -28.116 -16.538  40.599  1.00 24.12 LIG 0.17  HD
ATOM     38 2HH1 ARG X   4     -26.421 -18.004  40.066  1.00 21.32 LIG 0.17  HD
ATOM     39 1HH1 ARG X   4     -25.097 -17.484  39.624  1.00 21.32 LIG 0.17  HD
ENDBRANCH 30 31
ENDBRANCH 29 30
ENDBRANCH 28 29
ENDBRANCH 1 28
BRANCH 1 40
ATOM     40  C   ARG X   4     -20.524 -12.186  38.948  1.00 30.38 LIG 0.24  C 
ATOM     41 O    ARG X   4     -19.560 -12.634  38.350  1.00 31.87 LIG-0.27  OA
ATOM     42  N   PRO X   5     -20.440 -11.653  40.177  1.00 30.60 LIG-0.34  N 
ATOM     43  CA  PRO X   5     -19.124 -11.384  40.799  1.00 31.31 LIG 0.18  C 
ATOM     44  CD  PRO X   5     -21.582 -11.210  41.023  1.00 29.99 LIG 0.13  C 
ATOM     45  CB  PRO X   5     -19.475 -10.444  41.955  1.00 30.70 LIG 0.04  C 
ATOM     46  CG  PRO X   5     -20.949 -10.789  42.324  1.00 29.42 LIG 0.02  C 
BRANCH 43 47
ATOM     47  C   PRO X   5     -18.309 -12.590  41.344  1.00 32.23 LIG 0.24  C 
ATOM     48 O    PRO X   5     -18.268 -13.678  40.694  1.00 32.23 LIG-0.27  OA
ATOM     49  N   TRP X   6     -17.658 -12.408  42.490  1.00 33.50 LIG-0.34  N 
ATOM     50 H    TRP X   6     -17.736 -11.710  42.986  1.00 33.50 LIG 0.16  HD
BRANCH 49 51
ATOM     51  CA  TRP X   6     -16.730 -13.425  43.003  1.00 34.66 LIG 0.19  C 
BRANCH 51 52
ATOM     52  CB  TRP X   6     -17.504 -14.466  43.837  1.00 34.41 LIG 0.08  C 
BRANCH 52 53
ATOM     53  CG  TRP X   6     -18.682 -15.095  43.117  1.00 32.39 LIG-0.03  A 
ATOM     54  CD2 TRP X   6     -20.067 -14.688  43.181  1.00 31.68 LIG-0.00  A 
ATOM     55  CE2 TRP X   6     -20.796 -15.575  42.364  1.00 33.29 LIG 0.04  A 
ATOM     56  CE3 TRP X   6     -20.751 -13.656  43.837  1.00 33.66 LIG 0.01  A 
ATOM     57  CZ2 TRP X   6     -22.177 -15.447  42.164  1.00 33.18 LIG 0.03  A 
ATOM     58  NE1 TRP X   6     -19.900 -16.466  41.824  1.00 30.87 LIG-0.36  N 
ATOM     59  CH2 TRP X   6     -22.820 -14.439  42.808  1.00 32.36 LIG 0.00  A 
ATOM     60  CZ3 TRP X   6     -22.128 -13.548  43.658  1.00 32.37 LIG 0.00  A 
ATOM     61 HE1  TRP X   6     -20.095 -17.102  41.279  1.00 30.87 LIG 0.17  HD
ATOM     62  CD1 TRP X   6     -18.646 -16.178  42.292  1.00 30.01 LIG 0.10  A 
ENDBRANCH 52 53
ENDBRANCH 51 52
BRANCH 51 63
ATOM     63  C   TRP X   6     -15.908 -14.108  41.891  1.00 36.76 LIG 0.20  C 
ATOM     64 O    TRP X   6     -15.696 -15.332  41.820  1.00 37.86 LIG-0.65  OA
ATOM     65 OXT  TRP X   6     -15.386 -13.435  40.994  1.00 39.11 LIG-0.65  OA
ENDBRANCH 51 63
ENDBRANCH 49 51
ENDBRANCH 43 47
ENDBRANCH 1 40
TORSDOF 19
ENDMDL
MODEL 64
USER: ADFR SOLUTION from run 2
USER: SCORE 18.979954 LL:  -6.079 LR: -14.023 RR:   0.000 FEB:  -8.356
USER: RMSD 8.735775
USER: SEED 254133
USER: STATUS no improvement in best in 9 clusters for 5 generations
USER: GENES 21
USER: genes 0 Translation |==|  0.61838 0.68236 0.55068
USER: genes 1 Rotation |==|  0.19190 0.85437 0.47960 0.67053
USER: genes 2 Torsion [CB]-CA--N-[C] |==|  0.27778
USER: genes 3 Torsion [N]-C--CA-[N] |==|  0.96663
USER: genes 4 Torsion [C]-CA--N-[C] |==|  0.76944
USER: genes 5 Torsion [N]-C--CA-[N] |==|  0.60561
USER: genes 6 Torsion [C]-CA--CB-[CG] |==|  0.76758
USER: genes 7 Torsion [CA]-CB--CG-[SD] |==|  0.44527
USER: genes 8 Torsion [CB]-CG--SD-[CE] |==|  0.79061
USER: genes 9 Torsion [C]-CA--CB-[CG] |==|  0.97993
USER: genes 10 Torsion [CA]-CB--CG-[CD2] |==|  0.31192
USER: genes 11 Torsion [N]-CA--CB-[CG] |==|  0.59162
USER: genes 12 Torsion [CA]-CB--CG-[CD] |==|  0.23699
USER: genes 13 Torsion [CB]-CG--CD-[NE] |==|  0.83634
USER: genes 14 Torsion [CG]-CD--NE-[CZ] |==|  0.50527
USER: genes 15 Torsion [N]-CA--C-[N] |==|  0.41564
USER: genes 16 Torsion [N]-CA--C-[O] |==|  0.53508
USER: genes 17 Torsion [C]-N--CA-[CB] |==|  0.23552
USER: genes 18 Torsion [N]-CA--CB-[CG] |==|  0.74777
USER: genes 19 Torsion [CA]-CB--CG-[CD2] |==|  0.26374
USER: genes 20 Torsion [N]-CA--C-[O] |==|  0.61789
ROOT
ATOM      1  CA  ARG X   4     -18.879  -8.920  39.644  1.00 29.51 LIG 0.18  C 
ENDROOT
BRANCH 1 2
ATOM      2  N   ARG X   4     -19.613  -9.261  40.860  1.00 29.26 LIG-0.35  N 
ATOM      3  C   TRP X   3     -20.581  -8.480  41.375  1.00 30.37 LIG 0.24  C 
ATOM      4 O    TRP X   3     -20.964  -7.416  40.846  1.00 30.38 LIG-0.27  OA
ATOM      5 H    ARG X   4     -19.369 -10.005  41.216  1.00 29.26 LIG 0.16  HD
BRANCH 3 6
ATOM      6  CA  TRP X   3     -21.237  -8.977  42.680  1.00 30.62 LIG 0.18  C 
BRANCH 6 7
ATOM      7  N   TRP X   3     -20.881 -10.372  42.994  1.00 31.45 LIG-0.34  N 
ATOM      8 H    TRP X   3     -20.234 -10.476  43.551  1.00 31.45 LIG 0.16  HD
ATOM      9  C   MET X   2     -21.563 -11.357  42.413  1.00 32.92 LIG 0.26  C 
ATOM     10 O    MET X   2     -22.524 -11.149  41.697  1.00 32.35 LIG-0.27  OA
BRANCH 9 11
ATOM     11  CA  MET X   2     -21.151 -12.776  42.689  1.00 34.28 LIG 0.40  C 
ATOM     12  N   MET X   2     -21.268 -13.644  41.452  1.00 35.36 LIG 0.61  N 
BRANCH 11 13
ATOM     13  CB  MET X   2     -19.717 -12.777  43.195  1.00 35.71 LIG 0.06  C 
BRANCH 13 14
ATOM     14  CG  MET X   2     -18.670 -12.745  42.114  1.00 37.62 LIG 0.08  C 
BRANCH 14 15
ATOM     15 SD   MET X   2     -17.003 -12.201  42.576  1.00 39.06 LIG-0.17  SA
ATOM     16  CE  MET X   2     -17.248 -10.403  42.721  1.00 45.88 LIG 0.09  C 
ENDBRANCH 14 15
ENDBRANCH 13 14
ENDBRANCH 11 13
ENDBRANCH 9 11
ENDBRANCH 6 7
BRANCH 6 17
ATOM     17  CB  TRP X   3     -20.940  -8.026  43.842  1.00 29.85 LIG 0.07  C 
BRANCH 17 18
ATOM     18  CG  TRP X   3     -19.954  -6.954  43.467  1.00 29.58 LIG-0.03  A 
ATOM     19  CD1 TRP X   3     -18.628  -7.133  43.176  1.00 26.84 LIG 0.10  A 
ATOM     20  NE1 TRP X   3     -18.050  -5.924  42.890  1.00 29.47 LIG-0.36  N 
ATOM     21 HE1  TRP X   3     -17.223  -5.806  42.686  1.00 29.47 LIG 0.17  HD
ATOM     22  CE2 TRP X   3     -18.995  -4.927  42.978  1.00 27.62 LIG 0.04  A 
ATOM     23  CZ2 TRP X   3     -18.880  -3.519  42.775  1.00 28.85 LIG 0.03  A 
ATOM     24  CD2 TRP X   3     -20.213  -5.539  43.343  1.00 25.33 LIG-0.00  A 
ATOM     25  CH2 TRP X   3     -20.033  -2.741  42.942  1.00 28.18 LIG 0.00  A 
ATOM     26  CZ3 TRP X   3     -21.251  -3.334  43.318  1.00 26.79 LIG 0.00  A 
ATOM     27  CE3 TRP X   3     -21.347  -4.733  43.537  1.00 25.86 LIG 0.01  A 
ENDBRANCH 17 18
ENDBRANCH 6 17
ENDBRANCH 3 6
ENDBRANCH 1 2
BRANCH 1 28
ATOM     28  CB  ARG X   4     -17.498  -8.312  39.965  1.00 29.55 LIG 0.04  C 
BRANCH 28 29
ATOM     29  CG  ARG X   4     -17.023  -7.261  38.964  1.00 28.17 LIG 0.02  C 
BRANCH 29 30
ATOM     30  CD  ARG X   4     -17.589  -5.881  39.332  1.00 27.09 LIG 0.14  C 
BRANCH 30 31
ATOM     31  NE  ARG X   4     -19.048  -5.933  39.339  1.00 25.46 LIG-0.23  N 
ATOM     32 HE   ARG X   4     -19.431  -6.685  39.175  1.00 25.46 LIG 0.18  HD
ATOM     33  CZ  ARG X   4     -19.819  -4.873  39.588  1.00 27.27 LIG 0.67  C 
ATOM     34  NH2 ARG X   4     -21.145  -4.983  39.590  1.00 24.12 LIG-0.23  N 
ATOM     35  NH1 ARG X   4     -19.250  -3.692  39.821  1.00 21.32 LIG-0.23  N 
ATOM     36 1HH2 ARG X   4     -21.513  -5.743  39.429  1.00 24.12 LIG 0.17  HD
ATOM     37 2HH2 ARG X   4     -21.634  -4.294  39.752  1.00 24.12 LIG 0.17  HD
ATOM     38 2HH1 ARG X   4     -19.739  -3.004  39.982  1.00 21.32 LIG 0.17  HD
ATOM     39 1HH1 ARG X   4     -18.393  -3.619  39.810  1.00 21.32 LIG 0.17  HD
ENDBRANCH 30 31
ENDBRANCH 29 30
ENDBRANCH 28 29
ENDBRANCH 1 28
BRANCH 1 40
ATOM     40  C   ARG X   4     -18.683 -10.190  38.857  1.00 30.38 LIG 0.24  C 
ATOM     41 O    ARG X   4     -18.570 -11.247  39.456  1.00 31.87 LIG-0.27  OA
ATOM     42  N   PRO X   5     -18.623 -10.096  37.519  1.00 30.60 LIG-0.34  N 
ATOM     43  CA  PRO X   5     -18.626 -11.311  36.673  1.00 31.31 LIG 0.18  C 
ATOM     44  CD  PRO X   5     -18.617  -8.837  36.725  1.00 29.99 LIG 0.13  C 
ATOM     45  CB  PRO X   5     -18.952 -10.760  35.281  1.00 30.70 LIG 0.04  C 
ATOM     46  CG  PRO X   5     -18.440  -9.289  35.298  1.00 29.42 LIG 0.02  C 
BRANCH 43 47
ATOM     47  C   PRO X   5     -17.326 -12.159  36.600  1.00 32.23 LIG 0.24  C 
ATOM     48 O    PRO X   5     -17.201 -13.060  35.716  1.00 32.23 LIG-0.27  OA
ATOM     49  N   TRP X   6     -16.371 -11.876  37.481  1.00 33.50 LIG-0.34  N 
ATOM     50 H    TRP X   6     -16.465 -11.327  38.137  1.00 33.50 LIG 0.16  HD
BRANCH 49 51
ATOM     51  CA  TRP X   6     -15.046 -12.504  37.390  1.00 34.66 LIG 0.19  C 
BRANCH 51 52
ATOM     52  CB  TRP X   6     -14.158 -11.711  36.410  1.00 34.41 LIG 0.08  C 
BRANCH 52 53
ATOM     53  CG  TRP X   6     -14.229 -12.192  34.972  1.00 32.39 LIG-0.03  A 
ATOM     54  CD2 TRP X   6     -15.070 -11.677  33.917  1.00 31.68 LIG-0.00  A 
ATOM     55  CE2 TRP X   6     -14.805 -12.446  32.766  1.00 33.29 LIG 0.04  A 
ATOM     56  CE3 TRP X   6     -16.006 -10.638  33.835  1.00 33.66 LIG 0.01  A 
ATOM     57  CZ2 TRP X   6     -15.426 -12.192  31.535  1.00 33.18 LIG 0.03  A 
ATOM     58  NE1 TRP X   6     -13.846 -13.371  33.102  1.00 30.87 LIG-0.36  N 
ATOM     59  CH2 TRP X   6     -16.328 -11.179  31.477  1.00 32.36 LIG 0.00  A 
ATOM     60  CZ3 TRP X   6     -16.641 -10.406  32.617  1.00 32.37 LIG 0.00  A 
ATOM     61 HE1  TRP X   6     -13.503 -13.952  32.568  1.00 30.87 LIG 0.17  HD
ATOM     62  CD1 TRP X   6     -13.521 -13.218  34.423  1.00 30.01 LIG 0.10  A 
ENDBRANCH 52 53
ENDBRANCH 51 52
BRANCH 51 63
ATOM     63  C   TRP X   6     -14.356 -12.658  38.761  1.00 36.76 LIG 0.20  C 
ATOM     64 O    TRP X   6     -13.153 -12.425  38.975  1.00 37.86 LIG-0.65  OA
ATOM     65 OXT  TRP X   6     -14.994 -13.057  39.742  1.00 39.11 LIG-0.65  OA
ENDBRANCH 51 63
ENDBRANCH 49 51
ENDBRANCH 43 47
ENDBRANCH 1 40
TORSDOF 19
ENDMDL
MODEL 65
USER: ADFR SOLUTION from run 173
USER: SCORE 19.358088 LL:  -5.787 LR: -14.014 RR:   0.000 FEB:  -8.347
USER: RMSD 4.663899
USER: SEED 172
USER: STATUS no improvement in best in 7 clusters for 5 generations
USER: GENES 21
USER: genes 0 Translation |==|  0.58575 0.60436 0.51946
USER: genes 1 Rotation |==|  0.65876 0.34306 0.54487 0.94514
USER: genes 2 Torsion [CB]-CA--N-[C] |==|  0.58916
USER: genes 3 Torsion [N]-C--CA-[N] |==|  0.93889
USER: genes 4 Torsion [C]-CA--N-[C] |==|  0.82251
USER: genes 5 Torsion [N]-C--CA-[N] |==|  0.39697
USER: genes 6 Torsion [C]-CA--CB-[CG] |==|  0.14797
USER: genes 7 Torsion [CA]-CB--CG-[SD] |==|  0.14705
USER: genes 8 Torsion [CB]-CG--SD-[CE] |==|  0.62558
USER: genes 9 Torsion [C]-CA--CB-[CG] |==|  0.07817
USER: genes 10 Torsion [CA]-CB--CG-[CD2] |==|  0.70406
USER: genes 11 Torsion [N]-CA--CB-[CG] |==|  0.73606
USER: genes 12 Torsion [CA]-CB--CG-[CD] |==|  0.55605
USER: genes 13 Torsion [CB]-CG--CD-[NE] |==|  0.36038
USER: genes 14 Torsion [CG]-CD--NE-[CZ] |==|  0.60415
USER: genes 15 Torsion [N]-CA--C-[N] |==|  0.27838
USER: genes 16 Torsion [N]-CA--C-[O] |==|  0.54396
USER: genes 17 Torsion [C]-N--CA-[CB] |==|  0.50561
USER: genes 18 Torsion [N]-CA--CB-[CG] |==|  0.77706
USER: genes 19 Torsion [CA]-CB--CG-[CD2] |==|  0.17983
USER: genes 20 Torsion [N]-CA--C-[O] |==|  0.33892
ROOT
ATOM      1  CA  ARG X   4     -19.564 -10.441  39.059  1.00 29.51 LIG 0.18  C 
ENDROOT
BRANCH 1 2
ATOM      2  N   ARG X   4     -18.993  -9.568  38.037  1.00 29.26 LIG-0.35  N 
ATOM      3  C   TRP X   3     -17.990  -8.705  38.288  1.00 30.37 LIG 0.24  C 
ATOM      4 O    TRP X   3     -17.435  -8.596  39.402  1.00 30.38 LIG-0.27  OA
ATOM      5 H    ARG X   4     -19.356  -9.656  37.263  1.00 29.26 LIG 0.16  HD
BRANCH 3 6
ATOM      6  CA  TRP X   3     -17.523  -7.838  37.100  1.00 30.62 LIG 0.18  C 
BRANCH 6 7
ATOM      7  N   TRP X   3     -17.872  -8.432  35.797  1.00 31.45 LIG-0.34  N 
ATOM      8 H    TRP X   3     -18.422  -7.979  35.317  1.00 31.45 LIG 0.16  HD
ATOM      9  C   MET X   2     -17.328  -9.599  35.455  1.00 32.92 LIG 0.26  C 
ATOM     10 O    MET X   2     -16.490 -10.153  36.141  1.00 32.35 LIG-0.27  OA
BRANCH 9 11
ATOM     11  CA  MET X   2     -17.740 -10.228  34.153  1.00 34.28 LIG 0.40  C 
ATOM     12  N   MET X   2     -16.574 -10.917  33.472  1.00 35.36 LIG 0.61  N 
BRANCH 11 13
ATOM     13  CB  MET X   2     -18.853 -11.227  34.425  1.00 35.71 LIG 0.06  C 
BRANCH 13 14
ATOM     14  CG  MET X   2     -20.024 -10.670  35.188  1.00 37.62 LIG 0.08  C 
BRANCH 14 15
ATOM     15 SD   MET X   2     -20.807  -9.166  34.546  1.00 39.06 LIG-0.17  SA
ATOM     16  CE  MET X   2     -20.990  -8.187  36.069  1.00 45.88 LIG 0.09  C 
ENDBRANCH 14 15
ENDBRANCH 13 14
ENDBRANCH 11 13
ENDBRANCH 9 11
ENDBRANCH 6 7
BRANCH 6 17
ATOM     17  CB  TRP X   3     -18.026  -6.400  37.237  1.00 29.85 LIG 0.07  C 
BRANCH 17 18
ATOM     18  CG  TRP X   3     -18.224  -5.996  38.673  1.00 29.58 LIG-0.03  A 
ATOM     19  CD1 TRP X   3     -17.240  -5.717  39.582  1.00 26.84 LIG 0.10  A 
ATOM     20  NE1 TRP X   3     -17.804  -5.394  40.789  1.00 29.47 LIG-0.36  N 
ATOM     21 HE1  TRP X   3     -17.368  -5.190  41.501  1.00 29.47 LIG 0.17  HD
ATOM     22  CE2 TRP X   3     -19.176  -5.447  40.687  1.00 27.62 LIG 0.04  A 
ATOM     23  CZ2 TRP X   3     -20.188  -5.199  41.662  1.00 28.85 LIG 0.03  A 
ATOM     24  CD2 TRP X   3     -19.480  -5.826  39.362  1.00 25.33 LIG-0.00  A 
ATOM     25  CH2 TRP X   3     -21.524  -5.336  41.262  1.00 28.18 LIG 0.00  A 
ATOM     26  CZ3 TRP X   3     -21.844  -5.726  39.949  1.00 26.79 LIG 0.00  A 
ATOM     27  CE3 TRP X   3     -20.826  -5.989  38.995  1.00 25.86 LIG 0.01  A 
ENDBRANCH 17 18
ENDBRANCH 6 17
ENDBRANCH 3 6
ENDBRANCH 1 2
BRANCH 1 28
ATOM     28  CB  ARG X   4     -20.049 -11.777  38.459  1.00 29.55 LIG 0.04  C 
BRANCH 28 29
ATOM     29  CG  ARG X   4     -21.532 -11.807  38.098  1.00 28.17 LIG 0.02  C 
BRANCH 29 30
ATOM     30  CD  ARG X   4     -22.026 -13.258  37.996  1.00 27.09 LIG 0.14  C 
BRANCH 30 31
ATOM     31  NE  ARG X   4     -23.240 -13.423  38.790  1.00 25.46 LIG-0.23  N 
ATOM     32 HE   ARG X   4     -23.808 -12.777  38.805  1.00 25.46 LIG 0.18  HD
ATOM     33  CZ  ARG X   4     -23.513 -14.523  39.494  1.00 27.27 LIG 0.67  C 
ATOM     34  NH2 ARG X   4     -24.641 -14.619  40.193  1.00 24.12 LIG-0.23  N 
ATOM     35  NH1 ARG X   4     -22.636 -15.524  39.505  1.00 21.32 LIG-0.23  N 
ATOM     36 1HH2 ARG X   4     -25.202 -13.968  40.194  1.00 24.12 LIG 0.17  HD
ATOM     37 2HH2 ARG X   4     -24.809 -15.332  40.643  1.00 24.12 LIG 0.17  HD
ATOM     38 2HH1 ARG X   4     -22.804 -16.237  39.956  1.00 21.32 LIG 0.17  HD
ATOM     39 1HH1 ARG X   4     -21.903 -15.458  39.062  1.00 21.32 LIG 0.17  HD
ENDBRANCH 30 31
ENDBRANCH 29 30
ENDBRANCH 28 29
ENDBRANCH 1 28
BRANCH 1 40
ATOM     40  C   ARG X   4     -18.488 -10.723  40.075  1.00 30.38 LIG 0.24  C 
ATOM     41 O    ARG X   4     -17.654 -11.580  39.832  1.00 31.87 LIG-0.27  OA
ATOM     42  N   PRO X   5     -18.507 -10.025  41.221  1.00 30.60 LIG-0.34  N 
ATOM     43  CA  PRO X   5     -17.381 -10.107  42.178  1.00 31.31 LIG 0.18  C 
ATOM     44  CD  PRO X   5     -19.561  -9.065  41.648  1.00 29.99 LIG 0.13  C 
ATOM     45  CB  PRO X   5     -17.615  -8.898  43.090  1.00 30.70 LIG 0.04  C 
ATOM     46  CG  PRO X   5     -19.150  -8.642  43.035  1.00 29.42 LIG 0.02  C 
BRANCH 43 47
ATOM     47  C   PRO X   5     -17.246 -11.389  43.046  1.00 32.23 LIG 0.24  C 
ATOM     48 O    PRO X   5     -16.499 -11.389  44.071  1.00 32.23 LIG-0.27  OA
ATOM     49  N   TRP X   6     -17.958 -12.448  42.672  1.00 33.50 LIG-0.34  N 
ATOM     50 H    TRP X   6     -18.406 -12.496  41.939  1.00 33.50 LIG 0.16  HD
BRANCH 49 51
ATOM     51  CA  TRP X   6     -18.028 -13.649  43.515  1.00 34.66 LIG 0.19  C 
BRANCH 51 52
ATOM     52  CB  TRP X   6     -18.876 -14.731  42.814  1.00 34.41 LIG 0.08  C 
BRANCH 52 53
ATOM     53  CG  TRP X   6     -20.375 -14.537  42.951  1.00 32.39 LIG-0.03  A 
ATOM     54  CD2 TRP X   6     -21.169 -13.451  42.425  1.00 31.68 LIG-0.00  A 
ATOM     55  CE2 TRP X   6     -22.502 -13.686  42.818  1.00 33.29 LIG 0.04  A 
ATOM     56  CE3 TRP X   6     -20.883 -12.317  41.653  1.00 33.66 LIG 0.01  A 
ATOM     57  CZ2 TRP X   6     -23.555 -12.841  42.443  1.00 33.18 LIG 0.03  A 
ATOM     58  NE1 TRP X   6     -22.517 -14.859  43.534  1.00 30.87 LIG-0.36  N 
ATOM     59  CH2 TRP X   6     -23.255 -11.748  41.694  1.00 32.36 LIG 0.00  A 
ATOM     60  CZ3 TRP X   6     -21.927 -11.464  41.306  1.00 32.37 LIG 0.00  A 
ATOM     61 HE1  TRP X   6     -23.217 -15.227  43.874  1.00 30.87 LIG 0.17  HD
ATOM     62  CD1 TRP X   6     -21.241 -15.348  43.618  1.00 30.01 LIG 0.10  A 
ENDBRANCH 52 53
ENDBRANCH 51 52
BRANCH 51 63
ATOM     63  C   TRP X   6     -16.640 -14.198  43.900  1.00 36.76 LIG 0.20  C 
ATOM     64 O    TRP X   6     -16.242 -14.351  45.069  1.00 37.86 LIG-0.65  OA
ATOM     65 OXT  TRP X   6     -15.822 -14.506  43.025  1.00 39.11 LIG-0.65  OA
ENDBRANCH 51 63
ENDBRANCH 49 51
ENDBRANCH 43 47
ENDBRANCH 1 40
TORSDOF 19
ENDMDL
MODEL 66
USER: ADFR SOLUTION from run 71
USER: SCORE 18.326196 LL:  -4.986 LR: -14.005 RR:   0.000 FEB:  -8.338
USER: RMSD 5.767406
USER: SEED 70
USER: STATUS no improvement in best in 13 clusters for 5 generations
USER: GENES 21
USER: genes 0 Translation |==|  0.53715 0.63683 0.29066
USER: genes 1 Rotation |==|  0.15080 0.54608 0.28130 0.77947
USER: genes 2 Torsion [CB]-CA--N-[C] |==|  0.86667
USER: genes 3 Torsion [N]-C--CA-[N] |==|  0.86625
USER: genes 4 Torsion [C]-CA--N-[C] |==|  0.62189
USER: genes 5 Torsion [N]-C--CA-[N] |==|  0.05802
USER: genes 6 Torsion [C]-CA--CB-[CG] |==|  0.29113
USER: genes 7 Torsion [CA]-CB--CG-[SD] |==|  0.75699
USER: genes 8 Torsion [CB]-CG--SD-[CE] |==|  0.81729
USER: genes 9 Torsion [C]-CA--CB-[CG] |==|  0.05316
USER: genes 10 Torsion [CA]-CB--CG-[CD2] |==|  0.18575
USER: genes 11 Torsion [N]-CA--CB-[CG] |==|  0.33265
USER: genes 12 Torsion [CA]-CB--CG-[CD] |==|  0.38800
USER: genes 13 Torsion [CB]-CG--CD-[NE] |==|  0.29061
USER: genes 14 Torsion [CG]-CD--NE-[CZ] |==|  0.40035
USER: genes 15 Torsion [N]-CA--C-[N] |==|  0.36792
USER: genes 16 Torsion [N]-CA--C-[O] |==|  0.88477
USER: genes 17 Torsion [C]-N--CA-[CB] |==|  0.29943
USER: genes 18 Torsion [N]-CA--CB-[CG] |==|  0.63822
USER: genes 19 Torsion [CA]-CB--CG-[CD2] |==|  0.11776
USER: genes 20 Torsion [N]-CA--C-[O] |==|  0.18830
ROOT
ATOM      1  CA  ARG X   4     -20.585  -9.808  34.769  1.00 29.51 LIG 0.18  C 
ENDROOT
BRANCH 1 2
ATOM      2  N   ARG X   4     -21.760 -10.672  34.686  1.00 29.26 LIG-0.35  N 
ATOM      3  C   TRP X   3     -22.581 -10.894  35.728  1.00 30.37 LIG 0.24  C 
ATOM      4 O    TRP X   3     -22.436 -10.359  36.848  1.00 30.38 LIG-0.27  OA
ATOM      5 H    ARG X   4     -21.877 -11.024  33.910  1.00 29.26 LIG 0.16  HD
BRANCH 3 6
ATOM      6  CA  TRP X   3     -23.762 -11.855  35.474  1.00 30.62 LIG 0.18  C 
BRANCH 6 7
ATOM      7  N   TRP X   3     -24.494 -11.533  34.237  1.00 31.45 LIG-0.34  N 
ATOM      8 H    TRP X   3     -24.007 -11.351  33.552  1.00 31.45 LIG 0.16  HD
ATOM      9  C   MET X   2     -25.825 -11.544  34.255  1.00 32.92 LIG 0.26  C 
ATOM     10 O    MET X   2     -26.461 -11.892  35.232  1.00 32.35 LIG-0.27  OA
BRANCH 9 11
ATOM     11  CA  MET X   2     -26.563 -11.152  33.005  1.00 34.28 LIG 0.40  C 
ATOM     12  N   MET X   2     -25.688 -11.286  31.774  1.00 35.36 LIG 0.61  N 
BRANCH 11 13
ATOM     13  CB  MET X   2     -27.795 -12.032  32.870  1.00 35.71 LIG 0.06  C 
BRANCH 13 14
ATOM     14  CG  MET X   2     -29.093 -11.351  33.210  1.00 37.62 LIG 0.08  C 
BRANCH 14 15
ATOM     15 SD   MET X   2     -29.623 -11.370  34.944  1.00 39.06 LIG-0.17  SA
ATOM     16  CE  MET X   2     -29.924 -13.146  35.200  1.00 45.88 LIG 0.09  C 
ENDBRANCH 14 15
ENDBRANCH 13 14
ENDBRANCH 11 13
ENDBRANCH 9 11
ENDBRANCH 6 7
BRANCH 6 17
ATOM     17  CB  TRP X   3     -23.303 -13.314  35.516  1.00 29.85 LIG 0.07  C 
BRANCH 17 18
ATOM     18  CG  TRP X   3     -21.986 -13.481  36.226  1.00 29.58 LIG-0.03  A 
ATOM     19  CD1 TRP X   3     -20.801 -13.869  35.661  1.00 26.84 LIG 0.10  A 
ATOM     20  NE1 TRP X   3     -19.825 -13.916  36.622  1.00 29.47 LIG-0.36  N 
ATOM     21 HE1  TRP X   3     -19.007 -14.141  36.486  1.00 29.47 LIG 0.17  HD
ATOM     22  CE2 TRP X   3     -20.355 -13.547  37.838  1.00 27.62 LIG 0.04  A 
ATOM     23  CZ2 TRP X   3     -19.743 -13.444  39.124  1.00 28.85 LIG 0.03  A 
ATOM     24  CD2 TRP X   3     -21.722 -13.265  37.628  1.00 25.33 LIG-0.00  A 
ATOM     25  CH2 TRP X   3     -20.548 -13.039  40.196  1.00 28.18 LIG 0.00  A 
ATOM     26  CZ3 TRP X   3     -21.915 -12.768  40.006  1.00 26.79 LIG 0.00  A 
ATOM     27  CE3 TRP X   3     -22.515 -12.894  38.726  1.00 25.86 LIG 0.01  A 
ENDBRANCH 17 18
ENDBRANCH 6 17
ENDBRANCH 3 6
ENDBRANCH 1 2
BRANCH 1 28
ATOM     28  CB  ARG X   4     -20.919  -8.456  35.434  1.00 29.55 LIG 0.04  C 
BRANCH 28 29
ATOM     29  CG  ARG X   4     -20.134  -8.169  36.711  1.00 28.17 LIG 0.02  C 
BRANCH 29 30
ATOM     30  CD  ARG X   4     -19.710  -6.693  36.756  1.00 27.09 LIG 0.14  C 
BRANCH 30 31
ATOM     31  NE  ARG X   4     -20.551  -5.967  37.703  1.00 25.46 LIG-0.23  N 
ATOM     32 HE   ARG X   4     -21.379  -6.189  37.766  1.00 25.46 LIG 0.18  HD
ATOM     33  CZ  ARG X   4     -20.100  -4.977  38.476  1.00 27.27 LIG 0.67  C 
ATOM     34  NH2 ARG X   4     -20.913  -4.358  39.327  1.00 24.12 LIG-0.23  N 
ATOM     35  NH1 ARG X   4     -18.827  -4.601  38.378  1.00 21.32 LIG-0.23  N 
ATOM     36 1HH2 ARG X   4     -21.737  -4.593  39.383  1.00 24.12 LIG 0.17  HD
ATOM     37 2HH2 ARG X   4     -20.613  -3.721  39.822  1.00 24.12 LIG 0.17  HD
ATOM     38 2HH1 ARG X   4     -18.528  -3.964  38.871  1.00 21.32 LIG 0.17  HD
ATOM     39 1HH1 ARG X   4     -18.304  -4.995  37.820  1.00 21.32 LIG 0.17  HD
ENDBRANCH 30 31
ENDBRANCH 29 30
ENDBRANCH 28 29
ENDBRANCH 1 28
BRANCH 1 40
ATOM     40  C   ARG X   4     -19.551 -10.520  35.602  1.00 30.38 LIG 0.24  C 
ATOM     41 O    ARG X   4     -19.883 -11.005  36.671  1.00 31.87 LIG-0.27  OA
ATOM     42  N   PRO X   5     -18.294 -10.572  35.134  1.00 30.60 LIG-0.34  N 
ATOM     43  CA  PRO X   5     -17.272 -11.413  35.797  1.00 31.31 LIG 0.18  C 
ATOM     44  CD  PRO X   5     -17.781  -9.893  33.913  1.00 29.99 LIG 0.13  C 
ATOM     45  CB  PRO X   5     -16.160 -11.495  34.746  1.00 30.70 LIG 0.04  C 
ATOM     46  CG  PRO X   5     -16.305 -10.196  33.900  1.00 29.42 LIG 0.02  C 
BRANCH 43 47
ATOM     47  C   PRO X   5     -16.673 -10.919  37.143  1.00 32.23 LIG 0.24  C 
ATOM     48 O    PRO X   5     -16.378  -9.695  37.299  1.00 32.23 LIG-0.27  OA
ATOM     49  N   TRP X   6     -16.514 -11.827  38.102  1.00 33.50 LIG-0.34  N 
ATOM     50 H    TRP X   6     -16.632 -12.672  37.992  1.00 33.50 LIG 0.16  HD
BRANCH 49 51
ATOM     51  CA  TRP X   6     -16.114 -11.433  39.459  1.00 34.66 LIG 0.19  C 
BRANCH 51 52
ATOM     52  CB  TRP X   6     -17.311 -11.578  40.421  1.00 34.41 LIG 0.08  C 
BRANCH 52 53
ATOM     53  CG  TRP X   6     -17.573 -10.357  41.283  1.00 32.39 LIG-0.03  A 
ATOM     54  CD2 TRP X   6     -17.540  -8.972  40.872  1.00 31.68 LIG-0.00  A 
ATOM     55  CE2 TRP X   6     -17.829  -8.197  42.014  1.00 33.29 LIG 0.04  A 
ATOM     56  CE3 TRP X   6     -17.308  -8.321  39.654  1.00 33.66 LIG 0.01  A 
ATOM     57  CZ2 TRP X   6     -17.917  -6.799  41.968  1.00 33.18 LIG 0.03  A 
ATOM     58  NE1 TRP X   6     -18.038  -9.066  43.058  1.00 30.87 LIG-0.36  N 
ATOM     59  CH2 TRP X   6     -17.689  -6.188  40.776  1.00 32.36 LIG 0.00  A 
ATOM     60  CZ3 TRP X   6     -17.369  -6.930  39.618  1.00 32.37 LIG 0.00  A 
ATOM     61 HE1  TRP X   6     -18.242  -8.840  43.862  1.00 30.87 LIG 0.17  HD
ATOM     62  CD1 TRP X   6     -17.868 -10.350  42.612  1.00 30.01 LIG 0.10  A 
ENDBRANCH 52 53
ENDBRANCH 51 52
BRANCH 51 63
ATOM     63  C   TRP X   6     -14.890 -12.214  39.978  1.00 36.76 LIG 0.20  C 
ATOM     64 O    TRP X   6     -13.738 -12.105  39.520  1.00 37.86 LIG-0.65  OA
ATOM     65 OXT  TRP X   6     -15.011 -13.030  40.899  1.00 39.11 LIG-0.65  OA
ENDBRANCH 51 63
ENDBRANCH 49 51
ENDBRANCH 43 47
ENDBRANCH 1 40
TORSDOF 19
ENDMDL
MODEL 67
USER: ADFR SOLUTION from run 200
USER: SCORE 18.217039 LL:  -4.692 LR: -14.004 RR:   0.000 FEB:  -8.337
USER: RMSD 9.020971
USER: SEED 199
USER: STATUS no improvement in best in 15 clusters for 5 generations
USER: GENES 21
USER: genes 0 Translation |==|  0.65721 0.69440 0.50760
USER: genes 1 Rotation |==|  0.20596 0.84713 0.42428 0.69315
USER: genes 2 Torsion [CB]-CA--N-[C] |==|  0.86560
USER: genes 3 Torsion [N]-C--CA-[N] |==|  0.36520
USER: genes 4 Torsion [C]-CA--N-[C] |==|  0.65025
USER: genes 5 Torsion [N]-C--CA-[N] |==|  0.47228
USER: genes 6 Torsion [C]-CA--CB-[CG] |==|  0.83699
USER: genes 7 Torsion [CA]-CB--CG-[SD] |==|  0.25635
USER: genes 8 Torsion [CB]-CG--SD-[CE] |==|  0.59714
USER: genes 9 Torsion [C]-CA--CB-[CG] |==|  0.28510
USER: genes 10 Torsion [CA]-CB--CG-[CD2] |==|  0.64235
USER: genes 11 Torsion [N]-CA--CB-[CG] |==|  0.88822
USER: genes 12 Torsion [CA]-CB--CG-[CD] |==|  0.81006
USER: genes 13 Torsion [CB]-CG--CD-[NE] |==|  0.23028
USER: genes 14 Torsion [CG]-CD--NE-[CZ] |==|  0.42934
USER: genes 15 Torsion [N]-CA--C-[N] |==|  0.41111
USER: genes 16 Torsion [N]-CA--C-[O] |==|  0.41065
USER: genes 17 Torsion [C]-N--CA-[CB] |==|  0.33654
USER: genes 18 Torsion [N]-CA--CB-[CG] |==|  0.81383
USER: genes 19 Torsion [CA]-CB--CG-[CD2] |==|  0.48609
USER: genes 20 Torsion [N]-CA--C-[O] |==|  0.96360
ROOT
ATOM      1  CA  ARG X   4     -18.064  -8.685  38.837  1.00 29.51 LIG 0.18  C 
ENDROOT
BRANCH 1 2
ATOM      2  N   ARG X   4     -19.064  -8.849  39.888  1.00 29.26 LIG-0.35  N 
ATOM      3  C   TRP X   3     -18.813  -9.489  41.045  1.00 30.37 LIG 0.24  C 
ATOM      4 O    TRP X   3     -17.699  -9.971  41.340  1.00 30.38 LIG-0.27  OA
ATOM      5 H    ARG X   4     -19.826  -8.498  39.699  1.00 29.26 LIG 0.16  HD
BRANCH 3 6
ATOM      6  CA  TRP X   3     -19.991  -9.594  42.036  1.00 30.62 LIG 0.18  C 
BRANCH 6 7
ATOM      7  N   TRP X   3     -20.176 -10.962  42.549  1.00 31.45 LIG-0.34  N 
ATOM      8 H    TRP X   3     -19.482 -11.324  42.904  1.00 31.45 LIG 0.16  HD
ATOM      9  C   MET X   2     -21.372 -11.537  42.435  1.00 32.92 LIG 0.26  C 
ATOM     10 O    MET X   2     -22.341 -10.944  41.998  1.00 32.35 LIG-0.27  OA
BRANCH 9 11
ATOM     11  CA  MET X   2     -21.534 -12.956  42.902  1.00 34.28 LIG 0.40  C 
ATOM     12  N   MET X   2     -22.992 -13.373  42.928  1.00 35.36 LIG 0.61  N 
BRANCH 11 13
ATOM     13  CB  MET X   2     -20.746 -13.867  41.976  1.00 35.71 LIG 0.06  C 
BRANCH 13 14
ATOM     14  CG  MET X   2     -21.154 -13.797  40.529  1.00 37.62 LIG 0.08  C 
BRANCH 14 15
ATOM     15 SD   MET X   2     -20.269 -12.628  39.462  1.00 39.06 LIG-0.17  SA
ATOM     16  CE  MET X   2     -21.604 -12.092  38.347  1.00 45.88 LIG 0.09  C 
ENDBRANCH 14 15
ENDBRANCH 13 14
ENDBRANCH 11 13
ENDBRANCH 9 11
ENDBRANCH 6 7
BRANCH 6 17
ATOM     17  CB  TRP X   3     -19.857  -8.564  43.160  1.00 29.85 LIG 0.07  C 
BRANCH 17 18
ATOM     18  CG  TRP X   3     -20.767  -7.382  42.966  1.00 29.58 LIG-0.03  A 
ATOM     19  CD1 TRP X   3     -22.113  -7.423  42.720  1.00 26.84 LIG 0.10  A 
ATOM     20  NE1 TRP X   3     -22.599  -6.148  42.593  1.00 29.47 LIG-0.36  N 
ATOM     21 HE1  TRP X   3     -23.418  -5.943  42.430  1.00 29.47 LIG 0.17  HD
ATOM     22  CE2 TRP X   3     -21.575  -5.244  42.767  1.00 27.62 LIG 0.04  A 
ATOM     23  CZ2 TRP X   3     -21.581  -3.817  42.726  1.00 28.85 LIG 0.03  A 
ATOM     24  CD2 TRP X   3     -20.399  -5.987  43.004  1.00 25.33 LIG-0.00  A 
ATOM     25  CH2 TRP X   3     -20.365  -3.155  42.940  1.00 28.18 LIG 0.00  A 
ATOM     26  CZ3 TRP X   3     -19.181  -3.882  43.164  1.00 26.79 LIG 0.00  A 
ATOM     27  CE3 TRP X   3     -19.187  -5.301  43.182  1.00 25.86 LIG 0.01  A 
ENDBRANCH 17 18
ENDBRANCH 6 17
ENDBRANCH 3 6
ENDBRANCH 1 2
BRANCH 1 28
ATOM     28  CB  ARG X   4     -16.724  -8.169  39.401  1.00 29.55 LIG 0.04  C 
BRANCH 28 29
ATOM     29  CG  ARG X   4     -16.864  -7.098  40.481  1.00 28.17 LIG 0.02  C 
BRANCH 29 30
ATOM     30  CD  ARG X   4     -17.413  -5.798  39.873  1.00 27.09 LIG 0.14  C 
BRANCH 30 31
ATOM     31  NE  ARG X   4     -18.867  -5.874  39.776  1.00 25.46 LIG-0.23  N 
ATOM     32 HE   ARG X   4     -19.232  -6.651  39.722  1.00 25.46 LIG 0.18  HD
ATOM     33  CZ  ARG X   4     -19.660  -4.800  39.767  1.00 27.27 LIG 0.67  C 
ATOM     34  NH2 ARG X   4     -20.981  -4.933  39.685  1.00 24.12 LIG-0.23  N 
ATOM     35  NH1 ARG X   4     -19.115  -3.587  39.825  1.00 21.32 LIG-0.23  N 
ATOM     36 1HH2 ARG X   4     -21.332  -5.716  39.637  1.00 24.12 LIG 0.17  HD
ATOM     37 2HH2 ARG X   4     -21.484  -4.235  39.681  1.00 24.12 LIG 0.17  HD
ATOM     38 2HH1 ARG X   4     -19.618  -2.890  39.819  1.00 21.32 LIG 0.17  HD
ATOM     39 1HH1 ARG X   4     -18.261  -3.501  39.867  1.00 21.32 LIG 0.17  HD
ENDBRANCH 30 31
ENDBRANCH 29 30
ENDBRANCH 28 29
ENDBRANCH 1 28
BRANCH 1 40
ATOM     40  C   ARG X   4     -17.839 -10.034  38.203  1.00 30.38 LIG 0.24  C 
ATOM     41 O    ARG X   4     -17.931 -11.036  38.895  1.00 31.87 LIG-0.27  OA
ATOM     42  N   PRO X   5     -17.527 -10.072  36.899  1.00 30.60 LIG-0.34  N 
ATOM     43  CA  PRO X   5     -17.482 -11.358  36.166  1.00 31.31 LIG 0.18  C 
ATOM     44  CD  PRO X   5     -17.264  -8.897  36.023  1.00 29.99 LIG 0.13  C 
ATOM     45  CB  PRO X   5     -17.497 -10.918  34.699  1.00 30.70 LIG 0.04  C 
ATOM     46  CG  PRO X   5     -16.869  -9.493  34.696  1.00 29.42 LIG 0.02  C 
BRANCH 43 47
ATOM     47  C   PRO X   5     -16.270 -12.300  36.409  1.00 32.23 LIG 0.24  C 
ATOM     48 O    PRO X   5     -16.418 -13.558  36.346  1.00 32.23 LIG-0.27  OA
ATOM     49  N   TRP X   6     -15.098 -11.723  36.658  1.00 33.50 LIG-0.34  N 
ATOM     50 H    TRP X   6     -14.991 -10.878  36.785  1.00 33.50 LIG 0.16  HD
BRANCH 49 51
ATOM     51  CA  TRP X   6     -13.864 -12.517  36.737  1.00 34.66 LIG 0.19  C 
BRANCH 51 52
ATOM     52  CB  TRP X   6     -12.852 -12.016  35.687  1.00 34.41 LIG 0.08  C 
BRANCH 52 53
ATOM     53  CG  TRP X   6     -13.269 -12.261  34.249  1.00 32.39 LIG-0.03  A 
ATOM     54  CD2 TRP X   6     -12.589 -11.822  33.052  1.00 31.68 LIG-0.00  A 
ATOM     55  CE2 TRP X   6     -13.355 -12.267  31.956  1.00 33.29 LIG 0.04  A 
ATOM     56  CE3 TRP X   6     -11.407 -11.111  32.807  1.00 33.66 LIG 0.01  A 
ATOM     57  CZ2 TRP X   6     -12.963 -12.045  30.628  1.00 33.18 LIG 0.03  A 
ATOM     58  NE1 TRP X   6     -14.436 -12.949  32.460  1.00 30.87 LIG-0.36  N 
ATOM     59  CH2 TRP X   6     -11.813 -11.355  30.414  1.00 32.36 LIG 0.00  A 
ATOM     60  CZ3 TRP X   6     -11.035 -10.870  31.487  1.00 32.37 LIG 0.00  A 
ATOM     61 HE1  TRP X   6     -15.049 -13.330  31.992  1.00 30.87 LIG 0.17  HD
ATOM     62  CD1 TRP X   6     -14.381 -12.926  33.828  1.00 30.01 LIG 0.10  A 
ENDBRANCH 52 53
ENDBRANCH 51 52
BRANCH 51 63
ATOM     63  C   TRP X   6     -13.241 -12.525  38.148  1.00 36.76 LIG 0.20  C 
ATOM     64 O    TRP X   6     -13.570 -11.756  39.068  1.00 37.86 LIG-0.65  OA
ATOM     65 OXT  TRP X   6     -12.335 -13.318  38.428  1.00 39.11 LIG-0.65  OA
ENDBRANCH 51 63
ENDBRANCH 49 51
ENDBRANCH 43 47
ENDBRANCH 1 40
TORSDOF 19
ENDMDL
MODEL 68
USER: ADFR SOLUTION from run 66
USER: SCORE 18.342934 LL:  -5.443 LR: -13.998 RR:   0.000 FEB:  -8.330
USER: RMSD 6.396458
USER: SEED 65
USER: STATUS no improvement in best in 8 clusters for 5 generations
USER: GENES 21
USER: genes 0 Translation |==|  0.52195 0.59822 0.40520
USER: genes 1 Rotation |==|  0.71084 0.23165 0.48077 0.86491
USER: genes 2 Torsion [CB]-CA--N-[C] |==|  0.53521
USER: genes 3 Torsion [N]-C--CA-[N] |==|  0.94491
USER: genes 4 Torsion [C]-CA--N-[C] |==|  0.79996
USER: genes 5 Torsion [N]-C--CA-[N] |==|  0.45144
USER: genes 6 Torsion [C]-CA--CB-[CG] |==|  0.56248
USER: genes 7 Torsion [CA]-CB--CG-[SD] |==|  0.72371
USER: genes 8 Torsion [CB]-CG--SD-[CE] |==|  0.42651
USER: genes 9 Torsion [C]-CA--CB-[CG] |==|  0.22962
USER: genes 10 Torsion [CA]-CB--CG-[CD2] |==|  0.63513
USER: genes 11 Torsion [N]-CA--CB-[CG] |==|  0.99493
USER: genes 12 Torsion [CA]-CB--CG-[CD] |==|  0.57978
USER: genes 13 Torsion [CB]-CG--CD-[NE] |==|  0.45426
USER: genes 14 Torsion [CG]-CD--NE-[CZ] |==|  0.58626
USER: genes 15 Torsion [N]-CA--C-[N] |==|  0.83014
USER: genes 16 Torsion [N]-CA--C-[O] |==|  0.43011
USER: genes 17 Torsion [C]-N--CA-[CB] |==|  0.82856
USER: genes 18 Torsion [N]-CA--CB-[CG] |==|  0.73658
USER: genes 19 Torsion [CA]-CB--CG-[CD2] |==|  0.29900
USER: genes 20 Torsion [N]-CA--C-[O] |==|  0.09313
ROOT
ATOM      1  CA  ARG X   4     -20.904 -10.561  36.917  1.00 29.51 LIG 0.18  C 
ENDROOT
BRANCH 1 2
ATOM      2  N   ARG X   4     -19.799  -9.650  36.630  1.00 29.26 LIG-0.35  N 
ATOM      3  C   TRP X   3     -19.099  -9.020  37.592  1.00 30.37 LIG 0.24  C 
ATOM      4 O    TRP X   3     -19.305  -9.182  38.814  1.00 30.38 LIG-0.27  OA
ATOM      5 H    ARG X   4     -19.638  -9.553  35.791  1.00 29.26 LIG 0.16  HD
BRANCH 3 6
ATOM      6  CA  TRP X   3     -17.980  -8.072  37.113  1.00 30.62 LIG 0.18  C 
BRANCH 6 7
ATOM      7  N   TRP X   3     -17.555  -8.355  35.731  1.00 31.45 LIG-0.34  N 
ATOM      8 H    TRP X   3     -17.796  -7.777  35.141  1.00 31.45 LIG 0.16  HD
ATOM      9  C   MET X   2     -16.845  -9.455  35.488  1.00 32.92 LIG 0.26  C 
ATOM     10 O    MET X   2     -16.462 -10.193  36.377  1.00 32.35 LIG-0.27  OA
BRANCH 9 11
ATOM     11  CA  MET X   2     -16.471  -9.769  34.066  1.00 34.28 LIG 0.40  C 
ATOM     12  N   MET X   2     -15.340 -10.776  33.994  1.00 35.36 LIG 0.61  N 
BRANCH 11 13
ATOM     13  CB  MET X   2     -17.698 -10.307  33.347  1.00 35.71 LIG 0.06  C 
BRANCH 13 14
ATOM     14  CG  MET X   2     -17.397 -11.142  32.132  1.00 37.62 LIG 0.08  C 
BRANCH 14 15
ATOM     15 SD   MET X   2     -17.529 -10.343  30.510  1.00 39.06 LIG-0.17  SA
ATOM     16  CE  MET X   2     -16.368 -11.345  29.530  1.00 45.88 LIG 0.09  C 
ENDBRANCH 14 15
ENDBRANCH 13 14
ENDBRANCH 11 13
ENDBRANCH 9 11
ENDBRANCH 6 7
BRANCH 6 17
ATOM     17  CB  TRP X   3     -18.378  -6.608  37.311  1.00 29.85 LIG 0.07  C 
BRANCH 17 18
ATOM     18  CG  TRP X   3     -18.126  -6.130  38.715  1.00 29.58 LIG-0.03  A 
ATOM     19  CD1 TRP X   3     -16.973  -6.293  39.436  1.00 26.84 LIG 0.10  A 
ATOM     20  NE1 TRP X   3     -17.121  -5.733  40.677  1.00 29.47 LIG-0.36  N 
ATOM     21 HE1  TRP X   3     -16.521  -5.727  41.293  1.00 29.47 LIG 0.17  HD
ATOM     22  CE2 TRP X   3     -18.377  -5.180  40.788  1.00 27.62 LIG 0.04  A 
ATOM     23  CZ2 TRP X   3     -18.995  -4.494  41.877  1.00 28.85 LIG 0.03  A 
ATOM     24  CD2 TRP X   3     -19.044  -5.413  39.567  1.00 25.33 LIG-0.00  A 
ATOM     25  CH2 TRP X   3     -20.308  -4.039  41.698  1.00 28.18 LIG 0.00  A 
ATOM     26  CZ3 TRP X   3     -20.991  -4.275  40.491  1.00 26.79 LIG 0.00  A 
ATOM     27  CE3 TRP X   3     -20.371  -4.976  39.424  1.00 25.86 LIG 0.01  A 
ENDBRANCH 17 18
ENDBRANCH 6 17
ENDBRANCH 3 6
ENDBRANCH 1 2
BRANCH 1 28
ATOM     28  CB  ARG X   4     -21.313 -11.370  35.668  1.00 29.55 LIG 0.04  C 
BRANCH 28 29
ATOM     29  CG  ARG X   4     -20.525 -11.026  34.407  1.00 28.17 LIG 0.02  C 
BRANCH 29 30
ATOM     30  CD  ARG X   4     -21.382 -11.279  33.157  1.00 27.09 LIG 0.14  C 
BRANCH 30 31
ATOM     31  NE  ARG X   4     -20.792 -10.598  32.008  1.00 25.46 LIG-0.23  N 
ATOM     32 HE   ARG X   4     -19.938 -10.504  31.984  1.00 25.46 LIG 0.18  HD
ATOM     33  CZ  ARG X   4     -21.511 -10.114  30.994  1.00 27.27 LIG 0.67  C 
ATOM     34  NH2 ARG X   4     -20.917  -9.509  29.969  1.00 24.12 LIG-0.23  N 
ATOM     35  NH1 ARG X   4     -22.837 -10.225  31.022  1.00 21.32 LIG-0.23  N 
ATOM     36 1HH2 ARG X   4     -20.062  -9.427  29.955  1.00 24.12 LIG 0.17  HD
ATOM     37 2HH2 ARG X   4     -21.389  -9.200  29.319  1.00 24.12 LIG 0.17  HD
ATOM     38 2HH1 ARG X   4     -23.308  -9.916  30.373  1.00 21.32 LIG 0.17  HD
ATOM     39 1HH1 ARG X   4     -23.222 -10.607  31.689  1.00 21.32 LIG 0.17  HD
ENDBRANCH 30 31
ENDBRANCH 29 30
ENDBRANCH 28 29
ENDBRANCH 1 28
BRANCH 1 40
ATOM     40  C   ARG X   4     -20.444 -11.515  37.989  1.00 30.38 LIG 0.24  C 
ATOM     41 O    ARG X   4     -21.025 -11.524  39.062  1.00 31.87 LIG-0.27  OA
ATOM     42  N   PRO X   5     -19.394 -12.305  37.718  1.00 30.60 LIG-0.34  N 
ATOM     43  CA  PRO X   5     -19.007 -13.396  38.642  1.00 31.31 LIG 0.18  C 
ATOM     44  CD  PRO X   5     -18.552 -12.260  36.491  1.00 29.99 LIG 0.13  C 
ATOM     45  CB  PRO X   5     -18.074 -14.257  37.786  1.00 30.70 LIG 0.04  C 
ATOM     46  CG  PRO X   5     -17.469 -13.279  36.736  1.00 29.42 LIG 0.02  C 
BRANCH 43 47
ATOM     47  C   PRO X   5     -18.288 -13.016  39.966  1.00 32.23 LIG 0.24  C 
ATOM     48 O    PRO X   5     -18.358 -13.785  40.972  1.00 32.23 LIG-0.27  OA
ATOM     49  N   TRP X   6     -17.597 -11.880  39.973  1.00 33.50 LIG-0.34  N 
ATOM     50 H    TRP X   6     -17.601 -11.307  39.331  1.00 33.50 LIG 0.16  HD
BRANCH 49 51
ATOM     51  CA  TRP X   6     -16.749 -11.516  41.116  1.00 34.66 LIG 0.19  C 
BRANCH 51 52
ATOM     52  CB  TRP X   6     -17.616 -11.370  42.384  1.00 34.41 LIG 0.08  C 
BRANCH 52 53
ATOM     53  CG  TRP X   6     -18.062  -9.950  42.676  1.00 32.39 LIG-0.03  A 
ATOM     54  CD2 TRP X   6     -19.391  -9.402  42.530  1.00 31.68 LIG-0.00  A 
ATOM     55  CE2 TRP X   6     -19.320  -8.044  42.901  1.00 33.29 LIG 0.04  A 
ATOM     56  CE3 TRP X   6     -20.627  -9.932  42.136  1.00 33.66 LIG 0.01  A 
ATOM     57  CZ2 TRP X   6     -20.447  -7.210  42.914  1.00 33.18 LIG 0.03  A 
ATOM     58  NE1 TRP X   6     -18.021  -7.785  43.264  1.00 30.87 LIG-0.36  N 
ATOM     59  CH2 TRP X   6     -21.636  -7.745  42.529  1.00 32.36 LIG 0.00  A 
ATOM     60  CZ3 TRP X   6     -21.739  -9.094  42.124  1.00 32.37 LIG 0.00  A 
ATOM     61 HE1  TRP X   6     -17.722  -7.028  43.542  1.00 30.87 LIG 0.17  HD
ATOM     62  CD1 TRP X   6     -17.278  -8.925  43.112  1.00 30.01 LIG 0.10  A 
ENDBRANCH 52 53
ENDBRANCH 51 52
BRANCH 51 63
ATOM     63  C   TRP X   6     -15.591 -12.507  41.349  1.00 36.76 LIG 0.20  C 
ATOM     64 O    TRP X   6     -14.993 -13.118  40.445  1.00 37.86 LIG-0.65  OA
ATOM     65 OXT  TRP X   6     -15.204 -12.762  42.495  1.00 39.11 LIG-0.65  OA
ENDBRANCH 51 63
ENDBRANCH 49 51
ENDBRANCH 43 47
ENDBRANCH 1 40
TORSDOF 19
ENDMDL
MODEL 69
USER: ADFR SOLUTION from run 101
USER: SCORE 18.505188 LL:  -5.324 LR: -13.973 RR:   0.000 FEB:  -8.306
USER: RMSD 5.790989
USER: SEED 100
USER: STATUS no improvement in best in 7 clusters for 5 generations
USER: GENES 21
USER: genes 0 Translation |==|  0.54865 0.66208 0.29297
USER: genes 1 Rotation |==|  0.19895 0.48879 0.23537 0.79869
USER: genes 2 Torsion [CB]-CA--N-[C] |==|  0.55000
USER: genes 3 Torsion [N]-C--CA-[N] |==|  0.94245
USER: genes 4 Torsion [C]-CA--N-[C] |==|  0.66465
USER: genes 5 Torsion [N]-C--CA-[N] |==|  0.17961
USER: genes 6 Torsion [C]-CA--CB-[CG] |==|  0.59857
USER: genes 7 Torsion [CA]-CB--CG-[SD] |==|  0.28753
USER: genes 8 Torsion [CB]-CG--SD-[CE] |==|  0.35825
USER: genes 9 Torsion [C]-CA--CB-[CG] |==|  0.90766
USER: genes 10 Torsion [CA]-CB--CG-[CD2] |==|  0.24985
USER: genes 11 Torsion [N]-CA--CB-[CG] |==|  0.52950
USER: genes 12 Torsion [CA]-CB--CG-[CD] |==|  0.66008
USER: genes 13 Torsion [CB]-CG--CD-[NE] |==|  0.32764
USER: genes 14 Torsion [CG]-CD--NE-[CZ] |==|  0.35360
USER: genes 15 Torsion [N]-CA--C-[N] |==|  0.31845
USER: genes 16 Torsion [N]-CA--C-[O] |==|  0.96528
USER: genes 17 Torsion [C]-N--CA-[CB] |==|  0.22346
USER: genes 18 Torsion [N]-CA--CB-[CG] |==|  0.62383
USER: genes 19 Torsion [CA]-CB--CG-[CD2] |==|  0.29456
USER: genes 20 Torsion [N]-CA--C-[O] |==|  0.54184
ROOT
ATOM      1  CA  ARG X   4     -20.343  -9.315  34.812  1.00 29.51 LIG 0.18  C 
ENDROOT
BRANCH 1 2
ATOM      2  N   ARG X   4     -21.346 -10.247  34.304  1.00 29.26 LIG-0.35  N 
ATOM      3  C   TRP X   3     -21.097 -11.554  34.100  1.00 30.37 LIG 0.24  C 
ATOM      4 O    TRP X   3     -20.001 -12.096  34.358  1.00 30.38 LIG-0.27  OA
ATOM      5 H    ARG X   4     -22.110  -9.883  34.147  1.00 29.26 LIG 0.16  HD
BRANCH 3 6
ATOM      6  CA  TRP X   3     -22.263 -12.391  33.534  1.00 30.62 LIG 0.18  C 
BRANCH 6 7
ATOM      7  N   TRP X   3     -23.573 -11.758  33.759  1.00 31.45 LIG-0.34  N 
ATOM      8 H    TRP X   3     -23.673 -10.976  33.416  1.00 31.45 LIG 0.16  HD
ATOM      9  C   MET X   2     -24.495 -12.416  34.460  1.00 32.92 LIG 0.26  C 
ATOM     10 O    MET X   2     -24.326 -13.556  34.849  1.00 32.35 LIG-0.27  OA
BRANCH 9 11
ATOM     11  CA  MET X   2     -25.806 -11.735  34.739  1.00 34.28 LIG 0.40  C 
ATOM     12  N   MET X   2     -26.582 -11.473  33.464  1.00 35.36 LIG 0.61  N 
BRANCH 11 13
ATOM     13  CB  MET X   2     -26.620 -12.612  35.677  1.00 35.71 LIG 0.06  C 
BRANCH 13 14
ATOM     14  CG  MET X   2     -28.104 -12.591  35.425  1.00 37.62 LIG 0.08  C 
BRANCH 14 15
ATOM     15 SD   MET X   2     -28.832 -14.020  34.578  1.00 39.06 LIG-0.17  SA
ATOM     16  CE  MET X   2     -30.203 -14.433  35.702  1.00 45.88 LIG 0.09  C 
ENDBRANCH 14 15
ENDBRANCH 13 14
ENDBRANCH 11 13
ENDBRANCH 9 11
ENDBRANCH 6 7
BRANCH 6 17
ATOM     17  CB  TRP X   3     -22.028 -12.736  32.062  1.00 29.85 LIG 0.07  C 
BRANCH 17 18
ATOM     18  CG  TRP X   3     -21.289 -11.649  31.329  1.00 29.58 LIG-0.03  A 
ATOM     19  CD1 TRP X   3     -21.847 -10.588  30.669  1.00 26.84 LIG 0.10  A 
ATOM     20  NE1 TRP X   3     -20.859  -9.815  30.117  1.00 29.47 LIG-0.36  N 
ATOM     21 HE1  TRP X   3     -20.988  -9.102  29.654  1.00 29.47 LIG 0.17  HD
ATOM     22  CE2 TRP X   3     -19.628 -10.354  30.418  1.00 27.62 LIG 0.04  A 
ATOM     23  CZ2 TRP X   3     -18.314  -9.917  30.070  1.00 28.85 LIG 0.03  A 
ATOM     24  CD2 TRP X   3     -19.859 -11.517  31.183  1.00 25.33 LIG-0.00  A 
ATOM     25  CH2 TRP X   3     -17.233 -10.684  30.524  1.00 28.18 LIG 0.00  A 
ATOM     26  CZ3 TRP X   3     -17.447 -11.853  31.276  1.00 26.79 LIG 0.00  A 
ATOM     27  CE3 TRP X   3     -18.760 -12.286  31.597  1.00 25.86 LIG 0.01  A 
ENDBRANCH 17 18
ENDBRANCH 6 17
ENDBRANCH 3 6
ENDBRANCH 1 2
BRANCH 1 28
ATOM     28  CB  ARG X   4     -20.990  -8.027  35.363  1.00 29.55 LIG 0.04  C 
BRANCH 28 29
ATOM     29  CG  ARG X   4     -20.001  -6.907  35.675  1.00 28.17 LIG 0.02  C 
BRANCH 29 30
ATOM     30  CD  ARG X   4     -20.117  -6.490  37.149  1.00 27.09 LIG 0.14  C 
BRANCH 30 31
ATOM     31  NE  ARG X   4     -18.851  -6.741  37.833  1.00 25.46 LIG-0.23  N 
ATOM     32 HE   ARG X   4     -18.506  -7.526  37.776  1.00 25.46 LIG 0.18  HD
ATOM     33  CZ  ARG X   4     -18.204  -5.815  38.542  1.00 27.27 LIG 0.67  C 
ATOM     34  NH2 ARG X   4     -17.049  -6.100  39.137  1.00 24.12 LIG-0.23  N 
ATOM     35  NH1 ARG X   4     -18.732  -4.599  38.664  1.00 21.32 LIG-0.23  N 
ATOM     36 1HH2 ARG X   4     -16.712  -6.888  39.067  1.00 24.12 LIG 0.17  HD
ATOM     37 2HH2 ARG X   4     -16.638  -5.496  39.591  1.00 24.12 LIG 0.17  HD
ATOM     38 2HH1 ARG X   4     -18.322  -3.996  39.120  1.00 21.32 LIG 0.17  HD
ATOM     39 1HH1 ARG X   4     -19.484  -4.418  38.288  1.00 21.32 LIG 0.17  HD
ENDBRANCH 30 31
ENDBRANCH 29 30
ENDBRANCH 28 29
ENDBRANCH 1 28
BRANCH 1 40
ATOM     40  C   ARG X   4     -19.601 -10.005  35.928  1.00 30.38 LIG 0.24  C 
ATOM     41 O    ARG X   4     -20.199 -10.280  36.956  1.00 31.87 LIG-0.27  OA
ATOM     42  N   PRO X   5     -18.298 -10.271  35.745  1.00 30.60 LIG-0.34  N 
ATOM     43  CA  PRO X   5     -17.554 -11.112  36.710  1.00 31.31 LIG 0.18  C 
ATOM     44  CD  PRO X   5     -17.469  -9.849  34.584  1.00 29.99 LIG 0.13  C 
ATOM     45  CB  PRO X   5     -16.284 -11.480  35.936  1.00 30.70 LIG 0.04  C 
ATOM     46  CG  PRO X   5     -16.076 -10.317  34.921  1.00 29.42 LIG 0.02  C 
BRANCH 43 47
ATOM     47  C   PRO X   5     -17.161 -10.490  38.078  1.00 32.23 LIG 0.24  C 
ATOM     48 O    PRO X   5     -17.261  -9.239  38.262  1.00 32.23 LIG-0.27  OA
ATOM     49  N   TRP X   6     -16.747 -11.327  39.025  1.00 33.50 LIG-0.34  N 
ATOM     50 H    TRP X   6     -16.596 -12.165  38.898  1.00 33.50 LIG 0.16  HD
BRANCH 49 51
ATOM     51  CA  TRP X   6     -16.512 -10.861  40.398  1.00 34.66 LIG 0.19  C 
BRANCH 51 52
ATOM     52  CB  TRP X   6     -17.853 -10.768  41.156  1.00 34.41 LIG 0.08  C 
BRANCH 52 53
ATOM     53  CG  TRP X   6     -18.023  -9.501  41.973  1.00 32.39 LIG-0.03  A 
ATOM     54  CD2 TRP X   6     -18.865  -8.368  41.666  1.00 31.68 LIG-0.00  A 
ATOM     55  CE2 TRP X   6     -18.682  -7.427  42.700  1.00 33.29 LIG 0.04  A 
ATOM     56  CE3 TRP X   6     -19.759  -8.068  40.630  1.00 33.66 LIG 0.01  A 
ATOM     57  CZ2 TRP X   6     -19.382  -6.213  42.741  1.00 33.18 LIG 0.03  A 
ATOM     58  NE1 TRP X   6     -17.786  -7.965  43.591  1.00 30.87 LIG-0.36  N 
ATOM     59  CH2 TRP X   6     -20.245  -5.943  41.727  1.00 32.36 LIG 0.00  A 
ATOM     60  CZ3 TRP X   6     -20.433  -6.850  40.660  1.00 32.37 LIG 0.00  A 
ATOM     61 HE1  TRP X   6     -17.517  -7.590  44.317  1.00 30.87 LIG 0.17  HD
ATOM     62  CD1 TRP X   6     -17.389  -9.195  43.139  1.00 30.01 LIG 0.10  A 
ENDBRANCH 52 53
ENDBRANCH 51 52
BRANCH 51 63
ATOM     63  C   TRP X   6     -15.502 -11.735  41.168  1.00 36.76 LIG 0.20  C 
ATOM     64 O    TRP X   6     -15.342 -11.710  42.401  1.00 37.86 LIG-0.65  OA
ATOM     65 OXT  TRP X   6     -14.761 -12.519  40.562  1.00 39.11 LIG-0.65  OA
ENDBRANCH 51 63
ENDBRANCH 49 51
ENDBRANCH 43 47
ENDBRANCH 1 40
TORSDOF 19
ENDMDL
MODEL 70
USER: ADFR SOLUTION from run 181
USER: SCORE 18.928901 LL:  -6.146 LR: -13.969 RR:   0.000 FEB:  -8.302
USER: RMSD 4.200283
USER: SEED 180
USER: STATUS no improvement in best in 11 clusters for 5 generations
USER: GENES 21
USER: genes 0 Translation |==|  0.56212 0.58725 0.48026
USER: genes 1 Rotation |==|  0.62843 0.35990 0.64278 0.93988
USER: genes 2 Torsion [CB]-CA--N-[C] |==|  0.26843
USER: genes 3 Torsion [N]-C--CA-[N] |==|  0.36426
USER: genes 4 Torsion [C]-CA--N-[C] |==|  0.78630
USER: genes 5 Torsion [N]-C--CA-[N] |==|  0.07165
USER: genes 6 Torsion [C]-CA--CB-[CG] |==|  0.79879
USER: genes 7 Torsion [CA]-CB--CG-[SD] |==|  0.35264
USER: genes 8 Torsion [CB]-CG--SD-[CE] |==|  0.76037
USER: genes 9 Torsion [C]-CA--CB-[CG] |==|  0.07890
USER: genes 10 Torsion [CA]-CB--CG-[CD2] |==|  0.17099
USER: genes 11 Torsion [N]-CA--CB-[CG] |==|  0.61245
USER: genes 12 Torsion [CA]-CB--CG-[CD] |==|  0.21127
USER: genes 13 Torsion [CB]-CG--CD-[NE] |==|  0.54143
USER: genes 14 Torsion [CG]-CD--NE-[CZ] |==|  0.77362
USER: genes 15 Torsion [N]-CA--C-[N] |==|  0.37223
USER: genes 16 Torsion [N]-CA--C-[O] |==|  0.56071
USER: genes 17 Torsion [C]-N--CA-[CB] |==|  0.24301
USER: genes 18 Torsion [N]-CA--CB-[CG] |==|  0.12937
USER: genes 19 Torsion [CA]-CB--CG-[CD2] |==|  0.67915
USER: genes 20 Torsion [N]-CA--C-[O] |==|  0.13281
ROOT
ATOM      1  CA  ARG X   4     -20.060 -10.775  38.324  1.00 29.51 LIG 0.18  C 
ENDROOT
BRANCH 1 2
ATOM      2  N   ARG X   4     -19.679  -9.997  37.148  1.00 29.26 LIG-0.35  N 
ATOM      3  C   TRP X   3     -20.576  -9.464  36.299  1.00 30.37 LIG 0.24  C 
ATOM      4 O    TRP X   3     -21.813  -9.553  36.455  1.00 30.38 LIG-0.27  OA
ATOM      5 H    ARG X   4     -18.829  -9.912  37.049  1.00 29.26 LIG 0.16  HD
BRANCH 3 6
ATOM      6  CA  TRP X   3     -20.001  -8.693  35.093  1.00 30.62 LIG 0.18  C 
BRANCH 6 7
ATOM      7  N   TRP X   3     -20.615  -9.101  33.818  1.00 31.45 LIG-0.34  N 
ATOM      8 H    TRP X   3     -21.200  -8.560  33.495  1.00 31.45 LIG 0.16  HD
ATOM      9  C   MET X   2     -20.238 -10.250  33.260  1.00 32.92 LIG 0.26  C 
ATOM     10 O    MET X   2     -19.344 -10.935  33.720  1.00 32.35 LIG-0.27  OA
BRANCH 9 11
ATOM     11  CA  MET X   2     -20.917 -10.689  31.992  1.00 34.28 LIG 0.40  C 
ATOM     12  N   MET X   2     -21.467  -9.510  31.216  1.00 35.36 LIG 0.61  N 
BRANCH 11 13
ATOM     13  CB  MET X   2     -19.915 -11.454  31.142  1.00 35.71 LIG 0.06  C 
BRANCH 13 14
ATOM     14  CG  MET X   2     -18.854 -10.600  30.503  1.00 37.62 LIG 0.08  C 
BRANCH 14 15
ATOM     15 SD   MET X   2     -17.123 -11.071  30.770  1.00 39.06 LIG-0.17  SA
ATOM     16  CE  MET X   2     -16.769 -10.228  32.344  1.00 45.88 LIG 0.09  C 
ENDBRANCH 14 15
ENDBRANCH 13 14
ENDBRANCH 11 13
ENDBRANCH 9 11
ENDBRANCH 6 7
BRANCH 6 17
ATOM     17  CB  TRP X   3     -20.078  -7.181  35.318  1.00 29.85 LIG 0.07  C 
BRANCH 17 18
ATOM     18  CG  TRP X   3     -20.020  -6.815  36.777  1.00 29.58 LIG-0.03  A 
ATOM     19  CD1 TRP X   3     -20.990  -6.167  37.492  1.00 26.84 LIG 0.10  A 
ATOM     20  NE1 TRP X   3     -20.576  -6.002  38.788  1.00 29.47 LIG-0.36  N 
ATOM     21 HE1  TRP X   3     -21.030  -5.613  39.407  1.00 29.47 LIG 0.17  HD
ATOM     22  CE2 TRP X   3     -19.325  -6.552  38.947  1.00 27.62 LIG 0.04  A 
ATOM     23  CZ2 TRP X   3     -18.484  -6.627  40.099  1.00 28.85 LIG 0.03  A 
ATOM     24  CD2 TRP X   3     -18.938  -7.075  37.695  1.00 25.33 LIG-0.00  A 
ATOM     25  CH2 TRP X   3     -17.240  -7.254  39.956  1.00 28.18 LIG 0.00  A 
ATOM     26  CZ3 TRP X   3     -16.834  -7.770  38.711  1.00 26.79 LIG 0.00  A 
ATOM     27  CE3 TRP X   3     -17.672  -7.671  37.570  1.00 25.86 LIG 0.01  A 
ENDBRANCH 17 18
ENDBRANCH 6 17
ENDBRANCH 3 6
ENDBRANCH 1 2
BRANCH 1 28
ATOM     28  CB  ARG X   4     -20.021 -12.291  38.041  1.00 29.55 LIG 0.04  C 
BRANCH 28 29
ATOM     29  CG  ARG X   4     -21.176 -13.078  38.655  1.00 28.17 LIG 0.02  C 
BRANCH 29 30
ATOM     30  CD  ARG X   4     -22.460 -12.862  37.841  1.00 27.09 LIG 0.14  C 
BRANCH 30 31
ATOM     31  NE  ARG X   4     -23.615 -13.314  38.612  1.00 25.46 LIG-0.23  N 
ATOM     32 HE   ARG X   4     -24.076 -12.727  39.038  1.00 25.46 LIG 0.18  HD
ATOM     33  CZ  ARG X   4     -23.990 -14.592  38.691  1.00 27.27 LIG 0.67  C 
ATOM     34  NH2 ARG X   4     -25.057 -14.944  39.403  1.00 24.12 LIG-0.23  N 
ATOM     35  NH1 ARG X   4     -23.276 -15.522  38.061  1.00 21.32 LIG-0.23  N 
ATOM     36 1HH2 ARG X   4     -25.512 -14.345  39.819  1.00 24.12 LIG 0.17  HD
ATOM     37 2HH2 ARG X   4     -25.292 -15.770  39.447  1.00 24.12 LIG 0.17  HD
ATOM     38 2HH1 ARG X   4     -23.510 -16.348  38.106  1.00 21.32 LIG 0.17  HD
ATOM     39 1HH1 ARG X   4     -22.580 -15.296  37.608  1.00 21.32 LIG 0.17  HD
ENDBRANCH 30 31
ENDBRANCH 29 30
ENDBRANCH 28 29
ENDBRANCH 1 28
BRANCH 1 40
ATOM     40  C   ARG X   4     -19.078 -10.457  39.422  1.00 30.38 LIG 0.24  C 
ATOM     41 O    ARG X   4     -17.885 -10.461  39.169  1.00 31.87 LIG-0.27  OA
ATOM     42  N   PRO X   5     -19.566 -10.199  40.646  1.00 30.60 LIG-0.34  N 
ATOM     43  CA  PRO X   5     -18.685  -9.694  41.722  1.00 31.31 LIG 0.18  C 
ATOM     44  CD  PRO X   5     -20.990 -10.307  41.066  1.00 29.99 LIG 0.13  C 
ATOM     45  CB  PRO X   5     -19.679  -9.170  42.763  1.00 30.70 LIG 0.04  C 
ATOM     46  CG  PRO X   5     -20.974 -10.006  42.542  1.00 29.42 LIG 0.02  C 
BRANCH 43 47
ATOM     47  C   PRO X   5     -17.706 -10.692  42.401  1.00 32.23 LIG 0.24  C 
ATOM     48 O    PRO X   5     -17.247 -10.448  43.557  1.00 32.23 LIG-0.27  OA
ATOM     49  N   TRP X   6     -17.406 -11.796  41.724  1.00 33.50 LIG-0.34  N 
ATOM     50 H    TRP X   6     -17.641 -11.944  40.909  1.00 33.50 LIG 0.16  HD
BRANCH 49 51
ATOM     51  CA  TRP X   6     -16.626 -12.876  42.343  1.00 34.66 LIG 0.19  C 
BRANCH 51 52
ATOM     52  CB  TRP X   6     -17.570 -13.846  43.084  1.00 34.41 LIG 0.08  C 
BRANCH 52 53
ATOM     53  CG  TRP X   6     -18.793 -14.259  42.286  1.00 32.39 LIG-0.03  A 
ATOM     54  CD2 TRP X   6     -20.175 -13.972  42.591  1.00 31.68 LIG-0.00  A 
ATOM     55  CE2 TRP X   6     -20.953 -14.572  41.581  1.00 33.29 LIG 0.04  A 
ATOM     56  CE3 TRP X   6     -20.822 -13.258  43.608  1.00 33.66 LIG 0.01  A 
ATOM     57  CZ2 TRP X   6     -22.350 -14.459  41.543  1.00 33.18 LIG 0.03  A 
ATOM     58  NE1 TRP X   6     -20.089 -15.181  40.704  1.00 30.87 LIG-0.36  N 
ATOM     59  CH2 TRP X   6     -22.957 -13.762  42.539  1.00 32.36 LIG 0.00  A 
ATOM     60  CZ3 TRP X   6     -22.212 -13.171  43.583  1.00 32.37 LIG 0.00  A 
ATOM     61 HE1  TRP X   6     -20.317 -15.607  39.993  1.00 30.87 LIG 0.17  HD
ATOM     62  CD1 TRP X   6     -18.804 -15.000  41.143  1.00 30.01 LIG 0.10  A 
ENDBRANCH 52 53
ENDBRANCH 51 52
BRANCH 51 63
ATOM     63  C   TRP X   6     -15.736 -13.632  41.336  1.00 36.76 LIG 0.20  C 
ATOM     64 O    TRP X   6     -14.990 -13.084  40.505  1.00 37.86 LIG-0.65  OA
ATOM     65 OXT  TRP X   6     -15.740 -14.868  41.299  1.00 39.11 LIG-0.65  OA
ENDBRANCH 51 63
ENDBRANCH 49 51
ENDBRANCH 43 47
ENDBRANCH 1 40
TORSDOF 19
ENDMDL
MODEL 71
USER: ADFR SOLUTION from run 126
USER: SCORE 17.024851 LL:  -4.504 LR: -13.962 RR:   0.000 FEB:  -8.294
USER: RMSD 8.721802
USER: SEED 125
USER: STATUS no improvement in best in 13 clusters for 5 generations
USER: GENES 21
USER: genes 0 Translation |==|  0.55409 0.70473 0.70188
USER: genes 1 Rotation |==|  0.24516 0.75016 0.66052 0.81099
USER: genes 2 Torsion [CB]-CA--N-[C] |==|  0.56712
USER: genes 3 Torsion [N]-C--CA-[N] |==|  0.56406
USER: genes 4 Torsion [C]-CA--N-[C] |==|  0.69360
USER: genes 5 Torsion [N]-C--CA-[N] |==|  0.55300
USER: genes 6 Torsion [C]-CA--CB-[CG] |==|  0.82992
USER: genes 7 Torsion [CA]-CB--CG-[SD] |==|  0.75566
USER: genes 8 Torsion [CB]-CG--SD-[CE] |==|  0.73326
USER: genes 9 Torsion [C]-CA--CB-[CG] |==|  0.49944
USER: genes 10 Torsion [CA]-CB--CG-[CD2] |==|  0.39907
USER: genes 11 Torsion [N]-CA--CB-[CG] |==|  0.41776
USER: genes 12 Torsion [CA]-CB--CG-[CD] |==|  0.19511
USER: genes 13 Torsion [CB]-CG--CD-[NE] |==|  0.62434
USER: genes 14 Torsion [CG]-CD--NE-[CZ] |==|  0.34052
USER: genes 15 Torsion [N]-CA--C-[N] |==|  0.83832
USER: genes 16 Torsion [N]-CA--C-[O] |==|  0.88075
USER: genes 17 Torsion [C]-N--CA-[CB] |==|  0.84377
USER: genes 18 Torsion [N]-CA--CB-[CG] |==|  0.81593
USER: genes 19 Torsion [CA]-CB--CG-[CD2] |==|  0.27348
USER: genes 20 Torsion [N]-CA--C-[O] |==|  0.29860
ROOT
ATOM      1  CA  ARG X   4     -20.229  -8.484  42.479  1.00 29.51 LIG 0.18  C 
ENDROOT
BRANCH 1 2
ATOM      2  N   ARG X   4     -20.680  -9.851  42.725  1.00 29.26 LIG-0.35  N 
ATOM      3  C   TRP X   3     -21.222 -10.627  41.768  1.00 30.37 LIG 0.24  C 
ATOM      4 O    TRP X   3     -21.359 -10.265  40.580  1.00 30.38 LIG-0.27  OA
ATOM      5 H    ARG X   4     -20.566 -10.113  43.536  1.00 29.26 LIG 0.16  HD
BRANCH 3 6
ATOM      6  CA  TRP X   3     -21.668 -12.038  42.205  1.00 30.62 LIG 0.18  C 
BRANCH 6 7
ATOM      7  N   TRP X   3     -21.732 -12.983  41.077  1.00 31.45 LIG-0.34  N 
ATOM      8 H    TRP X   3     -20.975 -13.212  40.739  1.00 31.45 LIG 0.16  HD
ATOM      9  C   MET X   2     -22.923 -13.413  40.664  1.00 32.92 LIG 0.26  C 
ATOM     10 O    MET X   2     -23.956 -13.121  41.236  1.00 32.35 LIG-0.27  OA
BRANCH 9 11
ATOM     11  CA  MET X   2     -22.982 -14.327  39.471  1.00 34.28 LIG 0.40  C 
ATOM     12  N   MET X   2     -24.365 -14.351  38.853  1.00 35.36 LIG 0.61  N 
BRANCH 11 13
ATOM     13  CB  MET X   2     -21.959 -13.859  38.448  1.00 35.71 LIG 0.06  C 
BRANCH 13 14
ATOM     14  CG  MET X   2     -22.187 -12.467  37.925  1.00 37.62 LIG 0.08  C 
BRANCH 14 15
ATOM     15 SD   MET X   2     -23.272 -12.278  36.484  1.00 39.06 LIG-0.17  SA
ATOM     16  CE  MET X   2     -22.054 -12.231  35.132  1.00 45.88 LIG 0.09  C 
ENDBRANCH 14 15
ENDBRANCH 13 14
ENDBRANCH 11 13
ENDBRANCH 9 11
ENDBRANCH 6 7
BRANCH 6 17
ATOM     17  CB  TRP X   3     -20.800 -12.559  43.352  1.00 29.85 LIG 0.07  C 
BRANCH 17 18
ATOM     18  CG  TRP X   3     -21.212 -13.933  43.806  1.00 29.58 LIG-0.03  A 
ATOM     19  CD1 TRP X   3     -22.490 -14.418  43.874  1.00 26.84 LIG 0.10  A 
ATOM     20  NE1 TRP X   3     -22.471 -15.706  44.341  1.00 29.47 LIG-0.36  N 
ATOM     21 HE1  TRP X   3     -23.166 -16.198  44.467  1.00 29.47 LIG 0.17  HD
ATOM     22  CE2 TRP X   3     -21.172 -16.093  44.579  1.00 27.62 LIG 0.04  A 
ATOM     23  CZ2 TRP X   3     -20.646 -17.327  45.067  1.00 28.85 LIG 0.03  A 
ATOM     24  CD2 TRP X   3     -20.345 -14.997  44.253  1.00 25.33 LIG-0.00  A 
ATOM     25  CH2 TRP X   3     -19.257 -17.430  45.212  1.00 28.18 LIG 0.00  A 
ATOM     26  CZ3 TRP X   3     -18.420 -16.342  44.905  1.00 26.79 LIG 0.00  A 
ATOM     27  CE3 TRP X   3     -18.958 -15.114  44.439  1.00 25.86 LIG 0.01  A 
ENDBRANCH 17 18
ENDBRANCH 6 17
ENDBRANCH 3 6
ENDBRANCH 1 2
BRANCH 1 28
ATOM     28  CB  ARG X   4     -19.153  -8.048  43.496  1.00 29.55 LIG 0.04  C 
BRANCH 28 29
ATOM     29  CG  ARG X   4     -18.155  -7.025  42.960  1.00 28.17 LIG 0.02  C 
BRANCH 29 30
ATOM     30  CD  ARG X   4     -18.840  -5.664  42.764  1.00 27.09 LIG 0.14  C 
BRANCH 30 31
ATOM     31  NE  ARG X   4     -18.452  -5.098  41.476  1.00 25.46 LIG-0.23  N 
ATOM     32 HE   ARG X   4     -17.615  -4.977  41.319  1.00 25.46 LIG 0.18  HD
ATOM     33  CZ  ARG X   4     -19.329  -4.758  40.529  1.00 27.27 LIG 0.67  C 
ATOM     34  NH2 ARG X   4     -18.914  -4.253  39.370  1.00 24.12 LIG-0.23  N 
ATOM     35  NH1 ARG X   4     -20.630  -4.913  40.759  1.00 21.32 LIG-0.23  N 
ATOM     36 1HH2 ARG X   4     -18.074  -4.143  39.225  1.00 24.12 LIG 0.17  HD
ATOM     37 2HH2 ARG X   4     -19.487  -4.038  38.765  1.00 24.12 LIG 0.17  HD
ATOM     38 2HH1 ARG X   4     -21.202  -4.697  40.155  1.00 21.32 LIG 0.17  HD
ATOM     39 1HH1 ARG X   4     -20.899  -5.230  41.512  1.00 21.32 LIG 0.17  HD
ENDBRANCH 30 31
ENDBRANCH 29 30
ENDBRANCH 28 29
ENDBRANCH 1 28
BRANCH 1 40
ATOM     40  C   ARG X   4     -19.639  -8.438  41.093  1.00 30.38 LIG 0.24  C 
ATOM     41 O    ARG X   4     -20.122  -7.678  40.269  1.00 31.87 LIG-0.27  OA
ATOM     42  N   PRO X   5     -18.612  -9.257  40.820  1.00 30.60 LIG-0.34  N 
ATOM     43  CA  PRO X   5     -17.861  -9.134  39.550  1.00 31.31 LIG 0.18  C 
ATOM     44  CD  PRO X   5     -18.058 -10.303  41.722  1.00 29.99 LIG 0.13  C 
ATOM     45  CB  PRO X   5     -16.587  -9.939  39.825  1.00 30.70 LIG 0.04  C 
ATOM     46  CG  PRO X   5     -16.996 -10.989  40.901  1.00 29.42 LIG 0.02  C 
BRANCH 43 47
ATOM     47  C   PRO X   5     -18.528  -9.654  38.247  1.00 32.23 LIG 0.24  C 
ATOM     48 O    PRO X   5     -19.147 -10.761  38.246  1.00 32.23 LIG-0.27  OA
ATOM     49  N   TRP X   6     -18.433  -8.879  37.170  1.00 33.50 LIG-0.34  N 
ATOM     50 H    TRP X   6     -17.952  -8.167  37.127  1.00 33.50 LIG 0.16  HD
BRANCH 49 51
ATOM     51  CA  TRP X   6     -19.167  -9.200  35.939  1.00 34.66 LIG 0.19  C 
BRANCH 51 52
ATOM     52  CB  TRP X   6     -18.803 -10.623  35.468  1.00 34.41 LIG 0.08  C 
BRANCH 52 53
ATOM     53  CG  TRP X   6     -17.362 -10.785  35.022  1.00 32.39 LIG-0.03  A 
ATOM     54  CD2 TRP X   6     -16.261 -11.316  35.792  1.00 31.68 LIG-0.00  A 
ATOM     55  CE2 TRP X   6     -15.117 -11.253  34.972  1.00 33.29 LIG 0.04  A 
ATOM     56  CE3 TRP X   6     -16.139 -11.847  37.083  1.00 33.66 LIG 0.01  A 
ATOM     57  CZ2 TRP X   6     -13.865 -11.726  35.392  1.00 33.18 LIG 0.03  A 
ATOM     58  NE1 TRP X   6     -15.505 -10.724  33.765  1.00 30.87 LIG-0.36  N 
ATOM     59  CH2 TRP X   6     -13.770 -12.237  36.647  1.00 32.36 LIG 0.00  A 
ATOM     60  CZ3 TRP X   6     -14.889 -12.290  37.507  1.00 32.37 LIG 0.00  A 
ATOM     61 HE1  TRP X   6     -14.990 -10.594  33.088  1.00 30.87 LIG 0.17  HD
ATOM     62  CD1 TRP X   6     -16.842 -10.435  33.812  1.00 30.01 LIG 0.10  A 
ENDBRANCH 52 53
ENDBRANCH 51 52
BRANCH 51 63
ATOM     63  C   TRP X   6     -20.693  -9.040  36.088  1.00 36.76 LIG 0.20  C 
ATOM     64 O    TRP X   6     -21.359  -8.121  35.578  1.00 37.86 LIG-0.65  OA
ATOM     65 OXT  TRP X   6     -21.345  -9.843  36.766  1.00 39.11 LIG-0.65  OA
ENDBRANCH 51 63
ENDBRANCH 49 51
ENDBRANCH 43 47
ENDBRANCH 1 40
TORSDOF 19
ENDMDL
MODEL 72
USER: ADFR SOLUTION from run 126
USER: SCORE 16.650201 LL:  -4.832 LR: -13.961 RR:   0.000 FEB:  -8.293
USER: RMSD 9.514059
USER: SEED 125
USER: STATUS no improvement in best in 13 clusters for 5 generations
USER: GENES 21
USER: genes 0 Translation |==|  0.58163 0.70284 0.70009
USER: genes 1 Rotation |==|  0.23740 0.73711 0.75016 0.74947
USER: genes 2 Torsion [CB]-CA--N-[C] |==|  0.44266
USER: genes 3 Torsion [N]-C--CA-[N] |==|  0.04273
USER: genes 4 Torsion [C]-CA--N-[C] |==|  0.55000
USER: genes 5 Torsion [N]-C--CA-[N] |==|  0.40266
USER: genes 6 Torsion [C]-CA--CB-[CG] |==|  0.09431
USER: genes 7 Torsion [CA]-CB--CG-[SD] |==|  0.67837
USER: genes 8 Torsion [CB]-CG--SD-[CE] |==|  0.31412
USER: genes 9 Torsion [C]-CA--CB-[CG] |==|  0.24851
USER: genes 10 Torsion [CA]-CB--CG-[CD2] |==|  0.30363
USER: genes 11 Torsion [N]-CA--CB-[CG] |==|  0.42853
USER: genes 12 Torsion [CA]-CB--CG-[CD] |==|  0.22405
USER: genes 13 Torsion [CB]-CG--CD-[NE] |==|  0.71666
USER: genes 14 Torsion [CG]-CD--NE-[CZ] |==|  0.79839
USER: genes 15 Torsion [N]-CA--C-[N] |==|  0.85170
USER: genes 16 Torsion [N]-CA--C-[O] |==|  0.98540
USER: genes 17 Torsion [C]-N--CA-[CB] |==|  0.77674
USER: genes 18 Torsion [N]-CA--CB-[CG] |==|  0.86689
USER: genes 19 Torsion [CA]-CB--CG-[CD2] |==|  0.27700
USER: genes 20 Torsion [N]-CA--C-[O] |==|  0.12300
ROOT
ATOM      1  CA  ARG X   4     -19.651  -8.521  42.446  1.00 29.51 LIG 0.18  C 
ENDROOT
BRANCH 1 2
ATOM      2  N   ARG X   4     -19.544  -9.961  42.664  1.00 29.26 LIG-0.35  N 
ATOM      3  C   TRP X   3     -20.571 -10.809  42.472  1.00 30.37 LIG 0.24  C 
ATOM      4 O    TRP X   3     -21.695 -10.451  42.059  1.00 30.38 LIG-0.27  OA
ATOM      5 H    ARG X   4     -18.765 -10.215  42.925  1.00 29.26 LIG 0.16  HD
BRANCH 3 6
ATOM      6  CA  TRP X   3     -20.293 -12.297  42.774  1.00 30.62 LIG 0.18  C 
BRANCH 6 7
ATOM      7  N   TRP X   3     -19.063 -12.492  43.560  1.00 31.45 LIG-0.34  N 
ATOM      8 H    TRP X   3     -18.767 -11.796  43.969  1.00 31.45 LIG 0.16  HD
ATOM      9  C   MET X   2     -18.502 -13.700  43.589  1.00 32.92 LIG 0.26  C 
ATOM     10 O    MET X   2     -19.012 -14.668  43.059  1.00 32.35 LIG-0.27  OA
BRANCH 9 11
ATOM     11  CA  MET X   2     -17.212 -13.874  44.342  1.00 34.28 LIG 0.40  C 
ATOM     12  N   MET X   2     -17.133 -15.233  45.008  1.00 35.36 LIG 0.61  N 
BRANCH 11 13
ATOM     13  CB  MET X   2     -16.055 -13.697  43.372  1.00 35.71 LIG 0.06  C 
BRANCH 13 14
ATOM     14  CG  MET X   2     -16.299 -12.692  42.279  1.00 37.62 LIG 0.08  C 
BRANCH 14 15
ATOM     15 SD   MET X   2     -16.342 -13.302  40.572  1.00 39.06 LIG-0.17  SA
ATOM     16  CE  MET X   2     -18.088 -13.022  40.142  1.00 45.88 LIG 0.09  C 
ENDBRANCH 14 15
ENDBRANCH 13 14
ENDBRANCH 11 13
ENDBRANCH 9 11
ENDBRANCH 6 7
BRANCH 6 17
ATOM     17  CB  TRP X   3     -21.509 -12.964  43.420  1.00 29.85 LIG 0.07  C 
BRANCH 17 18
ATOM     18  CG  TRP X   3     -22.451 -13.548  42.402  1.00 29.58 LIG-0.03  A 
ATOM     19  CD1 TRP X   3     -23.257 -12.849  41.544  1.00 26.84 LIG 0.10  A 
ATOM     20  NE1 TRP X   3     -23.979 -13.722  40.773  1.00 29.47 LIG-0.36  N 
ATOM     21 HE1  TRP X   3     -24.551 -13.497  40.172  1.00 29.47 LIG 0.17  HD
ATOM     22  CE2 TRP X   3     -23.648 -15.016  41.108  1.00 27.62 LIG 0.04  A 
ATOM     23  CZ2 TRP X   3     -24.127 -16.258  40.592  1.00 28.85 LIG 0.03  A 
ATOM     24  CD2 TRP X   3     -22.685 -14.947  42.137  1.00 25.33 LIG-0.00  A 
ATOM     25  CH2 TRP X   3     -23.600 -17.435  41.139  1.00 28.18 LIG 0.00  A 
ATOM     26  CZ3 TRP X   3     -22.649 -17.384  42.175  1.00 26.79 LIG 0.00  A 
ATOM     27  CE3 TRP X   3     -22.197 -16.141  42.691  1.00 25.86 LIG 0.01  A 
ENDBRANCH 17 18
ENDBRANCH 6 17
ENDBRANCH 3 6
ENDBRANCH 1 2
BRANCH 1 28
ATOM     28  CB  ARG X   4     -18.549  -7.748  43.200  1.00 29.55 LIG 0.04  C 
BRANCH 28 29
ATOM     29  CG  ARG X   4     -18.189  -6.398  42.584  1.00 28.17 LIG 0.02  C 
BRANCH 29 30
ATOM     30  CD  ARG X   4     -19.213  -5.332  43.003  1.00 27.09 LIG 0.14  C 
BRANCH 30 31
ATOM     31  NE  ARG X   4     -20.146  -5.087  41.907  1.00 25.46 LIG-0.23  N 
ATOM     32 HE   ARG X   4     -20.950  -5.382  41.982  1.00 25.46 LIG 0.18  HD
ATOM     33  CZ  ARG X   4     -19.815  -4.428  40.795  1.00 27.27 LIG 0.67  C 
ATOM     34  NH2 ARG X   4     -20.712  -4.228  39.833  1.00 24.12 LIG-0.23  N 
ATOM     35  NH1 ARG X   4     -18.570  -3.983  40.646  1.00 21.32 LIG-0.23  N 
ATOM     36 1HH2 ARG X   4     -21.513  -4.524  39.924  1.00 24.12 LIG 0.17  HD
ATOM     37 2HH2 ARG X   4     -20.489  -3.801  39.119  1.00 24.12 LIG 0.17  HD
ATOM     38 2HH1 ARG X   4     -18.347  -3.558  39.933  1.00 21.32 LIG 0.17  HD
ATOM     39 1HH1 ARG X   4     -17.987  -4.122  41.264  1.00 21.32 LIG 0.17  HD
ENDBRANCH 30 31
ENDBRANCH 29 30
ENDBRANCH 28 29
ENDBRANCH 1 28
BRANCH 1 40
ATOM     40  C   ARG X   4     -19.500  -8.269  40.968  1.00 30.38 LIG 0.24  C 
ATOM     41 O    ARG X   4     -20.366  -7.638  40.383  1.00 31.87 LIG-0.27  OA
ATOM     42  N   PRO X   5     -18.419  -8.771  40.351  1.00 30.60 LIG-0.34  N 
ATOM     43  CA  PRO X   5     -18.105  -8.405  38.952  1.00 31.31 LIG 0.18  C 
ATOM     44  CD  PRO X   5     -17.393  -9.661  40.961  1.00 29.99 LIG 0.13  C 
ATOM     45  CB  PRO X   5     -16.646  -8.848  38.799  1.00 30.70 LIG 0.04  C 
ATOM     46  CG  PRO X   5     -16.465 -10.006  39.825  1.00 29.42 LIG 0.02  C 
BRANCH 43 47
ATOM     47  C   PRO X   5     -18.957  -9.040  37.817  1.00 32.23 LIG 0.24  C 
ATOM     48 O    PRO X   5     -19.826  -9.922  38.090  1.00 32.23 LIG-0.27  OA
ATOM     49  N   TRP X   6     -18.741  -8.597  36.582  1.00 33.50 LIG-0.34  N 
ATOM     50 H    TRP X   6     -18.105  -8.061  36.364  1.00 33.50 LIG 0.16  HD
BRANCH 49 51
ATOM     51  CA  TRP X   6     -19.605  -9.011  35.467  1.00 34.66 LIG 0.19  C 
BRANCH 51 52
ATOM     52  CB  TRP X   6     -19.187 -10.411  34.973  1.00 34.41 LIG 0.08  C 
BRANCH 52 53
ATOM     53  CG  TRP X   6     -17.695 -10.575  34.747  1.00 32.39 LIG-0.03  A 
ATOM     54  CD2 TRP X   6     -16.738 -11.195  35.634  1.00 31.68 LIG-0.00  A 
ATOM     55  CE2 TRP X   6     -15.477 -11.098  35.013  1.00 33.29 LIG 0.04  A 
ATOM     56  CE3 TRP X   6     -16.831 -11.830  36.880  1.00 33.66 LIG 0.01  A 
ATOM     57  CZ2 TRP X   6     -14.316 -11.636  35.584  1.00 33.18 LIG 0.03  A 
ATOM     58  NE1 TRP X   6     -15.661 -10.463  33.808  1.00 30.87 LIG-0.36  N 
ATOM     59  CH2 TRP X   6     -14.429 -12.248  36.792  1.00 32.36 LIG 0.00  A 
ATOM     60  CZ3 TRP X   6     -15.671 -12.339  37.457  1.00 32.37 LIG 0.00  A 
ATOM     61 HE1  TRP X   6     -15.043 -10.294  33.233  1.00 30.87 LIG 0.17  HD
ATOM     62  CD1 TRP X   6     -16.985 -10.144  33.668  1.00 30.01 LIG 0.10  A 
ENDBRANCH 52 53
ENDBRANCH 51 52
BRANCH 51 63
ATOM     63  C   TRP X   6     -21.105  -8.973  35.821  1.00 36.76 LIG 0.20  C 
ATOM     64 O    TRP X   6     -21.662  -8.046  36.435  1.00 37.86 LIG-0.65  OA
ATOM     65 OXT  TRP X   6     -21.846  -9.914  35.512  1.00 39.11 LIG-0.65  OA
ENDBRANCH 51 63
ENDBRANCH 49 51
ENDBRANCH 43 47
ENDBRANCH 1 40
TORSDOF 19
ENDMDL
MODEL 73
USER: ADFR SOLUTION from run 179
USER: SCORE 19.499311 LL:  -5.926 LR: -13.950 RR:   0.000 FEB:  -8.282
USER: RMSD 5.596092
USER: SEED 178
USER: STATUS no improvement in best in 7 clusters for 5 generations
USER: GENES 21
USER: genes 0 Translation |==|  0.69506 0.71046 0.59369
USER: genes 1 Rotation |==|  0.54152 0.50378 0.11556 0.81696
USER: genes 2 Torsion [CB]-CA--N-[C] |==|  0.78886
USER: genes 3 Torsion [N]-C--CA-[N] |==|  0.39524
USER: genes 4 Torsion [C]-CA--N-[C] |==|  0.81319
USER: genes 5 Torsion [N]-C--CA-[N] |==|  0.53273
USER: genes 6 Torsion [C]-CA--CB-[CG] |==|  0.83380
USER: genes 7 Torsion [CA]-CB--CG-[SD] |==|  0.33909
USER: genes 8 Torsion [CB]-CG--SD-[CE] |==|  0.02704
USER: genes 9 Torsion [C]-CA--CB-[CG] |==|  0.94480
USER: genes 10 Torsion [CA]-CB--CG-[CD2] |==|  0.24777
USER: genes 11 Torsion [N]-CA--CB-[CG] |==|  0.55375
USER: genes 12 Torsion [CA]-CB--CG-[CD] |==|  0.70653
USER: genes 13 Torsion [CB]-CG--CD-[NE] |==|  0.84013
USER: genes 14 Torsion [CG]-CD--NE-[CZ] |==|  0.80478
USER: genes 15 Torsion [N]-CA--C-[N] |==|  0.17613
USER: genes 16 Torsion [N]-CA--C-[O] |==|  0.59934
USER: genes 17 Torsion [C]-N--CA-[CB] |==|  0.84395
USER: genes 18 Torsion [N]-CA--CB-[CG] |==|  0.77874
USER: genes 19 Torsion [CA]-CB--CG-[CD2] |==|  0.12822
USER: genes 20 Torsion [N]-CA--C-[O] |==|  0.51247
ROOT
ATOM      1  CA  ARG X   4     -17.269  -8.372  40.451  1.00 29.51 LIG 0.18  C 
ENDROOT
BRANCH 1 2
ATOM      2  N   ARG X   4     -17.100  -7.987  39.052  1.00 29.26 LIG-0.35  N 
ATOM      3  C   TRP X   3     -17.957  -8.355  38.082  1.00 30.37 LIG 0.24  C 
ATOM      4 O    TRP X   3     -18.989  -9.028  38.291  1.00 30.38 LIG-0.27  OA
ATOM      5 H    ARG X   4     -16.404  -7.503  38.907  1.00 29.26 LIG 0.16  HD
BRANCH 3 6
ATOM      6  CA  TRP X   3     -17.615  -7.882  36.654  1.00 30.62 LIG 0.18  C 
BRANCH 6 7
ATOM      7  N   TRP X   3     -17.932  -8.896  35.633  1.00 31.45 LIG-0.34  N 
ATOM      8 H    TRP X   3     -18.570  -8.695  35.094  1.00 31.45 LIG 0.16  HD
ATOM      9  C   MET X   2     -17.229 -10.028  35.610  1.00 32.92 LIG 0.26  C 
ATOM     10 O    MET X   2     -16.281 -10.221  36.346  1.00 32.35 LIG-0.27  OA
BRANCH 9 11
ATOM     11  CA  MET X   2     -17.603 -11.083  34.606  1.00 34.28 LIG 0.40  C 
ATOM     12  N   MET X   2     -16.910 -12.400  34.897  1.00 35.36 LIG 0.61  N 
BRANCH 11 13
ATOM     13  CB  MET X   2     -19.111 -11.269  34.633  1.00 35.71 LIG 0.06  C 
BRANCH 13 14
ATOM     14  CG  MET X   2     -19.668 -11.696  35.964  1.00 37.62 LIG 0.08  C 
BRANCH 14 15
ATOM     15 SD   MET X   2     -20.920 -10.632  36.731  1.00 39.06 LIG-0.17  SA
ATOM     16  CE  MET X   2     -21.280  -9.477  35.371  1.00 45.88 LIG 0.09  C 
ENDBRANCH 14 15
ENDBRANCH 13 14
ENDBRANCH 11 13
ENDBRANCH 9 11
ENDBRANCH 6 7
BRANCH 6 17
ATOM     17  CB  TRP X   3     -18.265  -6.530  36.351  1.00 29.85 LIG 0.07  C 
BRANCH 17 18
ATOM     18  CG  TRP X   3     -19.417  -6.229  37.272  1.00 29.58 LIG-0.03  A 
ATOM     19  CD1 TRP X   3     -20.732  -6.542  37.058  1.00 26.84 LIG 0.10  A 
ATOM     20  NE1 TRP X   3     -21.489  -6.101  38.111  1.00 29.47 LIG-0.36  N 
ATOM     21 HE1  TRP X   3     -22.342  -6.188  38.179  1.00 29.47 LIG 0.17  HD
ATOM     22  CE2 TRP X   3     -20.676  -5.497  39.044  1.00 27.62 LIG 0.04  A 
ATOM     23  CZ2 TRP X   3     -20.995  -4.888  40.295  1.00 28.85 LIG 0.03  A 
ATOM     24  CD2 TRP X   3     -19.357  -5.557  38.548  1.00 25.33 LIG-0.00  A 
ATOM     25  CH2 TRP X   3     -19.940  -4.344  41.040  1.00 28.18 LIG 0.00  A 
ATOM     26  CZ3 TRP X   3     -18.621  -4.384  40.553  1.00 26.79 LIG 0.00  A 
ATOM     27  CE3 TRP X   3     -18.322  -4.976  39.298  1.00 25.86 LIG 0.01  A 
ENDBRANCH 17 18
ENDBRANCH 6 17
ENDBRANCH 3 6
ENDBRANCH 1 2
BRANCH 1 28
ATOM     28  CB  ARG X   4     -18.375  -7.545  41.139  1.00 29.55 LIG 0.04  C 
BRANCH 28 29
ATOM     29  CG  ARG X   4     -18.305  -7.543  42.664  1.00 28.17 LIG 0.02  C 
BRANCH 29 30
ATOM     30  CD  ARG X   4     -19.410  -8.436  43.249  1.00 27.09 LIG 0.14  C 
BRANCH 30 31
ATOM     31  NE  ARG X   4     -20.715  -7.972  42.787  1.00 25.46 LIG-0.23  N 
ATOM     32 HE   ARG X   4     -21.145  -8.459  42.225  1.00 25.46 LIG 0.18  HD
ATOM     33  CZ  ARG X   4     -21.274  -6.830  43.194  1.00 27.27 LIG 0.67  C 
ATOM     34  NH2 ARG X   4     -22.471  -6.463  42.744  1.00 24.12 LIG-0.23  N 
ATOM     35  NH1 ARG X   4     -20.615  -6.048  44.046  1.00 21.32 LIG-0.23  N 
ATOM     36 1HH2 ARG X   4     -22.892  -6.963  42.186  1.00 24.12 LIG 0.17  HD
ATOM     37 2HH2 ARG X   4     -22.824  -5.726  43.012  1.00 24.12 LIG 0.17  HD
ATOM     38 2HH1 ARG X   4     -20.968  -5.311  44.312  1.00 21.32 LIG 0.17  HD
ATOM     39 1HH1 ARG X   4     -19.837  -6.280  44.329  1.00 21.32 LIG 0.17  HD
ENDBRANCH 30 31
ENDBRANCH 29 30
ENDBRANCH 28 29
ENDBRANCH 1 28
BRANCH 1 40
ATOM     40  C   ARG X   4     -17.657  -9.828  40.481  1.00 30.38 LIG 0.24  C 
ATOM     41 O    ARG X   4     -18.742 -10.142  40.943  1.00 31.87 LIG-0.27  OA
ATOM     42  N   PRO X   5     -16.773 -10.723  40.012  1.00 30.60 LIG-0.34  N 
ATOM     43  CA  PRO X   5     -17.155 -12.142  39.832  1.00 31.31 LIG 0.18  C 
ATOM     44  CD  PRO X   5     -15.384 -10.435  39.561  1.00 29.99 LIG 0.13  C 
ATOM     45  CB  PRO X   5     -16.040 -12.687  38.933  1.00 30.70 LIG 0.04  C 
ATOM     46  CG  PRO X   5     -14.805 -11.787  39.230  1.00 29.42 LIG 0.02  C 
BRANCH 43 47
ATOM     47  C   PRO X   5     -17.280 -13.036  41.097  1.00 32.23 LIG 0.24  C 
ATOM     48 O    PRO X   5     -16.935 -14.256  41.052  1.00 32.23 LIG-0.27  OA
ATOM     49  N   TRP X   6     -17.737 -12.455  42.202  1.00 33.50 LIG-0.34  N 
ATOM     50 H    TRP X   6     -18.051 -11.655  42.235  1.00 33.50 LIG 0.16  HD
BRANCH 49 51
ATOM     51  CA  TRP X   6     -17.736 -13.168  43.488  1.00 34.66 LIG 0.19  C 
BRANCH 51 52
ATOM     52  CB  TRP X   6     -18.516 -14.492  43.353  1.00 34.41 LIG 0.08  C 
BRANCH 52 53
ATOM     53  CG  TRP X   6     -20.024 -14.338  43.414  1.00 32.39 LIG-0.03  A 
ATOM     54  CD2 TRP X   6     -20.835 -13.366  42.718  1.00 31.68 LIG-0.00  A 
ATOM     55  CE2 TRP X   6     -22.172 -13.597  43.098  1.00 33.29 LIG 0.04  A 
ATOM     56  CE3 TRP X   6     -20.559 -12.338  41.807  1.00 33.66 LIG 0.01  A 
ATOM     57  CZ2 TRP X   6     -23.239 -12.851  42.577  1.00 33.18 LIG 0.03  A 
ATOM     58  NE1 TRP X   6     -22.175 -14.660  43.968  1.00 30.87 LIG-0.36  N 
ATOM     59  CH2 TRP X   6     -22.949 -11.861  41.694  1.00 32.36 LIG 0.00  A 
ATOM     60  CZ3 TRP X   6     -21.618 -11.582  41.313  1.00 32.37 LIG 0.00  A 
ATOM     61 HE1  TRP X   6     -22.873 -15.004  44.334  1.00 30.87 LIG 0.17  HD
ATOM     62  CD1 TRP X   6     -20.887 -15.084  44.160  1.00 30.01 LIG 0.10  A 
ENDBRANCH 52 53
ENDBRANCH 51 52
BRANCH 51 63
ATOM     63  C   TRP X   6     -16.318 -13.414  44.040  1.00 36.76 LIG 0.20  C 
ATOM     64 O    TRP X   6     -16.065 -14.066  45.069  1.00 37.86 LIG-0.65  OA
ATOM     65 OXT  TRP X   6     -15.330 -12.938  43.468  1.00 39.11 LIG-0.65  OA
ENDBRANCH 51 63
ENDBRANCH 49 51
ENDBRANCH 43 47
ENDBRANCH 1 40
TORSDOF 19
ENDMDL
MODEL 74
USER: ADFR SOLUTION from run 158
USER: SCORE 18.539741 LL:  -5.719 LR: -13.941 RR:   0.000 FEB:  -8.273
USER: RMSD 7.245986
USER: SEED 157
USER: STATUS no improvement in best in 8 clusters for 5 generations
USER: GENES 21
USER: genes 0 Translation |==|  0.65287 0.67430 0.45758
USER: genes 1 Rotation |==|  0.12469 0.79220 0.46761 0.65072
USER: genes 2 Torsion [CB]-CA--N-[C] |==|  0.49490
USER: genes 3 Torsion [N]-C--CA-[N] |==|  0.53887
USER: genes 4 Torsion [C]-CA--N-[C] |==|  0.60427
USER: genes 5 Torsion [N]-C--CA-[N] |==|  0.88993
USER: genes 6 Torsion [C]-CA--CB-[CG] |==|  0.09387
USER: genes 7 Torsion [CA]-CB--CG-[SD] |==|  0.65197
USER: genes 8 Torsion [CB]-CG--SD-[CE] |==|  0.83897
USER: genes 9 Torsion [C]-CA--CB-[CG] |==|  0.25526
USER: genes 10 Torsion [CA]-CB--CG-[CD2] |==|  0.08111
USER: genes 11 Torsion [N]-CA--CB-[CG] |==|  0.86839
USER: genes 12 Torsion [CA]-CB--CG-[CD] |==|  0.72192
USER: genes 13 Torsion [CB]-CG--CD-[NE] |==|  0.42920
USER: genes 14 Torsion [CG]-CD--NE-[CZ] |==|  0.80958
USER: genes 15 Torsion [N]-CA--C-[N] |==|  0.43711
USER: genes 16 Torsion [N]-CA--C-[O] |==|  0.75988
USER: genes 17 Torsion [C]-N--CA-[CB] |==|  0.27923
USER: genes 18 Torsion [N]-CA--CB-[CG] |==|  0.09675
USER: genes 19 Torsion [CA]-CB--CG-[CD2] |==|  0.11202
USER: genes 20 Torsion [N]-CA--C-[O] |==|  0.55232
ROOT
ATOM      1  CA  ARG X   4     -18.155  -9.077  37.899  1.00 29.51 LIG 0.18  C 
ENDROOT
BRANCH 1 2
ATOM      2  N   ARG X   4     -18.835  -9.419  39.145  1.00 29.26 LIG-0.35  N 
ATOM      3  C   TRP X   3     -19.851 -10.300  39.208  1.00 30.37 LIG 0.24  C 
ATOM      4 O    TRP X   3     -20.282 -10.929  38.218  1.00 30.38 LIG-0.27  OA
ATOM      5 H    ARG X   4     -18.526  -9.007  39.833  1.00 29.26 LIG 0.16  HD
BRANCH 3 6
ATOM      6  CA  TRP X   3     -20.473 -10.526  40.601  1.00 30.62 LIG 0.18  C 
BRANCH 6 7
ATOM      7  N   TRP X   3     -21.335 -11.720  40.647  1.00 31.45 LIG-0.34  N 
ATOM      8 H    TRP X   3     -21.062 -12.394  40.189  1.00 31.45 LIG 0.16  HD
ATOM      9  C   MET X   2     -22.450 -11.681  41.374  1.00 32.92 LIG 0.26  C 
ATOM     10 O    MET X   2     -22.742 -10.727  42.069  1.00 32.35 LIG-0.27  OA
BRANCH 9 11
ATOM     11  CA  MET X   2     -23.356 -12.881  41.362  1.00 34.28 LIG 0.40  C 
ATOM     12  N   MET X   2     -23.458 -13.491  39.978  1.00 35.36 LIG 0.61  N 
BRANCH 11 13
ATOM     13  CB  MET X   2     -22.818 -13.907  42.347  1.00 35.71 LIG 0.06  C 
BRANCH 13 14
ATOM     14  CG  MET X   2     -22.157 -13.320  43.566  1.00 37.62 LIG 0.08  C 
BRANCH 14 15
ATOM     15 SD   MET X   2     -20.462 -13.846  43.936  1.00 39.06 LIG-0.17  SA
ATOM     16  CE  MET X   2     -20.677 -15.647  44.084  1.00 45.88 LIG 0.09  C 
ENDBRANCH 14 15
ENDBRANCH 13 14
ENDBRANCH 11 13
ENDBRANCH 9 11
ENDBRANCH 6 7
BRANCH 6 17
ATOM     17  CB  TRP X   3     -19.396 -10.544  41.688  1.00 29.85 LIG 0.07  C 
BRANCH 17 18
ATOM     18  CG  TRP X   3     -19.164  -9.184  42.288  1.00 29.58 LIG-0.03  A 
ATOM     19  CD1 TRP X   3     -17.992  -8.719  42.823  1.00 26.84 LIG 0.10  A 
ATOM     20  NE1 TRP X   3     -18.168  -7.439  43.278  1.00 29.47 LIG-0.36  N 
ATOM     21 HE1  TRP X   3     -17.562  -6.960  43.656  1.00 29.47 LIG 0.17  HD
ATOM     22  CE2 TRP X   3     -19.463  -7.037  43.040  1.00 27.62 LIG 0.04  A 
ATOM     23  CZ2 TRP X   3     -20.119  -5.803  43.332  1.00 28.85 LIG 0.03  A 
ATOM     24  CD2 TRP X   3     -20.125  -8.115  42.416  1.00 25.33 LIG-0.00  A 
ATOM     25  CH2 TRP X   3     -21.466  -5.682  42.968  1.00 28.18 LIG 0.00  A 
ATOM     26  CZ3 TRP X   3     -22.145  -6.752  42.357  1.00 26.79 LIG 0.00  A 
ATOM     27  CE3 TRP X   3     -21.485  -7.980  42.091  1.00 25.86 LIG 0.01  A 
ENDBRANCH 17 18
ENDBRANCH 6 17
ENDBRANCH 3 6
ENDBRANCH 1 2
BRANCH 1 28
ATOM     28  CB  ARG X   4     -17.063  -8.010  38.121  1.00 29.55 LIG 0.04  C 
BRANCH 28 29
ATOM     29  CG  ARG X   4     -17.510  -6.814  38.958  1.00 28.17 LIG 0.02  C 
BRANCH 29 30
ATOM     30  CD  ARG X   4     -17.851  -5.624  38.047  1.00 27.09 LIG 0.14  C 
BRANCH 30 31
ATOM     31  NE  ARG X   4     -18.806  -4.747  38.719  1.00 25.46 LIG-0.23  N 
ATOM     32 HE   ARG X   4     -18.540  -3.968  38.966  1.00 25.46 LIG 0.18  HD
ATOM     33  CZ  ARG X   4     -20.070  -5.094  38.968  1.00 27.27 LIG 0.67  C 
ATOM     34  NH2 ARG X   4     -20.898  -4.249  39.576  1.00 24.12 LIG-0.23  N 
ATOM     35  NH1 ARG X   4     -20.496  -6.305  38.617  1.00 21.32 LIG-0.23  N 
ATOM     36 1HH2 ARG X   4     -20.620  -3.470  39.813  1.00 24.12 LIG 0.17  HD
ATOM     37 2HH2 ARG X   4     -21.712  -4.481  39.733  1.00 24.12 LIG 0.17  HD
ATOM     38 2HH1 ARG X   4     -21.309  -6.537  38.775  1.00 21.32 LIG 0.17  HD
ATOM     39 1HH1 ARG X   4     -19.959  -6.855  38.233  1.00 21.32 LIG 0.17  HD
ENDBRANCH 30 31
ENDBRANCH 29 30
ENDBRANCH 28 29
ENDBRANCH 1 28
BRANCH 1 40
ATOM     40  C   ARG X   4     -17.511 -10.332  37.368  1.00 30.38 LIG 0.24  C 
ATOM     41 O    ARG X   4     -17.246 -11.236  38.145  1.00 31.87 LIG-0.27  OA
ATOM     42  N   PRO X   5     -17.237 -10.391  36.056  1.00 30.60 LIG-0.34  N 
ATOM     43  CA  PRO X   5     -16.785 -11.656  35.432  1.00 31.31 LIG 0.18  C 
ATOM     44  CD  PRO X   5     -17.402  -9.287  35.072  1.00 29.99 LIG 0.13  C 
ATOM     45  CB  PRO X   5     -16.983 -11.391  33.936  1.00 30.70 LIG 0.04  C 
ATOM     46  CG  PRO X   5     -16.865  -9.845  33.779  1.00 29.42 LIG 0.02  C 
BRANCH 43 47
ATOM     47  C   PRO X   5     -15.323 -12.119  35.684  1.00 32.23 LIG 0.24  C 
ATOM     48 O    PRO X   5     -14.384 -11.699  34.942  1.00 32.23 LIG-0.27  OA
ATOM     49  N   TRP X   6     -15.120 -12.940  36.710  1.00 33.50 LIG-0.34  N 
ATOM     50 H    TRP X   6     -15.748 -13.299  37.175  1.00 33.50 LIG 0.16  HD
BRANCH 49 51
ATOM     51  CA  TRP X   6     -13.760 -13.302  37.133  1.00 34.66 LIG 0.19  C 
BRANCH 51 52
ATOM     52  CB  TRP X   6     -13.355 -12.467  38.364  1.00 34.41 LIG 0.08  C 
BRANCH 52 53
ATOM     53  CG  TRP X   6     -14.495 -12.166  39.319  1.00 32.39 LIG-0.03  A 
ATOM     54  CD2 TRP X   6     -15.555 -13.060  39.726  1.00 31.68 LIG-0.00  A 
ATOM     55  CE2 TRP X   6     -16.388 -12.338  40.604  1.00 33.29 LIG 0.04  A 
ATOM     56  CE3 TRP X   6     -15.868 -14.396  39.442  1.00 33.66 LIG 0.01  A 
ATOM     57  CZ2 TRP X   6     -17.505 -12.917  41.224  1.00 33.18 LIG 0.03  A 
ATOM     58  NE1 TRP X   6     -15.856 -11.078  40.733  1.00 30.87 LIG-0.36  N 
ATOM     59  CH2 TRP X   6     -17.789 -14.214  40.936  1.00 32.36 LIG 0.00  A 
ATOM     60  CZ3 TRP X   6     -16.993 -14.959  40.039  1.00 32.37 LIG 0.00  A 
ATOM     61 HE1  TRP X   6     -16.175 -10.449  41.226  1.00 30.87 LIG 0.17  HD
ATOM     62  CD1 TRP X   6     -14.736 -10.984  39.950  1.00 30.01 LIG 0.10  A 
ENDBRANCH 52 53
ENDBRANCH 51 52
BRANCH 51 63
ATOM     63  C   TRP X   6     -13.595 -14.810  37.408  1.00 36.76 LIG 0.20  C 
ATOM     64 O    TRP X   6     -12.673 -15.308  38.079  1.00 37.86 LIG-0.65  OA
ATOM     65 OXT  TRP X   6     -14.396 -15.625  36.936  1.00 39.11 LIG-0.65  OA
ENDBRANCH 51 63
ENDBRANCH 49 51
ENDBRANCH 43 47
ENDBRANCH 1 40
TORSDOF 19
ENDMDL
MODEL 75
USER: ADFR SOLUTION from run 81
USER: SCORE 19.043799 LL:  -6.852 LR: -13.932 RR:   0.000 FEB:  -8.264
USER: RMSD 9.044603
USER: SEED 80
USER: STATUS no improvement in best in 21 clusters for 5 generations
USER: GENES 21
USER: genes 0 Translation |==|  0.54706 0.73287 0.68742
USER: genes 1 Rotation |==|  0.28578 0.68509 0.79299 0.78985
USER: genes 2 Torsion [CB]-CA--N-[C] |==|  0.37641
USER: genes 3 Torsion [N]-C--CA-[N] |==|  0.91233
USER: genes 4 Torsion [C]-CA--N-[C] |==|  0.68603
USER: genes 5 Torsion [N]-C--CA-[N] |==|  0.60526
USER: genes 6 Torsion [C]-CA--CB-[CG] |==|  0.29753
USER: genes 7 Torsion [CA]-CB--CG-[SD] |==|  0.44088
USER: genes 8 Torsion [CB]-CG--SD-[CE] |==|  0.68392
USER: genes 9 Torsion [C]-CA--CB-[CG] |==|  0.62529
USER: genes 10 Torsion [CA]-CB--CG-[CD2] |==|  0.20056
USER: genes 11 Torsion [N]-CA--CB-[CG] |==|  0.37659
USER: genes 12 Torsion [CA]-CB--CG-[CD] |==|  0.24303
USER: genes 13 Torsion [CB]-CG--CD-[NE] |==|  0.73020
USER: genes 14 Torsion [CG]-CD--NE-[CZ] |==|  0.80492
USER: genes 15 Torsion [N]-CA--C-[N] |==|  0.83354
USER: genes 16 Torsion [N]-CA--C-[O] |==|  0.39707
USER: genes 17 Torsion [C]-N--CA-[CB] |==|  0.22116
USER: genes 18 Torsion [N]-CA--CB-[CG] |==|  0.15805
USER: genes 19 Torsion [CA]-CB--CG-[CD2] |==|  0.38828
USER: genes 20 Torsion [N]-CA--C-[O] |==|  0.52620
ROOT
ATOM      1  CA  ARG X   4     -20.377  -7.935  42.208  1.00 29.51 LIG 0.18  C 
ENDROOT
BRANCH 1 2
ATOM      2  N   ARG X   4     -20.238  -9.354  41.892  1.00 29.26 LIG-0.35  N 
ATOM      3  C   TRP X   3     -21.281 -10.204  41.863  1.00 30.37 LIG 0.24  C 
ATOM      4 O    TRP X   3     -22.463  -9.854  42.069  1.00 30.38 LIG-0.27  OA
ATOM      5 H    ARG X   4     -19.429  -9.595  41.726  1.00 29.26 LIG 0.16  HD
BRANCH 3 6
ATOM      6  CA  TRP X   3     -20.954 -11.676  41.536  1.00 30.62 LIG 0.18  C 
BRANCH 6 7
ATOM      7  N   TRP X   3     -19.801 -11.808  40.629  1.00 31.45 LIG-0.34  N 
ATOM      8 H    TRP X   3     -19.042 -11.568  40.953  1.00 31.45 LIG 0.16  HD
ATOM      9  C   MET X   2     -20.000 -12.279  39.399  1.00 32.92 LIG 0.26  C 
ATOM     10 O    MET X   2     -21.084 -12.683  39.023  1.00 32.35 LIG-0.27  OA
BRANCH 9 11
ATOM     11  CA  MET X   2     -18.828 -12.350  38.459  1.00 34.28 LIG 0.40  C 
ATOM     12  N   MET X   2     -19.227 -11.995  37.041  1.00 35.36 LIG 0.61  N 
BRANCH 11 13
ATOM     13  CB  MET X   2     -17.749 -11.400  38.953  1.00 35.71 LIG 0.06  C 
BRANCH 13 14
ATOM     14  CG  MET X   2     -16.551 -12.074  39.566  1.00 37.62 LIG 0.08  C 
BRANCH 14 15
ATOM     15 SD   MET X   2     -15.004 -11.132  39.641  1.00 39.06 LIG-0.17  SA
ATOM     16  CE  MET X   2     -13.955 -12.090  38.503  1.00 45.88 LIG 0.09  C 
ENDBRANCH 14 15
ENDBRANCH 13 14
ENDBRANCH 11 13
ENDBRANCH 9 11
ENDBRANCH 6 7
BRANCH 6 17
ATOM     17  CB  TRP X   3     -20.786 -12.499  42.814  1.00 29.85 LIG 0.07  C 
BRANCH 17 18
ATOM     18  CG  TRP X   3     -19.578 -13.397  42.764  1.00 29.58 LIG-0.03  A 
ATOM     19  CD1 TRP X   3     -19.582 -14.759  42.631  1.00 26.84 LIG 0.10  A 
ATOM     20  NE1 TRP X   3     -18.294 -15.227  42.634  1.00 29.47 LIG-0.36  N 
ATOM     21 HE1  TRP X   3     -18.067 -16.053  42.567  1.00 29.47 LIG 0.17  HD
ATOM     22  CE2 TRP X   3     -17.419 -14.171  42.760  1.00 27.62 LIG 0.04  A 
ATOM     23  CZ2 TRP X   3     -15.992 -14.151  42.815  1.00 28.85 LIG 0.03  A 
ATOM     24  CD2 TRP X   3     -18.194 -12.996  42.847  1.00 25.33 LIG-0.00  A 
ATOM     25  CH2 TRP X   3     -15.365 -12.906  42.952  1.00 28.18 LIG 0.00  A 
ATOM     26  CZ3 TRP X   3     -16.124 -11.726  43.054  1.00 26.79 LIG 0.00  A 
ATOM     27  CE3 TRP X   3     -17.542 -11.763  43.018  1.00 25.86 LIG 0.01  A 
ENDBRANCH 17 18
ENDBRANCH 6 17
ENDBRANCH 3 6
ENDBRANCH 1 2
BRANCH 1 28
ATOM     28  CB  ARG X   4     -19.283  -7.461  43.188  1.00 29.55 LIG 0.04  C 
BRANCH 28 29
ATOM     29  CG  ARG X   4     -18.640  -6.127  42.819  1.00 28.17 LIG 0.02  C 
BRANCH 29 30
ATOM     30  CD  ARG X   4     -19.447  -4.963  43.414  1.00 27.09 LIG 0.14  C 
BRANCH 30 31
ATOM     31  NE  ARG X   4     -20.355  -4.426  42.405  1.00 25.46 LIG-0.23  N 
ATOM     32 HE   ARG X   4     -21.199  -4.561  42.502  1.00 25.46 LIG 0.18  HD
ATOM     33  CZ  ARG X   4     -19.943  -3.736  41.339  1.00 27.27 LIG 0.67  C 
ATOM     34  NH2 ARG X   4     -20.818  -3.264  40.457  1.00 24.12 LIG-0.23  N 
ATOM     35  NH1 ARG X   4     -18.640  -3.537  41.156  1.00 21.32 LIG-0.23  N 
ATOM     36 1HH2 ARG X   4     -21.659  -3.401  40.569  1.00 24.12 LIG 0.17  HD
ATOM     37 2HH2 ARG X   4     -20.543  -2.819  39.773  1.00 24.12 LIG 0.17  HD
ATOM     38 2HH1 ARG X   4     -18.365  -3.094  40.472  1.00 21.32 LIG 0.17  HD
ATOM     39 1HH1 ARG X   4     -18.073  -3.851  41.721  1.00 21.32 LIG 0.17  HD
ENDBRANCH 30 31
ENDBRANCH 29 30
ENDBRANCH 28 29
ENDBRANCH 1 28
BRANCH 1 40
ATOM     40  C   ARG X   4     -20.247  -7.164  40.920  1.00 30.38 LIG 0.24  C 
ATOM     41 O    ARG X   4     -21.183  -6.477  40.544  1.00 31.87 LIG-0.27  OA
ATOM     42  N   PRO X   5     -19.103  -7.284  40.228  1.00 30.60 LIG-0.34  N 
ATOM     43  CA  PRO X   5     -18.827  -6.415  39.062  1.00 31.31 LIG 0.18  C 
ATOM     44  CD  PRO X   5     -17.974  -8.200  40.548  1.00 29.99 LIG 0.13  C 
ATOM     45  CB  PRO X   5     -17.321  -6.596  38.847  1.00 30.70 LIG 0.04  C 
ATOM     46  CG  PRO X   5     -16.998  -8.010  39.415  1.00 29.42 LIG 0.02  C 
BRANCH 43 47
ATOM     47  C   PRO X   5     -19.576  -6.708  37.733  1.00 32.23 LIG 0.24  C 
ATOM     48 O    PRO X   5     -19.960  -5.752  36.993  1.00 32.23 LIG-0.27  OA
ATOM     49  N   TRP X   6     -19.766  -7.986  37.417  1.00 33.50 LIG-0.34  N 
ATOM     50 H    TRP X   6     -19.587  -8.646  37.939  1.00 33.50 LIG 0.16  HD
BRANCH 49 51
ATOM     51  CA  TRP X   6     -20.314  -8.369  36.109  1.00 34.66 LIG 0.19  C 
BRANCH 51 52
ATOM     52  CB  TRP X   6     -19.202  -8.317  35.040  1.00 34.41 LIG 0.08  C 
BRANCH 52 53
ATOM     53  CG  TRP X   6     -17.996  -9.186  35.350  1.00 32.39 LIG-0.03  A 
ATOM     54  CD2 TRP X   6     -17.239  -9.995  34.423  1.00 31.68 LIG-0.00  A 
ATOM     55  CE2 TRP X   6     -16.227 -10.634  35.166  1.00 33.29 LIG 0.04  A 
ATOM     56  CE3 TRP X   6     -17.314 -10.227  33.043  1.00 33.66 LIG 0.01  A 
ATOM     57  CZ2 TRP X   6     -15.276 -11.475  34.570  1.00 33.18 LIG 0.03  A 
ATOM     58  NE1 TRP X   6     -16.355 -10.226  36.471  1.00 30.87 LIG-0.36  N 
ATOM     59  CH2 TRP X   6     -15.366 -11.684  33.231  1.00 32.36 LIG 0.00  A 
ATOM     60  CZ3 TRP X   6     -16.384 -11.083  32.459  1.00 32.37 LIG 0.00  A 
ATOM     61 HE1  TRP X   6     -15.847 -10.467  37.122  1.00 30.87 LIG 0.17  HD
ATOM     62  CD1 TRP X   6     -17.423  -9.374  36.570  1.00 30.01 LIG 0.10  A 
ENDBRANCH 52 53
ENDBRANCH 51 52
BRANCH 51 63
ATOM     63  C   TRP X   6     -21.003  -9.748  36.124  1.00 36.76 LIG 0.20  C 
ATOM     64 O    TRP X   6     -21.390 -10.355  35.109  1.00 37.86 LIG-0.65  OA
ATOM     65 OXT  TRP X   6     -21.227 -10.326  37.194  1.00 39.11 LIG-0.65  OA
ENDBRANCH 51 63
ENDBRANCH 49 51
ENDBRANCH 43 47
ENDBRANCH 1 40
TORSDOF 19
ENDMDL
MODEL 76
USER: ADFR SOLUTION from run 81
USER: SCORE 17.990772 LL:  -6.141 LR: -13.894 RR:   0.000 FEB:  -8.226
USER: RMSD 8.365222
USER: SEED 80
USER: STATUS no improvement in best in 21 clusters for 5 generations
USER: GENES 21
USER: genes 0 Translation |==|  0.56529 0.73119 0.69749
USER: genes 1 Rotation |==|  0.28529 0.67602 0.83201 0.75036
USER: genes 2 Torsion [CB]-CA--N-[C] |==|  0.45595
USER: genes 3 Torsion [N]-C--CA-[N] |==|  0.55537
USER: genes 4 Torsion [C]-CA--N-[C] |==|  0.77905
USER: genes 5 Torsion [N]-C--CA-[N] |==|  0.54703
USER: genes 6 Torsion [C]-CA--CB-[CG] |==|  0.27983
USER: genes 7 Torsion [CA]-CB--CG-[SD] |==|  0.92510
USER: genes 8 Torsion [CB]-CG--SD-[CE] |==|  0.69250
USER: genes 9 Torsion [C]-CA--CB-[CG] |==|  0.41648
USER: genes 10 Torsion [CA]-CB--CG-[CD2] |==|  0.73039
USER: genes 11 Torsion [N]-CA--CB-[CG] |==|  0.36776
USER: genes 12 Torsion [CA]-CB--CG-[CD] |==|  0.24108
USER: genes 13 Torsion [CB]-CG--CD-[NE] |==|  0.70353
USER: genes 14 Torsion [CG]-CD--NE-[CZ] |==|  0.81987
USER: genes 15 Torsion [N]-CA--C-[N] |==|  0.82506
USER: genes 16 Torsion [N]-CA--C-[O] |==|  0.40554
USER: genes 17 Torsion [C]-N--CA-[CB] |==|  0.23887
USER: genes 18 Torsion [N]-CA--CB-[CG] |==|  0.23655
USER: genes 19 Torsion [CA]-CB--CG-[CD2] |==|  0.85228
USER: genes 20 Torsion [N]-CA--C-[O] |==|  0.52020
ROOT
ATOM      1  CA  ARG X   4     -19.994  -7.968  42.397  1.00 29.51 LIG 0.18  C 
ENDROOT
BRANCH 1 2
ATOM      2  N   ARG X   4     -19.611  -9.331  42.039  1.00 29.26 LIG-0.35  N 
ATOM      3  C   TRP X   3     -20.484 -10.235  41.558  1.00 30.37 LIG 0.24  C 
ATOM      4 O    TRP X   3     -21.689  -9.985  41.341  1.00 30.38 LIG-0.27  OA
ATOM      5 H    ARG X   4     -18.778  -9.501  42.164  1.00 29.26 LIG 0.16  HD
BRANCH 3 6
ATOM      6  CA  TRP X   3     -19.917 -11.638  41.256  1.00 30.62 LIG 0.18  C 
BRANCH 6 7
ATOM      7  N   TRP X   3     -20.767 -12.401  40.326  1.00 31.45 LIG-0.34  N 
ATOM      8 H    TRP X   3     -20.504 -12.418  39.508  1.00 31.45 LIG 0.16  HD
ATOM      9  C   MET X   2     -21.860 -13.001  40.797  1.00 32.92 LIG 0.26  C 
ATOM     10 O    MET X   2     -22.137 -13.012  41.981  1.00 32.35 LIG-0.27  OA
BRANCH 9 11
ATOM     11  CA  MET X   2     -22.755 -13.723  39.829  1.00 34.28 LIG 0.40  C 
ATOM     12  N   MET X   2     -24.124 -13.985  40.423  1.00 35.36 LIG 0.61  N 
BRANCH 11 13
ATOM     13  CB  MET X   2     -22.884 -12.886  38.567  1.00 35.71 LIG 0.06  C 
BRANCH 13 14
ATOM     14  CG  MET X   2     -22.021 -13.341  37.421  1.00 37.62 LIG 0.08  C 
BRANCH 14 15
ATOM     15 SD   MET X   2     -20.492 -14.228  37.821  1.00 39.06 LIG-0.17  SA
ATOM     16  CE  MET X   2     -19.237 -13.004  37.332  1.00 45.88 LIG 0.09  C 
ENDBRANCH 14 15
ENDBRANCH 13 14
ENDBRANCH 11 13
ENDBRANCH 9 11
ENDBRANCH 6 7
BRANCH 6 17
ATOM     17  CB  TRP X   3     -18.465 -11.554  40.780  1.00 29.85 LIG 0.07  C 
BRANCH 17 18
ATOM     18  CG  TRP X   3     -17.668 -12.774  41.153  1.00 29.58 LIG-0.03  A 
ATOM     19  CD1 TRP X   3     -17.627 -13.959  40.469  1.00 26.84 LIG 0.10  A 
ATOM     20  NE1 TRP X   3     -16.798 -14.838  41.116  1.00 29.47 LIG-0.36  N 
ATOM     21 HE1  TRP X   3     -16.633 -15.643  40.862  1.00 29.47 LIG 0.17  HD
ATOM     22  CE2 TRP X   3     -16.270 -14.235  42.236  1.00 27.62 LIG 0.04  A 
ATOM     23  CZ2 TRP X   3     -15.367 -14.739  43.221  1.00 28.85 LIG 0.03  A 
ATOM     24  CD2 TRP X   3     -16.798 -12.929  42.294  1.00 25.33 LIG-0.00  A 
ATOM     25  CH2 TRP X   3     -15.002 -13.881  44.267  1.00 28.18 LIG 0.00  A 
ATOM     26  CZ3 TRP X   3     -15.530 -12.580  44.346  1.00 26.79 LIG 0.00  A 
ATOM     27  CE3 TRP X   3     -16.442 -12.100  43.371  1.00 25.86 LIG 0.01  A 
ENDBRANCH 17 18
ENDBRANCH 6 17
ENDBRANCH 3 6
ENDBRANCH 1 2
BRANCH 1 28
ATOM     28  CB  ARG X   4     -18.920  -7.286  43.270  1.00 29.55 LIG 0.04  C 
BRANCH 28 29
ATOM     29  CG  ARG X   4     -18.539  -5.878  42.819  1.00 28.17 LIG 0.02  C 
BRANCH 29 30
ATOM     30  CD  ARG X   4     -19.490  -4.844  43.441  1.00 27.09 LIG 0.14  C 
BRANCH 30 31
ATOM     31  NE  ARG X   4     -20.403  -4.337  42.420  1.00 25.46 LIG-0.23  N 
ATOM     32 HE   ARG X   4     -21.242  -4.504  42.503  1.00 25.46 LIG 0.18  HD
ATOM     33  CZ  ARG X   4     -20.001  -3.627  41.364  1.00 27.27 LIG 0.67  C 
ATOM     34  NH2 ARG X   4     -20.880  -3.184  40.470  1.00 24.12 LIG-0.23  N 
ATOM     35  NH1 ARG X   4     -18.704  -3.377  41.201  1.00 21.32 LIG-0.23  N 
ATOM     36 1HH2 ARG X   4     -21.717  -3.354  40.569  1.00 24.12 LIG 0.17  HD
ATOM     37 2HH2 ARG X   4     -20.612  -2.726  39.792  1.00 24.12 LIG 0.17  HD
ATOM     38 2HH1 ARG X   4     -18.436  -2.921  40.523  1.00 21.32 LIG 0.17  HD
ATOM     39 1HH1 ARG X   4     -18.134  -3.672  41.773  1.00 21.32 LIG 0.17  HD
ENDBRANCH 30 31
ENDBRANCH 29 30
ENDBRANCH 28 29
ENDBRANCH 1 28
BRANCH 1 40
ATOM     40  C   ARG X   4     -20.153  -7.186  41.118  1.00 30.38 LIG 0.24  C 
ATOM     41 O    ARG X   4     -21.253  -6.747  40.825  1.00 31.87 LIG-0.27  OA
ATOM     42  N   PRO X   5     -19.070  -7.024  40.342  1.00 30.60 LIG-0.34  N 
ATOM     43  CA  PRO X   5     -19.102  -6.112  39.176  1.00 31.31 LIG 0.18  C 
ATOM     44  CD  PRO X   5     -17.732  -7.639  40.559  1.00 29.99 LIG 0.13  C 
ATOM     45  CB  PRO X   5     -17.618  -5.922  38.847  1.00 30.70 LIG 0.04  C 
ATOM     46  CG  PRO X   5     -16.920  -7.216  39.363  1.00 29.42 LIG 0.02  C 
BRANCH 43 47
ATOM     47  C   PRO X   5     -19.857  -6.577  37.900  1.00 32.23 LIG 0.24  C 
ATOM     48 O    PRO X   5     -20.468  -5.732  37.178  1.00 32.23 LIG-0.27  OA
ATOM     49  N   TRP X   6     -19.806  -7.873  37.608  1.00 33.50 LIG-0.34  N 
ATOM     50 H    TRP X   6     -19.468  -8.473  38.124  1.00 33.50 LIG 0.16  HD
BRANCH 49 51
ATOM     51  CA  TRP X   6     -20.345  -8.386  36.341  1.00 34.66 LIG 0.19  C 
BRANCH 51 52
ATOM     52  CB  TRP X   6     -19.272  -8.283  35.237  1.00 34.41 LIG 0.08  C 
BRANCH 52 53
ATOM     53  CG  TRP X   6     -18.313  -9.458  35.186  1.00 32.39 LIG-0.03  A 
ATOM     54  CD2 TRP X   6     -17.526  -9.994  36.273  1.00 31.68 LIG-0.00  A 
ATOM     55  CE2 TRP X   6     -16.775 -11.065  35.748  1.00 33.29 LIG 0.04  A 
ATOM     56  CE3 TRP X   6     -17.397  -9.679  37.632  1.00 33.66 LIG 0.01  A 
ATOM     57  CZ2 TRP X   6     -15.923 -11.844  36.543  1.00 33.18 LIG 0.03  A 
ATOM     58  NE1 TRP X   6     -17.098 -11.180  34.418  1.00 30.87 LIG-0.36  N 
ATOM     59  CH2 TRP X   6     -15.814 -11.522  37.859  1.00 32.36 LIG 0.00  A 
ATOM     60  CZ3 TRP X   6     -16.528 -10.437  38.413  1.00 32.37 LIG 0.00  A 
ATOM     61 HE1  TRP X   6     -16.782 -11.770  33.876  1.00 30.87 LIG 0.17  HD
ATOM     62  CD1 TRP X   6     -18.005 -10.207  34.091  1.00 30.01 LIG 0.10  A 
ENDBRANCH 52 53
ENDBRANCH 51 52
BRANCH 51 63
ATOM     63  C   TRP X   6     -20.887  -9.825  36.454  1.00 36.76 LIG 0.20  C 
ATOM     64 O    TRP X   6     -21.270 -10.512  35.490  1.00 37.86 LIG-0.65  OA
ATOM     65 OXT  TRP X   6     -20.985 -10.374  37.558  1.00 39.11 LIG-0.65  OA
ENDBRANCH 51 63
ENDBRANCH 49 51
ENDBRANCH 43 47
ENDBRANCH 1 40
TORSDOF 19
ENDMDL
MODEL 77
USER: ADFR SOLUTION from run 114
USER: SCORE 18.059644 LL:  -5.495 LR: -13.877 RR:   0.000 FEB:  -8.210
USER: RMSD 8.007337
USER: SEED 113
USER: STATUS no improvement in best in 11 clusters for 5 generations
USER: GENES 21
USER: genes 0 Translation |==|  0.57696 0.60134 0.60975
USER: genes 1 Rotation |==|  0.17735 0.75118 0.56693 0.77986
USER: genes 2 Torsion [CB]-CA--N-[C] |==|  0.21894
USER: genes 3 Torsion [N]-C--CA-[N] |==|  0.83889
USER: genes 4 Torsion [C]-CA--N-[C] |==|  0.79317
USER: genes 5 Torsion [N]-C--CA-[N] |==|  0.44001
USER: genes 6 Torsion [C]-CA--CB-[CG] |==|  0.84483
USER: genes 7 Torsion [CA]-CB--CG-[SD] |==|  0.38372
USER: genes 8 Torsion [CB]-CG--SD-[CE] |==|  0.03700
USER: genes 9 Torsion [C]-CA--CB-[CG] |==|  0.79147
USER: genes 10 Torsion [CA]-CB--CG-[CD2] |==|  0.28159
USER: genes 11 Torsion [N]-CA--CB-[CG] |==|  0.76321
USER: genes 12 Torsion [CA]-CB--CG-[CD] |==|  0.69593
USER: genes 13 Torsion [CB]-CG--CD-[NE] |==|  0.59389
USER: genes 14 Torsion [CG]-CD--NE-[CZ] |==|  0.77947
USER: genes 15 Torsion [N]-CA--C-[N] |==|  0.43940
USER: genes 16 Torsion [N]-CA--C-[O] |==|  0.86390
USER: genes 17 Torsion [C]-N--CA-[CB] |==|  0.80998
USER: genes 18 Torsion [N]-CA--CB-[CG] |==|  0.80819
USER: genes 19 Torsion [CA]-CB--CG-[CD2] |==|  0.20728
USER: genes 20 Torsion [N]-CA--C-[O] |==|  0.61003
ROOT
ATOM      1  CA  ARG X   4     -19.749 -10.500  40.752  1.00 29.51 LIG 0.18  C 
ENDROOT
BRANCH 1 2
ATOM      2  N   ARG X   4     -20.376 -11.636  41.421  1.00 29.26 LIG-0.35  N 
ATOM      3  C   TRP X   3     -21.455 -11.514  42.216  1.00 30.37 LIG 0.24  C 
ATOM      4 O    TRP X   3     -22.039 -10.429  42.427  1.00 30.38 LIG-0.27  OA
ATOM      5 H    ARG X   4     -19.993 -12.388  41.260  1.00 29.26 LIG 0.16  HD
BRANCH 3 6
ATOM      6  CA  TRP X   3     -21.976 -12.813  42.865  1.00 30.62 LIG 0.18  C 
BRANCH 6 7
ATOM      7  N   TRP X   3     -22.330 -13.839  41.869  1.00 31.45 LIG-0.34  N 
ATOM      8 H    TRP X   3     -21.778 -14.494  41.796  1.00 31.45 LIG 0.16  HD
ATOM      9  C   MET X   2     -23.451 -13.692  41.165  1.00 32.92 LIG 0.26  C 
ATOM     10 O    MET X   2     -24.236 -12.787  41.372  1.00 32.35 LIG-0.27  OA
BRANCH 9 11
ATOM     11  CA  MET X   2     -23.770 -14.710  40.105  1.00 34.28 LIG 0.40  C 
ATOM     12  N   MET X   2     -25.250 -14.726  39.774  1.00 35.36 LIG 0.61  N 
BRANCH 11 13
ATOM     13  CB  MET X   2     -22.959 -14.389  38.861  1.00 35.71 LIG 0.06  C 
BRANCH 13 14
ATOM     14  CG  MET X   2     -23.153 -12.996  38.327  1.00 37.62 LIG 0.08  C 
BRANCH 14 15
ATOM     15 SD   MET X   2     -21.681 -12.101  37.761  1.00 39.06 LIG-0.17  SA
ATOM     16  CE  MET X   2     -20.459 -13.447  37.685  1.00 45.88 LIG 0.09  C 
ENDBRANCH 14 15
ENDBRANCH 13 14
ENDBRANCH 11 13
ENDBRANCH 9 11
ENDBRANCH 6 7
BRANCH 6 17
ATOM     17  CB  TRP X   3     -20.992 -13.336  43.914  1.00 29.85 LIG 0.07  C 
BRANCH 17 18
ATOM     18  CG  TRP X   3     -19.780 -13.979  43.294  1.00 29.58 LIG-0.03  A 
ATOM     19  CD1 TRP X   3     -19.710 -15.237  42.760  1.00 26.84 LIG 0.10  A 
ATOM     20  NE1 TRP X   3     -18.442 -15.473  42.299  1.00 29.47 LIG-0.36  N 
ATOM     21 HE1  TRP X   3     -18.176 -16.204  41.930  1.00 29.47 LIG 0.17  HD
ATOM     22  CE2 TRP X   3     -17.657 -14.363  42.514  1.00 27.62 LIG 0.04  A 
ATOM     23  CZ2 TRP X   3     -16.282 -14.126  42.212  1.00 28.85 LIG 0.03  A 
ATOM     24  CD2 TRP X   3     -18.469 -13.396  43.144  1.00 25.33 LIG-0.00  A 
ATOM     25  CH2 TRP X   3     -15.746 -12.879  42.557  1.00 28.18 LIG 0.00  A 
ATOM     26  CZ3 TRP X   3     -16.538 -11.909  43.198  1.00 26.79 LIG 0.00  A 
ATOM     27  CE3 TRP X   3     -17.899 -12.165  43.509  1.00 25.86 LIG 0.01  A 
ENDBRANCH 17 18
ENDBRANCH 6 17
ENDBRANCH 3 6
ENDBRANCH 1 2
BRANCH 1 28
ATOM     28  CB  ARG X   4     -18.852  -9.695  41.716  1.00 29.55 LIG 0.04  C 
BRANCH 28 29
ATOM     29  CG  ARG X   4     -19.592  -8.642  42.536  1.00 28.17 LIG 0.02  C 
BRANCH 29 30
ATOM     30  CD  ARG X   4     -19.213  -7.232  42.059  1.00 27.09 LIG 0.14  C 
BRANCH 30 31
ATOM     31  NE  ARG X   4     -19.209  -6.312  43.193  1.00 25.46 LIG-0.23  N 
ATOM     32 HE   ARG X   4     -18.453  -6.103  43.546  1.00 25.46 LIG 0.18  HD
ATOM     33  CZ  ARG X   4     -20.318  -5.779  43.709  1.00 27.27 LIG 0.67  C 
ATOM     34  NH2 ARG X   4     -20.252  -4.939  44.739  1.00 24.12 LIG-0.23  N 
ATOM     35  NH1 ARG X   4     -21.501  -6.108  43.195  1.00 21.32 LIG-0.23  N 
ATOM     36 1HH2 ARG X   4     -19.489  -4.735  45.079  1.00 24.12 LIG 0.17  HD
ATOM     37 2HH2 ARG X   4     -20.972  -4.600  45.065  1.00 24.12 LIG 0.17  HD
ATOM     38 2HH1 ARG X   4     -22.220  -5.770  43.522  1.00 21.32 LIG 0.17  HD
ATOM     39 1HH1 ARG X   4     -21.545  -6.659  42.536  1.00 21.32 LIG 0.17  HD
ENDBRANCH 30 31
ENDBRANCH 29 30
ENDBRANCH 28 29
ENDBRANCH 1 28
BRANCH 1 40
ATOM     40  C   ARG X   4     -18.899 -11.041  39.631  1.00 30.38 LIG 0.24  C 
ATOM     41 O    ARG X   4     -18.510 -12.196  39.687  1.00 31.87 LIG-0.27  OA
ATOM     42  N   PRO X   5     -18.591 -10.212  38.621  1.00 30.60 LIG-0.34  N 
ATOM     43  CA  PRO X   5     -17.927 -10.721  37.399  1.00 31.31 LIG 0.18  C 
ATOM     44  CD  PRO X   5     -18.911  -8.761  38.544  1.00 29.99 LIG 0.13  C 
ATOM     45  CB  PRO X   5     -18.132  -9.581  36.396  1.00 30.70 LIG 0.04  C 
ATOM     46  CG  PRO X   5     -18.262  -8.295  37.266  1.00 29.42 LIG 0.02  C 
BRANCH 43 47
ATOM     47  C   PRO X   5     -16.416 -11.074  37.475  1.00 32.23 LIG 0.24  C 
ATOM     48 O    PRO X   5     -15.594 -10.251  37.982  1.00 32.23 LIG-0.27  OA
ATOM     49  N   TRP X   6     -16.051 -12.265  37.012  1.00 33.50 LIG-0.34  N 
ATOM     50 H    TRP X   6     -16.575 -12.804  36.593  1.00 33.50 LIG 0.16  HD
BRANCH 49 51
ATOM     51  CA  TRP X   6     -14.678 -12.759  37.189  1.00 34.66 LIG 0.19  C 
BRANCH 51 52
ATOM     52  CB  TRP X   6     -13.705 -11.920  36.336  1.00 34.41 LIG 0.08  C 
BRANCH 52 53
ATOM     53  CG  TRP X   6     -13.854 -12.119  34.839  1.00 32.39 LIG-0.03  A 
ATOM     54  CD2 TRP X   6     -14.906 -11.612  33.988  1.00 31.68 LIG-0.00  A 
ATOM     55  CE2 TRP X   6     -14.634 -12.066  32.682  1.00 33.29 LIG 0.04  A 
ATOM     56  CE3 TRP X   6     -16.036 -10.812  34.205  1.00 33.66 LIG 0.01  A 
ATOM     57  CZ2 TRP X   6     -15.440 -11.725  31.587  1.00 33.18 LIG 0.03  A 
ATOM     58  NE1 TRP X   6     -13.473 -12.799  32.736  1.00 30.87 LIG-0.36  N 
ATOM     59  CH2 TRP X   6     -16.529 -10.948  31.819  1.00 32.36 LIG 0.00  A 
ATOM     60  CZ3 TRP X   6     -16.849 -10.498  33.119  1.00 32.37 LIG 0.00  A 
ATOM     61 HE1  TRP X   6     -13.089 -13.175  32.064  1.00 30.87 LIG 0.17  HD
ATOM     62  CD1 TRP X   6     -13.026 -12.836  34.029  1.00 30.01 LIG 0.10  A 
ENDBRANCH 52 53
ENDBRANCH 51 52
BRANCH 51 63
ATOM     63  C   TRP X   6     -14.235 -12.790  38.666  1.00 36.76 LIG 0.20  C 
ATOM     64 O    TRP X   6     -13.100 -12.476  39.068  1.00 37.86 LIG-0.65  OA
ATOM     65 OXT  TRP X   6     -15.017 -13.164  39.548  1.00 39.11 LIG-0.65  OA
ENDBRANCH 51 63
ENDBRANCH 49 51
ENDBRANCH 43 47
ENDBRANCH 1 40
TORSDOF 19
ENDMDL
MODEL 78
USER: ADFR SOLUTION from run 71
USER: SCORE 17.836458 LL:  -4.629 LR: -13.876 RR:   0.000 FEB:  -8.209
USER: RMSD 5.970569
USER: SEED 70
USER: STATUS no improvement in best in 13 clusters for 5 generations
USER: GENES 21
USER: genes 0 Translation |==|  0.53282 0.63009 0.30288
USER: genes 1 Rotation |==|  0.16115 0.59012 0.28474 0.78411
USER: genes 2 Torsion [CB]-CA--N-[C] |==|  0.83818
USER: genes 3 Torsion [N]-C--CA-[N] |==|  0.92256
USER: genes 4 Torsion [C]-CA--N-[C] |==|  0.60556
USER: genes 5 Torsion [N]-C--CA-[N] |==|  0.04941
USER: genes 6 Torsion [C]-CA--CB-[CG] |==|  0.21483
USER: genes 7 Torsion [CA]-CB--CG-[SD] |==|  0.45764
USER: genes 8 Torsion [CB]-CG--SD-[CE] |==|  0.38605
USER: genes 9 Torsion [C]-CA--CB-[CG] |==|  0.93673
USER: genes 10 Torsion [CA]-CB--CG-[CD2] |==|  0.81865
USER: genes 11 Torsion [N]-CA--CB-[CG] |==|  0.33516
USER: genes 12 Torsion [CA]-CB--CG-[CD] |==|  0.39216
USER: genes 13 Torsion [CB]-CG--CD-[NE] |==|  0.22826
USER: genes 14 Torsion [CG]-CD--NE-[CZ] |==|  0.45268
USER: genes 15 Torsion [N]-CA--C-[N] |==|  0.42091
USER: genes 16 Torsion [N]-CA--C-[O] |==|  0.28202
USER: genes 17 Torsion [C]-N--CA-[CB] |==|  0.82462
USER: genes 18 Torsion [N]-CA--CB-[CG] |==|  0.77949
USER: genes 19 Torsion [CA]-CB--CG-[CD2] |==|  0.52527
USER: genes 20 Torsion [N]-CA--C-[O] |==|  0.20055
ROOT
ATOM      1  CA  ARG X   4     -20.676  -9.939  34.998  1.00 29.51 LIG 0.18  C 
ENDROOT
BRANCH 1 2
ATOM      2  N   ARG X   4     -21.945 -10.658  34.932  1.00 29.26 LIG-0.35  N 
ATOM      3  C   TRP X   3     -22.600 -11.091  36.025  1.00 30.37 LIG 0.24  C 
ATOM      4 O    TRP X   3     -22.204 -10.889  37.193  1.00 30.38 LIG-0.27  OA
ATOM      5 H    ARG X   4     -22.234 -10.779  34.131  1.00 29.26 LIG 0.16  HD
BRANCH 3 6
ATOM      6  CA  TRP X   3     -23.917 -11.856  35.774  1.00 30.62 LIG 0.18  C 
BRANCH 6 7
ATOM      7  N   TRP X   3     -24.574 -11.451  34.520  1.00 31.45 LIG-0.34  N 
ATOM      8 H    TRP X   3     -24.048 -11.289  33.859  1.00 31.45 LIG 0.16  HD
ATOM      9  C   MET X   2     -25.902 -11.364  34.488  1.00 32.92 LIG 0.26  C 
ATOM     10 O    MET X   2     -26.599 -11.687  35.431  1.00 32.35 LIG-0.27  OA
BRANCH 9 11
ATOM     11  CA  MET X   2     -26.560 -10.888  33.222  1.00 34.28 LIG 0.40  C 
ATOM     12  N   MET X   2     -25.623 -10.986  32.035  1.00 35.36 LIG 0.61  N 
BRANCH 11 13
ATOM     13  CB  MET X   2     -27.806 -11.723  32.976  1.00 35.71 LIG 0.06  C 
BRANCH 13 14
ATOM     14  CG  MET X   2     -28.989 -11.351  33.829  1.00 37.62 LIG 0.08  C 
BRANCH 14 15
ATOM     15 SD   MET X   2     -30.614 -11.981  33.331  1.00 39.06 LIG-0.17  SA
ATOM     16  CE  MET X   2     -31.322 -12.441  34.944  1.00 45.88 LIG 0.09  C 
ENDBRANCH 14 15
ENDBRANCH 13 14
ENDBRANCH 11 13
ENDBRANCH 9 11
ENDBRANCH 6 7
BRANCH 6 17
ATOM     17  CB  TRP X   3     -23.697 -13.368  35.854  1.00 29.85 LIG 0.07  C 
BRANCH 17 18
ATOM     18  CG  TRP X   3     -22.264 -13.754  35.607  1.00 29.58 LIG-0.03  A 
ATOM     19  CD1 TRP X   3     -21.408 -14.326  36.508  1.00 26.84 LIG 0.10  A 
ATOM     20  NE1 TRP X   3     -20.185 -14.524  35.923  1.00 29.47 LIG-0.36  N 
ATOM     21 HE1  TRP X   3     -19.499 -14.867  36.312  1.00 29.47 LIG 0.17  HD
ATOM     22  CE2 TRP X   3     -20.223 -14.092  34.616  1.00 27.62 LIG 0.04  A 
ATOM     23  CZ2 TRP X   3     -19.208 -14.087  33.612  1.00 28.85 LIG 0.03  A 
ATOM     24  CD2 TRP X   3     -21.522 -13.596  34.379  1.00 25.33 LIG-0.00  A 
ATOM     25  CH2 TRP X   3     -19.543 -13.572  32.352  1.00 28.18 LIG 0.00  A 
ATOM     26  CZ3 TRP X   3     -20.830 -13.062  32.104  1.00 26.79 LIG 0.00  A 
ATOM     27  CE3 TRP X   3     -21.822 -13.055  33.118  1.00 25.86 LIG 0.01  A 
ENDBRANCH 17 18
ENDBRANCH 6 17
ENDBRANCH 3 6
ENDBRANCH 1 2
BRANCH 1 28
ATOM     28  CB  ARG X   4     -20.796  -8.648  35.835  1.00 29.55 LIG 0.04  C 
BRANCH 28 29
ATOM     29  CG  ARG X   4     -19.866  -8.590  37.044  1.00 28.17 LIG 0.02  C 
BRANCH 29 30
ATOM     30  CD  ARG X   4     -19.311  -7.169  37.221  1.00 27.09 LIG 0.14  C 
BRANCH 30 31
ATOM     31  NE  ARG X   4     -20.287  -6.343  37.927  1.00 25.46 LIG-0.23  N 
ATOM     32 HE   ARG X   4     -21.101  -6.618  37.967  1.00 25.46 LIG 0.18  HD
ATOM     33  CZ  ARG X   4     -19.981  -5.184  38.513  1.00 27.27 LIG 0.67  C 
ATOM     34  NH2 ARG X   4     -20.912  -4.479  39.150  1.00 24.12 LIG-0.23  N 
ATOM     35  NH1 ARG X   4     -18.733  -4.727  38.443  1.00 21.32 LIG-0.23  N 
ATOM     36 1HH2 ARG X   4     -21.720  -4.768  39.186  1.00 24.12 LIG 0.17  HD
ATOM     37 2HH2 ARG X   4     -20.705  -3.733  39.525  1.00 24.12 LIG 0.17  HD
ATOM     38 2HH1 ARG X   4     -18.527  -3.981  38.817  1.00 21.32 LIG 0.17  HD
ATOM     39 1HH1 ARG X   4     -18.133  -5.178  38.023  1.00 21.32 LIG 0.17  HD
ENDBRANCH 30 31
ENDBRANCH 29 30
ENDBRANCH 28 29
ENDBRANCH 1 28
BRANCH 1 40
ATOM     40  C   ARG X   4     -19.666 -10.851  35.647  1.00 30.38 LIG 0.24  C 
ATOM     41 O    ARG X   4     -20.051 -11.679  36.457  1.00 31.87 LIG-0.27  OA
ATOM     42  N   PRO X   5     -18.375 -10.695  35.316  1.00 30.60 LIG-0.34  N 
ATOM     43  CA  PRO X   5     -17.355 -11.671  35.762  1.00 31.31 LIG 0.18  C 
ATOM     44  CD  PRO X   5     -17.813  -9.626  34.446  1.00 29.99 LIG 0.13  C 
ATOM     45  CB  PRO X   5     -16.158 -11.354  34.860  1.00 30.70 LIG 0.04  C 
ATOM     46  CG  PRO X   5     -16.323  -9.852  34.482  1.00 29.42 LIG 0.02  C 
BRANCH 43 47
ATOM     47  C   PRO X   5     -16.903 -11.635  37.248  1.00 32.23 LIG 0.24  C 
ATOM     48 O    PRO X   5     -17.358 -12.484  38.073  1.00 32.23 LIG-0.27  OA
ATOM     49  N   TRP X   6     -16.020 -10.701  37.588  1.00 33.50 LIG-0.34  N 
ATOM     50 H    TRP X   6     -15.760 -10.068  37.066  1.00 33.50 LIG 0.16  HD
BRANCH 49 51
ATOM     51  CA  TRP X   6     -15.407 -10.688  38.923  1.00 34.66 LIG 0.19  C 
BRANCH 51 52
ATOM     52  CB  TRP X   6     -16.493 -10.466  39.995  1.00 34.41 LIG 0.08  C 
BRANCH 52 53
ATOM     53  CG  TRP X   6     -16.931  -9.021  40.152  1.00 32.39 LIG-0.03  A 
ATOM     54  CD2 TRP X   6     -17.784  -8.471  41.180  1.00 31.68 LIG-0.00  A 
ATOM     55  CE2 TRP X   6     -17.925  -7.096  40.906  1.00 33.29 LIG 0.04  A 
ATOM     56  CE3 TRP X   6     -18.426  -9.006  42.305  1.00 33.66 LIG 0.01  A 
ATOM     57  CZ2 TRP X   6     -18.664  -6.238  41.733  1.00 33.18 LIG 0.03  A 
ATOM     58  NE1 TRP X   6     -17.188  -6.824  39.779  1.00 30.87 LIG-0.36  N 
ATOM     59  CH2 TRP X   6     -19.277  -6.778  42.819  1.00 32.36 LIG 0.00  A 
ATOM     60  CZ3 TRP X   6     -19.182  -8.157  43.109  1.00 32.37 LIG 0.00  A 
ATOM     61 HE1  TRP X   6     -17.102  -6.050  39.414  1.00 30.87 LIG 0.17  HD
ATOM     62  CD1 TRP X   6     -16.612  -7.982  39.331  1.00 30.01 LIG 0.10  A 
ENDBRANCH 52 53
ENDBRANCH 51 52
BRANCH 51 63
ATOM     63  C   TRP X   6     -14.585 -11.958  39.223  1.00 36.76 LIG 0.20  C 
ATOM     64 O    TRP X   6     -13.485 -12.224  38.707  1.00 37.86 LIG-0.65  OA
ATOM     65 OXT  TRP X   6     -15.014 -12.811  40.009  1.00 39.11 LIG-0.65  OA
ENDBRANCH 51 63
ENDBRANCH 49 51
ENDBRANCH 43 47
ENDBRANCH 1 40
TORSDOF 19
ENDMDL
MODEL 79
USER: ADFR SOLUTION from run 54
USER: SCORE 20.003471 LL:  -6.452 LR: -13.881 RR:   0.000 FEB:  -8.213
USER: RMSD 5.620027
USER: SEED 53
USER: STATUS no improvement in best in 3 clusters for 5 generations
USER: GENES 21
USER: genes 0 Translation |==|  0.72147 0.71570 0.49979
USER: genes 1 Rotation |==|  0.33878 0.63241 0.12943 0.76297
USER: genes 2 Torsion [CB]-CA--N-[C] |==|  0.78181
USER: genes 3 Torsion [N]-C--CA-[N] |==|  0.35669
USER: genes 4 Torsion [C]-CA--N-[C] |==|  0.80393
USER: genes 5 Torsion [N]-C--CA-[N] |==|  0.40900
USER: genes 6 Torsion [C]-CA--CB-[CG] |==|  0.17072
USER: genes 7 Torsion [CA]-CB--CG-[SD] |==|  0.65347
USER: genes 8 Torsion [CB]-CG--SD-[CE] |==|  0.83505
USER: genes 9 Torsion [C]-CA--CB-[CG] |==|  0.07490
USER: genes 10 Torsion [CA]-CB--CG-[CD2] |==|  0.65519
USER: genes 11 Torsion [N]-CA--CB-[CG] |==|  0.17763
USER: genes 12 Torsion [CA]-CB--CG-[CD] |==|  0.32624
USER: genes 13 Torsion [CB]-CG--CD-[NE] |==|  0.37786
USER: genes 14 Torsion [CG]-CD--NE-[CZ] |==|  0.20372
USER: genes 15 Torsion [N]-CA--C-[N] |==|  0.19903
USER: genes 16 Torsion [N]-CA--C-[O] |==|  0.92975
USER: genes 17 Torsion [C]-N--CA-[CB] |==|  0.30863
USER: genes 18 Torsion [N]-CA--CB-[CG] |==|  0.95776
USER: genes 19 Torsion [CA]-CB--CG-[CD2] |==|  0.26154
USER: genes 20 Torsion [N]-CA--C-[O] |==|  0.78162
ROOT
ATOM      1  CA  ARG X   4     -16.714  -8.270  38.690  1.00 29.51 LIG 0.18  C 
ENDROOT
BRANCH 1 2
ATOM      2  N   ARG X   4     -17.781  -7.977  37.737  1.00 29.26 LIG-0.35  N 
ATOM      3  C   TRP X   3     -19.063  -8.331  37.940  1.00 30.37 LIG 0.24  C 
ATOM      4 O    TRP X   3     -19.465  -8.911  38.972  1.00 30.38 LIG-0.27  OA
ATOM      5 H    ARG X   4     -17.514  -7.557  37.036  1.00 29.26 LIG 0.16  HD
BRANCH 3 6
ATOM      6  CA  TRP X   3     -20.058  -7.966  36.819  1.00 30.62 LIG 0.18  C 
BRANCH 6 7
ATOM      7  N   TRP X   3     -20.866  -9.118  36.384  1.00 31.45 LIG-0.34  N 
ATOM      8 H    TRP X   3     -21.696  -9.096  36.604  1.00 31.45 LIG 0.16  HD
ATOM      9  C   MET X   2     -20.277 -10.095  35.696  1.00 32.92 LIG 0.26  C 
ATOM     10 O    MET X   2     -19.115 -10.031  35.340  1.00 32.35 LIG-0.27  OA
BRANCH 9 11
ATOM     11  CA  MET X   2     -21.094 -11.297  35.312  1.00 34.28 LIG 0.40  C 
ATOM     12  N   MET X   2     -20.648 -11.876  33.985  1.00 35.36 LIG 0.61  N 
BRANCH 11 13
ATOM     13  CB  MET X   2     -20.967 -12.342  36.409  1.00 35.71 LIG 0.06  C 
BRANCH 13 14
ATOM     14  CG  MET X   2     -21.475 -11.904  37.756  1.00 37.62 LIG 0.08  C 
BRANCH 14 15
ATOM     15 SD   MET X   2     -20.333 -12.012  39.160  1.00 39.06 LIG-0.17  SA
ATOM     16  CE  MET X   2     -19.950 -13.792  39.164  1.00 45.88 LIG 0.09  C 
ENDBRANCH 14 15
ENDBRANCH 13 14
ENDBRANCH 11 13
ENDBRANCH 9 11
ENDBRANCH 6 7
BRANCH 6 17
ATOM     17  CB  TRP X   3     -20.922  -6.768  37.219  1.00 29.85 LIG 0.07  C 
BRANCH 17 18
ATOM     18  CG  TRP X   3     -20.233  -5.869  38.209  1.00 29.58 LIG-0.03  A 
ATOM     19  CD1 TRP X   3     -19.013  -5.269  38.051  1.00 26.84 LIG 0.10  A 
ATOM     20  NE1 TRP X   3     -18.712  -4.532  39.166  1.00 29.47 LIG-0.36  N 
ATOM     21 HE1  TRP X   3     -17.990  -4.078  39.281  1.00 29.47 LIG 0.17  HD
ATOM     22  CE2 TRP X   3     -19.741  -4.629  40.075  1.00 27.62 LIG 0.04  A 
ATOM     23  CZ2 TRP X   3     -19.890  -4.049  41.372  1.00 28.85 LIG 0.03  A 
ATOM     24  CD2 TRP X   3     -20.722  -5.468  39.506  1.00 25.33 LIG-0.00  A 
ATOM     25  CH2 TRP X   3     -21.065  -4.333  42.079  1.00 28.18 LIG 0.00  A 
ATOM     26  CZ3 TRP X   3     -22.047  -5.179  41.531  1.00 26.79 LIG 0.00  A 
ATOM     27  CE3 TRP X   3     -21.876  -5.764  40.250  1.00 25.86 LIG 0.01  A 
ENDBRANCH 17 18
ENDBRANCH 6 17
ENDBRANCH 3 6
ENDBRANCH 1 2
BRANCH 1 28
ATOM     28  CB  ARG X   4     -16.725  -7.284  39.877  1.00 29.55 LIG 0.04  C 
BRANCH 28 29
ATOM     29  CG  ARG X   4     -17.978  -7.354  40.745  1.00 28.17 LIG 0.02  C 
BRANCH 29 30
ATOM     30  CD  ARG X   4     -17.612  -7.780  42.175  1.00 27.09 LIG 0.14  C 
BRANCH 30 31
ATOM     31  NE  ARG X   4     -18.331  -6.949  43.137  1.00 25.46 LIG-0.23  N 
ATOM     32 HE   ARG X   4     -17.889  -6.351  43.569  1.00 25.46 LIG 0.18  HD
ATOM     33  CZ  ARG X   4     -19.637  -7.069  43.378  1.00 27.27 LIG 0.67  C 
ATOM     34  NH2 ARG X   4     -20.240  -6.276  44.260  1.00 24.12 LIG-0.23  N 
ATOM     35  NH1 ARG X   4     -20.336  -8.004  42.739  1.00 21.32 LIG-0.23  N 
ATOM     36 1HH2 ARG X   4     -19.787  -5.679  44.682  1.00 24.12 LIG 0.17  HD
ATOM     37 2HH2 ARG X   4     -21.083  -6.361  44.409  1.00 24.12 LIG 0.17  HD
ATOM     38 2HH1 ARG X   4     -21.178  -8.089  42.889  1.00 21.32 LIG 0.17  HD
ATOM     39 1HH1 ARG X   4     -19.945  -8.523  42.176  1.00 21.32 LIG 0.17  HD
ENDBRANCH 30 31
ENDBRANCH 29 30
ENDBRANCH 28 29
ENDBRANCH 1 28
BRANCH 1 40
ATOM     40  C   ARG X   4     -16.937  -9.666  39.212  1.00 30.38 LIG 0.24  C 
ATOM     41 O    ARG X   4     -17.303  -9.815  40.367  1.00 31.87 LIG-0.27  OA
ATOM     42  N   PRO X   5     -16.702 -10.693  38.380  1.00 30.60 LIG-0.34  N 
ATOM     43  CA  PRO X   5     -17.080 -12.074  38.755  1.00 31.31 LIG 0.18  C 
ATOM     44  CD  PRO X   5     -16.128 -10.601  37.010  1.00 29.99 LIG 0.13  C 
ATOM     45  CB  PRO X   5     -17.018 -12.822  37.420  1.00 30.70 LIG 0.04  C 
ATOM     46  CG  PRO X   5     -15.985 -12.033  36.561  1.00 29.42 LIG 0.02  C 
BRANCH 43 47
ATOM     47  C   PRO X   5     -16.205 -12.817  39.803  1.00 32.23 LIG 0.24  C 
ATOM     48 O    PRO X   5     -14.990 -12.493  39.963  1.00 32.23 LIG-0.27  OA
ATOM     49  N   TRP X   6     -16.798 -13.770  40.517  1.00 33.50 LIG-0.34  N 
ATOM     50 H    TRP X   6     -17.595 -14.059  40.371  1.00 33.50 LIG 0.16  HD
BRANCH 49 51
ATOM     51  CA  TRP X   6     -16.107 -14.414  41.642  1.00 34.66 LIG 0.19  C 
BRANCH 51 52
ATOM     52  CB  TRP X   6     -16.776 -14.004  42.970  1.00 34.41 LIG 0.08  C 
BRANCH 52 53
ATOM     53  CG  TRP X   6     -17.699 -12.804  42.862  1.00 32.39 LIG-0.03  A 
ATOM     54  CD2 TRP X   6     -19.128 -12.815  42.653  1.00 31.68 LIG-0.00  A 
ATOM     55  CE2 TRP X   6     -19.547 -11.470  42.603  1.00 33.29 LIG 0.04  A 
ATOM     56  CE3 TRP X   6     -20.087 -13.827  42.518  1.00 33.66 LIG 0.01  A 
ATOM     57  CZ2 TRP X   6     -20.893 -11.109  42.447  1.00 33.18 LIG 0.03  A 
ATOM     58  NE1 TRP X   6     -18.434 -10.686  42.783  1.00 30.87 LIG-0.36  N 
ATOM     59  CH2 TRP X   6     -21.806 -12.106  42.319  1.00 32.36 LIG 0.00  A 
ATOM     60  CZ3 TRP X   6     -21.419 -13.465  42.336  1.00 32.37 LIG 0.00  A 
ATOM     61 HE1  TRP X   6     -18.427  -9.826  42.806  1.00 30.87 LIG 0.17  HD
ATOM     62  CD1 TRP X   6     -17.336 -11.493  42.923  1.00 30.01 LIG 0.10  A 
ENDBRANCH 52 53
ENDBRANCH 51 52
BRANCH 51 63
ATOM     63  C   TRP X   6     -16.037 -15.948  41.508  1.00 36.76 LIG 0.20  C 
ATOM     64 O    TRP X   6     -16.978 -16.722  41.760  1.00 37.86 LIG-0.65  OA
ATOM     65 OXT  TRP X   6     -14.990 -16.499  41.147  1.00 39.11 LIG-0.65  OA
ENDBRANCH 51 63
ENDBRANCH 49 51
ENDBRANCH 43 47
ENDBRANCH 1 40
TORSDOF 19
ENDMDL
MODEL 80
USER: ADFR SOLUTION from run 6
USER: SCORE 18.756021 LL:  -5.341 LR: -13.856 RR:   0.000 FEB:  -8.188
USER: RMSD 5.162232
USER: SEED 150563
USER: STATUS no improvement in best in 5 clusters for 5 generations
USER: GENES 21
USER: genes 0 Translation |==|  0.45682 0.45821 0.58008
USER: genes 1 Rotation |==|  0.60171 0.57824 0.48107 0.98288
USER: genes 2 Torsion [CB]-CA--N-[C] |==|  0.77635
USER: genes 3 Torsion [N]-C--CA-[N] |==|  0.36674
USER: genes 4 Torsion [C]-CA--N-[C] |==|  0.79050
USER: genes 5 Torsion [N]-C--CA-[N] |==|  0.20041
USER: genes 6 Torsion [C]-CA--CB-[CG] |==|  0.77156
USER: genes 7 Torsion [CA]-CB--CG-[SD] |==|  0.34965
USER: genes 8 Torsion [CB]-CG--SD-[CE] |==|  0.20050
USER: genes 9 Torsion [C]-CA--CB-[CG] |==|  0.42102
USER: genes 10 Torsion [CA]-CB--CG-[CD2] |==|  0.60395
USER: genes 11 Torsion [N]-CA--CB-[CG] |==|  0.02676
USER: genes 12 Torsion [CA]-CB--CG-[CD] |==|  0.58703
USER: genes 13 Torsion [CB]-CG--CD-[NE] |==|  0.33094
USER: genes 14 Torsion [CG]-CD--NE-[CZ] |==|  0.47132
USER: genes 15 Torsion [N]-CA--C-[N] |==|  0.15119
USER: genes 16 Torsion [N]-CA--C-[O] |==|  0.66861
USER: genes 17 Torsion [C]-N--CA-[CB] |==|  0.30504
USER: genes 18 Torsion [N]-CA--CB-[CG] |==|  0.95150
USER: genes 19 Torsion [CA]-CB--CG-[CD2] |==|  0.80636
USER: genes 20 Torsion [N]-CA--C-[O] |==|  0.15544
ROOT
ATOM      1  CA  ARG X   4     -22.272 -13.291  40.195  1.00 29.51 LIG 0.18  C 
ENDROOT
BRANCH 1 2
ATOM      2  N   ARG X   4     -22.895 -12.743  38.994  1.00 29.26 LIG-0.35  N 
ATOM      3  C   TRP X   3     -22.566 -13.141  37.751  1.00 30.37 LIG 0.24  C 
ATOM      4 O    TRP X   3     -21.727 -14.035  37.512  1.00 30.38 LIG-0.27  OA
ATOM      5 H    ARG X   4     -23.490 -12.144  39.154  1.00 29.26 LIG 0.16  HD
BRANCH 3 6
ATOM      6  CA  TRP X   3     -23.304 -12.439  36.591  1.00 30.62 LIG 0.18  C 
BRANCH 6 7
ATOM      7  N   TRP X   3     -22.386 -11.983  35.533  1.00 31.45 LIG-0.34  N 
ATOM      8 H    TRP X   3     -22.381 -12.455  34.815  1.00 31.45 LIG 0.16  HD
ATOM      9  C   MET X   2     -21.643 -10.899  35.749  1.00 32.92 LIG 0.26  C 
ATOM     10 O    MET X   2     -21.754 -10.222  36.753  1.00 32.35 LIG-0.27  OA
BRANCH 9 11
ATOM     11  CA  MET X   2     -20.663 -10.479  34.689  1.00 34.28 LIG 0.40  C 
ATOM     12  N   MET X   2     -21.365  -9.896  33.478  1.00 35.36 LIG 0.61  N 
BRANCH 11 13
ATOM     13  CB  MET X   2     -19.710  -9.455  35.285  1.00 35.71 LIG 0.06  C 
BRANCH 13 14
ATOM     14  CG  MET X   2     -20.240  -8.047  35.316  1.00 37.62 LIG 0.08  C 
BRANCH 14 15
ATOM     15 SD   MET X   2     -20.240  -7.185  36.911  1.00 39.06 LIG-0.17  SA
ATOM     16  CE  MET X   2     -18.462  -6.865  37.136  1.00 45.88 LIG 0.09  C 
ENDBRANCH 14 15
ENDBRANCH 13 14
ENDBRANCH 11 13
ENDBRANCH 9 11
ENDBRANCH 6 7
BRANCH 6 17
ATOM     17  CB  TRP X   3     -24.431 -13.318  36.045  1.00 29.85 LIG 0.07  C 
BRANCH 17 18
ATOM     18  CG  TRP X   3     -25.555 -12.509  35.456  1.00 29.58 LIG-0.03  A 
ATOM     19  CD1 TRP X   3     -25.434 -11.351  34.738  1.00 26.84 LIG 0.10  A 
ATOM     20  NE1 TRP X   3     -26.676 -10.900  34.375  1.00 29.47 LIG-0.36  N 
ATOM     21 HE1  TRP X   3     -26.832 -10.185  33.923  1.00 29.47 LIG 0.17  HD
ATOM     22  CE2 TRP X   3     -27.637 -11.767  34.844  1.00 27.62 LIG 0.04  A 
ATOM     23  CZ2 TRP X   3     -29.060 -11.726  34.725  1.00 28.85 LIG 0.03  A 
ATOM     24  CD2 TRP X   3     -26.967 -12.798  35.535  1.00 25.33 LIG-0.00  A 
ATOM     25  CH2 TRP X   3     -29.791 -12.764  35.319  1.00 28.18 LIG 0.00  A 
ATOM     26  CZ3 TRP X   3     -29.138 -13.792  36.023  1.00 26.79 LIG 0.00  A 
ATOM     27  CE3 TRP X   3     -27.725 -13.808  36.149  1.00 25.86 LIG 0.01  A 
ENDBRANCH 17 18
ENDBRANCH 6 17
ENDBRANCH 3 6
ENDBRANCH 1 2
BRANCH 1 28
ATOM     28  CB  ARG X   4     -22.890 -14.649  40.588  1.00 29.55 LIG 0.04  C 
BRANCH 28 29
ATOM     29  CG  ARG X   4     -23.832 -15.240  39.542  1.00 28.17 LIG 0.02  C 
BRANCH 29 30
ATOM     30  CD  ARG X   4     -24.935 -16.064  40.223  1.00 27.09 LIG 0.14  C 
BRANCH 30 31
ATOM     31  NE  ARG X   4     -26.242 -15.493  39.912  1.00 25.46 LIG-0.23  N 
ATOM     32 HE   ARG X   4     -26.270 -14.725  39.527  1.00 25.46 LIG 0.18  HD
ATOM     33  CZ  ARG X   4     -27.395 -16.101  40.194  1.00 27.27 LIG 0.67  C 
ATOM     34  NH2 ARG X   4     -28.556 -15.535  39.878  1.00 24.12 LIG-0.23  N 
ATOM     35  NH1 ARG X   4     -27.377 -17.280  40.813  1.00 21.32 LIG-0.23  N 
ATOM     36 1HH2 ARG X   4     -28.569 -14.769  39.489  1.00 24.12 LIG 0.17  HD
ATOM     37 2HH2 ARG X   4     -29.295 -15.935  40.064  1.00 24.12 LIG 0.17  HD
ATOM     38 2HH1 ARG X   4     -28.115 -17.679  40.999  1.00 21.32 LIG 0.17  HD
ATOM     39 1HH1 ARG X   4     -26.626 -17.642  41.026  1.00 21.32 LIG 0.17  HD
ENDBRANCH 30 31
ENDBRANCH 29 30
ENDBRANCH 28 29
ENDBRANCH 1 28
BRANCH 1 40
ATOM     40  C   ARG X   4     -20.806 -13.487  39.903  1.00 30.38 LIG 0.24  C 
ATOM     41 O    ARG X   4     -20.305 -14.582  40.098  1.00 31.87 LIG-0.27  OA
ATOM     42  N   PRO X   5     -20.108 -12.431  39.456  1.00 30.60 LIG-0.34  N 
ATOM     43  CA  PRO X   5     -18.720 -12.592  38.968  1.00 31.31 LIG 0.18  C 
ATOM     44  CD  PRO X   5     -20.611 -11.037  39.323  1.00 29.99 LIG 0.13  C 
ATOM     45  CB  PRO X   5     -18.470 -11.286  38.207  1.00 30.70 LIG 0.04  C 
ATOM     46  CG  PRO X   5     -19.412 -10.241  38.876  1.00 29.42 LIG 0.02  C 
BRANCH 43 47
ATOM     47  C   PRO X   5     -17.592 -12.803  40.015  1.00 32.23 LIG 0.24  C 
ATOM     48 O    PRO X   5     -16.639 -11.970  40.102  1.00 32.23 LIG-0.27  OA
ATOM     49  N   TRP X   6     -17.695 -13.867  40.807  1.00 33.50 LIG-0.34  N 
ATOM     50 H    TRP X   6     -18.286 -14.485  40.713  1.00 33.50 LIG 0.16  HD
BRANCH 49 51
ATOM     51  CA  TRP X   6     -16.774 -14.064  41.934  1.00 34.66 LIG 0.19  C 
BRANCH 51 52
ATOM     52  CB  TRP X   6     -17.526 -13.865  43.266  1.00 34.41 LIG 0.08  C 
BRANCH 52 53
ATOM     53  CG  TRP X   6     -18.847 -13.130  43.134  1.00 32.39 LIG-0.03  A 
ATOM     54  CD2 TRP X   6     -19.046 -11.735  42.810  1.00 31.68 LIG-0.00  A 
ATOM     55  CE2 TRP X   6     -20.436 -11.504  42.819  1.00 33.29 LIG 0.04  A 
ATOM     56  CE3 TRP X   6     -18.185 -10.673  42.504  1.00 33.66 LIG 0.01  A 
ATOM     57  CZ2 TRP X   6     -20.990 -10.254  42.507  1.00 33.18 LIG 0.03  A 
ATOM     58  NE1 TRP X   6     -21.049 -12.696  43.119  1.00 30.87 LIG-0.36  N 
ATOM     59  CH2 TRP X   6     -20.138  -9.239  42.212  1.00 32.36 LIG 0.00  A 
ATOM     60  CZ3 TRP X   6     -18.738  -9.426  42.222  1.00 32.37 LIG 0.00  A 
ATOM     61 HE1  TRP X   6     -21.898 -12.821  43.173  1.00 30.87 LIG 0.17  HD
ATOM     62  CD1 TRP X   6     -20.091 -13.654  43.319  1.00 30.01 LIG 0.10  A 
ENDBRANCH 52 53
ENDBRANCH 51 52
BRANCH 51 63
ATOM     63  C   TRP X   6     -16.063 -15.432  41.900  1.00 36.76 LIG 0.20  C 
ATOM     64 O    TRP X   6     -15.386 -15.851  40.944  1.00 37.86 LIG-0.65  OA
ATOM     65 OXT  TRP X   6     -16.157 -16.212  42.855  1.00 39.11 LIG-0.65  OA
ENDBRANCH 51 63
ENDBRANCH 49 51
ENDBRANCH 43 47
ENDBRANCH 1 40
TORSDOF 19
ENDMDL
MODEL 81
USER: ADFR SOLUTION from run 135
USER: SCORE 17.176443 LL:  -4.928 LR: -13.864 RR:   0.000 FEB:  -8.196
USER: RMSD 6.657226
USER: SEED 134
USER: STATUS no improvement in best in 13 clusters for 5 generations
USER: GENES 21
USER: genes 0 Translation |==|  0.60770 0.70141 0.35297
USER: genes 1 Rotation |==|  0.09787 0.55427 0.34871 0.74992
USER: genes 2 Torsion [CB]-CA--N-[C] |==|  0.34445
USER: genes 3 Torsion [N]-C--CA-[N] |==|  0.45803
USER: genes 4 Torsion [C]-CA--N-[C] |==|  0.62632
USER: genes 5 Torsion [N]-C--CA-[N] |==|  0.22877
USER: genes 6 Torsion [C]-CA--CB-[CG] |==|  0.38930
USER: genes 7 Torsion [CA]-CB--CG-[SD] |==|  0.35808
USER: genes 8 Torsion [CB]-CG--SD-[CE] |==|  0.11088
USER: genes 9 Torsion [C]-CA--CB-[CG] |==|  0.39143
USER: genes 10 Torsion [CA]-CB--CG-[CD2] |==|  0.70830
USER: genes 11 Torsion [N]-CA--CB-[CG] |==|  0.40973
USER: genes 12 Torsion [CA]-CB--CG-[CD] |==|  0.67043
USER: genes 13 Torsion [CB]-CG--CD-[NE] |==|  0.80762
USER: genes 14 Torsion [CG]-CD--NE-[CZ] |==|  0.32998
USER: genes 15 Torsion [N]-CA--C-[N] |==|  0.84013
USER: genes 16 Torsion [N]-CA--C-[O] |==|  0.44572
USER: genes 17 Torsion [C]-N--CA-[CB] |==|  0.81761
USER: genes 18 Torsion [N]-CA--CB-[CG] |==|  0.93051
USER: genes 19 Torsion [CA]-CB--CG-[CD2] |==|  0.83931
USER: genes 20 Torsion [N]-CA--C-[O] |==|  0.92457
ROOT
ATOM      1  CA  ARG X   4     -19.103  -8.548  35.937  1.00 29.51 LIG 0.18  C 
ENDROOT
BRANCH 1 2
ATOM      2  N   ARG X   4     -20.138  -9.492  36.351  1.00 29.26 LIG-0.35  N 
ATOM      3  C   TRP X   3     -20.844 -10.235  35.478  1.00 30.37 LIG 0.24  C 
ATOM      4 O    TRP X   3     -20.659 -10.211  34.243  1.00 30.38 LIG-0.27  OA
ATOM      5 H    ARG X   4     -20.253  -9.530  37.202  1.00 29.26 LIG 0.16  HD
BRANCH 3 6
ATOM      6  CA  TRP X   3     -21.918 -11.163  36.084  1.00 30.62 LIG 0.18  C 
BRANCH 6 7
ATOM      7  N   TRP X   3     -22.868 -11.661  35.074  1.00 31.45 LIG-0.34  N 
ATOM      8 H    TRP X   3     -22.518 -11.945  34.342  1.00 31.45 LIG 0.16  HD
ATOM      9  C   MET X   2     -24.171 -11.639  35.350  1.00 32.92 LIG 0.26  C 
ATOM     10 O    MET X   2     -24.601 -11.303  36.437  1.00 32.35 LIG-0.27  OA
BRANCH 9 11
ATOM     11  CA  MET X   2     -25.136 -12.089  34.288  1.00 34.28 LIG 0.40  C 
ATOM     12  N   MET X   2     -25.271 -13.598  34.259  1.00 35.36 LIG 0.61  N 
BRANCH 11 13
ATOM     13  CB  MET X   2     -26.488 -11.447  34.557  1.00 35.71 LIG 0.06  C 
BRANCH 13 14
ATOM     14  CG  MET X   2     -27.215 -10.977  33.326  1.00 37.62 LIG 0.08  C 
BRANCH 14 15
ATOM     15 SD   MET X   2     -28.935 -11.510  33.112  1.00 39.06 LIG-0.17  SA
ATOM     16  CE  MET X   2     -29.558 -11.375  34.817  1.00 45.88 LIG 0.09  C 
ENDBRANCH 14 15
ENDBRANCH 13 14
ENDBRANCH 11 13
ENDBRANCH 9 11
ENDBRANCH 6 7
BRANCH 6 17
ATOM     17  CB  TRP X   3     -21.275 -12.297  36.886  1.00 29.85 LIG 0.07  C 
BRANCH 17 18
ATOM     18  CG  TRP X   3     -22.037 -12.612  38.145  1.00 29.58 LIG-0.03  A 
ATOM     19  CD1 TRP X   3     -23.224 -13.288  38.230  1.00 26.84 LIG 0.10  A 
ATOM     20  NE1 TRP X   3     -23.615 -13.374  39.540  1.00 29.47 LIG-0.36  N 
ATOM     21 HE1  TRP X   3     -24.335 -13.753  39.819  1.00 29.47 LIG 0.17  HD
ATOM     22  CE2 TRP X   3     -22.679 -12.761  40.342  1.00 27.62 LIG 0.04  A 
ATOM     23  CZ2 TRP X   3     -22.641 -12.591  41.760  1.00 28.85 LIG 0.03  A 
ATOM     24  CD2 TRP X   3     -21.666 -12.265  39.496  1.00 25.33 LIG-0.00  A 
ATOM     25  CH2 TRP X   3     -21.544 -11.910  42.303  1.00 28.18 LIG 0.00  A 
ATOM     26  CZ3 TRP X   3     -20.532 -11.398  41.471  1.00 26.79 LIG 0.00  A 
ATOM     27  CE3 TRP X   3     -20.593 -11.557  40.063  1.00 25.86 LIG 0.01  A 
ENDBRANCH 17 18
ENDBRANCH 6 17
ENDBRANCH 3 6
ENDBRANCH 1 2
BRANCH 1 28
ATOM     28  CB  ARG X   4     -19.383  -7.128  36.471  1.00 29.55 LIG 0.04  C 
BRANCH 28 29
ATOM     29  CG  ARG X   4     -18.131  -6.315  36.789  1.00 28.17 LIG 0.02  C 
BRANCH 29 30
ATOM     30  CD  ARG X   4     -18.100  -5.946  38.280  1.00 27.09 LIG 0.14  C 
BRANCH 30 31
ATOM     31  NE  ARG X   4     -19.152  -4.976  38.570  1.00 25.46 LIG-0.23  N 
ATOM     32 HE   ARG X   4     -19.127  -4.215  38.170  1.00 25.46 LIG 0.18  HD
ATOM     33  CZ  ARG X   4     -20.151  -5.209  39.424  1.00 27.27 LIG 0.67  C 
ATOM     34  NH2 ARG X   4     -21.086  -4.289  39.642  1.00 24.12 LIG-0.23  N 
ATOM     35  NH1 ARG X   4     -20.196  -6.370  40.074  1.00 21.32 LIG-0.23  N 
ATOM     36 1HH2 ARG X   4     -21.052  -3.535  39.230  1.00 24.12 LIG 0.17  HD
ATOM     37 2HH2 ARG X   4     -21.727  -4.448  40.194  1.00 24.12 LIG 0.17  HD
ATOM     38 2HH1 ARG X   4     -20.835  -6.528  40.627  1.00 21.32 LIG 0.17  HD
ATOM     39 1HH1 ARG X   4     -19.585  -6.961  39.941  1.00 21.32 LIG 0.17  HD
ENDBRANCH 30 31
ENDBRANCH 29 30
ENDBRANCH 28 29
ENDBRANCH 1 28
BRANCH 1 40
ATOM     40  C   ARG X   4     -17.791  -9.032  36.499  1.00 30.38 LIG 0.24  C 
ATOM     41 O    ARG X   4     -16.873  -9.275  35.733  1.00 31.87 LIG-0.27  OA
ATOM     42  N   PRO X   5     -17.698  -9.194  37.828  1.00 30.60 LIG-0.34  N 
ATOM     43  CA  PRO X   5     -16.394  -9.478  38.468  1.00 31.31 LIG 0.18  C 
ATOM     44  CD  PRO X   5     -18.806  -9.051  38.811  1.00 29.99 LIG 0.13  C 
ATOM     45  CB  PRO X   5     -16.665  -9.187  39.947  1.00 30.70 LIG 0.04  C 
ATOM     46  CG  PRO X   5     -18.192  -9.430  40.134  1.00 29.42 LIG 0.02  C 
BRANCH 43 47
ATOM     47  C   PRO X   5     -15.801 -10.908  38.325  1.00 32.23 LIG 0.24  C 
ATOM     48 O    PRO X   5     -14.563 -11.107  38.517  1.00 32.23 LIG-0.27  OA
ATOM     49  N   TRP X   6     -16.650 -11.884  38.019  1.00 33.50 LIG-0.34  N 
ATOM     50 H    TRP X   6     -17.475 -11.761  37.806  1.00 33.50 LIG 0.16  HD
BRANCH 49 51
ATOM     51  CA  TRP X   6     -16.221 -13.290  38.024  1.00 34.66 LIG 0.19  C 
BRANCH 51 52
ATOM     52  CB  TRP X   6     -15.175 -13.522  36.915  1.00 34.41 LIG 0.08  C 
BRANCH 52 53
ATOM     53  CG  TRP X   6     -15.260 -12.541  35.759  1.00 32.39 LIG-0.03  A 
ATOM     54  CD2 TRP X   6     -16.399 -12.291  34.906  1.00 31.68 LIG-0.00  A 
ATOM     55  CE2 TRP X   6     -16.004 -11.317  33.967  1.00 33.29 LIG 0.04  A 
ATOM     56  CE3 TRP X   6     -17.709 -12.787  34.856  1.00 33.66 LIG 0.01  A 
ATOM     57  CZ2 TRP X   6     -16.883 -10.807  33.001  1.00 33.18 LIG 0.03  A 
ATOM     58  NE1 TRP X   6     -14.700 -10.985  34.244  1.00 30.87 LIG-0.36  N 
ATOM     59  CH2 TRP X   6     -18.148 -11.300  32.971  1.00 32.36 LIG 0.00  A 
ATOM     60  CZ3 TRP X   6     -18.570 -12.297  33.877  1.00 32.37 LIG 0.00  A 
ATOM     61 HE1  TRP X   6     -14.232 -10.401  33.819  1.00 30.87 LIG 0.17  HD
ATOM     62  CD1 TRP X   6     -14.264 -11.732  35.305  1.00 30.01 LIG 0.10  A 
ENDBRANCH 52 53
ENDBRANCH 51 52
BRANCH 51 63
ATOM     63  C   TRP X   6     -15.687 -13.753  39.394  1.00 36.76 LIG 0.20  C 
ATOM     64 O    TRP X   6     -15.166 -13.002  40.238  1.00 37.86 LIG-0.65  OA
ATOM     65 OXT  TRP X   6     -15.739 -14.945  39.717  1.00 39.11 LIG-0.65  OA
ENDBRANCH 51 63
ENDBRANCH 49 51
ENDBRANCH 43 47
ENDBRANCH 1 40
TORSDOF 19
ENDMDL
MODEL 82
USER: ADFR SOLUTION from run 66
USER: SCORE 18.395377 LL:  -5.724 LR: -13.847 RR:   0.000 FEB:  -8.180
USER: RMSD 6.096586
USER: SEED 65
USER: STATUS no improvement in best in 8 clusters for 5 generations
USER: GENES 21
USER: genes 0 Translation |==|  0.50233 0.55429 0.42722
USER: genes 1 Rotation |==|  0.67583 0.25995 0.50388 0.90180
USER: genes 2 Torsion [CB]-CA--N-[C] |==|  0.53889
USER: genes 3 Torsion [N]-C--CA-[N] |==|  0.87298
USER: genes 4 Torsion [C]-CA--N-[C] |==|  0.80301
USER: genes 5 Torsion [N]-C--CA-[N] |==|  0.17239
USER: genes 6 Torsion [C]-CA--CB-[CG] |==|  0.68788
USER: genes 7 Torsion [CA]-CB--CG-[SD] |==|  0.37269
USER: genes 8 Torsion [CB]-CG--SD-[CE] |==|  0.92429
USER: genes 9 Torsion [C]-CA--CB-[CG] |==|  0.19728
USER: genes 10 Torsion [CA]-CB--CG-[CD2] |==|  0.08096
USER: genes 11 Torsion [N]-CA--CB-[CG] |==|  0.93334
USER: genes 12 Torsion [CA]-CB--CG-[CD] |==|  0.58414
USER: genes 13 Torsion [CB]-CG--CD-[NE] |==|  0.27646
USER: genes 14 Torsion [CG]-CD--NE-[CZ] |==|  0.53432
USER: genes 15 Torsion [N]-CA--C-[N] |==|  0.83536
USER: genes 16 Torsion [N]-CA--C-[O] |==|  0.44033
USER: genes 17 Torsion [C]-N--CA-[CB] |==|  0.84044
USER: genes 18 Torsion [N]-CA--CB-[CG] |==|  0.72526
USER: genes 19 Torsion [CA]-CB--CG-[CD2] |==|  0.26912
USER: genes 20 Torsion [N]-CA--C-[O] |==|  0.04186
ROOT
ATOM      1  CA  ARG X   4     -21.316 -11.417  37.329  1.00 29.51 LIG 0.18  C 
ENDROOT
BRANCH 1 2
ATOM      2  N   ARG X   4     -20.310 -10.553  36.718  1.00 29.26 LIG-0.35  N 
ATOM      3  C   TRP X   3     -19.518  -9.731  37.433  1.00 30.37 LIG 0.24  C 
ATOM      4 O    TRP X   3     -19.545  -9.658  38.680  1.00 30.38 LIG-0.27  OA
ATOM      5 H    ARG X   4     -20.272 -10.617  35.862  1.00 29.26 LIG 0.16  HD
BRANCH 3 6
ATOM      6  CA  TRP X   3     -18.527  -8.867  36.626  1.00 30.62 LIG 0.18  C 
BRANCH 6 7
ATOM      7  N   TRP X   3     -17.817  -9.640  35.592  1.00 31.45 LIG-0.34  N 
ATOM      8 H    TRP X   3     -18.041  -9.469  34.779  1.00 31.45 LIG 0.16  HD
ATOM      9  C   MET X   2     -16.900 -10.529  35.968  1.00 32.92 LIG 0.26  C 
ATOM     10 O    MET X   2     -16.566 -10.668  37.129  1.00 32.35 LIG-0.27  OA
BRANCH 9 11
ATOM     11  CA  MET X   2     -16.228 -11.359  34.909  1.00 34.28 LIG 0.40  C 
ATOM     12  N   MET X   2     -15.448 -10.497  33.936  1.00 35.36 LIG 0.61  N 
BRANCH 11 13
ATOM     13  CB  MET X   2     -15.300 -12.354  35.587  1.00 35.71 LIG 0.06  C 
BRANCH 13 14
ATOM     14  CG  MET X   2     -13.835 -12.113  35.342  1.00 37.62 LIG 0.08  C 
BRANCH 14 15
ATOM     15 SD   MET X   2     -12.721 -12.192  36.771  1.00 39.06 LIG-0.17  SA
ATOM     16  CE  MET X   2     -13.850 -11.730  38.122  1.00 45.88 LIG 0.09  C 
ENDBRANCH 14 15
ENDBRANCH 13 14
ENDBRANCH 11 13
ENDBRANCH 9 11
ENDBRANCH 6 7
BRANCH 6 17
ATOM     17  CB  TRP X   3     -19.217  -7.627  36.054  1.00 29.85 LIG 0.07  C 
BRANCH 17 18
ATOM     18  CG  TRP X   3     -19.563  -6.621  37.119  1.00 29.58 LIG-0.03  A 
ATOM     19  CD1 TRP X   3     -20.606  -5.735  37.092  1.00 26.84 LIG 0.10  A 
ATOM     20  NE1 TRP X   3     -20.596  -4.975  38.233  1.00 29.47 LIG-0.36  N 
ATOM     21 HE1  TRP X   3     -21.159  -4.353  38.419  1.00 29.47 LIG 0.17  HD
ATOM     22  CE2 TRP X   3     -19.546  -5.361  39.036  1.00 27.62 LIG 0.04  A 
ATOM     23  CZ2 TRP X   3     -19.125  -4.872  40.309  1.00 28.85 LIG 0.03  A 
ATOM     24  CD2 TRP X   3     -18.868  -6.400  38.364  1.00 25.33 LIG-0.00  A 
ATOM     25  CH2 TRP X   3     -18.000  -5.468  40.894  1.00 28.18 LIG 0.00  A 
ATOM     26  CZ3 TRP X   3     -17.305  -6.496  40.231  1.00 26.79 LIG 0.00  A 
ATOM     27  CE3 TRP X   3     -17.724  -6.958  38.957  1.00 25.86 LIG 0.01  A 
ENDBRANCH 17 18
ENDBRANCH 6 17
ENDBRANCH 3 6
ENDBRANCH 1 2
BRANCH 1 28
ATOM     28  CB  ARG X   4     -21.826 -12.484  36.338  1.00 29.55 LIG 0.04  C 
BRANCH 28 29
ATOM     29  CG  ARG X   4     -21.668 -12.108  34.868  1.00 28.17 LIG 0.02  C 
BRANCH 29 30
ATOM     30  CD  ARG X   4     -22.782 -12.753  34.030  1.00 27.09 LIG 0.14  C 
BRANCH 30 31
ATOM     31  NE  ARG X   4     -23.833 -11.774  33.769  1.00 25.46 LIG-0.23  N 
ATOM     32 HE   ARG X   4     -23.673 -10.947  33.941  1.00 25.46 LIG 0.18  HD
ATOM     33  CZ  ARG X   4     -25.031 -12.097  33.276  1.00 27.27 LIG 0.67  C 
ATOM     34  NH2 ARG X   4     -25.947 -11.159  33.051  1.00 24.12 LIG-0.23  N 
ATOM     35  NH1 ARG X   4     -25.311 -13.373  33.025  1.00 21.32 LIG-0.23  N 
ATOM     36 1HH2 ARG X   4     -25.771 -10.335  33.223  1.00 24.12 LIG 0.17  HD
ATOM     37 2HH2 ARG X   4     -26.716 -11.376  32.733  1.00 24.12 LIG 0.17  HD
ATOM     38 2HH1 ARG X   4     -26.080 -13.590  32.708  1.00 21.32 LIG 0.17  HD
ATOM     39 1HH1 ARG X   4     -24.722 -13.981  33.180  1.00 21.32 LIG 0.17  HD
ENDBRANCH 30 31
ENDBRANCH 29 30
ENDBRANCH 28 29
ENDBRANCH 1 28
BRANCH 1 40
ATOM     40  C   ARG X   4     -20.673 -12.109  38.504  1.00 30.38 LIG 0.24  C 
ATOM     41 O    ARG X   4     -21.138 -11.937  39.619  1.00 31.87 LIG-0.27  OA
ATOM     42  N   PRO X   5     -19.596 -12.874  38.270  1.00 30.60 LIG-0.34  N 
ATOM     43  CA  PRO X   5     -19.030 -13.733  39.335  1.00 31.31 LIG 0.18  C 
ATOM     44  CD  PRO X   5     -18.891 -13.026  36.968  1.00 29.99 LIG 0.13  C 
ATOM     45  CB  PRO X   5     -18.123 -14.692  38.558  1.00 30.70 LIG 0.04  C 
ATOM     46  CG  PRO X   5     -17.709 -13.909  37.277  1.00 29.42 LIG 0.02  C 
BRANCH 43 47
ATOM     47  C   PRO X   5     -18.212 -13.054  40.469  1.00 32.23 LIG 0.24  C 
ATOM     48 O    PRO X   5     -18.057 -13.641  41.582  1.00 32.23 LIG-0.27  OA
ATOM     49  N   TRP X   6     -17.680 -11.865  40.200  1.00 33.50 LIG-0.34  N 
ATOM     50 H    TRP X   6     -17.837 -11.415  39.484  1.00 33.50 LIG 0.16  HD
BRANCH 49 51
ATOM     51  CA  TRP X   6     -16.755 -11.219  41.141  1.00 34.66 LIG 0.19  C 
BRANCH 51 52
ATOM     52  CB  TRP X   6     -17.439 -11.049  42.513  1.00 34.41 LIG 0.08  C 
BRANCH 52 53
ATOM     53  CG  TRP X   6     -18.005  -9.664  42.763  1.00 32.39 LIG-0.03  A 
ATOM     54  CD2 TRP X   6     -19.370  -9.228  42.576  1.00 31.68 LIG-0.00  A 
ATOM     55  CE2 TRP X   6     -19.417  -7.862  42.916  1.00 33.29 LIG 0.04  A 
ATOM     56  CE3 TRP X   6     -20.550  -9.864  42.167  1.00 33.66 LIG 0.01  A 
ATOM     57  CZ2 TRP X   6     -20.608  -7.122  42.886  1.00 33.18 LIG 0.03  A 
ATOM     58  NE1 TRP X   6     -18.152  -7.490  43.301  1.00 30.87 LIG-0.36  N 
ATOM     59  CH2 TRP X   6     -21.740  -7.758  42.488  1.00 32.36 LIG 0.00  A 
ATOM     60  CZ3 TRP X   6     -21.725  -9.119  42.112  1.00 32.37 LIG 0.00  A 
ATOM     61 HE1  TRP X   6     -17.921  -6.706  43.569  1.00 30.87 LIG 0.17  HD
ATOM     62  CD1 TRP X   6     -17.316  -8.570  43.191  1.00 30.01 LIG 0.10  A 
ENDBRANCH 52 53
ENDBRANCH 51 52
BRANCH 51 63
ATOM     63  C   TRP X   6     -15.414 -11.967  41.280  1.00 36.76 LIG 0.20  C 
ATOM     64 O    TRP X   6     -15.010 -12.842  40.493  1.00 37.86 LIG-0.65  OA
ATOM     65 OXT  TRP X   6     -14.660 -11.732  42.231  1.00 39.11 LIG-0.65  OA
ENDBRANCH 51 63
ENDBRANCH 49 51
ENDBRANCH 43 47
ENDBRANCH 1 40
TORSDOF 19
ENDMDL
MODEL 83
USER: ADFR SOLUTION from run 128
USER: SCORE 19.439781 LL:  -6.333 LR: -13.848 RR:   0.000 FEB:  -8.180
USER: RMSD 6.233907
USER: SEED 127
USER: STATUS no improvement in best in 6 clusters for 5 generations
USER: GENES 21
USER: genes 0 Translation |==|  0.63853 0.66879 0.61481
USER: genes 1 Rotation |==|  0.63167 0.51920 0.32122 0.94759
USER: genes 2 Torsion [CB]-CA--N-[C] |==|  0.48333
USER: genes 3 Torsion [N]-C--CA-[N] |==|  0.91652
USER: genes 4 Torsion [C]-CA--N-[C] |==|  0.81362
USER: genes 5 Torsion [N]-C--CA-[N] |==|  0.47533
USER: genes 6 Torsion [C]-CA--CB-[CG] |==|  0.89649
USER: genes 7 Torsion [CA]-CB--CG-[SD] |==|  0.65961
USER: genes 8 Torsion [CB]-CG--SD-[CE] |==|  0.32218
USER: genes 9 Torsion [C]-CA--CB-[CG] |==|  0.82658
USER: genes 10 Torsion [CA]-CB--CG-[CD2] |==|  0.36160
USER: genes 11 Torsion [N]-CA--CB-[CG] |==|  0.79724
USER: genes 12 Torsion [CA]-CB--CG-[CD] |==|  0.72972
USER: genes 13 Torsion [CB]-CG--CD-[NE] |==|  0.38293
USER: genes 14 Torsion [CG]-CD--NE-[CZ] |==|  0.78090
USER: genes 15 Torsion [N]-CA--C-[N] |==|  0.45243
USER: genes 16 Torsion [N]-CA--C-[O] |==|  0.30913
USER: genes 17 Torsion [C]-N--CA-[CB] |==|  0.78980
USER: genes 18 Torsion [N]-CA--CB-[CG] |==|  0.77659
USER: genes 19 Torsion [CA]-CB--CG-[CD2] |==|  0.14834
USER: genes 20 Torsion [N]-CA--C-[O] |==|  0.20697
ROOT
ATOM      1  CA  ARG X   4     -18.456  -9.185  40.847  1.00 29.51 LIG 0.18  C 
ENDROOT
BRANCH 1 2
ATOM      2  N   ARG X   4     -18.470  -8.357  39.644  1.00 29.26 LIG-0.35  N 
ATOM      3  C   TRP X   3     -17.423  -7.602  39.261  1.00 30.37 LIG 0.24  C 
ATOM      4 O    TRP X   3     -16.336  -7.566  39.876  1.00 30.38 LIG-0.27  OA
ATOM      5 H    ARG X   4     -19.207  -8.397  39.203  1.00 29.26 LIG 0.16  HD
BRANCH 3 6
ATOM      6  CA  TRP X   3     -17.616  -6.768  37.977  1.00 30.62 LIG 0.18  C 
BRANCH 6 7
ATOM      7  N   TRP X   3     -18.542  -7.405  37.025  1.00 31.45 LIG-0.34  N 
ATOM      8 H    TRP X   3     -19.286  -6.993  36.898  1.00 31.45 LIG 0.16  HD
ATOM      9  C   MET X   2     -18.181  -8.544  36.438  1.00 32.92 LIG 0.26  C 
ATOM     10 O    MET X   2     -17.079  -9.036  36.594  1.00 32.35 LIG-0.27  OA
BRANCH 9 11
ATOM     11  CA  MET X   2     -19.160  -9.220  35.518  1.00 34.28 LIG 0.40  C 
ATOM     12  N   MET X   2     -18.521 -10.374  34.773  1.00 35.36 LIG 0.61  N 
BRANCH 11 13
ATOM     13  CB  MET X   2     -20.338  -9.715  36.340  1.00 35.71 LIG 0.06  C 
BRANCH 13 14
ATOM     14  CG  MET X   2     -19.976 -10.247  37.701  1.00 37.62 LIG 0.08  C 
BRANCH 14 15
ATOM     15 SD   MET X   2     -20.452 -11.952  38.090  1.00 39.06 LIG-0.17  SA
ATOM     16  CE  MET X   2     -18.821 -12.733  38.298  1.00 45.88 LIG 0.09  C 
ENDBRANCH 14 15
ENDBRANCH 13 14
ENDBRANCH 11 13
ENDBRANCH 9 11
ENDBRANCH 6 7
BRANCH 6 17
ATOM     17  CB  TRP X   3     -18.020  -5.331  38.310  1.00 29.85 LIG 0.07  C 
BRANCH 17 18
ATOM     18  CG  TRP X   3     -19.340  -5.259  39.030  1.00 29.58 LIG-0.03  A 
ATOM     19  CD1 TRP X   3     -20.506  -5.868  38.653  1.00 26.84 LIG 0.10  A 
ATOM     20  NE1 TRP X   3     -21.497  -5.565  39.551  1.00 29.47 LIG-0.36  N 
ATOM     21 HE1  TRP X   3     -22.310  -5.839  39.502  1.00 29.47 LIG 0.17  HD
ATOM     22  CE2 TRP X   3     -20.990  -4.756  40.542  1.00 27.62 LIG 0.04  A 
ATOM     23  CZ2 TRP X   3     -21.625  -4.181  41.685  1.00 28.85 LIG 0.03  A 
ATOM     24  CD2 TRP X   3     -19.628  -4.538  40.246  1.00 25.33 LIG-0.00  A 
ATOM     25  CH2 TRP X   3     -20.843  -3.383  42.530  1.00 28.18 LIG 0.00  A 
ATOM     26  CZ3 TRP X   3     -19.487  -3.145  42.242  1.00 26.79 LIG 0.00  A 
ATOM     27  CE3 TRP X   3     -18.874  -3.707  41.092  1.00 25.86 LIG 0.01  A 
ENDBRANCH 17 18
ENDBRANCH 6 17
ENDBRANCH 3 6
ENDBRANCH 1 2
BRANCH 1 28
ATOM     28  CB  ARG X   4     -19.836  -9.820  41.115  1.00 29.55 LIG 0.04  C 
BRANCH 28 29
ATOM     29  CG  ARG X   4     -20.893  -8.844  41.624  1.00 28.17 LIG 0.02  C 
BRANCH 29 30
ATOM     30  CD  ARG X   4     -20.994  -8.917  43.155  1.00 27.09 LIG 0.14  C 
BRANCH 30 31
ATOM     31  NE  ARG X   4     -21.112  -7.570  43.706  1.00 25.46 LIG-0.23  N 
ATOM     32 HE   ARG X   4     -21.890  -7.293  43.944  1.00 25.46 LIG 0.18  HD
ATOM     33  CZ  ARG X   4     -20.073  -6.746  43.859  1.00 27.27 LIG 0.67  C 
ATOM     34  NH2 ARG X   4     -20.240  -5.532  44.376  1.00 24.12 LIG-0.23  N 
ATOM     35  NH1 ARG X   4     -18.862  -7.144  43.474  1.00 21.32 LIG-0.23  N 
ATOM     36 1HH2 ARG X   4     -21.023  -5.270  44.614  1.00 24.12 LIG 0.17  HD
ATOM     37 2HH2 ARG X   4     -19.564  -5.008  44.471  1.00 24.12 LIG 0.17  HD
ATOM     38 2HH1 ARG X   4     -18.188  -6.620  43.569  1.00 21.32 LIG 0.17  HD
ATOM     39 1HH1 ARG X   4     -18.756  -7.925  43.131  1.00 21.32 LIG 0.17  HD
ENDBRANCH 30 31
ENDBRANCH 29 30
ENDBRANCH 28 29
ENDBRANCH 1 28
BRANCH 1 40
ATOM     40  C   ARG X   4     -17.445 -10.282  40.636  1.00 30.38 LIG 0.24  C 
ATOM     41 O    ARG X   4     -17.076 -10.538  39.502  1.00 31.87 LIG-0.27  OA
ATOM     42  N   PRO X   5     -17.006 -10.947  41.716  1.00 30.60 LIG-0.34  N 
ATOM     43  CA  PRO X   5     -15.877 -11.900  41.613  1.00 31.31 LIG 0.18  C 
ATOM     44  CD  PRO X   5     -17.504 -10.788  43.110  1.00 29.99 LIG 0.13  C 
ATOM     45  CB  PRO X   5     -15.462 -12.101  43.074  1.00 30.70 LIG 0.04  C 
ATOM     46  CG  PRO X   5     -16.752 -11.826  43.903  1.00 29.42 LIG 0.02  C 
BRANCH 43 47
ATOM     47  C   PRO X   5     -16.142 -13.284  40.958  1.00 32.23 LIG 0.24  C 
ATOM     48 O    PRO X   5     -15.627 -13.566  39.834  1.00 32.23 LIG-0.27  OA
ATOM     49  N   TRP X   6     -16.901 -14.138  41.639  1.00 33.50 LIG-0.34  N 
ATOM     50 H    TRP X   6     -17.325 -13.940  42.361  1.00 33.50 LIG 0.16  HD
BRANCH 49 51
ATOM     51  CA  TRP X   6     -17.074 -15.525  41.185  1.00 34.66 LIG 0.19  C 
BRANCH 51 52
ATOM     52  CB  TRP X   6     -18.039 -15.566  39.983  1.00 34.41 LIG 0.08  C 
BRANCH 52 53
ATOM     53  CG  TRP X   6     -19.508 -15.501  40.357  1.00 32.39 LIG-0.03  A 
ATOM     54  CD2 TRP X   6     -20.159 -14.510  41.182  1.00 31.68 LIG-0.00  A 
ATOM     55  CE2 TRP X   6     -21.519 -14.870  41.264  1.00 33.29 LIG 0.04  A 
ATOM     56  CE3 TRP X   6     -19.724 -13.354  41.844  1.00 33.66 LIG 0.01  A 
ATOM     57  CZ2 TRP X   6     -22.458 -14.098  41.963  1.00 33.18 LIG 0.03  A 
ATOM     58  NE1 TRP X   6     -21.687 -16.011  40.519  1.00 30.87 LIG-0.36  N 
ATOM     59  CH2 TRP X   6     -22.016 -12.981  42.596  1.00 32.36 LIG 0.00  A 
ATOM     60  CZ3 TRP X   6     -20.655 -12.605  42.560  1.00 32.37 LIG 0.00  A 
ATOM     61 HE1  TRP X   6     -22.432 -16.425  40.400  1.00 30.87 LIG 0.17  HD
ATOM     62  CD1 TRP X   6     -20.479 -16.386  39.995  1.00 30.01 LIG 0.10  A 
ENDBRANCH 52 53
ENDBRANCH 51 52
BRANCH 51 63
ATOM     63  C   TRP X   6     -15.740 -16.220  40.848  1.00 36.76 LIG 0.20  C 
ATOM     64 O    TRP X   6     -14.922 -16.624  41.694  1.00 37.86 LIG-0.65  OA
ATOM     65 OXT  TRP X   6     -15.404 -16.396  39.671  1.00 39.11 LIG-0.65  OA
ENDBRANCH 51 63
ENDBRANCH 49 51
ENDBRANCH 43 47
ENDBRANCH 1 40
TORSDOF 19
ENDMDL
MODEL 84
USER: ADFR SOLUTION from run 82
USER: SCORE 18.450466 LL:  -5.541 LR: -13.840 RR:   0.000 FEB:  -8.172
USER: RMSD 6.946007
USER: SEED 81
USER: STATUS no improvement in best in 12 clusters for 5 generations
USER: GENES 21
USER: genes 0 Translation |==|  0.55004 0.54517 0.48501
USER: genes 1 Rotation |==|  0.14086 0.39947 0.16720 0.51259
USER: genes 2 Torsion [CB]-CA--N-[C] |==|  0.21640
USER: genes 3 Torsion [N]-C--CA-[N] |==|  0.37857
USER: genes 4 Torsion [C]-CA--N-[C] |==|  0.81581
USER: genes 5 Torsion [N]-C--CA-[N] |==|  0.98306
USER: genes 6 Torsion [C]-CA--CB-[CG] |==|  0.85750
USER: genes 7 Torsion [CA]-CB--CG-[SD] |==|  0.61626
USER: genes 8 Torsion [CB]-CG--SD-[CE] |==|  0.00956
USER: genes 9 Torsion [C]-CA--CB-[CG] |==|  0.09854
USER: genes 10 Torsion [CA]-CB--CG-[CD2] |==|  0.18855
USER: genes 11 Torsion [N]-CA--CB-[CG] |==|  0.75769
USER: genes 12 Torsion [CA]-CB--CG-[CD] |==|  0.70873
USER: genes 13 Torsion [CB]-CG--CD-[NE] |==|  0.60694
USER: genes 14 Torsion [CG]-CD--NE-[CZ] |==|  0.50558
USER: genes 15 Torsion [N]-CA--C-[N] |==|  0.47100
USER: genes 16 Torsion [N]-CA--C-[O] |==|  0.55768
USER: genes 17 Torsion [C]-N--CA-[CB] |==|  0.22392
USER: genes 18 Torsion [N]-CA--CB-[CG] |==|  0.06866
USER: genes 19 Torsion [CA]-CB--CG-[CD2] |==|  0.21857
USER: genes 20 Torsion [N]-CA--C-[O] |==|  0.24627
ROOT
ATOM      1  CA  ARG X   4     -20.314 -11.595  38.413  1.00 29.51 LIG 0.18  C 
ENDROOT
BRANCH 1 2
ATOM      2  N   ARG X   4     -21.701 -12.050  38.359  1.00 29.26 LIG-0.35  N 
ATOM      3  C   TRP X   3     -22.163 -12.881  37.407  1.00 30.37 LIG 0.24  C 
ATOM      4 O    TRP X   3     -21.446 -13.366  36.506  1.00 30.38 LIG-0.27  OA
ATOM      5 H    ARG X   4     -22.193 -11.738  38.991  1.00 29.26 LIG 0.16  HD
BRANCH 3 6
ATOM      6  CA  TRP X   3     -23.662 -13.241  37.484  1.00 30.62 LIG 0.18  C 
BRANCH 6 7
ATOM      7  N   TRP X   3     -24.320 -13.199  36.167  1.00 31.45 LIG-0.34  N 
ATOM      8 H    TRP X   3     -24.597 -13.954  35.864  1.00 31.45 LIG 0.16  HD
ATOM      9  C   MET X   2     -24.442 -12.027  35.546  1.00 32.92 LIG 0.26  C 
ATOM     10 O    MET X   2     -24.105 -10.978  36.061  1.00 32.35 LIG-0.27  OA
BRANCH 9 11
ATOM     11  CA  MET X   2     -25.057 -12.003  34.174  1.00 34.28 LIG 0.40  C 
ATOM     12  N   MET X   2     -25.316 -13.403  33.653  1.00 35.36 LIG 0.61  N 
BRANCH 11 13
ATOM     13  CB  MET X   2     -26.358 -11.219  34.237  1.00 35.71 LIG 0.06  C 
BRANCH 13 14
ATOM     14  CG  MET X   2     -27.304 -11.660  35.321  1.00 37.62 LIG 0.08  C 
BRANCH 14 15
ATOM     15 SD   MET X   2     -29.067 -11.762  34.907  1.00 39.06 LIG-0.17  SA
ATOM     16  CE  MET X   2     -29.035 -11.348  33.135  1.00 45.88 LIG 0.09  C 
ENDBRANCH 14 15
ENDBRANCH 13 14
ENDBRANCH 11 13
ENDBRANCH 9 11
ENDBRANCH 6 7
BRANCH 6 17
ATOM     17  CB  TRP X   3     -23.870 -14.580  38.196  1.00 29.85 LIG 0.07  C 
BRANCH 17 18
ATOM     18  CG  TRP X   3     -22.884 -14.795  39.312  1.00 29.58 LIG-0.03  A 
ATOM     19  CD1 TRP X   3     -21.882 -15.727  39.344  1.00 26.84 LIG 0.10  A 
ATOM     20  NE1 TRP X   3     -21.197 -15.628  40.527  1.00 29.47 LIG-0.36  N 
ATOM     21 HE1  TRP X   3     -20.532 -16.122  40.757  1.00 29.47 LIG 0.17  HD
ATOM     22  CE2 TRP X   3     -21.735 -14.616  41.290  1.00 27.62 LIG 0.04  A 
ATOM     23  CZ2 TRP X   3     -21.372 -14.138  42.585  1.00 28.85 LIG 0.03  A 
ATOM     24  CD2 TRP X   3     -22.807 -14.066  40.555  1.00 25.33 LIG-0.00  A 
ATOM     25  CH2 TRP X   3     -22.117 -13.079  43.119  1.00 28.18 LIG 0.00  A 
ATOM     26  CZ3 TRP X   3     -23.197 -12.528  42.405  1.00 26.79 LIG 0.00  A 
ATOM     27  CE3 TRP X   3     -23.559 -13.027  41.127  1.00 25.86 LIG 0.01  A 
ENDBRANCH 17 18
ENDBRANCH 6 17
ENDBRANCH 3 6
ENDBRANCH 1 2
BRANCH 1 28
ATOM     28  CB  ARG X   4     -20.042 -10.476  37.386  1.00 29.55 LIG 0.04  C 
BRANCH 28 29
ATOM     29  CG  ARG X   4     -19.645 -10.975  35.999  1.00 28.17 LIG 0.02  C 
BRANCH 29 30
ATOM     30  CD  ARG X   4     -18.138 -10.781  35.774  1.00 27.09 LIG 0.14  C 
BRANCH 30 31
ATOM     31  NE  ARG X   4     -17.895 -10.365  34.395  1.00 25.46 LIG-0.23  N 
ATOM     32 HE   ARG X   4     -18.573 -10.248  33.879  1.00 25.46 LIG 0.18  HD
ATOM     33  CZ  ARG X   4     -16.676 -10.157  33.895  1.00 27.27 LIG 0.67  C 
ATOM     34  NH2 ARG X   4     -16.517  -9.771  32.632  1.00 24.12 LIG-0.23  N 
ATOM     35  NH1 ARG X   4     -15.611 -10.356  34.669  1.00 21.32 LIG-0.23  N 
ATOM     36 1HH2 ARG X   4     -17.203  -9.653  32.129  1.00 24.12 LIG 0.17  HD
ATOM     37 2HH2 ARG X   4     -15.726  -9.639  32.319  1.00 24.12 LIG 0.17  HD
ATOM     38 2HH1 ARG X   4     -14.821 -10.225  34.355  1.00 21.32 LIG 0.17  HD
ATOM     39 1HH1 ARG X   4     -15.713 -10.616  35.482  1.00 21.32 LIG 0.17  HD
ENDBRANCH 30 31
ENDBRANCH 29 30
ENDBRANCH 28 29
ENDBRANCH 1 28
BRANCH 1 40
ATOM     40  C   ARG X   4     -20.061 -11.059  39.798  1.00 30.38 LIG 0.24  C 
ATOM     41 O    ARG X   4     -21.009 -10.879  40.546  1.00 31.87 LIG-0.27  OA
ATOM     42  N   PRO X   5     -18.794 -10.782  40.143  1.00 30.60 LIG-0.34  N 
ATOM     43  CA  PRO X   5     -18.446 -10.437  41.541  1.00 31.31 LIG 0.18  C 
ATOM     44  CD  PRO X   5     -17.606 -10.844  39.249  1.00 29.99 LIG 0.13  C 
ATOM     45  CB  PRO X   5     -16.923 -10.601  41.567  1.00 30.70 LIG 0.04  C 
ATOM     46  CG  PRO X   5     -16.464 -10.349  40.100  1.00 29.42 LIG 0.02  C 
BRANCH 43 47
ATOM     47  C   PRO X   5     -18.821  -9.023  42.064  1.00 32.23 LIG 0.24  C 
ATOM     48 O    PRO X   5     -18.225  -8.538  43.072  1.00 32.23 LIG-0.27  OA
ATOM     49  N   TRP X   6     -19.763  -8.364  41.396  1.00 33.50 LIG-0.34  N 
ATOM     50 H    TRP X   6     -20.235  -8.703  40.761  1.00 33.50 LIG 0.16  HD
BRANCH 49 51
ATOM     51  CA  TRP X   6     -20.072  -6.961  41.707  1.00 34.66 LIG 0.19  C 
BRANCH 51 52
ATOM     52  CB  TRP X   6     -19.039  -6.036  41.032  1.00 34.41 LIG 0.08  C 
BRANCH 52 53
ATOM     53  CG  TRP X   6     -18.371  -6.632  39.806  1.00 32.39 LIG-0.03  A 
ATOM     54  CD2 TRP X   6     -18.919  -6.734  38.473  1.00 31.68 LIG-0.00  A 
ATOM     55  CE2 TRP X   6     -17.949  -7.374  37.677  1.00 33.29 LIG 0.04  A 
ATOM     56  CE3 TRP X   6     -20.125  -6.337  37.881  1.00 33.66 LIG 0.01  A 
ATOM     57  CZ2 TRP X   6     -18.135  -7.603  36.306  1.00 33.18 LIG 0.03  A 
ATOM     58  NE1 TRP X   6     -16.865  -7.635  38.480  1.00 30.87 LIG-0.36  N 
ATOM     59  CH2 TRP X   6     -19.311  -7.209  35.752  1.00 32.36 LIG 0.00  A 
ATOM     60  CZ3 TRP X   6     -20.318  -6.591  36.526  1.00 32.37 LIG 0.00  A 
ATOM     61 HE1  TRP X   6     -16.134  -8.010  38.226  1.00 30.87 LIG 0.17  HD
ATOM     62  CD1 TRP X   6     -17.135  -7.201  39.751  1.00 30.01 LIG 0.10  A 
ENDBRANCH 52 53
ENDBRANCH 51 52
BRANCH 51 63
ATOM     63  C   TRP X   6     -21.509  -6.559  41.323  1.00 36.76 LIG 0.20  C 
ATOM     64 O    TRP X   6     -22.498  -6.676  42.068  1.00 37.86 LIG-0.65  OA
ATOM     65 OXT  TRP X   6     -21.754  -6.102  40.200  1.00 39.11 LIG-0.65  OA
ENDBRANCH 51 63
ENDBRANCH 49 51
ENDBRANCH 43 47
ENDBRANCH 1 40
TORSDOF 19
ENDMDL
MODEL 85
USER: ADFR SOLUTION from run 186
USER: SCORE 18.210136 LL:  -4.799 LR: -13.835 RR:   0.000 FEB:  -8.167
USER: RMSD 6.694073
USER: SEED 185
USER: STATUS no improvement in best in 12 clusters for 5 generations
USER: GENES 21
USER: genes 0 Translation |==|  0.61734 0.63343 0.35660
USER: genes 1 Rotation |==|  0.28324 0.53303 0.17179 0.80692
USER: genes 2 Torsion [CB]-CA--N-[C] |==|  0.87487
USER: genes 3 Torsion [N]-C--CA-[N] |==|  0.01522
USER: genes 4 Torsion [C]-CA--N-[C] |==|  0.74140
USER: genes 5 Torsion [N]-C--CA-[N] |==|  0.44368
USER: genes 6 Torsion [C]-CA--CB-[CG] |==|  0.19132
USER: genes 7 Torsion [CA]-CB--CG-[SD] |==|  0.50395
USER: genes 8 Torsion [CB]-CG--SD-[CE] |==|  0.13255
USER: genes 9 Torsion [C]-CA--CB-[CG] |==|  0.30526
USER: genes 10 Torsion [CA]-CB--CG-[CD2] |==|  0.22396
USER: genes 11 Torsion [N]-CA--CB-[CG] |==|  0.38152
USER: genes 12 Torsion [CA]-CB--CG-[CD] |==|  0.30387
USER: genes 13 Torsion [CB]-CG--CD-[NE] |==|  0.20351
USER: genes 14 Torsion [CG]-CD--NE-[CZ] |==|  0.42338
USER: genes 15 Torsion [N]-CA--C-[N] |==|  0.32901
USER: genes 16 Torsion [N]-CA--C-[O] |==|  0.45873
USER: genes 17 Torsion [C]-N--CA-[CB] |==|  0.79976
USER: genes 18 Torsion [N]-CA--CB-[CG] |==|  0.78845
USER: genes 19 Torsion [CA]-CB--CG-[CD2] |==|  0.86090
USER: genes 20 Torsion [N]-CA--C-[O] |==|  0.54289
ROOT
ATOM      1  CA  ARG X   4     -18.901  -9.874  36.005  1.00 29.51 LIG 0.18  C 
ENDROOT
BRANCH 1 2
ATOM      2  N   ARG X   4     -19.899 -10.323  35.038  1.00 29.26 LIG-0.35  N 
ATOM      3  C   TRP X   3     -21.200 -10.480  35.346  1.00 30.37 LIG 0.24  C 
ATOM      4 O    TRP X   3     -21.678 -10.225  36.472  1.00 30.38 LIG-0.27  OA
ATOM      5 H    ARG X   4     -19.579 -10.477  34.255  1.00 29.26 LIG 0.16  HD
BRANCH 3 6
ATOM      6  CA  TRP X   3     -22.114 -10.986  34.211  1.00 30.62 LIG 0.18  C 
BRANCH 6 7
ATOM      7  N   TRP X   3     -21.361 -11.337  32.995  1.00 31.45 LIG-0.34  N 
ATOM      8 H    TRP X   3     -21.054 -12.139  32.964  1.00 31.45 LIG 0.16  HD
ATOM      9  C   MET X   2     -21.206 -10.416  32.045  1.00 32.92 LIG 0.26  C 
ATOM     10 O    MET X   2     -21.735  -9.322  32.107  1.00 32.35 LIG-0.27  OA
BRANCH 9 11
ATOM     11  CA  MET X   2     -20.382 -10.762  30.837  1.00 34.28 LIG 0.40  C 
ATOM     12  N   MET X   2     -20.694  -9.851  29.667  1.00 35.36 LIG 0.61  N 
BRANCH 11 13
ATOM     13  CB  MET X   2     -18.910 -10.657  31.204  1.00 35.71 LIG 0.06  C 
BRANCH 13 14
ATOM     14  CG  MET X   2     -18.427 -11.707  32.167  1.00 37.62 LIG 0.08  C 
BRANCH 14 15
ATOM     15 SD   MET X   2     -16.692 -11.632  32.691  1.00 39.06 LIG-0.17  SA
ATOM     16  CE  MET X   2     -16.532  -9.871  33.122  1.00 45.88 LIG 0.09  C 
ENDBRANCH 14 15
ENDBRANCH 13 14
ENDBRANCH 11 13
ENDBRANCH 9 11
ENDBRANCH 6 7
BRANCH 6 17
ATOM     17  CB  TRP X   3     -23.006 -12.132  34.693  1.00 29.85 LIG 0.07  C 
BRANCH 17 18
ATOM     18  CG  TRP X   3     -24.452 -11.728  34.797  1.00 29.58 LIG-0.03  A 
ATOM     19  CD1 TRP X   3     -25.116 -11.366  35.938  1.00 26.84 LIG 0.10  A 
ATOM     20  NE1 TRP X   3     -26.421 -11.074  35.640  1.00 29.47 LIG-0.36  N 
ATOM     21 HE1  TRP X   3     -27.017 -10.830  36.210  1.00 29.47 LIG 0.17  HD
ATOM     22  CE2 TRP X   3     -26.633 -11.230  34.289  1.00 27.62 LIG 0.04  A 
ATOM     23  CZ2 TRP X   3     -27.815 -11.047  33.509  1.00 28.85 LIG 0.03  A 
ATOM     24  CD2 TRP X   3     -25.410 -11.645  33.721  1.00 25.33 LIG-0.00  A 
ATOM     25  CH2 TRP X   3     -27.728 -11.288  32.131  1.00 28.18 LIG 0.00  A 
ATOM     26  CZ3 TRP X   3     -26.519 -11.715  31.552  1.00 26.79 LIG 0.00  A 
ATOM     27  CE3 TRP X   3     -25.358 -11.911  32.343  1.00 25.86 LIG 0.01  A 
ENDBRANCH 17 18
ENDBRANCH 6 17
ENDBRANCH 3 6
ENDBRANCH 1 2
BRANCH 1 28
ATOM     28  CB  ARG X   4     -19.409  -8.674  36.832  1.00 29.55 LIG 0.04  C 
BRANCH 28 29
ATOM     29  CG  ARG X   4     -19.087  -8.752  38.322  1.00 28.17 LIG 0.02  C 
BRANCH 29 30
ATOM     30  CD  ARG X   4     -18.019  -7.711  38.691  1.00 27.09 LIG 0.14  C 
BRANCH 30 31
ATOM     31  NE  ARG X   4     -18.609  -6.376  38.684  1.00 25.46 LIG-0.23  N 
ATOM     32 HE   ARG X   4     -19.283  -6.231  38.170  1.00 25.46 LIG 0.18  HD
ATOM     33  CZ  ARG X   4     -18.156  -5.369  39.433  1.00 27.27 LIG 0.67  C 
ATOM     34  NH2 ARG X   4     -18.740  -4.175  39.390  1.00 24.12 LIG-0.23  N 
ATOM     35  NH1 ARG X   4     -17.098  -5.564  40.216  1.00 21.32 LIG-0.23  N 
ATOM     36 1HH2 ARG X   4     -19.417  -4.045  38.876  1.00 24.12 LIG 0.17  HD
ATOM     37 2HH2 ARG X   4     -18.441  -3.531  39.877  1.00 24.12 LIG 0.17  HD
ATOM     38 2HH1 ARG X   4     -16.798  -4.920  40.702  1.00 21.32 LIG 0.17  HD
ATOM     39 1HH1 ARG X   4     -16.713  -6.332  40.237  1.00 21.32 LIG 0.17  HD
ENDBRANCH 30 31
ENDBRANCH 29 30
ENDBRANCH 28 29
ENDBRANCH 1 28
BRANCH 1 40
ATOM     40  C   ARG X   4     -18.616 -11.024  36.937  1.00 30.38 LIG 0.24  C 
ATOM     41 O    ARG X   4     -19.518 -11.459  37.634  1.00 31.87 LIG-0.27  OA
ATOM     42  N   PRO X   5     -17.365 -11.509  36.972  1.00 30.60 LIG-0.34  N 
ATOM     43  CA  PRO X   5     -17.054 -12.753  37.712  1.00 31.31 LIG 0.18  C 
ATOM     44  CD  PRO X   5     -16.184 -10.950  36.259  1.00 29.99 LIG 0.13  C 
ATOM     45  CB  PRO X   5     -15.677 -13.143  37.168  1.00 30.70 LIG 0.04  C 
ATOM     46  CG  PRO X   5     -15.027 -11.802  36.712  1.00 29.42 LIG 0.02  C 
BRANCH 43 47
ATOM     47  C   PRO X   5     -16.996 -12.689  39.264  1.00 32.23 LIG 0.24  C 
ATOM     48 O    PRO X   5     -17.015 -13.758  39.947  1.00 32.23 LIG-0.27  OA
ATOM     49  N   TRP X   6     -16.905 -11.482  39.815  1.00 33.50 LIG-0.34  N 
ATOM     50 H    TRP X   6     -16.971 -10.744  39.377  1.00 33.50 LIG 0.16  HD
BRANCH 49 51
ATOM     51  CA  TRP X   6     -16.677 -11.323  41.258  1.00 34.66 LIG 0.19  C 
BRANCH 51 52
ATOM     52  CB  TRP X   6     -17.955 -11.705  42.034  1.00 34.41 LIG 0.08  C 
BRANCH 52 53
ATOM     53  CG  TRP X   6     -19.050 -10.656  41.990  1.00 32.39 LIG-0.03  A 
ATOM     54  CD2 TRP X   6     -18.924  -9.246  42.274  1.00 31.68 LIG-0.00  A 
ATOM     55  CE2 TRP X   6     -20.205  -8.678  42.123  1.00 33.29 LIG 0.04  A 
ATOM     56  CE3 TRP X   6     -17.854  -8.413  42.628  1.00 33.66 LIG 0.01  A 
ATOM     57  CZ2 TRP X   6     -20.442  -7.306  42.288  1.00 33.18 LIG 0.03  A 
ATOM     58  NE1 TRP X   6     -21.060  -9.688  41.754  1.00 30.87 LIG-0.36  N 
ATOM     59  CH2 TRP X   6     -19.390  -6.518  42.629  1.00 32.36 LIG 0.00  A 
ATOM     60  CZ3 TRP X   6     -18.098  -7.056  42.818  1.00 32.37 LIG 0.00  A 
ATOM     61 HE1  TRP X   6     -21.900  -9.597  41.588  1.00 30.87 LIG 0.17  HD
ATOM     62  CD1 TRP X   6     -20.363 -10.865  41.693  1.00 30.01 LIG 0.10  A 
ENDBRANCH 52 53
ENDBRANCH 51 52
BRANCH 51 63
ATOM     63  C   TRP X   6     -15.460 -12.120  41.768  1.00 36.76 LIG 0.20  C 
ATOM     64 O    TRP X   6     -15.230 -12.367  42.966  1.00 37.86 LIG-0.65  OA
ATOM     65 OXT  TRP X   6     -14.615 -12.551  40.975  1.00 39.11 LIG-0.65  OA
ENDBRANCH 51 63
ENDBRANCH 49 51
ENDBRANCH 43 47
ENDBRANCH 1 40
TORSDOF 19
ENDMDL
MODEL 86
USER: ADFR SOLUTION from run 79
USER: SCORE 17.767643 LL:  -4.607 LR: -13.818 RR:   0.000 FEB:  -8.150
USER: RMSD 7.471289
USER: SEED 78
USER: STATUS no improvement in best in 17 clusters for 5 generations
USER: GENES 21
USER: genes 0 Translation |==|  0.57553 0.52813 0.61421
USER: genes 1 Rotation |==|  0.89306 0.57293 0.37404 0.77261
USER: genes 2 Torsion [CB]-CA--N-[C] |==|  0.12845
USER: genes 3 Torsion [N]-C--CA-[N] |==|  0.12099
USER: genes 4 Torsion [C]-CA--N-[C] |==|  0.71367
USER: genes 5 Torsion [N]-C--CA-[N] |==|  0.48376
USER: genes 6 Torsion [C]-CA--CB-[CG] |==|  0.35020
USER: genes 7 Torsion [CA]-CB--CG-[SD] |==|  0.78375
USER: genes 8 Torsion [CB]-CG--SD-[CE] |==|  0.22119
USER: genes 9 Torsion [C]-CA--CB-[CG] |==|  0.61036
USER: genes 10 Torsion [CA]-CB--CG-[CD2] |==|  0.82365
USER: genes 11 Torsion [N]-CA--CB-[CG] |==|  0.68248
USER: genes 12 Torsion [CA]-CB--CG-[CD] |==|  0.64927
USER: genes 13 Torsion [CB]-CG--CD-[NE] |==|  0.64352
USER: genes 14 Torsion [CG]-CD--NE-[CZ] |==|  0.66903
USER: genes 15 Torsion [N]-CA--C-[N] |==|  0.15000
USER: genes 16 Torsion [N]-CA--C-[O] |==|  0.60700
USER: genes 17 Torsion [C]-N--CA-[CB] |==|  0.79922
USER: genes 18 Torsion [N]-CA--CB-[CG] |==|  0.95962
USER: genes 19 Torsion [CA]-CB--CG-[CD2] |==|  0.29517
USER: genes 20 Torsion [N]-CA--C-[O] |==|  0.09893
ROOT
ATOM      1  CA  ARG X   4     -19.779 -11.928  40.835  1.00 29.51 LIG 0.18  C 
ENDROOT
BRANCH 1 2
ATOM      2  N   ARG X   4     -19.635 -10.559  41.323  1.00 29.26 LIG-0.35  N 
ATOM      3  C   TRP X   3     -20.615  -9.907  41.976  1.00 30.37 LIG 0.24  C 
ATOM      4 O    TRP X   3     -21.720 -10.420  42.254  1.00 30.38 LIG-0.27  OA
ATOM      5 H    ARG X   4     -18.868 -10.209  41.155  1.00 29.26 LIG 0.16  HD
BRANCH 3 6
ATOM      6  CA  TRP X   3     -20.305  -8.456  42.400  1.00 30.62 LIG 0.18  C 
BRANCH 6 7
ATOM      7  N   TRP X   3     -19.631  -7.690  41.338  1.00 31.45 LIG-0.34  N 
ATOM      8 H    TRP X   3     -20.136  -7.416  40.698  1.00 31.45 LIG 0.16  HD
ATOM      9  C   MET X   2     -18.320  -7.476  41.431  1.00 32.92 LIG 0.26  C 
ATOM     10 O    MET X   2     -17.672  -7.817  42.403  1.00 32.35 LIG-0.27  OA
BRANCH 9 11
ATOM     11  CA  MET X   2     -17.630  -6.749  40.310  1.00 34.28 LIG 0.40  C 
ATOM     12  N   MET X   2     -16.178  -6.466  40.639  1.00 35.36 LIG 0.61  N 
BRANCH 11 13
ATOM     13  CB  MET X   2     -17.727  -7.594  39.050  1.00 35.71 LIG 0.06  C 
BRANCH 13 14
ATOM     14  CG  MET X   2     -18.310  -6.881  37.860  1.00 37.62 LIG 0.08  C 
BRANCH 14 15
ATOM     15 SD   MET X   2     -20.111  -6.671  37.806  1.00 39.06 LIG-0.17  SA
ATOM     16  CE  MET X   2     -20.332  -5.249  38.921  1.00 45.88 LIG 0.09  C 
ENDBRANCH 14 15
ENDBRANCH 13 14
ENDBRANCH 11 13
ENDBRANCH 9 11
ENDBRANCH 6 7
BRANCH 6 17
ATOM     17  CB  TRP X   3     -21.563  -7.753  42.916  1.00 29.85 LIG 0.07  C 
BRANCH 17 18
ATOM     18  CG  TRP X   3     -21.647  -6.321  42.461  1.00 29.58 LIG-0.03  A 
ATOM     19  CD1 TRP X   3     -22.607  -5.780  41.650  1.00 26.84 LIG 0.10  A 
ATOM     20  NE1 TRP X   3     -22.347  -4.450  41.449  1.00 29.47 LIG-0.36  N 
ATOM     21 HE1  TRP X   3     -22.821  -3.919  40.967  1.00 29.47 LIG 0.17  HD
ATOM     22  CE2 TRP X   3     -21.210  -4.092  42.139  1.00 27.62 LIG 0.04  A 
ATOM     23  CZ2 TRP X   3     -20.544  -2.833  42.239  1.00 28.85 LIG 0.03  A 
ATOM     24  CD2 TRP X   3     -20.737  -5.250  42.791  1.00 25.33 LIG-0.00  A 
ATOM     25  CH2 TRP X   3     -19.386  -2.771  43.025  1.00 28.18 LIG 0.00  A 
ATOM     26  CZ3 TRP X   3     -18.894  -3.920  43.670  1.00 26.79 LIG 0.00  A 
ATOM     27  CE3 TRP X   3     -19.556  -5.169  43.546  1.00 25.86 LIG 0.01  A 
ENDBRANCH 17 18
ENDBRANCH 6 17
ENDBRANCH 3 6
ENDBRANCH 1 2
BRANCH 1 28
ATOM     28  CB  ARG X   4     -21.121 -12.132  40.102  1.00 29.55 LIG 0.04  C 
BRANCH 28 29
ATOM     29  CG  ARG X   4     -22.080 -13.095  40.797  1.00 28.17 LIG 0.02  C 
BRANCH 29 30
ATOM     30  CD  ARG X   4     -22.526 -14.198  39.824  1.00 27.09 LIG 0.14  C 
BRANCH 30 31
ATOM     31  NE  ARG X   4     -23.983 -14.290  39.817  1.00 25.46 LIG-0.23  N 
ATOM     32 HE   ARG X   4     -24.434 -13.600  39.573  1.00 25.46 LIG 0.18  HD
ATOM     33  CZ  ARG X   4     -24.650 -15.389  40.172  1.00 27.27 LIG 0.67  C 
ATOM     34  NH2 ARG X   4     -25.980 -15.417  40.137  1.00 24.12 LIG-0.23  N 
ATOM     35  NH1 ARG X   4     -23.974 -16.461  40.578  1.00 21.32 LIG-0.23  N 
ATOM     36 1HH2 ARG X   4     -26.418 -14.721  39.885  1.00 24.12 LIG 0.17  HD
ATOM     37 2HH2 ARG X   4     -26.402 -16.130  40.367  1.00 24.12 LIG 0.17  HD
ATOM     38 2HH1 ARG X   4     -24.396 -17.174  40.808  1.00 21.32 LIG 0.17  HD
ATOM     39 1HH1 ARG X   4     -23.115 -16.440  40.610  1.00 21.32 LIG 0.17  HD
ENDBRANCH 30 31
ENDBRANCH 29 30
ENDBRANCH 28 29
ENDBRANCH 1 28
BRANCH 1 40
ATOM     40  C   ARG X   4     -18.650 -12.191  39.873  1.00 30.38 LIG 0.24  C 
ATOM     41 O    ARG X   4     -18.909 -12.610  38.756  1.00 31.87 LIG-0.27  OA
ATOM     42  N   PRO X   5     -17.396 -11.969  40.298  1.00 30.60 LIG-0.34  N 
ATOM     43  CA  PRO X   5     -16.255 -12.020  39.356  1.00 31.31 LIG 0.18  C 
ATOM     44  CD  PRO X   5     -16.991 -11.591  41.679  1.00 29.99 LIG 0.13  C 
ATOM     45  CB  PRO X   5     -15.132 -11.333  40.138  1.00 30.70 LIG 0.04  C 
ATOM     46  CG  PRO X   5     -15.484 -11.563  41.638  1.00 29.42 LIG 0.02  C 
BRANCH 43 47
ATOM     47  C   PRO X   5     -15.767 -13.412  38.868  1.00 32.23 LIG 0.24  C 
ATOM     48 O    PRO X   5     -14.527 -13.637  38.720  1.00 32.23 LIG-0.27  OA
ATOM     49  N   TRP X   6     -16.699 -14.334  38.644  1.00 33.50 LIG-0.34  N 
ATOM     50 H    TRP X   6     -17.545 -14.181  38.661  1.00 33.50 LIG 0.16  HD
BRANCH 49 51
ATOM     51  CA  TRP X   6     -16.332 -15.724  38.342  1.00 34.66 LIG 0.19  C 
BRANCH 51 52
ATOM     52  CB  TRP X   6     -15.746 -15.813  36.918  1.00 34.41 LIG 0.08  C 
BRANCH 52 53
ATOM     53  CG  TRP X   6     -15.998 -14.587  36.060  1.00 32.39 LIG-0.03  A 
ATOM     54  CD2 TRP X   6     -15.043 -13.572  35.681  1.00 31.68 LIG-0.00  A 
ATOM     55  CE2 TRP X   6     -15.735 -12.625  34.900  1.00 33.29 LIG 0.04  A 
ATOM     56  CE3 TRP X   6     -13.675 -13.383  35.917  1.00 33.66 LIG 0.01  A 
ATOM     57  CZ2 TRP X   6     -15.099 -11.514  34.329  1.00 33.18 LIG 0.03  A 
ATOM     58  NE1 TRP X   6     -17.038 -13.050  34.800  1.00 30.87 LIG-0.36  N 
ATOM     59  CH2 TRP X   6     -13.772 -11.351  34.569  1.00 32.36 LIG 0.00  A 
ATOM     60  CZ3 TRP X   6     -13.052 -12.263  35.371  1.00 32.37 LIG 0.00  A 
ATOM     61 HE1  TRP X   6     -17.662 -12.650  34.363  1.00 30.87 LIG 0.17  HD
ATOM     62  CD1 TRP X   6     -17.185 -14.213  35.508  1.00 30.01 LIG 0.10  A 
ENDBRANCH 52 53
ENDBRANCH 51 52
BRANCH 51 63
ATOM     63  C   TRP X   6     -15.364 -16.332  39.377  1.00 36.76 LIG 0.20  C 
ATOM     64 O    TRP X   6     -15.390 -16.085  40.597  1.00 37.86 LIG-0.65  OA
ATOM     65 OXT  TRP X   6     -14.471 -17.109  39.021  1.00 39.11 LIG-0.65  OA
ENDBRANCH 51 63
ENDBRANCH 49 51
ENDBRANCH 43 47
ENDBRANCH 1 40
TORSDOF 19
ENDMDL
MODEL 87
USER: ADFR SOLUTION from run 90
USER: SCORE 19.133876 LL:  -5.429 LR: -13.817 RR:   0.000 FEB:  -8.149
USER: RMSD 6.851409
USER: SEED 89
USER: STATUS searching
USER: GENES 21
USER: genes 0 Translation |==|  0.58354 0.70862 0.36077
USER: genes 1 Rotation |==|  0.30421 0.41657 0.18204 0.82189
USER: genes 2 Torsion [CB]-CA--N-[C] |==|  0.84946
USER: genes 3 Torsion [N]-C--CA-[N] |==|  0.04871
USER: genes 4 Torsion [C]-CA--N-[C] |==|  0.70250
USER: genes 5 Torsion [N]-C--CA-[N] |==|  0.58292
USER: genes 6 Torsion [C]-CA--CB-[CG] |==|  0.73157
USER: genes 7 Torsion [CA]-CB--CG-[SD] |==|  0.37142
USER: genes 8 Torsion [CB]-CG--SD-[CE] |==|  0.00604
USER: genes 9 Torsion [C]-CA--CB-[CG] |==|  0.33624
USER: genes 10 Torsion [CA]-CB--CG-[CD2] |==|  0.70902
USER: genes 11 Torsion [N]-CA--CB-[CG] |==|  0.54709
USER: genes 12 Torsion [CA]-CB--CG-[CD] |==|  0.67512
USER: genes 13 Torsion [CB]-CG--CD-[NE] |==|  0.31150
USER: genes 14 Torsion [CG]-CD--NE-[CZ] |==|  0.23129
USER: genes 15 Torsion [N]-CA--C-[N] |==|  0.39345
USER: genes 16 Torsion [N]-CA--C-[O] |==|  0.66954
USER: genes 17 Torsion [C]-N--CA-[CB] |==|  0.80638
USER: genes 18 Torsion [N]-CA--CB-[CG] |==|  0.74292
USER: genes 19 Torsion [CA]-CB--CG-[CD2] |==|  0.07071
USER: genes 20 Torsion [N]-CA--C-[O] |==|  0.61447
ROOT
ATOM      1  CA  ARG X   4     -19.611  -8.408  36.083  1.00 29.51 LIG 0.18  C 
ENDROOT
BRANCH 1 2
ATOM      2  N   ARG X   4     -20.088  -9.290  35.022  1.00 29.26 LIG-0.35  N 
ATOM      3  C   TRP X   3     -21.286  -9.904  35.063  1.00 30.37 LIG 0.24  C 
ATOM      4 O    TRP X   3     -22.110  -9.750  35.989  1.00 30.38 LIG-0.27  OA
ATOM      5 H    ARG X   4     -19.535  -9.381  34.371  1.00 29.26 LIG 0.16  HD
BRANCH 3 6
ATOM      6  CA  TRP X   3     -21.623 -10.823  33.870  1.00 30.62 LIG 0.18  C 
BRANCH 6 7
ATOM      7  N   TRP X   3     -20.429 -11.197  33.092  1.00 31.45 LIG-0.34  N 
ATOM      8 H    TRP X   3     -19.902 -11.764  33.467  1.00 31.45 LIG 0.16  HD
ATOM      9  C   MET X   2     -20.245 -10.651  31.891  1.00 32.92 LIG 0.26  C 
ATOM     10 O    MET X   2     -21.068  -9.919  31.376  1.00 32.35 LIG-0.27  OA
BRANCH 9 11
ATOM     11  CA  MET X   2     -18.992 -10.990  31.133  1.00 34.28 LIG 0.40  C 
ATOM     12  N   MET X   2     -18.560  -9.852  30.230  1.00 35.36 LIG 0.61  N 
BRANCH 11 13
ATOM     13  CB  MET X   2     -17.891 -11.313  32.131  1.00 35.71 LIG 0.06  C 
BRANCH 13 14
ATOM     14  CG  MET X   2     -16.971 -10.164  32.443  1.00 37.62 LIG 0.08  C 
BRANCH 14 15
ATOM     15 SD   MET X   2     -16.581  -9.851  34.186  1.00 39.06 LIG-0.17  SA
ATOM     16  CE  MET X   2     -17.484 -11.208  34.997  1.00 45.88 LIG 0.09  C 
ENDBRANCH 14 15
ENDBRANCH 13 14
ENDBRANCH 11 13
ENDBRANCH 9 11
ENDBRANCH 6 7
BRANCH 6 17
ATOM     17  CB  TRP X   3     -22.427 -12.042  34.325  1.00 29.85 LIG 0.07  C 
BRANCH 17 18
ATOM     18  CG  TRP X   3     -23.764 -12.135  33.641  1.00 29.58 LIG-0.03  A 
ATOM     19  CD1 TRP X   3     -23.993 -12.529  32.350  1.00 26.84 LIG 0.10  A 
ATOM     20  NE1 TRP X   3     -25.336 -12.478  32.082  1.00 29.47 LIG-0.36  N 
ATOM     21 HE1  TRP X   3     -25.699 -12.679  31.329  1.00 29.47 LIG 0.17  HD
ATOM     22  CE2 TRP X   3     -26.015 -12.057  33.203  1.00 27.62 LIG 0.04  A 
ATOM     23  CZ2 TRP X   3     -27.411 -11.846  33.417  1.00 28.85 LIG 0.03  A 
ATOM     24  CD2 TRP X   3     -25.054 -11.827  34.211  1.00 25.33 LIG-0.00  A 
ATOM     25  CH2 TRP X   3     -27.815 -11.403  34.683  1.00 28.18 LIG 0.00  A 
ATOM     26  CZ3 TRP X   3     -26.868 -11.157  35.694  1.00 26.79 LIG 0.00  A 
ATOM     27  CE3 TRP X   3     -25.482 -11.352  35.461  1.00 25.86 LIG 0.01  A 
ENDBRANCH 17 18
ENDBRANCH 6 17
ENDBRANCH 3 6
ENDBRANCH 1 2
BRANCH 1 28
ATOM     28  CB  ARG X   4     -20.621  -7.281  36.384  1.00 29.55 LIG 0.04  C 
BRANCH 28 29
ATOM     29  CG  ARG X   4     -20.041  -6.106  37.167  1.00 28.17 LIG 0.02  C 
BRANCH 29 30
ATOM     30  CD  ARG X   4     -20.738  -5.978  38.530  1.00 27.09 LIG 0.14  C 
BRANCH 30 31
ATOM     31  NE  ARG X   4     -19.796  -6.300  39.598  1.00 25.46 LIG-0.23  N 
ATOM     32 HE   ARG X   4     -19.801  -7.098  39.919  1.00 25.46 LIG 0.18  HD
ATOM     33  CZ  ARG X   4     -18.927  -5.421  40.100  1.00 27.27 LIG 0.67  C 
ATOM     34  NH2 ARG X   4     -18.086  -5.776  41.067  1.00 24.12 LIG-0.23  N 
ATOM     35  NH1 ARG X   4     -18.918  -4.174  39.635  1.00 21.32 LIG-0.23  N 
ATOM     36 1HH2 ARG X   4     -18.098  -6.578  41.376  1.00 24.12 LIG 0.17  HD
ATOM     37 2HH2 ARG X   4     -17.529  -5.202  41.385  1.00 24.12 LIG 0.17  HD
ATOM     38 2HH1 ARG X   4     -18.362  -3.601  39.953  1.00 21.32 LIG 0.17  HD
ATOM     39 1HH1 ARG X   4     -19.469  -3.942  39.017  1.00 21.32 LIG 0.17  HD
ENDBRANCH 30 31
ENDBRANCH 29 30
ENDBRANCH 28 29
ENDBRANCH 1 28
BRANCH 1 40
ATOM     40  C   ARG X   4     -19.425  -9.242  37.324  1.00 30.38 LIG 0.24  C 
ATOM     41 O    ARG X   4     -20.242 -10.112  37.581  1.00 31.87 LIG-0.27  OA
ATOM     42  N   PRO X   5     -18.370  -8.975  38.109  1.00 30.60 LIG-0.34  N 
ATOM     43  CA  PRO X   5     -18.015  -9.870  39.234  1.00 31.31 LIG 0.18  C 
ATOM     44  CD  PRO X   5     -17.410  -7.850  37.940  1.00 29.99 LIG 0.13  C 
ATOM     45  CB  PRO X   5     -16.585  -9.441  39.578  1.00 30.70 LIG 0.04  C 
ATOM     46  CG  PRO X   5     -16.491  -7.952  39.130  1.00 29.42 LIG 0.02  C 
BRANCH 43 47
ATOM     47  C   PRO X   5     -18.890  -9.820  40.517  1.00 32.23 LIG 0.24  C 
ATOM     48 O    PRO X   5     -18.375  -9.492  41.628  1.00 32.23 LIG-0.27  OA
ATOM     49  N   TRP X   6     -20.180 -10.113  40.379  1.00 33.50 LIG-0.34  N 
ATOM     50 H    TRP X   6     -20.534 -10.414  39.654  1.00 33.50 LIG 0.16  HD
BRANCH 49 51
ATOM     51  CA  TRP X   6     -21.121  -9.934  41.493  1.00 34.66 LIG 0.19  C 
BRANCH 51 52
ATOM     52  CB  TRP X   6     -20.836 -10.979  42.591  1.00 34.41 LIG 0.08  C 
BRANCH 52 53
ATOM     53  CG  TRP X   6     -21.647 -12.255  42.467  1.00 32.39 LIG-0.03  A 
ATOM     54  CD2 TRP X   6     -22.222 -12.814  41.265  1.00 31.68 LIG-0.00  A 
ATOM     55  CE2 TRP X   6     -22.899 -13.991  41.641  1.00 33.29 LIG 0.04  A 
ATOM     56  CE3 TRP X   6     -22.218 -12.438  39.915  1.00 33.66 LIG 0.01  A 
ATOM     57  CZ2 TRP X   6     -23.547 -14.814  40.708  1.00 33.18 LIG 0.03  A 
ATOM     58  NE1 TRP X   6     -22.734 -14.146  42.996  1.00 30.87 LIG-0.36  N 
ATOM     59  CH2 TRP X   6     -23.529 -14.432  39.405  1.00 32.36 LIG 0.00  A 
ATOM     60  CZ3 TRP X   6     -22.885 -13.243  38.996  1.00 32.37 LIG 0.00  A 
ATOM     61 HE1  TRP X   6     -23.042 -14.797  43.466  1.00 30.87 LIG 0.17  HD
ATOM     62  CD1 TRP X   6     -21.998 -13.097  43.479  1.00 30.01 LIG 0.10  A 
ENDBRANCH 52 53
ENDBRANCH 51 52
BRANCH 51 63
ATOM     63  C   TRP X   6     -21.107  -8.505  42.071  1.00 36.76 LIG 0.20  C 
ATOM     64 O    TRP X   6     -21.158  -8.235  43.285  1.00 37.86 LIG-0.65  OA
ATOM     65 OXT  TRP X   6     -21.062  -7.524  41.319  1.00 39.11 LIG-0.65  OA
ENDBRANCH 51 63
ENDBRANCH 49 51
ENDBRANCH 43 47
ENDBRANCH 1 40
TORSDOF 19
ENDMDL
MODEL 88
USER: ADFR SOLUTION from run 126
USER: SCORE 17.681907 LL:  -5.272 LR: -13.790 RR:   0.000 FEB:  -8.123
USER: RMSD 8.384288
USER: SEED 125
USER: STATUS no improvement in best in 13 clusters for 5 generations
USER: GENES 21
USER: genes 0 Translation |==|  0.53680 0.69799 0.70060
USER: genes 1 Rotation |==|  0.21461 0.72473 0.65171 0.80827
USER: genes 2 Torsion [CB]-CA--N-[C] |==|  0.56111
USER: genes 3 Torsion [N]-C--CA-[N] |==|  0.54114
USER: genes 4 Torsion [C]-CA--N-[C] |==|  0.73551
USER: genes 5 Torsion [N]-C--CA-[N] |==|  0.52870
USER: genes 6 Torsion [C]-CA--CB-[CG] |==|  0.86215
USER: genes 7 Torsion [CA]-CB--CG-[SD] |==|  0.73166
USER: genes 8 Torsion [CB]-CG--SD-[CE] |==|  0.62051
USER: genes 9 Torsion [C]-CA--CB-[CG] |==|  0.50061
USER: genes 10 Torsion [CA]-CB--CG-[CD2] |==|  0.40218
USER: genes 11 Torsion [N]-CA--CB-[CG] |==|  0.40979
USER: genes 12 Torsion [CA]-CB--CG-[CD] |==|  0.26078
USER: genes 13 Torsion [CB]-CG--CD-[NE] |==|  0.76450
USER: genes 14 Torsion [CG]-CD--NE-[CZ] |==|  0.28883
USER: genes 15 Torsion [N]-CA--C-[N] |==|  0.85404
USER: genes 16 Torsion [N]-CA--C-[O] |==|  0.03084
USER: genes 17 Torsion [C]-N--CA-[CB] |==|  0.25475
USER: genes 18 Torsion [N]-CA--CB-[CG] |==|  0.86297
USER: genes 19 Torsion [CA]-CB--CG-[CD2] |==|  0.22504
USER: genes 20 Torsion [N]-CA--C-[O] |==|  0.45565
ROOT
ATOM      1  CA  ARG X   4     -20.592  -8.615  42.455  1.00 29.51 LIG 0.18  C 
ENDROOT
BRANCH 1 2
ATOM      2  N   ARG X   4     -20.943 -10.002  42.746  1.00 29.26 LIG-0.35  N 
ATOM      3  C   TRP X   3     -21.338 -10.873  41.799  1.00 30.37 LIG 0.24  C 
ATOM      4 O    TRP X   3     -21.407 -10.588  40.585  1.00 30.38 LIG-0.27  OA
ATOM      5 H    ARG X   4     -20.874 -10.210  43.578  1.00 29.26 LIG 0.16  HD
BRANCH 3 6
ATOM      6  CA  TRP X   3     -21.696 -12.294  42.284  1.00 30.62 LIG 0.18  C 
BRANCH 6 7
ATOM      7  N   TRP X   3     -21.776 -13.263  41.178  1.00 31.45 LIG-0.34  N 
ATOM      8 H    TRP X   3     -21.030 -13.617  40.938  1.00 31.45 LIG 0.16  HD
ATOM      9  C   MET X   2     -22.963 -13.524  40.634  1.00 32.92 LIG 0.26  C 
ATOM     10 O    MET X   2     -23.997 -13.054  41.071  1.00 32.35 LIG-0.27  OA
BRANCH 9 11
ATOM     11  CA  MET X   2     -23.026 -14.465  39.464  1.00 34.28 LIG 0.40  C 
ATOM     12  N   MET X   2     -24.395 -14.457  38.812  1.00 35.36 LIG 0.61  N 
BRANCH 11 13
ATOM     13  CB  MET X   2     -21.964 -14.059  38.455  1.00 35.71 LIG 0.06  C 
BRANCH 13 14
ATOM     14  CG  MET X   2     -21.963 -12.597  38.098  1.00 37.62 LIG 0.08  C 
BRANCH 14 15
ATOM     15 SD   MET X   2     -22.842 -12.100  36.592  1.00 39.06 LIG-0.17  SA
ATOM     16  CE  MET X   2     -21.655 -10.927  35.865  1.00 45.88 LIG 0.09  C 
ENDBRANCH 14 15
ENDBRANCH 13 14
ENDBRANCH 11 13
ENDBRANCH 9 11
ENDBRANCH 6 7
BRANCH 6 17
ATOM     17  CB  TRP X   3     -20.746 -12.752  43.392  1.00 29.85 LIG 0.07  C 
BRANCH 17 18
ATOM     18  CG  TRP X   3     -21.065 -14.138  43.884  1.00 29.58 LIG-0.03  A 
ATOM     19  CD1 TRP X   3     -22.311 -14.693  44.003  1.00 26.84 LIG 0.10  A 
ATOM     20  NE1 TRP X   3     -22.204 -15.968  44.492  1.00 29.47 LIG-0.36  N 
ATOM     21 HE1  TRP X   3     -22.865 -16.495  44.650  1.00 29.47 LIG 0.17  HD
ATOM     22  CE2 TRP X   3     -20.878 -16.277  44.694  1.00 27.62 LIG 0.04  A 
ATOM     23  CZ2 TRP X   3     -20.268 -17.470  45.187  1.00 28.85 LIG 0.03  A 
ATOM     24  CD2 TRP X   3     -20.125 -15.143  44.322  1.00 25.33 LIG-0.00  A 
ATOM     25  CH2 TRP X   3     -18.871 -17.491  45.288  1.00 28.18 LIG 0.00  A 
ATOM     26  CZ3 TRP X   3     -18.107 -16.364  44.933  1.00 26.79 LIG 0.00  A 
ATOM     27  CE3 TRP X   3     -18.728 -15.178  44.463  1.00 25.86 LIG 0.01  A 
ENDBRANCH 17 18
ENDBRANCH 6 17
ENDBRANCH 3 6
ENDBRANCH 1 2
BRANCH 1 28
ATOM     28  CB  ARG X   4     -19.687  -8.015  43.552  1.00 29.55 LIG 0.04  C 
BRANCH 28 29
ATOM     29  CG  ARG X   4     -18.682  -6.983  43.046  1.00 28.17 LIG 0.02  C 
BRANCH 29 30
ATOM     30  CD  ARG X   4     -19.259  -5.566  43.183  1.00 27.09 LIG 0.14  C 
BRANCH 30 31
ATOM     31  NE  ARG X   4     -20.083  -5.255  42.018  1.00 25.46 LIG-0.23  N 
ATOM     32 HE   ARG X   4     -19.688  -5.061  41.279  1.00 25.46 LIG 0.18  HD
ATOM     33  CZ  ARG X   4     -21.417  -5.257  42.041  1.00 27.27 LIG 0.67  C 
ATOM     34  NH2 ARG X   4     -22.115  -4.974  40.944  1.00 24.12 LIG-0.23  N 
ATOM     35  NH1 ARG X   4     -22.050  -5.531  43.179  1.00 21.32 LIG-0.23  N 
ATOM     36 1HH2 ARG X   4     -21.707  -4.786  40.211  1.00 24.12 LIG 0.17  HD
ATOM     37 2HH2 ARG X   4     -22.975  -4.978  40.968  1.00 24.12 LIG 0.17  HD
ATOM     38 2HH1 ARG X   4     -22.909  -5.534  43.203  1.00 21.32 LIG 0.17  HD
ATOM     39 1HH1 ARG X   4     -21.599  -5.705  43.890  1.00 21.32 LIG 0.17  HD
ENDBRANCH 30 31
ENDBRANCH 29 30
ENDBRANCH 28 29
ENDBRANCH 1 28
BRANCH 1 40
ATOM     40  C   ARG X   4     -19.850  -8.596  41.144  1.00 30.38 LIG 0.24  C 
ATOM     41 O    ARG X   4     -20.240  -7.858  40.253  1.00 31.87 LIG-0.27  OA
ATOM     42  N   PRO X   5     -18.795  -9.414  41.007  1.00 30.60 LIG-0.34  N 
ATOM     43  CA  PRO X   5     -17.905  -9.314  39.828  1.00 31.31 LIG 0.18  C 
ATOM     44  CD  PRO X   5     -18.340 -10.435  41.990  1.00 29.99 LIG 0.13  C 
ATOM     45  CB  PRO X   5     -16.667 -10.103  40.263  1.00 30.70 LIG 0.04  C 
ATOM     46  CG  PRO X   5     -17.189 -11.131  41.310  1.00 29.42 LIG 0.02  C 
BRANCH 43 47
ATOM     47  C   PRO X   5     -18.419  -9.868  38.470  1.00 32.23 LIG 0.24  C 
ATOM     48 O    PRO X   5     -19.636 -10.195  38.335  1.00 32.23 LIG-0.27  OA
ATOM     49  N   TRP X   6     -17.534  -9.955  37.481  1.00 33.50 LIG-0.34  N 
ATOM     50 H    TRP X   6     -16.690  -9.815  37.572  1.00 33.50 LIG 0.16  HD
BRANCH 49 51
ATOM     51  CA  TRP X   6     -17.954 -10.307  36.118  1.00 34.66 LIG 0.19  C 
BRANCH 51 52
ATOM     52  CB  TRP X   6     -18.263  -9.025  35.317  1.00 34.41 LIG 0.08  C 
BRANCH 52 53
ATOM     53  CG  TRP X   6     -19.177  -8.047  36.031  1.00 32.39 LIG-0.03  A 
ATOM     54  CD2 TRP X   6     -18.810  -7.087  37.047  1.00 31.68 LIG-0.00  A 
ATOM     55  CE2 TRP X   6     -19.991  -6.416  37.425  1.00 33.29 LIG 0.04  A 
ATOM     56  CE3 TRP X   6     -17.602  -6.726  37.657  1.00 33.66 LIG 0.01  A 
ATOM     57  CZ2 TRP X   6     -19.995  -5.382  38.372  1.00 33.18 LIG 0.03  A 
ATOM     58  NE1 TRP X   6     -21.016  -6.933  36.670  1.00 30.87 LIG-0.36  N 
ATOM     59  CH2 TRP X   6     -18.813  -5.048  38.951  1.00 32.36 LIG 0.00  A 
ATOM     60  CZ3 TRP X   6     -17.615  -5.718  38.618  1.00 32.37 LIG 0.00  A 
ATOM     61 HE1  TRP X   6     -21.838  -6.680  36.705  1.00 30.87 LIG 0.17  HD
ATOM     62  CD1 TRP X   6     -20.521  -7.914  35.854  1.00 30.01 LIG 0.10  A 
ENDBRANCH 52 53
ENDBRANCH 51 52
BRANCH 51 63
ATOM     63  C   TRP X   6     -16.927 -11.188  35.379  1.00 36.76 LIG 0.20  C 
ATOM     64 O    TRP X   6     -17.170 -11.840  34.347  1.00 37.86 LIG-0.65  OA
ATOM     65 OXT  TRP X   6     -15.774 -11.303  35.810  1.00 39.11 LIG-0.65  OA
ENDBRANCH 51 63
ENDBRANCH 49 51
ENDBRANCH 43 47
ENDBRANCH 1 40
TORSDOF 19
ENDMDL
MODEL 89
USER: ADFR SOLUTION from run 45
USER: SCORE 16.960196 LL:  -3.730 LR: -13.788 RR:   0.000 FEB:  -8.121
USER: RMSD 7.089316
USER: SEED 44
USER: STATUS no improvement in best in 10 clusters for 5 generations
USER: GENES 21
USER: genes 0 Translation |==|  0.57737 0.56435 0.66071
USER: genes 1 Rotation |==|  0.75192 0.31879 0.46860 0.89079
USER: genes 2 Torsion [CB]-CA--N-[C] |==|  0.50580
USER: genes 3 Torsion [N]-C--CA-[N] |==|  0.05281
USER: genes 4 Torsion [C]-CA--N-[C] |==|  0.71368
USER: genes 5 Torsion [N]-C--CA-[N] |==|  0.55302
USER: genes 6 Torsion [C]-CA--CB-[CG] |==|  0.39307
USER: genes 7 Torsion [CA]-CB--CG-[SD] |==|  0.80459
USER: genes 8 Torsion [CB]-CG--SD-[CE] |==|  0.83751
USER: genes 9 Torsion [C]-CA--CB-[CG] |==|  0.82545
USER: genes 10 Torsion [CA]-CB--CG-[CD2] |==|  0.69798
USER: genes 11 Torsion [N]-CA--CB-[CG] |==|  0.65450
USER: genes 12 Torsion [CA]-CB--CG-[CD] |==|  0.65866
USER: genes 13 Torsion [CB]-CG--CD-[NE] |==|  0.57285
USER: genes 14 Torsion [CG]-CD--NE-[CZ] |==|  0.51182
USER: genes 15 Torsion [N]-CA--C-[N] |==|  0.45513
USER: genes 16 Torsion [N]-CA--C-[O] |==|  0.81316
USER: genes 17 Torsion [C]-N--CA-[CB] |==|  0.80515
USER: genes 18 Torsion [N]-CA--CB-[CG] |==|  0.87009
USER: genes 19 Torsion [CA]-CB--CG-[CD2] |==|  0.81941
USER: genes 20 Torsion [N]-CA--C-[O] |==|  0.98242
ROOT
ATOM      1  CA  ARG X   4     -19.740 -11.221  41.707  1.00 29.51 LIG 0.18  C 
ENDROOT
BRANCH 1 2
ATOM      2  N   ARG X   4     -18.976 -10.071  41.233  1.00 29.26 LIG-0.35  N 
ATOM      3  C   TRP X   3     -18.286  -9.259  42.056  1.00 30.37 LIG 0.24  C 
ATOM      4 O    TRP X   3     -18.208  -9.433  43.291  1.00 30.38 LIG-0.27  OA
ATOM      5 H    ARG X   4     -19.007  -9.961  40.381  1.00 29.26 LIG 0.16  HD
BRANCH 3 6
ATOM      6  CA  TRP X   3     -17.554  -8.075  41.391  1.00 30.62 LIG 0.18  C 
BRANCH 6 7
ATOM      7  N   TRP X   3     -18.081  -7.767  40.050  1.00 31.45 LIG-0.34  N 
ATOM      8 H    TRP X   3     -18.827  -7.342  40.032  1.00 31.45 LIG 0.16  HD
ATOM      9  C   MET X   2     -17.388  -8.157  38.981  1.00 32.92 LIG 0.26  C 
ATOM     10 O    MET X   2     -16.295  -8.683  39.070  1.00 32.35 LIG-0.27  OA
BRANCH 9 11
ATOM     11  CA  MET X   2     -17.966  -7.896  37.618  1.00 34.28 LIG 0.40  C 
ATOM     12  N   MET X   2     -17.327  -8.777  36.562  1.00 35.36 LIG 0.61  N 
BRANCH 11 13
ATOM     13  CB  MET X   2     -19.465  -8.143  37.669  1.00 35.71 LIG 0.06  C 
BRANCH 13 14
ATOM     14  CG  MET X   2     -20.289  -7.174  36.863  1.00 37.62 LIG 0.08  C 
BRANCH 14 15
ATOM     15 SD   MET X   2     -20.406  -5.468  37.465  1.00 39.06 LIG-0.17  SA
ATOM     16  CE  MET X   2     -21.118  -5.728  39.120  1.00 45.88 LIG 0.09  C 
ENDBRANCH 14 15
ENDBRANCH 13 14
ENDBRANCH 11 13
ENDBRANCH 9 11
ENDBRANCH 6 7
BRANCH 6 17
ATOM     17  CB  TRP X   3     -17.545  -6.850  42.307  1.00 29.85 LIG 0.07  C 
BRANCH 17 18
ATOM     18  CG  TRP X   3     -18.930  -6.336  42.593  1.00 29.58 LIG-0.03  A 
ATOM     19  CD1 TRP X   3     -19.875  -6.938  43.380  1.00 26.84 LIG 0.10  A 
ATOM     20  NE1 TRP X   3     -21.016  -6.179  43.395  1.00 29.47 LIG-0.36  N 
ATOM     21 HE1  TRP X   3     -21.736  -6.375  43.822  1.00 29.47 LIG 0.17  HD
ATOM     22  CE2 TRP X   3     -20.833  -5.055  42.622  1.00 27.62 LIG 0.04  A 
ATOM     23  CZ2 TRP X   3     -21.722  -3.976  42.329  1.00 28.85 LIG 0.03  A 
ATOM     24  CD2 TRP X   3     -19.525  -5.119  42.096  1.00 25.33 LIG-0.00  A 
ATOM     25  CH2 TRP X   3     -21.251  -2.955  41.494  1.00 28.18 LIG 0.00  A 
ATOM     26  CZ3 TRP X   3     -19.955  -3.011  40.951  1.00 26.79 LIG 0.00  A 
ATOM     27  CE3 TRP X   3     -19.089  -4.099  41.234  1.00 25.86 LIG 0.01  A 
ENDBRANCH 17 18
ENDBRANCH 6 17
ENDBRANCH 3 6
ENDBRANCH 1 2
BRANCH 1 28
ATOM     28  CB  ARG X   4     -20.384 -11.997  40.539  1.00 29.55 LIG 0.04  C 
BRANCH 28 29
ATOM     29  CG  ARG X   4     -21.897 -12.167  40.652  1.00 28.17 LIG 0.02  C 
BRANCH 29 30
ATOM     30  CD  ARG X   4     -22.270 -13.657  40.615  1.00 27.09 LIG 0.14  C 
BRANCH 30 31
ATOM     31  NE  ARG X   4     -23.630 -13.812  40.106  1.00 25.46 LIG-0.23  N 
ATOM     32 HE   ARG X   4     -24.047 -13.110  39.836  1.00 25.46 LIG 0.18  HD
ATOM     33  CZ  ARG X   4     -24.258 -14.987  40.038  1.00 27.27 LIG 0.67  C 
ATOM     34  NH2 ARG X   4     -25.495 -15.068  39.556  1.00 24.12 LIG-0.23  N 
ATOM     35  NH1 ARG X   4     -23.641 -16.083  40.473  1.00 21.32 LIG-0.23  N 
ATOM     36 1HH2 ARG X   4     -25.898 -14.359  39.285  1.00 24.12 LIG 0.17  HD
ATOM     37 2HH2 ARG X   4     -25.892 -15.830  39.516  1.00 24.12 LIG 0.17  HD
ATOM     38 2HH1 ARG X   4     -24.038 -16.844  40.433  1.00 21.32 LIG 0.17  HD
ATOM     39 1HH1 ARG X   4     -22.845 -16.030  40.794  1.00 21.32 LIG 0.17  HD
ENDBRANCH 30 31
ENDBRANCH 29 30
ENDBRANCH 28 29
ENDBRANCH 1 28
BRANCH 1 40
ATOM     40  C   ARG X   4     -18.789 -12.135  42.436  1.00 30.38 LIG 0.24  C 
ATOM     41 O    ARG X   4     -17.588 -11.999  42.263  1.00 31.87 LIG-0.27  OA
ATOM     42  N   PRO X   5     -19.311 -13.079  43.234  1.00 30.60 LIG-0.34  N 
ATOM     43  CA  PRO X   5     -18.445 -13.883  44.126  1.00 31.31 LIG 0.18  C 
ATOM     44  CD  PRO X   5     -20.757 -13.395  43.392  1.00 29.99 LIG 0.13  C 
ATOM     45  CB  PRO X   5     -19.444 -14.508  45.104  1.00 30.70 LIG 0.04  C 
ATOM     46  CG  PRO X   5     -20.787 -14.583  44.319  1.00 29.42 LIG 0.02  C 
BRANCH 43 47
ATOM     47  C   PRO X   5     -17.576 -15.004  43.490  1.00 32.23 LIG 0.24  C 
ATOM     48 O    PRO X   5     -18.127 -16.027  42.983  1.00 32.23 LIG-0.27  OA
ATOM     49  N   TRP X   6     -16.259 -14.819  43.491  1.00 33.50 LIG-0.34  N 
ATOM     50 H    TRP X   6     -15.860 -14.174  43.899  1.00 33.50 LIG 0.16  HD
BRANCH 49 51
ATOM     51  CA  TRP X   6     -15.365 -15.736  42.771  1.00 34.66 LIG 0.19  C 
BRANCH 51 52
ATOM     52  CB  TRP X   6     -15.328 -17.101  43.488  1.00 34.41 LIG 0.08  C 
BRANCH 52 53
ATOM     53  CG  TRP X   6     -15.142 -17.014  44.992  1.00 32.39 LIG-0.03  A 
ATOM     54  CD2 TRP X   6     -13.987 -16.516  45.704  1.00 31.68 LIG-0.00  A 
ATOM     55  CE2 TRP X   6     -14.264 -16.647  47.080  1.00 33.29 LIG 0.04  A 
ATOM     56  CE3 TRP X   6     -12.761 -15.966  45.311  1.00 33.66 LIG 0.01  A 
ATOM     57  CZ2 TRP X   6     -13.366 -16.223  48.069  1.00 33.18 LIG 0.03  A 
ATOM     58  NE1 TRP X   6     -15.523 -17.184  47.196  1.00 30.87 LIG-0.36  N 
ATOM     59  CH2 TRP X   6     -12.183 -15.691  47.665  1.00 32.36 LIG 0.00  A 
ATOM     60  CZ3 TRP X   6     -11.860 -15.570  46.296  1.00 32.37 LIG 0.00  A 
ATOM     61 HE1  TRP X   6     -15.929 -17.350  47.936  1.00 30.87 LIG 0.17  HD
ATOM     62  CD1 TRP X   6     -16.030 -17.411  45.944  1.00 30.01 LIG 0.10  A 
ENDBRANCH 52 53
ENDBRANCH 51 52
BRANCH 51 63
ATOM     63  C   TRP X   6     -15.740 -15.902  41.285  1.00 36.76 LIG 0.20  C 
ATOM     64 O    TRP X   6     -16.758 -15.420  40.757  1.00 37.86 LIG-0.65  OA
ATOM     65 OXT  TRP X   6     -15.023 -16.566  40.527  1.00 39.11 LIG-0.65  OA
ENDBRANCH 51 63
ENDBRANCH 49 51
ENDBRANCH 43 47
ENDBRANCH 1 40
TORSDOF 19
ENDMDL
MODEL 90
USER: ADFR SOLUTION from run 44
USER: SCORE 18.000367 LL:  -5.416 LR: -13.787 RR:   0.000 FEB:  -8.120
USER: RMSD 5.821266
USER: SEED 43
USER: STATUS 1 or 2 clusters left
USER: GENES 21
USER: genes 0 Translation |==|  0.51117 0.59121 0.40004
USER: genes 1 Rotation |==|  0.68939 0.25386 0.45550 0.88931
USER: genes 2 Torsion [CB]-CA--N-[C] |==|  0.51714
USER: genes 3 Torsion [N]-C--CA-[N] |==|  0.91801
USER: genes 4 Torsion [C]-CA--N-[C] |==|  0.79444
USER: genes 5 Torsion [N]-C--CA-[N] |==|  0.07586
USER: genes 6 Torsion [C]-CA--CB-[CG] |==|  0.44246
USER: genes 7 Torsion [CA]-CB--CG-[SD] |==|  0.37427
USER: genes 8 Torsion [CB]-CG--SD-[CE] |==|  0.09247
USER: genes 9 Torsion [C]-CA--CB-[CG] |==|  0.20258
USER: genes 10 Torsion [CA]-CB--CG-[CD2] |==|  0.72708
USER: genes 11 Torsion [N]-CA--CB-[CG] |==|  0.60087
USER: genes 12 Torsion [CA]-CB--CG-[CD] |==|  0.70686
USER: genes 13 Torsion [CB]-CG--CD-[NE] |==|  0.28269
USER: genes 14 Torsion [CG]-CD--NE-[CZ] |==|  0.67363
USER: genes 15 Torsion [N]-CA--C-[N] |==|  0.83324
USER: genes 16 Torsion [N]-CA--C-[O] |==|  0.46438
USER: genes 17 Torsion [C]-N--CA-[CB] |==|  0.81849
USER: genes 18 Torsion [N]-CA--CB-[CG] |==|  0.86349
USER: genes 19 Torsion [CA]-CB--CG-[CD2] |==|  0.74572
USER: genes 20 Torsion [N]-CA--C-[O] |==|  0.13896
ROOT
ATOM      1  CA  ARG X   4     -21.130 -10.697  36.820  1.00 29.51 LIG 0.18  C 
ENDROOT
BRANCH 1 2
ATOM      2  N   ARG X   4     -20.023  -9.892  36.312  1.00 29.26 LIG-0.35  N 
ATOM      3  C   TRP X   3     -19.206  -9.182  37.112  1.00 30.37 LIG 0.24  C 
ATOM      4 O    TRP X   3     -19.296  -9.173  38.358  1.00 30.38 LIG-0.27  OA
ATOM      5 H    ARG X   4     -19.942  -9.914  35.456  1.00 29.26 LIG 0.16  HD
BRANCH 3 6
ATOM      6  CA  TRP X   3     -18.102  -8.366  36.408  1.00 30.62 LIG 0.18  C 
BRANCH 6 7
ATOM      7  N   TRP X   3     -17.667  -8.980  35.141  1.00 31.45 LIG-0.34  N 
ATOM      8 H    TRP X   3     -17.938  -8.589  34.425  1.00 31.45 LIG 0.16  HD
ATOM      9  C   MET X   2     -16.904 -10.071  35.183  1.00 32.92 LIG 0.26  C 
ATOM     10 O    MET X   2     -16.483 -10.531  36.227  1.00 32.35 LIG-0.27  OA
BRANCH 9 11
ATOM     11  CA  MET X   2     -16.520 -10.727  33.886  1.00 34.28 LIG 0.40  C 
ATOM     12  N   MET X   2     -16.489  -9.732  32.744  1.00 35.36 LIG 0.61  N 
BRANCH 11 13
ATOM     13  CB  MET X   2     -15.154 -11.374  34.054  1.00 35.71 LIG 0.06  C 
BRANCH 13 14
ATOM     14  CG  MET X   2     -14.846 -12.456  33.055  1.00 37.62 LIG 0.08  C 
BRANCH 14 15
ATOM     15 SD   MET X   2     -13.208 -12.440  32.278  1.00 39.06 LIG-0.17  SA
ATOM     16  CE  MET X   2     -12.183 -11.783  33.631  1.00 45.88 LIG 0.09  C 
ENDBRANCH 14 15
ENDBRANCH 13 14
ENDBRANCH 11 13
ENDBRANCH 9 11
ENDBRANCH 6 7
BRANCH 6 17
ATOM     17  CB  TRP X   3     -18.525  -6.906  36.231  1.00 29.85 LIG 0.07  C 
BRANCH 17 18
ATOM     18  CG  TRP X   3     -18.507  -6.143  37.528  1.00 29.58 LIG-0.03  A 
ATOM     19  CD1 TRP X   3     -17.412  -5.581  38.126  1.00 26.84 LIG 0.10  A 
ATOM     20  NE1 TRP X   3     -17.785  -4.976  39.298  1.00 29.47 LIG-0.36  N 
ATOM     21 HE1  TRP X   3     -17.253  -4.567  39.836  1.00 29.47 LIG 0.17  HD
ATOM     22  CE2 TRP X   3     -19.141  -5.124  39.483  1.00 27.62 LIG 0.04  A 
ATOM     23  CZ2 TRP X   3     -19.987  -4.675  40.543  1.00 28.85 LIG 0.03  A 
ATOM     24  CD2 TRP X   3     -19.634  -5.858  38.384  1.00 25.33 LIG-0.00  A 
ATOM     25  CH2 TRP X   3     -21.351  -4.982  40.460  1.00 28.18 LIG 0.00  A 
ATOM     26  CZ3 TRP X   3     -21.856  -5.725  39.377  1.00 26.79 LIG 0.00  A 
ATOM     27  CE3 TRP X   3     -21.000  -6.181  38.341  1.00 25.86 LIG 0.01  A 
ENDBRANCH 17 18
ENDBRANCH 6 17
ENDBRANCH 3 6
ENDBRANCH 1 2
BRANCH 1 28
ATOM     28  CB  ARG X   4     -21.798 -11.519  35.697  1.00 29.55 LIG 0.04  C 
BRANCH 28 29
ATOM     29  CG  ARG X   4     -23.312 -11.662  35.833  1.00 28.17 LIG 0.02  C 
BRANCH 29 30
ATOM     30  CD  ARG X   4     -23.673 -13.080  36.300  1.00 27.09 LIG 0.14  C 
BRANCH 30 31
ATOM     31  NE  ARG X   4     -23.984 -13.065  37.727  1.00 25.46 LIG-0.23  N 
ATOM     32 HE   ARG X   4     -24.656 -12.599  37.993  1.00 25.46 LIG 0.18  HD
ATOM     33  CZ  ARG X   4     -23.279 -13.737  38.639  1.00 27.27 LIG 0.67  C 
ATOM     34  NH2 ARG X   4     -23.615 -13.692  39.925  1.00 24.12 LIG-0.23  N 
ATOM     35  NH1 ARG X   4     -22.220 -14.445  38.253  1.00 21.32 LIG-0.23  N 
ATOM     36 1HH2 ARG X   4     -24.292 -13.227  40.176  1.00 24.12 LIG 0.17  HD
ATOM     37 2HH2 ARG X   4     -23.155 -14.130  40.506  1.00 24.12 LIG 0.17  HD
ATOM     38 2HH1 ARG X   4     -21.760 -14.881  38.833  1.00 21.32 LIG 0.17  HD
ATOM     39 1HH1 ARG X   4     -21.996 -14.466  37.423  1.00 21.32 LIG 0.17  HD
ENDBRANCH 30 31
ENDBRANCH 29 30
ENDBRANCH 28 29
ENDBRANCH 1 28
BRANCH 1 40
ATOM     40  C   ARG X   4     -20.573 -11.643  37.852  1.00 30.38 LIG 0.24  C 
ATOM     41 O    ARG X   4     -20.983 -11.576  39.000  1.00 31.87 LIG-0.27  OA
ATOM     42  N   PRO X   5     -19.627 -12.512  37.463  1.00 30.60 LIG-0.34  N 
ATOM     43  CA  PRO X   5     -19.173 -13.593  38.367  1.00 31.31 LIG 0.18  C 
ATOM     44  CD  PRO X   5     -18.980 -12.566  36.124  1.00 29.99 LIG 0.13  C 
ATOM     45  CB  PRO X   5     -18.435 -14.545  37.420  1.00 30.70 LIG 0.04  C 
ATOM     46  CG  PRO X   5     -17.937 -13.647  36.250  1.00 29.42 LIG 0.02  C 
BRANCH 43 47
ATOM     47  C   PRO X   5     -18.239 -13.218  39.551  1.00 32.23 LIG 0.24  C 
ATOM     48 O    PRO X   5     -18.023 -14.052  40.481  1.00 32.23 LIG-0.27  OA
ATOM     49  N   TRP X   6     -17.679 -12.012  39.518  1.00 33.50 LIG-0.34  N 
ATOM     50 H    TRP X   6     -17.873 -11.403  38.942  1.00 33.50 LIG 0.16  HD
BRANCH 49 51
ATOM     51  CA  TRP X   6     -16.656 -11.626  40.499  1.00 34.66 LIG 0.19  C 
BRANCH 51 52
ATOM     52  CB  TRP X   6     -17.277 -11.574  41.910  1.00 34.41 LIG 0.08  C 
BRANCH 52 53
ATOM     53  CG  TRP X   6     -18.572 -10.788  41.995  1.00 32.39 LIG-0.03  A 
ATOM     54  CD2 TRP X   6     -18.727  -9.385  42.301  1.00 31.68 LIG-0.00  A 
ATOM     55  CE2 TRP X   6     -20.109  -9.109  42.285  1.00 33.29 LIG 0.04  A 
ATOM     56  CE3 TRP X   6     -17.832  -8.341  42.574  1.00 33.66 LIG 0.01  A 
ATOM     57  CZ2 TRP X   6     -20.619  -7.822  42.505  1.00 33.18 LIG 0.03  A 
ATOM     58  NE1 TRP X   6     -20.757 -10.279  41.973  1.00 30.87 LIG-0.36  N 
ATOM     59  CH2 TRP X   6     -19.735  -6.825  42.766  1.00 32.36 LIG 0.00  A 
ATOM     60  CZ3 TRP X   6     -18.345  -7.070  42.819  1.00 32.37 LIG 0.00  A 
ATOM     61 HE1  TRP X   6     -21.608 -10.371  41.889  1.00 30.87 LIG 0.17  HD
ATOM     62  CD1 TRP X   6     -19.831 -11.276  41.817  1.00 30.01 LIG 0.10  A 
ENDBRANCH 52 53
ENDBRANCH 51 52
BRANCH 51 63
ATOM     63  C   TRP X   6     -15.418 -12.544  40.473  1.00 36.76 LIG 0.20  C 
ATOM     64 O    TRP X   6     -14.789 -12.851  39.444  1.00 37.86 LIG-0.65  OA
ATOM     65 OXT  TRP X   6     -14.990 -13.051  41.517  1.00 39.11 LIG-0.65  OA
ENDBRANCH 51 63
ENDBRANCH 49 51
ENDBRANCH 43 47
ENDBRANCH 1 40
TORSDOF 19
ENDMDL
MODEL 91
USER: ADFR SOLUTION from run 81
USER: SCORE 18.484352 LL:  -6.781 LR: -13.779 RR:   0.000 FEB:  -8.112
USER: RMSD 8.165394
USER: SEED 80
USER: STATUS no improvement in best in 21 clusters for 5 generations
USER: GENES 21
USER: genes 0 Translation |==|  0.54592 0.72475 0.69030
USER: genes 1 Rotation |==|  0.25461 0.64602 0.81442 0.76383
USER: genes 2 Torsion [CB]-CA--N-[C] |==|  0.36763
USER: genes 3 Torsion [N]-C--CA-[N] |==|  0.71111
USER: genes 4 Torsion [C]-CA--N-[C] |==|  0.17070
USER: genes 5 Torsion [N]-C--CA-[N] |==|  0.71664
USER: genes 6 Torsion [C]-CA--CB-[CG] |==|  0.20245
USER: genes 7 Torsion [CA]-CB--CG-[SD] |==|  0.42512
USER: genes 8 Torsion [CB]-CG--SD-[CE] |==|  0.64102
USER: genes 9 Torsion [C]-CA--CB-[CG] |==|  0.59715
USER: genes 10 Torsion [CA]-CB--CG-[CD2] |==|  0.34788
USER: genes 11 Torsion [N]-CA--CB-[CG] |==|  0.31997
USER: genes 12 Torsion [CA]-CB--CG-[CD] |==|  0.28260
USER: genes 13 Torsion [CB]-CG--CD-[NE] |==|  0.73787
USER: genes 14 Torsion [CG]-CD--NE-[CZ] |==|  0.79344
USER: genes 15 Torsion [N]-CA--C-[N] |==|  0.86017
USER: genes 16 Torsion [N]-CA--C-[O] |==|  0.38821
USER: genes 17 Torsion [C]-N--CA-[CB] |==|  0.25388
USER: genes 18 Torsion [N]-CA--CB-[CG] |==|  0.15940
USER: genes 19 Torsion [CA]-CB--CG-[CD2] |==|  0.41255
USER: genes 20 Torsion [N]-CA--C-[O] |==|  0.67008
ROOT
ATOM      1  CA  ARG X   4     -20.401  -8.093  42.262  1.00 29.51 LIG 0.18  C 
ENDROOT
BRANCH 1 2
ATOM      2  N   ARG X   4     -19.923  -9.441  41.964  1.00 29.26 LIG-0.35  N 
ATOM      3  C   TRP X   3     -20.737 -10.511  41.907  1.00 30.37 LIG 0.24  C 
ATOM      4 O    TRP X   3     -21.974 -10.448  42.069  1.00 30.38 LIG-0.27  OA
ATOM      5 H    ARG X   4     -19.075  -9.486  41.829  1.00 29.26 LIG 0.16  HD
BRANCH 3 6
ATOM      6  CA  TRP X   3     -20.062 -11.866  41.606  1.00 30.62 LIG 0.18  C 
BRANCH 6 7
ATOM      7  N   TRP X   3     -20.283 -12.309  40.218  1.00 31.45 LIG-0.34  N 
ATOM      8 H    TRP X   3     -20.707 -13.051  40.127  1.00 31.45 LIG 0.16  HD
ATOM      9  C   MET X   2     -19.826 -11.554  39.221  1.00 32.92 LIG 0.26  C 
ATOM     10 O    MET X   2     -19.307 -10.470  39.409  1.00 32.35 LIG-0.27  OA
BRANCH 9 11
ATOM     11  CA  MET X   2     -19.999 -12.046  37.811  1.00 34.28 LIG 0.40  C 
ATOM     12  N   MET X   2     -18.712 -12.628  37.260  1.00 35.36 LIG 0.61  N 
BRANCH 11 13
ATOM     13  CB  MET X   2     -21.098 -13.097  37.793  1.00 35.71 LIG 0.06  C 
BRANCH 13 14
ATOM     14  CG  MET X   2     -22.490 -12.552  37.966  1.00 37.62 LIG 0.08  C 
BRANCH 14 15
ATOM     15 SD   MET X   2     -23.858 -13.499  37.246  1.00 39.06 LIG-0.17  SA
ATOM     16  CE  MET X   2     -24.726 -12.204  36.306  1.00 45.88 LIG 0.09  C 
ENDBRANCH 14 15
ENDBRANCH 13 14
ENDBRANCH 11 13
ENDBRANCH 9 11
ENDBRANCH 6 7
BRANCH 6 17
ATOM     17  CB  TRP X   3     -18.579 -11.837  41.978  1.00 29.85 LIG 0.07  C 
BRANCH 17 18
ATOM     18  CG  TRP X   3     -17.735 -12.654  41.037  1.00 29.58 LIG-0.03  A 
ATOM     19  CD1 TRP X   3     -17.915 -13.973  40.720  1.00 26.84 LIG 0.10  A 
ATOM     20  NE1 TRP X   3     -16.946 -14.373  39.837  1.00 29.47 LIG-0.36  N 
ATOM     21 HE1  TRP X   3     -16.868 -15.165  39.511  1.00 29.47 LIG 0.17  HD
ATOM     22  CE2 TRP X   3     -16.116 -13.313  39.551  1.00 27.62 LIG 0.04  A 
ATOM     23  CZ2 TRP X   3     -14.973 -13.234  38.698  1.00 28.85 LIG 0.03  A 
ATOM     24  CD2 TRP X   3     -16.582 -12.207  40.293  1.00 25.33 LIG-0.00  A 
ATOM     25  CH2 TRP X   3     -14.315 -12.001  38.607  1.00 28.18 LIG 0.00  A 
ATOM     26  CZ3 TRP X   3     -14.759 -10.892  39.351  1.00 26.79 LIG 0.00  A 
ATOM     27  CE3 TRP X   3     -15.884 -10.991  40.209  1.00 25.86 LIG 0.01  A 
ENDBRANCH 17 18
ENDBRANCH 6 17
ENDBRANCH 3 6
ENDBRANCH 1 2
BRANCH 1 28
ATOM     28  CB  ARG X   4     -19.529  -7.404  43.333  1.00 29.55 LIG 0.04  C 
BRANCH 28 29
ATOM     29  CG  ARG X   4     -18.770  -6.177  42.836  1.00 28.17 LIG 0.02  C 
BRANCH 29 30
ATOM     30  CD  ARG X   4     -19.480  -4.892  43.289  1.00 27.09 LIG 0.14  C 
BRANCH 30 31
ATOM     31  NE  ARG X   4     -20.378  -4.428  42.236  1.00 25.46 LIG-0.23  N 
ATOM     32 HE   ARG X   4     -21.224  -4.539  42.343  1.00 25.46 LIG 0.18  HD
ATOM     33  CZ  ARG X   4     -19.954  -3.841  41.115  1.00 27.27 LIG 0.67  C 
ATOM     34  NH2 ARG X   4     -20.822  -3.430  40.194  1.00 24.12 LIG-0.23  N 
ATOM     35  NH1 ARG X   4     -18.648  -3.682  40.916  1.00 21.32 LIG-0.23  N 
ATOM     36 1HH2 ARG X   4     -21.665  -3.543  40.317  1.00 24.12 LIG 0.17  HD
ATOM     37 2HH2 ARG X   4     -20.539  -3.052  39.475  1.00 24.12 LIG 0.17  HD
ATOM     38 2HH1 ARG X   4     -18.366  -3.305  40.197  1.00 21.32 LIG 0.17  HD
ATOM     39 1HH1 ARG X   4     -18.087  -3.956  41.507  1.00 21.32 LIG 0.17  HD
ENDBRANCH 30 31
ENDBRANCH 29 30
ENDBRANCH 28 29
ENDBRANCH 1 28
BRANCH 1 40
ATOM     40  C   ARG X   4     -20.334  -7.292  40.988  1.00 30.38 LIG 0.24  C 
ATOM     41 O    ARG X   4     -21.323  -6.678  40.622  1.00 31.87 LIG-0.27  OA
ATOM     42  N   PRO X   5     -19.184  -7.306  40.296  1.00 30.60 LIG-0.34  N 
ATOM     43  CA  PRO X   5     -18.979  -6.396  39.146  1.00 31.31 LIG 0.18  C 
ATOM     44  CD  PRO X   5     -17.984  -8.132  40.602  1.00 29.99 LIG 0.13  C 
ATOM     45  CB  PRO X   5     -17.464  -6.450  38.930  1.00 30.70 LIG 0.04  C 
ATOM     46  CG  PRO X   5     -17.026  -7.842  39.475  1.00 29.42 LIG 0.02  C 
BRANCH 43 47
ATOM     47  C   PRO X   5     -19.702  -6.727  37.811  1.00 32.23 LIG 0.24  C 
ATOM     48 O    PRO X   5     -20.215  -5.798  37.117  1.00 32.23 LIG-0.27  OA
ATOM     49  N   TRP X   6     -19.729  -8.004  37.440  1.00 33.50 LIG-0.34  N 
ATOM     50 H    TRP X   6     -19.459  -8.657  37.931  1.00 33.50 LIG 0.16  HD
BRANCH 49 51
ATOM     51  CA  TRP X   6     -20.239  -8.398  36.119  1.00 34.66 LIG 0.19  C 
BRANCH 51 52
ATOM     52  CB  TRP X   6     -19.081  -8.439  35.102  1.00 34.41 LIG 0.08  C 
BRANCH 52 53
ATOM     53  CG  TRP X   6     -17.944  -9.369  35.484  1.00 32.39 LIG-0.03  A 
ATOM     54  CD2 TRP X   6     -17.084 -10.113  34.593  1.00 31.68 LIG-0.00  A 
ATOM     55  CE2 TRP X   6     -16.193 -10.849  35.400  1.00 33.29 LIG 0.04  A 
ATOM     56  CE3 TRP X   6     -16.975 -10.215  33.200  1.00 33.66 LIG 0.01  A 
ATOM     57  CZ2 TRP X   6     -15.186 -11.660  34.859  1.00 33.18 LIG 0.03  A 
ATOM     58  NE1 TRP X   6     -16.490 -10.559  36.710  1.00 30.87 LIG-0.36  N 
ATOM     59  CH2 TRP X   6     -15.098 -11.744  33.506  1.00 32.36 LIG 0.00  A 
ATOM     60  CZ3 TRP X   6     -15.991 -11.043  32.666  1.00 32.37 LIG 0.00  A 
ATOM     61 HE1  TRP X   6     -16.079 -10.874  37.397  1.00 30.87 LIG 0.17  HD
ATOM     62  CD1 TRP X   6     -17.545  -9.687  36.747  1.00 30.01 LIG 0.10  A 
ENDBRANCH 52 53
ENDBRANCH 51 52
BRANCH 51 63
ATOM     63  C   TRP X   6     -21.003  -9.737  36.143  1.00 36.76 LIG 0.20  C 
ATOM     64 O    TRP X   6     -20.668 -10.751  35.505  1.00 37.86 LIG-0.65  OA
ATOM     65 OXT  TRP X   6     -22.035  -9.859  36.813  1.00 39.11 LIG-0.65  OA
ENDBRANCH 51 63
ENDBRANCH 49 51
ENDBRANCH 43 47
ENDBRANCH 1 40
TORSDOF 19
ENDMDL
MODEL 92
USER: ADFR SOLUTION from run 66
USER: SCORE 18.351938 LL:  -5.966 LR: -13.719 RR:   0.000 FEB:  -8.052
USER: RMSD 5.236790
USER: SEED 65
USER: STATUS no improvement in best in 8 clusters for 5 generations
USER: GENES 21
USER: genes 0 Translation |==|  0.48735 0.52390 0.40108
USER: genes 1 Rotation |==|  0.71957 0.29935 0.50392 0.90188
USER: genes 2 Torsion [CB]-CA--N-[C] |==|  0.51986
USER: genes 3 Torsion [N]-C--CA-[N] |==|  0.92222
USER: genes 4 Torsion [C]-CA--N-[C] |==|  0.73974
USER: genes 5 Torsion [N]-C--CA-[N] |==|  0.51081
USER: genes 6 Torsion [C]-CA--CB-[CG] |==|  0.28767
USER: genes 7 Torsion [CA]-CB--CG-[SD] |==|  0.74779
USER: genes 8 Torsion [CB]-CG--SD-[CE] |==|  0.49579
USER: genes 9 Torsion [C]-CA--CB-[CG] |==|  0.25478
USER: genes 10 Torsion [CA]-CB--CG-[CD2] |==|  0.02883
USER: genes 11 Torsion [N]-CA--CB-[CG] |==|  0.97263
USER: genes 12 Torsion [CA]-CB--CG-[CD] |==|  0.60210
USER: genes 13 Torsion [CB]-CG--CD-[NE] |==|  0.26407
USER: genes 14 Torsion [CG]-CD--NE-[CZ] |==|  0.54448
USER: genes 15 Torsion [N]-CA--C-[N] |==|  0.84790
USER: genes 16 Torsion [N]-CA--C-[O] |==|  0.41966
USER: genes 17 Torsion [C]-N--CA-[CB] |==|  0.81982
USER: genes 18 Torsion [N]-CA--CB-[CG] |==|  0.84340
USER: genes 19 Torsion [CA]-CB--CG-[CD2] |==|  0.70181
USER: genes 20 Torsion [N]-CA--C-[O] |==|  0.17146
ROOT
ATOM      1  CA  ARG X   4     -21.631 -12.010  36.839  1.00 29.51 LIG 0.18  C 
ENDROOT
BRANCH 1 2
ATOM      2  N   ARG X   4     -20.839 -10.935  36.248  1.00 29.26 LIG-0.35  N 
ATOM      3  C   TRP X   3     -20.176 -10.023  36.984  1.00 30.37 LIG 0.24  C 
ATOM      4 O    TRP X   3     -20.149 -10.031  38.233  1.00 30.38 LIG-0.27  OA
ATOM      5 H    ARG X   4     -20.835 -10.939  35.388  1.00 29.26 LIG 0.16  HD
BRANCH 3 6
ATOM      6  CA  TRP X   3     -19.409  -8.939  36.198  1.00 30.62 LIG 0.18  C 
BRANCH 6 7
ATOM      7  N   TRP X   3     -18.974  -9.406  34.871  1.00 31.45 LIG-0.34  N 
ATOM      8 H    TRP X   3     -19.549  -9.320  34.238  1.00 31.45 LIG 0.16  HD
ATOM      9  C   MET X   2     -17.752  -9.919  34.737  1.00 32.92 LIG 0.26  C 
ATOM     10 O    MET X   2     -16.950  -9.938  35.652  1.00 32.35 LIG-0.27  OA
BRANCH 9 11
ATOM     11  CA  MET X   2     -17.341 -10.452  33.393  1.00 34.28 LIG 0.40  C 
ATOM     12  N   MET X   2     -15.962 -11.081  33.439  1.00 35.36 LIG 0.61  N 
BRANCH 11 13
ATOM     13  CB  MET X   2     -18.369 -11.476  32.940  1.00 35.71 LIG 0.06  C 
BRANCH 13 14
ATOM     14  CG  MET X   2     -19.324 -10.983  31.888  1.00 37.62 LIG 0.08  C 
BRANCH 14 15
ATOM     15 SD   MET X   2     -20.874 -10.226  32.448  1.00 39.06 LIG-0.17  SA
ATOM     16  CE  MET X   2     -21.635  -9.767  30.860  1.00 45.88 LIG 0.09  C 
ENDBRANCH 14 15
ENDBRANCH 13 14
ENDBRANCH 11 13
ENDBRANCH 9 11
ENDBRANCH 6 7
BRANCH 6 17
ATOM     17  CB  TRP X   3     -20.215  -7.640  36.123  1.00 29.85 LIG 0.07  C 
BRANCH 17 18
ATOM     18  CG  TRP X   3     -19.894  -6.699  37.253  1.00 29.58 LIG-0.03  A 
ATOM     19  CD1 TRP X   3     -20.576  -5.559  37.580  1.00 26.84 LIG 0.10  A 
ATOM     20  NE1 TRP X   3     -19.984  -4.961  38.661  1.00 29.47 LIG-0.36  N 
ATOM     21 HE1  TRP X   3     -20.247  -4.229  39.029  1.00 29.47 LIG 0.17  HD
ATOM     22  CE2 TRP X   3     -18.904  -5.710  39.070  1.00 27.62 LIG 0.04  A 
ATOM     23  CZ2 TRP X   3     -17.981  -5.500  40.139  1.00 28.85 LIG 0.03  A 
ATOM     24  CD2 TRP X   3     -18.814  -6.818  38.202  1.00 25.33 LIG-0.00  A 
ATOM     25  CH2 TRP X   3     -16.964  -6.447  40.315  1.00 28.18 LIG 0.00  A 
ATOM     26  CZ3 TRP X   3     -16.852  -7.550  39.450  1.00 26.79 LIG 0.00  A 
ATOM     27  CE3 TRP X   3     -17.765  -7.736  38.379  1.00 25.86 LIG 0.01  A 
ENDBRANCH 17 18
ENDBRANCH 6 17
ENDBRANCH 3 6
ENDBRANCH 1 2
BRANCH 1 28
ATOM     28  CB  ARG X   4     -22.129 -13.003  35.769  1.00 29.55 LIG 0.04  C 
BRANCH 28 29
ATOM     29  CG  ARG X   4     -21.907 -12.545  34.330  1.00 28.17 LIG 0.02  C 
BRANCH 29 30
ATOM     30  CD  ARG X   4     -23.088 -12.975  33.446  1.00 27.09 LIG 0.14  C 
BRANCH 30 31
ATOM     31  NE  ARG X   4     -24.050 -11.883  33.343  1.00 25.46 LIG-0.23  N 
ATOM     32 HE   ARG X   4     -23.798 -11.093  33.572  1.00 25.46 LIG 0.18  HD
ATOM     33  CZ  ARG X   4     -25.303 -12.046  32.912  1.00 27.27 LIG 0.67  C 
ATOM     34  NH2 ARG X   4     -26.133 -11.010  32.831  1.00 24.12 LIG-0.23  N 
ATOM     35  NH1 ARG X   4     -25.723 -13.263  32.575  1.00 21.32 LIG-0.23  N 
ATOM     36 1HH2 ARG X   4     -25.865 -10.225  33.059  1.00 24.12 LIG 0.17  HD
ATOM     37 2HH2 ARG X   4     -26.939 -11.125  32.552  1.00 24.12 LIG 0.17  HD
ATOM     38 2HH1 ARG X   4     -26.529 -13.377  32.297  1.00 21.32 LIG 0.17  HD
ATOM     39 1HH1 ARG X   4     -25.190 -13.934  32.637  1.00 21.32 LIG 0.17  HD
ENDBRANCH 30 31
ENDBRANCH 29 30
ENDBRANCH 28 29
ENDBRANCH 1 28
BRANCH 1 40
ATOM     40  C   ARG X   4     -20.749 -12.745  37.816  1.00 30.38 LIG 0.24  C 
ATOM     41 O    ARG X   4     -21.115 -12.860  38.974  1.00 31.87 LIG-0.27  OA
ATOM     42  N   PRO X   5     -19.579 -13.227  37.367  1.00 30.60 LIG-0.34  N 
ATOM     43  CA  PRO X   5     -18.753 -14.120  38.210  1.00 31.31 LIG 0.18  C 
ATOM     44  CD  PRO X   5     -19.001 -13.011  36.012  1.00 29.99 LIG 0.13  C 
ATOM     45  CB  PRO X   5     -17.772 -14.731  37.205  1.00 30.70 LIG 0.04  C 
ATOM     46  CG  PRO X   5     -17.650 -13.677  36.065  1.00 29.42 LIG 0.02  C 
BRANCH 43 47
ATOM     47  C   PRO X   5     -17.959 -13.491  39.388  1.00 32.23 LIG 0.24  C 
ATOM     48 O    PRO X   5     -17.702 -14.178  40.423  1.00 32.23 LIG-0.27  OA
ATOM     49  N   TRP X   6     -17.557 -12.232  39.240  1.00 33.50 LIG-0.34  N 
ATOM     50 H    TRP X   6     -17.787 -11.724  38.585  1.00 33.50 LIG 0.16  HD
BRANCH 49 51
ATOM     51  CA  TRP X   6     -16.662 -11.602  40.221  1.00 34.66 LIG 0.19  C 
BRANCH 51 52
ATOM     52  CB  TRP X   6     -17.376 -11.487  41.583  1.00 34.41 LIG 0.08  C 
BRANCH 52 53
ATOM     53  CG  TRP X   6     -18.691 -10.732  41.538  1.00 32.39 LIG-0.03  A 
ATOM     54  CD2 TRP X   6     -18.958  -9.407  42.048  1.00 31.68 LIG-0.00  A 
ATOM     55  CE2 TRP X   6     -20.318  -9.135  41.798  1.00 33.29 LIG 0.04  A 
ATOM     56  CE3 TRP X   6     -18.178  -8.428  42.677  1.00 33.66 LIG 0.01  A 
ATOM     57  CZ2 TRP X   6     -20.912  -7.910  42.132  1.00 33.18 LIG 0.03  A 
ATOM     58  NE1 TRP X   6     -20.845 -10.231  41.158  1.00 30.87 LIG-0.36  N 
ATOM     59  CH2 TRP X   6     -20.137  -6.975  42.740  1.00 32.36 LIG 0.00  A 
ATOM     60  CZ3 TRP X   6     -18.778  -7.223  43.033  1.00 32.37 LIG 0.00  A 
ATOM     61 HE1  TRP X   6     -21.658 -10.308  40.887  1.00 30.87 LIG 0.17  HD
ATOM     62  CD1 TRP X   6     -19.869 -11.182  41.023  1.00 30.01 LIG 0.10  A 
ENDBRANCH 52 53
ENDBRANCH 51 52
BRANCH 51 63
ATOM     63  C   TRP X   6     -15.313 -12.335  40.363  1.00 36.76 LIG 0.20  C 
ATOM     64 O    TRP X   6     -14.486 -12.476  39.444  1.00 37.86 LIG-0.65  OA
ATOM     65 OXT  TRP X   6     -14.990 -12.851  41.440  1.00 39.11 LIG-0.65  OA
ENDBRANCH 51 63
ENDBRANCH 49 51
ENDBRANCH 43 47
ENDBRANCH 1 40
TORSDOF 19
ENDMDL
MODEL 93
USER: ADFR SOLUTION from run 105
USER: SCORE 17.916889 LL:  -6.206 LR: -13.723 RR:   0.000 FEB:  -8.055
USER: RMSD 7.000138
USER: SEED 104
USER: STATUS no improvement in best in 4 clusters for 5 generations
USER: GENES 21
USER: genes 0 Translation |==|  0.61711 0.76416 0.70086
USER: genes 1 Rotation |==|  0.49300 0.48797 0.20523 0.90363
USER: genes 2 Torsion [CB]-CA--N-[C] |==|  0.41573
USER: genes 3 Torsion [N]-C--CA-[N] |==|  0.66895
USER: genes 4 Torsion [C]-CA--N-[C] |==|  0.15021
USER: genes 5 Torsion [N]-C--CA-[N] |==|  0.53087
USER: genes 6 Torsion [C]-CA--CB-[CG] |==|  0.62150
USER: genes 7 Torsion [CA]-CB--CG-[SD] |==|  0.62754
USER: genes 8 Torsion [CB]-CG--SD-[CE] |==|  0.70084
USER: genes 9 Torsion [C]-CA--CB-[CG] |==|  0.55339
USER: genes 10 Torsion [CA]-CB--CG-[CD2] |==|  0.26729
USER: genes 11 Torsion [N]-CA--CB-[CG] |==|  0.68667
USER: genes 12 Torsion [CA]-CB--CG-[CD] |==|  0.15968
USER: genes 13 Torsion [CB]-CG--CD-[NE] |==|  0.13607
USER: genes 14 Torsion [CG]-CD--NE-[CZ] |==|  0.61878
USER: genes 15 Torsion [N]-CA--C-[N] |==|  0.83589
USER: genes 16 Torsion [N]-CA--C-[O] |==|  0.73243
USER: genes 17 Torsion [C]-N--CA-[CB] |==|  0.82483
USER: genes 18 Torsion [N]-CA--CB-[CG] |==|  0.82288
USER: genes 19 Torsion [CA]-CB--CG-[CD2] |==|  0.23656
USER: genes 20 Torsion [N]-CA--C-[O] |==|  0.04489
ROOT
ATOM      1  CA  ARG X   4     -18.906  -7.325  42.460  1.00 29.51 LIG 0.18  C 
ENDROOT
BRANCH 1 2
ATOM      2  N   ARG X   4     -18.978  -7.208  41.006  1.00 29.26 LIG-0.35  N 
ATOM      3  C   TRP X   3     -17.923  -6.865  40.245  1.00 30.37 LIG 0.24  C 
ATOM      4 O    TRP X   3     -16.781  -6.650  40.704  1.00 30.38 LIG-0.27  OA
ATOM      5 H    ARG X   4     -19.757  -7.378  40.683  1.00 29.26 LIG 0.16  HD
BRANCH 3 6
ATOM      6  CA  TRP X   3     -18.181  -6.763  38.727  1.00 30.62 LIG 0.18  C 
BRANCH 6 7
ATOM      7  N   TRP X   3     -17.358  -7.706  37.950  1.00 31.45 LIG-0.34  N 
ATOM      8 H    TRP X   3     -16.886  -7.359  37.322  1.00 31.45 LIG 0.16  HD
ATOM      9  C   MET X   2     -17.396  -9.001  38.261  1.00 32.92 LIG 0.26  C 
ATOM     10 O    MET X   2     -18.019  -9.423  39.216  1.00 32.35 LIG-0.27  OA
BRANCH 9 11
ATOM     11  CA  MET X   2     -16.603  -9.964  37.422  1.00 34.28 LIG 0.40  C 
ATOM     12  N   MET X   2     -16.963 -11.403  37.732  1.00 35.36 LIG 0.61  N 
BRANCH 11 13
ATOM     13  CB  MET X   2     -16.867  -9.663  35.955  1.00 35.71 LIG 0.06  C 
BRANCH 13 14
ATOM     14  CG  MET X   2     -17.094 -10.877  35.096  1.00 37.62 LIG 0.08  C 
BRANCH 14 15
ATOM     15 SD   MET X   2     -16.225 -10.957  33.507  1.00 39.06 LIG-0.17  SA
ATOM     16  CE  MET X   2     -17.595 -10.674  32.343  1.00 45.88 LIG 0.09  C 
ENDBRANCH 14 15
ENDBRANCH 13 14
ENDBRANCH 11 13
ENDBRANCH 9 11
ENDBRANCH 6 7
BRANCH 6 17
ATOM     17  CB  TRP X   3     -19.672  -6.896  38.412  1.00 29.85 LIG 0.07  C 
BRANCH 17 18
ATOM     18  CG  TRP X   3     -19.925  -7.262  36.974  1.00 29.58 LIG-0.03  A 
ATOM     19  CD1 TRP X   3     -19.983  -6.400  35.913  1.00 26.84 LIG 0.10  A 
ATOM     20  NE1 TRP X   3     -20.239  -7.098  34.763  1.00 29.47 LIG-0.36  N 
ATOM     21 HE1  TRP X   3     -20.322  -6.752  33.980  1.00 29.47 LIG 0.17  HD
ATOM     22  CE2 TRP X   3     -20.344  -8.441  35.051  1.00 27.62 LIG 0.04  A 
ATOM     23  CZ2 TRP X   3     -20.603  -9.555  34.197  1.00 28.85 LIG 0.03  A 
ATOM     24  CD2 TRP X   3     -20.152  -8.584  36.442  1.00 25.33 LIG-0.00  A 
ATOM     25  CH2 TRP X   3     -20.656 -10.826  34.785  1.00 28.18 LIG 0.00  A 
ATOM     26  CZ3 TRP X   3     -20.481 -10.984  36.172  1.00 26.79 LIG 0.00  A 
ATOM     27  CE3 TRP X   3     -20.243  -9.865  37.011  1.00 25.86 LIG 0.01  A 
ENDBRANCH 17 18
ENDBRANCH 6 17
ENDBRANCH 3 6
ENDBRANCH 1 2
BRANCH 1 28
ATOM     28  CB  ARG X   4     -20.255  -6.983  43.127  1.00 29.55 LIG 0.04  C 
BRANCH 28 29
ATOM     29  CG  ARG X   4     -20.240  -5.708  43.965  1.00 28.17 LIG 0.02  C 
BRANCH 29 30
ATOM     30  CD  ARG X   4     -19.806  -4.510  43.106  1.00 27.09 LIG 0.14  C 
BRANCH 30 31
ATOM     31  NE  ARG X   4     -20.573  -4.492  41.864  1.00 25.46 LIG-0.23  N 
ATOM     32 HE   ARG X   4     -21.416  -4.653  41.902  1.00 25.46 LIG 0.18  HD
ATOM     33  CZ  ARG X   4     -20.031  -4.237  40.671  1.00 27.27 LIG 0.67  C 
ATOM     34  NH2 ARG X   4     -20.782  -4.226  39.573  1.00 24.12 LIG-0.23  N 
ATOM     35  NH1 ARG X   4     -18.723  -4.010  40.584  1.00 21.32 LIG-0.23  N 
ATOM     36 1HH2 ARG X   4     -21.625  -4.384  39.628  1.00 24.12 LIG 0.17  HD
ATOM     37 2HH2 ARG X   4     -20.424  -4.061  38.808  1.00 24.12 LIG 0.17  HD
ATOM     38 2HH1 ARG X   4     -18.365  -3.846  39.819  1.00 21.32 LIG 0.17  HD
ATOM     39 1HH1 ARG X   4     -18.235  -4.027  41.292  1.00 21.32 LIG 0.17  HD
ENDBRANCH 30 31
ENDBRANCH 29 30
ENDBRANCH 28 29
ENDBRANCH 1 28
BRANCH 1 40
ATOM     40  C   ARG X   4     -18.546  -8.751  42.787  1.00 30.38 LIG 0.24  C 
ATOM     41 O    ARG X   4     -17.520  -8.976  43.409  1.00 31.87 LIG-0.27  OA
ATOM     42  N   PRO X   5     -19.370  -9.721  42.359  1.00 30.60 LIG-0.34  N 
ATOM     43  CA  PRO X   5     -19.188 -11.122  42.803  1.00 31.31 LIG 0.18  C 
ATOM     44  CD  PRO X   5     -20.561  -9.541  41.485  1.00 29.99 LIG 0.13  C 
ATOM     45  CB  PRO X   5     -20.521 -11.777  42.429  1.00 30.70 LIG 0.04  C 
ATOM     46  CG  PRO X   5     -21.062 -10.939  41.232  1.00 29.42 LIG 0.02  C 
BRANCH 43 47
ATOM     47  C   PRO X   5     -18.020 -11.942  42.188  1.00 32.23 LIG 0.24  C 
ATOM     48 O    PRO X   5     -18.231 -12.712  41.204  1.00 32.23 LIG-0.27  OA
ATOM     49  N   TRP X   6     -16.816 -11.774  42.728  1.00 33.50 LIG-0.34  N 
ATOM     50 H    TRP X   6     -16.664 -11.320  43.443  1.00 33.50 LIG 0.16  HD
BRANCH 49 51
ATOM     51  CA  TRP X   6     -15.622 -12.373  42.117  1.00 34.66 LIG 0.19  C 
BRANCH 51 52
ATOM     52  CB  TRP X   6     -15.740 -13.911  42.136  1.00 34.41 LIG 0.08  C 
BRANCH 52 53
ATOM     53  CG  TRP X   6     -15.780 -14.518  43.526  1.00 32.39 LIG-0.03  A 
ATOM     54  CD2 TRP X   6     -16.937 -14.692  44.373  1.00 31.68 LIG-0.00  A 
ATOM     55  CE2 TRP X   6     -16.486 -15.279  45.572  1.00 33.29 LIG 0.04  A 
ATOM     56  CE3 TRP X   6     -18.304 -14.420  44.226  1.00 33.66 LIG 0.01  A 
ATOM     57  CZ2 TRP X   6     -17.359 -15.624  46.613  1.00 33.18 LIG 0.03  A 
ATOM     58  NE1 TRP X   6     -15.130 -15.462  45.455  1.00 30.87 LIG-0.36  N 
ATOM     59  CH2 TRP X   6     -18.680 -15.353  46.449  1.00 32.36 LIG 0.00  A 
ATOM     60  CZ3 TRP X   6     -19.164 -14.739  45.273  1.00 32.37 LIG 0.00  A 
ATOM     61 HE1  TRP X   6     -14.620 -15.816  46.051  1.00 30.87 LIG 0.17  HD
ATOM     62  CD1 TRP X   6     -14.718 -14.991  44.236  1.00 30.01 LIG 0.10  A 
ENDBRANCH 52 53
ENDBRANCH 51 52
BRANCH 51 63
ATOM     63  C   TRP X   6     -15.350 -11.857  40.690  1.00 36.76 LIG 0.20  C 
ATOM     64 O    TRP X   6     -15.861 -10.833  40.201  1.00 37.86 LIG-0.65  OA
ATOM     65 OXT  TRP X   6     -14.594 -12.476  39.932  1.00 39.11 LIG-0.65  OA
ENDBRANCH 51 63
ENDBRANCH 49 51
ENDBRANCH 43 47
ENDBRANCH 1 40
TORSDOF 19
ENDMDL
MODEL 94
USER: ADFR SOLUTION from run 61
USER: SCORE 18.410648 LL:  -5.753 LR: -13.719 RR:   0.000 FEB:  -8.051
USER: RMSD 6.044319
USER: SEED 60
USER: STATUS no improvement in best in 14 clusters for 5 generations
USER: GENES 21
USER: genes 0 Translation |==|  0.62430 0.72453 0.34945
USER: genes 1 Rotation |==|  0.24961 0.54645 0.17605 0.78321
USER: genes 2 Torsion [CB]-CA--N-[C] |==|  0.51111
USER: genes 3 Torsion [N]-C--CA-[N] |==|  0.35816
USER: genes 4 Torsion [C]-CA--N-[C] |==|  0.68110
USER: genes 5 Torsion [N]-C--CA-[N] |==|  0.86023
USER: genes 6 Torsion [C]-CA--CB-[CG] |==|  0.06775
USER: genes 7 Torsion [CA]-CB--CG-[SD] |==|  0.68783
USER: genes 8 Torsion [CB]-CG--SD-[CE] |==|  0.02547
USER: genes 9 Torsion [C]-CA--CB-[CG] |==|  0.03118
USER: genes 10 Torsion [CA]-CB--CG-[CD2] |==|  0.72620
USER: genes 11 Torsion [N]-CA--CB-[CG] |==|  0.09725
USER: genes 12 Torsion [CA]-CB--CG-[CD] |==|  0.40374
USER: genes 13 Torsion [CB]-CG--CD-[NE] |==|  0.89343
USER: genes 14 Torsion [CG]-CD--NE-[CZ] |==|  0.35416
USER: genes 15 Torsion [N]-CA--C-[N] |==|  0.27203
USER: genes 16 Torsion [N]-CA--C-[O] |==|  0.82430
USER: genes 17 Torsion [C]-N--CA-[CB] |==|  0.43268
USER: genes 18 Torsion [N]-CA--CB-[CG] |==|  0.70897
USER: genes 19 Torsion [CA]-CB--CG-[CD2] |==|  0.36532
USER: genes 20 Torsion [N]-CA--C-[O] |==|  0.05278
ROOT
ATOM      1  CA  ARG X   4     -18.755  -8.098  35.871  1.00 29.51 LIG 0.18  C 
ENDROOT
BRANCH 1 2
ATOM      2  N   ARG X   4     -19.901  -8.552  35.089  1.00 29.26 LIG-0.35  N 
ATOM      3  C   TRP X   3     -19.902  -9.702  34.390  1.00 30.37 LIG 0.24  C 
ATOM      4 O    TRP X   3     -18.942 -10.501  34.373  1.00 30.38 LIG-0.27  OA
ATOM      5 H    ARG X   4     -20.574  -8.017  35.117  1.00 29.26 LIG 0.16  HD
BRANCH 3 6
ATOM      6  CA  TRP X   3     -21.188 -10.018  33.597  1.00 30.62 LIG 0.18  C 
BRANCH 6 7
ATOM      7  N   TRP X   3     -20.915 -10.351  32.189  1.00 31.45 LIG-0.34  N 
ATOM      8 H    TRP X   3     -20.467 -11.073  32.057  1.00 31.45 LIG 0.16  HD
ATOM      9  C   MET X   2     -21.365  -9.538  31.235  1.00 32.92 LIG 0.26  C 
ATOM     10 O    MET X   2     -22.066  -8.574  31.479  1.00 32.35 LIG-0.27  OA
BRANCH 9 11
ATOM     11  CA  MET X   2     -21.025  -9.852  29.805  1.00 34.28 LIG 0.40  C 
ATOM     12  N   MET X   2     -19.541 -10.101  29.625  1.00 35.36 LIG 0.61  N 
BRANCH 11 13
ATOM     13  CB  MET X   2     -21.817 -11.077  29.374  1.00 35.71 LIG 0.06  C 
BRANCH 13 14
ATOM     14  CG  MET X   2     -23.082 -11.313  30.155  1.00 37.62 LIG 0.08  C 
BRANCH 14 15
ATOM     15 SD   MET X   2     -23.147 -12.774  31.227  1.00 39.06 LIG-0.17  SA
ATOM     16  CE  MET X   2     -21.416 -13.333  31.163  1.00 45.88 LIG 0.09  C 
ENDBRANCH 14 15
ENDBRANCH 13 14
ENDBRANCH 11 13
ENDBRANCH 9 11
ENDBRANCH 6 7
BRANCH 6 17
ATOM     17  CB  TRP X   3     -22.017 -11.095  34.300  1.00 29.85 LIG 0.07  C 
BRANCH 17 18
ATOM     18  CG  TRP X   3     -21.526 -11.378  35.694  1.00 29.58 LIG-0.03  A 
ATOM     19  CD1 TRP X   3     -21.808 -10.652  36.820  1.00 26.84 LIG 0.10  A 
ATOM     20  NE1 TRP X   3     -21.177 -11.209  37.900  1.00 29.47 LIG-0.36  N 
ATOM     21 HE1  TRP X   3     -21.214 -10.909  38.705  1.00 29.47 LIG 0.17  HD
ATOM     22  CE2 TRP X   3     -20.473 -12.323  37.501  1.00 27.62 LIG 0.04  A 
ATOM     23  CZ2 TRP X   3     -19.664 -13.228  38.252  1.00 28.85 LIG 0.03  A 
ATOM     24  CD2 TRP X   3     -20.669 -12.462  36.110  1.00 25.33 LIG-0.00  A 
ATOM     25  CH2 TRP X   3     -19.060 -14.287  37.562  1.00 28.18 LIG 0.00  A 
ATOM     26  CZ3 TRP X   3     -19.234 -14.431  36.174  1.00 26.79 LIG 0.00  A 
ATOM     27  CE3 TRP X   3     -20.025 -13.513  35.436  1.00 25.86 LIG 0.01  A 
ENDBRANCH 17 18
ENDBRANCH 6 17
ENDBRANCH 3 6
ENDBRANCH 1 2
BRANCH 1 28
ATOM     28  CB  ARG X   4     -19.071  -6.800  36.644  1.00 29.55 LIG 0.04  C 
BRANCH 28 29
ATOM     29  CG  ARG X   4     -20.507  -6.702  37.152  1.00 28.17 LIG 0.02  C 
BRANCH 29 30
ATOM     30  CD  ARG X   4     -20.547  -5.971  38.502  1.00 27.09 LIG 0.14  C 
BRANCH 30 31
ATOM     31  NE  ARG X   4     -19.396  -6.365  39.310  1.00 25.46 LIG-0.23  N 
ATOM     32 HE   ARG X   4     -19.251  -7.203  39.431  1.00 25.46 LIG 0.18  HD
ATOM     33  CZ  ARG X   4     -18.557  -5.490  39.868  1.00 27.27 LIG 0.67  C 
ATOM     34  NH2 ARG X   4     -17.520  -5.909  40.588  1.00 24.12 LIG-0.23  N 
ATOM     35  NH1 ARG X   4     -18.776  -4.186  39.714  1.00 21.32 LIG-0.23  N 
ATOM     36 1HH2 ARG X   4     -17.384  -6.750  40.697  1.00 24.12 LIG 0.17  HD
ATOM     37 2HH2 ARG X   4     -16.984  -5.337  40.944  1.00 24.12 LIG 0.17  HD
ATOM     38 2HH1 ARG X   4     -18.242  -3.615  40.071  1.00 21.32 LIG 0.17  HD
ATOM     39 1HH1 ARG X   4     -19.453  -3.915  39.258  1.00 21.32 LIG 0.17  HD
ENDBRANCH 30 31
ENDBRANCH 29 30
ENDBRANCH 28 29
ENDBRANCH 1 28
BRANCH 1 40
ATOM     40  C   ARG X   4     -18.414  -9.184  36.858  1.00 30.38 LIG 0.24  C 
ATOM     41 O    ARG X   4     -19.034  -9.246  37.908  1.00 31.87 LIG-0.27  OA
ATOM     42  N   PRO X   5     -17.422 -10.031  36.543  1.00 30.60 LIG-0.34  N 
ATOM     43  CA  PRO X   5     -17.160 -11.233  37.367  1.00 31.31 LIG 0.18  C 
ATOM     44  CD  PRO X   5     -16.533  -9.941  35.352  1.00 29.99 LIG 0.13  C 
ATOM     45  CB  PRO X   5     -16.267 -12.085  36.459  1.00 30.70 LIG 0.04  C 
ATOM     46  CG  PRO X   5     -15.546 -11.065  35.529  1.00 29.42 LIG 0.02  C 
BRANCH 43 47
ATOM     47  C   PRO X   5     -16.463 -11.043  38.743  1.00 32.23 LIG 0.24  C 
ATOM     48 O    PRO X   5     -15.283 -10.581  38.801  1.00 32.23 LIG-0.27  OA
ATOM     49  N   TRP X   6     -17.167 -11.364  39.825  1.00 33.50 LIG-0.34  N 
ATOM     50 H    TRP X   6     -17.934 -11.752  39.805  1.00 33.50 LIG 0.16  HD
BRANCH 49 51
ATOM     51  CA  TRP X   6     -16.662 -11.066  41.172  1.00 34.66 LIG 0.19  C 
BRANCH 51 52
ATOM     52  CB  TRP X   6     -17.841 -10.962  42.161  1.00 34.41 LIG 0.08  C 
BRANCH 52 53
ATOM     53  CG  TRP X   6     -18.191  -9.544  42.572  1.00 32.39 LIG-0.03  A 
ATOM     54  CD2 TRP X   6     -19.501  -8.935  42.591  1.00 31.68 LIG-0.00  A 
ATOM     55  CE2 TRP X   6     -19.331  -7.605  43.023  1.00 33.29 LIG 0.04  A 
ATOM     56  CE3 TRP X   6     -20.793  -9.391  42.298  1.00 33.66 LIG 0.01  A 
ATOM     57  CZ2 TRP X   6     -20.411  -6.728  43.195  1.00 33.18 LIG 0.03  A 
ATOM     58  NE1 TRP X   6     -17.991  -7.419  43.265  1.00 30.87 LIG-0.36  N 
ATOM     59  CH2 TRP X   6     -21.655  -7.191  42.906  1.00 32.36 LIG 0.00  A 
ATOM     60  CZ3 TRP X   6     -21.861  -8.509  42.443  1.00 32.37 LIG 0.00  A 
ATOM     61 HE1  TRP X   6     -17.631  -6.692  43.550  1.00 30.87 LIG 0.17  HD
ATOM     62  CD1 TRP X   6     -17.320  -8.578  42.978  1.00 30.01 LIG 0.10  A 
ENDBRANCH 52 53
ENDBRANCH 51 52
BRANCH 51 63
ATOM     63  C   TRP X   6     -15.616 -12.086  41.664  1.00 36.76 LIG 0.20  C 
ATOM     64 O    TRP X   6     -14.976 -12.853  40.922  1.00 37.86 LIG-0.65  OA
ATOM     65 OXT  TRP X   6     -15.373 -12.203  42.871  1.00 39.11 LIG-0.65  OA
ENDBRANCH 51 63
ENDBRANCH 49 51
ENDBRANCH 43 47
ENDBRANCH 1 40
TORSDOF 19
ENDMDL
MODEL 95
USER: ADFR SOLUTION from run 192
USER: SCORE 19.247387 LL:  -6.223 LR: -13.717 RR:   0.000 FEB:  -8.049
USER: RMSD 5.299045
USER: SEED 191
USER: STATUS no improvement in best in 6 clusters for 5 generations
USER: GENES 21
USER: genes 0 Translation |==|  0.68887 0.68359 0.54029
USER: genes 1 Rotation |==|  0.47627 0.57691 0.14173 0.83936
USER: genes 2 Torsion [CB]-CA--N-[C] |==|  0.81108
USER: genes 3 Torsion [N]-C--CA-[N] |==|  0.47160
USER: genes 4 Torsion [C]-CA--N-[C] |==|  0.78866
USER: genes 5 Torsion [N]-C--CA-[N] |==|  0.48273
USER: genes 6 Torsion [C]-CA--CB-[CG] |==|  0.77893
USER: genes 7 Torsion [CA]-CB--CG-[SD] |==|  0.29763
USER: genes 8 Torsion [CB]-CG--SD-[CE] |==|  0.62569
USER: genes 9 Torsion [C]-CA--CB-[CG] |==|  0.90158
USER: genes 10 Torsion [CA]-CB--CG-[CD2] |==|  0.26675
USER: genes 11 Torsion [N]-CA--CB-[CG] |==|  0.52008
USER: genes 12 Torsion [CA]-CB--CG-[CD] |==|  0.57335
USER: genes 13 Torsion [CB]-CG--CD-[NE] |==|  0.73524
USER: genes 14 Torsion [CG]-CD--NE-[CZ] |==|  0.39454
USER: genes 15 Torsion [N]-CA--C-[N] |==|  0.17778
USER: genes 16 Torsion [N]-CA--C-[O] |==|  0.88659
USER: genes 17 Torsion [C]-N--CA-[CB] |==|  0.46687
USER: genes 18 Torsion [N]-CA--CB-[CG] |==|  0.87248
USER: genes 19 Torsion [CA]-CB--CG-[CD2] |==|  0.90073
USER: genes 20 Torsion [N]-CA--C-[O] |==|  0.42013
ROOT
ATOM      1  CA  ARG X   4     -17.399  -8.896  39.449  1.00 29.51 LIG 0.18  C 
ENDROOT
BRANCH 1 2
ATOM      2  N   ARG X   4     -17.823  -8.458  38.122  1.00 29.26 LIG-0.35  N 
ATOM      3  C   TRP X   3     -18.994  -8.825  37.569  1.00 30.37 LIG 0.24  C 
ATOM      4 O    TRP X   3     -19.837  -9.541  38.149  1.00 30.38 LIG-0.27  OA
ATOM      5 H    ARG X   4     -17.256  -7.945  37.729  1.00 29.26 LIG 0.16  HD
BRANCH 3 6
ATOM      6  CA  TRP X   3     -19.273  -8.292  36.148  1.00 30.62 LIG 0.18  C 
BRANCH 6 7
ATOM      7  N   TRP X   3     -20.449  -8.928  35.529  1.00 31.45 LIG-0.34  N 
ATOM      8 H    TRP X   3     -21.163  -8.450  35.507  1.00 31.45 LIG 0.16  HD
ATOM      9  C   MET X   2     -20.336 -10.168  35.056  1.00 32.92 LIG 0.26  C 
ATOM     10 O    MET X   2     -19.277 -10.765  35.039  1.00 32.35 LIG-0.27  OA
BRANCH 9 11
ATOM     11  CA  MET X   2     -21.559 -10.831  34.485  1.00 34.28 LIG 0.40  C 
ATOM     12  N   MET X   2     -21.226 -12.170  33.857  1.00 35.36 LIG 0.61  N 
BRANCH 11 13
ATOM     13  CB  MET X   2     -22.579 -11.014  35.597  1.00 35.71 LIG 0.06  C 
BRANCH 13 14
ATOM     14  CG  MET X   2     -22.320 -12.190  36.499  1.00 37.62 LIG 0.08  C 
BRANCH 14 15
ATOM     15 SD   MET X   2     -21.718 -11.848  38.174  1.00 39.06 LIG-0.17  SA
ATOM     16  CE  MET X   2     -20.380 -13.073  38.324  1.00 45.88 LIG 0.09  C 
ENDBRANCH 14 15
ENDBRANCH 13 14
ENDBRANCH 11 13
ENDBRANCH 9 11
ENDBRANCH 6 7
BRANCH 6 17
ATOM     17  CB  TRP X   3     -19.367  -6.765  36.142  1.00 29.85 LIG 0.07  C 
BRANCH 17 18
ATOM     18  CG  TRP X   3     -20.002  -6.224  37.394  1.00 29.58 LIG-0.03  A 
ATOM     19  CD1 TRP X   3     -21.342  -6.101  37.639  1.00 26.84 LIG 0.10  A 
ATOM     20  NE1 TRP X   3     -21.537  -5.560  38.883  1.00 29.47 LIG-0.36  N 
ATOM     21 HE1  TRP X   3     -22.303  -5.392  39.236  1.00 29.47 LIG 0.17  HD
ATOM     22  CE2 TRP X   3     -20.320  -5.328  39.482  1.00 27.62 LIG 0.04  A 
ATOM     23  CZ2 TRP X   3     -20.006  -4.779  40.762  1.00 28.85 LIG 0.03  A 
ATOM     24  CD2 TRP X   3     -19.323  -5.733  38.570  1.00 25.33 LIG-0.00  A 
ATOM     25  CH2 TRP X   3     -18.652  -4.658  41.103  1.00 28.18 LIG 0.00  A 
ATOM     26  CZ3 TRP X   3     -17.646  -5.045  40.200  1.00 26.79 LIG 0.00  A 
ATOM     27  CE3 TRP X   3     -17.973  -5.570  38.922  1.00 25.86 LIG 0.01  A 
ENDBRANCH 17 18
ENDBRANCH 6 17
ENDBRANCH 3 6
ENDBRANCH 1 2
BRANCH 1 28
ATOM     28  CB  ARG X   4     -18.277  -8.281  40.559  1.00 29.55 LIG 0.04  C 
BRANCH 28 29
ATOM     29  CG  ARG X   4     -17.786  -8.556  41.978  1.00 28.17 LIG 0.02  C 
BRANCH 29 30
ATOM     30  CD  ARG X   4     -18.962  -8.516  42.966  1.00 27.09 LIG 0.14  C 
BRANCH 30 31
ATOM     31  NE  ARG X   4     -19.057  -7.189  43.567  1.00 25.46 LIG-0.23  N 
ATOM     32 HE   ARG X   4     -18.328  -6.776  43.759  1.00 25.46 LIG 0.18  HD
ATOM     33  CZ  ARG X   4     -20.217  -6.586  43.834  1.00 27.27 LIG 0.67  C 
ATOM     34  NH2 ARG X   4     -20.240  -5.371  44.376  1.00 24.12 LIG-0.23  N 
ATOM     35  NH1 ARG X   4     -21.357  -7.218  43.569  1.00 21.32 LIG-0.23  N 
ATOM     36 1HH2 ARG X   4     -19.504  -4.967  44.558  1.00 24.12 LIG 0.17  HD
ATOM     37 2HH2 ARG X   4     -20.993  -4.989  44.544  1.00 24.12 LIG 0.17  HD
ATOM     38 2HH1 ARG X   4     -22.109  -6.837  43.738  1.00 21.32 LIG 0.17  HD
ATOM     39 1HH1 ARG X   4     -21.342  -8.007  43.228  1.00 21.32 LIG 0.17  HD
ENDBRANCH 30 31
ENDBRANCH 29 30
ENDBRANCH 28 29
ENDBRANCH 1 28
BRANCH 1 40
ATOM     40  C   ARG X   4     -17.527 -10.397  39.499  1.00 30.38 LIG 0.24  C 
ATOM     41 O    ARG X   4     -18.310 -10.898  40.290  1.00 31.87 LIG-0.27  OA
ATOM     42  N   PRO X   5     -16.751 -11.121  38.678  1.00 30.60 LIG-0.34  N 
ATOM     43  CA  PRO X   5     -16.956 -12.580  38.532  1.00 31.31 LIG 0.18  C 
ATOM     44  CD  PRO X   5     -15.681 -10.595  37.787  1.00 29.99 LIG 0.13  C 
ATOM     45  CB  PRO X   5     -16.176 -12.911  37.256  1.00 30.70 LIG 0.04  C 
ATOM     46  CG  PRO X   5     -15.066 -11.823  37.166  1.00 29.42 LIG 0.02  C 
BRANCH 43 47
ATOM     47  C   PRO X   5     -16.478 -13.508  39.683  1.00 32.23 LIG 0.24  C 
ATOM     48 O    PRO X   5     -15.373 -13.285  40.264  1.00 32.23 LIG-0.27  OA
ATOM     49  N   TRP X   6     -17.286 -14.507  40.027  1.00 33.50 LIG-0.34  N 
ATOM     50 H    TRP X   6     -17.998 -14.725  39.596  1.00 33.50 LIG 0.16  HD
BRANCH 49 51
ATOM     51  CA  TRP X   6     -17.005 -15.337  41.207  1.00 34.66 LIG 0.19  C 
BRANCH 51 52
ATOM     52  CB  TRP X   6     -18.234 -16.207  41.539  1.00 34.41 LIG 0.08  C 
BRANCH 52 53
ATOM     53  CG  TRP X   6     -19.555 -15.459  41.516  1.00 32.39 LIG-0.03  A 
ATOM     54  CD2 TRP X   6     -19.796 -14.095  41.927  1.00 31.68 LIG-0.00  A 
ATOM     55  CE2 TRP X   6     -21.171 -13.847  41.744  1.00 33.29 LIG 0.04  A 
ATOM     56  CE3 TRP X   6     -18.983 -13.065  42.416  1.00 33.66 LIG 0.01  A 
ATOM     57  CZ2 TRP X   6     -21.750 -12.598  42.009  1.00 33.18 LIG 0.03  A 
ATOM     58  NE1 TRP X   6     -21.732 -14.995  41.238  1.00 30.87 LIG-0.36  N 
ATOM     59  CH2 TRP X   6     -20.943 -11.613  42.482  1.00 32.36 LIG 0.00  A 
ATOM     60  CZ3 TRP X   6     -19.566 -11.834  42.705  1.00 32.37 LIG 0.00  A 
ATOM     61 HE1  TRP X   6     -22.560 -15.096  41.028  1.00 30.87 LIG 0.17  HD
ATOM     62  CD1 TRP X   6     -20.761 -15.953  41.121  1.00 30.01 LIG 0.10  A 
ENDBRANCH 52 53
ENDBRANCH 51 52
BRANCH 51 63
ATOM     63  C   TRP X   6     -15.740 -16.204  41.048  1.00 36.76 LIG 0.20  C 
ATOM     64 O    TRP X   6     -15.015 -16.573  41.989  1.00 37.86 LIG-0.65  OA
ATOM     65 OXT  TRP X   6     -15.366 -16.568  39.927  1.00 39.11 LIG-0.65  OA
ENDBRANCH 51 63
ENDBRANCH 49 51
ENDBRANCH 43 47
ENDBRANCH 1 40
TORSDOF 19
ENDMDL
MODEL 96
USER: ADFR SOLUTION from run 194
USER: SCORE 17.208884 LL:  -4.293 LR: -13.712 RR:   0.000 FEB:  -8.044
USER: RMSD 3.806026
USER: SEED 193
USER: STATUS no improvement in best in 9 clusters for 5 generations
USER: GENES 21
USER: genes 0 Translation |==|  0.43077 0.48215 0.47291
USER: genes 1 Rotation |==|  0.56919 0.43783 0.68780 0.95396
USER: genes 2 Torsion [CB]-CA--N-[C] |==|  0.84959
USER: genes 3 Torsion [N]-C--CA-[N] |==|  0.98146
USER: genes 4 Torsion [C]-CA--N-[C] |==|  0.76895
USER: genes 5 Torsion [N]-C--CA-[N] |==|  0.37649
USER: genes 6 Torsion [C]-CA--CB-[CG] |==|  0.43192
USER: genes 7 Torsion [CA]-CB--CG-[SD] |==|  0.16632
USER: genes 8 Torsion [CB]-CG--SD-[CE] |==|  0.36418
USER: genes 9 Torsion [C]-CA--CB-[CG] |==|  0.84104
USER: genes 10 Torsion [CA]-CB--CG-[CD2] |==|  0.41712
USER: genes 11 Torsion [N]-CA--CB-[CG] |==|  0.74624
USER: genes 12 Torsion [CA]-CB--CG-[CD] |==|  0.74121
USER: genes 13 Torsion [CB]-CG--CD-[NE] |==|  0.37040
USER: genes 14 Torsion [CG]-CD--NE-[CZ] |==|  0.31540
USER: genes 15 Torsion [N]-CA--C-[N] |==|  0.49408
USER: genes 16 Torsion [N]-CA--C-[O] |==|  0.68263
USER: genes 17 Torsion [C]-N--CA-[CB] |==|  0.79829
USER: genes 18 Torsion [N]-CA--CB-[CG] |==|  0.89728
USER: genes 19 Torsion [CA]-CB--CG-[CD2] |==|  0.26520
USER: genes 20 Torsion [N]-CA--C-[O] |==|  0.54253
ROOT
ATOM      1  CA  ARG X   4     -22.819 -12.824  38.186  1.00 29.51 LIG 0.18  C 
ENDROOT
BRANCH 1 2
ATOM      2  N   ARG X   4     -22.760 -12.493  36.765  1.00 29.26 LIG-0.35  N 
ATOM      3  C   TRP X   3     -21.698 -12.780  35.989  1.00 30.37 LIG 0.24  C 
ATOM      4 O    TRP X   3     -20.684 -13.383  36.401  1.00 30.38 LIG-0.27  OA
ATOM      5 H    ARG X   4     -23.465 -12.100  36.471  1.00 29.26 LIG 0.16  HD
BRANCH 3 6
ATOM      6  CA  TRP X   3     -21.791 -12.338  34.514  1.00 30.62 LIG 0.18  C 
BRANCH 6 7
ATOM      7  N   TRP X   3     -23.119 -11.803  34.168  1.00 31.45 LIG-0.34  N 
ATOM      8 H    TRP X   3     -23.194 -10.947  34.192  1.00 31.45 LIG 0.16  HD
ATOM      9  C   MET X   2     -24.094 -12.654  33.851  1.00 32.92 LIG 0.26  C 
ATOM     10 O    MET X   2     -23.906 -13.852  33.753  1.00 32.35 LIG-0.27  OA
BRANCH 9 11
ATOM     11  CA  MET X   2     -25.462 -12.102  33.563  1.00 34.28 LIG 0.40  C 
ATOM     12  N   MET X   2     -26.075 -12.742  32.333  1.00 35.36 LIG 0.61  N 
BRANCH 11 13
ATOM     13  CB  MET X   2     -26.349 -12.342  34.774  1.00 35.71 LIG 0.06  C 
BRANCH 13 14
ATOM     14  CG  MET X   2     -27.508 -11.391  34.901  1.00 37.62 LIG 0.08  C 
BRANCH 14 15
ATOM     15 SD   MET X   2     -28.714 -11.350  33.547  1.00 39.06 LIG-0.17  SA
ATOM     16  CE  MET X   2     -30.279 -11.478  34.467  1.00 45.88 LIG 0.09  C 
ENDBRANCH 14 15
ENDBRANCH 13 14
ENDBRANCH 11 13
ENDBRANCH 9 11
ENDBRANCH 6 7
BRANCH 6 17
ATOM     17  CB  TRP X   3     -20.663 -11.367  34.158  1.00 29.85 LIG 0.07  C 
BRANCH 17 18
ATOM     18  CG  TRP X   3     -20.654 -10.149  35.042  1.00 29.58 LIG-0.03  A 
ATOM     19  CD1 TRP X   3     -21.740  -9.570  35.640  1.00 26.84 LIG 0.10  A 
ATOM     20  NE1 TRP X   3     -21.342  -8.475  36.361  1.00 29.47 LIG-0.36  N 
ATOM     21 HE1  TRP X   3     -21.864  -7.961  36.811  1.00 29.47 LIG 0.17  HD
ATOM     22  CE2 TRP X   3     -19.977  -8.323  36.255  1.00 27.62 LIG 0.04  A 
ATOM     23  CZ2 TRP X   3     -19.107  -7.341  36.818  1.00 28.85 LIG 0.03  A 
ATOM     24  CD2 TRP X   3     -19.506  -9.364  35.427  1.00 25.33 LIG-0.00  A 
ATOM     25  CH2 TRP X   3     -17.740  -7.442  36.529  1.00 28.18 LIG 0.00  A 
ATOM     26  CZ3 TRP X   3     -17.256  -8.465  35.694  1.00 26.79 LIG 0.00  A 
ATOM     27  CE3 TRP X   3     -18.135  -9.423  35.125  1.00 25.86 LIG 0.01  A 
ENDBRANCH 17 18
ENDBRANCH 6 17
ENDBRANCH 3 6
ENDBRANCH 1 2
BRANCH 1 28
ATOM     28  CB  ARG X   4     -22.542 -14.322  38.434  1.00 29.55 LIG 0.04  C 
BRANCH 28 29
ATOM     29  CG  ARG X   4     -23.790 -15.201  38.448  1.00 28.17 LIG 0.02  C 
BRANCH 29 30
ATOM     30  CD  ARG X   4     -24.312 -15.362  39.884  1.00 27.09 LIG 0.14  C 
BRANCH 30 31
ATOM     31  NE  ARG X   4     -25.755 -15.145  39.911  1.00 25.46 LIG-0.23  N 
ATOM     32 HE   ARG X   4     -26.053 -14.358  39.733  1.00 25.46 LIG 0.18  HD
ATOM     33  CZ  ARG X   4     -26.636 -16.106  40.196  1.00 27.27 LIG 0.67  C 
ATOM     34  NH2 ARG X   4     -27.942 -15.851  40.197  1.00 24.12 LIG-0.23  N 
ATOM     35  NH1 ARG X   4     -26.197 -17.325  40.498  1.00 21.32 LIG-0.23  N 
ATOM     36 1HH2 ARG X   4     -28.226 -15.061  40.012  1.00 24.12 LIG 0.17  HD
ATOM     37 2HH2 ARG X   4     -28.503 -16.477  40.382  1.00 24.12 LIG 0.17  HD
ATOM     38 2HH1 ARG X   4     -26.757 -17.950  40.684  1.00 21.32 LIG 0.17  HD
ATOM     39 1HH1 ARG X   4     -25.353 -17.488  40.508  1.00 21.32 LIG 0.17  HD
ENDBRANCH 30 31
ENDBRANCH 29 30
ENDBRANCH 28 29
ENDBRANCH 1 28
BRANCH 1 40
ATOM     40  C   ARG X   4     -21.765 -12.009  38.890  1.00 30.38 LIG 0.24  C 
ATOM     41 O    ARG X   4     -21.029 -11.294  38.229  1.00 31.87 LIG-0.27  OA
ATOM     42  N   PRO X   5     -21.670 -12.123  40.224  1.00 30.60 LIG-0.34  N 
ATOM     43  CA  PRO X   5     -20.795 -11.217  41.002  1.00 31.31 LIG 0.18  C 
ATOM     44  CD  PRO X   5     -22.433 -13.069  41.083  1.00 29.99 LIG 0.13  C 
ATOM     45  CB  PRO X   5     -21.285 -11.415  42.440  1.00 30.70 LIG 0.04  C 
ATOM     46  CG  PRO X   5     -21.882 -12.854  42.469  1.00 29.42 LIG 0.02  C 
BRANCH 43 47
ATOM     47  C   PRO X   5     -19.259 -11.449  40.945  1.00 32.23 LIG 0.24  C 
ATOM     48 O    PRO X   5     -18.630 -11.809  41.986  1.00 32.23 LIG-0.27  OA
ATOM     49  N   TRP X   6     -18.667 -11.274  39.768  1.00 33.50 LIG-0.34  N 
ATOM     50 H    TRP X   6     -19.058 -10.954  39.071  1.00 33.50 LIG 0.16  HD
BRANCH 49 51
ATOM     51  CA  TRP X   6     -17.254 -11.628  39.571  1.00 34.66 LIG 0.19  C 
BRANCH 51 52
ATOM     52  CB  TRP X   6     -16.353 -10.604  40.291  1.00 34.41 LIG 0.08  C 
BRANCH 52 53
ATOM     53  CG  TRP X   6     -16.863  -9.176  40.239  1.00 32.39 LIG-0.03  A 
ATOM     54  CD2 TRP X   6     -17.651  -8.490  41.237  1.00 31.68 LIG-0.00  A 
ATOM     55  CE2 TRP X   6     -17.901  -7.193  40.745  1.00 33.29 LIG 0.04  A 
ATOM     56  CE3 TRP X   6     -18.155  -8.844  42.495  1.00 33.66 LIG 0.01  A 
ATOM     57  CZ2 TRP X   6     -18.613  -6.236  41.481  1.00 33.18 LIG 0.03  A 
ATOM     58  NE1 TRP X   6     -17.286  -7.093  39.520  1.00 30.87 LIG-0.36  N 
ATOM     59  CH2 TRP X   6     -19.091  -6.600  42.699  1.00 32.36 LIG 0.00  A 
ATOM     60  CZ3 TRP X   6     -18.885  -7.900  43.212  1.00 32.37 LIG 0.00  A 
ATOM     61 HE1  TRP X   6     -17.281  -6.393  39.020  1.00 30.87 LIG 0.17  HD
ATOM     62  CD1 TRP X   6     -16.684  -8.286  39.223  1.00 30.01 LIG 0.10  A 
ENDBRANCH 52 53
ENDBRANCH 51 52
BRANCH 51 63
ATOM     63  C   TRP X   6     -16.924 -13.066  40.017  1.00 36.76 LIG 0.20  C 
ATOM     64 O    TRP X   6     -15.774 -13.500  40.204  1.00 37.86 LIG-0.65  OA
ATOM     65 OXT  TRP X   6     -17.829 -13.890  40.197  1.00 39.11 LIG-0.65  OA
ENDBRANCH 51 63
ENDBRANCH 49 51
ENDBRANCH 43 47
ENDBRANCH 1 40
TORSDOF 19
ENDMDL
MODEL 97
USER: ADFR SOLUTION from run 133
USER: SCORE 16.788946 LL:  -4.460 LR: -13.696 RR:   0.000 FEB:  -8.028
USER: RMSD 9.247988
USER: SEED 132
USER: STATUS no improvement in best in 16 clusters for 5 generations
USER: GENES 21
USER: genes 0 Translation |==|  0.56452 0.71354 0.69988
USER: genes 1 Rotation |==|  0.24778 0.71190 0.76019 0.77164
USER: genes 2 Torsion [CB]-CA--N-[C] |==|  0.41541
USER: genes 3 Torsion [N]-C--CA-[N] |==|  0.04039
USER: genes 4 Torsion [C]-CA--N-[C] |==|  0.71626
USER: genes 5 Torsion [N]-C--CA-[N] |==|  0.84094
USER: genes 6 Torsion [C]-CA--CB-[CG] |==|  0.77278
USER: genes 7 Torsion [CA]-CB--CG-[SD] |==|  0.42166
USER: genes 8 Torsion [CB]-CG--SD-[CE] |==|  0.85015
USER: genes 9 Torsion [C]-CA--CB-[CG] |==|  0.34103
USER: genes 10 Torsion [CA]-CB--CG-[CD2] |==|  0.88238
USER: genes 11 Torsion [N]-CA--CB-[CG] |==|  0.39150
USER: genes 12 Torsion [CA]-CB--CG-[CD] |==|  0.24814
USER: genes 13 Torsion [CB]-CG--CD-[NE] |==|  0.73864
USER: genes 14 Torsion [CG]-CD--NE-[CZ] |==|  0.78539
USER: genes 15 Torsion [N]-CA--C-[N] |==|  0.85725
USER: genes 16 Torsion [N]-CA--C-[O] |==|  0.28629
USER: genes 17 Torsion [C]-N--CA-[CB] |==|  0.48076
USER: genes 18 Torsion [N]-CA--CB-[CG] |==|  0.82811
USER: genes 19 Torsion [CA]-CB--CG-[CD2] |==|  0.28743
USER: genes 20 Torsion [N]-CA--C-[O] |==|  0.91021
ROOT
ATOM      1  CA  ARG X   4     -20.010  -8.312  42.442  1.00 29.51 LIG 0.18  C 
ENDROOT
BRANCH 1 2
ATOM      2  N   ARG X   4     -19.896  -9.768  42.467  1.00 29.26 LIG-0.35  N 
ATOM      3  C   TRP X   3     -20.950 -10.588  42.296  1.00 30.37 LIG 0.24  C 
ATOM      4 O    TRP X   3     -22.110 -10.185  42.068  1.00 30.38 LIG-0.27  OA
ATOM      5 H    ARG X   4     -19.095 -10.051  42.600  1.00 29.26 LIG 0.16  HD
BRANCH 3 6
ATOM      6  CA  TRP X   3     -20.657 -12.101  42.377  1.00 30.62 LIG 0.18  C 
BRANCH 6 7
ATOM      7  N   TRP X   3     -19.336 -12.389  42.963  1.00 31.45 LIG-0.34  N 
ATOM      8 H    TRP X   3     -19.286 -12.325  43.819  1.00 31.45 LIG 0.16  HD
ATOM      9  C   MET X   2     -18.331 -12.720  42.155  1.00 32.92 LIG 0.26  C 
ATOM     10 O    MET X   2     -18.482 -12.876  40.958  1.00 32.35 LIG-0.27  OA
BRANCH 9 11
ATOM     11  CA  MET X   2     -16.972 -12.949  42.756  1.00 34.28 LIG 0.40  C 
ATOM     12  N   MET X   2     -16.489 -11.734  43.523  1.00 35.36 LIG 0.61  N 
BRANCH 11 13
ATOM     13  CB  MET X   2     -17.044 -14.155  43.678  1.00 35.71 LIG 0.06  C 
BRANCH 13 14
ATOM     14  CG  MET X   2     -17.585 -13.864  45.052  1.00 37.62 LIG 0.08  C 
BRANCH 14 15
ATOM     15 SD   MET X   2     -18.430 -15.211  45.924  1.00 39.06 LIG-0.17  SA
ATOM     16  CE  MET X   2     -19.680 -15.696  44.693  1.00 45.88 LIG 0.09  C 
ENDBRANCH 14 15
ENDBRANCH 13 14
ENDBRANCH 11 13
ENDBRANCH 9 11
ENDBRANCH 6 7
BRANCH 6 17
ATOM     17  CB  TRP X   3     -21.786 -12.842  43.096  1.00 29.85 LIG 0.07  C 
BRANCH 17 18
ATOM     18  CG  TRP X   3     -22.387 -13.931  42.249  1.00 29.58 LIG-0.03  A 
ATOM     19  CD1 TRP X   3     -22.737 -15.187  42.666  1.00 26.84 LIG 0.10  A 
ATOM     20  NE1 TRP X   3     -23.244 -15.900  41.611  1.00 29.47 LIG-0.36  N 
ATOM     21 HE1  TRP X   3     -23.520 -16.714  41.650  1.00 29.47 LIG 0.17  HD
ATOM     22  CE2 TRP X   3     -23.245 -15.115  40.480  1.00 27.62 LIG 0.04  A 
ATOM     23  CZ2 TRP X   3     -23.670 -15.407  39.149  1.00 28.85 LIG 0.03  A 
ATOM     24  CD2 TRP X   3     -22.708 -13.861  40.843  1.00 25.33 LIG-0.00  A 
ATOM     25  CH2 TRP X   3     -23.547 -14.393  38.190  1.00 28.18 LIG 0.00  A 
ATOM     26  CZ3 TRP X   3     -23.001 -13.142  38.533  1.00 26.79 LIG 0.00  A 
ATOM     27  CE3 TRP X   3     -22.564 -12.873  39.856  1.00 25.86 LIG 0.01  A 
ENDBRANCH 17 18
ENDBRANCH 6 17
ENDBRANCH 3 6
ENDBRANCH 1 2
BRANCH 1 28
ATOM     28  CB  ARG X   4     -18.957  -7.644  43.350  1.00 29.55 LIG 0.04  C 
BRANCH 28 29
ATOM     29  CG  ARG X   4     -18.348  -6.366  42.777  1.00 28.17 LIG 0.02  C 
BRANCH 29 30
ATOM     30  CD  ARG X   4     -19.182  -5.145  43.194  1.00 27.09 LIG 0.14  C 
BRANCH 30 31
ATOM     31  NE  ARG X   4     -20.157  -4.834  42.152  1.00 25.46 LIG-0.23  N 
ATOM     32 HE   ARG X   4     -20.976  -5.065  42.278  1.00 25.46 LIG 0.18  HD
ATOM     33  CZ  ARG X   4     -19.842  -4.210  41.016  1.00 27.27 LIG 0.67  C 
ATOM     34  NH2 ARG X   4     -20.776  -3.946  40.106  1.00 24.12 LIG-0.23  N 
ATOM     35  NH1 ARG X   4     -18.577  -3.866  40.789  1.00 21.32 LIG-0.23  N 
ATOM     36 1HH2 ARG X   4     -21.592  -4.178  40.247  1.00 24.12 LIG 0.17  HD
ATOM     37 2HH2 ARG X   4     -20.564  -3.542  39.376  1.00 24.12 LIG 0.17  HD
ATOM     38 2HH1 ARG X   4     -18.365  -3.464  40.059  1.00 21.32 LIG 0.17  HD
ATOM     39 1HH1 ARG X   4     -17.971  -4.045  41.373  1.00 21.32 LIG 0.17  HD
ENDBRANCH 30 31
ENDBRANCH 29 30
ENDBRANCH 28 29
ENDBRANCH 1 28
BRANCH 1 40
ATOM     40  C   ARG X   4     -19.789  -7.860  41.021  1.00 30.38 LIG 0.24  C 
ATOM     41 O    ARG X   4     -20.615  -7.130  40.497  1.00 31.87 LIG-0.27  OA
ATOM     42  N   PRO X   5     -18.693  -8.301  40.385  1.00 30.60 LIG-0.34  N 
ATOM     43  CA  PRO X   5     -18.310  -7.751  39.064  1.00 31.31 LIG 0.18  C 
ATOM     44  CD  PRO X   5     -17.715  -9.295  40.904  1.00 29.99 LIG 0.13  C 
ATOM     45  CB  PRO X   5     -16.856  -8.207  38.910  1.00 30.70 LIG 0.04  C 
ATOM     46  CG  PRO X   5     -16.745  -9.502  39.769  1.00 29.42 LIG 0.02  C 
BRANCH 43 47
ATOM     47  C   PRO X   5     -19.125  -8.196  37.818  1.00 32.23 LIG 0.24  C 
ATOM     48 O    PRO X   5     -19.987  -7.418  37.309  1.00 32.23 LIG-0.27  OA
ATOM     49  N   TRP X   6     -18.854  -9.399  37.320  1.00 33.50 LIG-0.34  N 
ATOM     50 H    TRP X   6     -18.334  -9.973  37.694  1.00 33.50 LIG 0.16  HD
BRANCH 49 51
ATOM     51  CA  TRP X   6     -19.448  -9.844  36.051  1.00 34.66 LIG 0.19  C 
BRANCH 51 52
ATOM     52  CB  TRP X   6     -18.832 -11.194  35.630  1.00 34.41 LIG 0.08  C 
BRANCH 52 53
ATOM     53  CG  TRP X   6     -17.336 -11.147  35.378  1.00 32.39 LIG-0.03  A 
ATOM     54  CD2 TRP X   6     -16.286 -11.629  36.246  1.00 31.68 LIG-0.00  A 
ATOM     55  CE2 TRP X   6     -15.062 -11.354  35.603  1.00 33.29 LIG 0.04  A 
ATOM     56  CE3 TRP X   6     -16.267 -12.274  37.489  1.00 33.66 LIG 0.01  A 
ATOM     57  CZ2 TRP X   6     -13.827 -11.726  36.152  1.00 33.18 LIG 0.03  A 
ATOM     58  NE1 TRP X   6     -15.354 -10.749  34.405  1.00 30.87 LIG-0.36  N 
ATOM     59  CH2 TRP X   6     -13.831 -12.351  37.358  1.00 32.36 LIG 0.00  A 
ATOM     60  CZ3 TRP X   6     -15.037 -12.617  38.044  1.00 32.37 LIG 0.00  A 
ATOM     61 HE1  TRP X   6     -14.777 -10.493  33.821  1.00 30.87 LIG 0.17  HD
ATOM     62  CD1 TRP X   6     -16.712 -10.618  34.289  1.00 30.01 LIG 0.10  A 
ENDBRANCH 52 53
ENDBRANCH 51 52
BRANCH 51 63
ATOM     63  C   TRP X   6     -20.987  -9.931  36.103  1.00 36.76 LIG 0.20  C 
ATOM     64 O    TRP X   6     -21.643 -10.227  37.117  1.00 37.86 LIG-0.65  OA
ATOM     65 OXT  TRP X   6     -21.661  -9.719  35.088  1.00 39.11 LIG-0.65  OA
ENDBRANCH 51 63
ENDBRANCH 49 51
ENDBRANCH 43 47
ENDBRANCH 1 40
TORSDOF 19
ENDMDL
MODEL 98
USER: ADFR SOLUTION from run 112
USER: SCORE 17.938219 LL:  -4.657 LR: -13.695 RR:   0.000 FEB:  -8.028
USER: RMSD 7.418197
USER: SEED 111
USER: STATUS no improvement in best in 11 clusters for 5 generations
USER: GENES 21
USER: genes 0 Translation |==|  0.56393 0.63798 0.68860
USER: genes 1 Rotation |==|  0.66066 0.44300 0.07380 0.69823
USER: genes 2 Torsion [CB]-CA--N-[C] |==|  0.17027
USER: genes 3 Torsion [N]-C--CA-[N] |==|  0.01667
USER: genes 4 Torsion [C]-CA--N-[C] |==|  0.66143
USER: genes 5 Torsion [N]-C--CA-[N] |==|  0.49237
USER: genes 6 Torsion [C]-CA--CB-[CG] |==|  0.17783
USER: genes 7 Torsion [CA]-CB--CG-[SD] |==|  0.22767
USER: genes 8 Torsion [CB]-CG--SD-[CE] |==|  0.25752
USER: genes 9 Torsion [C]-CA--CB-[CG] |==|  0.80130
USER: genes 10 Torsion [CA]-CB--CG-[CD2] |==|  0.81347
USER: genes 11 Torsion [N]-CA--CB-[CG] |==|  0.71415
USER: genes 12 Torsion [CA]-CB--CG-[CD] |==|  0.34322
USER: genes 13 Torsion [CB]-CG--CD-[NE] |==|  0.07174
USER: genes 14 Torsion [CG]-CD--NE-[CZ] |==|  0.31088
USER: genes 15 Torsion [N]-CA--C-[N] |==|  0.14436
USER: genes 16 Torsion [N]-CA--C-[O] |==|  0.12089
USER: genes 17 Torsion [C]-N--CA-[CB] |==|  0.38942
USER: genes 18 Torsion [N]-CA--CB-[CG] |==|  0.65347
USER: genes 19 Torsion [CA]-CB--CG-[CD2] |==|  0.28652
USER: genes 20 Torsion [N]-CA--C-[O] |==|  0.00084
ROOT
ATOM      1  CA  ARG X   4     -20.023  -9.785  42.230  1.00 29.51 LIG 0.18  C 
ENDROOT
BRANCH 1 2
ATOM      2  N   ARG X   4     -19.024  -9.510  41.201  1.00 29.26 LIG-0.35  N 
ATOM      3  C   TRP X   3     -18.034  -8.612  41.361  1.00 30.37 LIG 0.24  C 
ATOM      4 O    TRP X   3     -17.857  -7.960  42.412  1.00 30.38 LIG-0.27  OA
ATOM      5 H    ARG X   4     -19.127  -9.974  40.485  1.00 29.26 LIG 0.16  HD
BRANCH 3 6
ATOM      6  CA  TRP X   3     -17.080  -8.427  40.163  1.00 30.62 LIG 0.18  C 
BRANCH 6 7
ATOM      7  N   TRP X   3     -17.512  -9.183  38.976  1.00 31.45 LIG-0.34  N 
ATOM      8 H    TRP X   3     -18.299  -8.997  38.681  1.00 31.45 LIG 0.16  HD
ATOM      9  C   MET X   2     -16.683 -10.081  38.446  1.00 32.92 LIG 0.26  C 
ATOM     10 O    MET X   2     -15.549 -10.241  38.856  1.00 32.35 LIG-0.27  OA
BRANCH 9 11
ATOM     11  CA  MET X   2     -17.159 -10.894  37.274  1.00 34.28 LIG 0.40  C 
ATOM     12  N   MET X   2     -16.073 -11.816  36.756  1.00 35.36 LIG 0.61  N 
BRANCH 11 13
ATOM     13  CB  MET X   2     -18.372 -11.703  37.702  1.00 35.71 LIG 0.06  C 
BRANCH 13 14
ATOM     14  CG  MET X   2     -19.572 -10.879  38.088  1.00 37.62 LIG 0.08  C 
BRANCH 14 15
ATOM     15 SD   MET X   2     -20.634 -10.266  36.753  1.00 39.06 LIG-0.17  SA
ATOM     16  CE  MET X   2     -21.875 -11.594  36.655  1.00 45.88 LIG 0.09  C 
ENDBRANCH 14 15
ENDBRANCH 13 14
ENDBRANCH 11 13
ENDBRANCH 9 11
ENDBRANCH 6 7
BRANCH 6 17
ATOM     17  CB  TRP X   3     -16.860  -6.943  39.860  1.00 29.85 LIG 0.07  C 
BRANCH 17 18
ATOM     18  CG  TRP X   3     -18.076  -6.295  39.256  1.00 29.58 LIG-0.03  A 
ATOM     19  CD1 TRP X   3     -18.858  -5.333  39.836  1.00 26.84 LIG 0.10  A 
ATOM     20  NE1 TRP X   3     -19.878  -4.993  38.987  1.00 29.47 LIG-0.36  N 
ATOM     21 HE1  TRP X   3     -20.490  -4.412  39.155  1.00 29.47 LIG 0.17  HD
ATOM     22  CE2 TRP X   3     -19.776  -5.723  37.825  1.00 27.62 LIG 0.04  A 
ATOM     23  CZ2 TRP X   3     -20.596  -5.726  36.656  1.00 28.85 LIG 0.03  A 
ATOM     24  CD2 TRP X   3     -18.648  -6.560  37.958  1.00 25.33 LIG-0.00  A 
ATOM     25  CH2 TRP X   3     -20.240  -6.594  35.615  1.00 28.18 LIG 0.00  A 
ATOM     26  CZ3 TRP X   3     -19.126  -7.444  35.737  1.00 26.79 LIG 0.00  A 
ATOM     27  CE3 TRP X   3     -18.332  -7.445  36.913  1.00 25.86 LIG 0.01  A 
ENDBRANCH 17 18
ENDBRANCH 6 17
ENDBRANCH 3 6
ENDBRANCH 1 2
BRANCH 1 28
ATOM     28  CB  ARG X   4     -20.852  -8.529  42.568  1.00 29.55 LIG 0.04  C 
BRANCH 28 29
ATOM     29  CG  ARG X   4     -20.458  -7.844  43.874  1.00 28.17 LIG 0.02  C 
BRANCH 29 30
ATOM     30  CD  ARG X   4     -20.095  -6.374  43.616  1.00 27.09 LIG 0.14  C 
BRANCH 30 31
ATOM     31  NE  ARG X   4     -20.783  -5.899  42.418  1.00 25.46 LIG-0.23  N 
ATOM     32 HE   ARG X   4     -20.548  -6.225  41.657  1.00 25.46 LIG 0.18  HD
ATOM     33  CZ  ARG X   4     -21.756  -4.987  42.443  1.00 27.27 LIG 0.67  C 
ATOM     34  NH2 ARG X   4     -22.352  -4.600  41.319  1.00 24.12 LIG-0.23  N 
ATOM     35  NH1 ARG X   4     -22.118  -4.451  43.607  1.00 21.32 LIG-0.23  N 
ATOM     36 1HH2 ARG X   4     -22.111  -4.937  40.566  1.00 24.12 LIG 0.17  HD
ATOM     37 2HH2 ARG X   4     -22.979  -4.011  41.345  1.00 24.12 LIG 0.17  HD
ATOM     38 2HH1 ARG X   4     -22.744  -3.863  43.632  1.00 21.32 LIG 0.17  HD
ATOM     39 1HH1 ARG X   4     -21.726  -4.694  44.332  1.00 21.32 LIG 0.17  HD
ENDBRANCH 30 31
ENDBRANCH 29 30
ENDBRANCH 28 29
ENDBRANCH 1 28
BRANCH 1 40
ATOM     40  C   ARG X   4     -20.945 -10.853  41.700  1.00 30.38 LIG 0.24  C 
ATOM     41 O    ARG X   4     -22.150 -10.668  41.742  1.00 31.87 LIG-0.27  OA
ATOM     42  N   PRO X   5     -20.393 -11.977  41.218  1.00 30.60 LIG-0.34  N 
ATOM     43  CA  PRO X   5     -21.216 -12.982  40.508  1.00 31.31 LIG 0.18  C 
ATOM     44  CD  PRO X   5     -18.948 -12.334  41.255  1.00 29.99 LIG 0.13  C 
ATOM     45  CB  PRO X   5     -20.169 -13.850  39.804  1.00 30.70 LIG 0.04  C 
ATOM     46  CG  PRO X   5     -18.885 -13.725  40.678  1.00 29.42 LIG 0.02  C 
BRANCH 43 47
ATOM     47  C   PRO X   5     -22.155 -13.890  41.350  1.00 32.23 LIG 0.24  C 
ATOM     48 O    PRO X   5     -22.852 -13.393  42.286  1.00 32.23 LIG-0.27  OA
ATOM     49  N   TRP X   6     -22.200 -15.179  41.024  1.00 33.50 LIG-0.34  N 
ATOM     50 H    TRP X   6     -21.679 -15.551  40.449  1.00 33.50 LIG 0.16  HD
BRANCH 49 51
ATOM     51  CA  TRP X   6     -23.175 -16.085  41.646  1.00 34.66 LIG 0.19  C 
BRANCH 51 52
ATOM     52  CB  TRP X   6     -23.729 -17.062  40.590  1.00 34.41 LIG 0.08  C 
BRANCH 52 53
ATOM     53  CG  TRP X   6     -25.242 -17.063  40.470  1.00 32.39 LIG-0.03  A 
ATOM     54  CD2 TRP X   6     -26.039 -16.441  39.438  1.00 31.68 LIG-0.00  A 
ATOM     55  CE2 TRP X   6     -27.389 -16.690  39.754  1.00 33.29 LIG 0.04  A 
ATOM     56  CE3 TRP X   6     -25.739 -15.714  38.279  1.00 33.66 LIG 0.01  A 
ATOM     57  CZ2 TRP X   6     -28.443 -16.258  38.936  1.00 33.18 LIG 0.03  A 
ATOM     58  NE1 TRP X   6     -27.411 -17.433  40.910  1.00 30.87 LIG-0.36  N 
ATOM     59  CH2 TRP X   6     -28.130 -15.556  37.817  1.00 32.36 LIG 0.00  A 
ATOM     60  CZ3 TRP X   6     -26.789 -15.263  37.483  1.00 32.37 LIG 0.00  A 
ATOM     61 HE1  TRP X   6     -28.118 -17.724  41.303  1.00 30.87 LIG 0.17  HD
ATOM     62  CD1 TRP X   6     -26.125 -17.636  41.334  1.00 30.01 LIG 0.10  A 
ENDBRANCH 52 53
ENDBRANCH 51 52
BRANCH 51 63
ATOM     63  C   TRP X   6     -22.603 -16.846  42.859  1.00 36.76 LIG 0.20  C 
ATOM     64 O    TRP X   6     -21.442 -16.719  43.288  1.00 37.86 LIG-0.65  OA
ATOM     65 OXT  TRP X   6     -23.299 -17.664  43.471  1.00 39.11 LIG-0.65  OA
ENDBRANCH 51 63
ENDBRANCH 49 51
ENDBRANCH 43 47
ENDBRANCH 1 40
TORSDOF 19
ENDMDL
MODEL 99
USER: ADFR SOLUTION from run 158
USER: SCORE 18.959667 LL:  -6.645 LR: -13.700 RR:   0.000 FEB:  -8.032
USER: RMSD 5.776318
USER: SEED 157
USER: STATUS no improvement in best in 8 clusters for 5 generations
USER: GENES 21
USER: genes 0 Translation |==|  0.68232 0.68216 0.57682
USER: genes 1 Rotation |==|  0.60322 0.46934 0.29501 0.94315
USER: genes 2 Torsion [CB]-CA--N-[C] |==|  0.87934
USER: genes 3 Torsion [N]-C--CA-[N] |==|  0.48579
USER: genes 4 Torsion [C]-CA--N-[C] |==|  0.77141
USER: genes 5 Torsion [N]-C--CA-[N] |==|  0.38961
USER: genes 6 Torsion [C]-CA--CB-[CG] |==|  0.25383
USER: genes 7 Torsion [CA]-CB--CG-[SD] |==|  0.71320
USER: genes 8 Torsion [CB]-CG--SD-[CE] |==|  0.33665
USER: genes 9 Torsion [C]-CA--CB-[CG] |==|  0.89658
USER: genes 10 Torsion [CA]-CB--CG-[CD2] |==|  0.30726
USER: genes 11 Torsion [N]-CA--CB-[CG] |==|  0.75332
USER: genes 12 Torsion [CA]-CB--CG-[CD] |==|  0.66233
USER: genes 13 Torsion [CB]-CG--CD-[NE] |==|  0.42965
USER: genes 14 Torsion [CG]-CD--NE-[CZ] |==|  0.82342
USER: genes 15 Torsion [N]-CA--C-[N] |==|  0.48889
USER: genes 16 Torsion [N]-CA--C-[O] |==|  0.26661
USER: genes 17 Torsion [C]-N--CA-[CB] |==|  0.78742
USER: genes 18 Torsion [N]-CA--CB-[CG] |==|  0.95065
USER: genes 19 Torsion [CA]-CB--CG-[CD2] |==|  0.83871
USER: genes 20 Torsion [N]-CA--C-[O] |==|  0.69374
ROOT
ATOM      1  CA  ARG X   4     -17.536  -8.924  40.134  1.00 29.51 LIG 0.18  C 
ENDROOT
BRANCH 1 2
ATOM      2  N   ARG X   4     -17.305  -8.332  38.820  1.00 29.26 LIG-0.35  N 
ATOM      3  C   TRP X   3     -17.842  -8.825  37.689  1.00 30.37 LIG 0.24  C 
ATOM      4 O    TRP X   3     -18.612  -9.809  37.661  1.00 30.38 LIG-0.27  OA
ATOM      5 H    ARG X   4     -16.795  -7.640  38.836  1.00 29.26 LIG 0.16  HD
BRANCH 3 6
ATOM      6  CA  TRP X   3     -17.474  -8.092  36.382  1.00 30.62 LIG 0.18  C 
BRANCH 6 7
ATOM      7  N   TRP X   3     -18.006  -8.768  35.186  1.00 31.45 LIG-0.34  N 
ATOM      8 H    TRP X   3     -18.742  -8.451  34.875  1.00 31.45 LIG 0.16  HD
ATOM      9  C   MET X   2     -17.334  -9.799  34.677  1.00 32.92 LIG 0.26  C 
ATOM     10 O    MET X   2     -16.253 -10.151  35.111  1.00 32.35 LIG-0.27  OA
BRANCH 9 11
ATOM     11  CA  MET X   2     -17.918 -10.524  33.496  1.00 34.28 LIG 0.40  C 
ATOM     12  N   MET X   2     -16.850 -10.905  32.490  1.00 35.36 LIG 0.61  N 
BRANCH 11 13
ATOM     13  CB  MET X   2     -18.636 -11.767  33.995  1.00 35.71 LIG 0.06  C 
BRANCH 13 14
ATOM     14  CG  MET X   2     -20.096 -11.569  34.300  1.00 37.62 LIG 0.08  C 
BRANCH 14 15
ATOM     15 SD   MET X   2     -20.579 -11.430  36.042  1.00 39.06 LIG-0.17  SA
ATOM     16  CE  MET X   2     -21.365  -9.788  36.059  1.00 45.88 LIG 0.09  C 
ENDBRANCH 14 15
ENDBRANCH 13 14
ENDBRANCH 11 13
ENDBRANCH 9 11
ENDBRANCH 6 7
BRANCH 6 17
ATOM     17  CB  TRP X   3     -17.879  -6.618  36.445  1.00 29.85 LIG 0.07  C 
BRANCH 17 18
ATOM     18  CG  TRP X   3     -19.181  -6.412  37.170  1.00 29.58 LIG-0.03  A 
ATOM     19  CD1 TRP X   3     -20.424  -6.785  36.734  1.00 26.84 LIG 0.10  A 
ATOM     20  NE1 TRP X   3     -21.367  -6.423  37.660  1.00 29.47 LIG-0.36  N 
ATOM     21 HE1  TRP X   3     -22.213  -6.557  37.584  1.00 29.47 LIG 0.17  HD
ATOM     22  CE2 TRP X   3     -20.753  -5.813  38.731  1.00 27.62 LIG 0.04  A 
ATOM     23  CZ2 TRP X   3     -21.306  -5.267  39.929  1.00 28.85 LIG 0.03  A 
ATOM     24  CD2 TRP X   3     -19.369  -5.785  38.457  1.00 25.33 LIG-0.00  A 
ATOM     25  CH2 TRP X   3     -20.420  -4.697  40.852  1.00 28.18 LIG 0.00  A 
ATOM     26  CZ3 TRP X   3     -19.039  -4.650  40.588  1.00 26.79 LIG 0.00  A 
ATOM     27  CE3 TRP X   3     -18.506  -5.178  39.384  1.00 25.86 LIG 0.01  A 
ENDBRANCH 17 18
ENDBRANCH 6 17
ENDBRANCH 3 6
ENDBRANCH 1 2
BRANCH 1 28
ATOM     28  CB  ARG X   4     -19.018  -9.305  40.334  1.00 29.55 LIG 0.04  C 
BRANCH 28 29
ATOM     29  CG  ARG X   4     -19.885  -8.190  40.912  1.00 28.17 LIG 0.02  C 
BRANCH 29 30
ATOM     30  CD  ARG X   4     -20.535  -8.648  42.227  1.00 27.09 LIG 0.14  C 
BRANCH 30 31
ATOM     31  NE  ARG X   4     -20.838  -7.486  43.058  1.00 25.46 LIG-0.23  N 
ATOM     32 HE   ARG X   4     -21.662  -7.319  43.240  1.00 25.46 LIG 0.18  HD
ATOM     33  CZ  ARG X   4     -19.903  -6.670  43.548  1.00 27.27 LIG 0.67  C 
ATOM     34  NH2 ARG X   4     -20.240  -5.631  44.307  1.00 24.12 LIG-0.23  N 
ATOM     35  NH1 ARG X   4     -18.624  -6.895  43.258  1.00 21.32 LIG-0.23  N 
ATOM     36 1HH2 ARG X   4     -21.067  -5.479  44.486  1.00 24.12 LIG 0.17  HD
ATOM     37 2HH2 ARG X   4     -19.630  -5.111  44.620  1.00 24.12 LIG 0.17  HD
ATOM     38 2HH1 ARG X   4     -18.015  -6.374  43.569  1.00 21.32 LIG 0.17  HD
ATOM     39 1HH1 ARG X   4     -18.407  -7.560  42.759  1.00 21.32 LIG 0.17  HD
ENDBRANCH 30 31
ENDBRANCH 29 30
ENDBRANCH 28 29
ENDBRANCH 1 28
BRANCH 1 40
ATOM     40  C   ARG X   4     -16.694 -10.170  40.230  1.00 30.38 LIG 0.24  C 
ATOM     41 O    ARG X   4     -16.066 -10.537  39.250  1.00 31.87 LIG-0.27  OA
ATOM     42  N   PRO X   5     -16.688 -10.836  41.395  1.00 30.60 LIG-0.34  N 
ATOM     43  CA  PRO X   5     -15.743 -11.952  41.626  1.00 31.31 LIG 0.18  C 
ATOM     44  CD  PRO X   5     -17.527 -10.532  42.587  1.00 29.99 LIG 0.13  C 
ATOM     45  CB  PRO X   5     -15.793 -12.136  43.146  1.00 30.70 LIG 0.04  C 
ATOM     46  CG  PRO X   5     -17.203 -11.628  43.569  1.00 29.42 LIG 0.02  C 
BRANCH 43 47
ATOM     47  C   PRO X   5     -16.028 -13.313  40.932  1.00 32.23 LIG 0.24  C 
ATOM     48 O    PRO X   5     -15.465 -13.597  39.832  1.00 32.23 LIG-0.27  OA
ATOM     49  N   TRP X   6     -16.856 -14.145  41.556  1.00 33.50 LIG-0.34  N 
ATOM     50 H    TRP X   6     -17.309 -13.942  42.258  1.00 33.50 LIG 0.16  HD
BRANCH 49 51
ATOM     51  CA  TRP X   6     -17.061 -15.516  41.068  1.00 34.66 LIG 0.19  C 
BRANCH 51 52
ATOM     52  CB  TRP X   6     -17.978 -15.500  39.828  1.00 34.41 LIG 0.08  C 
BRANCH 52 53
ATOM     53  CG  TRP X   6     -18.776 -14.220  39.658  1.00 32.39 LIG-0.03  A 
ATOM     54  CD2 TRP X   6     -19.708 -13.638  40.595  1.00 31.68 LIG-0.00  A 
ATOM     55  CE2 TRP X   6     -20.216 -12.467  39.998  1.00 33.29 LIG 0.04  A 
ATOM     56  CE3 TRP X   6     -20.148 -13.987  41.878  1.00 33.66 LIG 0.01  A 
ATOM     57  CZ2 TRP X   6     -21.127 -11.625  40.652  1.00 33.18 LIG 0.03  A 
ATOM     58  NE1 TRP X   6     -19.615 -12.339  38.769  1.00 30.87 LIG-0.36  N 
ATOM     59  CH2 TRP X   6     -21.539 -11.982  41.896  1.00 32.36 LIG 0.00  A 
ATOM     60  CZ3 TRP X   6     -21.073 -13.164  42.514  1.00 32.37 LIG 0.00  A 
ATOM     61 HE1  TRP X   6     -19.748 -11.697  38.212  1.00 30.87 LIG 0.17  HD
ATOM     62  CD1 TRP X   6     -18.770 -13.398  38.572  1.00 30.01 LIG 0.10  A 
ENDBRANCH 52 53
ENDBRANCH 51 52
BRANCH 51 63
ATOM     63  C   TRP X   6     -15.740 -16.254  40.769  1.00 36.76 LIG 0.20  C 
ATOM     64 O    TRP X   6     -15.342 -16.554  39.630  1.00 37.86 LIG-0.65  OA
ATOM     65 OXT  TRP X   6     -14.998 -16.610  41.692  1.00 39.11 LIG-0.65  OA
ENDBRANCH 51 63
ENDBRANCH 49 51
ENDBRANCH 43 47
ENDBRANCH 1 40
TORSDOF 19
ENDMDL
MODEL 100
USER: ADFR SOLUTION from run 101
USER: SCORE 17.505116 LL:  -5.359 LR: -13.679 RR:   0.000 FEB:  -8.011
USER: RMSD 6.777384
USER: SEED 100
USER: STATUS no improvement in best in 7 clusters for 5 generations
USER: GENES 21
USER: genes 0 Translation |==|  0.57203 0.59596 0.28337
USER: genes 1 Rotation |==|  0.87272 0.26804 0.52188 0.73832
USER: genes 2 Torsion [CB]-CA--N-[C] |==|  0.44122
USER: genes 3 Torsion [N]-C--CA-[N] |==|  0.43708
USER: genes 4 Torsion [C]-CA--N-[C] |==|  0.57623
USER: genes 5 Torsion [N]-C--CA-[N] |==|  0.88809
USER: genes 6 Torsion [C]-CA--CB-[CG] |==|  0.67823
USER: genes 7 Torsion [CA]-CB--CG-[SD] |==|  0.49177
USER: genes 8 Torsion [CB]-CG--SD-[CE] |==|  0.59393
USER: genes 9 Torsion [C]-CA--CB-[CG] |==|  0.65465
USER: genes 10 Torsion [CA]-CB--CG-[CD2] |==|  0.23802
USER: genes 11 Torsion [N]-CA--CB-[CG] |==|  0.57132
USER: genes 12 Torsion [CA]-CB--CG-[CD] |==|  0.51288
USER: genes 13 Torsion [CB]-CG--CD-[NE] |==|  0.80284
USER: genes 14 Torsion [CG]-CD--NE-[CZ] |==|  0.81905
USER: genes 15 Torsion [N]-CA--C-[N] |==|  0.85000
USER: genes 16 Torsion [N]-CA--C-[O] |==|  0.44364
USER: genes 17 Torsion [C]-N--CA-[CB] |==|  0.83256
USER: genes 18 Torsion [N]-CA--CB-[CG] |==|  0.66383
USER: genes 19 Torsion [CA]-CB--CG-[CD2] |==|  0.22846
USER: genes 20 Torsion [N]-CA--C-[O] |==|  0.43922
ROOT
ATOM      1  CA  ARG X   4     -19.852 -10.605  34.632  1.00 29.51 LIG 0.18  C 
ENDROOT
BRANCH 1 2
ATOM      2  N   ARG X   4     -19.398  -9.376  35.278  1.00 29.26 LIG-0.35  N 
ATOM      3  C   TRP X   3     -19.819  -8.990  36.497  1.00 30.37 LIG 0.24  C 
ATOM      4 O    TRP X   3     -20.605  -9.659  37.200  1.00 30.38 LIG-0.27  OA
ATOM      5 H    ARG X   4     -18.838  -8.924  34.807  1.00 29.26 LIG 0.16  HD
BRANCH 3 6
ATOM      6  CA  TRP X   3     -19.258  -7.651  37.020  1.00 30.62 LIG 0.18  C 
BRANCH 6 7
ATOM      7  N   TRP X   3     -20.118  -7.043  38.049  1.00 31.45 LIG-0.34  N 
ATOM      8 H    TRP X   3     -20.592  -7.592  38.511  1.00 31.45 LIG 0.16  HD
ATOM      9  C   MET X   2     -20.108  -5.719  38.198  1.00 32.92 LIG 0.26  C 
ATOM     10 O    MET X   2     -19.354  -5.000  37.572  1.00 32.35 LIG-0.27  OA
BRANCH 9 11
ATOM     11  CA  MET X   2     -21.037  -5.104  39.207  1.00 34.28 LIG 0.40  C 
ATOM     12  N   MET X   2     -22.396  -5.775  39.198  1.00 35.36 LIG 0.61  N 
BRANCH 11 13
ATOM     13  CB  MET X   2     -20.406  -5.219  40.585  1.00 35.71 LIG 0.06  C 
BRANCH 13 14
ATOM     14  CG  MET X   2     -21.166  -6.084  41.553  1.00 37.62 LIG 0.08  C 
BRANCH 14 15
ATOM     15 SD   MET X   2     -20.441  -6.344  43.195  1.00 39.06 LIG-0.17  SA
ATOM     16  CE  MET X   2     -20.976  -8.047  43.549  1.00 45.88 LIG 0.09  C 
ENDBRANCH 14 15
ENDBRANCH 13 14
ENDBRANCH 11 13
ENDBRANCH 9 11
ENDBRANCH 6 7
BRANCH 6 17
ATOM     17  CB  TRP X   3     -17.810  -7.807  37.489  1.00 29.85 LIG 0.07  C 
BRANCH 17 18
ATOM     18  CG  TRP X   3     -17.618  -7.362  38.914  1.00 29.58 LIG-0.03  A 
ATOM     19  CD1 TRP X   3     -17.212  -6.124  39.332  1.00 26.84 LIG 0.10  A 
ATOM     20  NE1 TRP X   3     -17.144  -6.098  40.701  1.00 29.47 LIG-0.36  N 
ATOM     21 HE1  TRP X   3     -16.905  -5.419  41.172  1.00 29.47 LIG 0.17  HD
ATOM     22  CE2 TRP X   3     -17.518  -7.323  41.205  1.00 27.62 LIG 0.04  A 
ATOM     23  CZ2 TRP X   3     -17.606  -7.782  42.554  1.00 28.85 LIG 0.03  A 
ATOM     24  CD2 TRP X   3     -17.823  -8.151  40.105  1.00 25.33 LIG-0.00  A 
ATOM     25  CH2 TRP X   3     -18.020  -9.104  42.765  1.00 28.18 LIG 0.00  A 
ATOM     26  CZ3 TRP X   3     -18.315  -9.946  41.678  1.00 26.79 LIG 0.00  A 
ATOM     27  CE3 TRP X   3     -18.205  -9.482  40.342  1.00 25.86 LIG 0.01  A 
ENDBRANCH 17 18
ENDBRANCH 6 17
ENDBRANCH 3 6
ENDBRANCH 1 2
BRANCH 1 28
ATOM     28  CB  ARG X   4     -19.653 -10.551  33.103  1.00 29.55 LIG 0.04  C 
BRANCH 28 29
ATOM     29  CG  ARG X   4     -20.604 -11.443  32.310  1.00 28.17 LIG 0.02  C 
BRANCH 29 30
ATOM     30  CD  ARG X   4     -20.249 -11.406  30.816  1.00 27.09 LIG 0.14  C 
BRANCH 30 31
ATOM     31  NE  ARG X   4     -20.604 -10.105  30.257  1.00 25.46 LIG-0.23  N 
ATOM     32 HE   ARG X   4     -19.972  -9.598  29.971  1.00 25.46 LIG 0.18  HD
ATOM     33  CZ  ARG X   4     -21.860  -9.662  30.169  1.00 27.27 LIG 0.67  C 
ATOM     34  NH2 ARG X   4     -22.123  -8.469  29.641  1.00 24.12 LIG-0.23  N 
ATOM     35  NH1 ARG X   4     -22.853 -10.419  30.629  1.00 21.32 LIG-0.23  N 
ATOM     36 1HH2 ARG X   4     -21.481  -7.975  29.354  1.00 24.12 LIG 0.17  HD
ATOM     37 2HH2 ARG X   4     -22.936  -8.193  29.588  1.00 24.12 LIG 0.17  HD
ATOM     38 2HH1 ARG X   4     -23.665 -10.142  30.576  1.00 21.32 LIG 0.17  HD
ATOM     39 1HH1 ARG X   4     -22.682 -11.186  30.979  1.00 21.32 LIG 0.17  HD
ENDBRANCH 30 31
ENDBRANCH 29 30
ENDBRANCH 28 29
ENDBRANCH 1 28
BRANCH 1 40
ATOM     40  C   ARG X   4     -19.040 -11.744  35.192  1.00 30.38 LIG 0.24  C 
ATOM     41 O    ARG X   4     -19.618 -12.697  35.687  1.00 31.87 LIG-0.27  OA
ATOM     42  N   PRO X   5     -17.702 -11.647  35.137  1.00 30.60 LIG-0.34  N 
ATOM     43  CA  PRO X   5     -16.843 -12.801  35.488  1.00 31.31 LIG 0.18  C 
ATOM     44  CD  PRO X   5     -16.923 -10.465  34.677  1.00 29.99 LIG 0.13  C 
ATOM     45  CB  PRO X   5     -15.480 -12.402  34.915  1.00 30.70 LIG 0.04  C 
ATOM     46  CG  PRO X   5     -15.483 -10.845  34.908  1.00 29.42 LIG 0.02  C 
BRANCH 43 47
ATOM     47  C   PRO X   5     -16.683 -13.168  36.990  1.00 32.23 LIG 0.24  C 
ATOM     48 O    PRO X   5     -16.298 -14.329  37.324  1.00 32.23 LIG-0.27  OA
ATOM     49  N   TRP X   6     -16.946 -12.212  37.876  1.00 33.50 LIG-0.34  N 
ATOM     50 H    TRP X   6     -17.284 -11.446  37.676  1.00 33.50 LIG 0.16  HD
BRANCH 49 51
ATOM     51  CA  TRP X   6     -16.667 -12.406  39.305  1.00 34.66 LIG 0.19  C 
BRANCH 51 52
ATOM     52  CB  TRP X   6     -17.478 -13.605  39.838  1.00 34.41 LIG 0.08  C 
BRANCH 52 53
ATOM     53  CG  TRP X   6     -18.422 -13.264  40.976  1.00 32.39 LIG-0.03  A 
ATOM     54  CD2 TRP X   6     -19.747 -12.696  40.875  1.00 31.68 LIG-0.00  A 
ATOM     55  CE2 TRP X   6     -20.230 -12.541  42.189  1.00 33.29 LIG 0.04  A 
ATOM     56  CE3 TRP X   6     -20.567 -12.319  39.804  1.00 33.66 LIG 0.01  A 
ATOM     57  CZ2 TRP X   6     -21.513 -12.046  42.463  1.00 33.18 LIG 0.03  A 
ATOM     58  NE1 TRP X   6     -19.257 -13.001  43.042  1.00 30.87 LIG-0.36  N 
ATOM     59  CH2 TRP X   6     -22.292 -11.688  41.410  1.00 32.36 LIG 0.00  A 
ATOM     60  CZ3 TRP X   6     -21.831 -11.802  40.080  1.00 32.37 LIG 0.00  A 
ATOM     61 HE1  TRP X   6     -19.315 -13.025  43.900  1.00 30.87 LIG 0.17  HD
ATOM     62  CD1 TRP X   6     -18.178 -13.416  42.307  1.00 30.01 LIG 0.10  A 
ENDBRANCH 52 53
ENDBRANCH 51 52
BRANCH 51 63
ATOM     63  C   TRP X   6     -15.165 -12.575  39.609  1.00 36.76 LIG 0.20  C 
ATOM     64 O    TRP X   6     -14.642 -12.367  40.718  1.00 37.86 LIG-0.65  OA
ATOM     65 OXT  TRP X   6     -14.380 -12.922  38.718  1.00 39.11 LIG-0.65  OA
ENDBRANCH 51 63
ENDBRANCH 49 51
ENDBRANCH 43 47
ENDBRANCH 1 40
TORSDOF 19
ENDMDL
MODEL 101
USER: ADFR SOLUTION from run 102
USER: SCORE 19.197603 LL:  -6.147 LR: -13.664 RR:   0.000 FEB:  -7.996
USER: RMSD 8.035490
USER: SEED 101
USER: STATUS no improvement in best in 4 clusters for 5 generations
USER: GENES 21
USER: genes 0 Translation |==|  0.62819 0.60173 0.43600
USER: genes 1 Rotation |==|  0.09902 0.76054 0.40279 0.60899
USER: genes 2 Torsion [CB]-CA--N-[C] |==|  0.86663
USER: genes 3 Torsion [N]-C--CA-[N] |==|  0.16111
USER: genes 4 Torsion [C]-CA--N-[C] |==|  0.59447
USER: genes 5 Torsion [N]-C--CA-[N] |==|  0.56251
USER: genes 6 Torsion [C]-CA--CB-[CG] |==|  0.78243
USER: genes 7 Torsion [CA]-CB--CG-[SD] |==|  0.31138
USER: genes 8 Torsion [CB]-CG--SD-[CE] |==|  0.14919
USER: genes 9 Torsion [C]-CA--CB-[CG] |==|  0.22305
USER: genes 10 Torsion [CA]-CB--CG-[CD2] |==|  0.13229
USER: genes 11 Torsion [N]-CA--CB-[CG] |==|  0.78101
USER: genes 12 Torsion [CA]-CB--CG-[CD] |==|  0.21472
USER: genes 13 Torsion [CB]-CG--CD-[NE] |==|  0.19595
USER: genes 14 Torsion [CG]-CD--NE-[CZ] |==|  0.29998
USER: genes 15 Torsion [N]-CA--C-[N] |==|  0.36438
USER: genes 16 Torsion [N]-CA--C-[O] |==|  0.59734
USER: genes 17 Torsion [C]-N--CA-[CB] |==|  0.27601
USER: genes 18 Torsion [N]-CA--CB-[CG] |==|  0.84878
USER: genes 19 Torsion [CA]-CB--CG-[CD2] |==|  0.27556
USER: genes 20 Torsion [N]-CA--C-[O] |==|  0.37818
ROOT
ATOM      1  CA  ARG X   4     -18.673 -10.492  37.494  1.00 29.51 LIG 0.18  C 
ENDROOT
BRANCH 1 2
ATOM      2  N   ARG X   4     -19.501 -10.492  38.697  1.00 29.26 LIG-0.35  N 
ATOM      3  C   TRP X   3     -18.994 -10.357  39.936  1.00 30.37 LIG 0.24  C 
ATOM      4 O    TRP X   3     -17.779 -10.186  40.170  1.00 30.38 LIG-0.27  OA
ATOM      5 H    ARG X   4     -20.341 -10.586  38.539  1.00 29.26 LIG 0.16  HD
BRANCH 3 6
ATOM      6  CA  TRP X   3     -20.009 -10.405  41.098  1.00 30.62 LIG 0.18  C 
BRANCH 6 7
ATOM      7  N   TRP X   3     -20.783 -11.658  41.119  1.00 31.45 LIG-0.34  N 
ATOM      8 H    TRP X   3     -20.361 -12.361  40.860  1.00 31.45 LIG 0.16  HD
ATOM      9  C   MET X   2     -22.050 -11.625  41.527  1.00 32.92 LIG 0.26  C 
ATOM     10 O    MET X   2     -22.568 -10.614  41.962  1.00 32.35 LIG-0.27  OA
BRANCH 9 11
ATOM     11  CA  MET X   2     -22.851 -12.897  41.484  1.00 34.28 LIG 0.40  C 
ATOM     12  N   MET X   2     -24.340 -12.619  41.440  1.00 35.36 LIG 0.61  N 
BRANCH 11 13
ATOM     13  CB  MET X   2     -22.431 -13.696  40.261  1.00 35.71 LIG 0.06  C 
BRANCH 13 14
ATOM     14  CG  MET X   2     -23.017 -13.211  38.963  1.00 37.62 LIG 0.08  C 
BRANCH 14 15
ATOM     15 SD   MET X   2     -21.885 -12.475  37.753  1.00 39.06 LIG-0.17  SA
ATOM     16  CE  MET X   2     -20.636 -13.791  37.595  1.00 45.88 LIG 0.09  C 
ENDBRANCH 14 15
ENDBRANCH 13 14
ENDBRANCH 11 13
ENDBRANCH 9 11
ENDBRANCH 6 7
BRANCH 6 17
ATOM     17  CB  TRP X   3     -19.326 -10.120  42.437  1.00 29.85 LIG 0.07  C 
BRANCH 17 18
ATOM     18  CG  TRP X   3     -19.110  -8.649  42.669  1.00 29.58 LIG-0.03  A 
ATOM     19  CD1 TRP X   3     -17.952  -8.053  43.089  1.00 26.84 LIG 0.10  A 
ATOM     20  NE1 TRP X   3     -18.140  -6.700  43.194  1.00 29.47 LIG-0.36  N 
ATOM     21 HE1  TRP X   3     -17.543  -6.134  43.447  1.00 29.47 LIG 0.17  HD
ATOM     22  CE2 TRP X   3     -19.430  -6.383  42.832  1.00 27.62 LIG 0.04  A 
ATOM     23  CZ2 TRP X   3     -20.095  -5.120  42.780  1.00 28.85 LIG 0.03  A 
ATOM     24  CD2 TRP X   3     -20.076  -7.591  42.494  1.00 25.33 LIG-0.00  A 
ATOM     25  CH2 TRP X   3     -21.434  -5.108  42.369  1.00 28.18 LIG 0.00  A 
ATOM     26  CZ3 TRP X   3     -22.096  -6.305  42.042  1.00 26.79 LIG 0.00  A 
ATOM     27  CE3 TRP X   3     -21.428  -7.555  42.117  1.00 25.86 LIG 0.01  A 
ENDBRANCH 17 18
ENDBRANCH 6 17
ENDBRANCH 3 6
ENDBRANCH 1 2
BRANCH 1 28
ATOM     28  CB  ARG X   4     -17.671  -9.319  37.494  1.00 29.55 LIG 0.04  C 
BRANCH 28 29
ATOM     29  CG  ARG X   4     -18.274  -7.973  37.099  1.00 28.17 LIG 0.02  C 
BRANCH 29 30
ATOM     30  CD  ARG X   4     -19.070  -7.382  38.272  1.00 27.09 LIG 0.14  C 
BRANCH 30 31
ATOM     31  NE  ARG X   4     -18.153  -6.955  39.325  1.00 25.46 LIG-0.23  N 
ATOM     32 HE   ARG X   4     -17.758  -7.560  39.791  1.00 25.46 LIG 0.18  HD
ATOM     33  CZ  ARG X   4     -17.898  -5.675  39.602  1.00 27.27 LIG 0.67  C 
ATOM     34  NH2 ARG X   4     -17.046  -5.347  40.569  1.00 24.12 LIG-0.23  N 
ATOM     35  NH1 ARG X   4     -18.519  -4.722  38.911  1.00 21.32 LIG-0.23  N 
ATOM     36 1HH2 ARG X   4     -16.653  -5.962  41.023  1.00 24.12 LIG 0.17  HD
ATOM     37 2HH2 ARG X   4     -16.887  -4.519  40.740  1.00 24.12 LIG 0.17  HD
ATOM     38 2HH1 ARG X   4     -18.361  -3.895  39.083  1.00 21.32 LIG 0.17  HD
ATOM     39 1HH1 ARG X   4     -19.078  -4.934  38.293  1.00 21.32 LIG 0.17  HD
ENDBRANCH 30 31
ENDBRANCH 29 30
ENDBRANCH 28 29
ENDBRANCH 1 28
BRANCH 1 40
ATOM     40  C   ARG X   4     -17.907 -11.790  37.465  1.00 30.38 LIG 0.24  C 
ATOM     41 O    ARG X   4     -17.298 -12.140  38.463  1.00 31.87 LIG-0.27  OA
ATOM     42  N   PRO X   5     -17.914 -12.498  36.325  1.00 30.60 LIG-0.34  N 
ATOM     43  CA  PRO X   5     -17.349 -13.866  36.279  1.00 31.31 LIG 0.18  C 
ATOM     44  CD  PRO X   5     -18.515 -12.076  35.031  1.00 29.99 LIG 0.13  C 
ATOM     45  CB  PRO X   5     -17.913 -14.427  34.970  1.00 30.70 LIG 0.04  C 
ATOM     46  CG  PRO X   5     -18.161 -13.181  34.069  1.00 29.42 LIG 0.02  C 
BRANCH 43 47
ATOM     47  C   PRO X   5     -15.803 -14.023  36.283  1.00 32.23 LIG 0.24  C 
ATOM     48 O    PRO X   5     -15.256 -14.957  35.623  1.00 32.23 LIG-0.27  OA
ATOM     49  N   TRP X   6     -15.108 -13.131  36.983  1.00 33.50 LIG-0.34  N 
ATOM     50 H    TRP X   6     -15.460 -12.541  37.501  1.00 33.50 LIG 0.16  HD
BRANCH 49 51
ATOM     51  CA  TRP X   6     -13.641 -13.093  36.917  1.00 34.66 LIG 0.19  C 
BRANCH 51 52
ATOM     52  CB  TRP X   6     -13.189 -11.981  35.948  1.00 34.41 LIG 0.08  C 
BRANCH 52 53
ATOM     53  CG  TRP X   6     -13.795 -12.077  34.560  1.00 32.39 LIG-0.03  A 
ATOM     54  CD2 TRP X   6     -14.923 -11.337  34.043  1.00 31.68 LIG-0.00  A 
ATOM     55  CE2 TRP X   6     -15.130 -11.773  32.719  1.00 33.29 LIG 0.04  A 
ATOM     56  CE3 TRP X   6     -15.762 -10.345  34.567  1.00 33.66 LIG 0.01  A 
ATOM     57  CZ2 TRP X   6     -16.130 -11.231  31.899  1.00 33.18 LIG 0.03  A 
ATOM     58  NE1 TRP X   6     -14.172 -12.718  32.443  1.00 30.87 LIG-0.36  N 
ATOM     59  CH2 TRP X   6     -16.932 -10.270  32.427  1.00 32.36 LIG 0.00  A 
ATOM     60  CZ3 TRP X   6     -16.772  -9.829  33.759  1.00 32.37 LIG 0.00  A 
ATOM     61 HE1  TRP X   6     -14.077 -13.129  31.693  1.00 30.87 LIG 0.17  HD
ATOM     62  CD1 TRP X   6     -13.391 -12.901  33.553  1.00 30.01 LIG 0.10  A 
ENDBRANCH 52 53
ENDBRANCH 51 52
BRANCH 51 63
ATOM     63  C   TRP X   6     -12.978 -12.926  38.299  1.00 36.76 LIG 0.20  C 
ATOM     64 O    TRP X   6     -11.986 -13.568  38.688  1.00 37.86 LIG-0.65  OA
ATOM     65 OXT  TRP X   6     -13.437 -12.124  39.121  1.00 39.11 LIG-0.65  OA
ENDBRANCH 51 63
ENDBRANCH 49 51
ENDBRANCH 43 47
ENDBRANCH 1 40
TORSDOF 19
ENDMDL
