MODEL 1
USER: ADFR SOLUTION from run 127
USER: SCORE 25.125879 LL:  -2.740 LR: -22.680 RR:   0.000 FEB: -16.416
USER: RMSD 1.569111
USER: SEED 126
USER: STATUS 1 or 2 clusters left
USER: GENES 23
USER: genes 0 Translation |==|  0.51317 0.54227 0.63792
USER: genes 1 Rotation |==|  0.55731 0.53901 0.49438 0.99514
USER: genes 2 Torsion [C]-CA--N-[C] |==|  0.62153
USER: genes 3 Torsion [N]-C--CA-[N] |==|  0.42802
USER: genes 4 Torsion [C]-CA--CB-[OG] |==|  0.21769
USER: genes 5 Torsion [CA]-CB--OG-[HG] |==|  0.35883
USER: genes 6 Torsion [C]-CA--N-[C] |==|  0.56476
USER: genes 7 Torsion [N]-C--CA-[N] |==|  0.46772
USER: genes 8 Torsion [C]-CA--N-[H1] |==|  0.31896
USER: genes 9 Torsion [N]-CA--C-[N] |==|  0.46382
USER: genes 10 Torsion [N]-CA--C-[N] |==|  0.41130
USER: genes 11 Torsion [C]-N--CA-[C] |==|  0.56092
USER: genes 12 Torsion [N]-CA--C-[O] |==|  0.41962
USER: genes 13 Torsion [N]-CA--CB-[CG] |==|  0.29795
USER: genes 14 Torsion [CA]-CB--CG-[CD] |==|  0.38809
USER: genes 15 Torsion [CB]-CG--CD-[CE] |==|  0.30399
USER: genes 16 Torsion [CG]-CD--CE-[NZ] |==|  0.45338
USER: genes 17 Torsion [CD]-CE--NZ-[HZ1] |==|  0.72833
USER: genes 18 Torsion [N]-CA--CB-[CG] |==|  0.10880
USER: genes 19 Torsion [CA]-CB--CG-[CD] |==|  0.51728
USER: genes 20 Torsion [CB]-CG--CD-[CE] |==|  0.14601
USER: genes 21 Torsion [CG]-CD--CE-[NZ] |==|  0.77546
USER: genes 22 Torsion [CD]-CE--NZ-[HZ2] |==|  0.37478
ROOT
ATOM      1  CA  LYS C   3      19.012  41.215  41.199  1.00 11.26 LIG 0.18  C 
ENDROOT
BRANCH 1 2
ATOM      2  N   LYS C   3      20.366  40.669  41.223  1.00 11.48 LIG-0.35  N 
ATOM      3 H    LYS C   3      20.511  40.051  40.643  1.00 11.48 LIG 0.16  HD
ATOM      4  C   SER C   2      21.278  41.112  42.084  1.00 14.83 LIG 0.24  C 
ATOM      5 O    SER C   2      21.046  41.996  42.906  1.00 15.12 LIG-0.27  OA
BRANCH 4 6
ATOM      6  CA  SER C   2      22.657  40.465  42.011  1.00 17.53 LIG 0.20  C 
BRANCH 6 7
ATOM      7  CB  SER C   2      22.675  39.185  42.848  1.00 18.77 LIG 0.20  C 
BRANCH 7 8
ATOM      8 OG   SER C   2      22.050  38.118  42.156  1.00 25.53 LIG-0.40  OA
ATOM      9 HG   SER C   2      22.557  37.448  42.157  1.00 25.53 LIG 0.21  HD
ENDBRANCH 7 8
ENDBRANCH 6 7
BRANCH 6 10
ATOM     10  N   SER C   2      23.654  41.401  42.515  1.00 20.39 LIG-0.34  N 
ATOM     11 H    SER C   2      23.341  42.000  43.048  1.00 20.39 LIG 0.16  HD
ATOM     12  C   ALA C   1      24.932  41.314  42.166  0.50 21.41 LIG 0.25  C 
ATOM     13 O    ALA C   1      25.362  40.446  41.406  0.50 21.88 LIG-0.27  OA
BRANCH 12 14
ATOM     14  CA  ALA C   1      25.864  42.361  42.763  0.50 22.33 LIG 0.27  C 
ATOM     15  CB  ALA C   1      25.567  43.726  42.159  0.50 23.34 LIG 0.05  C 
BRANCH 14 16
ATOM     16  N   ALA C   1      27.292  42.004  42.531  0.50 23.60 LIG-0.07  N 
ATOM     17 H1   ALA C   1      27.666  42.609  41.997  0.50 23.60 LIG 0.28  HD
ATOM     18 H2   ALA C   1      27.724  41.987  43.310  0.50 23.60 LIG 0.28  HD
ATOM     19 H3   ALA C   1      27.339  41.201  42.149  0.50 23.60 LIG 0.28  HD
ENDBRANCH 14 16
ENDBRANCH 12 14
ENDBRANCH 6 10
ENDBRANCH 4 6
ENDBRANCH 1 2
BRANCH 1 20
ATOM     20  C   LYS C   3      17.976  40.098  41.072  1.00 11.51 LIG 0.24  C 
ATOM     21 O    LYS C   3      18.320  38.954  40.789  1.00 12.69 LIG-0.27  OA
ATOM     22  N   PRO C   4      16.691  40.415  41.304  1.00 12.00 LIG-0.34  N 
ATOM     23  CA  PRO C   4      15.630  39.406  41.209  1.00 11.59 LIG 0.18  C 
ATOM     24  CD  PRO C   4      16.254  41.513  42.180  1.00 14.34 LIG 0.13  C 
ATOM     25  CB  PRO C   4      14.632  39.827  42.294  1.00 14.16 LIG 0.04  C 
ATOM     26  CG  PRO C   4      15.388  40.785  43.164  1.00 18.35 LIG 0.02  C 
BRANCH 23 27
ATOM     27  C   PRO C   4      14.919  39.293  39.871  1.00 10.16 LIG 0.24  C 
ATOM     28  N   LYS C   5      14.499  38.072  39.565  1.00 10.59 LIG-0.34  N 
ATOM     29 H    LYS C   5      14.647  37.381  40.056  1.00 10.59 LIG 0.16  HD
ATOM     30 O    PRO C   4      14.732  40.275  39.152  1.00 10.22 LIG-0.27  OA
BRANCH 28 31
ATOM     31  CA  LYS C   5      13.742  37.788  38.356  1.00 10.68 LIG 0.18  C 
BRANCH 31 32
ATOM     32  C   LYS C   5      12.978  36.486  38.584  1.00 10.68 LIG 0.20  C 
ATOM     33 O    LYS C   5      11.901  36.329  37.978  1.00 12.49 LIG-0.65  OA
ATOM     34 OXT  LYS C   5      13.473  35.634  39.358  1.00  9.63 LIG-0.65  OA
ENDBRANCH 31 32
BRANCH 31 35
ATOM     35  CB  LYS C   5      14.667  37.653  37.144  1.00 15.00 LIG 0.04  C 
BRANCH 35 36
ATOM     36  CG  LYS C   5      14.828  36.231  36.649  1.00 18.03 LIG 0.00  C 
BRANCH 36 37
ATOM     37  CD  LYS C   5      14.836  36.147  35.135  1.00 23.96 LIG 0.03  C 
BRANCH 37 38
ATOM     38  CE  LYS C   5      16.203  35.802  34.585  1.00 22.07 LIG 0.23  C 
BRANCH 38 39
ATOM     39  NZ  LYS C   5      16.091  35.338  33.176  1.00 25.25 LIG-0.08  N 
ATOM     40 HZ3  LYS C   5      16.782  35.646  32.707  1.00 25.25 LIG 0.27  HD
ATOM     41 HZ1  LYS C   5      16.091  34.449  33.156  1.00 25.25 LIG 0.27  HD
ATOM     42 HZ2  LYS C   5      15.334  35.643  32.822  1.00 25.25 LIG 0.27  HD
ENDBRANCH 38 39
ENDBRANCH 37 38
ENDBRANCH 36 37
ENDBRANCH 35 36
ENDBRANCH 31 35
ENDBRANCH 28 31
ENDBRANCH 23 27
ENDBRANCH 1 20
BRANCH 1 43
ATOM     43  CB  LYS C   3      18.867  42.197  40.037  1.00 13.47 LIG 0.04  C 
BRANCH 43 44
ATOM     44  CG  LYS C   3      19.580  41.761  38.763  1.00 17.41 LIG 0.00  C 
BRANCH 44 45
ATOM     45  CD  LYS C   3      19.532  42.839  37.692  1.00 21.64 LIG 0.03  C 
BRANCH 45 46
ATOM     46  CE  LYS C   3      20.028  44.184  38.197  1.00 23.65 LIG 0.23  C 
BRANCH 46 47
ATOM     47  NZ  LYS C   3      19.016  44.954  38.970  1.00 25.13 LIG-0.08  N 
ATOM     48 HZ1  LYS C   3      18.346  44.416  39.200  1.00 25.13 LIG 0.27  HD
ATOM     49 HZ2  LYS C   3      19.394  45.287  39.704  1.00 25.13 LIG 0.27  HD
ATOM     50 HZ3  LYS C   3      18.703  45.619  38.469  1.00 25.13 LIG 0.27  HD
ENDBRANCH 46 47
ENDBRANCH 45 46
ENDBRANCH 44 45
ENDBRANCH 43 44
ENDBRANCH 1 43
TORSDOF 21
ENDMDL
MODEL 2
USER: ADFR SOLUTION from run 181
USER: SCORE 23.770119 LL:  -4.137 LR: -19.849 RR:   0.000 FEB: -13.585
USER: RMSD 6.137686
USER: SEED 180
USER: STATUS no improvement in best in 4 clusters for 5 generations
USER: GENES 23
USER: genes 0 Translation |==|  0.63775 0.54061 0.71382
USER: genes 1 Rotation |==|  0.07703 0.34607 0.34277 0.65060
USER: genes 2 Torsion [C]-CA--N-[C] |==|  0.82983
USER: genes 3 Torsion [N]-C--CA-[N] |==|  0.20626
USER: genes 4 Torsion [C]-CA--CB-[OG] |==|  0.61778
USER: genes 5 Torsion [CA]-CB--OG-[HG] |==|  0.64486
USER: genes 6 Torsion [C]-CA--N-[C] |==|  0.77047
USER: genes 7 Torsion [N]-C--CA-[N] |==|  0.40668
USER: genes 8 Torsion [C]-CA--N-[H1] |==|  0.61728
USER: genes 9 Torsion [N]-CA--C-[N] |==|  0.37242
USER: genes 10 Torsion [N]-CA--C-[N] |==|  0.41881
USER: genes 11 Torsion [C]-N--CA-[C] |==|  0.61358
USER: genes 12 Torsion [N]-CA--C-[O] |==|  0.79350
USER: genes 13 Torsion [N]-CA--CB-[CG] |==|  0.18390
USER: genes 14 Torsion [CA]-CB--CG-[CD] |==|  0.79591
USER: genes 15 Torsion [CB]-CG--CD-[CE] |==|  0.45065
USER: genes 16 Torsion [CG]-CD--CE-[NZ] |==|  0.90791
USER: genes 17 Torsion [CD]-CE--NZ-[HZ1] |==|  0.92487
USER: genes 18 Torsion [N]-CA--CB-[CG] |==|  0.90823
USER: genes 19 Torsion [CA]-CB--CG-[CD] |==|  0.75698
USER: genes 20 Torsion [CB]-CG--CD-[CE] |==|  0.56881
USER: genes 21 Torsion [CG]-CD--CE-[NZ] |==|  0.39996
USER: genes 22 Torsion [CD]-CE--NZ-[HZ2] |==|  0.92223
ROOT
ATOM      1  CA  LYS C   3      21.815  41.185  42.736  1.00 11.26 LIG 0.18  C 
ENDROOT
BRANCH 1 2
ATOM      2  N   LYS C   3      22.421  42.173  43.623  1.00 11.48 LIG-0.35  N 
ATOM      3 H    LYS C   3      22.669  41.863  44.386  1.00 11.48 LIG 0.16  HD
ATOM      4  C   SER C   2      22.564  43.443  43.253  1.00 14.83 LIG 0.24  C 
ATOM      5 O    SER C   2      22.200  43.864  42.157  1.00 15.12 LIG-0.27  OA
BRANCH 4 6
ATOM      6  CA  SER C   2      23.213  44.380  44.266  1.00 17.53 LIG 0.20  C 
BRANCH 6 7
ATOM      7  CB  SER C   2      22.974  45.834  43.856  1.00 18.77 LIG 0.20  C 
BRANCH 7 8
ATOM      8 OG   SER C   2      24.148  46.609  44.029  1.00 25.53 LIG-0.40  OA
ATOM      9 HG   SER C   2      23.968  47.291  44.485  1.00 25.53 LIG 0.21  HD
ENDBRANCH 7 8
ENDBRANCH 6 7
BRANCH 6 10
ATOM     10  N   SER C   2      24.645  44.110  44.321  1.00 20.39 LIG-0.34  N 
ATOM     11 H    SER C   2      25.124  44.640  43.842  1.00 20.39 LIG 0.16  HD
ATOM     12  C   ALA C   1      25.140  43.122  45.057  0.50 21.41 LIG 0.25  C 
ATOM     13 O    ALA C   1      24.437  42.377  45.740  0.50 21.88 LIG-0.27  OA
BRANCH 12 14
ATOM     14  CA  ALA C   1      26.654  42.949  45.017  0.50 22.33 LIG 0.27  C 
ATOM     15  CB  ALA C   1      27.035  41.965  43.920  0.50 23.34 LIG 0.05  C 
BRANCH 14 16
ATOM     16  N   ALA C   1      27.174  42.473  46.329  0.50 23.60 LIG-0.07  N 
ATOM     17 H1   ALA C   1      27.921  42.914  46.529  0.50 23.60 LIG 0.28  HD
ATOM     18 H2   ALA C   1      26.565  42.619  46.961  0.50 23.60 LIG 0.28  HD
ATOM     19 H3   ALA C   1      27.348  41.601  46.281  0.50 23.60 LIG 0.28  HD
ENDBRANCH 14 16
ENDBRANCH 12 14
ENDBRANCH 6 10
ENDBRANCH 4 6
ENDBRANCH 1 2
BRANCH 1 20
ATOM     20  C   LYS C   3      20.373  41.565  42.400  1.00 11.51 LIG 0.24  C 
ATOM     21 O    LYS C   3      19.607  41.950  43.278  1.00 12.69 LIG-0.27  OA
ATOM     22  N   PRO C   4      19.993  41.482  41.114  1.00 12.00 LIG-0.34  N 
ATOM     23  CA  PRO C   4      18.630  41.830  40.700  1.00 11.59 LIG 0.18  C 
ATOM     24  CD  PRO C   4      20.908  41.615  39.970  1.00 14.34 LIG 0.13  C 
ATOM     25  CB  PRO C   4      18.819  42.443  39.308  1.00 14.16 LIG 0.04  C 
ATOM     26  CG  PRO C   4      20.283  42.751  39.217  1.00 18.35 LIG 0.02  C 
BRANCH 23 27
ATOM     27  C   PRO C   4      17.629  40.688  40.629  1.00 10.16 LIG 0.24  C 
ATOM     28  N   LYS C   5      16.369  41.037  40.858  1.00 10.59 LIG-0.34  N 
ATOM     29 H    LYS C   5      16.127  41.834  41.072  1.00 10.59 LIG 0.16  HD
ATOM     30 O    PRO C   4      17.977  39.540  40.351  1.00 10.22 LIG-0.27  OA
BRANCH 28 31
ATOM     31  CA  LYS C   5      15.270  40.090  40.767  1.00 10.68 LIG 0.18  C 
BRANCH 31 32
ATOM     32  C   LYS C   5      14.103  40.799  40.085  1.00 10.68 LIG 0.20  C 
ATOM     33 O    LYS C   5      13.464  41.640  40.747  1.00 12.49 LIG-0.65  OA
ATOM     34 OXT  LYS C   5      13.848  40.512  38.892  1.00  9.63 LIG-0.65  OA
ENDBRANCH 31 32
BRANCH 31 35
ATOM     35  CB  LYS C   5      14.850  39.594  42.153  1.00 15.00 LIG 0.04  C 
BRANCH 35 36
ATOM     36  CG  LYS C   5      14.246  40.669  43.033  1.00 18.03 LIG 0.00  C 
BRANCH 36 37
ATOM     37  CD  LYS C   5      15.289  41.640  43.550  1.00 23.96 LIG 0.03  C 
BRANCH 37 38
ATOM     38  CE  LYS C   5      14.675  42.929  44.054  1.00 22.07 LIG 0.23  C 
BRANCH 38 39
ATOM     39  NZ  LYS C   5      13.466  43.270  43.257  1.00 25.25 LIG-0.08  N 
ATOM     40 HZ3  LYS C   5      13.391  44.155  43.196  1.00 25.25 LIG 0.27  HD
ATOM     41 HZ1  LYS C   5      13.540  42.922  42.442  1.00 25.25 LIG 0.27  HD
ATOM     42 HZ2  LYS C   5      12.744  42.939  43.657  1.00 25.25 LIG 0.27  HD
ENDBRANCH 38 39
ENDBRANCH 37 38
ENDBRANCH 36 37
ENDBRANCH 35 36
ENDBRANCH 31 35
ENDBRANCH 28 31
ENDBRANCH 23 27
ENDBRANCH 1 20
BRANCH 1 43
ATOM     43  CB  LYS C   3      21.854  39.804  43.390  1.00 13.47 LIG 0.04  C 
BRANCH 43 44
ATOM     44  CG  LYS C   3      23.072  39.570  44.275  1.00 17.41 LIG 0.00  C 
BRANCH 44 45
ATOM     45  CD  LYS C   3      24.252  39.035  43.480  1.00 21.64 LIG 0.03  C 
BRANCH 45 46
ATOM     46  CE  LYS C   3      25.226  38.248  44.343  1.00 23.65 LIG 0.23  C 
BRANCH 46 47
ATOM     47  NZ  LYS C   3      25.841  37.081  43.656  1.00 25.13 LIG-0.08  N 
ATOM     48 HZ1  LYS C   3      25.998  36.436  44.249  1.00 25.13 LIG 0.27  HD
ATOM     49 HZ2  LYS C   3      25.285  36.778  43.030  1.00 25.13 LIG 0.27  HD
ATOM     50 HZ3  LYS C   3      26.608  37.329  43.278  1.00 25.13 LIG 0.27  HD
ENDBRANCH 46 47
ENDBRANCH 45 46
ENDBRANCH 44 45
ENDBRANCH 43 44
ENDBRANCH 1 43
TORSDOF 21
ENDMDL
MODEL 3
USER: ADFR SOLUTION from run 7
USER: SCORE 23.658278 LL:  -4.188 LR: -19.727 RR:   0.000 FEB: -13.462
USER: RMSD 6.071309
USER: SEED 391359
USER: STATUS 1 or 2 clusters left
USER: GENES 23
USER: genes 0 Translation |==|  0.64030 0.54121 0.71066
USER: genes 1 Rotation |==|  0.07659 0.34576 0.34899 0.65533
USER: genes 2 Torsion [C]-CA--N-[C] |==|  0.83864
USER: genes 3 Torsion [N]-C--CA-[N] |==|  0.18889
USER: genes 4 Torsion [C]-CA--CB-[OG] |==|  0.60512
USER: genes 5 Torsion [CA]-CB--OG-[HG] |==|  0.70733
USER: genes 6 Torsion [C]-CA--N-[C] |==|  0.77563
USER: genes 7 Torsion [N]-C--CA-[N] |==|  0.39916
USER: genes 8 Torsion [C]-CA--N-[H1] |==|  0.63002
USER: genes 9 Torsion [N]-CA--C-[N] |==|  0.37052
USER: genes 10 Torsion [N]-CA--C-[N] |==|  0.43735
USER: genes 11 Torsion [C]-N--CA-[C] |==|  0.59934
USER: genes 12 Torsion [N]-CA--C-[O] |==|  0.79571
USER: genes 13 Torsion [N]-CA--CB-[CG] |==|  0.17739
USER: genes 14 Torsion [CA]-CB--CG-[CD] |==|  0.79347
USER: genes 15 Torsion [CB]-CG--CD-[CE] |==|  0.38304
USER: genes 16 Torsion [CG]-CD--CE-[NZ] |==|  0.03564
USER: genes 17 Torsion [CD]-CE--NZ-[HZ1] |==|  0.15852
USER: genes 18 Torsion [N]-CA--CB-[CG] |==|  0.74974
USER: genes 19 Torsion [CA]-CB--CG-[CD] |==|  0.30580
USER: genes 20 Torsion [CB]-CG--CD-[CE] |==|  0.55637
USER: genes 21 Torsion [CG]-CD--CE-[NZ] |==|  0.75949
USER: genes 22 Torsion [CD]-CE--NZ-[HZ2] |==|  0.41906
ROOT
ATOM      1  CA  LYS C   3      21.873  41.196  42.672  1.00 11.26 LIG 0.18  C 
ENDROOT
BRANCH 1 2
ATOM      2  N   LYS C   3      22.488  42.186  43.550  1.00 11.48 LIG-0.35  N 
ATOM      3 H    LYS C   3      22.800  41.866  44.285  1.00 11.48 LIG 0.16  HD
ATOM      4  C   SER C   2      22.548  43.471  43.213  1.00 14.83 LIG 0.24  C 
ATOM      5 O    SER C   2      22.094  43.906  42.156  1.00 15.12 LIG-0.27  OA
BRANCH 4 6
ATOM      6  CA  SER C   2      23.218  44.409  44.211  1.00 17.53 LIG 0.20  C 
BRANCH 6 7
ATOM      7  CB  SER C   2      23.015  45.861  43.776  1.00 18.77 LIG 0.20  C 
BRANCH 7 8
ATOM      8 OG   SER C   2      24.174  46.634  44.037  1.00 25.53 LIG-0.40  OA
ATOM      9 HG   SER C   2      24.038  47.127  44.704  1.00 25.53 LIG 0.21  HD
ENDBRANCH 7 8
ENDBRANCH 6 7
BRANCH 6 10
ATOM     10  N   SER C   2      24.642  44.105  44.274  1.00 20.39 LIG-0.34  N 
ATOM     11 H    SER C   2      25.138  44.630  43.808  1.00 20.39 LIG 0.16  HD
ATOM     12  C   ALA C   1      25.108  43.094  45.000  0.50 21.41 LIG 0.25  C 
ATOM     13 O    ALA C   1      24.382  42.356  45.666  0.50 21.88 LIG-0.27  OA
BRANCH 12 14
ATOM     14  CA  ALA C   1      26.617  42.887  44.970  0.50 22.33 LIG 0.27  C 
ATOM     15  CB  ALA C   1      26.979  41.861  43.906  0.50 23.34 LIG 0.05  C 
BRANCH 14 16
ATOM     16  N   ALA C   1      27.124  42.441  46.299  0.50 23.60 LIG-0.07  N 
ATOM     17 H1   ALA C   1      27.842  42.919  46.517  0.50 23.60 LIG 0.28  HD
ATOM     18 H2   ALA C   1      26.490  42.560  46.913  0.50 23.60 LIG 0.28  HD
ATOM     19 H3   ALA C   1      27.341  41.579  46.260  0.50 23.60 LIG 0.28  HD
ENDBRANCH 14 16
ENDBRANCH 12 14
ENDBRANCH 6 10
ENDBRANCH 4 6
ENDBRANCH 1 2
BRANCH 1 20
ATOM     20  C   LYS C   3      20.417  41.558  42.378  1.00 11.51 LIG 0.24  C 
ATOM     21 O    LYS C   3      19.666  41.914  43.281  1.00 12.69 LIG-0.27  OA
ATOM     22  N   PRO C   4      20.007  41.492  41.100  1.00 12.00 LIG-0.34  N 
ATOM     23  CA  PRO C   4      18.628  41.825  40.726  1.00 11.59 LIG 0.18  C 
ATOM     24  CD  PRO C   4      20.891  41.662  39.937  1.00 14.34 LIG 0.13  C 
ATOM     25  CB  PRO C   4      18.774  42.467  39.341  1.00 14.16 LIG 0.04  C 
ATOM     26  CG  PRO C   4      20.230  42.802  39.222  1.00 18.35 LIG 0.02  C 
BRANCH 23 27
ATOM     27  C   PRO C   4      17.645  40.669  40.657  1.00 10.16 LIG 0.24  C 
ATOM     28  N   LYS C   5      16.370  41.014  40.785  1.00 10.59 LIG-0.34  N 
ATOM     29 H    LYS C   5      16.108  41.818  40.937  1.00 10.59 LIG 0.16  HD
ATOM     30 O    PRO C   4      18.020  39.511  40.468  1.00 10.22 LIG-0.27  OA
BRANCH 28 31
ATOM     31  CA  LYS C   5      15.287  40.049  40.679  1.00 10.68 LIG 0.18  C 
BRANCH 31 32
ATOM     32  C   LYS C   5      14.112  40.745  39.998  1.00 10.68 LIG 0.20  C 
ATOM     33 O    LYS C   5      13.465  41.579  40.661  1.00 12.49 LIG-0.65  OA
ATOM     34 OXT  LYS C   5      13.859  40.454  38.806  1.00  9.63 LIG-0.65  OA
ENDBRANCH 31 32
BRANCH 31 35
ATOM     35  CB  LYS C   5      14.869  39.533  42.058  1.00 15.00 LIG 0.04  C 
BRANCH 35 36
ATOM     36  CG  LYS C   5      14.294  40.600  42.965  1.00 18.03 LIG 0.00  C 
BRANCH 36 37
ATOM     37  CD  LYS C   5      15.363  41.527  43.511  1.00 23.96 LIG 0.03  C 
BRANCH 37 38
ATOM     38  CE  LYS C   5      14.929  42.977  43.498  1.00 22.07 LIG 0.23  C 
BRANCH 38 39
ATOM     39  NZ  LYS C   5      13.466  43.075  43.244  1.00 25.25 LIG-0.08  N 
ATOM     40 HZ3  LYS C   5      13.282  42.746  42.438  1.00 25.25 LIG 0.27  HD
ATOM     41 HZ1  LYS C   5      13.026  42.609  43.862  1.00 25.25 LIG 0.27  HD
ATOM     42 HZ2  LYS C   5      13.215  43.928  43.281  1.00 25.25 LIG 0.27  HD
ENDBRANCH 38 39
ENDBRANCH 37 38
ENDBRANCH 36 37
ENDBRANCH 35 36
ENDBRANCH 31 35
ENDBRANCH 28 31
ENDBRANCH 23 27
ENDBRANCH 1 20
BRANCH 1 43
ATOM     43  CB  LYS C   3      21.948  39.811  43.314  1.00 13.47 LIG 0.04  C 
BRANCH 43 44
ATOM     44  CG  LYS C   3      23.206  39.029  42.958  1.00 17.41 LIG 0.00  C 
BRANCH 44 45
ATOM     45  CD  LYS C   3      24.140  38.890  44.150  1.00 21.64 LIG 0.03  C 
BRANCH 45 46
ATOM     46  CE  LYS C   3      25.569  38.573  43.737  1.00 23.65 LIG 0.23  C 
BRANCH 46 47
ATOM     47  NZ  LYS C   3      25.841  37.122  43.556  1.00 25.13 LIG-0.08  N 
ATOM     48 HZ1  LYS C   3      25.101  36.712  43.281  1.00 25.13 LIG 0.27  HD
ATOM     49 HZ2  LYS C   3      26.482  37.013  42.948  1.00 25.13 LIG 0.27  HD
ATOM     50 HZ3  LYS C   3      26.103  36.770  44.331  1.00 25.13 LIG 0.27  HD
ENDBRANCH 46 47
ENDBRANCH 45 46
ENDBRANCH 44 45
ENDBRANCH 43 44
ENDBRANCH 1 43
TORSDOF 21
ENDMDL
MODEL 4
USER: ADFR SOLUTION from run 74
USER: SCORE 23.565247 LL:  -4.452 LR: -19.382 RR:   0.000 FEB: -13.117
USER: RMSD 6.021212
USER: SEED 73
USER: STATUS 1 or 2 clusters left
USER: GENES 23
USER: genes 0 Translation |==|  0.63799 0.54084 0.71530
USER: genes 1 Rotation |==|  0.07724 0.34259 0.34233 0.64709
USER: genes 2 Torsion [C]-CA--N-[C] |==|  0.80904
USER: genes 3 Torsion [N]-C--CA-[N] |==|  0.23284
USER: genes 4 Torsion [C]-CA--CB-[OG] |==|  0.61116
USER: genes 5 Torsion [CA]-CB--OG-[HG] |==|  0.65765
USER: genes 6 Torsion [C]-CA--N-[C] |==|  0.75014
USER: genes 7 Torsion [N]-C--CA-[N] |==|  0.44836
USER: genes 8 Torsion [C]-CA--N-[H1] |==|  0.98289
USER: genes 9 Torsion [N]-CA--C-[N] |==|  0.36474
USER: genes 10 Torsion [N]-CA--C-[N] |==|  0.43237
USER: genes 11 Torsion [C]-N--CA-[C] |==|  0.58737
USER: genes 12 Torsion [N]-CA--C-[O] |==|  0.29880
USER: genes 13 Torsion [N]-CA--CB-[CG] |==|  0.06061
USER: genes 14 Torsion [CA]-CB--CG-[CD] |==|  0.25748
USER: genes 15 Torsion [CB]-CG--CD-[CE] |==|  0.68582
USER: genes 16 Torsion [CG]-CD--CE-[NZ] |==|  0.36673
USER: genes 17 Torsion [CD]-CE--NZ-[HZ1] |==|  0.87592
USER: genes 18 Torsion [N]-CA--CB-[CG] |==|  0.72568
USER: genes 19 Torsion [CA]-CB--CG-[CD] |==|  0.19602
USER: genes 20 Torsion [CB]-CG--CD-[CE] |==|  0.33596
USER: genes 21 Torsion [CG]-CD--CE-[NZ] |==|  0.22779
USER: genes 22 Torsion [CD]-CE--NZ-[HZ2] |==|  0.54195
ROOT
ATOM      1  CA  LYS C   3      21.821  41.189  42.766  1.00 11.26 LIG 0.18  C 
ENDROOT
BRANCH 1 2
ATOM      2  N   LYS C   3      22.410  42.195  43.644  1.00 11.48 LIG-0.35  N 
ATOM      3 H    LYS C   3      22.559  41.925  44.446  1.00 11.48 LIG 0.16  HD
ATOM      4  C   SER C   2      22.683  43.422  43.209  1.00 14.83 LIG 0.24  C 
ATOM      5 O    SER C   2      22.459  43.787  42.056  1.00 15.12 LIG-0.27  OA
BRANCH 4 6
ATOM      6  CA  SER C   2      23.300  44.383  44.219  1.00 17.53 LIG 0.20  C 
BRANCH 6 7
ATOM      7  CB  SER C   2      23.002  45.827  43.810  1.00 18.77 LIG 0.20  C 
BRANCH 7 8
ATOM      8 OG   SER C   2      24.129  46.658  44.030  1.00 25.53 LIG-0.40  OA
ATOM      9 HG   SER C   2      23.914  47.293  44.537  1.00 25.53 LIG 0.21  HD
ENDBRANCH 7 8
ENDBRANCH 6 7
BRANCH 6 10
ATOM     10  N   SER C   2      24.741  44.169  44.267  1.00 20.39 LIG-0.34  N 
ATOM     11 H    SER C   2      25.190  44.650  43.713  1.00 20.39 LIG 0.16  HD
ATOM     12  C   ALA C   1      25.289  43.298  45.106  0.50 21.41 LIG 0.25  C 
ATOM     13 O    ALA C   1      24.629  42.622  45.897  0.50 21.88 LIG-0.27  OA
BRANCH 12 14
ATOM     14  CA  ALA C   1      26.806  43.171  45.046  0.50 22.33 LIG 0.27  C 
ATOM     15  CB  ALA C   1      27.211  42.354  43.828  0.50 23.34 LIG 0.05  C 
BRANCH 14 16
ATOM     16  N   ALA C   1      27.341  42.536  46.284  0.50 23.60 LIG-0.07  N 
ATOM     17 H1   ALA C   1      26.681  42.428  46.871  0.50 23.60 LIG 0.28  HD
ATOM     18 H2   ALA C   1      27.692  41.743  46.083  0.50 23.60 LIG 0.28  HD
ATOM     19 H3   ALA C   1      27.970  43.058  46.637  0.50 23.60 LIG 0.28  HD
ENDBRANCH 14 16
ENDBRANCH 12 14
ENDBRANCH 6 10
ENDBRANCH 4 6
ENDBRANCH 1 2
BRANCH 1 20
ATOM     20  C   LYS C   3      20.379  41.553  42.409  1.00 11.51 LIG 0.24  C 
ATOM     21 O    LYS C   3      19.587  41.898  43.281  1.00 12.69 LIG-0.27  OA
ATOM     22  N   PRO C   4      20.029  41.502  41.113  1.00 12.00 LIG-0.34  N 
ATOM     23  CA  PRO C   4      18.669  41.839  40.680  1.00 11.59 LIG 0.18  C 
ATOM     24  CD  PRO C   4      20.966  41.687  39.995  1.00 14.34 LIG 0.13  C 
ATOM     25  CB  PRO C   4      18.877  42.497  39.311  1.00 14.16 LIG 0.04  C 
ATOM     26  CG  PRO C   4      20.336  42.834  39.262  1.00 18.35 LIG 0.02  C 
BRANCH 23 27
ATOM     27  C   PRO C   4      17.691  40.682  40.552  1.00 10.16 LIG 0.24  C 
ATOM     28  N   LYS C   5      16.412  41.019  40.663  1.00 10.59 LIG-0.34  N 
ATOM     29 H    LYS C   5      16.144  41.818  40.835  1.00 10.59 LIG 0.16  HD
ATOM     30 O    PRO C   4      18.074  39.532  40.335  1.00 10.22 LIG-0.27  OA
BRANCH 28 31
ATOM     31  CA  LYS C   5      15.336  40.056  40.502  1.00 10.68 LIG 0.18  C 
BRANCH 31 32
ATOM     32  C   LYS C   5      14.136  40.795  39.917  1.00 10.68 LIG 0.20  C 
ATOM     33 O    LYS C   5      13.841  40.579  38.726  1.00 12.49 LIG-0.65  OA
ATOM     34 OXT  LYS C   5      13.498  41.575  40.662  1.00  9.63 LIG-0.65  OA
ENDBRANCH 31 32
BRANCH 31 35
ATOM     35  CB  LYS C   5      14.961  39.416  41.841  1.00 15.00 LIG 0.04  C 
BRANCH 35 36
ATOM     36  CG  LYS C   5      15.363  40.237  43.048  1.00 18.03 LIG 0.00  C 
BRANCH 36 37
ATOM     37  CD  LYS C   5      14.251  41.159  43.512  1.00 23.96 LIG 0.03  C 
BRANCH 37 38
ATOM     38  CE  LYS C   5      14.595  42.619  43.315  1.00 22.07 LIG 0.23  C 
BRANCH 38 39
ATOM     39  NZ  LYS C   5      13.466  43.332  42.659  1.00 25.25 LIG-0.08  N 
ATOM     40 HZ3  LYS C   5      13.750  44.116  42.349  1.00 25.25 LIG 0.27  HD
ATOM     41 HZ1  LYS C   5      13.157  42.840  41.984  1.00 25.25 LIG 0.27  HD
ATOM     42 HZ2  LYS C   5      12.815  43.465  43.251  1.00 25.25 LIG 0.27  HD
ENDBRANCH 38 39
ENDBRANCH 37 38
ENDBRANCH 36 37
ENDBRANCH 35 36
ENDBRANCH 31 35
ENDBRANCH 28 31
ENDBRANCH 23 27
ENDBRANCH 1 20
BRANCH 1 43
ATOM     43  CB  LYS C   3      21.862  39.819  43.442  1.00 13.47 LIG 0.04  C 
BRANCH 43 44
ATOM     44  CG  LYS C   3      23.021  38.939  42.990  1.00 17.41 LIG 0.00  C 
BRANCH 44 45
ATOM     45  CD  LYS C   3      24.355  39.455  43.504  1.00 21.64 LIG 0.03  C 
BRANCH 45 46
ATOM     46  CE  LYS C   3      25.082  38.434  44.365  1.00 23.65 LIG 0.23  C 
BRANCH 46 47
ATOM     47  NZ  LYS C   3      25.841  37.416  43.591  1.00 25.13 LIG-0.08  N 
ATOM     48 HZ1  LYS C   3      26.584  37.782  43.266  1.00 25.13 LIG 0.27  HD
ATOM     49 HZ2  LYS C   3      26.055  36.736  44.124  1.00 25.13 LIG 0.27  HD
ATOM     50 HZ3  LYS C   3      25.339  37.119  42.919  1.00 25.13 LIG 0.27  HD
ENDBRANCH 46 47
ENDBRANCH 45 46
ENDBRANCH 44 45
ENDBRANCH 43 44
ENDBRANCH 1 43
TORSDOF 21
ENDMDL
MODEL 5
USER: ADFR SOLUTION from run 130
USER: SCORE 23.537548 LL:  -4.287 LR: -19.469 RR:   0.000 FEB: -13.205
USER: RMSD 6.056225
USER: SEED 129
USER: STATUS 1 or 2 clusters left
USER: GENES 23
USER: genes 0 Translation |==|  0.64816 0.53316 0.70147
USER: genes 1 Rotation |==|  0.08064 0.35372 0.35587 0.67878
USER: genes 2 Torsion [C]-CA--N-[C] |==|  0.83334
USER: genes 3 Torsion [N]-C--CA-[N] |==|  0.21052
USER: genes 4 Torsion [C]-CA--CB-[OG] |==|  0.60985
USER: genes 5 Torsion [CA]-CB--OG-[HG] |==|  0.60111
USER: genes 6 Torsion [C]-CA--N-[C] |==|  0.76294
USER: genes 7 Torsion [N]-C--CA-[N] |==|  0.45105
USER: genes 8 Torsion [C]-CA--N-[H1] |==|  0.39725
USER: genes 9 Torsion [N]-CA--C-[N] |==|  0.36362
USER: genes 10 Torsion [N]-CA--C-[N] |==|  0.46047
USER: genes 11 Torsion [C]-N--CA-[C] |==|  0.57709
USER: genes 12 Torsion [N]-CA--C-[O] |==|  0.80971
USER: genes 13 Torsion [N]-CA--CB-[CG] |==|  0.06975
USER: genes 14 Torsion [CA]-CB--CG-[CD] |==|  0.24156
USER: genes 15 Torsion [CB]-CG--CD-[CE] |==|  0.67625
USER: genes 16 Torsion [CG]-CD--CE-[NZ] |==|  0.37592
USER: genes 17 Torsion [CD]-CE--NZ-[HZ1] |==|  0.93451
USER: genes 18 Torsion [N]-CA--CB-[CG] |==|  0.80234
USER: genes 19 Torsion [CA]-CB--CG-[CD] |==|  0.29750
USER: genes 20 Torsion [CB]-CG--CD-[CE] |==|  0.51029
USER: genes 21 Torsion [CG]-CD--CE-[NZ] |==|  0.82270
USER: genes 22 Torsion [CD]-CE--NZ-[HZ2] |==|  0.03958
ROOT
ATOM      1  CA  LYS C   3      22.049  41.051  42.486  1.00 11.26 LIG 0.18  C 
ENDROOT
BRANCH 1 2
ATOM      2  N   LYS C   3      22.702  41.973  43.409  1.00 11.48 LIG-0.35  N 
ATOM      3 H    LYS C   3      23.037  41.601  44.108  1.00 11.48 LIG 0.16  HD
ATOM      4  C   SER C   2      22.759  43.279  43.162  1.00 14.83 LIG 0.24  C 
ATOM      5 O    SER C   2      22.271  43.790  42.156  1.00 15.12 LIG-0.27  OA
BRANCH 4 6
ATOM      6  CA  SER C   2      23.470  44.140  44.201  1.00 17.53 LIG 0.20  C 
BRANCH 6 7
ATOM      7  CB  SER C   2      23.105  45.611  43.993  1.00 18.77 LIG 0.20  C 
BRANCH 7 8
ATOM      8 OG   SER C   2      24.233  46.445  44.190  1.00 25.53 LIG-0.40  OA
ATOM      9 HG   SER C   2      23.992  47.161  44.559  1.00 25.53 LIG 0.21  HD
ENDBRANCH 7 8
ENDBRANCH 6 7
BRANCH 6 10
ATOM     10  N   SER C   2      24.910  43.964  44.065  1.00 20.39 LIG-0.34  N 
ATOM     11 H    SER C   2      25.296  44.553  43.572  1.00 20.39 LIG 0.16  HD
ATOM     12  C   ALA C   1      25.550  42.966  44.665  0.50 21.41 LIG 0.25  C 
ATOM     13 O    ALA C   1      24.981  42.133  45.372  0.50 21.88 LIG-0.27  OA
BRANCH 12 14
ATOM     14  CA  ALA C   1      27.055  42.897  44.433  0.50 22.33 LIG 0.27  C 
ATOM     15  CB  ALA C   1      27.341  42.361  43.038  0.50 23.34 LIG 0.05  C 
BRANCH 14 16
ATOM     16  N   ALA C   1      27.716  42.037  45.454  0.50 23.60 LIG-0.07  N 
ATOM     17 H1   ALA C   1      28.378  41.580  45.073  0.50 23.60 LIG 0.28  HD
ATOM     18 H2   ALA C   1      28.044  42.548  46.105  0.50 23.60 LIG 0.28  HD
ATOM     19 H3   ALA C   1      27.121  41.469  45.794  0.50 23.60 LIG 0.28  HD
ENDBRANCH 14 16
ENDBRANCH 12 14
ENDBRANCH 6 10
ENDBRANCH 4 6
ENDBRANCH 1 2
BRANCH 1 20
ATOM     20  C   LYS C   3      20.575  41.411  42.306  1.00 11.51 LIG 0.24  C 
ATOM     21 O    LYS C   3      19.862  41.632  43.281  1.00 12.69 LIG-0.27  OA
ATOM     22  N   PRO C   4      20.105  41.497  41.051  1.00 12.00 LIG-0.34  N 
ATOM     23  CA  PRO C   4      18.704  41.841  40.785  1.00 11.59 LIG 0.18  C 
ATOM     24  CD  PRO C   4      20.929  41.835  39.880  1.00 14.34 LIG 0.13  C 
ATOM     25  CB  PRO C   4      18.771  42.656  39.489  1.00 14.16 LIG 0.04  C 
ATOM     26  CG  PRO C   4      20.213  43.039  39.346  1.00 18.35 LIG 0.02  C 
BRANCH 23 27
ATOM     27  C   PRO C   4      17.740  40.679  40.614  1.00 10.16 LIG 0.24  C 
ATOM     28  N   LYS C   5      16.456  41.007  40.672  1.00 10.59 LIG-0.34  N 
ATOM     29 H    LYS C   5      16.175  41.804  40.834  1.00 10.59 LIG 0.16  HD
ATOM     30 O    PRO C   4      18.139  39.531  40.411  1.00 10.22 LIG-0.27  OA
BRANCH 28 31
ATOM     31  CA  LYS C   5      15.393  40.037  40.464  1.00 10.68 LIG 0.18  C 
BRANCH 31 32
ATOM     32  C   LYS C   5      14.181  40.787  39.918  1.00 10.68 LIG 0.20  C 
ATOM     33 O    LYS C   5      13.593  41.579  40.680  1.00 12.49 LIG-0.65  OA
ATOM     34 OXT  LYS C   5      13.841  40.581  38.730  1.00  9.63 LIG-0.65  OA
ENDBRANCH 31 32
BRANCH 31 35
ATOM     35  CB  LYS C   5      15.029  39.326  41.771  1.00 15.00 LIG 0.04  C 
BRANCH 35 36
ATOM     36  CG  LYS C   5      15.350  40.127  43.015  1.00 18.03 LIG 0.00  C 
BRANCH 36 37
ATOM     37  CD  LYS C   5      14.221  41.062  43.403  1.00 23.96 LIG 0.03  C 
BRANCH 37 38
ATOM     38  CE  LYS C   5      14.629  42.517  43.331  1.00 22.07 LIG 0.23  C 
BRANCH 38 39
ATOM     39  NZ  LYS C   5      13.568  43.319  42.664  1.00 25.25 LIG-0.08  N 
ATOM     40 HZ3  LYS C   5      13.944  43.955  42.168  1.00 25.25 LIG 0.27  HD
ATOM     41 HZ1  LYS C   5      13.078  42.789  42.145  1.00 25.25 LIG 0.27  HD
ATOM     42 HZ2  LYS C   5      13.048  43.694  43.281  1.00 25.25 LIG 0.27  HD
ENDBRANCH 38 39
ENDBRANCH 37 38
ENDBRANCH 36 37
ENDBRANCH 35 36
ENDBRANCH 31 35
ENDBRANCH 28 31
ENDBRANCH 23 27
ENDBRANCH 1 20
BRANCH 1 43
ATOM     43  CB  LYS C   3      22.179  39.618  43.002  1.00 13.47 LIG 0.04  C 
BRANCH 43 44
ATOM     44  CG  LYS C   3      23.589  39.049  42.906  1.00 17.41 LIG 0.00  C 
BRANCH 44 45
ATOM     45  CD  LYS C   3      24.251  38.951  44.271  1.00 21.64 LIG 0.03  C 
BRANCH 45 46
ATOM     46  CE  LYS C   3      25.691  38.470  44.187  1.00 23.65 LIG 0.23  C 
BRANCH 46 47
ATOM     47  NZ  LYS C   3      25.841  37.088  43.658  1.00 25.13 LIG-0.08  N 
ATOM     48 HZ1  LYS C   3      26.043  36.535  44.325  1.00 25.13 LIG 0.27  HD
ATOM     49 HZ2  LYS C   3      25.077  36.830  43.281  1.00 25.13 LIG 0.27  HD
ATOM     50 HZ3  LYS C   3      26.493  37.071  43.052  1.00 25.13 LIG 0.27  HD
ENDBRANCH 46 47
ENDBRANCH 45 46
ENDBRANCH 44 45
ENDBRANCH 43 44
ENDBRANCH 1 43
TORSDOF 21
ENDMDL
