MODEL 1
USER: ADFR SOLUTION from run 18
USER: SCORE 29.955351 LL:  -3.427 LR: -27.309 RR:   0.000 FEB: -19.254
USER: RMSD 3.414451
USER: SEED 17
USER: STATUS searching
USER: GENES 29
USER: genes 0 Translation |==|  0.47203 0.38305 0.51403
USER: genes 1 Rotation |==|  0.39209 0.50853 0.57111 0.98293
USER: genes 2 Torsion [C]-CA--N-[C] |==|  0.76667
USER: genes 3 Torsion [N]-C--CA-[N] |==|  0.30853
USER: genes 4 Torsion [C]-CA--CB-[CG] |==|  0.62065
USER: genes 5 Torsion [CA]-CB--CG-[CD] |==|  0.36339
USER: genes 6 Torsion [CB]-CG--CD-[NE] |==|  0.54323
USER: genes 7 Torsion [CG]-CD--NE-[HE] |==|  0.60527
USER: genes 8 Torsion [C]-CA--N-[C] |==|  0.72717
USER: genes 9 Torsion [N]-C--CA-[N] |==|  0.43282
USER: genes 10 Torsion [C]-CA--N-[C] |==|  0.78042
USER: genes 11 Torsion [N]-C--CA-[N] |==|  0.11427
USER: genes 12 Torsion [C]-CA--CB-[CG] |==|  0.27577
USER: genes 13 Torsion [CA]-CB--CG-[CD2] |==|  0.60449
USER: genes 14 Torsion [N]-CA--C-[N] |==|  0.30874
USER: genes 15 Torsion [C]-N--CA-[C] |==|  0.64417
USER: genes 16 Torsion [N]-CA--C-[N] |==|  0.51659
USER: genes 17 Torsion [C]-N--CA-[C] |==|  0.75432
USER: genes 18 Torsion [N]-CA--C-[O] |==|  0.36126
USER: genes 19 Torsion [N]-CA--CB-[CG] |==|  0.56823
USER: genes 20 Torsion [CA]-CB--CG-[CD] |==|  0.18883
USER: genes 21 Torsion [CB]-CG--CD-[NE] |==|  0.02464
USER: genes 22 Torsion [CG]-CD--NE-[CZ] |==|  0.35757
USER: genes 23 Torsion [N]-CA--CB-[CG] |==|  0.06836
USER: genes 24 Torsion [CA]-CB--CG-[CD1] |==|  0.27323
USER: genes 25 Torsion [N]-CA--CB-[CG] |==|  0.59166
USER: genes 26 Torsion [CA]-CB--CG-[CD] |==|  0.69782
USER: genes 27 Torsion [CB]-CG--CD-[NE] |==|  0.53446
USER: genes 28 Torsion [CG]-CD--NE-[HE] |==|  0.00524
ROOT
ATOM      1  CA  ARG X 129       1.620  11.687  -6.860  1.00 23.09 LIG 0.18  C 
ENDROOT
BRANCH 1 2
ATOM      2  N   ARG X 129       2.669  12.355  -7.620  1.00 20.82 LIG-0.35  N 
ATOM      3  C   ARG X 128       3.273  11.847  -8.695  1.00 20.67 LIG 0.24  C 
ATOM      4 O    ARG X 128       3.035  10.708  -9.173  1.00 18.99 LIG-0.27  OA
ATOM      5 H    ARG X 129       2.868  13.130  -7.304  1.00 20.82 LIG 0.16  HD
BRANCH 3 6
ATOM      6  CA  ARG X 128       4.305  12.757  -9.358  1.00 21.45 LIG 0.18  C 
BRANCH 6 7
ATOM      7  CB  ARG X 128       4.052  12.865 -10.851  1.00 22.98 LIG 0.04  C 
BRANCH 7 8
ATOM      8  CG  ARG X 128       5.373  12.762 -11.639  1.00 26.06 LIG 0.02  C 
BRANCH 8 9
ATOM      9  CD  ARG X 128       5.400  11.741 -12.857  1.00 28.46 LIG 0.14  C 
BRANCH 9 10
ATOM     10  NE  ARG X 128       6.629  11.281 -13.488  1.00 34.87 LIG-0.23  N 
ATOM     11 HE   ARG X 128       6.613  11.179 -14.342  1.00 34.87 LIG 0.18  HD
ATOM     12  CZ  ARG X 128       7.782  11.002 -12.866  1.00 35.06 LIG 0.67  C 
ATOM     13  NH1 ARG X 128       7.909  11.062 -11.554  1.00 38.28 LIG-0.23  N 
ATOM     14  NH2 ARG X 128       8.807  10.620 -13.574  1.00 41.06 LIG-0.23  N 
ATOM     15 1HH1 ARG X 128       7.238  11.287 -11.066  1.00 38.28 LIG 0.17  HD
ATOM     16 2HH1 ARG X 128       8.664  10.876 -11.185  1.00 38.28 LIG 0.17  HD
ATOM     17 1HH2 ARG X 128       8.737  10.551 -14.429  1.00 41.06 LIG 0.17  HD
ATOM     18 2HH2 ARG X 128       9.553  10.437 -13.188  1.00 41.06 LIG 0.17  HD
ENDBRANCH 9 10
ENDBRANCH 8 9
ENDBRANCH 7 8
ENDBRANCH 6 7
BRANCH 6 19
ATOM     19  N   ARG X 128       5.636  12.242  -9.182  1.00 22.62 LIG-0.35  N 
ATOM     20 H    ARG X 128       5.852  11.626  -9.741  1.00 22.62 LIG 0.16  HD
ATOM     21  C   ALA X 127       6.446  12.691  -8.232  1.00 23.78 LIG 0.24  C 
ATOM     22 O    ALA X 127       6.151  13.616  -7.479  1.00 22.39 LIG-0.27  OA
BRANCH 21 23
ATOM     23  CA  ALA X 127       7.857  12.081  -8.206  1.00 25.08 LIG 0.17  C 
ATOM     24  CB  ALA X 127       7.882  10.715  -7.533  1.00 24.37 LIG 0.04  C 
BRANCH 23 25
ATOM     25  N   ALA X 127       8.737  13.040  -7.549  1.00 27.78 LIG-0.35  N 
ATOM     26  C   LEU X 126       9.148  14.064  -8.298  1.00 33.19 LIG 0.26  C 
ATOM     27 O    LEU X 126       8.743  14.261  -9.486  1.00 34.96 LIG-0.27  OA
ATOM     28 H    ALA X 127       8.936  12.890  -6.726  1.00 27.78 LIG 0.16  HD
BRANCH 26 29
ATOM     29  CA  LEU X 126      10.143  15.000  -7.678  1.00 34.21 LIG 0.40  C 
ATOM     30  N   LEU X 126      11.170  14.270  -6.907  1.00 36.42 LIG 0.61  N 
BRANCH 29 31
ATOM     31  CB  LEU X 126      10.782  15.825  -8.815  1.00 35.53 LIG 0.06  C 
BRANCH 31 32
ATOM     32  CG  LEU X 126      10.206  17.233  -9.015  1.00 35.00 LIG-0.02  C 
ATOM     33  CD2 LEU X 126      10.151  17.559 -10.530  1.00 38.18 LIG 0.01  C 
ATOM     34  CD1 LEU X 126      11.021  18.263  -8.301  1.00 36.44 LIG 0.01  C 
ENDBRANCH 31 32
ENDBRANCH 29 31
ENDBRANCH 26 29
ENDBRANCH 23 25
ENDBRANCH 21 23
ENDBRANCH 6 19
ENDBRANCH 3 6
ENDBRANCH 1 2
BRANCH 1 35
ATOM     35  C   ARG X 129       0.214  11.898  -7.485  1.00 22.72 LIG 0.24  C 
ATOM     36  N   LEU X 130      -0.446  10.875  -8.054  1.00 24.32 LIG-0.35  N 
ATOM     37 H    LEU X 130      -0.113  10.096  -8.203  1.00 24.32 LIG 0.16  HD
ATOM     38 O    ARG X 129      -0.283  13.023  -7.428  1.00 21.19 LIG-0.27  OA
BRANCH 36 39
ATOM     39  CA  LEU X 130      -1.858  11.054  -8.474  1.00 26.11 LIG 0.18  C 
BRANCH 39 40
ATOM     40  C   LEU X 130      -2.749   9.968  -7.919  1.00 29.66 LIG 0.24  C 
ATOM     41 O    LEU X 130      -2.277   9.117  -7.149  1.00 28.98 LIG-0.27  OA
ATOM     42  N   ARG X 131      -4.013   9.957  -8.330  1.00 30.67 LIG-0.34  N 
ATOM     43 H    ARG X 131      -4.373  10.579  -8.803  1.00 30.67 LIG 0.16  HD
BRANCH 42 44
ATOM     44  CA  ARG X 131      -4.901   8.863  -7.997  1.00 33.89 LIG 0.18  C 
BRANCH 44 45
ATOM     45  C   ARG X 131      -4.833   7.737  -9.031  1.00 35.66 LIG 0.20  C 
ATOM     46 OXT  ARG X 131      -4.958   7.956 -10.256  1.00 35.07 LIG-0.65  OA
ATOM     47 O    ARG X 131      -4.669   6.532  -8.675  1.00 37.10 LIG-0.65  OA
ENDBRANCH 44 45
BRANCH 44 48
ATOM     48  CB  ARG X 131      -6.336   9.388  -7.887  1.00 35.20 LIG 0.04  C 
BRANCH 48 49
ATOM     49  CG  ARG X 131      -7.246   8.525  -6.993  1.00 40.01 LIG 0.02  C 
BRANCH 49 50
ATOM     50  CD  ARG X 131      -6.870   8.561  -5.487  1.00 47.84 LIG 0.14  C 
BRANCH 50 51
ATOM     51  NE  ARG X 131      -5.854   9.580  -5.229  1.00 52.72 LIG-0.23  N 
ATOM     52  CZ  ARG X 131      -5.934  10.528  -4.292  1.00 57.07 LIG 0.67  C 
ATOM     53  NH1 ARG X 131      -6.991  10.596  -3.466  1.00 58.64 LIG-0.23  N 
ATOM     54  NH2 ARG X 131      -4.940  11.412  -4.172  1.00 59.02 LIG-0.23  N 
ATOM     55 2HH1 ARG X 131      -7.031  11.211  -2.867  1.00 58.64 LIG 0.17  HD
ATOM     56 1HH1 ARG X 131      -7.629  10.023  -3.536  1.00 58.64 LIG 0.17  HD
ATOM     57 2HH2 ARG X 131      -4.981  12.027  -3.572  1.00 59.02 LIG 0.17  HD
ATOM     58 1HH2 ARG X 131      -4.259  11.366  -4.694  1.00 59.02 LIG 0.17  HD
ATOM     59 HE   ARG X 131      -5.148   9.568  -5.720  1.00 52.72 LIG 0.18  HD
ENDBRANCH 50 51
ENDBRANCH 49 50
ENDBRANCH 48 49
ENDBRANCH 44 48
ENDBRANCH 42 44
ENDBRANCH 39 40
BRANCH 39 60
ATOM     60  CB  LEU X 130      -2.039  11.053  -9.994  1.00 27.29 LIG 0.04  C 
BRANCH 60 61
ATOM     61  CG  LEU X 130      -1.035  10.358 -10.899  1.00 26.34 LIG-0.02  C 
ATOM     62  CD1 LEU X 130      -1.499   8.930 -11.337  1.00 29.54 LIG 0.01  C 
ATOM     63  CD2 LEU X 130      -0.820  11.217 -12.102  1.00 21.56 LIG 0.01  C 
ENDBRANCH 60 61
ENDBRANCH 39 60
ENDBRANCH 36 39
ENDBRANCH 1 35
BRANCH 1 64
ATOM     64  CB  ARG X 129       1.691  12.407  -5.495  1.00 24.17 LIG 0.04  C 
BRANCH 64 65
ATOM     65  CG  ARG X 129       1.379  11.629  -4.294  1.00 28.32 LIG 0.02  C 
BRANCH 65 66
ATOM     66  CD  ARG X 129       0.060  11.987  -3.636  1.00 31.43 LIG 0.14  C 
BRANCH 66 67
ATOM     67  NE  ARG X 129      -0.156  11.439  -2.289  1.00 29.42 LIG-0.23  N 
ATOM     68  CZ  ARG X 129      -1.255  11.605  -1.561  1.00 30.66 LIG 0.67  C 
ATOM     69  NH1 ARG X 129      -2.244  12.393  -1.974  1.00 33.32 LIG-0.23  N 
ATOM     70  NH2 ARG X 129      -1.351  11.000  -0.371  1.00 29.67 LIG-0.23  N 
ATOM     71 2HH1 ARG X 129      -2.949  12.489  -1.491  1.00 33.32 LIG 0.17  HD
ATOM     72 1HH1 ARG X 129      -2.179  12.806  -2.725  1.00 33.32 LIG 0.17  HD
ATOM     73 2HH2 ARG X 129      -2.059  11.102   0.107  1.00 29.67 LIG 0.17  HD
ATOM     74 1HH2 ARG X 129      -0.706  10.509  -0.084  1.00 29.67 LIG 0.17  HD
ATOM     75 HE   ARG X 129       0.479  10.973  -1.944  1.00 29.42 LIG 0.18  HD
ENDBRANCH 66 67
ENDBRANCH 65 66
ENDBRANCH 64 65
ENDBRANCH 1 64
TORSDOF 27
ENDMDL
MODEL 2
USER: ADFR SOLUTION from run 54
USER: SCORE 29.767486 LL:  -3.509 LR: -27.214 RR:   0.000 FEB: -19.160
USER: RMSD 11.265761
USER: SEED 53
USER: STATUS no improvement in best in 21 clusters for 5 generations
USER: GENES 29
USER: genes 0 Translation |==|  0.45668 0.40862 0.47128
USER: genes 1 Rotation |==|  0.48358 0.32033 0.96620 0.51046
USER: genes 2 Torsion [C]-CA--N-[C] |==|  0.62421
USER: genes 3 Torsion [N]-C--CA-[N] |==|  0.81147
USER: genes 4 Torsion [C]-CA--CB-[CG] |==|  0.32783
USER: genes 5 Torsion [CA]-CB--CG-[CD] |==|  0.82346
USER: genes 6 Torsion [CB]-CG--CD-[NE] |==|  0.73455
USER: genes 7 Torsion [CG]-CD--NE-[HE] |==|  0.11755
USER: genes 8 Torsion [C]-CA--N-[C] |==|  0.62001
USER: genes 9 Torsion [N]-C--CA-[N] |==|  0.40790
USER: genes 10 Torsion [C]-CA--N-[C] |==|  0.80383
USER: genes 11 Torsion [N]-C--CA-[N] |==|  0.72163
USER: genes 12 Torsion [C]-CA--CB-[CG] |==|  0.28103
USER: genes 13 Torsion [CA]-CB--CG-[CD2] |==|  0.21146
USER: genes 14 Torsion [N]-CA--C-[N] |==|  0.36721
USER: genes 15 Torsion [C]-N--CA-[C] |==|  0.59403
USER: genes 16 Torsion [N]-CA--C-[N] |==|  0.42923
USER: genes 17 Torsion [C]-N--CA-[C] |==|  0.62434
USER: genes 18 Torsion [N]-CA--C-[O] |==|  0.93676
USER: genes 19 Torsion [N]-CA--CB-[CG] |==|  0.96349
USER: genes 20 Torsion [CA]-CB--CG-[CD] |==|  0.69896
USER: genes 21 Torsion [CB]-CG--CD-[NE] |==|  0.24066
USER: genes 22 Torsion [CG]-CD--NE-[CZ] |==|  0.52679
USER: genes 23 Torsion [N]-CA--CB-[CG] |==|  0.16604
USER: genes 24 Torsion [CA]-CB--CG-[CD1] |==|  0.26088
USER: genes 25 Torsion [N]-CA--CB-[CG] |==|  0.68067
USER: genes 26 Torsion [CA]-CB--CG-[CD] |==|  0.28479
USER: genes 27 Torsion [CB]-CG--CD-[NE] |==|  0.49298
USER: genes 28 Torsion [CG]-CD--NE-[HE] |==|  0.00576
ROOT
ATOM      1  CA  ARG X 129       1.194  12.109  -7.822  1.00 23.09 LIG 0.18  C 
ENDROOT
BRANCH 1 2
ATOM      2  N   ARG X 129      -0.034  12.038  -8.604  1.00 20.82 LIG-0.35  N 
ATOM      3  C   ARG X 128      -0.989  12.969  -8.608  1.00 20.67 LIG 0.24  C 
ATOM      4 O    ARG X 128      -0.966  14.016  -7.911  1.00 18.99 LIG-0.27  OA
ATOM      5 H    ARG X 129      -0.089  11.322  -9.075  1.00 20.82 LIG 0.16  HD
BRANCH 3 6
ATOM      6  CA  ARG X 128      -2.161  12.700  -9.551  1.00 21.45 LIG 0.18  C 
BRANCH 6 7
ATOM      7  CB  ARG X 128      -2.727  11.309  -9.327  1.00 22.98 LIG 0.04  C 
BRANCH 7 8
ATOM      8  CG  ARG X 128      -4.196  11.384  -8.864  1.00 26.06 LIG 0.02  C 
BRANCH 8 9
ATOM      9  CD  ARG X 128      -4.469  12.089  -7.466  1.00 28.46 LIG 0.14  C 
BRANCH 9 10
ATOM     10  NE  ARG X 128      -4.599  11.359  -6.214  1.00 34.87 LIG-0.23  N 
ATOM     11 HE   ARG X 128      -4.042  10.717  -6.077  1.00 34.87 LIG 0.18  HD
ATOM     12  CZ  ARG X 128      -5.503  11.589  -5.253  1.00 35.06 LIG 0.67  C 
ATOM     13  NH1 ARG X 128      -6.446  12.504  -5.375  1.00 38.28 LIG-0.23  N 
ATOM     14  NH2 ARG X 128      -5.479  10.861  -4.173  1.00 41.06 LIG-0.23  N 
ATOM     15 1HH1 ARG X 128      -6.495  12.978  -6.091  1.00 38.28 LIG 0.17  HD
ATOM     16 2HH1 ARG X 128      -7.012  12.627  -4.739  1.00 38.28 LIG 0.17  HD
ATOM     17 1HH2 ARG X 128      -4.888  10.242  -4.084  1.00 41.06 LIG 0.17  HD
ATOM     18 2HH2 ARG X 128      -6.054  10.998  -3.548  1.00 41.06 LIG 0.17  HD
ENDBRANCH 9 10
ENDBRANCH 8 9
ENDBRANCH 7 8
ENDBRANCH 6 7
BRANCH 6 19
ATOM     19  N   ARG X 128      -1.746  12.781 -10.926  1.00 22.62 LIG-0.35  N 
ATOM     20 H    ARG X 128      -0.994  12.397 -11.090  1.00 22.62 LIG 0.16  HD
ATOM     21  C   ALA X 127      -2.473  13.399 -11.847  1.00 23.78 LIG 0.24  C 
ATOM     22 O    ALA X 127      -3.576  13.888 -11.615  1.00 22.39 LIG-0.27  OA
BRANCH 21 23
ATOM     23  CA  ALA X 127      -1.923  13.352 -13.282  1.00 25.08 LIG 0.17  C 
ATOM     24  CB  ALA X 127      -0.984  14.514 -13.578  1.00 24.37 LIG 0.04  C 
BRANCH 23 25
ATOM     25  N   ALA X 127      -3.065  13.316 -14.188  1.00 27.78 LIG-0.35  N 
ATOM     26  C   LEU X 126      -3.765  12.182 -14.200  1.00 33.19 LIG 0.26  C 
ATOM     27 O    LEU X 126      -3.524  11.210 -13.418  1.00 34.96 LIG-0.27  OA
ATOM     28 H    ALA X 127      -3.218  14.022 -14.655  1.00 27.78 LIG 0.16  HD
BRANCH 26 29
ATOM     29  CA  LEU X 126      -4.874  12.081 -15.206  1.00 34.21 LIG 0.40  C 
ATOM     30  N   LEU X 126      -6.191  12.343 -14.591  1.00 36.42 LIG 0.61  N 
BRANCH 29 31
ATOM     31  CB  LEU X 126      -4.576  13.090 -16.335  1.00 35.53 LIG 0.06  C 
BRANCH 31 32
ATOM     32  CG  LEU X 126      -3.979  12.492 -17.616  1.00 35.00 LIG-0.02  C 
ATOM     33  CD2 LEU X 126      -5.094  11.777 -18.422  1.00 38.18 LIG 0.01  C 
ATOM     34  CD1 LEU X 126      -2.877  11.531 -17.308  1.00 36.44 LIG 0.01  C 
ENDBRANCH 31 32
ENDBRANCH 29 31
ENDBRANCH 26 29
ENDBRANCH 23 25
ENDBRANCH 21 23
ENDBRANCH 6 19
ENDBRANCH 3 6
ENDBRANCH 1 2
BRANCH 1 35
ATOM     35  C   ARG X 129       2.444  11.705  -8.650  1.00 22.72 LIG 0.24  C 
ATOM     36  N   LEU X 130       3.552  12.464  -8.636  1.00 24.32 LIG-0.35  N 
ATOM     37 H    LEU X 130       3.613  13.242  -8.275  1.00 24.32 LIG 0.16  HD
ATOM     38 O    ARG X 129       2.394  10.663  -9.304  1.00 21.19 LIG-0.27  OA
BRANCH 36 39
ATOM     39  CA  LEU X 130       4.792  11.964  -9.280  1.00 26.11 LIG 0.18  C 
BRANCH 39 40
ATOM     40  C   LEU X 130       6.030  12.427  -8.547  1.00 29.66 LIG 0.24  C 
ATOM     41 O    LEU X 130       6.003  13.487  -7.902  1.00 28.98 LIG-0.27  OA
ATOM     42  N   ARG X 131       7.119  11.675  -8.670  1.00 30.67 LIG-0.34  N 
ATOM     43 H    ARG X 131       7.134  10.904  -9.051  1.00 30.67 LIG 0.16  HD
BRANCH 42 44
ATOM     44  CA  ARG X 131       8.398  12.118  -8.155  1.00 33.89 LIG 0.18  C 
BRANCH 44 45
ATOM     45  C   ARG X 131       9.532  11.877  -9.153  1.00 35.66 LIG 0.20  C 
ATOM     46 OXT  ARG X 131      10.588  12.546  -9.127  1.00 35.07 LIG-0.65  OA
ATOM     47 O    ARG X 131       9.428  11.001 -10.062  1.00 37.10 LIG-0.65  OA
ENDBRANCH 44 45
BRANCH 44 48
ATOM     48  CB  ARG X 131       8.695  11.391  -6.839  1.00 35.20 LIG 0.04  C 
BRANCH 48 49
ATOM     49  CG  ARG X 131       7.477  10.657  -6.246  1.00 40.01 LIG 0.02  C 
BRANCH 49 50
ATOM     50  CD  ARG X 131       6.894  11.325  -4.973  1.00 47.84 LIG 0.14  C 
BRANCH 50 51
ATOM     51  NE  ARG X 131       5.922  12.360  -5.327  1.00 52.72 LIG-0.23  N 
ATOM     52  CZ  ARG X 131       5.383  13.235  -4.474  1.00 57.07 LIG 0.67  C 
ATOM     53  NH1 ARG X 131       5.734  13.242  -3.178  1.00 58.64 LIG-0.23  N 
ATOM     54  NH2 ARG X 131       4.491  14.120  -4.926  1.00 59.02 LIG-0.23  N 
ATOM     55 2HH1 ARG X 131       5.380  13.811  -2.639  1.00 58.64 LIG 0.17  HD
ATOM     56 1HH1 ARG X 131       6.314  12.678  -2.886  1.00 58.64 LIG 0.17  HD
ATOM     57 2HH2 ARG X 131       4.137  14.688  -4.386  1.00 59.02 LIG 0.17  HD
ATOM     58 1HH2 ARG X 131       4.270  14.122  -5.757  1.00 59.02 LIG 0.17  HD
ATOM     59 HE   ARG X 131       5.678  12.408  -6.150  1.00 52.72 LIG 0.18  HD
ENDBRANCH 50 51
ENDBRANCH 49 50
ENDBRANCH 48 49
ENDBRANCH 44 48
ENDBRANCH 42 44
ENDBRANCH 39 40
BRANCH 39 60
ATOM     60  CB  LEU X 130       4.938  12.413 -10.737  1.00 27.29 LIG 0.04  C 
BRANCH 60 61
ATOM     61  CG  LEU X 130       4.991  13.889 -11.096  1.00 26.34 LIG-0.02  C 
ATOM     62  CD1 LEU X 130       6.451  14.438 -11.197  1.00 29.54 LIG 0.01  C 
ATOM     63  CD2 LEU X 130       4.284  14.076 -12.399  1.00 21.56 LIG 0.01  C 
ENDBRANCH 60 61
ENDBRANCH 39 60
ENDBRANCH 36 39
ENDBRANCH 1 35
BRANCH 1 64
ATOM     64  CB  ARG X 129       0.944  11.058  -6.717  1.00 24.17 LIG 0.04  C 
BRANCH 64 65
ATOM     65  CG  ARG X 129       0.844  11.529  -5.335  1.00 28.32 LIG 0.02  C 
BRANCH 65 66
ATOM     66  CD  ARG X 129      -0.572  11.609  -4.796  1.00 31.43 LIG 0.14  C 
BRANCH 66 67
ATOM     67  NE  ARG X 129      -0.704  12.024  -3.392  1.00 29.42 LIG-0.23  N 
ATOM     68  CZ  ARG X 129      -1.849  12.117  -2.724  1.00 30.66 LIG 0.67  C 
ATOM     69  NH1 ARG X 129      -3.018  11.928  -3.330  1.00 33.32 LIG-0.23  N 
ATOM     70  NH2 ARG X 129      -1.827  12.447  -1.427  1.00 29.67 LIG-0.23  N 
ATOM     71 2HH1 ARG X 129      -3.750  11.993  -2.884  1.00 33.32 LIG 0.17  HD
ATOM     72 1HH1 ARG X 129      -3.042  11.742  -4.169  1.00 33.32 LIG 0.17  HD
ATOM     73 2HH2 ARG X 129      -2.563  12.510  -0.988  1.00 29.67 LIG 0.17  HD
ATOM     74 1HH2 ARG X 129      -1.077  12.596  -1.034  1.00 29.67 LIG 0.17  HD
ATOM     75 HE   ARG X 129       0.018  12.222  -2.968  1.00 29.42 LIG 0.18  HD
ENDBRANCH 66 67
ENDBRANCH 65 66
ENDBRANCH 64 65
ENDBRANCH 1 64
TORSDOF 27
ENDMDL
MODEL 3
USER: ADFR SOLUTION from run 98
USER: SCORE 29.223416 LL:  -3.546 LR: -26.714 RR:   0.000 FEB: -18.660
USER: RMSD 11.913525
USER: SEED 97
USER: STATUS no improvement in best in 10 clusters for 5 generations
USER: GENES 29
USER: genes 0 Translation |==|  0.45859 0.38568 0.48697
USER: genes 1 Rotation |==|  0.46875 0.60451 0.01869 0.58023
USER: genes 2 Torsion [C]-CA--N-[C] |==|  0.61621
USER: genes 3 Torsion [N]-C--CA-[N] |==|  0.42429
USER: genes 4 Torsion [C]-CA--CB-[CG] |==|  0.96291
USER: genes 5 Torsion [CA]-CB--CG-[CD] |==|  0.67215
USER: genes 6 Torsion [CB]-CG--CD-[NE] |==|  0.19806
USER: genes 7 Torsion [CG]-CD--NE-[HE] |==|  0.18546
USER: genes 8 Torsion [C]-CA--N-[C] |==|  0.70563
USER: genes 9 Torsion [N]-C--CA-[N] |==|  0.62854
USER: genes 10 Torsion [C]-CA--N-[C] |==|  0.60963
USER: genes 11 Torsion [N]-C--CA-[N] |==|  0.20874
USER: genes 12 Torsion [C]-CA--CB-[CG] |==|  0.43171
USER: genes 13 Torsion [CA]-CB--CG-[CD2] |==|  0.53308
USER: genes 14 Torsion [N]-CA--C-[N] |==|  0.44438
USER: genes 15 Torsion [C]-N--CA-[C] |==|  0.65410
USER: genes 16 Torsion [N]-CA--C-[N] |==|  0.36766
USER: genes 17 Torsion [C]-N--CA-[C] |==|  0.66741
USER: genes 18 Torsion [N]-CA--C-[O] |==|  0.99780
USER: genes 19 Torsion [N]-CA--CB-[CG] |==|  0.65823
USER: genes 20 Torsion [CA]-CB--CG-[CD] |==|  0.24124
USER: genes 21 Torsion [CB]-CG--CD-[NE] |==|  0.81889
USER: genes 22 Torsion [CG]-CD--NE-[CZ] |==|  0.55527
USER: genes 23 Torsion [N]-CA--CB-[CG] |==|  0.88546
USER: genes 24 Torsion [CA]-CB--CG-[CD1] |==|  0.52293
USER: genes 25 Torsion [N]-CA--CB-[CG] |==|  0.86681
USER: genes 26 Torsion [CA]-CB--CG-[CD] |==|  0.72337
USER: genes 27 Torsion [CB]-CG--CD-[NE] |==|  0.54911
USER: genes 28 Torsion [CG]-CD--NE-[HE] |==|  0.88512
ROOT
ATOM      1  CA  ARG X 129       1.247  11.731  -7.469  1.00 23.09 LIG 0.18  C 
ENDROOT
BRANCH 1 2
ATOM      2  N   ARG X 129       0.152  10.964  -8.050  1.00 20.82 LIG-0.35  N 
ATOM      3  C   ARG X 128      -1.105  11.395  -8.162  1.00 20.67 LIG 0.24  C 
ATOM      4 O    ARG X 128      -1.514  12.511  -7.752  1.00 18.99 LIG-0.27  OA
ATOM      5 H    ARG X 129       0.397  10.185  -8.321  1.00 20.82 LIG 0.16  HD
BRANCH 3 6
ATOM      6  CA  ARG X 128      -2.067  10.433  -8.856  1.00 21.45 LIG 0.18  C 
BRANCH 6 7
ATOM      7  CB  ARG X 128      -2.054  10.645 -10.359  1.00 22.98 LIG 0.04  C 
BRANCH 7 8
ATOM      8  CG  ARG X 128      -1.345  11.966 -10.719  1.00 26.06 LIG 0.02  C 
BRANCH 8 9
ATOM      9  CD  ARG X 128      -2.220  13.069 -11.457  1.00 28.46 LIG 0.14  C 
BRANCH 9 10
ATOM     10  NE  ARG X 128      -3.273  13.827 -10.797  1.00 34.87 LIG-0.23  N 
ATOM     11 HE   ARG X 128      -3.030  14.376 -10.181  1.00 34.87 LIG 0.18  HD
ATOM     12  CZ  ARG X 128      -4.585  13.752 -11.057  1.00 35.06 LIG 0.67  C 
ATOM     13  NH1 ARG X 128      -5.083  12.904 -11.937  1.00 38.28 LIG-0.23  N 
ATOM     14  NH2 ARG X 128      -5.406  14.515 -10.394  1.00 41.06 LIG-0.23  N 
ATOM     15 1HH1 ARG X 128      -4.560  12.373 -12.367  1.00 38.28 LIG 0.17  HD
ATOM     16 2HH1 ARG X 128      -5.931  12.881 -12.080  1.00 38.28 LIG 0.17  HD
ATOM     17 1HH2 ARG X 128      -5.104  15.058  -9.798  1.00 41.06 LIG 0.17  HD
ATOM     18 2HH2 ARG X 128      -6.251  14.477 -10.551  1.00 41.06 LIG 0.17  HD
ENDBRANCH 9 10
ENDBRANCH 8 9
ENDBRANCH 7 8
ENDBRANCH 6 7
BRANCH 6 19
ATOM     19  N   ARG X 128      -3.417  10.636  -8.403  1.00 22.62 LIG-0.35  N 
ATOM     20 H    ARG X 128      -3.788  11.348  -8.710  1.00 22.62 LIG 0.16  HD
ATOM     21  C   ALA X 127      -4.021   9.788  -7.581  1.00 23.78 LIG 0.24  C 
ATOM     22 O    ALA X 127      -3.505   8.741  -7.199  1.00 22.39 LIG-0.27  OA
BRANCH 21 23
ATOM     23  CA  ALA X 127      -5.482  10.113  -7.231  1.00 25.08 LIG 0.17  C 
ATOM     24  CB  ALA X 127      -5.898  11.495  -7.719  1.00 24.37 LIG 0.04  C 
BRANCH 23 25
ATOM     25  N   ALA X 127      -5.630   9.965  -5.788  1.00 27.78 LIG-0.35  N 
ATOM     26  C   LEU X 126      -6.767   9.409  -5.372  1.00 33.19 LIG 0.26  C 
ATOM     27 O    LEU X 126      -7.645   8.947  -6.165  1.00 34.96 LIG-0.27  OA
ATOM     28 H    ALA X 127      -4.981  10.243  -5.297  1.00 27.78 LIG 0.16  HD
BRANCH 26 29
ATOM     29  CA  LEU X 126      -6.989   9.351  -3.889  1.00 34.21 LIG 0.40  C 
ATOM     30  N   LEU X 126      -7.356  10.672  -3.342  1.00 36.42 LIG 0.61  N 
BRANCH 29 31
ATOM     31  CB  LEU X 126      -8.096   8.310  -3.621  1.00 35.53 LIG 0.06  C 
BRANCH 31 32
ATOM     32  CG  LEU X 126      -8.081   7.670  -2.227  1.00 35.00 LIG-0.02  C 
ATOM     33  CD2 LEU X 126      -9.040   6.451  -2.206  1.00 38.18 LIG 0.01  C 
ATOM     34  CD1 LEU X 126      -8.480   8.650  -1.171  1.00 36.44 LIG 0.01  C 
ENDBRANCH 31 32
ENDBRANCH 29 31
ENDBRANCH 26 29
ENDBRANCH 23 25
ENDBRANCH 21 23
ENDBRANCH 6 19
ENDBRANCH 3 6
ENDBRANCH 1 2
BRANCH 1 35
ATOM     35  C   ARG X 129       2.561  11.591  -8.283  1.00 22.72 LIG 0.24  C 
ATOM     36  N   LEU X 130       3.544  12.499  -8.163  1.00 24.32 LIG-0.35  N 
ATOM     37 H    LEU X 130       3.480  13.241  -7.732  1.00 24.32 LIG 0.16  HD
ATOM     38 O    ARG X 129       2.681  10.618  -9.029  1.00 21.19 LIG-0.27  OA
BRANCH 36 39
ATOM     39  CA  LEU X 130       4.859  12.247  -8.803  1.00 26.11 LIG 0.18  C 
BRANCH 39 40
ATOM     40  C   LEU X 130       5.991  12.321  -7.806  1.00 29.66 LIG 0.24  C 
ATOM     41 O    LEU X 130       6.077  13.296  -7.043  1.00 28.98 LIG-0.27  OA
ATOM     42  N   ARG X 131       6.880  11.333  -7.829  1.00 30.67 LIG-0.34  N 
ATOM     43 H    ARG X 131       6.795  10.617  -8.298  1.00 30.67 LIG 0.16  HD
BRANCH 42 44
ATOM     44  CA  ARG X 131       8.091  11.395  -7.039  1.00 33.89 LIG 0.18  C 
BRANCH 44 45
ATOM     45  C   ARG X 131       9.347  11.336  -7.910  1.00 35.66 LIG 0.20  C 
ATOM     46 OXT  ARG X 131      10.496  11.414  -7.421  1.00 35.07 LIG-0.65  OA
ATOM     47 O    ARG X 131       9.264  11.228  -9.170  1.00 37.10 LIG-0.65  OA
ENDBRANCH 44 45
BRANCH 44 48
ATOM     48  CB  ARG X 131       8.100  10.243  -6.028  1.00 35.20 LIG 0.04  C 
BRANCH 48 49
ATOM     49  CG  ARG X 131       8.234  10.702  -4.564  1.00 40.01 LIG 0.02  C 
BRANCH 49 50
ATOM     50  CD  ARG X 131       6.882  11.045  -3.882  1.00 47.84 LIG 0.14  C 
BRANCH 50 51
ATOM     51  NE  ARG X 131       6.260  12.207  -4.518  1.00 52.72 LIG-0.23  N 
ATOM     52  CZ  ARG X 131       5.319  12.976  -3.963  1.00 57.07 LIG 0.67  C 
ATOM     53  NH1 ARG X 131       4.880  12.739  -2.716  1.00 58.64 LIG-0.23  N 
ATOM     54  NH2 ARG X 131       4.820  13.999  -4.661  1.00 59.02 LIG-0.23  N 
ATOM     55 2HH1 ARG X 131       4.274  13.242  -2.371  1.00 58.64 LIG 0.17  HD
ATOM     56 1HH1 ARG X 131       5.205  12.085  -2.262  1.00 58.64 LIG 0.17  HD
ATOM     57 2HH2 ARG X 131       4.214  14.501  -4.314  1.00 59.02 LIG 0.17  HD
ATOM     58 1HH2 ARG X 131       5.105  14.157  -5.457  1.00 59.02 LIG 0.17  HD
ATOM     59 HE   ARG X 131       6.521  12.411  -5.311  1.00 52.72 LIG 0.18  HD
ENDBRANCH 50 51
ENDBRANCH 49 50
ENDBRANCH 48 49
ENDBRANCH 44 48
ENDBRANCH 42 44
ENDBRANCH 39 40
BRANCH 39 60
ATOM     60  CB  LEU X 130       5.183  13.237  -9.926  1.00 27.29 LIG 0.04  C 
BRANCH 60 61
ATOM     61  CG  LEU X 130       4.112  13.671 -10.914  1.00 26.34 LIG-0.02  C 
ATOM     62  CD1 LEU X 130       4.685  14.518 -12.097  1.00 29.54 LIG 0.01  C 
ATOM     63  CD2 LEU X 130       3.441  12.445 -11.442  1.00 21.56 LIG 0.01  C 
ENDBRANCH 60 61
ENDBRANCH 39 60
ENDBRANCH 36 39
ENDBRANCH 1 35
BRANCH 1 64
ATOM     64  CB  ARG X 129       1.423  11.063  -6.087  1.00 24.17 LIG 0.04  C 
BRANCH 64 65
ATOM     65  CG  ARG X 129       0.223  10.834  -5.280  1.00 28.32 LIG 0.02  C 
BRANCH 65 66
ATOM     66  CD  ARG X 129      -0.014  11.868  -4.194  1.00 31.43 LIG 0.14  C 
BRANCH 66 67
ATOM     67  NE  ARG X 129      -0.944  11.477  -3.125  1.00 29.42 LIG-0.23  N 
ATOM     68  CZ  ARG X 129      -0.774  11.724  -1.831  1.00 30.66 LIG 0.67  C 
ATOM     69  NH1 ARG X 129       0.346  12.281  -1.377  1.00 33.32 LIG-0.23  N 
ATOM     70  NH2 ARG X 129      -1.729  11.369  -0.964  1.00 29.67 LIG-0.23  N 
ATOM     71 2HH1 ARG X 129       0.440  12.434  -0.536  1.00 33.32 LIG 0.17  HD
ATOM     72 1HH1 ARG X 129       0.976  12.488  -1.925  1.00 33.32 LIG 0.17  HD
ATOM     73 2HH2 ARG X 129      -1.627  11.524  -0.124  1.00 29.67 LIG 0.17  HD
ATOM     74 1HH2 ARG X 129      -2.445  10.984  -1.245  1.00 29.67 LIG 0.17  HD
ATOM     75 HE   ARG X 129      -1.657  11.054  -3.356  1.00 29.42 LIG 0.18  HD
ENDBRANCH 66 67
ENDBRANCH 65 66
ENDBRANCH 64 65
ENDBRANCH 1 64
TORSDOF 27
ENDMDL
MODEL 4
USER: ADFR SOLUTION from run 49
USER: SCORE 30.129272 LL:  -4.724 LR: -26.488 RR:   0.000 FEB: -18.434
USER: RMSD 11.598369
USER: SEED 48
USER: STATUS no improvement in best in 6 clusters for 5 generations
USER: GENES 29
USER: genes 0 Translation |==|  0.59312 0.41338 0.43221
USER: genes 1 Rotation |==|  0.55443 0.94435 0.72222 0.51427
USER: genes 2 Torsion [C]-CA--N-[C] |==|  0.66103
USER: genes 3 Torsion [N]-C--CA-[N] |==|  0.39464
USER: genes 4 Torsion [C]-CA--CB-[CG] |==|  0.48882
USER: genes 5 Torsion [CA]-CB--CG-[CD] |==|  0.43114
USER: genes 6 Torsion [CB]-CG--CD-[NE] |==|  0.38967
USER: genes 7 Torsion [CG]-CD--NE-[HE] |==|  0.75504
USER: genes 8 Torsion [C]-CA--N-[C] |==|  0.62998
USER: genes 9 Torsion [N]-C--CA-[N] |==|  0.39580
USER: genes 10 Torsion [C]-CA--N-[C] |==|  0.81672
USER: genes 11 Torsion [N]-C--CA-[N] |==|  0.41732
USER: genes 12 Torsion [C]-CA--CB-[CG] |==|  0.23697
USER: genes 13 Torsion [CA]-CB--CG-[CD2] |==|  0.72694
USER: genes 14 Torsion [N]-CA--C-[N] |==|  0.35726
USER: genes 15 Torsion [C]-N--CA-[C] |==|  0.23875
USER: genes 16 Torsion [N]-CA--C-[N] |==|  0.83018
USER: genes 17 Torsion [C]-N--CA-[C] |==|  0.60357
USER: genes 18 Torsion [N]-CA--C-[O] |==|  0.43006
USER: genes 19 Torsion [N]-CA--CB-[CG] |==|  0.39682
USER: genes 20 Torsion [CA]-CB--CG-[CD] |==|  0.70913
USER: genes 21 Torsion [CB]-CG--CD-[NE] |==|  0.29436
USER: genes 22 Torsion [CG]-CD--NE-[CZ] |==|  0.18569
USER: genes 23 Torsion [N]-CA--CB-[CG] |==|  0.77129
USER: genes 24 Torsion [CA]-CB--CG-[CD1] |==|  0.06166
USER: genes 25 Torsion [N]-CA--CB-[CG] |==|  0.51039
USER: genes 26 Torsion [CA]-CB--CG-[CD] |==|  0.17093
USER: genes 27 Torsion [CB]-CG--CD-[NE] |==|  0.61829
USER: genes 28 Torsion [CG]-CD--NE-[HE] |==|  0.06900
ROOT
ATOM      1  CA  ARG X 129       4.980  12.188  -8.701  1.00 23.09 LIG 0.18  C 
ENDROOT
BRANCH 1 2
ATOM      2  N   ARG X 129       3.792  12.466  -7.905  1.00 20.82 LIG-0.35  N 
ATOM      3  C   ARG X 128       2.695  11.707  -7.880  1.00 20.67 LIG 0.24  C 
ATOM      4 O    ARG X 128       2.535  10.667  -8.568  1.00 18.99 LIG-0.27  OA
ATOM      5 H    ARG X 129       3.863  13.186  -7.439  1.00 20.82 LIG 0.16  HD
BRANCH 3 6
ATOM      6  CA  ARG X 128       1.598  12.174  -6.926  1.00 21.45 LIG 0.18  C 
BRANCH 6 7
ATOM      7  CB  ARG X 128       1.651  11.399  -5.621  1.00 22.98 LIG 0.04  C 
BRANCH 7 8
ATOM      8  CG  ARG X 128       0.608  11.939  -4.621  1.00 26.06 LIG 0.02  C 
BRANCH 8 9
ATOM      9  CD  ARG X 128       0.102  10.929  -3.503  1.00 28.46 LIG 0.14  C 
BRANCH 9 10
ATOM     10  NE  ARG X 128      -0.138  11.321  -2.122  1.00 34.87 LIG-0.23  N 
ATOM     11 HE   ARG X 128       0.531  11.278  -1.583  1.00 34.87 LIG 0.18  HD
ATOM     12  CZ  ARG X 128      -1.302  11.742  -1.609  1.00 35.06 LIG 0.67  C 
ATOM     13  NH1 ARG X 128      -2.411  11.791  -2.322  1.00 38.28 LIG-0.23  N 
ATOM     14  NH2 ARG X 128      -1.354  12.080  -0.352  1.00 41.06 LIG-0.23  N 
ATOM     15 1HH1 ARG X 128      -2.403  11.548  -3.147  1.00 38.28 LIG 0.17  HD
ATOM     16 2HH1 ARG X 128      -3.142  12.067  -1.963  1.00 38.28 LIG 0.17  HD
ATOM     17 1HH2 ARG X 128      -0.648  12.032   0.136  1.00 41.06 LIG 0.17  HD
ATOM     18 2HH2 ARG X 128      -2.095  12.353  -0.010  1.00 41.06 LIG 0.17  HD
ENDBRANCH 9 10
ENDBRANCH 8 9
ENDBRANCH 7 8
ENDBRANCH 6 7
BRANCH 6 19
ATOM     19  N   ARG X 128       0.294  11.968  -7.498  1.00 22.62 LIG-0.35  N 
ATOM     20 H    ARG X 128       0.182  11.190  -7.847  1.00 22.62 LIG 0.16  HD
ATOM     21  C   ALA X 127      -0.641  12.908  -7.479  1.00 23.78 LIG 0.24  C 
ATOM     22 O    ALA X 127      -0.492  13.992  -6.921  1.00 22.39 LIG-0.27  OA
BRANCH 21 23
ATOM     23  CA  ALA X 127      -2.001  12.517  -8.081  1.00 25.08 LIG 0.17  C 
ATOM     24  CB  ALA X 127      -2.112  12.899  -9.551  1.00 24.37 LIG 0.04  C 
BRANCH 23 25
ATOM     25  N   ALA X 127      -3.036  13.140  -7.264  1.00 27.78 LIG-0.35  N 
ATOM     26  C   LEU X 126      -3.136  12.699  -6.011  1.00 33.19 LIG 0.26  C 
ATOM     27 O    LEU X 126      -2.335  11.851  -5.508  1.00 34.96 LIG-0.27  OA
ATOM     28 H    ALA X 127      -3.515  13.750  -7.637  1.00 27.78 LIG 0.16  HD
BRANCH 26 29
ATOM     29  CA  LEU X 126      -4.267  13.244  -5.189  1.00 34.21 LIG 0.40  C 
ATOM     30  N   LEU X 126      -4.722  12.270  -4.177  1.00 36.42 LIG 0.61  N 
BRANCH 29 31
ATOM     31  CB  LEU X 126      -3.778  14.549  -4.527  1.00 35.53 LIG 0.06  C 
BRANCH 31 32
ATOM     32  CG  LEU X 126      -3.913  15.817  -5.381  1.00 35.00 LIG-0.02  C 
ATOM     33  CD2 LEU X 126      -2.551  16.136  -6.051  1.00 38.18 LIG 0.01  C 
ATOM     34  CD1 LEU X 126      -4.363  16.982  -4.562  1.00 36.44 LIG 0.01  C 
ENDBRANCH 31 32
ENDBRANCH 29 31
ENDBRANCH 26 29
ENDBRANCH 23 25
ENDBRANCH 21 23
ENDBRANCH 6 19
ENDBRANCH 3 6
ENDBRANCH 1 2
BRANCH 1 35
ATOM     35  C   ARG X 129       6.258  12.061  -7.829  1.00 22.72 LIG 0.24  C 
ATOM     36  N   LEU X 130       7.067  10.995  -7.945  1.00 24.32 LIG-0.35  N 
ATOM     37 H    LEU X 130       6.892  10.291  -8.407  1.00 24.32 LIG 0.16  HD
ATOM     38 O    ARG X 129       6.515  12.972  -7.041  1.00 21.19 LIG-0.27  OA
BRANCH 36 39
ATOM     39  CA  LEU X 130       8.374  10.984  -7.242  1.00 26.11 LIG 0.18  C 
BRANCH 39 40
ATOM     40  C   LEU X 130       8.240  10.487  -5.822  1.00 29.66 LIG 0.24  C 
ATOM     41 O    LEU X 130       8.817   9.444  -5.477  1.00 28.98 LIG-0.27  OA
ATOM     42  N   ARG X 131       7.458  11.190  -5.008  1.00 30.67 LIG-0.34  N 
ATOM     43 H    ARG X 131       7.112  11.951  -5.210  1.00 30.67 LIG 0.16  HD
BRANCH 42 44
ATOM     44  CA  ARG X 131       7.124  10.707  -3.685  1.00 33.89 LIG 0.18  C 
BRANCH 44 45
ATOM     45  C   ARG X 131       5.683  11.043  -3.300  1.00 35.66 LIG 0.20  C 
ATOM     46 OXT  ARG X 131       5.079  12.024  -3.787  1.00 35.07 LIG-0.65  OA
ATOM     47 O    ARG X 131       5.054  10.346  -2.449  1.00 37.10 LIG-0.65  OA
ENDBRANCH 44 45
BRANCH 44 48
ATOM     48  CB  ARG X 131       8.094  11.310  -2.664  1.00 35.20 LIG 0.04  C 
BRANCH 48 49
ATOM     49  CG  ARG X 131       7.437  11.661  -1.316  1.00 40.01 LIG 0.02  C 
BRANCH 49 50
ATOM     50  CD  ARG X 131       7.196  13.180  -1.106  1.00 47.84 LIG 0.14  C 
BRANCH 50 51
ATOM     51  NE  ARG X 131       5.776  13.505  -1.248  1.00 52.72 LIG-0.23  N 
ATOM     52  CZ  ARG X 131       4.808  13.107  -0.419  1.00 57.07 LIG 0.67  C 
ATOM     53  NH1 ARG X 131       5.089  12.369   0.667  1.00 58.64 LIG-0.23  N 
ATOM     54  NH2 ARG X 131       3.546  13.461  -0.674  1.00 59.02 LIG-0.23  N 
ATOM     55 2HH1 ARG X 131       4.456  12.119   1.193  1.00 58.64 LIG 0.17  HD
ATOM     56 1HH1 ARG X 131       5.902  12.146   0.838  1.00 58.64 LIG 0.17  HD
ATOM     57 2HH2 ARG X 131       2.914  13.210  -0.147  1.00 59.02 LIG 0.17  HD
ATOM     58 1HH2 ARG X 131       3.365  13.940  -1.365  1.00 59.02 LIG 0.17  HD
ATOM     59 HE   ARG X 131       5.547  13.992  -1.919  1.00 52.72 LIG 0.18  HD
ENDBRANCH 50 51
ENDBRANCH 49 50
ENDBRANCH 48 49
ENDBRANCH 44 48
ENDBRANCH 42 44
ENDBRANCH 39 40
BRANCH 39 60
ATOM     60  CB  LEU X 130       9.035  12.364  -7.176  1.00 27.29 LIG 0.04  C 
BRANCH 60 61
ATOM     61  CG  LEU X 130       9.839  12.899  -8.350  1.00 26.34 LIG-0.02  C 
ATOM     62  CD1 LEU X 130       9.459  12.220  -9.706  1.00 29.54 LIG 0.01  C 
ATOM     63  CD2 LEU X 130       9.610  14.373  -8.436  1.00 21.56 LIG 0.01  C 
ENDBRANCH 60 61
ENDBRANCH 39 60
ENDBRANCH 36 39
ENDBRANCH 1 35
BRANCH 1 64
ATOM     64  CB  ARG X 129       5.085  13.447  -9.591  1.00 24.17 LIG 0.04  C 
BRANCH 64 65
ATOM     65  CG  ARG X 129       6.143  13.483 -10.603  1.00 28.32 LIG 0.02  C 
BRANCH 65 66
ATOM     66  CD  ARG X 129       6.047  12.395 -11.656  1.00 31.43 LIG 0.14  C 
BRANCH 66 67
ATOM     67  NE  ARG X 129       7.311  11.742 -12.025  1.00 29.42 LIG-0.23  N 
ATOM     68  CZ  ARG X 129       7.553  11.140 -13.184  1.00 30.66 LIG 0.67  C 
ATOM     69  NH1 ARG X 129       6.597  10.992 -14.098  1.00 33.32 LIG-0.23  N 
ATOM     70  NH2 ARG X 129       8.771  10.637 -13.421  1.00 29.67 LIG-0.23  N 
ATOM     71 2HH1 ARG X 129       6.771  10.600 -14.843  1.00 33.32 LIG 0.17  HD
ATOM     72 1HH1 ARG X 129       5.805  11.289 -13.944  1.00 33.32 LIG 0.17  HD
ATOM     73 2HH2 ARG X 129       8.936  10.246 -14.168  1.00 29.67 LIG 0.17  HD
ATOM     74 1HH2 ARG X 129       9.388  10.706 -12.826  1.00 29.67 LIG 0.17  HD
ATOM     75 HE   ARG X 129       7.945  11.751 -11.445  1.00 29.42 LIG 0.18  HD
ENDBRANCH 66 67
ENDBRANCH 65 66
ENDBRANCH 64 65
ENDBRANCH 1 64
TORSDOF 27
ENDMDL
MODEL 5
USER: ADFR SOLUTION from run 18
USER: SCORE 29.638558 LL:  -3.882 LR: -26.480 RR:   0.000 FEB: -18.426
USER: RMSD 4.972414
USER: SEED 17
USER: STATUS searching
USER: GENES 29
USER: genes 0 Translation |==|  0.47016 0.37734 0.50541
USER: genes 1 Rotation |==|  0.37690 0.47008 0.55997 0.97995
USER: genes 2 Torsion [C]-CA--N-[C] |==|  0.79147
USER: genes 3 Torsion [N]-C--CA-[N] |==|  0.30197
USER: genes 4 Torsion [C]-CA--CB-[CG] |==|  0.49784
USER: genes 5 Torsion [CA]-CB--CG-[CD] |==|  0.39440
USER: genes 6 Torsion [CB]-CG--CD-[NE] |==|  0.74248
USER: genes 7 Torsion [CG]-CD--NE-[HE] |==|  0.89690
USER: genes 8 Torsion [C]-CA--N-[C] |==|  0.68491
USER: genes 9 Torsion [N]-C--CA-[N] |==|  0.44575
USER: genes 10 Torsion [C]-CA--N-[C] |==|  0.79465
USER: genes 11 Torsion [N]-C--CA-[N] |==|  0.12191
USER: genes 12 Torsion [C]-CA--CB-[CG] |==|  0.24274
USER: genes 13 Torsion [CA]-CB--CG-[CD2] |==|  0.58167
USER: genes 14 Torsion [N]-CA--C-[N] |==|  0.36668
USER: genes 15 Torsion [C]-N--CA-[C] |==|  0.58919
USER: genes 16 Torsion [N]-CA--C-[N] |==|  0.51617
USER: genes 17 Torsion [C]-N--CA-[C] |==|  0.82385
USER: genes 18 Torsion [N]-CA--C-[O] |==|  0.87425
USER: genes 19 Torsion [N]-CA--CB-[CG] |==|  0.19340
USER: genes 20 Torsion [CA]-CB--CG-[CD] |==|  0.63121
USER: genes 21 Torsion [CB]-CG--CD-[NE] |==|  0.55241
USER: genes 22 Torsion [CG]-CD--NE-[CZ] |==|  0.56344
USER: genes 23 Torsion [N]-CA--CB-[CG] |==|  0.09388
USER: genes 24 Torsion [CA]-CB--CG-[CD1] |==|  0.34406
USER: genes 25 Torsion [N]-CA--CB-[CG] |==|  0.36477
USER: genes 26 Torsion [CA]-CB--CG-[CD] |==|  0.30985
USER: genes 27 Torsion [CB]-CG--CD-[NE] |==|  0.62675
USER: genes 28 Torsion [CG]-CD--NE-[HE] |==|  0.14002
ROOT
ATOM      1  CA  ARG X 129       1.568  11.593  -7.054  1.00 23.09 LIG 0.18  C 
ENDROOT
BRANCH 1 2
ATOM      2  N   ARG X 129       2.735  12.226  -7.655  1.00 20.82 LIG-0.35  N 
ATOM      3  C   ARG X 128       3.403  11.750  -8.707  1.00 20.67 LIG 0.24  C 
ATOM      4 O    ARG X 128       3.129  10.674  -9.297  1.00 18.99 LIG-0.27  OA
ATOM      5 H    ARG X 129       2.961  12.955  -7.259  1.00 20.82 LIG 0.16  HD
BRANCH 3 6
ATOM      6  CA  ARG X 128       4.562  12.618  -9.193  1.00 21.45 LIG 0.18  C 
BRANCH 6 7
ATOM      7  CB  ARG X 128       4.501  12.809 -10.698  1.00 22.98 LIG 0.04  C 
BRANCH 7 8
ATOM      8  CG  ARG X 128       5.661  13.702 -11.184  1.00 26.06 LIG 0.02  C 
BRANCH 8 9
ATOM      9  CD  ARG X 128       6.329  13.310 -12.572  1.00 28.46 LIG 0.14  C 
BRANCH 9 10
ATOM     10  NE  ARG X 128       7.495  12.445 -12.682  1.00 34.87 LIG-0.23  N 
ATOM     11 HE   ARG X 128       8.097  12.524 -12.074  1.00 34.87 LIG 0.18  HD
ATOM     12  CZ  ARG X 128       7.718  11.536 -13.641  1.00 35.06 LIG 0.67  C 
ATOM     13  NH1 ARG X 128       6.896  11.367 -14.659  1.00 38.28 LIG-0.23  N 
ATOM     14  NH2 ARG X 128       8.804  10.817 -13.591  1.00 41.06 LIG-0.23  N 
ATOM     15 1HH1 ARG X 128       6.187  11.849 -14.724  1.00 38.28 LIG 0.17  HD
ATOM     16 2HH1 ARG X 128       7.069  10.775 -15.258  1.00 38.28 LIG 0.17  HD
ATOM     17 1HH2 ARG X 128       9.365  10.929 -12.949  1.00 41.06 LIG 0.17  HD
ATOM     18 2HH2 ARG X 128       8.959  10.230 -14.200  1.00 41.06 LIG 0.17  HD
ENDBRANCH 9 10
ENDBRANCH 8 9
ENDBRANCH 7 8
ENDBRANCH 6 7
BRANCH 6 19
ATOM     19  N   ARG X 128       5.828  12.007  -8.887  1.00 22.62 LIG-0.35  N 
ATOM     20 H    ARG X 128       5.979  11.276  -9.314  1.00 22.62 LIG 0.16  HD
ATOM     21  C   ALA X 127       6.677  12.540  -8.017  1.00 23.78 LIG 0.24  C 
ATOM     22 O    ALA X 127       6.480  13.617  -7.461  1.00 22.39 LIG-0.27  OA
BRANCH 21 23
ATOM     23  CA  ALA X 127       8.012  11.798  -7.839  1.00 25.08 LIG 0.17  C 
ATOM     24  CB  ALA X 127       7.860  10.528  -7.013  1.00 24.37 LIG 0.04  C 
BRANCH 23 25
ATOM     25  N   ALA X 127       8.957  12.737  -7.246  1.00 27.78 LIG-0.35  N 
ATOM     26  C   LEU X 126       9.429  13.683  -8.059  1.00 33.19 LIG 0.26  C 
ATOM     27 O    LEU X 126       9.028  13.832  -9.255  1.00 34.96 LIG-0.27  OA
ATOM     28 H    ALA X 127       9.153  12.626  -6.416  1.00 27.78 LIG 0.16  HD
BRANCH 26 29
ATOM     29  CA  LEU X 126      10.488  14.588  -7.502  1.00 34.21 LIG 0.40  C 
ATOM     30  N   LEU X 126      11.506  13.833  -6.745  1.00 36.42 LIG 0.61  N 
BRANCH 29 31
ATOM     31  CB  LEU X 126      11.123  15.349  -8.685  1.00 35.53 LIG 0.06  C 
BRANCH 31 32
ATOM     32  CG  LEU X 126      10.420  16.653  -9.087  1.00 35.00 LIG-0.02  C 
ATOM     33  CD2 LEU X 126      10.628  16.906 -10.603  1.00 38.18 LIG 0.01  C 
ATOM     34  CD1 LEU X 126      10.934  17.815  -8.301  1.00 36.44 LIG 0.01  C 
ENDBRANCH 31 32
ENDBRANCH 29 31
ENDBRANCH 26 29
ENDBRANCH 23 25
ENDBRANCH 21 23
ENDBRANCH 6 19
ENDBRANCH 3 6
ENDBRANCH 1 2
BRANCH 1 35
ATOM     35  C   ARG X 129       0.287  11.783  -7.911  1.00 22.72 LIG 0.24  C 
ATOM     36  N   LEU X 130      -0.512  10.740  -8.194  1.00 24.32 LIG-0.35  N 
ATOM     37 H    LEU X 130      -0.328   9.918  -8.023  1.00 24.32 LIG 0.16  HD
ATOM     38 O    ARG X 129       0.019  12.917  -8.309  1.00 21.19 LIG-0.27  OA
BRANCH 36 39
ATOM     39  CA  LEU X 130      -1.821  10.976  -8.851  1.00 26.11 LIG 0.18  C 
BRANCH 39 40
ATOM     40  C   LEU X 130      -2.855   9.962  -8.419  1.00 29.66 LIG 0.24  C 
ATOM     41 O    LEU X 130      -2.567   9.120  -7.554  1.00 28.98 LIG-0.27  OA
ATOM     42  N   ARG X 131      -4.033  10.003  -9.034  1.00 30.67 LIG-0.34  N 
ATOM     43 H    ARG X 131      -4.272  10.623  -9.580  1.00 30.67 LIG 0.16  HD
BRANCH 42 44
ATOM     44  CA  ARG X 131      -5.026   8.973  -8.819  1.00 33.89 LIG 0.18  C 
BRANCH 44 45
ATOM     45  C   ARG X 131      -4.544   7.603  -9.301  1.00 35.66 LIG 0.20  C 
ATOM     46 OXT  ARG X 131      -4.673   6.574  -8.602  1.00 35.07 LIG-0.65  OA
ATOM     47 O    ARG X 131      -3.972   7.469 -10.423  1.00 37.10 LIG-0.65  OA
ENDBRANCH 44 45
BRANCH 44 48
ATOM     48  CB  ARG X 131      -6.322   9.356  -9.543  1.00 35.20 LIG 0.04  C 
BRANCH 48 49
ATOM     49  CG  ARG X 131      -6.217   9.296 -11.078  1.00 40.01 LIG 0.02  C 
BRANCH 49 50
ATOM     50  CD  ARG X 131      -6.787  10.545 -11.801  1.00 47.84 LIG 0.14  C 
BRANCH 50 51
ATOM     51  NE  ARG X 131      -7.067  10.250 -13.207  1.00 52.72 LIG-0.23  N 
ATOM     52  CZ  ARG X 131      -7.143  11.157 -14.183  1.00 57.07 LIG 0.67  C 
ATOM     53  NH1 ARG X 131      -6.931  12.460 -13.935  1.00 58.64 LIG-0.23  N 
ATOM     54  NH2 ARG X 131      -7.423  10.755 -15.426  1.00 59.02 LIG-0.23  N 
ATOM     55 2HH1 ARG X 131      -6.983  13.034 -14.573  1.00 58.64 LIG 0.17  HD
ATOM     56 1HH1 ARG X 131      -6.743  12.721 -13.137  1.00 58.64 LIG 0.17  HD
ATOM     57 2HH2 ARG X 131      -7.475  11.331 -16.063  1.00 59.02 LIG 0.17  HD
ATOM     58 1HH2 ARG X 131      -7.552   9.920 -15.589  1.00 59.02 LIG 0.17  HD
ATOM     59 HE   ARG X 131      -7.192   9.427 -13.420  1.00 52.72 LIG 0.18  HD
ENDBRANCH 50 51
ENDBRANCH 49 50
ENDBRANCH 48 49
ENDBRANCH 44 48
ENDBRANCH 42 44
ENDBRANCH 39 40
BRANCH 39 60
ATOM     60  CB  LEU X 130      -1.748  10.920 -10.380  1.00 27.29 LIG 0.04  C 
BRANCH 60 61
ATOM     61  CG  LEU X 130      -0.784   9.975 -11.079  1.00 26.34 LIG-0.02  C 
ATOM     62  CD1 LEU X 130      -1.500   9.010 -12.081  1.00 29.54 LIG 0.01  C 
ATOM     63  CD2 LEU X 130       0.233  10.797 -11.801  1.00 21.56 LIG 0.01  C 
ENDBRANCH 60 61
ENDBRANCH 39 60
ENDBRANCH 36 39
ENDBRANCH 1 35
BRANCH 1 64
ATOM     64  CB  ARG X 129       1.419  12.368  -5.726  1.00 24.17 LIG 0.04  C 
BRANCH 64 65
ATOM     65  CG  ARG X 129       0.093  12.883  -5.379  1.00 28.32 LIG 0.02  C 
BRANCH 65 66
ATOM     66  CD  ARG X 129      -0.558  12.200  -4.190  1.00 31.43 LIG 0.14  C 
BRANCH 66 67
ATOM     67  NE  ARG X 129      -1.970  11.827  -4.356  1.00 29.42 LIG-0.23  N 
ATOM     68  CZ  ARG X 129      -2.945  12.117  -3.502  1.00 30.66 LIG 0.67  C 
ATOM     69  NH1 ARG X 129      -2.690  12.707  -2.337  1.00 33.32 LIG-0.23  N 
ATOM     70  NH2 ARG X 129      -4.204  11.773  -3.801  1.00 29.67 LIG-0.23  N 
ATOM     71 2HH1 ARG X 129      -3.333  12.887  -1.795  1.00 33.32 LIG 0.17  HD
ATOM     72 1HH1 ARG X 129      -1.881  12.908  -2.125  1.00 33.32 LIG 0.17  HD
ATOM     73 2HH2 ARG X 129      -4.841  11.956  -3.254  1.00 29.67 LIG 0.17  HD
ATOM     74 1HH2 ARG X 129      -4.375  11.368  -4.540  1.00 29.67 LIG 0.17  HD
ATOM     75 HE   ARG X 129      -2.182  11.386  -5.063  1.00 29.42 LIG 0.18  HD
ENDBRANCH 66 67
ENDBRANCH 65 66
ENDBRANCH 64 65
ENDBRANCH 1 64
TORSDOF 27
ENDMDL
MODEL 6
USER: ADFR SOLUTION from run 49
USER: SCORE 29.019632 LL:  -4.235 LR: -26.398 RR:   0.000 FEB: -18.344
USER: RMSD 11.454469
USER: SEED 48
USER: STATUS no improvement in best in 6 clusters for 5 generations
USER: GENES 29
USER: genes 0 Translation |==|  0.59408 0.40432 0.43285
USER: genes 1 Rotation |==|  0.55787 0.94279 0.72382 0.52210
USER: genes 2 Torsion [C]-CA--N-[C] |==|  0.65551
USER: genes 3 Torsion [N]-C--CA-[N] |==|  0.43831
USER: genes 4 Torsion [C]-CA--CB-[CG] |==|  0.43325
USER: genes 5 Torsion [CA]-CB--CG-[CD] |==|  0.30916
USER: genes 6 Torsion [CB]-CG--CD-[NE] |==|  0.46774
USER: genes 7 Torsion [CG]-CD--NE-[HE] |==|  0.90664
USER: genes 8 Torsion [C]-CA--N-[C] |==|  0.64936
USER: genes 9 Torsion [N]-C--CA-[N] |==|  0.70324
USER: genes 10 Torsion [C]-CA--N-[C] |==|  0.67210
USER: genes 11 Torsion [N]-C--CA-[N] |==|  0.41510
USER: genes 12 Torsion [C]-CA--CB-[CG] |==|  0.45117
USER: genes 13 Torsion [CA]-CB--CG-[CD2] |==|  0.98748
USER: genes 14 Torsion [N]-CA--C-[N] |==|  0.36308
USER: genes 15 Torsion [C]-N--CA-[C] |==|  0.23296
USER: genes 16 Torsion [N]-CA--C-[N] |==|  0.81667
USER: genes 17 Torsion [C]-N--CA-[C] |==|  0.60595
USER: genes 18 Torsion [N]-CA--C-[O] |==|  0.42686
USER: genes 19 Torsion [N]-CA--CB-[CG] |==|  0.38007
USER: genes 20 Torsion [CA]-CB--CG-[CD] |==|  0.72926
USER: genes 21 Torsion [CB]-CG--CD-[NE] |==|  0.31706
USER: genes 22 Torsion [CG]-CD--NE-[CZ] |==|  0.17180
USER: genes 23 Torsion [N]-CA--CB-[CG] |==|  0.76438
USER: genes 24 Torsion [CA]-CB--CG-[CD1] |==|  0.08068
USER: genes 25 Torsion [N]-CA--CB-[CG] |==|  0.50823
USER: genes 26 Torsion [CA]-CB--CG-[CD] |==|  0.17408
USER: genes 27 Torsion [CB]-CG--CD-[NE] |==|  0.60295
USER: genes 28 Torsion [CG]-CD--NE-[HE] |==|  0.07194
ROOT
ATOM      1  CA  ARG X 129       5.007  12.038  -8.687  1.00 23.09 LIG 0.18  C 
ENDROOT
BRANCH 1 2
ATOM      2  N   ARG X 129       3.808  12.345  -7.916  1.00 20.82 LIG-0.35  N 
ATOM      3  C   ARG X 128       2.679  11.636  -7.949  1.00 20.67 LIG 0.24  C 
ATOM      4 O    ARG X 128       2.493  10.627  -8.677  1.00 18.99 LIG-0.27  OA
ATOM      5 H    ARG X 129       3.898  13.044  -7.424  1.00 20.82 LIG 0.16  HD
BRANCH 3 6
ATOM      6  CA  ARG X 128       1.575  12.120  -7.011  1.00 21.45 LIG 0.18  C 
BRANCH 6 7
ATOM      7  CB  ARG X 128       1.786  11.585  -5.606  1.00 22.98 LIG 0.04  C 
BRANCH 7 8
ATOM      8  CG  ARG X 128       1.095  12.489  -4.566  1.00 26.06 LIG 0.02  C 
BRANCH 8 9
ATOM      9  CD  ARG X 128      -0.166  11.878  -3.815  1.00 28.46 LIG 0.14  C 
BRANCH 9 10
ATOM     10  NE  ARG X 128      -0.776  12.495  -2.646  1.00 34.87 LIG-0.23  N 
ATOM     11 HE   ARG X 128      -0.250  12.909  -2.105  1.00 34.87 LIG 0.18  HD
ATOM     12  CZ  ARG X 128      -2.078  12.480  -2.331  1.00 35.06 LIG 0.67  C 
ATOM     13  NH1 ARG X 128      -2.971  11.827  -3.051  1.00 38.28 LIG-0.23  N 
ATOM     14  NH2 ARG X 128      -2.477  13.100  -1.257  1.00 41.06 LIG-0.23  N 
ATOM     15 1HH1 ARG X 128      -2.724  11.390  -3.750  1.00 38.28 LIG 0.17  HD
ATOM     16 2HH1 ARG X 128      -3.800  11.837  -2.822  1.00 38.28 LIG 0.17  HD
ATOM     17 1HH2 ARG X 128      -1.907  13.511  -0.761  1.00 41.06 LIG 0.17  HD
ATOM     18 2HH2 ARG X 128      -3.310  13.098  -1.044  1.00 41.06 LIG 0.17  HD
ENDBRANCH 9 10
ENDBRANCH 8 9
ENDBRANCH 7 8
ENDBRANCH 6 7
BRANCH 6 19
ATOM     19  N   ARG X 128       0.284  11.668  -7.456  1.00 22.62 LIG-0.35  N 
ATOM     20 H    ARG X 128       0.232  10.818  -7.578  1.00 22.62 LIG 0.16  HD
ATOM     21  C   ALA X 127      -0.726  12.504  -7.655  1.00 23.78 LIG 0.24  C 
ATOM     22 O    ALA X 127      -0.659  13.707  -7.416  1.00 22.39 LIG-0.27  OA
BRANCH 21 23
ATOM     23  CA  ALA X 127      -2.058  11.862  -8.077  1.00 25.08 LIG 0.17  C 
ATOM     24  CB  ALA X 127      -2.095  10.367  -7.789  1.00 24.37 LIG 0.04  C 
BRANCH 23 25
ATOM     25  N   ALA X 127      -2.259  12.161  -9.490  1.00 27.78 LIG-0.35  N 
ATOM     26  C   LEU X 126      -3.337  12.887  -9.786  1.00 33.19 LIG 0.26  C 
ATOM     27 O    LEU X 126      -4.109  13.374  -8.903  1.00 34.96 LIG-0.27  OA
ATOM     28 H    ALA X 127      -1.675  11.855 -10.043  1.00 27.78 LIG 0.16  HD
BRANCH 26 29
ATOM     29  CA  LEU X 126      -3.625  13.109 -11.242  1.00 34.21 LIG 0.40  C 
ATOM     30  N   LEU X 126      -5.074  13.242 -11.495  1.00 36.42 LIG 0.61  N 
BRANCH 29 31
ATOM     31  CB  LEU X 126      -2.864  14.377 -11.682  1.00 35.53 LIG 0.06  C 
BRANCH 31 32
ATOM     32  CG  LEU X 126      -2.679  14.547 -13.196  1.00 35.00 LIG-0.02  C 
ATOM     33  CD2 LEU X 126      -3.231  13.297 -13.928  1.00 38.18 LIG 0.01  C 
ATOM     34  CD1 LEU X 126      -1.242  14.753 -13.551  1.00 36.44 LIG 0.01  C 
ENDBRANCH 31 32
ENDBRANCH 29 31
ENDBRANCH 26 29
ENDBRANCH 23 25
ENDBRANCH 21 23
ENDBRANCH 6 19
ENDBRANCH 3 6
ENDBRANCH 1 2
BRANCH 1 35
ATOM     35  C   ARG X 129       6.261  11.873  -7.787  1.00 22.72 LIG 0.24  C 
ATOM     36  N   LEU X 130       7.067  10.807  -7.920  1.00 24.32 LIG-0.35  N 
ATOM     37 H    LEU X 130       6.900  10.121  -8.411  1.00 24.32 LIG 0.16  HD
ATOM     38 O    ARG X 129       6.502  12.754  -6.961  1.00 21.19 LIG-0.27  OA
BRANCH 36 39
ATOM     39  CA  LEU X 130       8.355  10.763  -7.183  1.00 26.11 LIG 0.18  C 
BRANCH 39 40
ATOM     40  C   LEU X 130       8.174  10.265  -5.769  1.00 29.66 LIG 0.24  C 
ATOM     41 O    LEU X 130       8.641   9.163  -5.439  1.00 28.98 LIG-0.27  OA
ATOM     42  N   ARG X 131       7.469  11.035  -4.944  1.00 30.67 LIG-0.34  N 
ATOM     43 H    ARG X 131       7.203  11.830  -5.135  1.00 30.67 LIG 0.16  HD
BRANCH 42 44
ATOM     44  CA  ARG X 131       7.091  10.572  -3.626  1.00 33.89 LIG 0.18  C 
BRANCH 44 45
ATOM     45  C   ARG X 131       5.684  11.032  -3.240  1.00 35.66 LIG 0.20  C 
ATOM     46 OXT  ARG X 131       5.180  12.079  -3.704  1.00 35.07 LIG-0.65  OA
ATOM     47 O    ARG X 131       4.985  10.375  -2.413  1.00 37.10 LIG-0.65  OA
ENDBRANCH 44 45
BRANCH 44 48
ATOM     48  CB  ARG X 131       8.108  11.077  -2.598  1.00 35.20 LIG 0.04  C 
BRANCH 48 49
ATOM     49  CG  ARG X 131       7.468  11.611  -1.303  1.00 40.01 LIG 0.02  C 
BRANCH 49 50
ATOM     50  CD  ARG X 131       7.305  13.154  -1.268  1.00 47.84 LIG 0.14  C 
BRANCH 50 51
ATOM     51  NE  ARG X 131       5.890  13.527  -1.261  1.00 52.72 LIG-0.23  N 
ATOM     52  CZ  ARG X 131       5.013  13.204  -0.307  1.00 57.07 LIG 0.67  C 
ATOM     53  NH1 ARG X 131       5.394  12.505   0.775  1.00 58.64 LIG-0.23  N 
ATOM     54  NH2 ARG X 131       3.742  13.595  -0.432  1.00 59.02 LIG-0.23  N 
ATOM     55 2HH1 ARG X 131       4.820  12.304   1.381  1.00 58.64 LIG 0.17  HD
ATOM     56 1HH1 ARG X 131       6.214  12.259   0.861  1.00 58.64 LIG 0.17  HD
ATOM     57 2HH2 ARG X 131       3.168  13.392   0.176  1.00 59.02 LIG 0.17  HD
ATOM     58 1HH2 ARG X 131       3.497  14.048  -1.120  1.00 59.02 LIG 0.17  HD
ATOM     59 HE   ARG X 131       5.600  13.992  -1.924  1.00 52.72 LIG 0.18  HD
ENDBRANCH 50 51
ENDBRANCH 49 50
ENDBRANCH 48 49
ENDBRANCH 44 48
ENDBRANCH 42 44
ENDBRANCH 39 40
BRANCH 39 60
ATOM     60  CB  LEU X 130       9.046  12.126  -7.096  1.00 27.29 LIG 0.04  C 
BRANCH 60 61
ATOM     61  CG  LEU X 130       9.937  12.622  -8.223  1.00 26.34 LIG-0.02  C 
ATOM     62  CD1 LEU X 130       9.518  12.059  -9.620  1.00 29.54 LIG 0.01  C 
ATOM     63  CD2 LEU X 130       9.882  14.115  -8.237  1.00 21.56 LIG 0.01  C 
ENDBRANCH 60 61
ENDBRANCH 39 60
ENDBRANCH 36 39
ENDBRANCH 1 35
BRANCH 1 64
ATOM     64  CB  ARG X 129       5.166  13.298  -9.567  1.00 24.17 LIG 0.04  C 
BRANCH 64 65
ATOM     65  CG  ARG X 129       6.257  13.319 -10.542  1.00 28.32 LIG 0.02  C 
BRANCH 65 66
ATOM     66  CD  ARG X 129       6.162  12.253 -11.619  1.00 31.43 LIG 0.14  C 
BRANCH 66 67
ATOM     67  NE  ARG X 129       7.434  11.656 -12.048  1.00 29.42 LIG-0.23  N 
ATOM     68  CZ  ARG X 129       7.662  11.109 -13.237  1.00 30.66 LIG 0.67  C 
ATOM     69  NH1 ARG X 129       6.685  10.969 -14.131  1.00 33.32 LIG-0.23  N 
ATOM     70  NH2 ARG X 129       8.887  10.654 -13.527  1.00 29.67 LIG-0.23  N 
ATOM     71 2HH1 ARG X 129       6.850  10.612 -14.896  1.00 33.32 LIG 0.17  HD
ATOM     72 1HH1 ARG X 129       5.890  11.234 -13.943  1.00 33.32 LIG 0.17  HD
ATOM     73 2HH2 ARG X 129       9.043  10.298 -14.294  1.00 29.67 LIG 0.17  HD
ATOM     74 1HH2 ARG X 129       9.518  10.717 -12.946  1.00 29.67 LIG 0.17  HD
ATOM     75 HE   ARG X 129       8.083  11.660 -11.485  1.00 29.42 LIG 0.18  HD
ENDBRANCH 66 67
ENDBRANCH 65 66
ENDBRANCH 64 65
ENDBRANCH 1 64
TORSDOF 27
ENDMDL
MODEL 7
USER: ADFR SOLUTION from run 54
USER: SCORE 29.468898 LL:  -4.163 LR: -26.363 RR:   0.000 FEB: -18.309
USER: RMSD 11.928462
USER: SEED 53
USER: STATUS no improvement in best in 21 clusters for 5 generations
USER: GENES 29
USER: genes 0 Translation |==|  0.45531 0.41536 0.47606
USER: genes 1 Rotation |==|  0.52397 0.64859 0.02319 0.50138
USER: genes 2 Torsion [C]-CA--N-[C] |==|  0.62862
USER: genes 3 Torsion [N]-C--CA-[N] |==|  0.76889
USER: genes 4 Torsion [C]-CA--CB-[CG] |==|  0.31743
USER: genes 5 Torsion [CA]-CB--CG-[CD] |==|  0.87938
USER: genes 6 Torsion [CB]-CG--CD-[NE] |==|  0.70207
USER: genes 7 Torsion [CG]-CD--NE-[HE] |==|  0.06067
USER: genes 8 Torsion [C]-CA--N-[C] |==|  0.63768
USER: genes 9 Torsion [N]-C--CA-[N] |==|  0.40898
USER: genes 10 Torsion [C]-CA--N-[C] |==|  0.81129
USER: genes 11 Torsion [N]-C--CA-[N] |==|  0.73321
USER: genes 12 Torsion [C]-CA--CB-[CG] |==|  0.27174
USER: genes 13 Torsion [CA]-CB--CG-[CD2] |==|  0.18908
USER: genes 14 Torsion [N]-CA--C-[N] |==|  0.38145
USER: genes 15 Torsion [C]-N--CA-[C] |==|  0.57509
USER: genes 16 Torsion [N]-CA--C-[N] |==|  0.48284
USER: genes 17 Torsion [C]-N--CA-[C] |==|  0.83643
USER: genes 18 Torsion [N]-CA--C-[O] |==|  0.39320
USER: genes 19 Torsion [N]-CA--CB-[CG] |==|  0.06602
USER: genes 20 Torsion [CA]-CB--CG-[CD] |==|  0.19167
USER: genes 21 Torsion [CB]-CG--CD-[NE] |==|  0.63517
USER: genes 22 Torsion [CG]-CD--NE-[CZ] |==|  0.65432
USER: genes 23 Torsion [N]-CA--CB-[CG] |==|  0.09469
USER: genes 24 Torsion [CA]-CB--CG-[CD1] |==|  0.28642
USER: genes 25 Torsion [N]-CA--CB-[CG] |==|  0.63283
USER: genes 26 Torsion [CA]-CB--CG-[CD] |==|  0.83214
USER: genes 27 Torsion [CB]-CG--CD-[NE] |==|  0.48452
USER: genes 28 Torsion [CG]-CD--NE-[HE] |==|  0.67757
ROOT
ATOM      1  CA  ARG X 129       1.156  12.220  -7.715  1.00 23.09 LIG 0.18  C 
ENDROOT
BRANCH 1 2
ATOM      2  N   ARG X 129      -0.035  12.007  -8.527  1.00 20.82 LIG-0.35  N 
ATOM      3  C   ARG X 128      -1.000  12.908  -8.717  1.00 20.67 LIG 0.24  C 
ATOM      4 O    ARG X 128      -1.020  14.050  -8.192  1.00 18.99 LIG-0.27  OA
ATOM      5 H    ARG X 129      -0.060  11.224  -8.883  1.00 20.82 LIG 0.16  HD
BRANCH 3 6
ATOM      6  CA  ARG X 128      -2.124  12.474  -9.656  1.00 21.45 LIG 0.18  C 
BRANCH 6 7
ATOM      7  CB  ARG X 128      -2.428  10.996  -9.489  1.00 22.98 LIG 0.04  C 
BRANCH 7 8
ATOM      8  CG  ARG X 128      -3.844  10.789  -8.914  1.00 26.06 LIG 0.02  C 
BRANCH 8 9
ATOM      9  CD  ARG X 128      -4.276  11.743  -7.719  1.00 28.46 LIG 0.14  C 
BRANCH 9 10
ATOM     10  NE  ARG X 128      -4.393  11.293  -6.339  1.00 34.87 LIG-0.23  N 
ATOM     11 HE   ARG X 128      -3.957  10.584  -6.123  1.00 34.87 LIG 0.18  HD
ATOM     12  CZ  ARG X 128      -5.115  11.878  -5.374  1.00 35.06 LIG 0.67  C 
ATOM     13  NH1 ARG X 128      -5.872  12.935  -5.601  1.00 38.28 LIG-0.23  N 
ATOM     14  NH2 ARG X 128      -5.101  11.367  -4.176  1.00 41.06 LIG-0.23  N 
ATOM     15 1HH1 ARG X 128      -5.915  13.273  -6.391  1.00 38.28 LIG 0.17  HD
ATOM     16 2HH1 ARG X 128      -6.323  13.287  -4.959  1.00 38.28 LIG 0.17  HD
ATOM     17 1HH2 ARG X 128      -4.634  10.664  -4.013  1.00 41.06 LIG 0.17  HD
ATOM     18 2HH2 ARG X 128      -5.560  11.733  -3.547  1.00 41.06 LIG 0.17  HD
ENDBRANCH 9 10
ENDBRANCH 8 9
ENDBRANCH 7 8
ENDBRANCH 6 7
BRANCH 6 19
ATOM     19  N   ARG X 128      -1.760  12.687 -11.031  1.00 22.62 LIG-0.35  N 
ATOM     20 H    ARG X 128      -0.989  12.373 -11.243  1.00 22.62 LIG 0.16  HD
ATOM     21  C   ALA X 127      -2.560  13.316 -11.883  1.00 23.78 LIG 0.24  C 
ATOM     22 O    ALA X 127      -3.687  13.703 -11.585  1.00 22.39 LIG-0.27  OA
BRANCH 21 23
ATOM     23  CA  ALA X 127      -2.054  13.417 -13.332  1.00 25.08 LIG 0.17  C 
ATOM     24  CB  ALA X 127      -1.204  14.659 -13.560  1.00 24.37 LIG 0.04  C 
BRANCH 23 25
ATOM     25  N   ALA X 127      -3.220  13.372 -14.206  1.00 27.78 LIG-0.35  N 
ATOM     26  C   LEU X 126      -3.876  12.213 -14.246  1.00 33.19 LIG 0.26  C 
ATOM     27 O    LEU X 126      -3.576  11.220 -13.512  1.00 34.96 LIG-0.27  OA
ATOM     28 H    ALA X 127      -3.413  14.090 -14.639  1.00 27.78 LIG 0.16  HD
BRANCH 26 29
ATOM     29  CA  LEU X 126      -5.009  12.109 -15.224  1.00 34.21 LIG 0.40  C 
ATOM     30  N   LEU X 126      -6.309  12.392 -14.582  1.00 36.42 LIG 0.61  N 
BRANCH 29 31
ATOM     31  CB  LEU X 126      -4.728  13.099 -16.374  1.00 35.53 LIG 0.06  C 
BRANCH 31 32
ATOM     32  CG  LEU X 126      -4.092  12.490 -17.631  1.00 35.00 LIG-0.02  C 
ATOM     33  CD2 LEU X 126      -5.113  11.553 -18.326  1.00 38.18 LIG 0.01  C 
ATOM     34  CD1 LEU X 126      -2.847  11.732 -17.300  1.00 36.44 LIG 0.01  C 
ENDBRANCH 31 32
ENDBRANCH 29 31
ENDBRANCH 26 29
ENDBRANCH 23 25
ENDBRANCH 21 23
ENDBRANCH 6 19
ENDBRANCH 3 6
ENDBRANCH 1 2
BRANCH 1 35
ATOM     35  C   ARG X 129       2.451  11.751  -8.431  1.00 22.72 LIG 0.24  C 
ATOM     36  N   LEU X 130       3.568  12.496  -8.389  1.00 24.32 LIG-0.35  N 
ATOM     37 H    LEU X 130       3.618  13.294  -8.071  1.00 24.32 LIG 0.16  HD
ATOM     38 O    ARG X 129       2.427  10.672  -9.025  1.00 21.19 LIG-0.27  OA
BRANCH 36 39
ATOM     39  CA  LEU X 130       4.840  11.943  -8.918  1.00 26.11 LIG 0.18  C 
BRANCH 39 40
ATOM     40  C   LEU X 130       6.042  12.559  -8.242  1.00 29.66 LIG 0.24  C 
ATOM     41 O    LEU X 130       5.891  13.523  -7.475  1.00 28.98 LIG-0.27  OA
ATOM     42  N   ARG X 131       7.232  12.049  -8.547  1.00 30.67 LIG-0.34  N 
ATOM     43 H    ARG X 131       7.346  11.338  -9.017  1.00 30.67 LIG 0.16  HD
BRANCH 42 44
ATOM     44  CA  ARG X 131       8.455  12.675  -8.092  1.00 33.89 LIG 0.18  C 
BRANCH 44 45
ATOM     45  C   ARG X 131       8.577  14.118  -8.587  1.00 35.66 LIG 0.20  C 
ATOM     46 OXT  ARG X 131       8.231  14.452  -9.742  1.00 35.07 LIG-0.65  OA
ATOM     47 O    ARG X 131       9.059  15.025  -7.846  1.00 37.10 LIG-0.65  OA
ENDBRANCH 44 45
BRANCH 44 48
ATOM     48  CB  ARG X 131       9.656  11.854  -8.571  1.00 35.20 LIG 0.04  C 
BRANCH 48 49
ATOM     49  CG  ARG X 131       9.364  10.992  -9.813  1.00 40.01 LIG 0.02  C 
BRANCH 49 50
ATOM     50  CD  ARG X 131       9.139  11.811 -11.112  1.00 47.84 LIG 0.14  C 
BRANCH 50 51
ATOM     51  NE  ARG X 131       7.929  11.366 -11.805  1.00 52.72 LIG-0.23  N 
ATOM     52  CZ  ARG X 131       7.876  10.952 -13.073  1.00 57.07 LIG 0.67  C 
ATOM     53  NH1 ARG X 131       8.987  10.886 -13.826  1.00 58.64 LIG-0.23  N 
ATOM     54  NH2 ARG X 131       6.700  10.588 -13.590  1.00 59.02 LIG-0.23  N 
ATOM     55 2HH1 ARG X 131       8.938  10.617 -14.641  1.00 58.64 LIG 0.17  HD
ATOM     56 1HH1 ARG X 131       9.746  11.112 -13.492  1.00 58.64 LIG 0.17  HD
ATOM     57 2HH2 ARG X 131       6.653  10.320 -14.406  1.00 59.02 LIG 0.17  HD
ATOM     58 1HH2 ARG X 131       5.989  10.623 -13.108  1.00 59.02 LIG 0.17  HD
ATOM     59 HE   ARG X 131       7.194  11.373 -11.359  1.00 52.72 LIG 0.18  HD
ENDBRANCH 50 51
ENDBRANCH 49 50
ENDBRANCH 48 49
ENDBRANCH 44 48
ENDBRANCH 42 44
ENDBRANCH 39 40
BRANCH 39 60
ATOM     60  CB  LEU X 130       5.010  12.158 -10.424  1.00 27.29 LIG 0.04  C 
BRANCH 60 61
ATOM     61  CG  LEU X 130       4.473  13.410 -11.098  1.00 26.34 LIG-0.02  C 
ATOM     62  CD1 LEU X 130       5.592  14.452 -11.425  1.00 29.54 LIG 0.01  C 
ATOM     63  CD2 LEU X 130       3.776  12.999 -12.355  1.00 21.56 LIG 0.01  C 
ENDBRANCH 60 61
ENDBRANCH 39 60
ENDBRANCH 36 39
ENDBRANCH 1 35
BRANCH 1 64
ATOM     64  CB  ARG X 129       0.888  11.317  -6.490  1.00 24.17 LIG 0.04  C 
BRANCH 64 65
ATOM     65  CG  ARG X 129       1.095  11.890  -5.159  1.00 28.32 LIG 0.02  C 
BRANCH 65 66
ATOM     66  CD  ARG X 129       2.512  12.362  -4.888  1.00 31.43 LIG 0.14  C 
BRANCH 66 67
ATOM     67  NE  ARG X 129       2.726  13.057  -3.611  1.00 29.42 LIG-0.23  N 
ATOM     68  CZ  ARG X 129       2.578  12.515  -2.408  1.00 30.66 LIG 0.67  C 
ATOM     69  NH1 ARG X 129       2.111  11.277  -2.262  1.00 33.32 LIG-0.23  N 
ATOM     70  NH2 ARG X 129       2.865  13.240  -1.321  1.00 29.67 LIG-0.23  N 
ATOM     71 2HH1 ARG X 129       2.021  10.941  -1.476  1.00 33.32 LIG 0.17  HD
ATOM     72 1HH1 ARG X 129       1.899  10.813  -2.954  1.00 33.32 LIG 0.17  HD
ATOM     73 2HH2 ARG X 129       2.771  12.897  -0.538  1.00 29.67 LIG 0.17  HD
ATOM     74 1HH2 ARG X 129       3.143  14.050  -1.404  1.00 29.67 LIG 0.17  HD
ATOM     75 HE   ARG X 129       2.967  13.882  -3.645  1.00 29.42 LIG 0.18  HD
ENDBRANCH 66 67
ENDBRANCH 65 66
ENDBRANCH 64 65
ENDBRANCH 1 64
TORSDOF 27
ENDMDL
MODEL 8
USER: ADFR SOLUTION from run 98
USER: SCORE 28.994642 LL:  -3.722 LR: -26.273 RR:   0.000 FEB: -18.219
USER: RMSD 11.380047
USER: SEED 97
USER: STATUS no improvement in best in 10 clusters for 5 generations
USER: GENES 29
USER: genes 0 Translation |==|  0.46796 0.39847 0.46208
USER: genes 1 Rotation |==|  0.47955 0.57793 0.01811 0.60624
USER: genes 2 Torsion [C]-CA--N-[C] |==|  0.66309
USER: genes 3 Torsion [N]-C--CA-[N] |==|  0.37354
USER: genes 4 Torsion [C]-CA--CB-[CG] |==|  0.08041
USER: genes 5 Torsion [CA]-CB--CG-[CD] |==|  0.59397
USER: genes 6 Torsion [CB]-CG--CD-[NE] |==|  0.48534
USER: genes 7 Torsion [CG]-CD--NE-[HE] |==|  0.06006
USER: genes 8 Torsion [C]-CA--N-[C] |==|  0.76013
USER: genes 9 Torsion [N]-C--CA-[N] |==|  0.54402
USER: genes 10 Torsion [C]-CA--N-[C] |==|  0.54092
USER: genes 11 Torsion [N]-C--CA-[N] |==|  0.20601
USER: genes 12 Torsion [C]-CA--CB-[CG] |==|  0.40339
USER: genes 13 Torsion [CA]-CB--CG-[CD2] |==|  0.52703
USER: genes 14 Torsion [N]-CA--C-[N] |==|  0.45224
USER: genes 15 Torsion [C]-N--CA-[C] |==|  0.68369
USER: genes 16 Torsion [N]-CA--C-[N] |==|  0.34678
USER: genes 17 Torsion [C]-N--CA-[C] |==|  0.67308
USER: genes 18 Torsion [N]-CA--C-[O] |==|  0.99962
USER: genes 19 Torsion [N]-CA--CB-[CG] |==|  0.64798
USER: genes 20 Torsion [CA]-CB--CG-[CD] |==|  0.24137
USER: genes 21 Torsion [CB]-CG--CD-[NE] |==|  0.83206
USER: genes 22 Torsion [CG]-CD--NE-[CZ] |==|  0.54178
USER: genes 23 Torsion [N]-CA--CB-[CG] |==|  0.86482
USER: genes 24 Torsion [CA]-CB--CG-[CD1] |==|  0.54457
USER: genes 25 Torsion [N]-CA--CB-[CG] |==|  0.89086
USER: genes 26 Torsion [CA]-CB--CG-[CD] |==|  0.74474
USER: genes 27 Torsion [CB]-CG--CD-[NE] |==|  0.45683
USER: genes 28 Torsion [CG]-CD--NE-[HE] |==|  0.91286
ROOT
ATOM      1  CA  ARG X 129       1.507  11.942  -8.029  1.00 23.09 LIG 0.18  C 
ENDROOT
BRANCH 1 2
ATOM      2  N   ARG X 129       0.542  11.022  -8.617  1.00 20.82 LIG-0.35  N 
ATOM      3  C   ARG X 128      -0.623  11.382  -9.158  1.00 20.67 LIG 0.24  C 
ATOM      4 O    ARG X 128      -1.053  12.563  -9.200  1.00 18.99 LIG-0.27  OA
ATOM      5 H    ARG X 129       0.798  10.202  -8.583  1.00 20.82 LIG 0.16  HD
BRANCH 3 6
ATOM      6  CA  ARG X 128      -1.444  10.244  -9.761  1.00 21.45 LIG 0.18  C 
BRANCH 6 7
ATOM      7  CB  ARG X 128      -1.399  10.290 -11.278  1.00 22.98 LIG 0.04  C 
BRANCH 7 8
ATOM      8  CG  ARG X 128      -0.078  10.918 -11.768  1.00 26.06 LIG 0.02  C 
BRANCH 8 9
ATOM      9  CD  ARG X 128      -0.149  11.780 -13.101  1.00 28.46 LIG 0.14  C 
BRANCH 9 10
ATOM     10  NE  ARG X 128       0.983  12.527 -13.631  1.00 34.87 LIG-0.23  N 
ATOM     11 HE   ARG X 128       1.766  12.279 -13.378  1.00 34.87 LIG 0.18  HD
ATOM     12  CZ  ARG X 128       0.921  13.565 -14.475  1.00 35.06 LIG 0.67  C 
ATOM     13  NH1 ARG X 128      -0.226  14.075 -14.885  1.00 38.28 LIG-0.23  N 
ATOM     14  NH2 ARG X 128       2.028  14.119 -14.880  1.00 41.06 LIG-0.23  N 
ATOM     15 1HH1 ARG X 128      -0.968  13.740 -14.609  1.00 38.28 LIG 0.17  HD
ATOM     16 2HH1 ARG X 128      -0.231  14.742 -15.428  1.00 38.28 LIG 0.17  HD
ATOM     17 1HH2 ARG X 128       2.786  13.817 -14.605  1.00 41.06 LIG 0.17  HD
ATOM     18 2HH2 ARG X 128       2.003  14.786 -15.423  1.00 41.06 LIG 0.17  HD
ENDBRANCH 9 10
ENDBRANCH 8 9
ENDBRANCH 7 8
ENDBRANCH 6 7
BRANCH 6 19
ATOM     19  N   ARG X 128      -2.824  10.337  -9.367  1.00 22.62 LIG-0.35  N 
ATOM     20 H    ARG X 128      -3.322  10.761  -9.926  1.00 22.62 LIG 0.16  HD
ATOM     21  C   ALA X 127      -3.272   9.810  -8.235  1.00 23.78 LIG 0.24  C 
ATOM     22 O    ALA X 127      -2.566   9.152  -7.476  1.00 22.39 LIG-0.27  OA
BRANCH 21 23
ATOM     23  CA  ALA X 127      -4.783   9.945  -7.981  1.00 25.08 LIG 0.17  C 
ATOM     24  CB  ALA X 127      -5.318  11.308  -8.398  1.00 24.37 LIG 0.04  C 
BRANCH 23 25
ATOM     25  N   ALA X 127      -5.015   9.664  -6.569  1.00 27.78 LIG-0.35  N 
ATOM     26  C   LEU X 126      -6.280   9.433  -6.220  1.00 33.19 LIG 0.26  C 
ATOM     27 O    LEU X 126      -7.231   9.369  -7.060  1.00 34.96 LIG-0.27  OA
ATOM     28 H    ALA X 127      -4.328   9.664  -6.051  1.00 27.78 LIG 0.16  HD
BRANCH 26 29
ATOM     29  CA  LEU X 126      -6.557   9.256  -4.756  1.00 34.21 LIG 0.40  C 
ATOM     30  N   LEU X 126      -6.498  10.541  -4.031  1.00 36.42 LIG 0.61  N 
BRANCH 29 31
ATOM     31  CB  LEU X 126      -7.948   8.601  -4.618  1.00 35.53 LIG 0.06  C 
BRANCH 31 32
ATOM     32  CG  LEU X 126      -8.104   7.618  -3.450  1.00 35.00 LIG-0.02  C 
ATOM     33  CD2 LEU X 126      -9.453   6.865  -3.585  1.00 38.18 LIG 0.01  C 
ATOM     34  CD1 LEU X 126      -8.042   8.320  -2.133  1.00 36.44 LIG 0.01  C 
ENDBRANCH 31 32
ENDBRANCH 29 31
ENDBRANCH 26 29
ENDBRANCH 23 25
ENDBRANCH 21 23
ENDBRANCH 6 19
ENDBRANCH 3 6
ENDBRANCH 1 2
BRANCH 1 35
ATOM     35  C   ARG X 129       2.893  11.866  -8.725  1.00 22.72 LIG 0.24  C 
ATOM     36  N   LEU X 130       3.795  12.850  -8.569  1.00 24.32 LIG-0.35  N 
ATOM     37 H    LEU X 130       3.641  13.603  -8.182  1.00 24.32 LIG 0.16  HD
ATOM     38 O    ARG X 129       3.145  10.874  -9.409  1.00 21.19 LIG-0.27  OA
BRANCH 36 39
ATOM     39  CA  LEU X 130       5.174  12.670  -9.086  1.00 26.11 LIG 0.18  C 
BRANCH 39 40
ATOM     40  C   LEU X 130       6.188  12.615  -7.968  1.00 29.66 LIG 0.24  C 
ATOM     41 O    LEU X 130       6.275  13.559  -7.167  1.00 28.98 LIG-0.27  OA
ATOM     42  N   ARG X 131       6.982  11.549  -7.926  1.00 30.67 LIG-0.34  N 
ATOM     43 H    ARG X 131       6.886  10.856  -8.426  1.00 30.67 LIG 0.16  HD
BRANCH 42 44
ATOM     44  CA  ARG X 131       8.097  11.480  -7.006  1.00 33.89 LIG 0.18  C 
BRANCH 44 45
ATOM     45  C   ARG X 131       9.437  11.376  -7.736  1.00 35.66 LIG 0.20  C 
ATOM     46 OXT  ARG X 131      10.524  11.331  -7.120  1.00 35.07 LIG-0.65  OA
ATOM     47 O    ARG X 131       9.492  11.355  -9.002  1.00 37.10 LIG-0.65  OA
ENDBRANCH 44 45
BRANCH 44 48
ATOM     48  CB  ARG X 131       7.914  10.278  -6.073  1.00 35.20 LIG 0.04  C 
BRANCH 48 49
ATOM     49  CG  ARG X 131       8.000  10.633  -4.577  1.00 40.01 LIG 0.02  C 
BRANCH 49 50
ATOM     50  CD  ARG X 131       6.652  11.085  -3.955  1.00 47.84 LIG 0.14  C 
BRANCH 50 51
ATOM     51  NE  ARG X 131       6.146  12.283  -4.626  1.00 52.72 LIG-0.23  N 
ATOM     52  CZ  ARG X 131       5.179  13.077  -4.159  1.00 57.07 LIG 0.67  C 
ATOM     53  NH1 ARG X 131       4.598  12.833  -2.972  1.00 58.64 LIG-0.23  N 
ATOM     54  NH2 ARG X 131       4.797  14.133  -4.881  1.00 59.02 LIG-0.23  N 
ATOM     55 2HH1 ARG X 131       3.976  13.351  -2.683  1.00 58.64 LIG 0.17  HD
ATOM     56 1HH1 ARG X 131       4.847  12.157  -2.502  1.00 58.64 LIG 0.17  HD
ATOM     57 2HH2 ARG X 131       4.175  14.651  -4.590  1.00 59.02 LIG 0.17  HD
ATOM     58 1HH2 ARG X 131       5.173  14.295  -5.637  1.00 59.02 LIG 0.17  HD
ATOM     59 HE   ARG X 131       6.500  12.492  -5.381  1.00 52.72 LIG 0.18  HD
ENDBRANCH 50 51
ENDBRANCH 49 50
ENDBRANCH 48 49
ENDBRANCH 44 48
ENDBRANCH 42 44
ENDBRANCH 39 40
BRANCH 39 60
ATOM     60  CB  LEU X 130       5.612  13.788 -10.037  1.00 27.29 LIG 0.04  C 
BRANCH 60 61
ATOM     61  CG  LEU X 130       4.718  14.231 -11.183  1.00 26.34 LIG-0.02  C 
ATOM     62  CD1 LEU X 130       5.479  15.074 -12.257  1.00 29.54 LIG 0.01  C 
ATOM     63  CD2 LEU X 130       4.132  13.009 -11.815  1.00 21.56 LIG 0.01  C 
ENDBRANCH 60 61
ENDBRANCH 39 60
ENDBRANCH 36 39
ENDBRANCH 1 35
BRANCH 1 64
ATOM     64  CB  ARG X 129       1.627  11.415  -6.582  1.00 24.17 LIG 0.04  C 
BRANCH 64 65
ATOM     65  CG  ARG X 129       0.406  10.954  -5.918  1.00 28.32 LIG 0.02  C 
BRANCH 65 66
ATOM     66  CD  ARG X 129      -0.316  12.019  -5.113  1.00 31.43 LIG 0.14  C 
BRANCH 66 67
ATOM     67  NE  ARG X 129      -1.702  11.710  -4.732  1.00 29.42 LIG-0.23  N 
ATOM     68  CZ  ARG X 129      -2.305  12.129  -3.626  1.00 30.66 LIG 0.67  C 
ATOM     69  NH1 ARG X 129      -1.641  12.809  -2.694  1.00 33.32 LIG-0.23  N 
ATOM     70  NH2 ARG X 129      -3.593  11.828  -3.426  1.00 29.67 LIG-0.23  N 
ATOM     71 2HH1 ARG X 129      -2.047  13.073  -1.983  1.00 33.32 LIG 0.17  HD
ATOM     72 1HH1 ARG X 129      -0.806  12.984  -2.802  1.00 33.32 LIG 0.17  HD
ATOM     73 2HH2 ARG X 129      -3.992  12.095  -2.712  1.00 29.67 LIG 0.17  HD
ATOM     74 1HH2 ARG X 129      -4.023  11.367  -4.011  1.00 29.67 LIG 0.17  HD
ATOM     75 HE   ARG X 129      -2.159  11.217  -5.269  1.00 29.42 LIG 0.18  HD
ENDBRANCH 66 67
ENDBRANCH 65 66
ENDBRANCH 64 65
ENDBRANCH 1 64
TORSDOF 27
ENDMDL
MODEL 9
USER: ADFR SOLUTION from run 194
USER: SCORE 30.009478 LL:  -4.592 LR: -26.058 RR:   0.000 FEB: -18.003
USER: RMSD 12.909782
USER: SEED 193
USER: STATUS searching
USER: GENES 29
USER: genes 0 Translation |==|  0.57486 0.41963 0.41798
USER: genes 1 Rotation |==|  0.50828 0.04163 0.30087 0.51315
USER: genes 2 Torsion [C]-CA--N-[C] |==|  0.63141
USER: genes 3 Torsion [N]-C--CA-[N] |==|  0.87322
USER: genes 4 Torsion [C]-CA--CB-[CG] |==|  0.38706
USER: genes 5 Torsion [CA]-CB--CG-[CD] |==|  0.27341
USER: genes 6 Torsion [CB]-CG--CD-[NE] |==|  0.62124
USER: genes 7 Torsion [CG]-CD--NE-[HE] |==|  0.02246
USER: genes 8 Torsion [C]-CA--N-[C] |==|  0.68409
USER: genes 9 Torsion [N]-C--CA-[N] |==|  0.38234
USER: genes 10 Torsion [C]-CA--N-[C] |==|  0.81386
USER: genes 11 Torsion [N]-C--CA-[N] |==|  0.95004
USER: genes 12 Torsion [C]-CA--CB-[CG] |==|  0.72374
USER: genes 13 Torsion [CA]-CB--CG-[CD2] |==|  0.69766
USER: genes 14 Torsion [N]-CA--C-[N] |==|  0.37027
USER: genes 15 Torsion [C]-N--CA-[C] |==|  0.77580
USER: genes 16 Torsion [N]-CA--C-[N] |==|  0.39680
USER: genes 17 Torsion [C]-N--CA-[C] |==|  0.69956
USER: genes 18 Torsion [N]-CA--C-[O] |==|  0.46884
USER: genes 19 Torsion [N]-CA--CB-[CG] |==|  0.60854
USER: genes 20 Torsion [CA]-CB--CG-[CD] |==|  0.99548
USER: genes 21 Torsion [CB]-CG--CD-[NE] |==|  0.72724
USER: genes 22 Torsion [CG]-CD--NE-[CZ] |==|  0.53610
USER: genes 23 Torsion [N]-CA--CB-[CG] |==|  0.79296
USER: genes 24 Torsion [CA]-CB--CG-[CD1] |==|  0.62853
USER: genes 25 Torsion [N]-CA--CB-[CG] |==|  0.58015
USER: genes 26 Torsion [CA]-CB--CG-[CD] |==|  0.91303
USER: genes 27 Torsion [CB]-CG--CD-[NE] |==|  0.41690
USER: genes 28 Torsion [CG]-CD--NE-[HE] |==|  0.98149
ROOT
ATOM      1  CA  ARG X 129       4.473  12.291  -9.022  1.00 23.09 LIG 0.18  C 
ENDROOT
BRANCH 1 2
ATOM      2  N   ARG X 129       3.241  12.314  -8.244  1.00 20.82 LIG-0.35  N 
ATOM      3  C   ARG X 128       2.295  11.376  -8.287  1.00 20.67 LIG 0.24  C 
ATOM      4 O    ARG X 128       2.331  10.362  -9.031  1.00 18.99 LIG-0.27  OA
ATOM      5 H    ARG X 129       3.177  13.008  -7.740  1.00 20.82 LIG 0.16  HD
BRANCH 3 6
ATOM      6  CA  ARG X 128       1.116  11.591  -7.339  1.00 21.45 LIG 0.18  C 
BRANCH 6 7
ATOM      7  CB  ARG X 128       0.214  12.703  -7.841  1.00 22.98 LIG 0.04  C 
BRANCH 7 8
ATOM      8  CG  ARG X 128      -1.270  12.336  -7.642  1.00 26.06 LIG 0.02  C 
BRANCH 8 9
ATOM      9  CD  ARG X 128      -1.990  12.942  -6.361  1.00 28.46 LIG 0.14  C 
BRANCH 9 10
ATOM     10  NE  ARG X 128      -2.873  12.169  -5.500  1.00 34.87 LIG-0.23  N 
ATOM     11 HE   ARG X 128      -2.917  11.323  -5.646  1.00 34.87 LIG 0.18  HD
ATOM     12  CZ  ARG X 128      -3.626  12.650  -4.501  1.00 35.06 LIG 0.67  C 
ATOM     13  NH1 ARG X 128      -3.689  13.939  -4.222  1.00 38.28 LIG-0.23  N 
ATOM     14  NH2 ARG X 128      -4.351  11.825  -3.801  1.00 41.06 LIG-0.23  N 
ATOM     15 1HH1 ARG X 128      -3.237  14.502  -4.688  1.00 38.28 LIG 0.17  HD
ATOM     16 2HH1 ARG X 128      -4.182  14.215  -3.574  1.00 38.28 LIG 0.17  HD
ATOM     17 1HH2 ARG X 128      -4.343  10.984  -3.983  1.00 41.06 LIG 0.17  HD
ATOM     18 2HH2 ARG X 128      -4.839  12.121  -3.157  1.00 41.06 LIG 0.17  HD
ENDBRANCH 9 10
ENDBRANCH 8 9
ENDBRANCH 7 8
ENDBRANCH 6 7
BRANCH 6 19
ATOM     19  N   ARG X 128       1.572  11.963  -6.026  1.00 22.62 LIG-0.35  N 
ATOM     20 H    ARG X 128       1.957  12.731  -5.992  1.00 22.62 LIG 0.16  HD
ATOM     21  C   ALA X 127       1.402  11.177  -4.971  1.00 23.78 LIG 0.24  C 
ATOM     22 O    ALA X 127       0.793  10.111  -5.019  1.00 22.39 LIG-0.27  OA
BRANCH 21 23
ATOM     23  CA  ALA X 127       1.893  11.739  -3.627  1.00 25.08 LIG 0.17  C 
ATOM     24  CB  ALA X 127       3.272  11.212  -3.251  1.00 24.37 LIG 0.04  C 
BRANCH 23 25
ATOM     25  N   ALA X 127       0.884  11.419  -2.624  1.00 27.78 LIG-0.35  N 
ATOM     26  C   LEU X 126      -0.291  12.034  -2.762  1.00 33.19 LIG 0.26  C 
ATOM     27 O    LEU X 126      -0.568  12.788  -3.746  1.00 34.96 LIG-0.27  OA
ATOM     28 H    ALA X 127       1.104  10.859  -2.010  1.00 27.78 LIG 0.16  HD
BRANCH 26 29
ATOM     29  CA  LEU X 126      -1.305  11.808  -1.679  1.00 34.21 LIG 0.40  C 
ATOM     30  N   LEU X 126      -0.979  10.617  -0.869  1.00 36.42 LIG 0.61  N 
BRANCH 29 31
ATOM     31  CB  LEU X 126      -1.349  13.080  -0.806  1.00 35.53 LIG 0.06  C 
BRANCH 31 32
ATOM     32  CG  LEU X 126      -0.553  13.013   0.504  1.00 35.00 LIG-0.02  C 
ATOM     33  CD2 LEU X 126      -1.534  12.944   1.702  1.00 38.18 LIG 0.01  C 
ATOM     34  CD1 LEU X 126       0.351  14.194   0.653  1.00 36.44 LIG 0.01  C 
ENDBRANCH 31 32
ENDBRANCH 29 31
ENDBRANCH 26 29
ENDBRANCH 23 25
ENDBRANCH 21 23
ENDBRANCH 6 19
ENDBRANCH 3 6
ENDBRANCH 1 2
BRANCH 1 35
ATOM     35  C   ARG X 129       5.723  12.606  -8.156  1.00 22.72 LIG 0.24  C 
ATOM     36  N   LEU X 130       6.829  11.847  -8.243  1.00 24.32 LIG-0.35  N 
ATOM     37 H    LEU X 130       6.886  11.108  -8.679  1.00 24.32 LIG 0.16  HD
ATOM     38 O    ARG X 129       5.676  13.578  -7.401  1.00 21.19 LIG-0.27  OA
BRANCH 36 39
ATOM     39  CA  LEU X 130       8.069  12.275  -7.550  1.00 26.11 LIG 0.18  C 
BRANCH 39 40
ATOM     40  C   LEU X 130       8.821  13.319  -8.342  1.00 29.66 LIG 0.24  C 
ATOM     41 O    LEU X 130       8.890  13.224  -9.577  1.00 28.98 LIG-0.27  OA
ATOM     42  N   ARG X 131       9.418  14.285  -7.650  1.00 30.67 LIG-0.34  N 
ATOM     43 H    ARG X 131       9.319  14.405  -6.804  1.00 30.67 LIG 0.16  HD
BRANCH 42 44
ATOM     44  CA  ARG X 131      10.305  15.230  -8.295  1.00 33.89 LIG 0.18  C 
BRANCH 44 45
ATOM     45  C   ARG X 131      11.769  14.987  -7.924  1.00 35.66 LIG 0.20  C 
ATOM     46 OXT  ARG X 131      12.095  14.228  -6.985  1.00 35.07 LIG-0.65  OA
ATOM     47 O    ARG X 131      12.706  15.570  -8.545  1.00 37.10 LIG-0.65  OA
ENDBRANCH 44 45
BRANCH 44 48
ATOM     48  CB  ARG X 131       9.896  16.656  -7.910  1.00 35.20 LIG 0.04  C 
BRANCH 48 49
ATOM     49  CG  ARG X 131       9.998  17.666  -9.068  1.00 40.01 LIG 0.02  C 
BRANCH 49 50
ATOM     50  CD  ARG X 131      10.533  17.058 -10.392  1.00 47.84 LIG 0.14  C 
BRANCH 50 51
ATOM     51  NE  ARG X 131      11.962  17.328 -10.549  1.00 52.72 LIG-0.23  N 
ATOM     52  CZ  ARG X 131      12.659  17.159 -11.675  1.00 57.07 LIG 0.67  C 
ATOM     53  NH1 ARG X 131      12.061  16.736 -12.801  1.00 58.64 LIG-0.23  N 
ATOM     54  NH2 ARG X 131      13.967  17.428 -11.678  1.00 59.02 LIG-0.23  N 
ATOM     55 2HH1 ARG X 131      12.521  16.631 -13.520  1.00 58.64 LIG 0.17  HD
ATOM     56 1HH1 ARG X 131      11.217  16.569 -12.803  1.00 58.64 LIG 0.17  HD
ATOM     57 2HH2 ARG X 131      14.426  17.323 -12.398  1.00 59.02 LIG 0.17  HD
ATOM     58 1HH2 ARG X 131      14.351  17.706 -10.961  1.00 59.02 LIG 0.17  HD
ATOM     59 HE   ARG X 131      12.387  17.619  -9.860  1.00 52.72 LIG 0.18  HD
ENDBRANCH 50 51
ENDBRANCH 49 50
ENDBRANCH 48 49
ENDBRANCH 44 48
ENDBRANCH 42 44
ENDBRANCH 39 40
BRANCH 39 60
ATOM     60  CB  LEU X 130       9.042  11.122  -7.288  1.00 27.29 LIG 0.04  C 
BRANCH 60 61
ATOM     61  CG  LEU X 130       8.766  10.103  -6.193  1.00 26.34 LIG-0.02  C 
ATOM     62  CD1 LEU X 130      10.019   9.813  -5.304  1.00 29.54 LIG 0.01  C 
ATOM     63  CD2 LEU X 130       7.648  10.621  -5.347  1.00 21.56 LIG 0.01  C 
ENDBRANCH 60 61
ENDBRANCH 39 60
ENDBRANCH 36 39
ENDBRANCH 1 35
BRANCH 1 64
ATOM     64  CB  ARG X 129       4.247  13.434 -10.036  1.00 24.17 LIG 0.04  C 
BRANCH 64 65
ATOM     65  CG  ARG X 129       4.905  13.333 -11.339  1.00 28.32 LIG 0.02  C 
BRANCH 65 66
ATOM     66  CD  ARG X 129       6.236  12.604 -11.319  1.00 31.43 LIG 0.14  C 
BRANCH 66 67
ATOM     67  NE  ARG X 129       6.597  11.889 -12.552  1.00 29.42 LIG-0.23  N 
ATOM     68  CZ  ARG X 129       7.765  11.300 -12.782  1.00 30.66 LIG 0.67  C 
ATOM     69  NH1 ARG X 129       8.771  11.400 -11.917  1.00 33.32 LIG-0.23  N 
ATOM     70  NH2 ARG X 129       7.946  10.626 -13.925  1.00 29.67 LIG-0.23  N 
ATOM     71 2HH1 ARG X 129       9.521  11.012 -12.082  1.00 33.32 LIG 0.17  HD
ATOM     72 1HH1 ARG X 129       8.672  11.853 -11.193  1.00 33.32 LIG 0.17  HD
ATOM     73 2HH2 ARG X 129       8.699  10.242 -14.082  1.00 29.67 LIG 0.17  HD
ATOM     74 1HH2 ARG X 129       7.310  10.578 -14.501  1.00 29.67 LIG 0.17  HD
ATOM     75 HE   ARG X 129       6.005  11.849 -13.174  1.00 29.42 LIG 0.18  HD
ENDBRANCH 66 67
ENDBRANCH 65 66
ENDBRANCH 64 65
ENDBRANCH 1 64
TORSDOF 27
ENDMDL
MODEL 10
USER: ADFR SOLUTION from run 160
USER: SCORE 29.320495 LL:  -4.368 LR: -26.053 RR:   0.000 FEB: -17.999
USER: RMSD 10.802247
USER: SEED 159
USER: STATUS no improvement in best in 7 clusters for 5 generations
USER: GENES 29
USER: genes 0 Translation |==|  0.44623 0.38438 0.53626
USER: genes 1 Rotation |==|  0.32282 0.15009 0.34622 0.76931
USER: genes 2 Torsion [C]-CA--N-[C] |==|  0.70556
USER: genes 3 Torsion [N]-C--CA-[N] |==|  0.85868
USER: genes 4 Torsion [C]-CA--CB-[CG] |==|  0.15713
USER: genes 5 Torsion [CA]-CB--CG-[CD] |==|  0.30462
USER: genes 6 Torsion [CB]-CG--CD-[NE] |==|  0.13870
USER: genes 7 Torsion [CG]-CD--NE-[HE] |==|  0.87187
USER: genes 8 Torsion [C]-CA--N-[C] |==|  0.73274
USER: genes 9 Torsion [N]-C--CA-[N] |==|  0.13582
USER: genes 10 Torsion [C]-CA--N-[C] |==|  0.17626
USER: genes 11 Torsion [N]-C--CA-[N] |==|  0.35291
USER: genes 12 Torsion [C]-CA--CB-[CG] |==|  0.17353
USER: genes 13 Torsion [CA]-CB--CG-[CD2] |==|  0.68326
USER: genes 14 Torsion [N]-CA--C-[N] |==|  0.87291
USER: genes 15 Torsion [C]-N--CA-[C] |==|  0.65405
USER: genes 16 Torsion [N]-CA--C-[N] |==|  0.40536
USER: genes 17 Torsion [C]-N--CA-[C] |==|  0.66412
USER: genes 18 Torsion [N]-CA--C-[O] |==|  0.84905
USER: genes 19 Torsion [N]-CA--CB-[CG] |==|  0.61172
USER: genes 20 Torsion [CA]-CB--CG-[CD] |==|  0.79845
USER: genes 21 Torsion [CB]-CG--CD-[NE] |==|  0.23005
USER: genes 22 Torsion [CG]-CD--NE-[CZ] |==|  0.55121
USER: genes 23 Torsion [N]-CA--CB-[CG] |==|  0.66616
USER: genes 24 Torsion [CA]-CB--CG-[CD1] |==|  0.77003
USER: genes 25 Torsion [N]-CA--CB-[CG] |==|  0.71672
USER: genes 26 Torsion [CA]-CB--CG-[CD] |==|  0.11298
USER: genes 27 Torsion [CB]-CG--CD-[NE] |==|  0.27585
USER: genes 28 Torsion [CG]-CD--NE-[HE] |==|  0.86420
ROOT
ATOM      1  CA  ARG X 129       0.904  11.709  -6.360  1.00 23.09 LIG 0.18  C 
ENDROOT
BRANCH 1 2
ATOM      2  N   ARG X 129       1.419  11.895  -5.010  1.00 20.82 LIG-0.35  N 
ATOM      3  C   ARG X 128       1.444  10.952  -4.067  1.00 20.67 LIG 0.24  C 
ATOM      4 O    ARG X 128       0.995   9.786  -4.215  1.00 18.99 LIG-0.27  OA
ATOM      5 H    ARG X 129       1.715  12.690  -4.871  1.00 20.82 LIG 0.16  HD
BRANCH 3 6
ATOM      6  CA  ARG X 128       2.084  11.366  -2.743  1.00 21.45 LIG 0.18  C 
BRANCH 6 7
ATOM      7  CB  ARG X 128       1.227  12.395  -2.028  1.00 22.98 LIG 0.04  C 
BRANCH 7 8
ATOM      8  CG  ARG X 128      -0.200  11.856  -1.801  1.00 26.06 LIG 0.02  C 
BRANCH 8 9
ATOM      9  CD  ARG X 128      -0.603  11.511  -0.303  1.00 28.46 LIG 0.14  C 
BRANCH 9 10
ATOM     10  NE  ARG X 128      -0.404  12.429   0.810  1.00 34.87 LIG-0.23  N 
ATOM     11 HE   ARG X 128       0.361  12.819   0.861  1.00 34.87 LIG 0.18  HD
ATOM     12  CZ  ARG X 128      -1.298  12.724   1.763  1.00 35.06 LIG 0.67  C 
ATOM     13  NH1 ARG X 128      -2.482  12.143   1.824  1.00 38.28 LIG-0.23  N 
ATOM     14  NH2 ARG X 128      -0.979  13.586   2.686  1.00 41.06 LIG-0.23  N 
ATOM     15 1HH1 ARG X 128      -2.703  11.552   1.240  1.00 38.28 LIG 0.17  HD
ATOM     16 2HH1 ARG X 128      -3.034  12.355   2.449  1.00 38.28 LIG 0.17  HD
ATOM     17 1HH2 ARG X 128      -0.203  13.957   2.678  1.00 41.06 LIG 0.17  HD
ATOM     18 2HH2 ARG X 128      -1.544  13.785   3.303  1.00 41.06 LIG 0.17  HD
ENDBRANCH 9 10
ENDBRANCH 8 9
ENDBRANCH 7 8
ENDBRANCH 6 7
BRANCH 6 19
ATOM     19  N   ARG X 128       3.378  11.956  -2.958  1.00 22.62 LIG-0.35  N 
ATOM     20 H    ARG X 128       3.355  12.793  -3.155  1.00 22.62 LIG 0.16  HD
ATOM     21  C   ALA X 127       4.499  11.254  -2.857  1.00 23.78 LIG 0.24  C 
ATOM     22 O    ALA X 127       4.525  10.075  -2.512  1.00 22.39 LIG-0.27  OA
BRANCH 21 23
ATOM     23  CA  ALA X 127       5.806  12.039  -3.060  1.00 25.08 LIG 0.17  C 
ATOM     24  CB  ALA X 127       7.038  11.195  -2.759  1.00 24.37 LIG 0.04  C 
BRANCH 23 25
ATOM     25  N   ALA X 127       5.733  13.234  -2.228  1.00 27.78 LIG-0.35  N 
ATOM     26  C   LEU X 126       5.667  13.026  -0.913  1.00 33.19 LIG 0.26  C 
ATOM     27 O    LEU X 126       5.750  11.873  -0.388  1.00 34.96 LIG-0.27  OA
ATOM     28 H    ALA X 127       5.736  13.993  -2.631  1.00 27.78 LIG 0.16  HD
BRANCH 26 29
ATOM     29  CA  LEU X 126       5.476  14.236  -0.046  1.00 34.21 LIG 0.40  C 
ATOM     30  N   LEU X 126       4.328  14.073   0.868  1.00 36.42 LIG 0.61  N 
BRANCH 29 31
ATOM     31  CB  LEU X 126       6.785  14.461   0.739  1.00 35.53 LIG 0.06  C 
BRANCH 31 32
ATOM     32  CG  LEU X 126       8.025  14.763  -0.114  1.00 35.00 LIG-0.02  C 
ATOM     33  CD2 LEU X 126       9.041  13.599   0.021  1.00 38.18 LIG 0.01  C 
ATOM     34  CD1 LEU X 126       8.667  16.050   0.293  1.00 36.44 LIG 0.01  C 
ENDBRANCH 31 32
ENDBRANCH 29 31
ENDBRANCH 26 29
ENDBRANCH 23 25
ENDBRANCH 21 23
ENDBRANCH 6 19
ENDBRANCH 3 6
ENDBRANCH 1 2
BRANCH 1 35
ATOM     35  C   ARG X 129       2.038  11.619  -7.417  1.00 22.72 LIG 0.24  C 
ATOM     36  N   LEU X 130       3.060  12.491  -7.404  1.00 24.32 LIG-0.35  N 
ATOM     37 H    LEU X 130       3.105  13.191  -6.906  1.00 24.32 LIG 0.16  HD
ATOM     38 O    ARG X 129       1.980  10.718  -8.254  1.00 21.19 LIG-0.27  OA
BRANCH 36 39
ATOM     39  CA  LEU X 130       4.222  12.273  -8.301  1.00 26.11 LIG 0.18  C 
BRANCH 39 40
ATOM     40  C   LEU X 130       5.522  12.231  -7.533  1.00 29.66 LIG 0.24  C 
ATOM     41 O    LEU X 130       5.680  12.970  -6.548  1.00 28.98 LIG-0.27  OA
ATOM     42  N   ARG X 131       6.465  11.413  -7.990  1.00 30.67 LIG-0.34  N 
ATOM     43 H    ARG X 131       6.346  10.844  -8.623  1.00 30.67 LIG 0.16  HD
BRANCH 42 44
ATOM     44  CA  ARG X 131       7.802  11.425  -7.434  1.00 33.89 LIG 0.18  C 
BRANCH 44 45
ATOM     45  C   ARG X 131       8.859  11.742  -8.493  1.00 35.66 LIG 0.20  C 
ATOM     46 OXT  ARG X 131       9.666  12.689  -8.359  1.00 35.07 LIG-0.65  OA
ATOM     47 O    ARG X 131       8.939  11.064  -9.560  1.00 37.10 LIG-0.65  OA
ENDBRANCH 44 45
BRANCH 44 48
ATOM     48  CB  ARG X 131       8.097  10.067  -6.788  1.00 35.20 LIG 0.04  C 
BRANCH 48 49
ATOM     49  CG  ARG X 131       8.865  10.166  -5.456  1.00 40.01 LIG 0.02  C 
BRANCH 49 50
ATOM     50  CD  ARG X 131      10.356  10.566  -5.614  1.00 47.84 LIG 0.14  C 
BRANCH 50 51
ATOM     51  NE  ARG X 131      10.495  12.017  -5.738  1.00 52.72 LIG-0.23  N 
ATOM     52  CZ  ARG X 131      11.566  12.649  -6.226  1.00 57.07 LIG 0.67  C 
ATOM     53  NH1 ARG X 131      12.626  11.962  -6.682  1.00 58.64 LIG-0.23  N 
ATOM     54  NH2 ARG X 131      11.571  13.984  -6.268  1.00 59.02 LIG-0.23  N 
ATOM     55 2HH1 ARG X 131      13.309  12.381  -6.993  1.00 58.64 LIG 0.17  HD
ATOM     56 1HH1 ARG X 131      12.622  11.102  -6.663  1.00 58.64 LIG 0.17  HD
ATOM     57 2HH2 ARG X 131      12.256  14.402  -6.579  1.00 59.02 LIG 0.17  HD
ATOM     58 1HH2 ARG X 131      10.891  14.426  -5.983  1.00 59.02 LIG 0.17  HD
ATOM     59 HE   ARG X 131       9.835  12.501  -5.476  1.00 52.72 LIG 0.18  HD
ENDBRANCH 50 51
ENDBRANCH 49 50
ENDBRANCH 48 49
ENDBRANCH 44 48
ENDBRANCH 42 44
ENDBRANCH 39 40
BRANCH 39 60
ATOM     60  CB  LEU X 130       4.368  13.357  -9.373  1.00 27.29 LIG 0.04  C 
BRANCH 60 61
ATOM     61  CG  LEU X 130       4.323  13.002 -10.851  1.00 26.34 LIG-0.02  C 
ATOM     62  CD1 LEU X 130       5.699  12.498 -11.396  1.00 29.54 LIG 0.01  C 
ATOM     63  CD2 LEU X 130       3.280  11.950 -11.045  1.00 21.56 LIG 0.01  C 
ENDBRANCH 60 61
ENDBRANCH 39 60
ENDBRANCH 36 39
ENDBRANCH 1 35
BRANCH 1 64
ATOM     64  CB  ARG X 129       0.091  13.004  -6.585  1.00 24.17 LIG 0.04  C 
BRANCH 64 65
ATOM     65  CG  ARG X 129      -1.366  12.927  -6.460  1.00 28.32 LIG 0.02  C 
BRANCH 65 66
ATOM     66  CD  ARG X 129      -1.856  12.066  -5.310  1.00 31.43 LIG 0.14  C 
BRANCH 66 67
ATOM     67  NE  ARG X 129      -2.254  12.785  -4.091  1.00 29.42 LIG-0.23  N 
ATOM     68  CZ  ARG X 129      -3.388  12.597  -3.426  1.00 30.66 LIG 0.67  C 
ATOM     69  NH1 ARG X 129      -4.332  11.779  -3.887  1.00 33.32 LIG-0.23  N 
ATOM     70  NH2 ARG X 129      -3.603  13.274  -2.291  1.00 29.67 LIG-0.23  N 
ATOM     71 2HH1 ARG X 129      -5.060  11.669  -3.443  1.00 33.32 LIG 0.17  HD
ATOM     72 1HH1 ARG X 129      -4.213  11.361  -4.628  1.00 33.32 LIG 0.17  HD
ATOM     73 2HH2 ARG X 129      -4.335  13.159  -1.854  1.00 29.67 LIG 0.17  HD
ATOM     74 1HH2 ARG X 129      -3.010  13.824  -1.999  1.00 29.67 LIG 0.17  HD
ATOM     75 HE   ARG X 129      -1.709  13.374  -3.784  1.00 29.42 LIG 0.18  HD
ENDBRANCH 66 67
ENDBRANCH 65 66
ENDBRANCH 64 65
ENDBRANCH 1 64
TORSDOF 27
ENDMDL
MODEL 11
USER: ADFR SOLUTION from run 19
USER: SCORE 29.192922 LL:  -3.831 LR: -25.994 RR:   0.000 FEB: -17.940
USER: RMSD 1.949676
USER: SEED 18
USER: STATUS no improvement in best in 4 clusters for 5 generations
USER: GENES 29
USER: genes 0 Translation |==|  0.44802 0.39714 0.48603
USER: genes 1 Rotation |==|  0.45690 0.47405 0.49748 0.99746
USER: genes 2 Torsion [C]-CA--N-[C] |==|  0.70808
USER: genes 3 Torsion [N]-C--CA-[N] |==|  0.32730
USER: genes 4 Torsion [C]-CA--CB-[CG] |==|  0.52031
USER: genes 5 Torsion [CA]-CB--CG-[CD] |==|  0.42389
USER: genes 6 Torsion [CB]-CG--CD-[NE] |==|  0.69011
USER: genes 7 Torsion [CG]-CD--NE-[HE] |==|  0.88742
USER: genes 8 Torsion [C]-CA--N-[C] |==|  0.67778
USER: genes 9 Torsion [N]-C--CA-[N] |==|  0.36205
USER: genes 10 Torsion [C]-CA--N-[C] |==|  0.79305
USER: genes 11 Torsion [N]-C--CA-[N] |==|  0.43074
USER: genes 12 Torsion [C]-CA--CB-[CG] |==|  0.53495
USER: genes 13 Torsion [CA]-CB--CG-[CD2] |==|  0.86066
USER: genes 14 Torsion [N]-CA--C-[N] |==|  0.27798
USER: genes 15 Torsion [C]-N--CA-[C] |==|  0.80729
USER: genes 16 Torsion [N]-CA--C-[N] |==|  0.40909
USER: genes 17 Torsion [C]-N--CA-[C] |==|  0.58478
USER: genes 18 Torsion [N]-CA--C-[O] |==|  0.95104
USER: genes 19 Torsion [N]-CA--CB-[CG] |==|  0.99721
USER: genes 20 Torsion [CA]-CB--CG-[CD] |==|  0.70330
USER: genes 21 Torsion [CB]-CG--CD-[NE] |==|  0.00533
USER: genes 22 Torsion [CG]-CD--NE-[CZ] |==|  0.77517
USER: genes 23 Torsion [N]-CA--CB-[CG] |==|  0.62254
USER: genes 24 Torsion [CA]-CB--CG-[CD1] |==|  0.00023
USER: genes 25 Torsion [N]-CA--CB-[CG] |==|  0.64662
USER: genes 26 Torsion [CA]-CB--CG-[CD] |==|  0.48508
USER: genes 27 Torsion [CB]-CG--CD-[NE] |==|  0.34457
USER: genes 28 Torsion [CG]-CD--NE-[HE] |==|  0.00129
ROOT
ATOM      1  CA  ARG X 129       0.954  11.920  -7.490  1.00 23.09 LIG 0.18  C 
ENDROOT
BRANCH 1 2
ATOM      2  N   ARG X 129       2.259  12.430  -7.890  1.00 20.82 LIG-0.35  N 
ATOM      3  C   ARG X 128       3.097  11.812  -8.722  1.00 20.67 LIG 0.24  C 
ATOM      4 O    ARG X 128       2.881  10.689  -9.246  1.00 18.99 LIG-0.27  OA
ATOM      5 H    ARG X 129       2.445  13.189  -7.530  1.00 20.82 LIG 0.16  HD
BRANCH 3 6
ATOM      6  CA  ARG X 128       4.386  12.569  -9.035  1.00 21.45 LIG 0.18  C 
BRANCH 6 7
ATOM      7  CB  ARG X 128       4.536  12.788 -10.530  1.00 22.98 LIG 0.04  C 
BRANCH 7 8
ATOM      8  CG  ARG X 128       5.918  13.388 -10.859  1.00 26.06 LIG 0.02  C 
BRANCH 8 9
ATOM      9  CD  ARG X 128       6.508  13.072 -12.301  1.00 28.46 LIG 0.14  C 
BRANCH 9 10
ATOM     10  NE  ARG X 128       7.670  12.224 -12.521  1.00 34.87 LIG-0.23  N 
ATOM     11 HE   ARG X 128       8.325  12.311 -11.970  1.00 34.87 LIG 0.18  HD
ATOM     12  CZ  ARG X 128       7.817  11.320 -13.498  1.00 35.06 LIG 0.67  C 
ATOM     13  NH1 ARG X 128       6.907  11.140 -14.437  1.00 38.28 LIG-0.23  N 
ATOM     14  NH2 ARG X 128       8.913  10.617 -13.551  1.00 41.06 LIG-0.23  N 
ATOM     15 1HH1 ARG X 128       6.188  11.612 -14.435  1.00 38.28 LIG 0.17  HD
ATOM     16 2HH1 ARG X 128       7.032  10.551 -15.051  1.00 38.28 LIG 0.17  HD
ATOM     17 1HH2 ARG X 128       9.529  10.736 -12.963  1.00 41.06 LIG 0.17  HD
ATOM     18 2HH2 ARG X 128       9.020  10.033 -14.173  1.00 41.06 LIG 0.17  HD
ENDBRANCH 9 10
ENDBRANCH 8 9
ENDBRANCH 7 8
ENDBRANCH 6 7
BRANCH 6 19
ATOM     19  N   ARG X 128       5.539  11.833  -8.589  1.00 22.62 LIG-0.35  N 
ATOM     20 H    ARG X 128       5.653  11.081  -8.990  1.00 22.62 LIG 0.16  HD
ATOM     21  C   ALA X 127       6.345  12.291  -7.639  1.00 23.78 LIG 0.24  C 
ATOM     22 O    ALA X 127       6.209  13.395  -7.119  1.00 22.39 LIG-0.27  OA
BRANCH 21 23
ATOM     23  CA  ALA X 127       7.565  11.414  -7.312  1.00 25.08 LIG 0.17  C 
ATOM     24  CB  ALA X 127       7.405  10.674  -5.990  1.00 24.37 LIG 0.04  C 
BRANCH 23 25
ATOM     25  N   ALA X 127       8.740  12.277  -7.327  1.00 27.78 LIG-0.35  N 
ATOM     26  C   LEU X 126       9.171  12.656  -8.529  1.00 33.19 LIG 0.26  C 
ATOM     27 O    LEU X 126       8.562  12.368  -9.607  1.00 34.96 LIG-0.27  OA
ATOM     28 H    ALA X 127       9.081  12.489  -6.566  1.00 27.78 LIG 0.16  HD
BRANCH 26 29
ATOM     29  CA  LEU X 126      10.444  13.450  -8.574  1.00 34.21 LIG 0.40  C 
ATOM     30  N   LEU X 126      11.126  13.310  -9.876  1.00 36.42 LIG 0.61  N 
BRANCH 29 31
ATOM     31  CB  LEU X 126      10.088  14.923  -8.286  1.00 35.53 LIG 0.06  C 
BRANCH 31 32
ATOM     32  CG  LEU X 126      11.197  15.942  -8.580  1.00 35.00 LIG-0.02  C 
ATOM     33  CD2 LEU X 126      12.516  15.479  -7.909  1.00 38.18 LIG 0.01  C 
ATOM     34  CD1 LEU X 126      10.829  17.306  -8.091  1.00 36.44 LIG 0.01  C 
ENDBRANCH 31 32
ENDBRANCH 29 31
ENDBRANCH 26 29
ENDBRANCH 23 25
ENDBRANCH 21 23
ENDBRANCH 6 19
ENDBRANCH 3 6
ENDBRANCH 1 2
BRANCH 1 35
ATOM     35  C   ARG X 129      -0.212  12.669  -8.190  1.00 22.72 LIG 0.24  C 
ATOM     36  N   LEU X 130      -0.830  12.136  -9.257  1.00 24.32 LIG-0.35  N 
ATOM     37 H    LEU X 130      -0.571  11.431  -9.676  1.00 24.32 LIG 0.16  HD
ATOM     38 O    ARG X 129      -0.562  13.756  -7.729  1.00 21.19 LIG-0.27  OA
BRANCH 36 39
ATOM     39  CA  LEU X 130      -2.057  12.778  -9.792  1.00 26.11 LIG 0.18  C 
BRANCH 39 40
ATOM     40  C   LEU X 130      -3.226  12.625  -8.847  1.00 29.66 LIG 0.24  C 
ATOM     41 O    LEU X 130      -3.343  11.588  -8.175  1.00 28.98 LIG-0.27  OA
ATOM     42  N   ARG X 131      -4.110  13.617  -8.817  1.00 30.67 LIG-0.34  N 
ATOM     43 H    ARG X 131      -4.005  14.370  -9.220  1.00 30.67 LIG 0.16  HD
BRANCH 42 44
ATOM     44  CA  ARG X 131      -5.350  13.494  -8.080  1.00 33.89 LIG 0.18  C 
BRANCH 44 45
ATOM     45  C   ARG X 131      -6.478  14.306  -8.720  1.00 35.66 LIG 0.20  C 
ATOM     46 OXT  ARG X 131      -7.682  14.078  -8.467  1.00 35.07 LIG-0.65  OA
ATOM     47 O    ARG X 131      -6.230  15.228  -9.552  1.00 37.10 LIG-0.65  OA
ENDBRANCH 44 45
BRANCH 44 48
ATOM     48  CB  ARG X 131      -5.131  13.951  -6.634  1.00 35.20 LIG 0.04  C 
BRANCH 48 49
ATOM     49  CG  ARG X 131      -3.685  14.387  -6.334  1.00 40.01 LIG 0.02  C 
BRANCH 49 50
ATOM     50  CD  ARG X 131      -2.885  13.377  -5.468  1.00 47.84 LIG 0.14  C 
BRANCH 50 51
ATOM     51  NE  ARG X 131      -3.694  12.196  -5.168  1.00 52.72 LIG-0.23  N 
ATOM     52  CZ  ARG X 131      -4.616  12.118  -4.205  1.00 57.07 LIG 0.67  C 
ATOM     53  NH1 ARG X 131      -4.895  13.177  -3.428  1.00 58.64 LIG-0.23  N 
ATOM     54  NH2 ARG X 131      -5.274  10.970  -4.024  1.00 59.02 LIG-0.23  N 
ATOM     55 2HH1 ARG X 131      -5.491  13.114  -2.811  1.00 58.64 LIG 0.17  HD
ATOM     56 1HH1 ARG X 131      -4.478  13.920  -3.547  1.00 58.64 LIG 0.17  HD
ATOM     57 2HH2 ARG X 131      -5.870  10.908  -3.407  1.00 59.02 LIG 0.17  HD
ATOM     58 1HH2 ARG X 131      -5.102  10.292  -4.525  1.00 59.02 LIG 0.17  HD
ATOM     59 HE   ARG X 131      -3.566  11.496  -5.650  1.00 52.72 LIG 0.18  HD
ENDBRANCH 50 51
ENDBRANCH 49 50
ENDBRANCH 48 49
ENDBRANCH 44 48
ENDBRANCH 42 44
ENDBRANCH 39 40
BRANCH 39 60
ATOM     60  CB  LEU X 130      -2.494  12.209 -11.145  1.00 27.29 LIG 0.04  C 
BRANCH 60 61
ATOM     61  CG  LEU X 130      -2.936  13.130 -12.271  1.00 26.34 LIG-0.02  C 
ATOM     62  CD1 LEU X 130      -2.880  14.642 -11.876  1.00 29.54 LIG 0.01  C 
ATOM     63  CD2 LEU X 130      -2.054  12.878 -13.451  1.00 21.56 LIG 0.01  C 
ENDBRANCH 60 61
ENDBRANCH 39 60
ENDBRANCH 36 39
ENDBRANCH 1 35
BRANCH 1 64
ATOM     64  CB  ARG X 129       0.928  12.225  -5.976  1.00 24.17 LIG 0.04  C 
BRANCH 64 65
ATOM     65  CG  ARG X 129       0.621  11.123  -5.061  1.00 28.32 LIG 0.02  C 
BRANCH 65 66
ATOM     66  CD  ARG X 129       0.741  11.473  -3.589  1.00 31.43 LIG 0.14  C 
BRANCH 66 67
ATOM     67  NE  ARG X 129      -0.457  11.235  -2.772  1.00 29.42 LIG-0.23  N 
ATOM     68  CZ  ARG X 129      -0.559  11.482  -1.471  1.00 30.66 LIG 0.67  C 
ATOM     69  NH1 ARG X 129       0.491  11.890  -0.761  1.00 33.32 LIG-0.23  N 
ATOM     70  NH2 ARG X 129      -1.729  11.279  -0.853  1.00 29.67 LIG-0.23  N 
ATOM     71 2HH1 ARG X 129       0.408  12.046   0.080  1.00 33.32 LIG 0.17  HD
ATOM     72 1HH1 ARG X 129       1.253  11.997  -1.145  1.00 33.32 LIG 0.17  HD
ATOM     73 2HH2 ARG X 129      -1.804  11.437  -0.011  1.00 29.67 LIG 0.17  HD
ATOM     74 1HH2 ARG X 129      -2.406  10.992  -1.299  1.00 29.67 LIG 0.17  HD
ATOM     75 HE   ARG X 129      -1.148  10.910  -3.167  1.00 29.42 LIG 0.18  HD
ENDBRANCH 66 67
ENDBRANCH 65 66
ENDBRANCH 64 65
ENDBRANCH 1 64
TORSDOF 27
ENDMDL
MODEL 12
USER: ADFR SOLUTION from run 183
USER: SCORE 28.233511 LL:  -3.575 LR: -25.964 RR:   0.000 FEB: -17.910
USER: RMSD 8.041169
USER: SEED 182
USER: STATUS searching
USER: GENES 29
USER: genes 0 Translation |==|  0.45043 0.39214 0.51693
USER: genes 1 Rotation |==|  0.93755 0.39732 0.63404 0.67333
USER: genes 2 Torsion [C]-CA--N-[C] |==|  0.63805
USER: genes 3 Torsion [N]-C--CA-[N] |==|  0.44306
USER: genes 4 Torsion [C]-CA--CB-[CG] |==|  0.18093
USER: genes 5 Torsion [CA]-CB--CG-[CD] |==|  0.71357
USER: genes 6 Torsion [CB]-CG--CD-[NE] |==|  0.48837
USER: genes 7 Torsion [CG]-CD--NE-[HE] |==|  0.80025
USER: genes 8 Torsion [C]-CA--N-[C] |==|  0.63644
USER: genes 9 Torsion [N]-C--CA-[N] |==|  0.10544
USER: genes 10 Torsion [C]-CA--N-[C] |==|  0.18333
USER: genes 11 Torsion [N]-C--CA-[N] |==|  0.42033
USER: genes 12 Torsion [C]-CA--CB-[CG] |==|  0.08633
USER: genes 13 Torsion [CA]-CB--CG-[CD2] |==|  0.66488
USER: genes 14 Torsion [N]-CA--C-[N] |==|  0.68280
USER: genes 15 Torsion [C]-N--CA-[C] |==|  0.58142
USER: genes 16 Torsion [N]-CA--C-[N] |==|  0.39713
USER: genes 17 Torsion [C]-N--CA-[C] |==|  0.84840
USER: genes 18 Torsion [N]-CA--C-[O] |==|  0.37810
USER: genes 19 Torsion [N]-CA--CB-[CG] |==|  0.19371
USER: genes 20 Torsion [CA]-CB--CG-[CD] |==|  0.56985
USER: genes 21 Torsion [CB]-CG--CD-[NE] |==|  0.31781
USER: genes 22 Torsion [CG]-CD--NE-[CZ] |==|  0.70843
USER: genes 23 Torsion [N]-CA--CB-[CG] |==|  0.03898
USER: genes 24 Torsion [CA]-CB--CG-[CD1] |==|  0.44288
USER: genes 25 Torsion [N]-CA--CB-[CG] |==|  0.57442
USER: genes 26 Torsion [CA]-CB--CG-[CD] |==|  0.21964
USER: genes 27 Torsion [CB]-CG--CD-[NE] |==|  0.93956
USER: genes 28 Torsion [CG]-CD--NE-[HE] |==|  0.85315
ROOT
ATOM      1  CA  ARG X 129       1.020  11.837  -6.795  1.00 23.09 LIG 0.18  C 
ENDROOT
BRANCH 1 2
ATOM      2  N   ARG X 129       1.522  11.530  -5.462  1.00 20.82 LIG-0.35  N 
ATOM      3  C   ARG X 128       2.420  12.260  -4.799  1.00 20.67 LIG 0.24  C 
ATOM      4 O    ARG X 128       2.975  13.292  -5.254  1.00 18.99 LIG-0.27  OA
ATOM      5 H    ARG X 129       1.177  10.815  -5.132  1.00 20.82 LIG 0.16  HD
BRANCH 3 6
ATOM      6  CA  ARG X 128       2.751  11.768  -3.391  1.00 21.45 LIG 0.18  C 
BRANCH 6 7
ATOM      7  CB  ARG X 128       1.698  12.223  -2.397  1.00 22.98 LIG 0.04  C 
BRANCH 7 8
ATOM      8  CG  ARG X 128       0.335  11.572  -2.707  1.00 26.06 LIG 0.02  C 
BRANCH 8 9
ATOM      9  CD  ARG X 128      -0.747  12.487  -3.427  1.00 28.46 LIG 0.14  C 
BRANCH 9 10
ATOM     10  NE  ARG X 128      -2.045  11.996  -3.865  1.00 34.87 LIG-0.23  N 
ATOM     11 HE   ARG X 128      -2.054  11.474  -4.549  1.00 34.87 LIG 0.18  HD
ATOM     12  CZ  ARG X 128      -3.229  12.279  -3.306  1.00 35.06 LIG 0.67  C 
ATOM     13  NH1 ARG X 128      -3.349  13.114  -2.291  1.00 38.28 LIG-0.23  N 
ATOM     14  NH2 ARG X 128      -4.308  11.742  -3.801  1.00 41.06 LIG-0.23  N 
ATOM     15 1HH1 ARG X 128      -2.652  13.499  -1.966  1.00 38.28 LIG 0.17  HD
ATOM     16 2HH1 ARG X 128      -4.124  13.275  -1.954  1.00 38.28 LIG 0.17  HD
ATOM     17 1HH2 ARG X 128      -4.254  11.214  -4.478  1.00 41.06 LIG 0.17  HD
ATOM     18 2HH2 ARG X 128      -5.074  11.915  -3.451  1.00 41.06 LIG 0.17  HD
ENDBRANCH 9 10
ENDBRANCH 8 9
ENDBRANCH 7 8
ENDBRANCH 6 7
BRANCH 6 19
ATOM     19  N   ARG X 128       4.017  12.288  -2.947  1.00 22.62 LIG-0.35  N 
ATOM     20 H    ARG X 128       4.106  13.137  -3.055  1.00 22.62 LIG 0.16  HD
ATOM     21  C   ALA X 127       4.953  11.511  -2.419  1.00 23.78 LIG 0.24  C 
ATOM     22 O    ALA X 127       4.791  10.311  -2.210  1.00 22.39 LIG-0.27  OA
BRANCH 21 23
ATOM     23  CA  ALA X 127       6.230  12.223  -1.942  1.00 25.08 LIG 0.17  C 
ATOM     24  CB  ALA X 127       7.042  11.367  -0.979  1.00 24.37 LIG 0.04  C 
BRANCH 23 25
ATOM     25  N   ALA X 127       5.826  13.494  -1.351  1.00 27.78 LIG-0.35  N 
ATOM     26  C   LEU X 126       5.104  13.416  -0.235  1.00 33.19 LIG 0.26  C 
ATOM     27 O    LEU X 126       4.843  12.317   0.347  1.00 34.96 LIG-0.27  OA
ATOM     28 H    ALA X 127       6.077  14.211  -1.755  1.00 27.78 LIG 0.16  HD
BRANCH 26 29
ATOM     29  CA  LEU X 126       4.582  14.706   0.326  1.00 34.21 LIG 0.40  C 
ATOM     30  N   LEU X 126       3.324  14.504   1.073  1.00 36.42 LIG 0.61  N 
BRANCH 29 31
ATOM     31  CB  LEU X 126       5.679  15.301   1.233  1.00 35.53 LIG 0.06  C 
BRANCH 31 32
ATOM     32  CG  LEU X 126       7.123  14.986   0.819  1.00 35.00 LIG-0.02  C 
ATOM     33  CD2 LEU X 126       7.838  14.234   1.971  1.00 38.18 LIG 0.01  C 
ATOM     34  CD1 LEU X 126       7.877  16.230   0.477  1.00 36.44 LIG 0.01  C 
ENDBRANCH 31 32
ENDBRANCH 29 31
ENDBRANCH 26 29
ENDBRANCH 23 25
ENDBRANCH 21 23
ENDBRANCH 6 19
ENDBRANCH 3 6
ENDBRANCH 1 2
BRANCH 1 35
ATOM     35  C   ARG X 129      -0.530  11.800  -6.865  1.00 22.72 LIG 0.24  C 
ATOM     36  N   LEU X 130      -1.163  10.873  -7.604  1.00 24.32 LIG-0.35  N 
ATOM     37 H    LEU X 130      -0.778  10.330  -8.149  1.00 24.32 LIG 0.16  HD
ATOM     38 O    ARG X 129      -1.160  12.632  -6.212  1.00 21.19 LIG-0.27  OA
BRANCH 36 39
ATOM     39  CA  LEU X 130      -2.638  10.739  -7.508  1.00 26.11 LIG 0.18  C 
BRANCH 39 40
ATOM     40  C   LEU X 130      -3.090   9.324  -7.784  1.00 29.66 LIG 0.24  C 
ATOM     41 O    LEU X 130      -2.536   8.663  -8.676  1.00 28.98 LIG-0.27  OA
ATOM     42  N   ARG X 131      -4.110   8.867  -7.064  1.00 30.67 LIG-0.34  N 
ATOM     43 H    ARG X 131      -4.455   9.283  -6.395  1.00 30.67 LIG 0.16  HD
BRANCH 42 44
ATOM     44  CA  ARG X 131      -4.730   7.594  -7.367  1.00 33.89 LIG 0.18  C 
BRANCH 44 45
ATOM     45  C   ARG X 131      -5.191   7.515  -8.823  1.00 35.66 LIG 0.20  C 
ATOM     46 OXT  ARG X 131      -5.806   8.455  -9.375  1.00 35.07 LIG-0.65  OA
ATOM     47 O    ARG X 131      -4.985   6.477  -9.519  1.00 37.10 LIG-0.65  OA
ENDBRANCH 44 45
BRANCH 44 48
ATOM     48  CB  ARG X 131      -5.920   7.372  -6.428  1.00 35.20 LIG 0.04  C 
BRANCH 48 49
ATOM     49  CG  ARG X 131      -7.112   8.307  -6.703  1.00 40.01 LIG 0.02  C 
BRANCH 49 50
ATOM     50  CD  ARG X 131      -8.025   8.548  -5.471  1.00 47.84 LIG 0.14  C 
BRANCH 50 51
ATOM     51  NE  ARG X 131      -7.966   9.947  -5.045  1.00 52.72 LIG-0.23  N 
ATOM     52  CZ  ARG X 131      -7.312  10.398  -3.972  1.00 57.07 LIG 0.67  C 
ATOM     53  NH1 ARG X 131      -6.609   9.563  -3.189  1.00 58.64 LIG-0.23  N 
ATOM     54  NH2 ARG X 131      -7.353  11.702  -3.685  1.00 59.02 LIG-0.23  N 
ATOM     55 2HH1 ARG X 131      -6.192   9.867  -2.501  1.00 58.64 LIG 0.17  HD
ATOM     56 1HH1 ARG X 131      -6.575   8.725  -3.377  1.00 58.64 LIG 0.17  HD
ATOM     57 2HH2 ARG X 131      -6.936  12.004  -2.996  1.00 59.02 LIG 0.17  HD
ATOM     58 1HH2 ARG X 131      -7.797  12.239  -4.189  1.00 59.02 LIG 0.17  HD
ATOM     59 HE   ARG X 131      -8.386  10.524  -5.525  1.00 52.72 LIG 0.18  HD
ENDBRANCH 50 51
ENDBRANCH 49 50
ENDBRANCH 48 49
ENDBRANCH 44 48
ENDBRANCH 42 44
ENDBRANCH 39 40
BRANCH 39 60
ATOM     60  CB  LEU X 130      -3.391  11.650  -8.481  1.00 27.29 LIG 0.04  C 
BRANCH 60 61
ATOM     61  CG  LEU X 130      -2.666  12.333  -9.629  1.00 26.34 LIG-0.02  C 
ATOM     62  CD1 LEU X 130      -3.630  12.781 -10.775  1.00 29.54 LIG 0.01  C 
ATOM     63  CD2 LEU X 130      -1.939  13.518  -9.081  1.00 21.56 LIG 0.01  C 
ENDBRANCH 60 61
ENDBRANCH 39 60
ENDBRANCH 36 39
ENDBRANCH 1 35
BRANCH 1 64
ATOM     64  CB  ARG X 129       1.603  10.684  -7.642  1.00 24.17 LIG 0.04  C 
BRANCH 64 65
ATOM     65  CG  ARG X 129       1.835  10.930  -9.066  1.00 28.32 LIG 0.02  C 
BRANCH 65 66
ATOM     66  CD  ARG X 129       3.100  11.710  -9.374  1.00 31.43 LIG 0.14  C 
BRANCH 66 67
ATOM     67  NE  ARG X 129       3.640  12.521  -8.274  1.00 29.42 LIG-0.23  N 
ATOM     68  CZ  ARG X 129       4.890  12.470  -7.825  1.00 30.66 LIG 0.67  C 
ATOM     69  NH1 ARG X 129       5.755  11.575  -8.294  1.00 33.32 LIG-0.23  N 
ATOM     70  NH2 ARG X 129       5.273  13.309  -6.856  1.00 29.67 LIG-0.23  N 
ATOM     71 2HH1 ARG X 129       6.560  11.556  -7.993  1.00 33.32 LIG 0.17  HD
ATOM     72 1HH1 ARG X 129       5.509  11.015  -8.898  1.00 33.32 LIG 0.17  HD
ATOM     73 2HH2 ARG X 129       6.080  13.283  -6.559  1.00 29.67 LIG 0.17  HD
ATOM     74 1HH2 ARG X 129       4.713  13.874  -6.529  1.00 29.67 LIG 0.17  HD
ATOM     75 HE   ARG X 129       3.105  13.073  -7.890  1.00 29.42 LIG 0.18  HD
ENDBRANCH 66 67
ENDBRANCH 65 66
ENDBRANCH 64 65
ENDBRANCH 1 64
TORSDOF 27
ENDMDL
MODEL 13
USER: ADFR SOLUTION from run 54
USER: SCORE 28.778987 LL:  -3.713 LR: -25.924 RR:   0.000 FEB: -17.870
USER: RMSD 11.064970
USER: SEED 53
USER: STATUS no improvement in best in 21 clusters for 5 generations
USER: GENES 29
USER: genes 0 Translation |==|  0.46220 0.40456 0.48331
USER: genes 1 Rotation |==|  0.49455 0.32629 0.96881 0.50314
USER: genes 2 Torsion [C]-CA--N-[C] |==|  0.65616
USER: genes 3 Torsion [N]-C--CA-[N] |==|  0.07689
USER: genes 4 Torsion [C]-CA--CB-[CG] |==|  0.41394
USER: genes 5 Torsion [CA]-CB--CG-[CD] |==|  0.88712
USER: genes 6 Torsion [CB]-CG--CD-[NE] |==|  0.40535
USER: genes 7 Torsion [CG]-CD--NE-[HE] |==|  0.05855
USER: genes 8 Torsion [C]-CA--N-[C] |==|  0.67792
USER: genes 9 Torsion [N]-C--CA-[N] |==|  0.11715
USER: genes 10 Torsion [C]-CA--N-[C] |==|  0.76917
USER: genes 11 Torsion [N]-C--CA-[N] |==|  0.68921
USER: genes 12 Torsion [C]-CA--CB-[CG] |==|  0.27145
USER: genes 13 Torsion [CA]-CB--CG-[CD2] |==|  0.69295
USER: genes 14 Torsion [N]-CA--C-[N] |==|  0.36952
USER: genes 15 Torsion [C]-N--CA-[C] |==|  0.60556
USER: genes 16 Torsion [N]-CA--C-[N] |==|  0.42942
USER: genes 17 Torsion [C]-N--CA-[C] |==|  0.61857
USER: genes 18 Torsion [N]-CA--C-[O] |==|  0.93232
USER: genes 19 Torsion [N]-CA--CB-[CG] |==|  0.96590
USER: genes 20 Torsion [CA]-CB--CG-[CD] |==|  0.70420
USER: genes 21 Torsion [CB]-CG--CD-[NE] |==|  0.24329
USER: genes 22 Torsion [CG]-CD--NE-[CZ] |==|  0.53212
USER: genes 23 Torsion [N]-CA--CB-[CG] |==|  0.17173
USER: genes 24 Torsion [CA]-CB--CG-[CD1] |==|  0.26497
USER: genes 25 Torsion [N]-CA--CB-[CG] |==|  0.70036
USER: genes 26 Torsion [CA]-CB--CG-[CD] |==|  0.27619
USER: genes 27 Torsion [CB]-CG--CD-[NE] |==|  0.51060
USER: genes 28 Torsion [CG]-CD--NE-[HE] |==|  0.99701
ROOT
ATOM      1  CA  ARG X 129       1.347  12.042  -7.552  1.00 23.09 LIG 0.18  C 
ENDROOT
BRANCH 1 2
ATOM      2  N   ARG X 129       0.100  11.899  -8.291  1.00 20.82 LIG-0.35  N 
ATOM      3  C   ARG X 128      -0.797  12.870  -8.468  1.00 20.67 LIG 0.24  C 
ATOM      4 O    ARG X 128      -0.696  14.028  -7.990  1.00 18.99 LIG-0.27  OA
ATOM      5 H    ARG X 129      -0.009  11.109  -8.613  1.00 20.82 LIG 0.16  HD
BRANCH 3 6
ATOM      6  CA  ARG X 128      -2.004  12.497  -9.328  1.00 21.45 LIG 0.18  C 
BRANCH 6 7
ATOM      7  CB  ARG X 128      -3.249  13.228  -8.859  1.00 22.98 LIG 0.04  C 
BRANCH 7 8
ATOM      8  CG  ARG X 128      -4.200  13.503 -10.041  1.00 26.06 LIG 0.02  C 
BRANCH 8 9
ATOM      9  CD  ARG X 128      -3.528  13.958 -11.408  1.00 28.46 LIG 0.14  C 
BRANCH 9 10
ATOM     10  NE  ARG X 128      -4.049  13.591 -12.716  1.00 34.87 LIG-0.23  N 
ATOM     11 HE   ARG X 128      -4.876  13.356 -12.754  1.00 34.87 LIG 0.18  HD
ATOM     12  CZ  ARG X 128      -3.365  13.584 -13.868  1.00 35.06 LIG 0.67  C 
ATOM     13  NH1 ARG X 128      -2.076  13.867 -13.926  1.00 38.28 LIG-0.23  N 
ATOM     14  NH2 ARG X 128      -3.979  13.252 -14.967  1.00 41.06 LIG-0.23  N 
ATOM     15 1HH1 ARG X 128      -1.647  14.064 -13.207  1.00 38.28 LIG 0.17  HD
ATOM     16 2HH1 ARG X 128      -1.666  13.853 -14.681  1.00 38.28 LIG 0.17  HD
ATOM     17 1HH2 ARG X 128      -4.812  13.040 -14.948  1.00 41.06 LIG 0.17  HD
ATOM     18 2HH2 ARG X 128      -3.551  13.243 -15.714  1.00 41.06 LIG 0.17  HD
ENDBRANCH 9 10
ENDBRANCH 8 9
ENDBRANCH 7 8
ENDBRANCH 6 7
BRANCH 6 19
ATOM     19  N   ARG X 128      -2.276  11.087  -9.252  1.00 22.62 LIG-0.35  N 
ATOM     20 H    ARG X 128      -2.505  10.815  -8.468  1.00 22.62 LIG 0.16  HD
ATOM     21  C   ALA X 127      -2.179  10.291 -10.308  1.00 23.78 LIG 0.24  C 
ATOM     22 O    ALA X 127      -1.914  10.701 -11.436  1.00 22.39 LIG-0.27  OA
BRANCH 21 23
ATOM     23  CA  ALA X 127      -2.556   8.818 -10.079  1.00 25.08 LIG 0.17  C 
ATOM     24  CB  ALA X 127      -2.739   8.059 -11.387  1.00 24.37 LIG 0.04  C 
BRANCH 23 25
ATOM     25  N   ALA X 127      -3.757   8.798  -9.252  1.00 27.78 LIG-0.35  N 
ATOM     26  C   LEU X 126      -3.563   8.913  -7.938  1.00 33.19 LIG 0.26  C 
ATOM     27 O    LEU X 126      -2.421   9.117  -7.421  1.00 34.96 LIG-0.27  OA
ATOM     28 H    ALA X 127      -4.511   8.714  -9.657  1.00 27.78 LIG 0.16  HD
BRANCH 26 29
ATOM     29  CA  LEU X 126      -4.773   8.781  -7.061  1.00 34.21 LIG 0.40  C 
ATOM     30  N   LEU X 126      -5.116  10.061  -6.410  1.00 36.42 LIG 0.61  N 
BRANCH 29 31
ATOM     31  CB  LEU X 126      -5.935   8.273  -7.939  1.00 35.53 LIG 0.06  C 
BRANCH 31 32
ATOM     32  CG  LEU X 126      -6.198   6.762  -7.881  1.00 35.00 LIG-0.02  C 
ATOM     33  CD2 LEU X 126      -5.804   6.116  -9.235  1.00 38.18 LIG 0.01  C 
ATOM     34  CD1 LEU X 126      -7.631   6.468  -7.574  1.00 36.44 LIG 0.01  C 
ENDBRANCH 31 32
ENDBRANCH 29 31
ENDBRANCH 26 29
ENDBRANCH 23 25
ENDBRANCH 21 23
ENDBRANCH 6 19
ENDBRANCH 3 6
ENDBRANCH 1 2
BRANCH 1 35
ATOM     35  C   ARG X 129       2.587  11.669  -8.408  1.00 22.72 LIG 0.24  C 
ATOM     36  N   LEU X 130       3.669  12.466  -8.436  1.00 24.32 LIG-0.35  N 
ATOM     37 H    LEU X 130       3.712  13.251  -8.087  1.00 24.32 LIG 0.16  HD
ATOM     38 O    ARG X 129       2.556  10.616  -9.046  1.00 21.19 LIG-0.27  OA
BRANCH 36 39
ATOM     39  CA  LEU X 130       4.907  12.000  -9.107  1.00 26.11 LIG 0.18  C 
BRANCH 39 40
ATOM     40  C   LEU X 130       6.146  12.431  -8.358  1.00 29.66 LIG 0.24  C 
ATOM     41 O    LEU X 130       6.120  13.460  -7.664  1.00 28.98 LIG-0.27  OA
ATOM     42  N   ARG X 131       7.238  11.690  -8.522  1.00 30.67 LIG-0.34  N 
ATOM     43 H    ARG X 131       7.253  10.937  -8.938  1.00 30.67 LIG 0.16  HD
BRANCH 42 44
ATOM     44  CA  ARG X 131       8.517  12.111  -7.991  1.00 33.89 LIG 0.18  C 
BRANCH 44 45
ATOM     45  C   ARG X 131       9.655  11.874  -8.986  1.00 35.66 LIG 0.20  C 
ATOM     46 OXT  ARG X 131      10.706  12.552  -8.961  1.00 35.07 LIG-0.65  OA
ATOM     47 O    ARG X 131       9.560  10.992  -9.890  1.00 37.10 LIG-0.65  OA
ENDBRANCH 44 45
BRANCH 44 48
ATOM     48  CB  ARG X 131       8.798  11.362  -6.684  1.00 35.20 LIG 0.04  C 
BRANCH 48 49
ATOM     49  CG  ARG X 131       7.575  10.614  -6.122  1.00 40.01 LIG 0.02  C 
BRANCH 49 50
ATOM     50  CD  ARG X 131       6.944  11.284  -4.872  1.00 47.84 LIG 0.14  C 
BRANCH 50 51
ATOM     51  NE  ARG X 131       5.951  12.284  -5.263  1.00 52.72 LIG-0.23  N 
ATOM     52  CZ  ARG X 131       5.395  13.179  -4.443  1.00 57.07 LIG 0.67  C 
ATOM     53  NH1 ARG X 131       5.747  13.242  -3.148  1.00 58.64 LIG-0.23  N 
ATOM     54  NH2 ARG X 131       4.485  14.029  -4.926  1.00 59.02 LIG-0.23  N 
ATOM     55 2HH1 ARG X 131       5.381  13.823  -2.630  1.00 58.64 LIG 0.17  HD
ATOM     56 1HH1 ARG X 131       6.338  12.701  -2.836  1.00 58.64 LIG 0.17  HD
ATOM     57 2HH2 ARG X 131       4.120  14.610  -4.407  1.00 59.02 LIG 0.17  HD
ATOM     58 1HH2 ARG X 131       4.264  13.996  -5.756  1.00 59.02 LIG 0.17  HD
ATOM     59 HE   ARG X 131       5.706  12.297  -6.087  1.00 52.72 LIG 0.18  HD
ENDBRANCH 50 51
ENDBRANCH 49 50
ENDBRANCH 48 49
ENDBRANCH 44 48
ENDBRANCH 42 44
ENDBRANCH 39 40
BRANCH 39 60
ATOM     60  CB  LEU X 130       5.046  12.515 -10.542  1.00 27.29 LIG 0.04  C 
BRANCH 60 61
ATOM     61  CG  LEU X 130       5.140  14.005 -10.829  1.00 26.34 LIG-0.02  C 
ATOM     62  CD1 LEU X 130       6.615  14.506 -10.963  1.00 29.54 LIG 0.01  C 
ATOM     63  CD2 LEU X 130       4.389  14.284 -12.091  1.00 21.56 LIG 0.01  C 
ENDBRANCH 60 61
ENDBRANCH 39 60
ENDBRANCH 36 39
ENDBRANCH 1 35
BRANCH 1 64
ATOM     64  CB  ARG X 129       1.177  11.011  -6.413  1.00 24.17 LIG 0.04  C 
BRANCH 64 65
ATOM     65  CG  ARG X 129       0.940  11.519  -5.060  1.00 28.32 LIG 0.02  C 
BRANCH 65 66
ATOM     66  CD  ARG X 129      -0.513  11.499  -4.624  1.00 31.43 LIG 0.14  C 
BRANCH 66 67
ATOM     67  NE  ARG X 129      -0.797  12.082  -3.305  1.00 29.42 LIG-0.23  N 
ATOM     68  CZ  ARG X 129      -2.001  12.180  -2.752  1.00 30.66 LIG 0.67  C 
ATOM     69  NH1 ARG X 129      -3.097  11.831  -3.421  1.00 33.32 LIG-0.23  N 
ATOM     70  NH2 ARG X 129      -2.117  12.677  -1.515  1.00 29.67 LIG-0.23  N 
ATOM     71 2HH1 ARG X 129      -3.869  11.900  -3.048  1.00 33.32 LIG 0.17  HD
ATOM     72 1HH1 ARG X 129      -3.034  11.535  -4.226  1.00 33.32 LIG 0.17  HD
ATOM     73 2HH2 ARG X 129      -2.892  12.744  -1.150  1.00 29.67 LIG 0.17  HD
ATOM     74 1HH2 ARG X 129      -1.416  12.929  -1.085  1.00 29.67 LIG 0.17  HD
ATOM     75 HE   ARG X 129      -0.129  12.385  -2.854  1.00 29.42 LIG 0.18  HD
ENDBRANCH 66 67
ENDBRANCH 65 66
ENDBRANCH 64 65
ENDBRANCH 1 64
TORSDOF 27
ENDMDL
MODEL 14
USER: ADFR SOLUTION from run 105
USER: SCORE 30.135131 LL:  -4.482 LR: -25.914 RR:   0.000 FEB: -17.860
USER: RMSD 10.504688
USER: SEED 104
USER: STATUS searching
USER: GENES 29
USER: genes 0 Translation |==|  0.47810 0.42487 0.48886
USER: genes 1 Rotation |==|  0.45196 0.59924 0.01360 0.53546
USER: genes 2 Torsion [C]-CA--N-[C] |==|  0.62853
USER: genes 3 Torsion [N]-C--CA-[N] |==|  0.91583
USER: genes 4 Torsion [C]-CA--CB-[CG] |==|  0.43262
USER: genes 5 Torsion [CA]-CB--CG-[CD] |==|  0.63835
USER: genes 6 Torsion [CB]-CG--CD-[NE] |==|  0.77177
USER: genes 7 Torsion [CG]-CD--NE-[HE] |==|  0.91401
USER: genes 8 Torsion [C]-CA--N-[C] |==|  0.82413
USER: genes 9 Torsion [N]-C--CA-[N] |==|  0.43889
USER: genes 10 Torsion [C]-CA--N-[C] |==|  0.79760
USER: genes 11 Torsion [N]-C--CA-[N] |==|  0.36444
USER: genes 12 Torsion [C]-CA--CB-[CG] |==|  0.12177
USER: genes 13 Torsion [CA]-CB--CG-[CD2] |==|  0.61600
USER: genes 14 Torsion [N]-CA--C-[N] |==|  0.41416
USER: genes 15 Torsion [C]-N--CA-[C] |==|  0.64934
USER: genes 16 Torsion [N]-CA--C-[N] |==|  0.41159
USER: genes 17 Torsion [C]-N--CA-[C] |==|  0.59938
USER: genes 18 Torsion [N]-CA--C-[O] |==|  0.00883
USER: genes 19 Torsion [N]-CA--CB-[CG] |==|  0.98246
USER: genes 20 Torsion [CA]-CB--CG-[CD] |==|  0.68132
USER: genes 21 Torsion [CB]-CG--CD-[NE] |==|  0.26636
USER: genes 22 Torsion [CG]-CD--NE-[CZ] |==|  0.52842
USER: genes 23 Torsion [N]-CA--CB-[CG] |==|  0.92313
USER: genes 24 Torsion [CA]-CB--CG-[CD1] |==|  0.48950
USER: genes 25 Torsion [N]-CA--CB-[CG] |==|  0.94970
USER: genes 26 Torsion [CA]-CB--CG-[CD] |==|  0.74112
USER: genes 27 Torsion [CB]-CG--CD-[NE] |==|  0.42829
USER: genes 28 Torsion [CG]-CD--NE-[HE] |==|  0.93569
ROOT
ATOM      1  CA  ARG X 129       1.788  12.377  -7.427  1.00 23.09 LIG 0.18  C 
ENDROOT
BRANCH 1 2
ATOM      2  N   ARG X 129       0.534  11.776  -7.860  1.00 20.82 LIG-0.35  N 
ATOM      3  C   ARG X 128      -0.628  12.423  -7.958  1.00 20.67 LIG 0.24  C 
ATOM      4 O    ARG X 128      -0.796  13.633  -7.657  1.00 18.99 LIG-0.27  OA
ATOM      5 H    ARG X 129       0.612  10.942  -8.053  1.00 20.82 LIG 0.16  HD
BRANCH 3 6
ATOM      6  CA  ARG X 128      -1.796  11.594  -8.488  1.00 21.45 LIG 0.18  C 
BRANCH 6 7
ATOM      7  CB  ARG X 128      -2.524  10.896  -7.353  1.00 22.98 LIG 0.04  C 
BRANCH 7 8
ATOM      8  CG  ARG X 128      -3.980  10.580  -7.749  1.00 26.06 LIG 0.02  C 
BRANCH 8 9
ATOM      9  CD  ARG X 128      -5.110  11.016  -6.721  1.00 28.46 LIG 0.14  C 
BRANCH 9 10
ATOM     10  NE  ARG X 128      -5.479  10.226  -5.555  1.00 34.87 LIG-0.23  N 
ATOM     11 HE   ARG X 128      -5.397   9.372  -5.621  1.00 34.87 LIG 0.18  HD
ATOM     12  CZ  ARG X 128      -5.934  10.701  -4.388  1.00 35.06 LIG 0.67  C 
ATOM     13  NH1 ARG X 128      -6.159  11.986  -4.188  1.00 38.28 LIG-0.23  N 
ATOM     14  NH2 ARG X 128      -6.201   9.865  -3.425  1.00 41.06 LIG-0.23  N 
ATOM     15 1HH1 ARG X 128      -6.013  12.551  -4.819  1.00 38.28 LIG 0.17  HD
ATOM     16 2HH1 ARG X 128      -6.451  12.258  -3.426  1.00 38.28 LIG 0.17  HD
ATOM     17 1HH2 ARG X 128      -6.085   9.021  -3.544  1.00 41.06 LIG 0.17  HD
ATOM     18 2HH2 ARG X 128      -6.493  10.156  -2.671  1.00 41.06 LIG 0.17  HD
ENDBRANCH 9 10
ENDBRANCH 8 9
ENDBRANCH 7 8
ENDBRANCH 6 7
BRANCH 6 19
ATOM     19  N   ARG X 128      -1.337  10.578  -9.397  1.00 22.62 LIG-0.35  N 
ATOM     20 H    ARG X 128      -1.484   9.774  -9.129  1.00 22.62 LIG 0.16  HD
ATOM     21  C   ALA X 127      -0.742  10.874 -10.545  1.00 23.78 LIG 0.24  C 
ATOM     22 O    ALA X 127      -0.595  12.025 -10.948  1.00 22.39 LIG-0.27  OA
BRANCH 21 23
ATOM     23  CA  ALA X 127      -0.358   9.678 -11.433  1.00 25.08 LIG 0.17  C 
ATOM     24  CB  ALA X 127       0.903   8.978 -10.944  1.00 24.37 LIG 0.04  C 
BRANCH 23 25
ATOM     25  N   ALA X 127      -0.226  10.172 -12.798  1.00 27.78 LIG-0.35  N 
ATOM     26  C   LEU X 126      -1.364  10.478 -13.421  1.00 33.19 LIG 0.26  C 
ATOM     27 O    LEU X 126      -2.499  10.434 -12.853  1.00 34.96 LIG-0.27  OA
ATOM     28 H    ALA X 127       0.570  10.236 -13.117  1.00 27.78 LIG 0.16  HD
BRANCH 26 29
ATOM     29  CA  LEU X 126      -1.260  10.879 -14.863  1.00 34.21 LIG 0.40  C 
ATOM     30  N   LEU X 126      -2.230  10.147 -15.702  1.00 36.42 LIG 0.61  N 
BRANCH 29 31
ATOM     31  CB  LEU X 126      -1.491  12.403 -14.944  1.00 35.53 LIG 0.06  C 
BRANCH 31 32
ATOM     32  CG  LEU X 126      -0.769  13.240 -13.879  1.00 35.00 LIG-0.02  C 
ATOM     33  CD2 LEU X 126      -1.722  14.345 -13.356  1.00 38.18 LIG 0.01  C 
ATOM     34  CD1 LEU X 126       0.478  13.858 -14.423  1.00 36.44 LIG 0.01  C 
ENDBRANCH 31 32
ENDBRANCH 29 31
ENDBRANCH 26 29
ENDBRANCH 23 25
ENDBRANCH 21 23
ENDBRANCH 6 19
ENDBRANCH 3 6
ENDBRANCH 1 2
BRANCH 1 35
ATOM     35  C   ARG X 129       2.976  11.996  -8.351  1.00 22.72 LIG 0.24  C 
ATOM     36  N   LEU X 130       4.002  12.843  -8.538  1.00 24.32 LIG-0.35  N 
ATOM     37 H    LEU X 130       4.025  13.657  -8.262  1.00 24.32 LIG 0.16  HD
ATOM     38 O    ARG X 129       2.956  10.890  -8.894  1.00 21.19 LIG-0.27  OA
BRANCH 36 39
ATOM     39  CA  LEU X 130       5.208  12.385  -9.271  1.00 26.11 LIG 0.18  C 
BRANCH 39 40
ATOM     40  C   LEU X 130       6.469  12.616  -8.473  1.00 29.66 LIG 0.24  C 
ATOM     41 O    LEU X 130       6.556  13.607  -7.730  1.00 28.98 LIG-0.27  OA
ATOM     42  N   ARG X 131       7.459  11.746  -8.645  1.00 30.67 LIG-0.34  N 
ATOM     43 H    ARG X 131       7.389  11.018  -9.097  1.00 30.67 LIG 0.16  HD
BRANCH 42 44
ATOM     44  CA  ARG X 131       8.766  11.971  -8.064  1.00 33.89 LIG 0.18  C 
BRANCH 44 45
ATOM     45  C   ARG X 131       9.891  11.475  -8.975  1.00 35.66 LIG 0.20  C 
ATOM     46 OXT  ARG X 131      11.093  11.545  -8.639  1.00 35.07 LIG-0.65  OA
ATOM     47 O    ARG X 131       9.641  10.992 -10.119  1.00 37.10 LIG-0.65  OA
ENDBRANCH 44 45
BRANCH 44 48
ATOM     48  CB  ARG X 131       8.846  11.272  -6.703  1.00 35.20 LIG 0.04  C 
BRANCH 48 49
ATOM     49  CG  ARG X 131       7.510  10.660  -6.240  1.00 40.01 LIG 0.02  C 
BRANCH 49 50
ATOM     50  CD  ARG X 131       6.918  11.322  -4.968  1.00 47.84 LIG 0.14  C 
BRANCH 50 51
ATOM     51  NE  ARG X 131       5.934  12.345  -5.323  1.00 52.72 LIG-0.23  N 
ATOM     52  CZ  ARG X 131       5.393  13.221  -4.474  1.00 57.07 LIG 0.67  C 
ATOM     53  NH1 ARG X 131       5.753  13.242  -3.179  1.00 58.64 LIG-0.23  N 
ATOM     54  NH2 ARG X 131       4.489  14.095  -4.926  1.00 59.02 LIG-0.23  N 
ATOM     55 2HH1 ARG X 131       5.397  13.812  -2.643  1.00 58.64 LIG 0.17  HD
ATOM     56 1HH1 ARG X 131       6.340  12.686  -2.887  1.00 58.64 LIG 0.17  HD
ATOM     57 2HH2 ARG X 131       4.134  14.664  -4.388  1.00 59.02 LIG 0.17  HD
ATOM     58 1HH2 ARG X 131       4.263  14.088  -5.756  1.00 59.02 LIG 0.17  HD
ATOM     59 HE   ARG X 131       5.685  12.384  -6.145  1.00 52.72 LIG 0.18  HD
ENDBRANCH 50 51
ENDBRANCH 49 50
ENDBRANCH 48 49
ENDBRANCH 44 48
ENDBRANCH 42 44
ENDBRANCH 39 40
BRANCH 39 60
ATOM     60  CB  LEU X 130       5.395  13.084 -10.621  1.00 27.29 LIG 0.04  C 
BRANCH 60 61
ATOM     61  CG  LEU X 130       4.200  13.621 -11.392  1.00 26.34 LIG-0.02  C 
ATOM     62  CD1 LEU X 130       4.611  14.380 -12.696  1.00 29.54 LIG 0.01  C 
ATOM     63  CD2 LEU X 130       3.309  12.470 -11.730  1.00 21.56 LIG 0.01  C 
ENDBRANCH 60 61
ENDBRANCH 39 60
ENDBRANCH 36 39
ENDBRANCH 1 35
BRANCH 1 64
ATOM     64  CB  ARG X 129       1.995  11.743  -6.033  1.00 24.17 LIG 0.04  C 
BRANCH 64 65
ATOM     65  CG  ARG X 129       0.835  11.136  -5.379  1.00 28.32 LIG 0.02  C 
BRANCH 65 66
ATOM     66  CD  ARG X 129       0.080  12.062  -4.443  1.00 31.43 LIG 0.14  C 
BRANCH 66 67
ATOM     67  NE  ARG X 129      -1.340  11.749  -4.234  1.00 29.42 LIG-0.23  N 
ATOM     68  CZ  ARG X 129      -2.060  12.117  -3.180  1.00 30.66 LIG 0.67  C 
ATOM     69  NH1 ARG X 129      -1.500  12.740  -2.145  1.00 33.32 LIG-0.23  N 
ATOM     70  NH2 ARG X 129      -3.364  11.820  -3.139  1.00 29.67 LIG-0.23  N 
ATOM     71 2HH1 ARG X 129      -1.980  12.971  -1.471  1.00 33.32 LIG 0.17  HD
ATOM     72 1HH1 ARG X 129      -0.657  12.911  -2.152  1.00 33.32 LIG 0.17  HD
ATOM     73 2HH2 ARG X 129      -3.837  12.054  -2.460  1.00 29.67 LIG 0.17  HD
ATOM     74 1HH2 ARG X 129      -3.729  11.395  -3.791  1.00 29.67 LIG 0.17  HD
ATOM     75 HE   ARG X 129      -1.738  11.290  -4.843  1.00 29.42 LIG 0.18  HD
ENDBRANCH 66 67
ENDBRANCH 65 66
ENDBRANCH 64 65
ENDBRANCH 1 64
TORSDOF 27
ENDMDL
MODEL 15
USER: ADFR SOLUTION from run 54
USER: SCORE 28.574851 LL:  -3.598 LR: -25.913 RR:   0.000 FEB: -17.858
USER: RMSD 11.188363
USER: SEED 53
USER: STATUS no improvement in best in 21 clusters for 5 generations
USER: GENES 29
USER: genes 0 Translation |==|  0.45575 0.41085 0.47886
USER: genes 1 Rotation |==|  0.48572 0.33011 0.96996 0.50867
USER: genes 2 Torsion [C]-CA--N-[C] |==|  0.65759
USER: genes 3 Torsion [N]-C--CA-[N] |==|  0.80316
USER: genes 4 Torsion [C]-CA--CB-[CG] |==|  0.39722
USER: genes 5 Torsion [CA]-CB--CG-[CD] |==|  0.13435
USER: genes 6 Torsion [CB]-CG--CD-[NE] |==|  0.64575
USER: genes 7 Torsion [CG]-CD--NE-[HE] |==|  0.59006
USER: genes 8 Torsion [C]-CA--N-[C] |==|  0.67644
USER: genes 9 Torsion [N]-C--CA-[N] |==|  0.37414
USER: genes 10 Torsion [C]-CA--N-[C] |==|  0.79447
USER: genes 11 Torsion [N]-C--CA-[N] |==|  0.70821
USER: genes 12 Torsion [C]-CA--CB-[CG] |==|  0.28467
USER: genes 13 Torsion [CA]-CB--CG-[CD2] |==|  0.14308
USER: genes 14 Torsion [N]-CA--C-[N] |==|  0.38239
USER: genes 15 Torsion [C]-N--CA-[C] |==|  0.58955
USER: genes 16 Torsion [N]-CA--C-[N] |==|  0.42784
USER: genes 17 Torsion [C]-N--CA-[C] |==|  0.60836
USER: genes 18 Torsion [N]-CA--C-[O] |==|  0.02443
USER: genes 19 Torsion [N]-CA--CB-[CG] |==|  0.98319
USER: genes 20 Torsion [CA]-CB--CG-[CD] |==|  0.58989
USER: genes 21 Torsion [CB]-CG--CD-[NE] |==|  0.18483
USER: genes 22 Torsion [CG]-CD--NE-[CZ] |==|  0.49860
USER: genes 23 Torsion [N]-CA--CB-[CG] |==|  0.11318
USER: genes 24 Torsion [CA]-CB--CG-[CD1] |==|  0.29611
USER: genes 25 Torsion [N]-CA--CB-[CG] |==|  0.62505
USER: genes 26 Torsion [CA]-CB--CG-[CD] |==|  0.87091
USER: genes 27 Torsion [CB]-CG--CD-[NE] |==|  0.47377
USER: genes 28 Torsion [CG]-CD--NE-[HE] |==|  0.65294
ROOT
ATOM      1  CA  ARG X 129       1.168  12.146  -7.652  1.00 23.09 LIG 0.18  C 
ENDROOT
BRANCH 1 2
ATOM      2  N   ARG X 129      -0.065  12.032  -8.421  1.00 20.82 LIG-0.35  N 
ATOM      3  C   ARG X 128      -0.919  13.031  -8.644  1.00 20.67 LIG 0.24  C 
ATOM      4 O    ARG X 128      -0.786  14.196  -8.190  1.00 18.99 LIG-0.27  OA
ATOM      5 H    ARG X 129      -0.195  11.239  -8.727  1.00 20.82 LIG 0.16  HD
BRANCH 3 6
ATOM      6  CA  ARG X 128      -2.116  12.684  -9.527  1.00 21.45 LIG 0.18  C 
BRANCH 6 7
ATOM      7  CB  ARG X 128      -2.777  11.399  -9.060  1.00 22.98 LIG 0.04  C 
BRANCH 7 8
ATOM      8  CG  ARG X 128      -4.309  11.484  -9.215  1.00 26.06 LIG 0.02  C 
BRANCH 8 9
ATOM      9  CD  ARG X 128      -4.857  12.001 -10.615  1.00 28.46 LIG 0.14  C 
BRANCH 9 10
ATOM     10  NE  ARG X 128      -5.811  13.093 -10.746  1.00 34.87 LIG-0.23  N 
ATOM     11 HE   ARG X 128      -6.365  13.049 -11.402  1.00 34.87 LIG 0.18  HD
ATOM     12  CZ  ARG X 128      -5.910  14.159  -9.941  1.00 35.06 LIG 0.67  C 
ATOM     13  NH1 ARG X 128      -5.077  14.367  -8.938  1.00 38.28 LIG-0.23  N 
ATOM     14  NH2 ARG X 128      -6.835  15.046 -10.176  1.00 41.06 LIG-0.23  N 
ATOM     15 1HH1 ARG X 128      -4.444  13.807  -8.782  1.00 38.28 LIG 0.17  HD
ATOM     16 2HH1 ARG X 128      -5.168  15.062  -8.440  1.00 38.28 LIG 0.17  HD
ATOM     17 1HH2 ARG X 128      -7.373  14.942 -10.840  1.00 41.06 LIG 0.17  HD
ATOM     18 2HH2 ARG X 128      -6.910  15.735  -9.667  1.00 41.06 LIG 0.17  HD
ENDBRANCH 9 10
ENDBRANCH 8 9
ENDBRANCH 7 8
ENDBRANCH 6 7
BRANCH 6 19
ATOM     19  N   ARG X 128      -1.711  12.490 -10.893  1.00 22.62 LIG-0.35  N 
ATOM     20 H    ARG X 128      -1.176  11.827 -11.011  1.00 22.62 LIG 0.16  HD
ATOM     21  C   ALA X 127      -2.136  13.276 -11.874  1.00 23.78 LIG 0.24  C 
ATOM     22 O    ALA X 127      -2.950  14.180 -11.704  1.00 22.39 LIG-0.27  OA
BRANCH 21 23
ATOM     23  CA  ALA X 127      -1.658  12.907 -13.288  1.00 25.08 LIG 0.17  C 
ATOM     24  CB  ALA X 127      -0.507  13.787 -13.756  1.00 24.37 LIG 0.04  C 
BRANCH 23 25
ATOM     25  N   ALA X 127      -2.813  12.984 -14.174  1.00 27.78 LIG-0.35  N 
ATOM     26  C   LEU X 126      -3.701  11.997 -14.064  1.00 33.19 LIG 0.26  C 
ATOM     27 O    LEU X 126      -3.613  11.080 -13.189  1.00 34.96 LIG-0.27  OA
ATOM     28 H    ALA X 127      -2.852  13.656 -14.709  1.00 27.78 LIG 0.16  HD
BRANCH 26 29
ATOM     29  CA  LEU X 126      -4.838  11.995 -15.044  1.00 34.21 LIG 0.40  C 
ATOM     30  N   LEU X 126      -6.098  12.438 -14.414  1.00 36.42 LIG 0.61  N 
BRANCH 29 31
ATOM     31  CB  LEU X 126      -4.446  12.917 -16.217  1.00 35.53 LIG 0.06  C 
BRANCH 31 32
ATOM     32  CG  LEU X 126      -3.986  12.204 -17.495  1.00 35.00 LIG-0.02  C 
ATOM     33  CD2 LEU X 126      -5.036  11.137 -17.899  1.00 38.18 LIG 0.01  C 
ATOM     34  CD1 LEU X 126      -2.650  11.560 -17.310  1.00 36.44 LIG 0.01  C 
ENDBRANCH 31 32
ENDBRANCH 29 31
ENDBRANCH 26 29
ENDBRANCH 23 25
ENDBRANCH 21 23
ENDBRANCH 6 19
ENDBRANCH 3 6
ENDBRANCH 1 2
BRANCH 1 35
ATOM     35  C   ARG X 129       2.416  11.718  -8.470  1.00 22.72 LIG 0.24  C 
ATOM     36  N   LEU X 130       3.555  12.429  -8.410  1.00 24.32 LIG-0.35  N 
ATOM     37 H    LEU X 130       3.640  13.191  -8.020  1.00 24.32 LIG 0.16  HD
ATOM     38 O    ARG X 129       2.336  10.702  -9.162  1.00 21.19 LIG-0.27  OA
BRANCH 36 39
ATOM     39  CA  LEU X 130       4.785  11.900  -9.049  1.00 26.11 LIG 0.18  C 
BRANCH 39 40
ATOM     40  C   LEU X 130       6.029  12.318  -8.299  1.00 29.66 LIG 0.24  C 
ATOM     41 O    LEU X 130       6.031  13.375  -7.650  1.00 28.98 LIG-0.27  OA
ATOM     42  N   ARG X 131       7.094  11.530  -8.413  1.00 30.67 LIG-0.34  N 
ATOM     43 H    ARG X 131       7.086  10.760  -8.797  1.00 30.67 LIG 0.16  HD
BRANCH 42 44
ATOM     44  CA  ARG X 131       8.380  11.927  -7.881  1.00 33.89 LIG 0.18  C 
BRANCH 44 45
ATOM     45  C   ARG X 131       9.531  11.524  -8.805  1.00 35.66 LIG 0.20  C 
ATOM     46 OXT  ARG X 131      10.728  11.651  -8.464  1.00 35.07 LIG-0.65  OA
ATOM     47 O    ARG X 131       9.308  11.067  -9.965  1.00 37.10 LIG-0.65  OA
ENDBRANCH 44 45
BRANCH 44 48
ATOM     48  CB  ARG X 131       8.574  11.298  -6.497  1.00 35.20 LIG 0.04  C 
BRANCH 48 49
ATOM     49  CG  ARG X 131       7.333  10.552  -5.974  1.00 40.01 LIG 0.02  C 
BRANCH 49 50
ATOM     50  CD  ARG X 131       7.167  10.603  -4.432  1.00 47.84 LIG 0.14  C 
BRANCH 50 51
ATOM     51  NE  ARG X 131       6.889  11.968  -3.983  1.00 52.72 LIG-0.23  N 
ATOM     52  CZ  ARG X 131       6.688  12.336  -2.716  1.00 57.07 LIG 0.67  C 
ATOM     53  NH1 ARG X 131       6.756  11.441  -1.717  1.00 58.64 LIG-0.23  N 
ATOM     54  NH2 ARG X 131       6.426  13.617  -2.443  1.00 59.02 LIG-0.23  N 
ATOM     55 2HH1 ARG X 131       6.624  11.691  -0.905  1.00 58.64 LIG 0.17  HD
ATOM     56 1HH1 ARG X 131       6.932  10.617  -1.889  1.00 58.64 LIG 0.17  HD
ATOM     57 2HH2 ARG X 131       6.294  13.866  -1.630  1.00 59.02 LIG 0.17  HD
ATOM     58 1HH2 ARG X 131       6.388  14.193  -3.081  1.00 59.02 LIG 0.17  HD
ATOM     59 HE   ARG X 131       6.853  12.581  -4.585  1.00 52.72 LIG 0.18  HD
ENDBRANCH 50 51
ENDBRANCH 49 50
ENDBRANCH 48 49
ENDBRANCH 44 48
ENDBRANCH 42 44
ENDBRANCH 39 40
BRANCH 39 60
ATOM     60  CB  LEU X 130       4.957  12.361 -10.499  1.00 27.29 LIG 0.04  C 
BRANCH 60 61
ATOM     61  CG  LEU X 130       4.633  13.789 -10.907  1.00 26.34 LIG-0.02  C 
ATOM     62  CD1 LEU X 130       5.911  14.646 -11.184  1.00 29.54 LIG 0.01  C 
ATOM     63  CD2 LEU X 130       3.775  13.740 -12.129  1.00 21.56 LIG 0.01  C 
ENDBRANCH 60 61
ENDBRANCH 39 60
ENDBRANCH 36 39
ENDBRANCH 1 35
BRANCH 1 64
ATOM     64  CB  ARG X 129       0.935  11.140  -6.502  1.00 24.17 LIG 0.04  C 
BRANCH 64 65
ATOM     65  CG  ARG X 129       1.278  11.563  -5.143  1.00 28.32 LIG 0.02  C 
BRANCH 65 66
ATOM     66  CD  ARG X 129       2.632  12.235  -5.013  1.00 31.43 LIG 0.14  C 
BRANCH 66 67
ATOM     67  NE  ARG X 129       2.918  12.863  -3.716  1.00 29.42 LIG-0.23  N 
ATOM     68  CZ  ARG X 129       2.860  12.251  -2.538  1.00 30.66 LIG 0.67  C 
ATOM     69  NH1 ARG X 129       2.426  10.997  -2.433  1.00 33.32 LIG-0.23  N 
ATOM     70  NH2 ARG X 129       3.205  12.921  -1.432  1.00 29.67 LIG-0.23  N 
ATOM     71 2HH1 ARG X 129       2.395  10.615  -1.663  1.00 33.32 LIG 0.17  HD
ATOM     72 1HH1 ARG X 129       2.177  10.568  -3.135  1.00 33.32 LIG 0.17  HD
ATOM     73 2HH2 ARG X 129       3.170  12.532  -0.666  1.00 29.67 LIG 0.17  HD
ATOM     74 1HH2 ARG X 129       3.462  13.739  -1.488  1.00 29.67 LIG 0.17  HD
ATOM     75 HE   ARG X 129       3.141  13.693  -3.718  1.00 29.42 LIG 0.18  HD
ENDBRANCH 66 67
ENDBRANCH 65 66
ENDBRANCH 64 65
ENDBRANCH 1 64
TORSDOF 27
ENDMDL
MODEL 16
USER: ADFR SOLUTION from run 96
USER: SCORE 29.308933 LL:  -4.654 LR: -25.886 RR:   0.000 FEB: -17.832
USER: RMSD 12.149699
USER: SEED 95
USER: STATUS searching
USER: GENES 29
USER: genes 0 Translation |==|  0.56798 0.40383 0.43362
USER: genes 1 Rotation |==|  0.49967 0.03383 0.31995 0.51636
USER: genes 2 Torsion [C]-CA--N-[C] |==|  0.61973
USER: genes 3 Torsion [N]-C--CA-[N] |==|  0.79498
USER: genes 4 Torsion [C]-CA--CB-[CG] |==|  0.42004
USER: genes 5 Torsion [CA]-CB--CG-[CD] |==|  0.09846
USER: genes 6 Torsion [CB]-CG--CD-[NE] |==|  0.27611
USER: genes 7 Torsion [CG]-CD--NE-[HE] |==|  0.87363
USER: genes 8 Torsion [C]-CA--N-[C] |==|  0.20837
USER: genes 9 Torsion [N]-C--CA-[N] |==|  0.44312
USER: genes 10 Torsion [C]-CA--N-[C] |==|  0.62282
USER: genes 11 Torsion [N]-C--CA-[N] |==|  0.92145
USER: genes 12 Torsion [C]-CA--CB-[CG] |==|  0.34345
USER: genes 13 Torsion [CA]-CB--CG-[CD2] |==|  0.04624
USER: genes 14 Torsion [N]-CA--C-[N] |==|  0.41667
USER: genes 15 Torsion [C]-N--CA-[C] |==|  0.74126
USER: genes 16 Torsion [N]-CA--C-[N] |==|  0.41181
USER: genes 17 Torsion [C]-N--CA-[C] |==|  0.73349
USER: genes 18 Torsion [N]-CA--C-[O] |==|  0.41393
USER: genes 19 Torsion [N]-CA--CB-[CG] |==|  0.51575
USER: genes 20 Torsion [CA]-CB--CG-[CD] |==|  0.16204
USER: genes 21 Torsion [CB]-CG--CD-[NE] |==|  0.66269
USER: genes 22 Torsion [CG]-CD--NE-[CZ] |==|  0.39422
USER: genes 23 Torsion [N]-CA--CB-[CG] |==|  0.79211
USER: genes 24 Torsion [CA]-CB--CG-[CD1] |==|  0.63434
USER: genes 25 Torsion [N]-CA--CB-[CG] |==|  0.60247
USER: genes 26 Torsion [CA]-CB--CG-[CD] |==|  0.84084
USER: genes 27 Torsion [CB]-CG--CD-[NE] |==|  0.44622
USER: genes 28 Torsion [CG]-CD--NE-[HE] |==|  0.00613
ROOT
ATOM      1  CA  ARG X 129       4.283  12.030  -8.670  1.00 23.09 LIG 0.18  C 
ENDROOT
BRANCH 1 2
ATOM      2  N   ARG X 129       3.070  12.150  -7.869  1.00 20.82 LIG-0.35  N 
ATOM      3  C   ARG X 128       2.065  11.274  -7.873  1.00 20.67 LIG 0.24  C 
ATOM      4 O    ARG X 128       2.021  10.245  -8.594  1.00 18.99 LIG-0.27  OA
ATOM      5 H    ARG X 129       3.062  12.857  -7.380  1.00 20.82 LIG 0.16  HD
BRANCH 3 6
ATOM      6  CA  ARG X 128       0.923  11.585  -6.908  1.00 21.45 LIG 0.18  C 
BRANCH 6 7
ATOM      7  CB  ARG X 128       0.530  13.049  -6.989  1.00 22.98 LIG 0.04  C 
BRANCH 7 8
ATOM      8  CG  ARG X 128      -0.959  13.237  -6.634  1.00 26.06 LIG 0.02  C 
BRANCH 8 9
ATOM      9  CD  ARG X 128      -1.551  12.281  -5.511  1.00 28.46 LIG 0.14  C 
BRANCH 9 10
ATOM     10  NE  ARG X 128      -1.726  12.689  -4.125  1.00 34.87 LIG-0.23  N 
ATOM     11 HE   ARG X 128      -1.070  13.108  -3.756  1.00 34.87 LIG 0.18  HD
ATOM     12  CZ  ARG X 128      -2.809  12.476  -3.366  1.00 35.06 LIG 0.67  C 
ATOM     13  NH1 ARG X 128      -3.852  11.793  -3.801  1.00 38.28 LIG-0.23  N 
ATOM     14  NH2 ARG X 128      -2.824  12.924  -2.143  1.00 41.06 LIG-0.23  N 
ATOM     15 1HH1 ARG X 128      -3.851  11.467  -4.597  1.00 38.28 LIG 0.17  HD
ATOM     16 2HH1 ARG X 128      -4.533  11.674  -3.289  1.00 38.28 LIG 0.17  HD
ATOM     17 1HH2 ARG X 128      -2.145  13.350  -1.833  1.00 41.06 LIG 0.17  HD
ATOM     18 2HH2 ARG X 128      -3.514  12.795  -1.646  1.00 41.06 LIG 0.17  HD
ENDBRANCH 9 10
ENDBRANCH 8 9
ENDBRANCH 7 8
ENDBRANCH 6 7
BRANCH 6 19
ATOM     19  N   ARG X 128       1.308  11.316  -5.548  1.00 22.62 LIG-0.35  N 
ATOM     20 H    ARG X 128       0.967  10.597  -5.221  1.00 22.62 LIG 0.16  HD
ATOM     21  C   ALA X 127       2.121  12.118  -4.873  1.00 23.78 LIG 0.24  C 
ATOM     22 O    ALA X 127       2.654  13.107  -5.370  1.00 22.39 LIG-0.27  OA
BRANCH 21 23
ATOM     23  CA  ALA X 127       2.483  11.666  -3.449  1.00 25.08 LIG 0.17  C 
ATOM     24  CB  ALA X 127       1.349  11.908  -2.461  1.00 24.37 LIG 0.04  C 
BRANCH 23 25
ATOM     25  N   ALA X 127       3.709  12.358  -3.069  1.00 27.78 LIG-0.35  N 
ATOM     26  C   LEU X 126       4.637  11.614  -2.468  1.00 33.19 LIG 0.26  C 
ATOM     27 O    LEU X 126       4.521  10.360  -2.303  1.00 34.96 LIG-0.27  OA
ATOM     28 H    ALA X 127       3.759  13.196  -3.254  1.00 27.78 LIG 0.16  HD
BRANCH 26 29
ATOM     29  CA  LEU X 126       5.858  12.329  -1.966  1.00 34.21 LIG 0.40  C 
ATOM     30  N   LEU X 126       6.146  13.538  -2.764  1.00 36.42 LIG 0.61  N 
BRANCH 29 31
ATOM     31  CB  LEU X 126       5.617  12.683  -0.484  1.00 35.53 LIG 0.06  C 
BRANCH 31 32
ATOM     32  CG  LEU X 126       6.667  12.155   0.502  1.00 35.00 LIG-0.02  C 
ATOM     33  CD2 LEU X 126       7.944  11.741  -0.274  1.00 38.18 LIG 0.01  C 
ATOM     34  CD1 LEU X 126       6.146  10.992   1.283  1.00 36.44 LIG 0.01  C 
ENDBRANCH 31 32
ENDBRANCH 29 31
ENDBRANCH 26 29
ENDBRANCH 23 25
ENDBRANCH 21 23
ENDBRANCH 6 19
ENDBRANCH 3 6
ENDBRANCH 1 2
BRANCH 1 35
ATOM     35  C   ARG X 129       5.560  12.383  -7.861  1.00 22.72 LIG 0.24  C 
ATOM     36  N   LEU X 130       6.738  11.805  -8.150  1.00 24.32 LIG-0.35  N 
ATOM     37 H    LEU X 130       6.846  11.154  -8.701  1.00 24.32 LIG 0.16  HD
ATOM     38 O    ARG X 129       5.465  13.218  -6.961  1.00 21.19 LIG-0.27  OA
BRANCH 36 39
ATOM     39  CA  LEU X 130       7.976  12.293  -7.494  1.00 26.11 LIG 0.18  C 
BRANCH 39 40
ATOM     40  C   LEU X 130       8.677  13.339  -8.328  1.00 29.66 LIG 0.24  C 
ATOM     41 O    LEU X 130       8.640  13.266  -9.566  1.00 28.98 LIG-0.27  OA
ATOM     42  N   ARG X 131       9.348  14.282  -7.673  1.00 30.67 LIG-0.34  N 
ATOM     43 H    ARG X 131       9.323  14.389  -6.820  1.00 30.67 LIG 0.16  HD
BRANCH 42 44
ATOM     44  CA  ARG X 131      10.194  15.225  -8.374  1.00 33.89 LIG 0.18  C 
BRANCH 44 45
ATOM     45  C   ARG X 131      11.658  14.784  -8.382  1.00 35.66 LIG 0.20  C 
ATOM     46 OXT  ARG X 131      12.160  14.140  -7.434  1.00 35.07 LIG-0.65  OA
ATOM     47 O    ARG X 131      12.425  15.079  -9.346  1.00 37.10 LIG-0.65  OA
ENDBRANCH 44 45
BRANCH 44 48
ATOM     48  CB  ARG X 131      10.066  16.606  -7.723  1.00 35.20 LIG 0.04  C 
BRANCH 48 49
ATOM     49  CG  ARG X 131      10.819  17.720  -8.475  1.00 40.01 LIG 0.02  C 
BRANCH 49 50
ATOM     50  CD  ARG X 131      10.371  17.901  -9.950  1.00 47.84 LIG 0.14  C 
BRANCH 50 51
ATOM     51  NE  ARG X 131      11.499  17.716 -10.863  1.00 52.72 LIG-0.23  N 
ATOM     52  CZ  ARG X 131      11.437  17.111 -12.051  1.00 57.07 LIG 0.67  C 
ATOM     53  NH1 ARG X 131      10.274  16.632 -12.523  1.00 58.64 LIG-0.23  N 
ATOM     54  NH2 ARG X 131      12.549  16.992 -12.781  1.00 59.02 LIG-0.23  N 
ATOM     55 2HH1 ARG X 131      10.247  16.244 -13.290  1.00 58.64 LIG 0.17  HD
ATOM     56 1HH1 ARG X 131       9.555  16.714 -12.058  1.00 58.64 LIG 0.17  HD
ATOM     57 2HH2 ARG X 131      12.521  16.603 -13.548  1.00 59.02 LIG 0.17  HD
ATOM     58 1HH2 ARG X 131      13.293  17.304 -12.484  1.00 59.02 LIG 0.17  HD
ATOM     59 HE   ARG X 131      12.263  18.022 -10.613  1.00 52.72 LIG 0.18  HD
ENDBRANCH 50 51
ENDBRANCH 49 50
ENDBRANCH 48 49
ENDBRANCH 44 48
ENDBRANCH 42 44
ENDBRANCH 39 40
BRANCH 39 60
ATOM     60  CB  LEU X 130       8.992  11.181  -7.219  1.00 27.29 LIG 0.04  C 
BRANCH 60 61
ATOM     61  CG  LEU X 130       8.775  10.189  -6.088  1.00 26.34 LIG-0.02  C 
ATOM     62  CD1 LEU X 130      10.041  10.007  -5.189  1.00 29.54 LIG 0.01  C 
ATOM     63  CD2 LEU X 130       7.627  10.670  -5.262  1.00 21.56 LIG 0.01  C 
ENDBRANCH 60 61
ENDBRANCH 39 60
ENDBRANCH 36 39
ENDBRANCH 1 35
BRANCH 1 64
ATOM     64  CB  ARG X 129       4.059  13.091  -9.771  1.00 24.17 LIG 0.04  C 
BRANCH 64 65
ATOM     65  CG  ARG X 129       4.528  12.783 -11.123  1.00 28.32 LIG 0.02  C 
BRANCH 65 66
ATOM     66  CD  ARG X 129       6.008  12.464 -11.220  1.00 31.43 LIG 0.14  C 
BRANCH 66 67
ATOM     67  NE  ARG X 129       6.432  11.735 -12.425  1.00 29.42 LIG-0.23  N 
ATOM     68  CZ  ARG X 129       7.670  11.327 -12.678  1.00 30.66 LIG 0.67  C 
ATOM     69  NH1 ARG X 129       8.680  11.645 -11.872  1.00 33.32 LIG-0.23  N 
ATOM     70  NH2 ARG X 129       7.913  10.617 -13.786  1.00 29.67 LIG-0.23  N 
ATOM     71 2HH1 ARG X 129       9.476  11.373 -12.051  1.00 33.32 LIG 0.17  HD
ATOM     72 1HH1 ARG X 129       8.537  12.124 -11.172  1.00 33.32 LIG 0.17  HD
ATOM     73 2HH2 ARG X 129       8.712  10.349 -13.959  1.00 29.67 LIG 0.17  HD
ATOM     74 1HH2 ARG X 129       7.271  10.429 -14.326  1.00 29.67 LIG 0.17  HD
ATOM     75 HE   ARG X 129       5.829  11.559 -13.013  1.00 29.42 LIG 0.18  HD
ENDBRANCH 66 67
ENDBRANCH 65 66
ENDBRANCH 64 65
ENDBRANCH 1 64
TORSDOF 27
ENDMDL
MODEL 17
USER: ADFR SOLUTION from run 166
USER: SCORE 28.189959 LL:  -4.012 LR: -25.793 RR:   0.000 FEB: -17.739
USER: RMSD 7.057488
USER: SEED 165
USER: STATUS no improvement in best in 20 clusters for 5 generations
USER: GENES 29
USER: genes 0 Translation |==|  0.53022 0.41800 0.37148
USER: genes 1 Rotation |==|  0.98151 0.54149 0.39183 0.56873
USER: genes 2 Torsion [C]-CA--N-[C] |==|  0.62600
USER: genes 3 Torsion [N]-C--CA-[N] |==|  0.40848
USER: genes 4 Torsion [C]-CA--CB-[CG] |==|  0.95877
USER: genes 5 Torsion [CA]-CB--CG-[CD] |==|  0.30791
USER: genes 6 Torsion [CB]-CG--CD-[NE] |==|  0.57123
USER: genes 7 Torsion [CG]-CD--NE-[HE] |==|  0.19432
USER: genes 8 Torsion [C]-CA--N-[C] |==|  0.55570
USER: genes 9 Torsion [N]-C--CA-[N] |==|  0.64090
USER: genes 10 Torsion [C]-CA--N-[C] |==|  0.16444
USER: genes 11 Torsion [N]-C--CA-[N] |==|  0.45810
USER: genes 12 Torsion [C]-CA--CB-[CG] |==|  0.91415
USER: genes 13 Torsion [CA]-CB--CG-[CD2] |==|  0.79279
USER: genes 14 Torsion [N]-CA--C-[N] |==|  0.28395
USER: genes 15 Torsion [C]-N--CA-[C] |==|  0.73893
USER: genes 16 Torsion [N]-CA--C-[N] |==|  0.27347
USER: genes 17 Torsion [C]-N--CA-[C] |==|  0.50508
USER: genes 18 Torsion [N]-CA--C-[O] |==|  0.16495
USER: genes 19 Torsion [N]-CA--CB-[CG] |==|  0.67964
USER: genes 20 Torsion [CA]-CB--CG-[CD] |==|  0.90157
USER: genes 21 Torsion [CB]-CG--CD-[NE] |==|  0.23349
USER: genes 22 Torsion [CG]-CD--NE-[CZ] |==|  0.35676
USER: genes 23 Torsion [N]-CA--CB-[CG] |==|  0.57592
USER: genes 24 Torsion [CA]-CB--CG-[CD1] |==|  0.68528
USER: genes 25 Torsion [N]-CA--CB-[CG] |==|  0.77728
USER: genes 26 Torsion [CA]-CB--CG-[CD] |==|  0.22797
USER: genes 27 Torsion [CB]-CG--CD-[NE] |==|  0.46056
USER: genes 28 Torsion [CG]-CD--NE-[HE] |==|  0.13926
ROOT
ATOM      1  CA  ARG X 129       3.235  12.264 -10.068  1.00 23.09 LIG 0.18  C 
ENDROOT
BRANCH 1 2
ATOM      2  N   ARG X 129       4.659  11.956 -10.104  1.00 20.82 LIG-0.35  N 
ATOM      3  C   ARG X 128       5.632  12.862 -10.209  1.00 20.67 LIG 0.24  C 
ATOM      4 O    ARG X 128       5.442  14.100 -10.324  1.00 18.99 LIG-0.27  OA
ATOM      5 H    ARG X 129       4.819  11.113 -10.049  1.00 20.82 LIG 0.16  HD
BRANCH 3 6
ATOM      6  CA  ARG X 128       7.053  12.303 -10.171  1.00 21.45 LIG 0.18  C 
BRANCH 6 7
ATOM      7  CB  ARG X 128       7.607  12.330  -8.757  1.00 22.98 LIG 0.04  C 
BRANCH 7 8
ATOM      8  CG  ARG X 128       6.748  13.234  -7.850  1.00 26.06 LIG 0.02  C 
BRANCH 8 9
ATOM      9  CD  ARG X 128       5.895  12.509  -6.722  1.00 28.46 LIG 0.14  C 
BRANCH 9 10
ATOM     10  NE  ARG X 128       4.674  13.068  -6.159  1.00 34.87 LIG-0.23  N 
ATOM     11 HE   ARG X 128       3.984  13.094  -6.673  1.00 34.87 LIG 0.18  HD
ATOM     12  CZ  ARG X 128       4.522  13.547  -4.918  1.00 35.06 LIG 0.67  C 
ATOM     13  NH1 ARG X 128       5.523  13.617  -4.060  1.00 38.28 LIG-0.23  N 
ATOM     14  NH2 ARG X 128       3.355  13.996  -4.551  1.00 41.06 LIG-0.23  N 
ATOM     15 1HH1 ARG X 128       6.306  13.350  -4.291  1.00 38.28 LIG 0.17  HD
ATOM     16 2HH1 ARG X 128       5.391  13.930  -3.269  1.00 38.28 LIG 0.17  HD
ATOM     17 1HH2 ARG X 128       2.696  13.983  -5.103  1.00 41.06 LIG 0.17  HD
ATOM     18 2HH2 ARG X 128       3.243  14.306  -3.756  1.00 41.06 LIG 0.17  HD
ENDBRANCH 9 10
ENDBRANCH 8 9
ENDBRANCH 7 8
ENDBRANCH 6 7
BRANCH 6 19
ATOM     19  N   ARG X 128       7.937  13.082 -10.996  1.00 22.62 LIG-0.35  N 
ATOM     20 H    ARG X 128       7.649  13.873 -11.170  1.00 22.62 LIG 0.16  HD
ATOM     21  C   ALA X 127       9.092  12.604 -11.441  1.00 23.78 LIG 0.24  C 
ATOM     22 O    ALA X 127       9.523  11.496 -11.133  1.00 22.39 LIG-0.27  OA
BRANCH 21 23
ATOM     23  CA  ALA X 127       9.950  13.577 -12.266  1.00 25.08 LIG 0.17  C 
ATOM     24  CB  ALA X 127       9.237  14.897 -12.525  1.00 24.37 LIG 0.04  C 
BRANCH 23 25
ATOM     25  N   ALA X 127      10.322  12.894 -13.499  1.00 27.78 LIG-0.35  N 
ATOM     26  C   LEU X 126       9.313  12.485 -14.267  1.00 33.19 LIG 0.26  C 
ATOM     27 O    LEU X 126       8.096  12.739 -14.007  1.00 34.96 LIG-0.27  OA
ATOM     28 H    ALA X 127      11.163  12.797 -13.655  1.00 27.78 LIG 0.16  HD
BRANCH 26 29
ATOM     29  CA  LEU X 126       9.670  11.680 -15.483  1.00 34.21 LIG 0.40  C 
ATOM     30  N   LEU X 126       8.491  10.992 -16.044  1.00 36.42 LIG 0.61  N 
BRANCH 29 31
ATOM     31  CB  LEU X 126      10.298  12.641 -16.513  1.00 35.53 LIG 0.06  C 
BRANCH 31 32
ATOM     32  CG  LEU X 126       9.782  14.086 -16.473  1.00 35.00 LIG-0.02  C 
ATOM     33  CD2 LEU X 126       8.363  14.146 -17.093  1.00 38.18 LIG 0.01  C 
ATOM     34  CD1 LEU X 126      10.698  15.013 -17.205  1.00 36.44 LIG 0.01  C 
ENDBRANCH 31 32
ENDBRANCH 29 31
ENDBRANCH 26 29
ENDBRANCH 23 25
ENDBRANCH 21 23
ENDBRANCH 6 19
ENDBRANCH 3 6
ENDBRANCH 1 2
BRANCH 1 35
ATOM     35  C   ARG X 129       2.489  11.479  -8.955  1.00 22.72 LIG 0.24  C 
ATOM     36  N   LEU X 130       2.149  12.078  -7.801  1.00 24.32 LIG-0.35  N 
ATOM     37 H    LEU X 130       2.400  12.865  -7.562  1.00 24.32 LIG 0.16  HD
ATOM     38 O    ARG X 129       2.206  10.299  -9.167  1.00 21.19 LIG-0.27  OA
BRANCH 36 39
ATOM     39  CA  LEU X 130       1.277  11.366  -6.834  1.00 26.11 LIG 0.18  C 
BRANCH 39 40
ATOM     40  C   LEU X 130      -0.178  11.722  -7.026  1.00 29.66 LIG 0.24  C 
ATOM     41 O    LEU X 130      -0.636  12.750  -6.502  1.00 28.98 LIG-0.27  OA
ATOM     42  N   ARG X 131      -0.918  10.870  -7.729  1.00 30.67 LIG-0.34  N 
ATOM     43 H    ARG X 131      -0.602  10.195  -8.158  1.00 30.67 LIG 0.16  HD
BRANCH 42 44
ATOM     44  CA  ARG X 131      -2.354  11.026  -7.824  1.00 33.89 LIG 0.18  C 
BRANCH 44 45
ATOM     45  C   ARG X 131      -2.999   9.908  -8.645  1.00 35.66 LIG 0.20  C 
ATOM     46 OXT  ARG X 131      -3.679  10.146  -9.668  1.00 35.07 LIG-0.65  OA
ATOM     47 O    ARG X 131      -2.884   8.695  -8.301  1.00 37.10 LIG-0.65  OA
ENDBRANCH 44 45
BRANCH 44 48
ATOM     48  CB  ARG X 131      -2.678  12.388  -8.448  1.00 35.20 LIG 0.04  C 
BRANCH 48 49
ATOM     49  CG  ARG X 131      -3.418  13.347  -7.497  1.00 40.01 LIG 0.02  C 
BRANCH 49 50
ATOM     50  CD  ARG X 131      -4.420  12.644  -6.544  1.00 47.84 LIG 0.14  C 
BRANCH 50 51
ATOM     51  NE  ARG X 131      -3.736  12.129  -5.358  1.00 52.72 LIG-0.23  N 
ATOM     52  CZ  ARG X 131      -4.102  12.362  -4.095  1.00 57.07 LIG 0.67  C 
ATOM     53  NH1 ARG X 131      -5.192  13.097  -3.816  1.00 58.64 LIG-0.23  N 
ATOM     54  NH2 ARG X 131      -3.377  11.844  -3.100  1.00 59.02 LIG-0.23  N 
ATOM     55 2HH1 ARG X 131      -5.417  13.239  -2.998  1.00 58.64 LIG 0.17  HD
ATOM     56 1HH1 ARG X 131      -5.664  13.425  -4.455  1.00 58.64 LIG 0.17  HD
ATOM     57 2HH2 ARG X 131      -3.604  11.987  -2.283  1.00 59.02 LIG 0.17  HD
ATOM     58 1HH2 ARG X 131      -2.684  11.367  -3.277  1.00 59.02 LIG 0.17  HD
ATOM     59 HE   ARG X 131      -3.042  11.637  -5.484  1.00 52.72 LIG 0.18  HD
ENDBRANCH 50 51
ENDBRANCH 49 50
ENDBRANCH 48 49
ENDBRANCH 44 48
ENDBRANCH 42 44
ENDBRANCH 39 40
BRANCH 39 60
ATOM     60  CB  LEU X 130       1.626  11.667  -5.373  1.00 27.29 LIG 0.04  C 
BRANCH 60 61
ATOM     61  CG  LEU X 130       1.330  10.655  -4.278  1.00 26.34 LIG-0.02  C 
ATOM     62  CD1 LEU X 130       0.233  11.146  -3.278  1.00 29.54 LIG 0.01  C 
ATOM     63  CD2 LEU X 130       0.896   9.381  -4.926  1.00 21.56 LIG 0.01  C 
ENDBRANCH 60 61
ENDBRANCH 39 60
ENDBRANCH 36 39
ENDBRANCH 1 35
BRANCH 1 64
ATOM     64  CB  ARG X 129       2.755  11.776 -11.453  1.00 24.17 LIG 0.04  C 
BRANCH 64 65
ATOM     65  CG  ARG X 129       2.986  12.651 -12.604  1.00 28.32 LIG 0.02  C 
BRANCH 65 66
ATOM     66  CD  ARG X 129       4.380  12.560 -13.196  1.00 31.43 LIG 0.14  C 
BRANCH 66 67
ATOM     67  NE  ARG X 129       4.556  13.163 -14.525  1.00 29.42 LIG-0.23  N 
ATOM     68  CZ  ARG X 129       5.120  12.567 -15.570  1.00 30.66 LIG 0.67  C 
ATOM     69  NH1 ARG X 129       5.679  11.364 -15.458  1.00 33.32 LIG-0.23  N 
ATOM     70  NH2 ARG X 129       5.163  13.204 -16.746  1.00 29.67 LIG-0.23  N 
ATOM     71 2HH1 ARG X 129       6.039  10.992 -16.144  1.00 33.32 LIG 0.17  HD
ATOM     72 1HH1 ARG X 129       5.679  10.959 -14.700  1.00 33.32 LIG 0.17  HD
ATOM     73 2HH2 ARG X 129       5.526  12.826 -17.427  1.00 29.67 LIG 0.17  HD
ATOM     74 1HH2 ARG X 129       4.827  13.993 -16.820  1.00 29.67 LIG 0.17  HD
ATOM     75 HE   ARG X 129       4.271  13.967 -14.636  1.00 29.42 LIG 0.18  HD
ENDBRANCH 66 67
ENDBRANCH 65 66
ENDBRANCH 64 65
ENDBRANCH 1 64
TORSDOF 27
ENDMDL
MODEL 18
USER: ADFR SOLUTION from run 166
USER: SCORE 29.298895 LL:  -4.154 LR: -25.783 RR:   0.000 FEB: -17.729
USER: RMSD 7.221096
USER: SEED 165
USER: STATUS no improvement in best in 20 clusters for 5 generations
USER: GENES 29
USER: genes 0 Translation |==|  0.57408 0.42925 0.41760
USER: genes 1 Rotation |==|  0.99657 0.49306 0.44526 0.51924
USER: genes 2 Torsion [C]-CA--N-[C] |==|  0.72163
USER: genes 3 Torsion [N]-C--CA-[N] |==|  0.43470
USER: genes 4 Torsion [C]-CA--CB-[CG] |==|  0.73861
USER: genes 5 Torsion [CA]-CB--CG-[CD] |==|  0.32027
USER: genes 6 Torsion [CB]-CG--CD-[NE] |==|  0.73558
USER: genes 7 Torsion [CG]-CD--NE-[HE] |==|  0.04781
USER: genes 8 Torsion [C]-CA--N-[C] |==|  0.62786
USER: genes 9 Torsion [N]-C--CA-[N] |==|  0.84482
USER: genes 10 Torsion [C]-CA--N-[C] |==|  0.81137
USER: genes 11 Torsion [N]-C--CA-[N] |==|  0.19824
USER: genes 12 Torsion [C]-CA--CB-[CG] |==|  0.71275
USER: genes 13 Torsion [CA]-CB--CG-[CD2] |==|  0.56325
USER: genes 14 Torsion [N]-CA--C-[N] |==|  0.29632
USER: genes 15 Torsion [C]-N--CA-[C] |==|  0.77375
USER: genes 16 Torsion [N]-CA--C-[N] |==|  0.33098
USER: genes 17 Torsion [C]-N--CA-[C] |==|  0.52633
USER: genes 18 Torsion [N]-CA--C-[O] |==|  0.17876
USER: genes 19 Torsion [N]-CA--CB-[CG] |==|  0.65127
USER: genes 20 Torsion [CA]-CB--CG-[CD] |==|  0.92428
USER: genes 21 Torsion [CB]-CG--CD-[NE] |==|  0.76067
USER: genes 22 Torsion [CG]-CD--NE-[CZ] |==|  0.76872
USER: genes 23 Torsion [N]-CA--CB-[CG] |==|  0.64322
USER: genes 24 Torsion [CA]-CB--CG-[CD1] |==|  0.93413
USER: genes 25 Torsion [N]-CA--CB-[CG] |==|  0.77430
USER: genes 26 Torsion [CA]-CB--CG-[CD] |==|  0.21573
USER: genes 27 Torsion [CB]-CG--CD-[NE] |==|  0.24943
USER: genes 28 Torsion [CG]-CD--NE-[HE] |==|  0.07441
ROOT
ATOM      1  CA  ARG X 129       4.452  12.450  -9.030  1.00 23.09 LIG 0.18  C 
ENDROOT
BRANCH 1 2
ATOM      2  N   ARG X 129       5.761  11.842  -8.829  1.00 20.82 LIG-0.35  N 
ATOM      3  C   ARG X 128       6.685  12.288  -7.977  1.00 20.67 LIG 0.24  C 
ATOM      4 O    ARG X 128       6.555  13.311  -7.257  1.00 18.99 LIG-0.27  OA
ATOM      5 H    ARG X 129       5.888  11.151  -9.324  1.00 20.82 LIG 0.16  HD
BRANCH 3 6
ATOM      6  CA  ARG X 128       7.962  11.452  -7.901  1.00 21.45 LIG 0.18  C 
BRANCH 6 7
ATOM      7  CB  ARG X 128       7.788  10.285  -6.946  1.00 22.98 LIG 0.04  C 
BRANCH 7 8
ATOM      8  CG  ARG X 128       8.293  10.651  -5.536  1.00 26.06 LIG 0.02  C 
BRANCH 8 9
ATOM      9  CD  ARG X 128       7.205  10.692  -4.377  1.00 28.46 LIG 0.14  C 
BRANCH 9 10
ATOM     10  NE  ARG X 128       6.534  11.913  -3.954  1.00 34.87 LIG-0.23  N 
ATOM     11 HE   ARG X 128       6.568  12.583  -4.493  1.00 34.87 LIG 0.18  HD
ATOM     12  CZ  ARG X 128       5.867  12.093  -2.807  1.00 35.06 LIG 0.67  C 
ATOM     13  NH1 ARG X 128       5.797  11.159  -1.876  1.00 38.28 LIG-0.23  N 
ATOM     14  NH2 ARG X 128       5.297  13.242  -2.579  1.00 41.06 LIG-0.23  N 
ATOM     15 1HH1 ARG X 128       6.189  10.403  -1.996  1.00 38.28 LIG 0.17  HD
ATOM     16 2HH1 ARG X 128       5.361  11.307  -1.150  1.00 38.28 LIG 0.17  HD
ATOM     17 1HH2 ARG X 128       5.351  13.872  -3.162  1.00 41.06 LIG 0.17  HD
ATOM     18 2HH2 ARG X 128       4.865  13.371  -1.846  1.00 41.06 LIG 0.17  HD
ENDBRANCH 9 10
ENDBRANCH 8 9
ENDBRANCH 7 8
ENDBRANCH 6 7
BRANCH 6 19
ATOM     19  N   ARG X 128       9.066  12.240  -7.423  1.00 22.62 LIG-0.35  N 
ATOM     20 H    ARG X 128       8.883  12.722  -6.734  1.00 22.62 LIG 0.16  HD
ATOM     21  C   ALA X 127      10.257  12.213  -8.007  1.00 23.78 LIG 0.24  C 
ATOM     22 O    ALA X 127      10.526  11.474  -8.950  1.00 22.39 LIG-0.27  OA
BRANCH 21 23
ATOM     23  CA  ALA X 127      11.351  13.068  -7.345  1.00 25.08 LIG 0.17  C 
ATOM     24  CB  ALA X 127      11.764  12.525  -5.984  1.00 24.37 LIG 0.04  C 
BRANCH 23 25
ATOM     25  N   ALA X 127      10.851  14.436  -7.270  1.00 27.78 LIG-0.35  N 
ATOM     26  C   LEU X 126      10.701  15.068  -8.433  1.00 33.19 LIG 0.26  C 
ATOM     27 O    LEU X 126      10.893  14.507  -9.557  1.00 34.96 LIG-0.27  OA
ATOM     28 H    ALA X 127      10.683  14.750  -6.487  1.00 27.78 LIG 0.16  HD
BRANCH 26 29
ATOM     29  CA  LEU X 126      10.297  16.512  -8.373  1.00 34.21 LIG 0.40  C 
ATOM     30  N   LEU X 126      11.399  17.365  -7.883  1.00 36.42 LIG 0.61  N 
BRANCH 29 31
ATOM     31  CB  LEU X 126       9.852  16.934  -9.788  1.00 35.53 LIG 0.06  C 
BRANCH 31 32
ATOM     32  CG  LEU X 126      10.863  17.777 -10.577  1.00 35.00 LIG-0.02  C 
ATOM     33  CD2 LEU X 126      10.120  18.588 -11.670  1.00 38.18 LIG 0.01  C 
ATOM     34  CD1 LEU X 126      11.915  16.922 -11.205  1.00 36.44 LIG 0.01  C 
ENDBRANCH 31 32
ENDBRANCH 29 31
ENDBRANCH 26 29
ENDBRANCH 23 25
ENDBRANCH 21 23
ENDBRANCH 6 19
ENDBRANCH 3 6
ENDBRANCH 1 2
BRANCH 1 35
ATOM     35  C   ARG X 129       3.328  11.693  -8.271  1.00 22.72 LIG 0.24  C 
ATOM     36  N   LEU X 130       2.770  12.217  -7.167  1.00 24.32 LIG-0.35  N 
ATOM     37 H    LEU X 130       3.052  12.920  -6.759  1.00 24.32 LIG 0.16  HD
ATOM     38 O    ARG X 129       2.954  10.609  -8.720  1.00 21.19 LIG-0.27  OA
BRANCH 36 39
ATOM     39  CA  LEU X 130       1.576  11.570  -6.569  1.00 26.11 LIG 0.18  C 
BRANCH 39 40
ATOM     40  C   LEU X 130       0.307  11.969  -7.284  1.00 29.66 LIG 0.24  C 
ATOM     41 O    LEU X 130      -0.054  13.156  -7.282  1.00 28.98 LIG-0.27  OA
ATOM     42  N   ARG X 131      -0.395  10.994  -7.855  1.00 30.67 LIG-0.34  N 
ATOM     43 H    ARG X 131      -0.123  10.182  -7.928  1.00 30.67 LIG 0.16  HD
BRANCH 42 44
ATOM     44  CA  ARG X 131      -1.708  11.243  -8.411  1.00 33.89 LIG 0.18  C 
BRANCH 44 45
ATOM     45  C   ARG X 131      -2.419   9.946  -8.802  1.00 35.66 LIG 0.20  C 
ATOM     46 OXT  ARG X 131      -2.728   9.693  -9.987  1.00 35.07 LIG-0.65  OA
ATOM     47 O    ARG X 131      -2.742   9.088  -7.927  1.00 37.10 LIG-0.65  OA
ENDBRANCH 44 45
BRANCH 44 48
ATOM     48  CB  ARG X 131      -1.578  12.158  -9.634  1.00 35.20 LIG 0.04  C 
BRANCH 48 49
ATOM     49  CG  ARG X 131      -2.450  13.425  -9.557  1.00 40.01 LIG 0.02  C 
BRANCH 49 50
ATOM     50  CD  ARG X 131      -3.726  13.263  -8.689  1.00 47.84 LIG 0.14  C 
BRANCH 50 51
ATOM     51  NE  ARG X 131      -4.826  12.710  -9.479  1.00 52.72 LIG-0.23  N 
ATOM     52  CZ  ARG X 131      -5.640  13.417 -10.267  1.00 57.07 LIG 0.67  C 
ATOM     53  NH1 ARG X 131      -5.478  14.742 -10.416  1.00 58.64 LIG-0.23  N 
ATOM     54  NH2 ARG X 131      -6.619  12.789 -10.923  1.00 59.02 LIG-0.23  N 
ATOM     55 2HH1 ARG X 131      -6.009  15.186 -10.927  1.00 58.64 LIG 0.17  HD
ATOM     56 1HH1 ARG X 131      -4.844  15.147 -10.001  1.00 58.64 LIG 0.17  HD
ATOM     57 2HH2 ARG X 131      -7.149  13.234 -11.434  1.00 59.02 LIG 0.17  HD
ATOM     58 1HH2 ARG X 131      -6.719  11.939 -10.835  1.00 59.02 LIG 0.17  HD
ATOM     59 HE   ARG X 131      -4.959  11.862  -9.432  1.00 52.72 LIG 0.18  HD
ENDBRANCH 50 51
ENDBRANCH 49 50
ENDBRANCH 48 49
ENDBRANCH 44 48
ENDBRANCH 42 44
ENDBRANCH 39 40
BRANCH 39 60
ATOM     60  CB  LEU X 130       1.385  11.908  -5.088  1.00 27.29 LIG 0.04  C 
BRANCH 60 61
ATOM     61  CG  LEU X 130       1.189  10.809  -4.057  1.00 26.34 LIG-0.02  C 
ATOM     62  CD1 LEU X 130       0.628   9.487  -4.677  1.00 29.54 LIG 0.01  C 
ATOM     63  CD2 LEU X 130       2.506  10.546  -3.401  1.00 21.56 LIG 0.01  C 
ENDBRANCH 60 61
ENDBRANCH 39 60
ENDBRANCH 36 39
ENDBRANCH 1 35
BRANCH 1 64
ATOM     64  CB  ARG X 129       4.243  12.291 -10.553  1.00 24.17 LIG 0.04  C 
BRANCH 64 65
ATOM     65  CG  ARG X 129       4.883  13.268 -11.436  1.00 28.32 LIG 0.02  C 
BRANCH 65 66
ATOM     66  CD  ARG X 129       6.369  13.047 -11.651  1.00 31.43 LIG 0.14  C 
BRANCH 66 67
ATOM     67  NE  ARG X 129       6.734  12.182 -12.781  1.00 29.42 LIG-0.23  N 
ATOM     68  CZ  ARG X 129       7.847  11.461 -12.867  1.00 30.66 LIG 0.67  C 
ATOM     69  NH1 ARG X 129       8.798  11.548 -11.941  1.00 33.32 LIG-0.23  N 
ATOM     70  NH2 ARG X 129       8.032  10.663 -13.925  1.00 29.67 LIG-0.23  N 
ATOM     71 2HH1 ARG X 129       9.512  11.074 -12.011  1.00 33.32 LIG 0.17  HD
ATOM     72 1HH1 ARG X 129       8.699  12.078 -11.271  1.00 33.32 LIG 0.17  HD
ATOM     73 2HH2 ARG X 129       8.749  10.193 -13.989  1.00 29.67 LIG 0.17  HD
ATOM     74 1HH2 ARG X 129       7.434  10.620 -14.542  1.00 29.67 LIG 0.17  HD
ATOM     75 HE   ARG X 129       6.183  12.138 -13.440  1.00 29.42 LIG 0.18  HD
ENDBRANCH 66 67
ENDBRANCH 65 66
ENDBRANCH 64 65
ENDBRANCH 1 64
TORSDOF 27
ENDMDL
MODEL 19
USER: ADFR SOLUTION from run 160
USER: SCORE 28.092663 LL:  -3.766 LR: -25.769 RR:   0.000 FEB: -17.715
USER: RMSD 10.803936
USER: SEED 159
USER: STATUS no improvement in best in 7 clusters for 5 generations
USER: GENES 29
USER: genes 0 Translation |==|  0.48083 0.39548 0.54131
USER: genes 1 Rotation |==|  0.37670 0.11615 0.36951 0.76539
USER: genes 2 Torsion [C]-CA--N-[C] |==|  0.63860
USER: genes 3 Torsion [N]-C--CA-[N] |==|  0.87778
USER: genes 4 Torsion [C]-CA--CB-[CG] |==|  0.25307
USER: genes 5 Torsion [CA]-CB--CG-[CD] |==|  0.47071
USER: genes 6 Torsion [CB]-CG--CD-[NE] |==|  0.47859
USER: genes 7 Torsion [CG]-CD--NE-[HE] |==|  0.78618
USER: genes 8 Torsion [C]-CA--N-[C] |==|  0.78305
USER: genes 9 Torsion [N]-C--CA-[N] |==|  0.09134
USER: genes 10 Torsion [C]-CA--N-[C] |==|  0.18270
USER: genes 11 Torsion [N]-C--CA-[N] |==|  0.35395
USER: genes 12 Torsion [C]-CA--CB-[CG] |==|  0.17257
USER: genes 13 Torsion [CA]-CB--CG-[CD2] |==|  0.53172
USER: genes 14 Torsion [N]-CA--C-[N] |==|  0.94586
USER: genes 15 Torsion [C]-N--CA-[C] |==|  0.14783
USER: genes 16 Torsion [N]-CA--C-[N] |==|  0.66898
USER: genes 17 Torsion [C]-N--CA-[C] |==|  0.74848
USER: genes 18 Torsion [N]-CA--C-[O] |==|  0.95266
USER: genes 19 Torsion [N]-CA--CB-[CG] |==|  0.74680
USER: genes 20 Torsion [CA]-CB--CG-[CD] |==|  0.67223
USER: genes 21 Torsion [CB]-CG--CD-[NE] |==|  0.13072
USER: genes 22 Torsion [CG]-CD--NE-[CZ] |==|  0.70760
USER: genes 23 Torsion [N]-CA--CB-[CG] |==|  0.65925
USER: genes 24 Torsion [CA]-CB--CG-[CD1] |==|  0.37700
USER: genes 25 Torsion [N]-CA--CB-[CG] |==|  0.73169
USER: genes 26 Torsion [CA]-CB--CG-[CD] |==|  0.26342
USER: genes 27 Torsion [CB]-CG--CD-[NE] |==|  0.55530
USER: genes 28 Torsion [CG]-CD--NE-[HE] |==|  0.03724
ROOT
ATOM      1  CA  ARG X 129       1.864  11.892  -6.247  1.00 23.09 LIG 0.18  C 
ENDROOT
BRANCH 1 2
ATOM      2  N   ARG X 129       2.159  12.173  -4.847  1.00 20.82 LIG-0.35  N 
ATOM      3  C   ARG X 128       1.866  11.363  -3.829  1.00 20.67 LIG 0.24  C 
ATOM      4 O    ARG X 128       1.266  10.264  -3.945  1.00 18.99 LIG-0.27  OA
ATOM      5 H    ARG X 129       2.551  12.930  -4.734  1.00 20.82 LIG 0.16  HD
BRANCH 3 6
ATOM      6  CA  ARG X 128       2.323  11.847  -2.455  1.00 21.45 LIG 0.18  C 
BRANCH 6 7
ATOM      7  CB  ARG X 128       1.425  12.961  -1.947  1.00 22.98 LIG 0.04  C 
BRANCH 7 8
ATOM      8  CG  ARG X 128       0.262  12.389  -1.112  1.00 26.06 LIG 0.02  C 
BRANCH 8 9
ATOM      9  CD  ARG X 128      -0.615  13.435  -0.299  1.00 28.46 LIG 0.14  C 
BRANCH 9 10
ATOM     10  NE  ARG X 128      -1.840  13.077   0.403  1.00 34.87 LIG-0.23  N 
ATOM     11 HE   ARG X 128      -2.545  12.965  -0.077  1.00 34.87 LIG 0.18  HD
ATOM     12  CZ  ARG X 128      -1.974  12.906   1.724  1.00 35.06 LIG 0.67  C 
ATOM     13  NH1 ARG X 128      -0.980  13.110   2.568  1.00 38.28 LIG-0.23  N 
ATOM     14  NH2 ARG X 128      -3.136  12.563   2.203  1.00 41.06 LIG-0.23  N 
ATOM     15 1HH1 ARG X 128      -0.212  13.362   2.274  1.00 38.28 LIG 0.17  HD
ATOM     16 2HH1 ARG X 128      -1.099  12.992   3.411  1.00 38.28 LIG 0.17  HD
ATOM     17 1HH2 ARG X 128      -3.804  12.450   1.673  1.00 41.06 LIG 0.17  HD
ATOM     18 2HH2 ARG X 128      -3.236  12.450   3.050  1.00 41.06 LIG 0.17  HD
ENDBRANCH 9 10
ENDBRANCH 8 9
ENDBRANCH 7 8
ENDBRANCH 6 7
BRANCH 6 19
ATOM     19  N   ARG X 128       3.665  12.365  -2.510  1.00 22.62 LIG-0.35  N 
ATOM     20 H    ARG X 128       3.710  13.224  -2.520  1.00 22.62 LIG 0.16  HD
ATOM     21  C   ALA X 127       4.727  11.571  -2.543  1.00 23.78 LIG 0.24  C 
ATOM     22 O    ALA X 127       4.653  10.348  -2.464  1.00 22.39 LIG-0.27  OA
BRANCH 21 23
ATOM     23  CA  ALA X 127       6.094  12.275  -2.545  1.00 25.08 LIG 0.17  C 
ATOM     24  CB  ALA X 127       7.208  11.373  -2.029  1.00 24.37 LIG 0.04  C 
BRANCH 23 25
ATOM     25  N   ALA X 127       5.958  13.496  -1.759  1.00 27.78 LIG-0.35  N 
ATOM     26  C   LEU X 126       5.715  13.330  -0.460  1.00 33.19 LIG 0.26  C 
ATOM     27 O    LEU X 126       5.686  12.190   0.100  1.00 34.96 LIG-0.27  OA
ATOM     28 H    ALA X 127       6.042  14.243  -2.177  1.00 27.78 LIG 0.16  HD
BRANCH 26 29
ATOM     29  CA  LEU X 126       5.458  14.570   0.345  1.00 34.21 LIG 0.40  C 
ATOM     30  N   LEU X 126       4.200  14.470   1.112  1.00 36.42 LIG 0.61  N 
BRANCH 29 31
ATOM     31  CB  LEU X 126       6.667  14.779   1.282  1.00 35.53 LIG 0.06  C 
BRANCH 31 32
ATOM     32  CG  LEU X 126       8.014  15.009   0.584  1.00 35.00 LIG-0.02  C 
ATOM     33  CD2 LEU X 126       9.159  14.914   1.624  1.00 38.18 LIG 0.01  C 
ATOM     34  CD1 LEU X 126       8.055  16.338  -0.100  1.00 36.44 LIG 0.01  C 
ENDBRANCH 31 32
ENDBRANCH 29 31
ENDBRANCH 26 29
ENDBRANCH 23 25
ENDBRANCH 21 23
ENDBRANCH 6 19
ENDBRANCH 3 6
ENDBRANCH 1 2
BRANCH 1 35
ATOM     35  C   ARG X 129       3.100  12.098  -7.163  1.00 22.72 LIG 0.24  C 
ATOM     36  N   LEU X 130       4.142  12.843  -6.755  1.00 24.32 LIG-0.35  N 
ATOM     37 H    LEU X 130       4.155  13.323  -6.042  1.00 24.32 LIG 0.16  HD
ATOM     38 O    ARG X 129       3.104  11.547  -8.264  1.00 21.19 LIG-0.27  OA
BRANCH 36 39
ATOM     39  CA  LEU X 130       5.385  12.872  -7.564  1.00 26.11 LIG 0.18  C 
BRANCH 39 40
ATOM     40  C   LEU X 130       5.107  13.232  -9.005  1.00 29.66 LIG 0.24  C 
ATOM     41 O    LEU X 130       4.558  14.311  -9.276  1.00 28.98 LIG-0.27  OA
ATOM     42  N   ARG X 131       5.436  12.330  -9.925  1.00 30.67 LIG-0.34  N 
ATOM     43 H    ARG X 131       5.881  11.613  -9.761  1.00 30.67 LIG 0.16  HD
BRANCH 42 44
ATOM     44  CA  ARG X 131       5.055  12.500 -11.311  1.00 33.89 LIG 0.18  C 
BRANCH 44 45
ATOM     45  C   ARG X 131       3.698  11.861 -11.614  1.00 35.66 LIG 0.20  C 
ATOM     46 OXT  ARG X 131       3.034  12.169 -12.629  1.00 35.07 LIG-0.65  OA
ATOM     47 O    ARG X 131       3.187  11.008 -10.829  1.00 37.10 LIG-0.65  OA
ENDBRANCH 44 45
BRANCH 44 48
ATOM     48  CB  ARG X 131       6.134  11.893 -12.214  1.00 35.20 LIG 0.04  C 
BRANCH 48 49
ATOM     49  CG  ARG X 131       7.226  12.894 -12.635  1.00 40.01 LIG 0.02  C 
BRANCH 49 50
ATOM     50  CD  ARG X 131       7.307  13.135 -14.166  1.00 47.84 LIG 0.14  C 
BRANCH 50 51
ATOM     51  NE  ARG X 131       5.976  13.369 -14.727  1.00 52.72 LIG-0.23  N 
ATOM     52  CZ  ARG X 131       5.281  12.490 -15.452  1.00 57.07 LIG 0.67  C 
ATOM     53  NH1 ARG X 131       5.767  11.263 -15.705  1.00 58.64 LIG-0.23  N 
ATOM     54  NH2 ARG X 131       4.079  12.837 -15.921  1.00 59.02 LIG-0.23  N 
ATOM     55 2HH1 ARG X 131       5.309  10.706 -16.173  1.00 58.64 LIG 0.17  HD
ATOM     56 1HH1 ARG X 131       6.537  11.034 -15.397  1.00 58.64 LIG 0.17  HD
ATOM     57 2HH2 ARG X 131       3.623  12.279 -16.390  1.00 59.02 LIG 0.17  HD
ATOM     58 1HH2 ARG X 131       3.763  13.619 -15.755  1.00 59.02 LIG 0.17  HD
ATOM     59 HE   ARG X 131       5.614  14.134 -14.578  1.00 52.72 LIG 0.18  HD
ENDBRANCH 50 51
ENDBRANCH 49 50
ENDBRANCH 48 49
ENDBRANCH 44 48
ENDBRANCH 42 44
ENDBRANCH 39 40
BRANCH 39 60
ATOM     60  CB  LEU X 130       6.133  11.536  -7.570  1.00 27.29 LIG 0.04  C 
BRANCH 60 61
ATOM     61  CG  LEU X 130       7.577  11.449  -7.104  1.00 26.34 LIG-0.02  C 
ATOM     62  CD1 LEU X 130       7.842  10.222  -6.172  1.00 29.54 LIG 0.01  C 
ATOM     63  CD2 LEU X 130       8.452  11.370  -8.313  1.00 21.56 LIG 0.01  C 
ENDBRANCH 60 61
ENDBRANCH 39 60
ENDBRANCH 36 39
ENDBRANCH 1 35
BRANCH 1 64
ATOM     64  CB  ARG X 129       0.793  12.956  -6.578  1.00 24.17 LIG 0.04  C 
BRANCH 64 65
ATOM     65  CG  ARG X 129      -0.613  12.556  -6.505  1.00 28.32 LIG 0.02  C 
BRANCH 65 66
ATOM     66  CD  ARG X 129      -1.290  12.866  -5.183  1.00 31.43 LIG 0.14  C 
BRANCH 66 67
ATOM     67  NE  ARG X 129      -2.513  12.105  -4.892  1.00 29.42 LIG-0.23  N 
ATOM     68  CZ  ARG X 129      -3.384  12.391  -3.931  1.00 30.66 LIG 0.67  C 
ATOM     69  NH1 ARG X 129      -3.155  13.373  -3.062  1.00 33.32 LIG-0.23  N 
ATOM     70  NH2 ARG X 129      -4.494  11.654  -3.809  1.00 29.67 LIG-0.23  N 
ATOM     71 2HH1 ARG X 129      -3.729  13.545  -2.446  1.00 33.32 LIG 0.17  HD
ATOM     72 1HH1 ARG X 129      -2.432  13.835  -3.116  1.00 33.32 LIG 0.17  HD
ATOM     73 2HH2 ARG X 129      -5.063  11.832  -3.190  1.00 29.67 LIG 0.17  HD
ATOM     74 1HH2 ARG X 129      -4.639  11.001  -4.350  1.00 29.67 LIG 0.17  HD
ATOM     75 HE   ARG X 129      -2.679  11.419  -5.383  1.00 29.42 LIG 0.18  HD
ENDBRANCH 66 67
ENDBRANCH 65 66
ENDBRANCH 64 65
ENDBRANCH 1 64
TORSDOF 27
ENDMDL
MODEL 20
USER: ADFR SOLUTION from run 7
USER: SCORE 27.741759 LL:  -3.761 LR: -25.757 RR:   0.000 FEB: -17.703
USER: RMSD 10.817244
USER: SEED 875046
USER: STATUS no improvement in best in 12 clusters for 5 generations
USER: GENES 29
USER: genes 0 Translation |==|  0.45169 0.43255 0.58967
USER: genes 1 Rotation |==|  0.65028 0.40261 0.95280 0.61361
USER: genes 2 Torsion [C]-CA--N-[C] |==|  0.79534
USER: genes 3 Torsion [N]-C--CA-[N] |==|  0.37068
USER: genes 4 Torsion [C]-CA--CB-[CG] |==|  0.64161
USER: genes 5 Torsion [CA]-CB--CG-[CD] |==|  0.75189
USER: genes 6 Torsion [CB]-CG--CD-[NE] |==|  0.97958
USER: genes 7 Torsion [CG]-CD--NE-[HE] |==|  0.35011
USER: genes 8 Torsion [C]-CA--N-[C] |==|  0.67978
USER: genes 9 Torsion [N]-C--CA-[N] |==|  0.71458
USER: genes 10 Torsion [C]-CA--N-[C] |==|  0.72926
USER: genes 11 Torsion [N]-C--CA-[N] |==|  0.34850
USER: genes 12 Torsion [C]-CA--CB-[CG] |==|  0.47312
USER: genes 13 Torsion [CA]-CB--CG-[CD2] |==|  0.27023
USER: genes 14 Torsion [N]-CA--C-[N] |==|  0.32466
USER: genes 15 Torsion [C]-N--CA-[C] |==|  0.58534
USER: genes 16 Torsion [N]-CA--C-[N] |==|  0.96267
USER: genes 17 Torsion [C]-N--CA-[C] |==|  0.20076
USER: genes 18 Torsion [N]-CA--C-[O] |==|  0.97831
USER: genes 19 Torsion [N]-CA--CB-[CG] |==|  0.79303
USER: genes 20 Torsion [CA]-CB--CG-[CD] |==|  0.15193
USER: genes 21 Torsion [CB]-CG--CD-[NE] |==|  0.52378
USER: genes 22 Torsion [CG]-CD--NE-[CZ] |==|  0.37552
USER: genes 23 Torsion [N]-CA--CB-[CG] |==|  0.48878
USER: genes 24 Torsion [CA]-CB--CG-[CD1] |==|  0.32837
USER: genes 25 Torsion [N]-CA--CB-[CG] |==|  0.74648
USER: genes 26 Torsion [CA]-CB--CG-[CD] |==|  0.27864
USER: genes 27 Torsion [CB]-CG--CD-[NE] |==|  0.90186
USER: genes 28 Torsion [CG]-CD--NE-[HE] |==|  0.80974
ROOT
ATOM      1  CA  ARG X 129       1.056  12.504  -5.158  1.00 23.09 LIG 0.18  C 
ENDROOT
BRANCH 1 2
ATOM      2  N   ARG X 129      -0.358  12.598  -4.817  1.00 20.82 LIG-0.35  N 
ATOM      3  C   ARG X 128      -1.250  13.348  -5.466  1.00 20.67 LIG 0.24  C 
ATOM      4 O    ARG X 128      -0.978  14.097  -6.439  1.00 18.99 LIG-0.27  OA
ATOM      5 H    ARG X 129      -0.571  12.113  -4.140  1.00 20.82 LIG 0.16  HD
BRANCH 3 6
ATOM      6  CA  ARG X 128      -2.687  13.242  -4.958  1.00 21.45 LIG 0.18  C 
BRANCH 6 7
ATOM      7  CB  ARG X 128      -3.549  12.458  -5.932  1.00 22.98 LIG 0.04  C 
BRANCH 7 8
ATOM      8  CG  ARG X 128      -4.836  13.237  -6.272  1.00 26.06 LIG 0.02  C 
BRANCH 8 9
ATOM      9  CD  ARG X 128      -6.091  12.986  -5.330  1.00 28.46 LIG 0.14  C 
BRANCH 9 10
ATOM     10  NE  ARG X 128      -6.121  11.967  -4.291  1.00 34.87 LIG-0.23  N 
ATOM     11 HE   ARG X 128      -6.325  12.227  -3.497  1.00 34.87 LIG 0.18  HD
ATOM     12  CZ  ARG X 128      -5.862  10.663  -4.453  1.00 35.06 LIG 0.67  C 
ATOM     13  NH1 ARG X 128      -5.479  10.158  -5.611  1.00 38.28 LIG-0.23  N 
ATOM     14  NH2 ARG X 128      -5.952   9.867  -3.426  1.00 41.06 LIG-0.23  N 
ATOM     15 1HH1 ARG X 128      -5.388  10.671  -6.295  1.00 38.28 LIG 0.17  HD
ATOM     16 2HH1 ARG X 128      -5.320   9.315  -5.682  1.00 38.28 LIG 0.17  HD
ATOM     17 1HH2 ARG X 128      -6.176  10.181  -2.657  1.00 41.06 LIG 0.17  HD
ATOM     18 2HH2 ARG X 128      -5.788   9.027  -3.516  1.00 41.06 LIG 0.17  HD
ENDBRANCH 9 10
ENDBRANCH 8 9
ENDBRANCH 7 8
ENDBRANCH 6 7
BRANCH 6 19
ATOM     19  N   ARG X 128      -3.279  14.544  -4.808  1.00 22.62 LIG-0.35  N 
ATOM     20 H    ARG X 128      -3.374  14.975  -5.546  1.00 22.62 LIG 0.16  HD
ATOM     21  C   ALA X 127      -3.641  15.023  -3.625  1.00 23.78 LIG 0.24  C 
ATOM     22 O    ALA X 127      -3.561  14.375  -2.585  1.00 22.39 LIG-0.27  OA
BRANCH 21 23
ATOM     23  CA  ALA X 127      -4.311  16.407  -3.635  1.00 25.08 LIG 0.17  C 
ATOM     24  CB  ALA X 127      -4.901  16.752  -4.996  1.00 24.37 LIG 0.04  C 
BRANCH 23 25
ATOM     25  N   ALA X 127      -3.314  17.378  -3.199  1.00 27.78 LIG-0.35  N 
ATOM     26  C   LEU X 126      -3.361  17.725  -1.913  1.00 33.19 LIG 0.26  C 
ATOM     27 O    LEU X 126      -4.157  17.192  -1.079  1.00 34.96 LIG-0.27  OA
ATOM     28 H    ALA X 127      -2.762  17.666  -3.792  1.00 27.78 LIG 0.16  HD
BRANCH 26 29
ATOM     29  CA  LEU X 126      -2.420  18.806  -1.469  1.00 34.21 LIG 0.40  C 
ATOM     30  N   LEU X 126      -3.137  19.911  -0.801  1.00 36.42 LIG 0.61  N 
BRANCH 29 31
ATOM     31  CB  LEU X 126      -1.381  18.165  -0.524  1.00 35.53 LIG 0.06  C 
BRANCH 31 32
ATOM     32  CG  LEU X 126      -0.193  19.057  -0.143  1.00 35.00 LIG-0.02  C 
ATOM     33  CD2 LEU X 126      -0.460  19.714   1.236  1.00 38.18 LIG 0.01  C 
ATOM     34  CD1 LEU X 126       0.049  20.113  -1.173  1.00 36.44 LIG 0.01  C 
ENDBRANCH 31 32
ENDBRANCH 29 31
ENDBRANCH 26 29
ENDBRANCH 23 25
ENDBRANCH 21 23
ENDBRANCH 6 19
ENDBRANCH 3 6
ENDBRANCH 1 2
BRANCH 1 35
ATOM     35  C   ARG X 129       1.297  11.669  -6.444  1.00 22.72 LIG 0.24  C 
ATOM     36  N   LEU X 130       1.838  12.231  -7.538  1.00 24.32 LIG-0.35  N 
ATOM     37 H    LEU X 130       1.982  13.073  -7.640  1.00 24.32 LIG 0.16  HD
ATOM     38 O    ARG X 129       0.995  10.475  -6.426  1.00 21.19 LIG-0.27  OA
BRANCH 36 39
ATOM     39  CA  LEU X 130       2.232  11.376  -8.686  1.00 26.11 LIG 0.18  C 
BRANCH 39 40
ATOM     40  C   LEU X 130       3.410  11.953  -9.434  1.00 29.66 LIG 0.24  C 
ATOM     41 O    LEU X 130       4.045  11.240 -10.227  1.00 28.98 LIG-0.27  OA
ATOM     42  N   ARG X 131       3.737  13.213  -9.164  1.00 30.67 LIG-0.34  N 
ATOM     43 H    ARG X 131       3.266  13.741  -8.675  1.00 30.67 LIG 0.16  HD
BRANCH 42 44
ATOM     44  CA  ARG X 131       4.949  13.803  -9.693  1.00 33.89 LIG 0.18  C 
BRANCH 44 45
ATOM     45  C   ARG X 131       4.845  14.075 -11.195  1.00 35.66 LIG 0.20  C 
ATOM     46 OXT  ARG X 131       5.714  14.730 -11.811  1.00 35.07 LIG-0.65  OA
ATOM     47 O    ARG X 131       3.854  13.661 -11.867  1.00 37.10 LIG-0.65  OA
ENDBRANCH 44 45
BRANCH 44 48
ATOM     48  CB  ARG X 131       6.134  12.873  -9.410  1.00 35.20 LIG 0.04  C 
BRANCH 48 49
ATOM     49  CG  ARG X 131       6.593  12.883  -7.940  1.00 40.01 LIG 0.02  C 
BRANCH 49 50
ATOM     50  CD  ARG X 131       5.464  12.570  -6.922  1.00 47.84 LIG 0.14  C 
BRANCH 50 51
ATOM     51  NE  ARG X 131       5.923  12.795  -5.551  1.00 52.72 LIG-0.23  N 
ATOM     52  CZ  ARG X 131       5.231  13.431  -4.602  1.00 57.07 LIG 0.67  C 
ATOM     53  NH1 ARG X 131       3.998  13.905  -4.846  1.00 58.64 LIG-0.23  N 
ATOM     54  NH2 ARG X 131       5.775  13.584  -3.392  1.00 59.02 LIG-0.23  N 
ATOM     55 2HH1 ARG X 131       3.564  14.313  -4.226  1.00 58.64 LIG 0.17  HD
ATOM     56 1HH1 ARG X 131       3.643  13.801  -5.622  1.00 58.64 LIG 0.17  HD
ATOM     57 2HH2 ARG X 131       5.339  13.992  -2.773  1.00 59.02 LIG 0.17  HD
ATOM     58 1HH2 ARG X 131       6.561  13.274  -3.232  1.00 59.02 LIG 0.17  HD
ATOM     59 HE   ARG X 131       6.700  12.493  -5.340  1.00 52.72 LIG 0.18  HD
ENDBRANCH 50 51
ENDBRANCH 49 50
ENDBRANCH 48 49
ENDBRANCH 44 48
ENDBRANCH 42 44
ENDBRANCH 39 40
BRANCH 39 60
ATOM     60  CB  LEU X 130       1.105  11.177  -9.704  1.00 27.29 LIG 0.04  C 
BRANCH 60 61
ATOM     61  CG  LEU X 130       1.347  10.406 -10.992  1.00 26.34 LIG-0.02  C 
ATOM     62  CD1 LEU X 130       0.461   9.123 -11.107  1.00 29.54 LIG 0.01  C 
ATOM     63  CD2 LEU X 130       1.072  11.322 -12.140  1.00 21.56 LIG 0.01  C 
ENDBRANCH 60 61
ENDBRANCH 39 60
ENDBRANCH 36 39
ENDBRANCH 1 35
BRANCH 1 64
ATOM     64  CB  ARG X 129       1.641  11.756  -3.940  1.00 24.17 LIG 0.04  C 
BRANCH 64 65
ATOM     65  CG  ARG X 129       2.144  12.558  -2.822  1.00 28.32 LIG 0.02  C 
BRANCH 65 66
ATOM     66  CD  ARG X 129       1.192  12.669  -1.646  1.00 31.43 LIG 0.14  C 
BRANCH 66 67
ATOM     67  NE  ARG X 129      -0.239  12.729  -1.979  1.00 29.42 LIG-0.23  N 
ATOM     68  CZ  ARG X 129      -1.129  11.779  -1.715  1.00 30.66 LIG 0.67  C 
ATOM     69  NH1 ARG X 129      -0.758  10.612  -1.195  1.00 33.32 LIG-0.23  N 
ATOM     70  NH2 ARG X 129      -2.417  11.984  -2.015  1.00 29.67 LIG-0.23  N 
ATOM     71 2HH1 ARG X 129      -1.347  10.007  -1.030  1.00 33.32 LIG 0.17  HD
ATOM     72 1HH1 ARG X 129       0.071  10.462  -1.023  1.00 33.32 LIG 0.17  HD
ATOM     73 2HH2 ARG X 129      -2.999  11.375  -1.848  1.00 29.67 LIG 0.17  HD
ATOM     74 1HH2 ARG X 129      -2.662  12.726  -2.375  1.00 29.67 LIG 0.17  HD
ATOM     75 HE   ARG X 129      -0.523  13.437  -2.377  1.00 29.42 LIG 0.18  HD
ENDBRANCH 66 67
ENDBRANCH 65 66
ENDBRANCH 64 65
ENDBRANCH 1 64
TORSDOF 27
ENDMDL
MODEL 21
USER: ADFR SOLUTION from run 93
USER: SCORE 28.783803 LL:  -3.877 LR: -25.732 RR:   0.000 FEB: -17.678
USER: RMSD 10.870682
USER: SEED 92
USER: STATUS no improvement in best in 18 clusters for 5 generations
USER: GENES 29
USER: genes 0 Translation |==|  0.46200 0.39171 0.48408
USER: genes 1 Rotation |==|  0.49166 0.69709 0.04060 0.50601
USER: genes 2 Torsion [C]-CA--N-[C] |==|  0.70556
USER: genes 3 Torsion [N]-C--CA-[N] |==|  0.36548
USER: genes 4 Torsion [C]-CA--CB-[CG] |==|  0.60536
USER: genes 5 Torsion [CA]-CB--CG-[CD] |==|  0.72789
USER: genes 6 Torsion [CB]-CG--CD-[NE] |==|  0.47642
USER: genes 7 Torsion [CG]-CD--NE-[HE] |==|  0.91747
USER: genes 8 Torsion [C]-CA--N-[C] |==|  0.61766
USER: genes 9 Torsion [N]-C--CA-[N] |==|  0.83671
USER: genes 10 Torsion [C]-CA--N-[C] |==|  0.82140
USER: genes 11 Torsion [N]-C--CA-[N] |==|  0.53711
USER: genes 12 Torsion [C]-CA--CB-[CG] |==|  0.91422
USER: genes 13 Torsion [CA]-CB--CG-[CD2] |==|  0.73867
USER: genes 14 Torsion [N]-CA--C-[N] |==|  0.36585
USER: genes 15 Torsion [C]-N--CA-[C] |==|  0.61789
USER: genes 16 Torsion [N]-CA--C-[N] |==|  0.40685
USER: genes 17 Torsion [C]-N--CA-[C] |==|  0.62565
USER: genes 18 Torsion [N]-CA--C-[O] |==|  0.91753
USER: genes 19 Torsion [N]-CA--CB-[CG] |==|  0.94611
USER: genes 20 Torsion [CA]-CB--CG-[CD] |==|  0.71564
USER: genes 21 Torsion [CB]-CG--CD-[NE] |==|  0.26526
USER: genes 22 Torsion [CG]-CD--NE-[CZ] |==|  0.52875
USER: genes 23 Torsion [N]-CA--CB-[CG] |==|  0.45729
USER: genes 24 Torsion [CA]-CB--CG-[CD1] |==|  0.25473
USER: genes 25 Torsion [N]-CA--CB-[CG] |==|  0.84018
USER: genes 26 Torsion [CA]-CB--CG-[CD] |==|  0.70513
USER: genes 27 Torsion [CB]-CG--CD-[NE] |==|  0.50974
USER: genes 28 Torsion [CG]-CD--NE-[HE] |==|  0.02323
ROOT
ATOM      1  CA  ARG X 129       1.341  11.830  -7.534  1.00 23.09 LIG 0.18  C 
ENDROOT
BRANCH 1 2
ATOM      2  N   ARG X 129       0.074  11.692  -8.240  1.00 20.82 LIG-0.35  N 
ATOM      3  C   ARG X 128      -0.726  12.704  -8.577  1.00 20.67 LIG 0.24  C 
ATOM      4 O    ARG X 128      -0.503  13.910  -8.298  1.00 18.99 LIG-0.27  OA
ATOM      5 H    ARG X 129      -0.117  10.874  -8.427  1.00 20.82 LIG 0.16  HD
BRANCH 3 6
ATOM      6  CA  ARG X 128      -1.977  12.317  -9.363  1.00 21.45 LIG 0.18  C 
BRANCH 6 7
ATOM      7  CB  ARG X 128      -1.872  12.776 -10.806  1.00 22.98 LIG 0.04  C 
BRANCH 7 8
ATOM      8  CG  ARG X 128      -3.237  13.274 -11.323  1.00 26.06 LIG 0.02  C 
BRANCH 8 9
ATOM      9  CD  ARG X 128      -4.098  12.243 -12.173  1.00 28.46 LIG 0.14  C 
BRANCH 9 10
ATOM     10  NE  ARG X 128      -5.474  12.492 -12.578  1.00 34.87 LIG-0.23  N 
ATOM     11 HE   ARG X 128      -5.948  12.989 -12.060  1.00 34.87 LIG 0.18  HD
ATOM     12  CZ  ARG X 128      -6.073  12.022 -13.679  1.00 35.06 LIG 0.67  C 
ATOM     13  NH1 ARG X 128      -5.467  11.200 -14.517  1.00 38.28 LIG-0.23  N 
ATOM     14  NH2 ARG X 128      -7.310  12.353 -13.917  1.00 41.06 LIG-0.23  N 
ATOM     15 1HH1 ARG X 128      -4.659  10.949 -14.364  1.00 38.28 LIG 0.17  HD
ATOM     16 2HH1 ARG X 128      -5.880  10.916 -15.215  1.00 38.28 LIG 0.17  HD
ATOM     17 1HH2 ARG X 128      -7.731  12.867 -13.371  1.00 41.06 LIG 0.17  HD
ATOM     18 2HH2 ARG X 128      -7.707  12.058 -14.621  1.00 41.06 LIG 0.17  HD
ENDBRANCH 9 10
ENDBRANCH 8 9
ENDBRANCH 7 8
ENDBRANCH 6 7
BRANCH 6 19
ATOM     19  N   ARG X 128      -3.151  12.928  -8.799  1.00 22.62 LIG-0.35  N 
ATOM     20 H    ARG X 128      -3.043  13.750  -8.569  1.00 22.62 LIG 0.16  HD
ATOM     21  C   ALA X 127      -4.291  12.266  -8.656  1.00 23.78 LIG 0.24  C 
ATOM     22 O    ALA X 127      -4.452  11.113  -9.047  1.00 22.39 LIG-0.27  OA
BRANCH 21 23
ATOM     23  CA  ALA X 127      -5.471  13.072  -8.089  1.00 25.08 LIG 0.17  C 
ATOM     24  CB  ALA X 127      -5.914  14.185  -9.030  1.00 24.37 LIG 0.04  C 
BRANCH 23 25
ATOM     25  N   ALA X 127      -5.068  13.577  -6.782  1.00 27.78 LIG-0.35  N 
ATOM     26  C   LEU X 126      -4.832  12.656  -5.848  1.00 33.19 LIG 0.26  C 
ATOM     27 O    LEU X 126      -4.863  11.408  -6.081  1.00 34.96 LIG-0.27  OA
ATOM     28 H    ALA X 127      -5.008  14.430  -6.692  1.00 27.78 LIG 0.16  HD
BRANCH 26 29
ATOM     29  CA  LEU X 126      -4.527  13.155  -4.466  1.00 34.21 LIG 0.40  C 
ATOM     30  N   LEU X 126      -3.979  12.084  -3.610  1.00 36.42 LIG 0.61  N 
BRANCH 29 31
ATOM     31  CB  LEU X 126      -3.532  14.327  -4.599  1.00 35.53 LIG 0.06  C 
BRANCH 31 32
ATOM     32  CG  LEU X 126      -2.571  14.247  -5.792  1.00 35.00 LIG-0.02  C 
ATOM     33  CD2 LEU X 126      -1.242  13.587  -5.343  1.00 38.18 LIG 0.01  C 
ATOM     34  CD1 LEU X 126      -2.299  15.600  -6.366  1.00 36.44 LIG 0.01  C 
ENDBRANCH 31 32
ENDBRANCH 29 31
ENDBRANCH 26 29
ENDBRANCH 23 25
ENDBRANCH 21 23
ENDBRANCH 6 19
ENDBRANCH 3 6
ENDBRANCH 1 2
BRANCH 1 35
ATOM     35  C   ARG X 129       2.563  11.614  -8.467  1.00 22.72 LIG 0.24  C 
ATOM     36  N   LEU X 130       3.588  12.484  -8.471  1.00 24.32 LIG-0.35  N 
ATOM     37 H    LEU X 130       3.595  13.239  -8.060  1.00 24.32 LIG 0.16  HD
ATOM     38 O    ARG X 129       2.572  10.617  -9.190  1.00 21.19 LIG-0.27  OA
BRANCH 36 39
ATOM     39  CA  LEU X 130       4.823  12.160  -9.227  1.00 26.11 LIG 0.18  C 
BRANCH 39 40
ATOM     40  C   LEU X 130       6.066  12.517  -8.447  1.00 29.66 LIG 0.24  C 
ATOM     41 O    LEU X 130       6.072  13.524  -7.722  1.00 28.98 LIG-0.27  OA
ATOM     42  N   ARG X 131       7.129  11.735  -8.617  1.00 30.67 LIG-0.34  N 
ATOM     43 H    ARG X 131       7.119  10.996  -9.057  1.00 30.67 LIG 0.16  HD
BRANCH 42 44
ATOM     44  CA  ARG X 131       8.416  12.087  -8.056  1.00 33.89 LIG 0.18  C 
BRANCH 44 45
ATOM     45  C   ARG X 131       9.552  11.891  -9.061  1.00 35.66 LIG 0.20  C 
ATOM     46 OXT  ARG X 131      10.578  12.606  -9.046  1.00 35.07 LIG-0.65  OA
ATOM     47 O    ARG X 131       9.480  11.007  -9.965  1.00 37.10 LIG-0.65  OA
ENDBRANCH 44 45
BRANCH 44 48
ATOM     48  CB  ARG X 131       8.673  11.241  -6.804  1.00 35.20 LIG 0.04  C 
BRANCH 48 49
ATOM     49  CG  ARG X 131       7.398  10.626  -6.197  1.00 40.01 LIG 0.02  C 
BRANCH 49 50
ATOM     50  CD  ARG X 131       6.875  11.367  -4.937  1.00 47.84 LIG 0.14  C 
BRANCH 50 51
ATOM     51  NE  ARG X 131       5.838  12.334  -5.296  1.00 52.72 LIG-0.23  N 
ATOM     52  CZ  ARG X 131       5.332  13.260  -4.477  1.00 57.07 LIG 0.67  C 
ATOM     53  NH1 ARG X 131       5.782  13.389  -3.217  1.00 58.64 LIG-0.23  N 
ATOM     54  NH2 ARG X 131       4.372  14.073  -4.926  1.00 59.02 LIG-0.23  N 
ATOM     55 2HH1 ARG X 131       5.447  13.989  -2.700  1.00 58.64 LIG 0.17  HD
ATOM     56 1HH1 ARG X 131       6.404  12.871  -2.928  1.00 58.64 LIG 0.17  HD
ATOM     57 2HH2 ARG X 131       4.039  14.673  -4.407  1.00 59.02 LIG 0.17  HD
ATOM     58 1HH2 ARG X 131       4.088  13.997  -5.734  1.00 59.02 LIG 0.17  HD
ATOM     59 HE   ARG X 131       5.530  12.304  -6.098  1.00 52.72 LIG 0.18  HD
ENDBRANCH 50 51
ENDBRANCH 49 50
ENDBRANCH 48 49
ENDBRANCH 44 48
ENDBRANCH 42 44
ENDBRANCH 39 40
BRANCH 39 60
ATOM     60  CB  LEU X 130       4.912  12.884 -10.574  1.00 27.29 LIG 0.04  C 
BRANCH 60 61
ATOM     61  CG  LEU X 130       6.229  12.964 -11.330  1.00 26.34 LIG-0.02  C 
ATOM     62  CD1 LEU X 130       6.418  11.789 -12.344  1.00 29.54 LIG 0.01  C 
ATOM     63  CD2 LEU X 130       6.274  14.273 -12.049  1.00 21.56 LIG 0.01  C 
ENDBRANCH 60 61
ENDBRANCH 39 60
ENDBRANCH 36 39
ENDBRANCH 1 35
BRANCH 1 64
ATOM     64  CB  ARG X 129       1.272  10.683  -6.501  1.00 24.17 LIG 0.04  C 
BRANCH 64 65
ATOM     65  CG  ARG X 129       0.142  10.669  -5.570  1.00 28.32 LIG 0.02  C 
BRANCH 65 66
ATOM     66  CD  ARG X 129       0.490  11.073  -4.149  1.00 31.43 LIG 0.14  C 
BRANCH 66 67
ATOM     67  NE  ARG X 129      -0.604  10.993  -3.171  1.00 29.42 LIG-0.23  N 
ATOM     68  CZ  ARG X 129      -0.552  11.446  -1.923  1.00 30.66 LIG 0.67  C 
ATOM     69  NH1 ARG X 129       0.574  11.940  -1.415  1.00 33.32 LIG-0.23  N 
ATOM     70  NH2 ARG X 129      -1.642  11.367  -1.150  1.00 29.67 LIG-0.23  N 
ATOM     71 2HH1 ARG X 129       0.591  12.229  -0.605  1.00 33.32 LIG 0.17  HD
ATOM     72 1HH1 ARG X 129       1.286  11.970  -1.896  1.00 33.32 LIG 0.17  HD
ATOM     73 2HH2 ARG X 129      -1.617  11.658  -0.341  1.00 29.67 LIG 0.17  HD
ATOM     74 1HH2 ARG X 129      -2.367  11.025  -1.462  1.00 29.67 LIG 0.17  HD
ATOM     75 HE   ARG X 129      -1.337  10.622  -3.426  1.00 29.42 LIG 0.18  HD
ENDBRANCH 66 67
ENDBRANCH 65 66
ENDBRANCH 64 65
ENDBRANCH 1 64
TORSDOF 27
ENDMDL
MODEL 22
USER: ADFR SOLUTION from run 6
USER: SCORE 28.635728 LL:  -4.310 LR: -25.721 RR:   0.000 FEB: -17.667
USER: RMSD 12.105474
USER: SEED 189485
USER: STATUS no improvement in best in 26 clusters for 5 generations
USER: GENES 29
USER: genes 0 Translation |==|  0.56035 0.41225 0.42730
USER: genes 1 Rotation |==|  0.48371 0.04946 0.28459 0.51848
USER: genes 2 Torsion [C]-CA--N-[C] |==|  0.65540
USER: genes 3 Torsion [N]-C--CA-[N] |==|  0.78337
USER: genes 4 Torsion [C]-CA--CB-[CG] |==|  0.42247
USER: genes 5 Torsion [CA]-CB--CG-[CD] |==|  0.10130
USER: genes 6 Torsion [CB]-CG--CD-[NE] |==|  0.28411
USER: genes 7 Torsion [CG]-CD--NE-[HE] |==|  0.85761
USER: genes 8 Torsion [C]-CA--N-[C] |==|  0.20544
USER: genes 9 Torsion [N]-C--CA-[N] |==|  0.43723
USER: genes 10 Torsion [C]-CA--N-[C] |==|  0.61212
USER: genes 11 Torsion [N]-C--CA-[N] |==|  0.95817
USER: genes 12 Torsion [C]-CA--CB-[CG] |==|  0.29257
USER: genes 13 Torsion [CA]-CB--CG-[CD2] |==|  0.58162
USER: genes 14 Torsion [N]-CA--C-[N] |==|  0.30299
USER: genes 15 Torsion [C]-N--CA-[C] |==|  0.75846
USER: genes 16 Torsion [N]-CA--C-[N] |==|  0.97552
USER: genes 17 Torsion [C]-N--CA-[C] |==|  0.74954
USER: genes 18 Torsion [N]-CA--C-[O] |==|  0.92125
USER: genes 19 Torsion [N]-CA--CB-[CG] |==|  0.22793
USER: genes 20 Torsion [CA]-CB--CG-[CD] |==|  0.31372
USER: genes 21 Torsion [CB]-CG--CD-[NE] |==|  0.16515
USER: genes 22 Torsion [CG]-CD--NE-[CZ] |==|  0.69851
USER: genes 23 Torsion [N]-CA--CB-[CG] |==|  0.62123
USER: genes 24 Torsion [CA]-CB--CG-[CD1] |==|  0.28080
USER: genes 25 Torsion [N]-CA--CB-[CG] |==|  0.55107
USER: genes 26 Torsion [CA]-CB--CG-[CD] |==|  0.28742
USER: genes 27 Torsion [CB]-CG--CD-[NE] |==|  0.63592
USER: genes 28 Torsion [CG]-CD--NE-[HE] |==|  0.16553
ROOT
ATOM      1  CA  ARG X 129       4.071  12.169  -8.812  1.00 23.09 LIG 0.18  C 
ENDROOT
BRANCH 1 2
ATOM      2  N   ARG X 129       2.892  12.236  -7.958  1.00 20.82 LIG-0.35  N 
ATOM      3  C   ARG X 128       1.948  11.296  -7.887  1.00 20.67 LIG 0.24  C 
ATOM      4 O    ARG X 128       1.939  10.243  -8.574  1.00 18.99 LIG-0.27  OA
ATOM      5 H    ARG X 129       2.858  12.957  -7.490  1.00 20.82 LIG 0.16  HD
BRANCH 3 6
ATOM      6  CA  ARG X 128       0.833  11.564  -6.877  1.00 21.45 LIG 0.18  C 
BRANCH 6 7
ATOM      7  CB  ARG X 128       0.410  13.022  -6.912  1.00 22.98 LIG 0.04  C 
BRANCH 7 8
ATOM      8  CG  ARG X 128      -1.063  13.175  -6.483  1.00 26.06 LIG 0.02  C 
BRANCH 8 9
ATOM      9  CD  ARG X 128      -1.576  12.205  -5.333  1.00 28.46 LIG 0.14  C 
BRANCH 9 10
ATOM     10  NE  ARG X 128      -1.747  12.626  -3.950  1.00 34.87 LIG-0.23  N 
ATOM     11 HE   ARG X 128      -1.080  13.021  -3.577  1.00 34.87 LIG 0.18  HD
ATOM     12  CZ  ARG X 128      -2.845  12.456  -3.200  1.00 35.06 LIG 0.67  C 
ATOM     13  NH1 ARG X 128      -3.908  11.810  -3.642  1.00 38.28 LIG-0.23  N 
ATOM     14  NH2 ARG X 128      -2.854  12.910  -1.979  1.00 41.06 LIG-0.23  N 
ATOM     15 1HH1 ARG X 128      -3.912  11.481  -4.436  1.00 38.28 LIG 0.17  HD
ATOM     16 2HH1 ARG X 128      -4.597  11.719  -3.135  1.00 38.28 LIG 0.17  HD
ATOM     17 1HH2 ARG X 128      -2.162  13.312  -1.664  1.00 41.06 LIG 0.17  HD
ATOM     18 2HH2 ARG X 128      -3.552  12.808  -1.487  1.00 41.06 LIG 0.17  HD
ENDBRANCH 9 10
ENDBRANCH 8 9
ENDBRANCH 7 8
ENDBRANCH 6 7
BRANCH 6 19
ATOM     19  N   ARG X 128       1.269  11.272  -5.538  1.00 22.62 LIG-0.35  N 
ATOM     20 H    ARG X 128       0.941  10.548  -5.211  1.00 22.62 LIG 0.16  HD
ATOM     21  C   ALA X 127       2.105  12.064  -4.879  1.00 23.78 LIG 0.24  C 
ATOM     22 O    ALA X 127       2.618  13.063  -5.379  1.00 22.39 LIG-0.27  OA
BRANCH 21 23
ATOM     23  CA  ALA X 127       2.521  11.588  -3.477  1.00 25.08 LIG 0.17  C 
ATOM     24  CB  ALA X 127       1.444  11.858  -2.434  1.00 24.37 LIG 0.04  C 
BRANCH 23 25
ATOM     25  N   ALA X 127       3.785  12.237  -3.152  1.00 27.78 LIG-0.35  N 
ATOM     26  C   LEU X 126       4.688  11.480  -2.530  1.00 33.19 LIG 0.26  C 
ATOM     27 O    LEU X 126       4.515  10.242  -2.301  1.00 34.96 LIG-0.27  OA
ATOM     28 H    ALA X 127       3.872  13.063  -3.380  1.00 27.78 LIG 0.16  HD
BRANCH 26 29
ATOM     29  CA  LEU X 126       5.950  12.158  -2.085  1.00 34.21 LIG 0.40  C 
ATOM     30  N   LEU X 126       6.118  13.474  -2.732  1.00 36.42 LIG 0.61  N 
BRANCH 29 31
ATOM     31  CB  LEU X 126       5.892  12.295  -0.549  1.00 35.53 LIG 0.06  C 
BRANCH 31 32
ATOM     32  CG  LEU X 126       6.788  11.327   0.237  1.00 35.00 LIG-0.02  C 
ATOM     33  CD2 LEU X 126       6.146  11.034   1.617  1.00 38.18 LIG 0.01  C 
ATOM     34  CD1 LEU X 126       8.162  11.885   0.422  1.00 36.44 LIG 0.01  C 
ENDBRANCH 31 32
ENDBRANCH 29 31
ENDBRANCH 26 29
ENDBRANCH 23 25
ENDBRANCH 21 23
ENDBRANCH 6 19
ENDBRANCH 3 6
ENDBRANCH 1 2
BRANCH 1 35
ATOM     35  C   ARG X 129       5.390  12.319  -8.008  1.00 22.72 LIG 0.24  C 
ATOM     36  N   LEU X 130       6.212  11.271  -7.832  1.00 24.32 LIG-0.35  N 
ATOM     37 H    LEU X 130       6.027  10.459  -8.047  1.00 24.32 LIG 0.16  HD
ATOM     38 O    ARG X 129       5.668  13.429  -7.551  1.00 21.19 LIG-0.27  OA
BRANCH 36 39
ATOM     39  CA  LEU X 130       7.550  11.479  -7.226  1.00 26.11 LIG 0.18  C 
BRANCH 39 40
ATOM     40  C   LEU X 130       8.584  11.844  -8.265  1.00 29.66 LIG 0.24  C 
ATOM     41 O    LEU X 130       9.701  12.249  -7.906  1.00 28.98 LIG-0.27  OA
ATOM     42  N   ARG X 131       8.218  11.750  -9.539  1.00 30.67 LIG-0.34  N 
ATOM     43 H    ARG X 131       7.477  11.403  -9.804  1.00 30.67 LIG 0.16  HD
BRANCH 42 44
ATOM     44  CA  ARG X 131       9.069  12.239 -10.603  1.00 33.89 LIG 0.18  C 
BRANCH 44 45
ATOM     45  C   ARG X 131       8.779  13.702 -10.941  1.00 35.66 LIG 0.20  C 
ATOM     46 OXT  ARG X 131       9.665  14.467 -11.381  1.00 35.07 LIG-0.65  OA
ATOM     47 O    ARG X 131       7.627  14.198 -10.762  1.00 37.10 LIG-0.65  OA
ENDBRANCH 44 45
BRANCH 44 48
ATOM     48  CB  ARG X 131       8.881  11.366 -11.848  1.00 35.20 LIG 0.04  C 
BRANCH 48 49
ATOM     49  CG  ARG X 131       7.649  11.744 -12.691  1.00 40.01 LIG 0.02  C 
BRANCH 49 50
ATOM     50  CD  ARG X 131       7.993  12.327 -14.088  1.00 47.84 LIG 0.14  C 
BRANCH 50 51
ATOM     51  NE  ARG X 131       8.766  11.367 -14.876  1.00 52.72 LIG-0.23  N 
ATOM     52  CZ  ARG X 131      10.063  11.482 -15.173  1.00 57.07 LIG 0.67  C 
ATOM     53  NH1 ARG X 131      10.785  12.522 -14.725  1.00 58.64 LIG-0.23  N 
ATOM     54  NH2 ARG X 131      10.646  10.540 -15.919  1.00 59.02 LIG-0.23  N 
ATOM     55 2HH1 ARG X 131      11.619  12.584 -14.923  1.00 58.64 LIG 0.17  HD
ATOM     56 1HH1 ARG X 131      10.414  13.126 -14.238  1.00 58.64 LIG 0.17  HD
ATOM     57 2HH2 ARG X 131      11.481  10.604 -16.117  1.00 59.02 LIG 0.17  HD
ATOM     58 1HH2 ARG X 131      10.187   9.870 -16.201  1.00 59.02 LIG 0.17  HD
ATOM     59 HE   ARG X 131       8.352  10.674 -15.171  1.00 52.72 LIG 0.18  HD
ENDBRANCH 50 51
ENDBRANCH 49 50
ENDBRANCH 48 49
ENDBRANCH 44 48
ENDBRANCH 42 44
ENDBRANCH 39 40
BRANCH 39 60
ATOM     60  CB  LEU X 130       8.074  10.248  -6.482  1.00 27.29 LIG 0.04  C 
BRANCH 60 61
ATOM     61  CG  LEU X 130       8.739  10.384  -5.122  1.00 26.34 LIG-0.02  C 
ATOM     62  CD1 LEU X 130       7.787  10.010  -3.940  1.00 29.54 LIG 0.01  C 
ATOM     63  CD2 LEU X 130       9.946   9.502  -5.104  1.00 21.56 LIG 0.01  C 
ENDBRANCH 60 61
ENDBRANCH 39 60
ENDBRANCH 36 39
ENDBRANCH 1 35
BRANCH 1 64
ATOM     64  CB  ARG X 129       3.884  13.397  -9.731  1.00 24.17 LIG 0.04  C 
BRANCH 64 65
ATOM     65  CG  ARG X 129       4.645  13.438 -10.981  1.00 28.32 LIG 0.02  C 
BRANCH 65 66
ATOM     66  CD  ARG X 129       3.837  13.113 -12.223  1.00 31.43 LIG 0.14  C 
BRANCH 66 67
ATOM     67  NE  ARG X 129       4.427  12.123 -13.135  1.00 29.42 LIG-0.23  N 
ATOM     68  CZ  ARG X 129       4.738  12.341 -14.408  1.00 30.66 LIG 0.67  C 
ATOM     69  NH1 ARG X 129       4.437  13.492 -15.004  1.00 33.32 LIG-0.23  N 
ATOM     70  NH2 ARG X 129       5.329  11.370 -15.115  1.00 29.67 LIG-0.23  N 
ATOM     71 2HH1 ARG X 129       4.646  13.617 -15.828  1.00 33.32 LIG 0.17  HD
ATOM     72 1HH1 ARG X 129       4.033  14.111 -14.564  1.00 33.32 LIG 0.17  HD
ATOM     73 2HH2 ARG X 129       5.534  11.503 -15.939  1.00 29.67 LIG 0.17  HD
ATOM     74 1HH2 ARG X 129       5.504  10.614 -14.745  1.00 29.67 LIG 0.17  HD
ATOM     75 HE   ARG X 129       4.583  11.338 -12.819  1.00 29.42 LIG 0.18  HD
ENDBRANCH 66 67
ENDBRANCH 65 66
ENDBRANCH 64 65
ENDBRANCH 1 64
TORSDOF 27
ENDMDL
MODEL 23
USER: ADFR SOLUTION from run 59
USER: SCORE 28.236210 LL:  -4.187 LR: -25.644 RR:   0.000 FEB: -17.590
USER: RMSD 4.475404
USER: SEED 58
USER: STATUS no improvement in best in 8 clusters for 5 generations
USER: GENES 29
USER: genes 0 Translation |==|  0.45874 0.39230 0.51565
USER: genes 1 Rotation |==|  0.47108 0.55012 0.50367 0.99663
USER: genes 2 Torsion [C]-CA--N-[C] |==|  0.69644
USER: genes 3 Torsion [N]-C--CA-[N] |==|  0.30456
USER: genes 4 Torsion [C]-CA--CB-[CG] |==|  0.47249
USER: genes 5 Torsion [CA]-CB--CG-[CD] |==|  0.23262
USER: genes 6 Torsion [CB]-CG--CD-[NE] |==|  0.20121
USER: genes 7 Torsion [CG]-CD--NE-[HE] |==|  0.03739
USER: genes 8 Torsion [C]-CA--N-[C] |==|  0.71111
USER: genes 9 Torsion [N]-C--CA-[N] |==|  0.43957
USER: genes 10 Torsion [C]-CA--N-[C] |==|  0.75961
USER: genes 11 Torsion [N]-C--CA-[N] |==|  0.32950
USER: genes 12 Torsion [C]-CA--CB-[CG] |==|  0.69480
USER: genes 13 Torsion [CA]-CB--CG-[CD2] |==|  0.58640
USER: genes 14 Torsion [N]-CA--C-[N] |==|  0.48278
USER: genes 15 Torsion [C]-N--CA-[C] |==|  0.22389
USER: genes 16 Torsion [N]-CA--C-[N] |==|  0.37331
USER: genes 17 Torsion [C]-N--CA-[C] |==|  0.80160
USER: genes 18 Torsion [N]-CA--C-[O] |==|  0.77594
USER: genes 19 Torsion [N]-CA--CB-[CG] |==|  0.57903
USER: genes 20 Torsion [CA]-CB--CG-[CD] |==|  0.62734
USER: genes 21 Torsion [CB]-CG--CD-[NE] |==|  0.25795
USER: genes 22 Torsion [CG]-CD--NE-[CZ] |==|  0.34825
USER: genes 23 Torsion [N]-CA--CB-[CG] |==|  0.64293
USER: genes 24 Torsion [CA]-CB--CG-[CD1] |==|  0.55048
USER: genes 25 Torsion [N]-CA--CB-[CG] |==|  0.55844
USER: genes 26 Torsion [CA]-CB--CG-[CD] |==|  0.70243
USER: genes 27 Torsion [CB]-CG--CD-[NE] |==|  0.28328
USER: genes 28 Torsion [CG]-CD--NE-[HE] |==|  0.96439
ROOT
ATOM      1  CA  ARG X 129       1.251  11.840  -6.824  1.00 23.09 LIG 0.18  C 
ENDROOT
BRANCH 1 2
ATOM      2  N   ARG X 129       2.379  12.385  -7.568  1.00 20.82 LIG-0.35  N 
ATOM      3  C   ARG X 128       2.975  11.783  -8.599  1.00 20.67 LIG 0.24  C 
ATOM      4 O    ARG X 128       2.657  10.650  -9.041  1.00 18.99 LIG-0.27  OA
ATOM      5 H    ARG X 129       2.634  13.152  -7.274  1.00 20.82 LIG 0.16  HD
BRANCH 3 6
ATOM      6  CA  ARG X 128       4.104  12.575  -9.255  1.00 21.45 LIG 0.18  C 
BRANCH 6 7
ATOM      7  CB  ARG X 128       3.932  12.613 -10.763  1.00 22.98 LIG 0.04  C 
BRANCH 7 8
ATOM      8  CG  ARG X 128       4.922  13.609 -11.402  1.00 26.06 LIG 0.02  C 
BRANCH 8 9
ATOM      9  CD  ARG X 128       6.389  13.071 -11.692  1.00 28.46 LIG 0.14  C 
BRANCH 9 10
ATOM     10  NE  ARG X 128       6.699  12.128 -12.756  1.00 34.87 LIG-0.23  N 
ATOM     11 HE   ARG X 128       6.090  11.996 -13.350  1.00 34.87 LIG 0.18  HD
ATOM     12  CZ  ARG X 128       7.843  11.445 -12.902  1.00 35.06 LIG 0.67  C 
ATOM     13  NH1 ARG X 128       8.825  11.518 -12.023  1.00 38.28 LIG-0.23  N 
ATOM     14  NH2 ARG X 128       7.980  10.651 -13.925  1.00 41.06 LIG-0.23  N 
ATOM     15 1HH1 ARG X 128       8.744  12.017 -11.327  1.00 38.28 LIG 0.17  HD
ATOM     16 2HH1 ARG X 128       9.547  11.067 -12.146  1.00 38.28 LIG 0.17  HD
ATOM     17 1HH2 ARG X 128       7.342  10.570 -14.496  1.00 41.06 LIG 0.17  HD
ATOM     18 2HH2 ARG X 128       8.709  10.207 -14.030  1.00 41.06 LIG 0.17  HD
ENDBRANCH 9 10
ENDBRANCH 8 9
ENDBRANCH 7 8
ENDBRANCH 6 7
BRANCH 6 19
ATOM     19  N   ARG X 128       5.382  11.975  -8.981  1.00 22.62 LIG-0.35  N 
ATOM     20 H    ARG X 128       5.544  11.266  -9.440  1.00 22.62 LIG 0.16  HD
ATOM     21  C   ALA X 127       6.226  12.487  -8.093  1.00 23.78 LIG 0.24  C 
ATOM     22 O    ALA X 127       6.012  13.535  -7.491  1.00 22.39 LIG-0.27  OA
BRANCH 21 23
ATOM     23  CA  ALA X 127       7.575  11.763  -7.952  1.00 25.08 LIG 0.17  C 
ATOM     24  CB  ALA X 127       7.461  10.484  -7.134  1.00 24.37 LIG 0.04  C 
BRANCH 23 25
ATOM     25  N   ALA X 127       8.521  12.710  -7.374  1.00 27.78 LIG-0.35  N 
ATOM     26  C   LEU X 126       9.156  13.502  -8.237  1.00 33.19 LIG 0.26  C 
ATOM     27 O    LEU X 126       8.907  13.511  -9.483  1.00 34.96 LIG-0.27  OA
ATOM     28 H    ALA X 127       8.611  12.702  -6.519  1.00 27.78 LIG 0.16  HD
BRANCH 26 29
ATOM     29  CA  LEU X 126      10.216  14.404  -7.676  1.00 34.21 LIG 0.40  C 
ATOM     30  N   LEU X 126      11.542  14.110  -8.254  1.00 36.42 LIG 0.61  N 
BRANCH 29 31
ATOM     31  CB  LEU X 126       9.792  15.860  -7.963  1.00 35.53 LIG 0.06  C 
BRANCH 31 32
ATOM     32  CG  LEU X 126      10.636  16.601  -9.010  1.00 35.00 LIG-0.02  C 
ATOM     33  CD2 LEU X 126      10.674  18.112  -8.668  1.00 38.18 LIG 0.01  C 
ATOM     34  CD1 LEU X 126      10.093  16.403 -10.388  1.00 36.44 LIG 0.01  C 
ENDBRANCH 31 32
ENDBRANCH 29 31
ENDBRANCH 26 29
ENDBRANCH 23 25
ENDBRANCH 21 23
ENDBRANCH 6 19
ENDBRANCH 3 6
ENDBRANCH 1 2
BRANCH 1 35
ATOM     35  C   ARG X 129      -0.066  12.616  -7.098  1.00 22.72 LIG 0.24  C 
ATOM     36  N   LEU X 130      -1.235  12.183  -6.597  1.00 24.32 LIG-0.35  N 
ATOM     37 H    LEU X 130      -1.353  11.429  -6.201  1.00 24.32 LIG 0.16  HD
ATOM     38 O    ARG X 129      -0.004  13.644  -7.771  1.00 21.19 LIG-0.27  OA
BRANCH 36 39
ATOM     39  CA  LEU X 130      -2.444  13.036  -6.712  1.00 26.11 LIG 0.18  C 
BRANCH 39 40
ATOM     40  C   LEU X 130      -3.078  12.927  -8.079  1.00 29.66 LIG 0.24  C 
ATOM     41 O    LEU X 130      -2.371  13.017  -9.095  1.00 28.98 LIG-0.27  OA
ATOM     42  N   ARG X 131      -4.399  12.778  -8.121  1.00 30.67 LIG-0.34  N 
ATOM     43 H    ARG X 131      -4.891  12.641  -7.429  1.00 30.67 LIG 0.16  HD
BRANCH 42 44
ATOM     44  CA  ARG X 131      -5.121  12.838  -9.374  1.00 33.89 LIG 0.18  C 
BRANCH 44 45
ATOM     45  C   ARG X 131      -5.172  14.260  -9.937  1.00 35.66 LIG 0.20  C 
ATOM     46 OXT  ARG X 131      -4.378  14.649 -10.821  1.00 35.07 LIG-0.65  OA
ATOM     47 O    ARG X 131      -6.013  15.104  -9.506  1.00 37.10 LIG-0.65  OA
ENDBRANCH 44 45
BRANCH 44 48
ATOM     48  CB  ARG X 131      -6.542  12.304  -9.168  1.00 35.20 LIG 0.04  C 
BRANCH 48 49
ATOM     49  CG  ARG X 131      -7.158  11.675 -10.432  1.00 40.01 LIG 0.02  C 
BRANCH 49 50
ATOM     50  CD  ARG X 131      -8.616  12.123 -10.716  1.00 47.84 LIG 0.14  C 
BRANCH 50 51
ATOM     51  NE  ARG X 131      -8.640  13.278 -11.613  1.00 52.72 LIG-0.23  N 
ATOM     52  CZ  ARG X 131      -9.315  13.346 -12.764  1.00 57.07 LIG 0.67  C 
ATOM     53  NH1 ARG X 131     -10.075  12.320 -13.180  1.00 58.64 LIG-0.23  N 
ATOM     54  NH2 ARG X 131      -9.237  14.457 -13.500  1.00 59.02 LIG-0.23  N 
ATOM     55 2HH1 ARG X 131     -10.504  12.376 -13.923  1.00 58.64 LIG 0.17  HD
ATOM     56 1HH1 ARG X 131     -10.133  11.606 -12.704  1.00 58.64 LIG 0.17  HD
ATOM     57 2HH2 ARG X 131      -9.667  14.512 -14.243  1.00 59.02 LIG 0.17  HD
ATOM     58 1HH2 ARG X 131      -8.757  15.118 -13.232  1.00 59.02 LIG 0.17  HD
ATOM     59 HE   ARG X 131      -8.183  13.969 -11.381  1.00 52.72 LIG 0.18  HD
ENDBRANCH 50 51
ENDBRANCH 49 50
ENDBRANCH 48 49
ENDBRANCH 44 48
ENDBRANCH 42 44
ENDBRANCH 39 40
BRANCH 39 60
ATOM     60  CB  LEU X 130      -2.161  14.520  -6.465  1.00 27.29 LIG 0.04  C 
BRANCH 60 61
ATOM     61  CG  LEU X 130      -2.989  15.316  -5.469  1.00 26.34 LIG-0.02  C 
ATOM     62  CD1 LEU X 130      -2.867  16.861  -5.675  1.00 29.54 LIG 0.01  C 
ATOM     63  CD2 LEU X 130      -4.415  14.893  -5.606  1.00 21.56 LIG 0.01  C 
ENDBRANCH 60 61
ENDBRANCH 39 60
ENDBRANCH 36 39
ENDBRANCH 1 35
BRANCH 1 64
ATOM     64  CB  ARG X 129       1.684  12.060  -5.357  1.00 24.17 LIG 0.04  C 
BRANCH 64 65
ATOM     65  CG  ARG X 129       1.048  11.240  -4.325  1.00 28.32 LIG 0.02  C 
BRANCH 65 66
ATOM     66  CD  ARG X 129       0.052  11.982  -3.453  1.00 31.43 LIG 0.14  C 
BRANCH 66 67
ATOM     67  NE  ARG X 129      -1.367  11.765  -3.768  1.00 29.42 LIG-0.23  N 
ATOM     68  CZ  ARG X 129      -2.387  12.117  -2.994  1.00 30.66 LIG 0.67  C 
ATOM     69  NH1 ARG X 129      -2.188  12.627  -1.780  1.00 33.32 LIG-0.23  N 
ATOM     70  NH2 ARG X 129      -3.638  11.918  -3.425  1.00 29.67 LIG-0.23  N 
ATOM     71 2HH1 ARG X 129      -2.860  12.850  -1.292  1.00 33.32 LIG 0.17  HD
ATOM     72 1HH1 ARG X 129      -1.388  12.733  -1.485  1.00 33.32 LIG 0.17  HD
ATOM     73 2HH2 ARG X 129      -4.304  12.143  -2.930  1.00 29.67 LIG 0.17  HD
ATOM     74 1HH2 ARG X 129      -3.776  11.565  -4.197  1.00 29.67 LIG 0.17  HD
ATOM     75 HE   ARG X 129      -1.552  11.378  -4.514  1.00 29.42 LIG 0.18  HD
ENDBRANCH 66 67
ENDBRANCH 65 66
ENDBRANCH 64 65
ENDBRANCH 1 64
TORSDOF 27
ENDMDL
MODEL 24
USER: ADFR SOLUTION from run 167
USER: SCORE 28.264702 LL:  -3.756 LR: -25.595 RR:   0.000 FEB: -17.541
USER: RMSD 12.616177
USER: SEED 166
USER: STATUS searching
USER: GENES 29
USER: genes 0 Translation |==|  0.58594 0.43440 0.40311
USER: genes 1 Rotation |==|  0.51789 0.95911 0.69476 0.53107
USER: genes 2 Torsion [C]-CA--N-[C] |==|  0.65026
USER: genes 3 Torsion [N]-C--CA-[N] |==|  0.40001
USER: genes 4 Torsion [C]-CA--CB-[CG] |==|  0.21533
USER: genes 5 Torsion [CA]-CB--CG-[CD] |==|  0.39867
USER: genes 6 Torsion [CB]-CG--CD-[NE] |==|  0.46617
USER: genes 7 Torsion [CG]-CD--NE-[HE] |==|  0.17620
USER: genes 8 Torsion [C]-CA--N-[C] |==|  0.62827
USER: genes 9 Torsion [N]-C--CA-[N] |==|  0.77411
USER: genes 10 Torsion [C]-CA--N-[C] |==|  0.70439
USER: genes 11 Torsion [N]-C--CA-[N] |==|  0.40575
USER: genes 12 Torsion [C]-CA--CB-[CG] |==|  0.28824
USER: genes 13 Torsion [CA]-CB--CG-[CD2] |==|  0.44922
USER: genes 14 Torsion [N]-CA--C-[N] |==|  0.36809
USER: genes 15 Torsion [C]-N--CA-[C] |==|  0.77963
USER: genes 16 Torsion [N]-CA--C-[N] |==|  0.31752
USER: genes 17 Torsion [C]-N--CA-[C] |==|  0.79010
USER: genes 18 Torsion [N]-CA--C-[O] |==|  0.45952
USER: genes 19 Torsion [N]-CA--CB-[CG] |==|  0.54018
USER: genes 20 Torsion [CA]-CB--CG-[CD] |==|  0.20686
USER: genes 21 Torsion [CB]-CG--CD-[NE] |==|  0.64974
USER: genes 22 Torsion [CG]-CD--NE-[CZ] |==|  0.39748
USER: genes 23 Torsion [N]-CA--CB-[CG] |==|  0.72333
USER: genes 24 Torsion [CA]-CB--CG-[CD1] |==|  0.68311
USER: genes 25 Torsion [N]-CA--CB-[CG] |==|  0.55116
USER: genes 26 Torsion [CA]-CB--CG-[CD] |==|  0.11648
USER: genes 27 Torsion [CB]-CG--CD-[NE] |==|  0.61755
USER: genes 28 Torsion [CG]-CD--NE-[HE] |==|  0.14724
ROOT
ATOM      1  CA  ARG X 129       4.781  12.535  -9.356  1.00 23.09 LIG 0.18  C 
ENDROOT
BRANCH 1 2
ATOM      2  N   ARG X 129       3.486  12.781  -8.734  1.00 20.82 LIG-0.35  N 
ATOM      3  C   ARG X 128       2.448  11.945  -8.780  1.00 20.67 LIG 0.24  C 
ATOM      4 O    ARG X 128       2.443  10.848  -9.394  1.00 18.99 LIG-0.27  OA
ATOM      5 H    ARG X 129       3.451  13.536  -8.323  1.00 20.82 LIG 0.16  HD
BRANCH 3 6
ATOM      6  CA  ARG X 128       1.211  12.397  -8.005  1.00 21.45 LIG 0.18  C 
BRANCH 6 7
ATOM      7  CB  ARG X 128       1.174  11.762  -6.626  1.00 22.98 LIG 0.04  C 
BRANCH 7 8
ATOM      8  CG  ARG X 128       2.152  12.475  -5.670  1.00 26.06 LIG 0.02  C 
BRANCH 8 9
ATOM      9  CD  ARG X 128       1.687  12.627  -4.158  1.00 28.46 LIG 0.14  C 
BRANCH 9 10
ATOM     10  NE  ARG X 128       2.581  13.036  -3.084  1.00 34.87 LIG-0.23  N 
ATOM     11 HE   ARG X 128       2.917  13.826  -3.137  1.00 34.87 LIG 0.18  HD
ATOM     12  CZ  ARG X 128       2.930  12.300  -2.021  1.00 35.06 LIG 0.67  C 
ATOM     13  NH1 ARG X 128       2.528  11.053  -1.862  1.00 38.28 LIG-0.23  N 
ATOM     14  NH2 ARG X 128       3.726  12.816  -1.128  1.00 41.06 LIG-0.23  N 
ATOM     15 1HH1 ARG X 128       2.023  10.685  -2.453  1.00 38.28 LIG 0.17  HD
ATOM     16 2HH1 ARG X 128       2.770  10.607  -1.167  1.00 38.28 LIG 0.17  HD
ATOM     17 1HH2 ARG X 128       4.020  13.618  -1.225  1.00 41.06 LIG 0.17  HD
ATOM     18 2HH2 ARG X 128       3.958  12.354  -0.440  1.00 41.06 LIG 0.17  HD
ENDBRANCH 9 10
ENDBRANCH 8 9
ENDBRANCH 7 8
ENDBRANCH 6 7
BRANCH 6 19
ATOM     19  N   ARG X 128       0.005  12.013  -8.689  1.00 22.62 LIG-0.35  N 
ATOM     20 H    ARG X 128       0.003  11.200  -8.970  1.00 22.62 LIG 0.16  HD
ATOM     21  C   ALA X 127      -1.006  12.854  -8.863  1.00 23.78 LIG 0.24  C 
ATOM     22 O    ALA X 127      -1.019  13.992  -8.402  1.00 22.39 LIG-0.27  OA
BRANCH 21 23
ATOM     23  CA  ALA X 127      -2.248  12.278  -9.564  1.00 25.08 LIG 0.17  C 
ATOM     24  CB  ALA X 127      -2.603  10.887  -9.058  1.00 24.37 LIG 0.04  C 
BRANCH 23 25
ATOM     25  N   ALA X 127      -1.988  12.299 -10.999  1.00 27.78 LIG-0.35  N 
ATOM     26  C   LEU X 126      -2.641  13.227 -11.698  1.00 33.19 LIG 0.26  C 
ATOM     27 O    LEU X 126      -3.381  14.108 -11.159  1.00 34.96 LIG-0.27  OA
ATOM     28 H    ALA X 127      -1.435  11.716 -11.306  1.00 27.78 LIG 0.16  HD
BRANCH 26 29
ATOM     29  CA  LEU X 126      -2.477  13.193 -13.189  1.00 34.21 LIG 0.40  C 
ATOM     30  N   LEU X 126      -3.710  13.617 -13.881  1.00 36.42 LIG 0.61  N 
BRANCH 29 31
ATOM     31  CB  LEU X 126      -1.291  14.112 -13.551  1.00 35.53 LIG 0.06  C 
BRANCH 31 32
ATOM     32  CG  LEU X 126       0.017  13.394 -13.909  1.00 35.00 LIG-0.02  C 
ATOM     33  CD2 LEU X 126       0.948  14.368 -14.677  1.00 38.18 LIG 0.01  C 
ATOM     34  CD1 LEU X 126      -0.237  12.175 -14.735  1.00 36.44 LIG 0.01  C 
ENDBRANCH 31 32
ENDBRANCH 29 31
ENDBRANCH 26 29
ENDBRANCH 23 25
ENDBRANCH 21 23
ENDBRANCH 6 19
ENDBRANCH 3 6
ENDBRANCH 1 2
BRANCH 1 35
ATOM     35  C   ARG X 129       5.954  12.663  -8.347  1.00 22.72 LIG 0.24  C 
ATOM     36  N   LEU X 130       6.912  11.723  -8.283  1.00 24.32 LIG-0.35  N 
ATOM     37 H    LEU X 130       6.891  10.970  -8.696  1.00 24.32 LIG 0.16  HD
ATOM     38 O    ARG X 129       5.988  13.657  -7.621  1.00 21.19 LIG-0.27  OA
BRANCH 36 39
ATOM     39  CA  LEU X 130       8.116  11.958  -7.448  1.00 26.11 LIG 0.18  C 
BRANCH 39 40
ATOM     40  C   LEU X 130       9.113  12.854  -8.145  1.00 29.66 LIG 0.24  C 
ATOM     41 O    LEU X 130       9.708  12.446  -9.154  1.00 28.98 LIG-0.27  OA
ATOM     42  N   ARG X 131       9.336  14.046  -7.599  1.00 30.67 LIG-0.34  N 
ATOM     43 H    ARG X 131       8.881  14.371  -6.945  1.00 30.67 LIG 0.16  HD
BRANCH 42 44
ATOM     44  CA  ARG X 131      10.394  14.907  -8.084  1.00 33.89 LIG 0.18  C 
BRANCH 44 45
ATOM     45  C   ARG X 131      11.774  14.432  -7.625  1.00 35.66 LIG 0.20  C 
ATOM     46 OXT  ARG X 131      11.914  13.607  -6.696  1.00 35.07 LIG-0.65  OA
ATOM     47 O    ARG X 131      12.831  14.880  -8.160  1.00 37.10 LIG-0.65  OA
ENDBRANCH 44 45
BRANCH 44 48
ATOM     48  CB  ARG X 131      10.146  16.340  -7.602  1.00 35.20 LIG 0.04  C 
BRANCH 48 49
ATOM     49  CG  ARG X 131      10.994  17.397  -8.334  1.00 40.01 LIG 0.02  C 
BRANCH 49 50
ATOM     50  CD  ARG X 131      10.515  17.702  -9.778  1.00 47.84 LIG 0.14  C 
BRANCH 50 51
ATOM     51  NE  ARG X 131      11.612  17.542 -10.734  1.00 52.72 LIG-0.23  N 
ATOM     52  CZ  ARG X 131      11.492  17.048 -11.968  1.00 57.07 LIG 0.67  C 
ATOM     53  NH1 ARG X 131      10.295  16.671 -12.448  1.00 58.64 LIG-0.23  N 
ATOM     54  NH2 ARG X 131      12.580  16.939 -12.735  1.00 59.02 LIG-0.23  N 
ATOM     55 2HH1 ARG X 131      10.231  16.355 -13.245  1.00 58.64 LIG 0.17  HD
ATOM     56 1HH1 ARG X 131       9.592  16.748 -11.959  1.00 58.64 LIG 0.17  HD
ATOM     57 2HH2 ARG X 131      12.514  16.621 -13.532  1.00 59.02 LIG 0.17  HD
ATOM     58 1HH2 ARG X 131      13.346  17.186 -12.432  1.00 59.02 LIG 0.17  HD
ATOM     59 HE   ARG X 131      12.396  17.786 -10.479  1.00 52.72 LIG 0.18  HD
ENDBRANCH 50 51
ENDBRANCH 49 50
ENDBRANCH 48 49
ENDBRANCH 44 48
ENDBRANCH 42 44
ENDBRANCH 39 40
BRANCH 39 60
ATOM     60  CB  LEU X 130       8.853  10.669  -7.075  1.00 27.29 LIG 0.04  C 
BRANCH 60 61
ATOM     61  CG  LEU X 130       8.658  10.026  -5.712  1.00 26.34 LIG-0.02  C 
ATOM     62  CD1 LEU X 130       9.954  10.050  -4.838  1.00 29.54 LIG 0.01  C 
ATOM     63  CD2 LEU X 130       7.555  10.751  -5.009  1.00 21.56 LIG 0.01  C 
ENDBRANCH 60 61
ENDBRANCH 39 60
ENDBRANCH 36 39
ENDBRANCH 1 35
BRANCH 1 64
ATOM     64  CB  ARG X 129       4.869  13.672 -10.398  1.00 24.17 LIG 0.04  C 
BRANCH 64 65
ATOM     65  CG  ARG X 129       5.831  13.524 -11.492  1.00 28.32 LIG 0.02  C 
BRANCH 65 66
ATOM     66  CD  ARG X 129       5.891  12.134 -12.096  1.00 31.43 LIG 0.14  C 
BRANCH 66 67
ATOM     67  NE  ARG X 129       7.235  11.617 -12.393  1.00 29.42 LIG-0.23  N 
ATOM     68  CZ  ARG X 129       7.631  11.138 -13.566  1.00 30.66 LIG 0.67  C 
ATOM     69  NH1 ARG X 129       6.776  10.993 -14.576  1.00 33.32 LIG-0.23  N 
ATOM     70  NH2 ARG X 129       8.904  10.755 -13.724  1.00 29.67 LIG-0.23  N 
ATOM     71 2HH1 ARG X 129       7.049  10.681 -15.330  1.00 33.32 LIG 0.17  HD
ATOM     72 1HH1 ARG X 129       5.951  11.212 -14.476  1.00 33.32 LIG 0.17  HD
ATOM     73 2HH2 ARG X 129       9.168  10.443 -14.480  1.00 29.67 LIG 0.17  HD
ATOM     74 1HH2 ARG X 129       9.457  10.821 -13.069  1.00 29.67 LIG 0.17  HD
ATOM     75 HE   ARG X 129       7.812  11.626 -11.755  1.00 29.42 LIG 0.18  HD
ENDBRANCH 66 67
ENDBRANCH 65 66
ENDBRANCH 64 65
ENDBRANCH 1 64
TORSDOF 27
ENDMDL
MODEL 25
USER: ADFR SOLUTION from run 150
USER: SCORE 28.181652 LL:  -3.462 LR: -25.583 RR:   0.000 FEB: -17.528
USER: RMSD 11.649967
USER: SEED 149
USER: STATUS no improvement in best in 11 clusters for 5 generations
USER: GENES 29
USER: genes 0 Translation |==|  0.44457 0.42671 0.53052
USER: genes 1 Rotation |==|  0.59052 0.37624 0.97337 0.54906
USER: genes 2 Torsion [C]-CA--N-[C] |==|  0.75421
USER: genes 3 Torsion [N]-C--CA-[N] |==|  0.44723
USER: genes 4 Torsion [C]-CA--CB-[CG] |==|  0.40314
USER: genes 5 Torsion [CA]-CB--CG-[CD] |==|  0.06032
USER: genes 6 Torsion [CB]-CG--CD-[NE] |==|  0.63666
USER: genes 7 Torsion [CG]-CD--NE-[HE] |==|  0.92216
USER: genes 8 Torsion [C]-CA--N-[C] |==|  0.67736
USER: genes 9 Torsion [N]-C--CA-[N] |==|  0.24240
USER: genes 10 Torsion [C]-CA--N-[C] |==|  0.73410
USER: genes 11 Torsion [N]-C--CA-[N] |==|  0.94799
USER: genes 12 Torsion [C]-CA--CB-[CG] |==|  0.79605
USER: genes 13 Torsion [CA]-CB--CG-[CD2] |==|  0.58825
USER: genes 14 Torsion [N]-CA--C-[N] |==|  0.31970
USER: genes 15 Torsion [C]-N--CA-[C] |==|  0.59581
USER: genes 16 Torsion [N]-CA--C-[N] |==|  0.37423
USER: genes 17 Torsion [C]-N--CA-[C] |==|  0.61041
USER: genes 18 Torsion [N]-CA--C-[O] |==|  0.16020
USER: genes 19 Torsion [N]-CA--CB-[CG] |==|  0.87633
USER: genes 20 Torsion [CA]-CB--CG-[CD] |==|  0.26062
USER: genes 21 Torsion [CB]-CG--CD-[NE] |==|  0.58759
USER: genes 22 Torsion [CG]-CD--NE-[CZ] |==|  0.68291
USER: genes 23 Torsion [N]-CA--CB-[CG] |==|  0.86605
USER: genes 24 Torsion [CA]-CB--CG-[CD1] |==|  0.45553
USER: genes 25 Torsion [N]-CA--CB-[CG] |==|  0.95903
USER: genes 26 Torsion [CA]-CB--CG-[CD] |==|  0.72133
USER: genes 27 Torsion [CB]-CG--CD-[NE] |==|  0.62398
USER: genes 28 Torsion [CG]-CD--NE-[HE] |==|  0.13379
ROOT
ATOM      1  CA  ARG X 129       0.858  12.408  -6.489  1.00 23.09 LIG 0.18  C 
ENDROOT
BRANCH 1 2
ATOM      2  N   ARG X 129      -0.585  12.237  -6.611  1.00 20.82 LIG-0.35  N 
ATOM      3  C   ARG X 128      -1.403  13.088  -7.232  1.00 20.67 LIG 0.24  C 
ATOM      4 O    ARG X 128      -1.037  14.165  -7.767  1.00 18.99 LIG-0.27  OA
ATOM      5 H    ARG X 129      -0.869  11.518  -6.235  1.00 20.82 LIG 0.16  HD
BRANCH 3 6
ATOM      6  CA  ARG X 128      -2.871  12.668  -7.277  1.00 21.45 LIG 0.18  C 
BRANCH 6 7
ATOM      7  CB  ARG X 128      -3.107  11.642  -8.371  1.00 22.98 LIG 0.04  C 
BRANCH 7 8
ATOM      8  CG  ARG X 128      -4.181  10.622  -7.943  1.00 26.06 LIG 0.02  C 
BRANCH 8 9
ATOM      9  CD  ARG X 128      -5.181  11.079  -6.796  1.00 28.46 LIG 0.14  C 
BRANCH 9 10
ATOM     10  NE  ARG X 128      -5.479  10.267  -5.624  1.00 34.87 LIG-0.23  N 
ATOM     11 HE   ARG X 128      -5.413   9.414  -5.714  1.00 34.87 LIG 0.18  HD
ATOM     12  CZ  ARG X 128      -5.846  10.721  -4.418  1.00 35.06 LIG 0.67  C 
ATOM     13  NH1 ARG X 128      -6.040  12.004  -4.176  1.00 38.28 LIG-0.23  N 
ATOM     14  NH2 ARG X 128      -6.057   9.867  -3.458  1.00 41.06 LIG-0.23  N 
ATOM     15 1HH1 ARG X 128      -5.931  12.582  -4.804  1.00 38.28 LIG 0.17  HD
ATOM     16 2HH1 ARG X 128      -6.275  12.263  -3.390  1.00 38.28 LIG 0.17  HD
ATOM     17 1HH2 ARG X 128      -5.960   9.025  -3.602  1.00 41.06 LIG 0.17  HD
ATOM     18 2HH2 ARG X 128      -6.293  10.145  -2.679  1.00 41.06 LIG 0.17  HD
ENDBRANCH 9 10
ENDBRANCH 8 9
ENDBRANCH 7 8
ENDBRANCH 6 7
BRANCH 6 19
ATOM     19  N   ARG X 128      -3.722  13.795  -7.551  1.00 22.62 LIG-0.35  N 
ATOM     20 H    ARG X 128      -3.596  14.151  -8.324  1.00 22.62 LIG 0.16  HD
ATOM     21  C   ALA X 127      -4.618  14.232  -6.676  1.00 23.78 LIG 0.24  C 
ATOM     22 O    ALA X 127      -4.835  13.676  -5.603  1.00 22.39 LIG-0.27  OA
BRANCH 21 23
ATOM     23  CA  ALA X 127      -5.490  15.411  -7.137  1.00 25.08 LIG 0.17  C 
ATOM     24  CB  ALA X 127      -5.896  16.315  -5.981  1.00 24.37 LIG 0.04  C 
BRANCH 23 25
ATOM     25  N   ALA X 127      -6.641  14.856  -7.839  1.00 27.78 LIG-0.35  N 
ATOM     26  C   LEU X 126      -6.540  14.789  -9.166  1.00 33.19 LIG 0.26  C 
ATOM     27 O    LEU X 126      -5.483  15.102  -9.798  1.00 34.96 LIG-0.27  OA
ATOM     28 H    ALA X 127      -7.310  14.607  -7.359  1.00 27.78 LIG 0.16  HD
BRANCH 26 29
ATOM     29  CA  LEU X 126      -7.755  14.327  -9.916  1.00 34.21 LIG 0.40  C 
ATOM     30  N   LEU X 126      -8.700  13.614  -9.034  1.00 36.42 LIG 0.61  N 
BRANCH 29 31
ATOM     31  CB  LEU X 126      -8.414  15.570 -10.551  1.00 35.53 LIG 0.06  C 
BRANCH 31 32
ATOM     32  CG  LEU X 126      -9.151  16.499  -9.578  1.00 35.00 LIG-0.02  C 
ATOM     33  CD2 LEU X 126     -10.351  17.161 -10.303  1.00 38.18 LIG 0.01  C 
ATOM     34  CD1 LEU X 126      -8.241  17.551  -9.032  1.00 36.44 LIG 0.01  C 
ENDBRANCH 31 32
ENDBRANCH 29 31
ENDBRANCH 26 29
ENDBRANCH 23 25
ENDBRANCH 21 23
ENDBRANCH 6 19
ENDBRANCH 3 6
ENDBRANCH 1 2
BRANCH 1 35
ATOM     35  C   ARG X 129       1.627  11.792  -7.689  1.00 22.72 LIG 0.24  C 
ATOM     36  N   LEU X 130       2.328  12.572  -8.530  1.00 24.32 LIG-0.35  N 
ATOM     37 H    LEU X 130       2.315  13.432  -8.531  1.00 24.32 LIG 0.16  HD
ATOM     38 O    ARG X 129       1.590  10.570  -7.837  1.00 21.19 LIG-0.27  OA
BRANCH 36 39
ATOM     39  CA  LEU X 130       3.204  11.948  -9.552  1.00 26.11 LIG 0.18  C 
BRANCH 39 40
ATOM     40  C   LEU X 130       4.445  12.772  -9.803  1.00 29.66 LIG 0.24  C 
ATOM     41 O    LEU X 130       4.347  13.996  -9.982  1.00 28.98 LIG-0.27  OA
ATOM     42  N   ARG X 131       5.601  12.117  -9.862  1.00 30.67 LIG-0.34  N 
ATOM     43 H    ARG X 131       5.694  11.284  -9.668  1.00 30.67 LIG 0.16  HD
BRANCH 42 44
ATOM     44  CA  ARG X 131       6.820  12.783 -10.268  1.00 33.89 LIG 0.18  C 
BRANCH 44 45
ATOM     45  C   ARG X 131       7.686  11.895 -11.164  1.00 35.66 LIG 0.20  C 
ATOM     46 OXT  ARG X 131       8.872  11.621 -10.875  1.00 35.07 LIG-0.65  OA
ATOM     47 O    ARG X 131       7.234  11.422 -12.249  1.00 37.10 LIG-0.65  OA
ENDBRANCH 44 45
BRANCH 44 48
ATOM     48  CB  ARG X 131       7.610  13.202  -9.024  1.00 35.20 LIG 0.04  C 
BRANCH 48 49
ATOM     49  CG  ARG X 131       6.744  13.846  -7.926  1.00 40.01 LIG 0.02  C 
BRANCH 49 50
ATOM     50  CD  ARG X 131       6.241  12.848  -6.849  1.00 47.84 LIG 0.14  C 
BRANCH 50 51
ATOM     51  NE  ARG X 131       4.936  13.258  -6.329  1.00 52.72 LIG-0.23  N 
ATOM     52  CZ  ARG X 131       4.696  13.655  -5.077  1.00 57.07 LIG 0.67  C 
ATOM     53  NH1 ARG X 131       5.689  13.735  -4.175  1.00 58.64 LIG-0.23  N 
ATOM     54  NH2 ARG X 131       3.451  13.987  -4.726  1.00 59.02 LIG-0.23  N 
ATOM     55 2HH1 ARG X 131       5.521  13.992  -3.372  1.00 58.64 LIG 0.17  HD
ATOM     56 1HH1 ARG X 131       6.493  13.529  -4.401  1.00 58.64 LIG 0.17  HD
ATOM     57 2HH2 ARG X 131       3.285  14.244  -3.922  1.00 59.02 LIG 0.17  HD
ATOM     58 1HH2 ARG X 131       2.816  13.944  -5.304  1.00 59.02 LIG 0.17  HD
ATOM     59 HE   ARG X 131       4.271  13.242  -6.874  1.00 52.72 LIG 0.18  HD
ENDBRANCH 50 51
ENDBRANCH 49 50
ENDBRANCH 48 49
ENDBRANCH 44 48
ENDBRANCH 42 44
ENDBRANCH 39 40
BRANCH 39 60
ATOM     60  CB  LEU X 130       2.510  11.755 -10.904  1.00 27.29 LIG 0.04  C 
BRANCH 60 61
ATOM     61  CG  LEU X 130       1.129  11.125 -10.988  1.00 26.34 LIG-0.02  C 
ATOM     62  CD1 LEU X 130       0.433  11.372 -12.366  1.00 29.54 LIG 0.01  C 
ATOM     63  CD2 LEU X 130       1.272   9.658 -10.743  1.00 21.56 LIG 0.01  C 
ENDBRANCH 60 61
ENDBRANCH 39 60
ENDBRANCH 36 39
ENDBRANCH 1 35
BRANCH 1 64
ATOM     64  CB  ARG X 129       1.178  11.609  -5.206  1.00 24.17 LIG 0.04  C 
BRANCH 64 65
ATOM     65  CG  ARG X 129       0.062  11.236  -4.336  1.00 28.32 LIG 0.02  C 
BRANCH 65 66
ATOM     66  CD  ARG X 129      -0.116  12.126  -3.119  1.00 31.43 LIG 0.14  C 
BRANCH 66 67
ATOM     67  NE  ARG X 129      -0.365  11.434  -1.847  1.00 29.42 LIG-0.23  N 
ATOM     68  CZ  ARG X 129      -1.325  11.742  -0.981  1.00 30.66 LIG 0.67  C 
ATOM     69  NH1 ARG X 129      -2.104  12.805  -1.165  1.00 33.32 LIG-0.23  N 
ATOM     70  NH2 ARG X 129      -1.485  10.992   0.116  1.00 29.67 LIG-0.23  N 
ATOM     71 2HH1 ARG X 129      -2.721  12.990  -0.595  1.00 33.32 LIG 0.17  HD
ATOM     72 1HH1 ARG X 129      -1.991  13.307  -1.853  1.00 33.32 LIG 0.17  HD
ATOM     73 2HH2 ARG X 129      -2.104  11.184   0.681  1.00 29.67 LIG 0.17  HD
ATOM     74 1HH2 ARG X 129      -0.970  10.318   0.255  1.00 29.67 LIG 0.17  HD
ATOM     75 HE   ARG X 129       0.152  10.777  -1.645  1.00 29.42 LIG 0.18  HD
ENDBRANCH 66 67
ENDBRANCH 65 66
ENDBRANCH 64 65
ENDBRANCH 1 64
TORSDOF 27
ENDMDL
MODEL 26
USER: ADFR SOLUTION from run 137
USER: SCORE 29.190833 LL:  -4.344 LR: -25.567 RR:   0.000 FEB: -17.513
USER: RMSD 4.864586
USER: SEED 136
USER: STATUS no improvement in best in 9 clusters for 5 generations
USER: GENES 29
USER: genes 0 Translation |==|  0.45427 0.38442 0.49751
USER: genes 1 Rotation |==|  0.33610 0.44801 0.58628 0.96151
USER: genes 2 Torsion [C]-CA--N-[C] |==|  0.80099
USER: genes 3 Torsion [N]-C--CA-[N] |==|  0.33740
USER: genes 4 Torsion [C]-CA--CB-[CG] |==|  0.73937
USER: genes 5 Torsion [CA]-CB--CG-[CD] |==|  0.71879
USER: genes 6 Torsion [CB]-CG--CD-[NE] |==|  0.52479
USER: genes 7 Torsion [CG]-CD--NE-[HE] |==|  0.18568
USER: genes 8 Torsion [C]-CA--N-[C] |==|  0.70000
USER: genes 9 Torsion [N]-C--CA-[N] |==|  0.44635
USER: genes 10 Torsion [C]-CA--N-[C] |==|  0.78456
USER: genes 11 Torsion [N]-C--CA-[N] |==|  0.27337
USER: genes 12 Torsion [C]-CA--CB-[CG] |==|  0.67558
USER: genes 13 Torsion [CA]-CB--CG-[CD2] |==|  0.55352
USER: genes 14 Torsion [N]-CA--C-[N] |==|  0.44818
USER: genes 15 Torsion [C]-N--CA-[C] |==|  0.89119
USER: genes 16 Torsion [N]-CA--C-[N] |==|  0.36073
USER: genes 17 Torsion [C]-N--CA-[C] |==|  0.79588
USER: genes 18 Torsion [N]-CA--C-[O] |==|  0.40063
USER: genes 19 Torsion [N]-CA--CB-[CG] |==|  0.04410
USER: genes 20 Torsion [CA]-CB--CG-[CD] |==|  0.31928
USER: genes 21 Torsion [CB]-CG--CD-[NE] |==|  0.90189
USER: genes 22 Torsion [CG]-CD--NE-[CZ] |==|  0.51039
USER: genes 23 Torsion [N]-CA--CB-[CG] |==|  0.63542
USER: genes 24 Torsion [CA]-CB--CG-[CD1] |==|  0.05084
USER: genes 25 Torsion [N]-CA--CB-[CG] |==|  0.53869
USER: genes 26 Torsion [CA]-CB--CG-[CD] |==|  0.67376
USER: genes 27 Torsion [CB]-CG--CD-[NE] |==|  0.36163
USER: genes 28 Torsion [CG]-CD--NE-[HE] |==|  0.86822
ROOT
ATOM      1  CA  ARG X 129       1.127  11.710  -7.232  1.00 23.09 LIG 0.18  C 
ENDROOT
BRANCH 1 2
ATOM      2  N   ARG X 129       2.265  12.379  -7.849  1.00 20.82 LIG-0.35  N 
ATOM      3  C   ARG X 128       3.038  11.850  -8.797  1.00 20.67 LIG 0.24  C 
ATOM      4 O    ARG X 128       2.903  10.688  -9.260  1.00 18.99 LIG-0.27  OA
ATOM      5 H    ARG X 129       2.397  13.170  -7.537  1.00 20.82 LIG 0.16  HD
BRANCH 3 6
ATOM      6  CA  ARG X 128       4.140  12.765  -9.330  1.00 21.45 LIG 0.18  C 
BRANCH 6 7
ATOM      7  CB  ARG X 128       3.963  13.015 -10.817  1.00 22.98 LIG 0.04  C 
BRANCH 7 8
ATOM      8  CG  ARG X 128       4.792  12.011 -11.643  1.00 26.06 LIG 0.02  C 
BRANCH 8 9
ATOM      9  CD  ARG X 128       6.166  12.542 -12.240  1.00 28.46 LIG 0.14  C 
BRANCH 9 10
ATOM     10  NE  ARG X 128       6.969  11.787 -13.191  1.00 34.87 LIG-0.23  N 
ATOM     11 HE   ARG X 128       6.633  11.664 -13.973  1.00 34.87 LIG 0.18  HD
ATOM     12  CZ  ARG X 128       8.183  11.266 -12.966  1.00 35.06 LIG 0.67  C 
ATOM     13  NH1 ARG X 128       8.774  11.337 -11.788  1.00 38.28 LIG-0.23  N 
ATOM     14  NH2 ARG X 128       8.788  10.632 -13.929  1.00 41.06 LIG-0.23  N 
ATOM     15 1HH1 ARG X 128       8.380  11.729 -11.131  1.00 38.28 LIG 0.17  HD
ATOM     16 2HH1 ARG X 128       9.554  10.992 -11.676  1.00 38.28 LIG 0.17  HD
ATOM     17 1HH2 ARG X 128       8.409  10.553 -14.697  1.00 41.06 LIG 0.17  HD
ATOM     18 2HH2 ARG X 128       9.568  10.292 -13.798  1.00 41.06 LIG 0.17  HD
ENDBRANCH 9 10
ENDBRANCH 8 9
ENDBRANCH 7 8
ENDBRANCH 6 7
BRANCH 6 19
ATOM     19  N   ARG X 128       5.438  12.173  -9.143  1.00 22.62 LIG-0.35  N 
ATOM     20 H    ARG X 128       5.600  11.508  -9.664  1.00 22.62 LIG 0.16  HD
ATOM     21  C   ALA X 127       6.297  12.628  -8.240  1.00 23.78 LIG 0.24  C 
ATOM     22 O    ALA X 127       6.081  13.618  -7.547  1.00 22.39 LIG-0.27  OA
BRANCH 21 23
ATOM     23  CA  ALA X 127       7.664  11.926  -8.199  1.00 25.08 LIG 0.17  C 
ATOM     24  CB  ALA X 127       7.589  10.555  -7.540  1.00 24.37 LIG 0.04  C 
BRANCH 23 25
ATOM     25  N   ALA X 127       8.594  12.819  -7.518  1.00 27.78 LIG-0.35  N 
ATOM     26  C   LEU X 126       9.059  13.838  -8.240  1.00 33.19 LIG 0.26  C 
ATOM     27 O    LEU X 126       8.666  14.087  -9.422  1.00 34.96 LIG-0.27  OA
ATOM     28 H    ALA X 127       8.785  12.637  -6.700  1.00 27.78 LIG 0.16  HD
BRANCH 26 29
ATOM     29  CA  LEU X 126      10.104  14.703  -7.597  1.00 34.21 LIG 0.40  C 
ATOM     30  N   LEU X 126      11.464  14.328  -8.033  1.00 36.42 LIG 0.61  N 
BRANCH 29 31
ATOM     31  CB  LEU X 126       9.786  16.169  -7.959  1.00 35.53 LIG 0.06  C 
BRANCH 31 32
ATOM     32  CG  LEU X 126      10.849  16.889  -8.799  1.00 35.00 LIG-0.02  C 
ATOM     33  CD2 LEU X 126      10.654  18.422  -8.676  1.00 38.18 LIG 0.01  C 
ATOM     34  CD1 LEU X 126      10.781  16.480 -10.235  1.00 36.44 LIG 0.01  C 
ENDBRANCH 31 32
ENDBRANCH 29 31
ENDBRANCH 26 29
ENDBRANCH 23 25
ENDBRANCH 21 23
ENDBRANCH 6 19
ENDBRANCH 3 6
ENDBRANCH 1 2
BRANCH 1 35
ATOM     35  C   ARG X 129      -0.082  11.591  -8.199  1.00 22.72 LIG 0.24  C 
ATOM     36  N   LEU X 130      -1.064  10.704  -7.966  1.00 24.32 LIG-0.35  N 
ATOM     37 H    LEU X 130      -1.045  10.095  -7.358  1.00 24.32 LIG 0.16  HD
ATOM     38 O    ARG X 129      -0.121  12.342  -9.173  1.00 21.19 LIG-0.27  OA
BRANCH 36 39
ATOM     39  CA  LEU X 130      -2.295  10.736  -8.794  1.00 26.11 LIG 0.18  C 
BRANCH 39 40
ATOM     40  C   LEU X 130      -2.730  12.151  -9.094  1.00 29.66 LIG 0.24  C 
ATOM     41 O    LEU X 130      -2.869  12.963  -8.166  1.00 28.98 LIG-0.27  OA
ATOM     42  N   ARG X 131      -2.987  12.446 -10.365  1.00 30.67 LIG-0.34  N 
ATOM     43 H    ARG X 131      -2.826  11.919 -11.025  1.00 30.67 LIG 0.16  HD
BRANCH 42 44
ATOM     44  CA  ARG X 131      -3.575  13.716 -10.736  1.00 33.89 LIG 0.18  C 
BRANCH 44 45
ATOM     45  C   ARG X 131      -5.058  13.789 -10.368  1.00 35.66 LIG 0.20  C 
ATOM     46 OXT  ARG X 131      -5.813  12.797 -10.466  1.00 35.07 LIG-0.65  OA
ATOM     47 O    ARG X 131      -5.580  14.873  -9.972  1.00 37.10 LIG-0.65  OA
ENDBRANCH 44 45
BRANCH 44 48
ATOM     48  CB  ARG X 131      -3.396  13.938 -12.242  1.00 35.20 LIG 0.04  C 
BRANCH 48 49
ATOM     49  CG  ARG X 131      -3.022  12.662 -13.018  1.00 40.01 LIG 0.02  C 
BRANCH 49 50
ATOM     50  CD  ARG X 131      -4.102  12.198 -14.031  1.00 47.84 LIG 0.14  C 
BRANCH 50 51
ATOM     51  NE  ARG X 131      -5.446  12.465 -13.517  1.00 52.72 LIG-0.23  N 
ATOM     52  CZ  ARG X 131      -6.585  12.117 -14.121  1.00 57.07 LIG 0.67  C 
ATOM     53  NH1 ARG X 131      -6.573  11.443 -15.283  1.00 58.64 LIG-0.23  N 
ATOM     54  NH2 ARG X 131      -7.749  12.438 -13.551  1.00 59.02 LIG-0.23  N 
ATOM     55 2HH1 ARG X 131      -7.313  11.226 -15.662  1.00 58.64 LIG 0.17  HD
ATOM     56 1HH1 ARG X 131      -5.825  11.229 -15.649  1.00 58.64 LIG 0.17  HD
ATOM     57 2HH2 ARG X 131      -8.489  12.219 -13.932  1.00 59.02 LIG 0.17  HD
ATOM     58 1HH2 ARG X 131      -7.759  12.862 -12.804  1.00 59.02 LIG 0.17  HD
ATOM     59 HE   ARG X 131      -5.507  12.878 -12.766  1.00 52.72 LIG 0.18  HD
ENDBRANCH 50 51
ENDBRANCH 49 50
ENDBRANCH 48 49
ENDBRANCH 44 48
ENDBRANCH 42 44
ENDBRANCH 39 40
BRANCH 39 60
ATOM     60  CB  LEU X 130      -3.483  10.029  -8.136  1.00 27.29 LIG 0.04  C 
BRANCH 60 61
ATOM     61  CG  LEU X 130      -4.313   9.018  -8.909  1.00 26.34 LIG-0.02  C 
ATOM     62  CD1 LEU X 130      -3.580   8.474 -10.179  1.00 29.54 LIG 0.01  C 
ATOM     63  CD2 LEU X 130      -4.647   7.888  -7.989  1.00 21.56 LIG 0.01  C 
ENDBRANCH 60 61
ENDBRANCH 39 60
ENDBRANCH 36 39
ENDBRANCH 1 35
BRANCH 1 64
ATOM     64  CB  ARG X 129       0.769  12.667  -6.073  1.00 24.17 LIG 0.04  C 
BRANCH 64 65
ATOM     65  CG  ARG X 129      -0.137  12.173  -5.034  1.00 28.32 LIG 0.02  C 
BRANCH 65 66
ATOM     66  CD  ARG X 129      -1.446  12.934  -4.924  1.00 31.43 LIG 0.14  C 
BRANCH 66 67
ATOM     67  NE  ARG X 129      -2.667  12.116  -4.907  1.00 29.42 LIG-0.23  N 
ATOM     68  CZ  ARG X 129      -3.669  12.252  -4.046  1.00 30.66 LIG 0.67  C 
ATOM     69  NH1 ARG X 129      -3.597  13.111  -3.033  1.00 33.32 LIG-0.23  N 
ATOM     70  NH2 ARG X 129      -4.756  11.482  -4.177  1.00 29.67 LIG-0.23  N 
ATOM     71 2HH1 ARG X 129      -4.255  13.187  -2.485  1.00 33.32 LIG 0.17  HD
ATOM     72 1HH1 ARG X 129      -2.891  13.591  -2.926  1.00 33.32 LIG 0.17  HD
ATOM     73 2HH2 ARG X 129      -5.410  11.563  -3.624  1.00 29.67 LIG 0.17  HD
ATOM     74 1HH2 ARG X 129      -4.801  10.906  -4.814  1.00 29.67 LIG 0.17  HD
ATOM     75 HE   ARG X 129      -2.738  11.499  -5.502  1.00 29.42 LIG 0.18  HD
ENDBRANCH 66 67
ENDBRANCH 65 66
ENDBRANCH 64 65
ENDBRANCH 1 64
TORSDOF 27
ENDMDL
MODEL 27
USER: ADFR SOLUTION from run 93
USER: SCORE 28.910285 LL:  -3.946 LR: -25.563 RR:   0.000 FEB: -17.509
USER: RMSD 11.693291
USER: SEED 92
USER: STATUS no improvement in best in 18 clusters for 5 generations
USER: GENES 29
USER: genes 0 Translation |==|  0.46445 0.40222 0.48025
USER: genes 1 Rotation |==|  0.48693 0.68827 0.03706 0.50820
USER: genes 2 Torsion [C]-CA--N-[C] |==|  0.68168
USER: genes 3 Torsion [N]-C--CA-[N] |==|  0.33889
USER: genes 4 Torsion [C]-CA--CB-[CG] |==|  0.57323
USER: genes 5 Torsion [CA]-CB--CG-[CD] |==|  0.71669
USER: genes 6 Torsion [CB]-CG--CD-[NE] |==|  0.56537
USER: genes 7 Torsion [CG]-CD--NE-[HE] |==|  0.99365
USER: genes 8 Torsion [C]-CA--N-[C] |==|  0.81768
USER: genes 9 Torsion [N]-C--CA-[N] |==|  0.47135
USER: genes 10 Torsion [C]-CA--N-[C] |==|  0.55589
USER: genes 11 Torsion [N]-C--CA-[N] |==|  0.38665
USER: genes 12 Torsion [C]-CA--CB-[CG] |==|  0.04154
USER: genes 13 Torsion [CA]-CB--CG-[CD2] |==|  0.68466
USER: genes 14 Torsion [N]-CA--C-[N] |==|  0.39399
USER: genes 15 Torsion [C]-N--CA-[C] |==|  0.59650
USER: genes 16 Torsion [N]-CA--C-[N] |==|  0.41011
USER: genes 17 Torsion [C]-N--CA-[C] |==|  0.60325
USER: genes 18 Torsion [N]-CA--C-[O] |==|  0.97655
USER: genes 19 Torsion [N]-CA--CB-[CG] |==|  0.97331
USER: genes 20 Torsion [CA]-CB--CG-[CD] |==|  0.68901
USER: genes 21 Torsion [CB]-CG--CD-[NE] |==|  0.25398
USER: genes 22 Torsion [CG]-CD--NE-[CZ] |==|  0.52157
USER: genes 23 Torsion [N]-CA--CB-[CG] |==|  0.27967
USER: genes 24 Torsion [CA]-CB--CG-[CD1] |==|  0.25931
USER: genes 25 Torsion [N]-CA--CB-[CG] |==|  0.87789
USER: genes 26 Torsion [CA]-CB--CG-[CD] |==|  0.83633
USER: genes 27 Torsion [CB]-CG--CD-[NE] |==|  0.55032
USER: genes 28 Torsion [CG]-CD--NE-[HE] |==|  0.11089
ROOT
ATOM      1  CA  ARG X 129       1.409  12.004  -7.620  1.00 23.09 LIG 0.18  C 
ENDROOT
BRANCH 1 2
ATOM      2  N   ARG X 129       0.136  11.818  -8.304  1.00 20.82 LIG-0.35  N 
ATOM      3  C   ARG X 128      -0.759  12.783  -8.523  1.00 20.67 LIG 0.24  C 
ATOM      4 O    ARG X 128      -0.631  13.973  -8.137  1.00 18.99 LIG-0.27  OA
ATOM      5 H    ARG X 129       0.009  11.008  -8.561  1.00 20.82 LIG 0.16  HD
BRANCH 3 6
ATOM      6  CA  ARG X 128      -1.998  12.359  -9.309  1.00 21.45 LIG 0.18  C 
BRANCH 6 7
ATOM      7  CB  ARG X 128      -2.104  13.135 -10.610  1.00 22.98 LIG 0.04  C 
BRANCH 7 8
ATOM      8  CG  ARG X 128      -3.572  13.231 -11.072  1.00 26.06 LIG 0.02  C 
BRANCH 8 9
ATOM      9  CD  ARG X 128      -4.019  12.249 -12.239  1.00 28.46 LIG 0.14  C 
BRANCH 9 10
ATOM     10  NE  ARG X 128      -5.149  12.513 -13.118  1.00 34.87 LIG-0.23  N 
ATOM     11 HE   ARG X 128      -5.603  13.228 -12.964  1.00 34.87 LIG 0.18  HD
ATOM     12  CZ  ARG X 128      -5.551  11.751 -14.143  1.00 35.06 LIG 0.67  C 
ATOM     13  NH1 ARG X 128      -4.971  10.602 -14.438  1.00 38.28 LIG-0.23  N 
ATOM     14  NH2 ARG X 128      -6.572  12.134 -14.855  1.00 41.06 LIG-0.23  N 
ATOM     15 1HH1 ARG X 128      -4.312  10.319 -13.964  1.00 38.28 LIG 0.17  HD
ATOM     16 2HH1 ARG X 128      -5.253  10.136 -15.103  1.00 38.28 LIG 0.17  HD
ATOM     17 1HH2 ARG X 128      -6.979  12.867 -14.664  1.00 41.06 LIG 0.17  HD
ATOM     18 2HH2 ARG X 128      -6.840  11.653 -15.517  1.00 41.06 LIG 0.17  HD
ENDBRANCH 9 10
ENDBRANCH 8 9
ENDBRANCH 7 8
ENDBRANCH 6 7
BRANCH 6 19
ATOM     19  N   ARG X 128      -3.198  12.611  -8.557  1.00 22.62 LIG-0.35  N 
ATOM     20 H    ARG X 128      -3.711  13.209  -8.903  1.00 22.62 LIG 0.16  HD
ATOM     21  C   ALA X 127      -3.473  11.968  -7.430  1.00 23.78 LIG 0.24  C 
ATOM     22 O    ALA X 127      -2.765  11.071  -6.979  1.00 22.39 LIG-0.27  OA
BRANCH 21 23
ATOM     23  CA  ALA X 127      -4.820  12.308  -6.772  1.00 25.08 LIG 0.17  C 
ATOM     24  CB  ALA X 127      -4.869  13.745  -6.268  1.00 24.37 LIG 0.04  C 
BRANCH 23 25
ATOM     25  N   ALA X 127      -5.044  11.338  -5.707  1.00 27.78 LIG-0.35  N 
ATOM     26  C   LEU X 126      -6.305  11.197  -5.300  1.00 33.19 LIG 0.26  C 
ATOM     27 O    LEU X 126      -7.282  11.795  -5.850  1.00 34.96 LIG-0.27  OA
ATOM     28 H    ALA X 127      -4.355  10.918  -5.408  1.00 27.78 LIG 0.16  HD
BRANCH 26 29
ATOM     29  CA  LEU X 126      -6.542  10.289  -4.130  1.00 34.21 LIG 0.40  C 
ATOM     30  N   LEU X 126      -7.545  10.849  -3.201  1.00 36.42 LIG 0.61  N 
BRANCH 29 31
ATOM     31  CB  LEU X 126      -6.997   8.921  -4.682  1.00 35.53 LIG 0.06  C 
BRANCH 31 32
ATOM     32  CG  LEU X 126      -6.755   8.698  -6.180  1.00 35.00 LIG-0.02  C 
ATOM     33  CD2 LEU X 126      -8.117   8.601  -6.915  1.00 38.18 LIG 0.01  C 
ATOM     34  CD1 LEU X 126      -5.954   7.460  -6.426  1.00 36.44 LIG 0.01  C 
ENDBRANCH 31 32
ENDBRANCH 29 31
ENDBRANCH 26 29
ENDBRANCH 23 25
ENDBRANCH 21 23
ENDBRANCH 6 19
ENDBRANCH 3 6
ENDBRANCH 1 2
BRANCH 1 35
ATOM     35  C   ARG X 129       2.622  11.771  -8.561  1.00 22.72 LIG 0.24  C 
ATOM     36  N   LEU X 130       3.721  12.540  -8.469  1.00 24.32 LIG-0.35  N 
ATOM     37 H    LEU X 130       3.789  13.247  -7.984  1.00 24.32 LIG 0.16  HD
ATOM     38 O    ARG X 129       2.554  10.855  -9.380  1.00 21.19 LIG-0.27  OA
BRANCH 36 39
ATOM     39  CA  LEU X 130       4.934  12.182  -9.245  1.00 26.11 LIG 0.18  C 
BRANCH 39 40
ATOM     40  C   LEU X 130       6.200  12.520  -8.492  1.00 29.66 LIG 0.24  C 
ATOM     41 O    LEU X 130       6.233  13.522  -7.760  1.00 28.98 LIG-0.27  OA
ATOM     42  N   ARG X 131       7.249  11.728  -8.692  1.00 30.67 LIG-0.34  N 
ATOM     43 H    ARG X 131       7.221  10.992  -9.136  1.00 30.67 LIG 0.16  HD
BRANCH 42 44
ATOM     44  CA  ARG X 131       8.552  12.062  -8.158  1.00 33.89 LIG 0.18  C 
BRANCH 44 45
ATOM     45  C   ARG X 131       9.680  11.676  -9.117  1.00 35.66 LIG 0.20  C 
ATOM     46 OXT  ARG X 131      10.862  12.038  -8.927  1.00 35.07 LIG-0.65  OA
ATOM     47 O    ARG X 131       9.448  10.992 -10.158  1.00 37.10 LIG-0.65  OA
ENDBRANCH 44 45
BRANCH 44 48
ATOM     48  CB  ARG X 131       8.746  11.357  -6.811  1.00 35.20 LIG 0.04  C 
BRANCH 48 49
ATOM     49  CG  ARG X 131       7.468  10.693  -6.268  1.00 40.01 LIG 0.02  C 
BRANCH 49 50
ATOM     50  CD  ARG X 131       6.898  11.366  -4.991  1.00 47.84 LIG 0.14  C 
BRANCH 50 51
ATOM     51  NE  ARG X 131       5.921  12.398  -5.340  1.00 52.72 LIG-0.23  N 
ATOM     52  CZ  ARG X 131       5.364  13.254  -4.479  1.00 57.07 LIG 0.67  C 
ATOM     53  NH1 ARG X 131       5.699  13.242  -3.178  1.00 58.64 LIG-0.23  N 
ATOM     54  NH2 ARG X 131       4.469  14.138  -4.926  1.00 59.02 LIG-0.23  N 
ATOM     55 2HH1 ARG X 131       5.333  13.798  -2.634  1.00 58.64 LIG 0.17  HD
ATOM     56 1HH1 ARG X 131       6.281  12.678  -2.889  1.00 58.64 LIG 0.17  HD
ATOM     57 2HH2 ARG X 131       4.104  14.694  -4.381  1.00 59.02 LIG 0.17  HD
ATOM     58 1HH2 ARG X 131       4.258  14.152  -5.760  1.00 59.02 LIG 0.17  HD
ATOM     59 HE   ARG X 131       5.686  12.458  -6.165  1.00 52.72 LIG 0.18  HD
ENDBRANCH 50 51
ENDBRANCH 49 50
ENDBRANCH 48 49
ENDBRANCH 44 48
ENDBRANCH 42 44
ENDBRANCH 39 40
BRANCH 39 60
ATOM     60  CB  LEU X 130       5.014  12.891 -10.600  1.00 27.29 LIG 0.04  C 
BRANCH 60 61
ATOM     61  CG  LEU X 130       5.899  14.112 -10.790  1.00 26.34 LIG-0.02  C 
ATOM     62  CD1 LEU X 130       7.323  13.752 -11.328  1.00 29.54 LIG 0.01  C 
ATOM     63  CD2 LEU X 130       5.214  15.040 -11.740  1.00 21.56 LIG 0.01  C 
ENDBRANCH 60 61
ENDBRANCH 39 60
ENDBRANCH 36 39
ENDBRANCH 1 35
BRANCH 1 64
ATOM     64  CB  ARG X 129       1.372  10.896  -6.544  1.00 24.17 LIG 0.04  C 
BRANCH 64 65
ATOM     65  CG  ARG X 129       0.125  10.709  -5.799  1.00 28.32 LIG 0.02  C 
BRANCH 65 66
ATOM     66  CD  ARG X 129      -0.344  11.934  -5.035  1.00 31.43 LIG 0.14  C 
BRANCH 66 67
ATOM     67  NE  ARG X 129      -1.326  11.691  -3.969  1.00 29.42 LIG-0.23  N 
ATOM     68  CZ  ARG X 129      -2.372  12.464  -3.699  1.00 30.66 LIG 0.67  C 
ATOM     69  NH1 ARG X 129      -2.561  13.617  -4.337  1.00 33.32 LIG-0.23  N 
ATOM     70  NH2 ARG X 129      -3.229  12.097  -2.739  1.00 29.67 LIG-0.23  N 
ATOM     71 2HH1 ARG X 129      -3.243  14.105  -4.150  1.00 33.32 LIG 0.17  HD
ATOM     72 1HH1 ARG X 129      -2.001  13.873  -4.937  1.00 33.32 LIG 0.17  HD
ATOM     73 2HH2 ARG X 129      -3.908  12.592  -2.557  1.00 29.67 LIG 0.17  HD
ATOM     74 1HH2 ARG X 129      -3.100  11.367  -2.303  1.00 29.67 LIG 0.17  HD
ATOM     75 HE   ARG X 129      -1.216  10.991  -3.481  1.00 29.42 LIG 0.18  HD
ENDBRANCH 66 67
ENDBRANCH 65 66
ENDBRANCH 64 65
ENDBRANCH 1 64
TORSDOF 27
ENDMDL
MODEL 28
USER: ADFR SOLUTION from run 54
USER: SCORE 29.271587 LL:  -4.712 LR: -25.536 RR:   0.000 FEB: -17.482
USER: RMSD 11.766512
USER: SEED 53
USER: STATUS no improvement in best in 21 clusters for 5 generations
USER: GENES 29
USER: genes 0 Translation |==|  0.44691 0.40647 0.47525
USER: genes 1 Rotation |==|  0.47546 0.31997 0.96576 0.50725
USER: genes 2 Torsion [C]-CA--N-[C] |==|  0.64572
USER: genes 3 Torsion [N]-C--CA-[N] |==|  0.80044
USER: genes 4 Torsion [C]-CA--CB-[CG] |==|  0.38476
USER: genes 5 Torsion [CA]-CB--CG-[CD] |==|  0.15025
USER: genes 6 Torsion [CB]-CG--CD-[NE] |==|  0.65448
USER: genes 7 Torsion [CG]-CD--NE-[HE] |==|  0.59277
USER: genes 8 Torsion [C]-CA--N-[C] |==|  0.65951
USER: genes 9 Torsion [N]-C--CA-[N] |==|  0.36747
USER: genes 10 Torsion [C]-CA--N-[C] |==|  0.80724
USER: genes 11 Torsion [N]-C--CA-[N] |==|  0.69702
USER: genes 12 Torsion [C]-CA--CB-[CG] |==|  0.28765
USER: genes 13 Torsion [CA]-CB--CG-[CD2] |==|  0.21409
USER: genes 14 Torsion [N]-CA--C-[N] |==|  0.36315
USER: genes 15 Torsion [C]-N--CA-[C] |==|  0.56833
USER: genes 16 Torsion [N]-CA--C-[N] |==|  0.47972
USER: genes 17 Torsion [C]-N--CA-[C] |==|  0.80724
USER: genes 18 Torsion [N]-CA--C-[O] |==|  0.43229
USER: genes 19 Torsion [N]-CA--CB-[CG] |==|  0.12538
USER: genes 20 Torsion [CA]-CB--CG-[CD] |==|  0.17754
USER: genes 21 Torsion [CB]-CG--CD-[NE] |==|  0.52881
USER: genes 22 Torsion [CG]-CD--NE-[CZ] |==|  0.29862
USER: genes 23 Torsion [N]-CA--CB-[CG] |==|  0.07290
USER: genes 24 Torsion [CA]-CB--CG-[CD1] |==|  0.29830
USER: genes 25 Torsion [N]-CA--CB-[CG] |==|  0.68208
USER: genes 26 Torsion [CA]-CB--CG-[CD] |==|  0.27861
USER: genes 27 Torsion [CB]-CG--CD-[NE] |==|  0.52193
USER: genes 28 Torsion [CG]-CD--NE-[HE] |==|  0.02848
ROOT
ATOM      1  CA  ARG X 129       0.923  12.074  -7.733  1.00 23.09 LIG 0.18  C 
ENDROOT
BRANCH 1 2
ATOM      2  N   ARG X 129      -0.277  12.003  -8.557  1.00 20.82 LIG-0.35  N 
ATOM      3  C   ARG X 128      -1.158  12.994  -8.707  1.00 20.67 LIG 0.24  C 
ATOM      4 O    ARG X 128      -1.081  14.108  -8.129  1.00 18.99 LIG-0.27  OA
ATOM      5 H    ARG X 129      -0.369  11.244  -8.949  1.00 20.82 LIG 0.16  HD
BRANCH 3 6
ATOM      6  CA  ARG X 128      -2.310  12.704  -9.667  1.00 21.45 LIG 0.18  C 
BRANCH 6 7
ATOM      7  CB  ARG X 128      -2.926  11.347  -9.379  1.00 22.98 LIG 0.04  C 
BRANCH 7 8
ATOM      8  CG  ARG X 128      -4.464  11.414  -9.468  1.00 26.06 LIG 0.02  C 
BRANCH 8 9
ATOM      9  CD  ARG X 128      -5.076  11.993 -10.816  1.00 28.46 LIG 0.14  C 
BRANCH 9 10
ATOM     10  NE  ARG X 128      -6.001  13.117 -10.856  1.00 34.87 LIG-0.23  N 
ATOM     11 HE   ARG X 128      -6.601  13.105 -11.472  1.00 34.87 LIG 0.18  HD
ATOM     12  CZ  ARG X 128      -6.006  14.168 -10.026  1.00 35.06 LIG 0.67  C 
ATOM     13  NH1 ARG X 128      -5.097  14.327  -9.082  1.00 38.28 LIG-0.23  N 
ATOM     14  NH2 ARG X 128      -6.916  15.088 -10.176  1.00 41.06 LIG-0.23  N 
ATOM     15 1HH1 ARG X 128      -4.473  13.744  -8.983  1.00 38.28 LIG 0.17  HD
ATOM     16 2HH1 ARG X 128      -5.129  15.014  -8.565  1.00 38.28 LIG 0.17  HD
ATOM     17 1HH2 ARG X 128      -7.502  15.016 -10.801  1.00 41.06 LIG 0.17  HD
ATOM     18 2HH2 ARG X 128      -6.931  15.769  -9.650  1.00 41.06 LIG 0.17  HD
ENDBRANCH 9 10
ENDBRANCH 8 9
ENDBRANCH 7 8
ENDBRANCH 6 7
BRANCH 6 19
ATOM     19  N   ARG X 128      -1.855  12.691 -11.031  1.00 22.62 LIG-0.35  N 
ATOM     20 H    ARG X 128      -1.227  12.124 -11.187  1.00 22.62 LIG 0.16  HD
ATOM     21  C   ALA X 127      -2.370  13.491 -11.955  1.00 23.78 LIG 0.24  C 
ATOM     22 O    ALA X 127      -3.310  14.251 -11.736  1.00 22.39 LIG-0.27  OA
BRANCH 21 23
ATOM     23  CA  ALA X 127      -1.816  13.320 -13.380  1.00 25.08 LIG 0.17  C 
ATOM     24  CB  ALA X 127      -0.841  14.427 -13.756  1.00 24.37 LIG 0.04  C 
BRANCH 23 25
ATOM     25  N   ALA X 127      -2.956  13.251 -14.286  1.00 27.78 LIG-0.35  N 
ATOM     26  C   LEU X 126      -3.706  12.153 -14.200  1.00 33.19 LIG 0.26  C 
ATOM     27 O    LEU X 126      -3.512  11.247 -13.331  1.00 34.96 LIG-0.27  OA
ATOM     28 H    ALA X 127      -3.076  13.917 -14.817  1.00 27.78 LIG 0.16  HD
BRANCH 26 29
ATOM     29  CA  LEU X 126      -4.815  12.009 -15.201  1.00 34.21 LIG 0.40  C 
ATOM     30  N   LEU X 126      -6.140  12.179 -14.571  1.00 36.42 LIG 0.61  N 
BRANCH 29 31
ATOM     31  CB  LEU X 126      -4.585  13.058 -16.309  1.00 35.53 LIG 0.06  C 
BRANCH 31 32
ATOM     32  CG  LEU X 126      -4.017  12.515 -17.627  1.00 35.00 LIG-0.02  C 
ATOM     33  CD2 LEU X 126      -5.144  11.812 -18.426  1.00 38.18 LIG 0.01  C 
ATOM     34  CD1 LEU X 126      -2.893  11.561 -17.384  1.00 36.44 LIG 0.01  C 
ENDBRANCH 31 32
ENDBRANCH 29 31
ENDBRANCH 26 29
ENDBRANCH 23 25
ENDBRANCH 21 23
ENDBRANCH 6 19
ENDBRANCH 3 6
ENDBRANCH 1 2
BRANCH 1 35
ATOM     35  C   ARG X 129       2.201  11.670  -8.517  1.00 22.72 LIG 0.24  C 
ATOM     36  N   LEU X 130       3.299  12.445  -8.487  1.00 24.32 LIG-0.35  N 
ATOM     37 H    LEU X 130       3.338  13.231  -8.140  1.00 24.32 LIG 0.16  HD
ATOM     38 O    ARG X 129       2.184  10.615  -9.151  1.00 21.19 LIG-0.27  OA
BRANCH 36 39
ATOM     39  CA  LEU X 130       4.563  11.950  -9.086  1.00 26.11 LIG 0.18  C 
BRANCH 39 40
ATOM     40  C   LEU X 130       5.771  12.618  -8.473  1.00 29.66 LIG 0.24  C 
ATOM     41 O    LEU X 130       5.621  13.585  -7.711  1.00 28.98 LIG-0.27  OA
ATOM     42  N   ARG X 131       6.964  12.146  -8.825  1.00 30.67 LIG-0.34  N 
ATOM     43 H    ARG X 131       7.083  11.433  -9.292  1.00 30.67 LIG 0.16  HD
BRANCH 42 44
ATOM     44  CA  ARG X 131       8.183  12.822  -8.434  1.00 33.89 LIG 0.18  C 
BRANCH 44 45
ATOM     45  C   ARG X 131       8.352  14.160  -9.156  1.00 35.66 LIG 0.20  C 
ATOM     46 OXT  ARG X 131       7.826  14.382 -10.269  1.00 35.07 LIG-0.65  OA
ATOM     47 O    ARG X 131       9.057  15.087  -8.659  1.00 37.10 LIG-0.65  OA
ENDBRANCH 44 45
BRANCH 44 48
ATOM     48  CB  ARG X 131       9.383  11.914  -8.723  1.00 35.20 LIG 0.04  C 
BRANCH 48 49
ATOM     49  CG  ARG X 131       9.333  11.239 -10.106  1.00 40.01 LIG 0.02  C 
BRANCH 49 50
ATOM     50  CD  ARG X 131       9.395  12.232 -11.297  1.00 47.84 LIG 0.14  C 
BRANCH 50 51
ATOM     51  NE  ARG X 131       9.097  11.551 -12.558  1.00 52.72 LIG-0.23  N 
ATOM     52  CZ  ARG X 131       7.970  11.687 -13.259  1.00 57.07 LIG 0.67  C 
ATOM     53  NH1 ARG X 131       6.997  12.518 -12.850  1.00 58.64 LIG-0.23  N 
ATOM     54  NH2 ARG X 131       7.817  10.992 -14.390  1.00 59.02 LIG-0.23  N 
ATOM     55 2HH1 ARG X 131       6.275  12.596 -13.311  1.00 58.64 LIG 0.17  HD
ATOM     56 1HH1 ARG X 131       7.095  12.972 -12.126  1.00 58.64 LIG 0.17  HD
ATOM     57 2HH2 ARG X 131       7.095  11.071 -14.850  1.00 59.02 LIG 0.17  HD
ATOM     58 1HH2 ARG X 131       8.442  10.465 -14.657  1.00 59.02 LIG 0.17  HD
ATOM     59 HE   ARG X 131       9.697  11.021 -12.872  1.00 52.72 LIG 0.18  HD
ENDBRANCH 50 51
ENDBRANCH 49 50
ENDBRANCH 48 49
ENDBRANCH 44 48
ENDBRANCH 42 44
ENDBRANCH 39 40
BRANCH 39 60
ATOM     60  CB  LEU X 130       4.643  12.175 -10.598  1.00 27.29 LIG 0.04  C 
BRANCH 60 61
ATOM     61  CG  LEU X 130       3.868  13.304 -11.260  1.00 26.34 LIG-0.02  C 
ATOM     62  CD1 LEU X 130       4.788  14.480 -11.726  1.00 29.54 LIG 0.01  C 
ATOM     63  CD2 LEU X 130       3.130  12.738 -12.430  1.00 21.56 LIG 0.01  C 
ENDBRANCH 60 61
ENDBRANCH 39 60
ENDBRANCH 36 39
ENDBRANCH 1 35
BRANCH 1 64
ATOM     64  CB  ARG X 129       0.635  11.021  -6.639  1.00 24.17 LIG 0.04  C 
BRANCH 64 65
ATOM     65  CG  ARG X 129       0.475  11.493  -5.262  1.00 28.32 LIG 0.02  C 
BRANCH 65 66
ATOM     66  CD  ARG X 129      -0.965  11.614  -4.799  1.00 31.43 LIG 0.14  C 
BRANCH 66 67
ATOM     67  NE  ARG X 129      -1.169  12.253  -3.491  1.00 29.42 LIG-0.23  N 
ATOM     68  CZ  ARG X 129      -2.317  12.283  -2.823  1.00 30.66 LIG 0.67  C 
ATOM     69  NH1 ARG X 129      -3.437  11.801  -3.355  1.00 33.32 LIG-0.23  N 
ATOM     70  NH2 ARG X 129      -2.355  12.844  -1.608  1.00 29.67 LIG-0.23  N 
ATOM     71 2HH1 ARG X 129      -4.172  11.829  -2.909  1.00 33.32 LIG 0.17  HD
ATOM     72 1HH1 ARG X 129      -3.427  11.463  -4.145  1.00 33.32 LIG 0.17  HD
ATOM     73 2HH2 ARG X 129      -3.094  12.869  -1.169  1.00 29.67 LIG 0.17  HD
ATOM     74 1HH2 ARG X 129      -1.641  13.181  -1.267  1.00 29.67 LIG 0.17  HD
ATOM     75 HE   ARG X 129      -0.491  12.638  -3.128  1.00 29.42 LIG 0.18  HD
ENDBRANCH 66 67
ENDBRANCH 65 66
ENDBRANCH 64 65
ENDBRANCH 1 64
TORSDOF 27
ENDMDL
MODEL 29
USER: ADFR SOLUTION from run 137
USER: SCORE 28.000557 LL:  -3.536 LR: -25.532 RR:   0.000 FEB: -17.478
USER: RMSD 3.474743
USER: SEED 136
USER: STATUS no improvement in best in 9 clusters for 5 generations
USER: GENES 29
USER: genes 0 Translation |==|  0.45537 0.39500 0.51884
USER: genes 1 Rotation |==|  0.34300 0.47986 0.57104 0.96893
USER: genes 2 Torsion [C]-CA--N-[C] |==|  0.78986
USER: genes 3 Torsion [N]-C--CA-[N] |==|  0.32710
USER: genes 4 Torsion [C]-CA--CB-[CG] |==|  0.72151
USER: genes 5 Torsion [CA]-CB--CG-[CD] |==|  0.71166
USER: genes 6 Torsion [CB]-CG--CD-[NE] |==|  0.52474
USER: genes 7 Torsion [CG]-CD--NE-[HE] |==|  0.17479
USER: genes 8 Torsion [C]-CA--N-[C] |==|  0.69293
USER: genes 9 Torsion [N]-C--CA-[N] |==|  0.46097
USER: genes 10 Torsion [C]-CA--N-[C] |==|  0.78762
USER: genes 11 Torsion [N]-C--CA-[N] |==|  0.28442
USER: genes 12 Torsion [C]-CA--CB-[CG] |==|  0.69449
USER: genes 13 Torsion [CA]-CB--CG-[CD2] |==|  0.57575
USER: genes 14 Torsion [N]-CA--C-[N] |==|  0.31119
USER: genes 15 Torsion [C]-N--CA-[C] |==|  0.56702
USER: genes 16 Torsion [N]-CA--C-[N] |==|  0.25033
USER: genes 17 Torsion [C]-N--CA-[C] |==|  0.89941
USER: genes 18 Torsion [N]-CA--C-[O] |==|  0.37710
USER: genes 19 Torsion [N]-CA--CB-[CG] |==|  0.20439
USER: genes 20 Torsion [CA]-CB--CG-[CD] |==|  0.75578
USER: genes 21 Torsion [CB]-CG--CD-[NE] |==|  0.96652
USER: genes 22 Torsion [CG]-CD--NE-[CZ] |==|  0.66507
USER: genes 23 Torsion [N]-CA--CB-[CG] |==|  0.61264
USER: genes 24 Torsion [CA]-CB--CG-[CD1] |==|  0.03982
USER: genes 25 Torsion [N]-CA--CB-[CG] |==|  0.65417
USER: genes 26 Torsion [CA]-CB--CG-[CD] |==|  0.25237
USER: genes 27 Torsion [CB]-CG--CD-[NE] |==|  0.95805
USER: genes 28 Torsion [CG]-CD--NE-[HE] |==|  0.92956
ROOT
ATOM      1  CA  ARG X 129       1.158  11.885  -6.752  1.00 23.09 LIG 0.18  C 
ENDROOT
BRANCH 1 2
ATOM      2  N   ARG X 129       2.287  12.453  -7.477  1.00 20.82 LIG-0.35  N 
ATOM      3  C   ARG X 128       2.948  11.841  -8.460  1.00 20.67 LIG 0.24  C 
ATOM      4 O    ARG X 128       2.700  10.677  -8.867  1.00 18.99 LIG-0.27  OA
ATOM      5 H    ARG X 129       2.495  13.242  -7.205  1.00 20.82 LIG 0.16  HD
BRANCH 3 6
ATOM      6  CA  ARG X 128       4.064  12.659  -9.107  1.00 21.45 LIG 0.18  C 
BRANCH 6 7
ATOM      7  CB  ARG X 128       3.837  12.796 -10.602  1.00 22.98 LIG 0.04  C 
BRANCH 7 8
ATOM      8  CG  ARG X 128       4.713  11.796 -11.382  1.00 26.06 LIG 0.02  C 
BRANCH 8 9
ATOM      9  CD  ARG X 128       6.001  12.386 -12.103  1.00 28.46 LIG 0.14  C 
BRANCH 9 10
ATOM     10  NE  ARG X 128       6.823  11.619 -13.027  1.00 34.87 LIG-0.23  N 
ATOM     11 HE   ARG X 128       6.445  11.349 -13.752  1.00 34.87 LIG 0.18  HD
ATOM     12  CZ  ARG X 128       8.111  11.292 -12.859  1.00 35.06 LIG 0.67  C 
ATOM     13  NH1 ARG X 128       8.779  11.598 -11.762  1.00 38.28 LIG-0.23  N 
ATOM     14  NH2 ARG X 128       8.720  10.617 -13.791  1.00 41.06 LIG-0.23  N 
ATOM     15 1HH1 ARG X 128       8.388  12.021 -11.124  1.00 38.28 LIG 0.17  HD
ATOM     16 2HH1 ARG X 128       9.606  11.373 -11.685  1.00 38.28 LIG 0.17  HD
ATOM     17 1HH2 ARG X 128       8.296  10.387 -14.503  1.00 41.06 LIG 0.17  HD
ATOM     18 2HH2 ARG X 128       9.547  10.401 -13.696  1.00 41.06 LIG 0.17  HD
ENDBRANCH 9 10
ENDBRANCH 8 9
ENDBRANCH 7 8
ENDBRANCH 6 7
BRANCH 6 19
ATOM     19  N   ARG X 128       5.342  12.028  -8.920  1.00 22.62 LIG-0.35  N 
ATOM     20 H    ARG X 128       5.442  11.297  -9.364  1.00 22.62 LIG 0.16  HD
ATOM     21  C   ALA X 127       6.275  12.542  -8.129  1.00 23.78 LIG 0.24  C 
ATOM     22 O    ALA X 127       6.146  13.618  -7.551  1.00 22.39 LIG-0.27  OA
BRANCH 21 23
ATOM     23  CA  ALA X 127       7.609  11.779  -8.076  1.00 25.08 LIG 0.17  C 
ATOM     24  CB  ALA X 127       7.480  10.441  -7.360  1.00 24.37 LIG 0.04  C 
BRANCH 23 25
ATOM     25  N   ALA X 127       8.589  12.655  -7.446  1.00 27.78 LIG-0.35  N 
ATOM     26  C   LEU X 126       9.072  13.635  -8.209  1.00 33.19 LIG 0.26  C 
ATOM     27 O    LEU X 126       8.657  13.866  -9.387  1.00 34.96 LIG-0.27  OA
ATOM     28 H    ALA X 127       8.794  12.489  -6.627  1.00 27.78 LIG 0.16  HD
BRANCH 26 29
ATOM     29  CA  LEU X 126      10.165  14.478  -7.618  1.00 34.21 LIG 0.40  C 
ATOM     30  N   LEU X 126      11.490  14.101  -8.150  1.00 36.42 LIG 0.61  N 
BRANCH 29 31
ATOM     31  CB  LEU X 126       9.838  15.954  -7.928  1.00 35.53 LIG 0.06  C 
BRANCH 31 32
ATOM     32  CG  LEU X 126      10.759  16.636  -8.948  1.00 35.00 LIG-0.02  C 
ATOM     33  CD2 LEU X 126      10.798  18.161  -8.672  1.00 38.18 LIG 0.01  C 
ATOM     34  CD1 LEU X 126      10.305  16.383 -10.349  1.00 36.44 LIG 0.01  C 
ENDBRANCH 31 32
ENDBRANCH 29 31
ENDBRANCH 26 29
ENDBRANCH 23 25
ENDBRANCH 21 23
ENDBRANCH 6 19
ENDBRANCH 3 6
ENDBRANCH 1 2
BRANCH 1 35
ATOM     35  C   ARG X 129      -0.151  11.910  -7.587  1.00 22.72 LIG 0.24  C 
ATOM     36  N   LEU X 130      -0.710  10.768  -8.023  1.00 24.32 LIG-0.35  N 
ATOM     37 H    LEU X 130      -0.349   9.990  -7.969  1.00 24.32 LIG 0.16  HD
ATOM     38 O    ARG X 129      -0.668  13.002  -7.822  1.00 21.19 LIG-0.27  OA
BRANCH 36 39
ATOM     39  CA  LEU X 130      -2.053  10.803  -8.654  1.00 26.11 LIG 0.18  C 
BRANCH 39 40
ATOM     40  C   LEU X 130      -2.756   9.470  -8.547  1.00 29.66 LIG 0.24  C 
ATOM     41 O    LEU X 130      -2.640   8.637  -9.459  1.00 28.98 LIG-0.27  OA
ATOM     42  N   ARG X 131      -3.515   9.274  -7.472  1.00 30.67 LIG-0.34  N 
ATOM     43 H    ARG X 131      -3.548   9.809  -6.800  1.00 30.67 LIG 0.16  HD
BRANCH 42 44
ATOM     44  CA  ARG X 131      -4.365   8.108  -7.358  1.00 33.89 LIG 0.18  C 
BRANCH 44 45
ATOM     45  C   ARG X 131      -4.971   7.707  -8.704  1.00 35.66 LIG 0.20  C 
ATOM     46 OXT  ARG X 131      -5.476   8.549  -9.479  1.00 35.07 LIG-0.65  OA
ATOM     47 O    ARG X 131      -5.002   6.495  -9.072  1.00 37.10 LIG-0.65  OA
ENDBRANCH 44 45
BRANCH 44 48
ATOM     48  CB  ARG X 131      -5.480   8.388  -6.344  1.00 35.20 LIG 0.04  C 
BRANCH 48 49
ATOM     49  CG  ARG X 131      -6.570   9.342  -6.868  1.00 40.01 LIG 0.02  C 
BRANCH 49 50
ATOM     50  CD  ARG X 131      -6.263  10.845  -6.632  1.00 47.84 LIG 0.14  C 
BRANCH 50 51
ATOM     51  NE  ARG X 131      -5.138  11.007  -5.711  1.00 52.72 LIG-0.23  N 
ATOM     52  CZ  ARG X 131      -5.186  11.651  -4.542  1.00 57.07 LIG 0.67  C 
ATOM     53  NH1 ARG X 131      -6.331  12.196  -4.100  1.00 58.64 LIG-0.23  N 
ATOM     54  NH2 ARG X 131      -4.078  11.742  -3.802  1.00 59.02 LIG-0.23  N 
ATOM     55 2HH1 ARG X 131      -6.349  12.608  -3.345  1.00 58.64 LIG 0.17  HD
ATOM     56 1HH1 ARG X 131      -7.048  12.132  -4.571  1.00 58.64 LIG 0.17  HD
ATOM     57 2HH2 ARG X 131      -4.097  12.155  -3.047  1.00 59.02 LIG 0.17  HD
ATOM     58 1HH2 ARG X 131      -3.345  11.388  -4.080  1.00 59.02 LIG 0.17  HD
ATOM     59 HE   ARG X 131      -4.386  10.660  -5.940  1.00 52.72 LIG 0.18  HD
ENDBRANCH 50 51
ENDBRANCH 49 50
ENDBRANCH 48 49
ENDBRANCH 44 48
ENDBRANCH 42 44
ENDBRANCH 39 40
BRANCH 39 60
ATOM     60  CB  LEU X 130      -2.013  11.172 -10.139  1.00 27.29 LIG 0.04  C 
BRANCH 60 61
ATOM     61  CG  LEU X 130      -3.054  12.104 -10.739  1.00 26.34 LIG-0.02  C 
ATOM     62  CD1 LEU X 130      -3.876  12.874  -9.655  1.00 29.54 LIG 0.01  C 
ATOM     63  CD2 LEU X 130      -2.350  13.074 -11.632  1.00 21.56 LIG 0.01  C 
ENDBRANCH 60 61
ENDBRANCH 39 60
ENDBRANCH 36 39
ENDBRANCH 1 35
BRANCH 1 64
ATOM     64  CB  ARG X 129       1.020  12.843  -5.548  1.00 24.17 LIG 0.04  C 
BRANCH 64 65
ATOM     65  CG  ARG X 129       1.061  12.263  -4.204  1.00 28.32 LIG 0.02  C 
BRANCH 65 66
ATOM     66  CD  ARG X 129       2.446  12.193  -3.589  1.00 31.43 LIG 0.14  C 
BRANCH 66 67
ATOM     67  NE  ARG X 129       3.573  12.379  -4.515  1.00 29.42 LIG-0.23  N 
ATOM     68  CZ  ARG X 129       4.778  12.823  -4.177  1.00 30.66 LIG 0.67  C 
ATOM     69  NH1 ARG X 129       5.038  13.242  -2.941  1.00 33.32 LIG-0.23  N 
ATOM     70  NH2 ARG X 129       5.738  12.888  -5.107  1.00 29.67 LIG-0.23  N 
ATOM     71 2HH1 ARG X 129       5.824  13.526  -2.739  1.00 33.32 LIG 0.17  HD
ATOM     72 1HH1 ARG X 129       4.419  13.229  -2.344  1.00 33.32 LIG 0.17  HD
ATOM     73 2HH2 ARG X 129       6.521  13.174  -4.897  1.00 29.67 LIG 0.17  HD
ATOM     74 1HH2 ARG X 129       5.572  12.643  -5.915  1.00 29.67 LIG 0.17  HD
ATOM     75 HE   ARG X 129       3.441  12.185  -5.342  1.00 29.42 LIG 0.18  HD
ENDBRANCH 66 67
ENDBRANCH 65 66
ENDBRANCH 64 65
ENDBRANCH 1 64
TORSDOF 27
ENDMDL
MODEL 30
USER: ADFR SOLUTION from run 144
USER: SCORE 29.623404 LL:  -4.512 LR: -25.507 RR:   0.000 FEB: -17.453
USER: RMSD 10.454038
USER: SEED 143
USER: STATUS no improvement in best in 12 clusters for 5 generations
USER: GENES 29
USER: genes 0 Translation |==|  0.46197 0.38180 0.49068
USER: genes 1 Rotation |==|  0.50249 0.71033 0.04705 0.52442
USER: genes 2 Torsion [C]-CA--N-[C] |==|  0.70235
USER: genes 3 Torsion [N]-C--CA-[N] |==|  0.92637
USER: genes 4 Torsion [C]-CA--CB-[CG] |==|  0.11745
USER: genes 5 Torsion [CA]-CB--CG-[CD] |==|  0.48831
USER: genes 6 Torsion [CB]-CG--CD-[NE] |==|  0.18763
USER: genes 7 Torsion [CG]-CD--NE-[HE] |==|  0.91674
USER: genes 8 Torsion [C]-CA--N-[C] |==|  0.80523
USER: genes 9 Torsion [N]-C--CA-[N] |==|  0.43382
USER: genes 10 Torsion [C]-CA--N-[C] |==|  0.77611
USER: genes 11 Torsion [N]-C--CA-[N] |==|  0.37359
USER: genes 12 Torsion [C]-CA--CB-[CG] |==|  0.14554
USER: genes 13 Torsion [CA]-CB--CG-[CD2] |==|  0.60946
USER: genes 14 Torsion [N]-CA--C-[N] |==|  0.36636
USER: genes 15 Torsion [C]-N--CA-[C] |==|  0.65721
USER: genes 16 Torsion [N]-CA--C-[N] |==|  0.36418
USER: genes 17 Torsion [C]-N--CA-[C] |==|  0.69036
USER: genes 18 Torsion [N]-CA--C-[O] |==|  0.99913
USER: genes 19 Torsion [N]-CA--CB-[CG] |==|  0.64528
USER: genes 20 Torsion [CA]-CB--CG-[CD] |==|  0.24786
USER: genes 21 Torsion [CB]-CG--CD-[NE] |==|  0.71767
USER: genes 22 Torsion [CG]-CD--NE-[CZ] |==|  0.64091
USER: genes 23 Torsion [N]-CA--CB-[CG] |==|  0.86349
USER: genes 24 Torsion [CA]-CB--CG-[CD1] |==|  0.53442
USER: genes 25 Torsion [N]-CA--CB-[CG] |==|  0.65679
USER: genes 26 Torsion [CA]-CB--CG-[CD] |==|  0.01802
USER: genes 27 Torsion [CB]-CG--CD-[NE] |==|  0.82286
USER: genes 28 Torsion [CG]-CD--NE-[HE] |==|  0.21897
ROOT
ATOM      1  CA  ARG X 129       1.341  11.667  -7.386  1.00 23.09 LIG 0.18  C 
ENDROOT
BRANCH 1 2
ATOM      2  N   ARG X 129       0.132  11.512  -8.185  1.00 20.82 LIG-0.35  N 
ATOM      3  C   ARG X 128      -0.707  12.500  -8.497  1.00 20.67 LIG 0.24  C 
ATOM      4 O    ARG X 128      -0.578  13.691  -8.113  1.00 18.99 LIG-0.27  OA
ATOM      5 H    ARG X 129       0.005  10.702  -8.445  1.00 20.82 LIG 0.16  HD
BRANCH 3 6
ATOM      6  CA  ARG X 128      -1.879  12.105  -9.394  1.00 21.45 LIG 0.18  C 
BRANCH 6 7
ATOM      7  CB  ARG X 128      -3.095  11.735  -8.563  1.00 22.98 LIG 0.04  C 
BRANCH 7 8
ATOM      8  CG  ARG X 128      -3.278  12.721  -7.392  1.00 26.06 LIG 0.02  C 
BRANCH 8 9
ATOM      9  CD  ARG X 128      -4.572  12.525  -6.490  1.00 28.46 LIG 0.14  C 
BRANCH 9 10
ATOM     10  NE  ARG X 128      -4.776  11.372  -5.625  1.00 34.87 LIG-0.23  N 
ATOM     11 HE   ARG X 128      -4.417  10.631  -5.873  1.00 34.87 LIG 0.18  HD
ATOM     12  CZ  ARG X 128      -5.470  11.355  -4.479  1.00 35.06 LIG 0.67  C 
ATOM     13  NH1 ARG X 128      -6.115  12.415  -4.028  1.00 38.28 LIG-0.23  N 
ATOM     14  NH2 ARG X 128      -5.544  10.246  -3.801  1.00 41.06 LIG-0.23  N 
ATOM     15 1HH1 ARG X 128      -6.100  13.150  -4.474  1.00 38.28 LIG 0.17  HD
ATOM     16 2HH1 ARG X 128      -6.551  12.371  -3.288  1.00 38.28 LIG 0.17  HD
ATOM     17 1HH2 ARG X 128      -5.151   9.537  -4.090  1.00 41.06 LIG 0.17  HD
ATOM     18 2HH2 ARG X 128      -5.986  10.221  -3.063  1.00 41.06 LIG 0.17  HD
ENDBRANCH 9 10
ENDBRANCH 8 9
ENDBRANCH 7 8
ENDBRANCH 6 7
BRANCH 6 19
ATOM     19  N   ARG X 128      -1.546  10.964 -10.205  1.00 22.62 LIG-0.35  N 
ATOM     20 H    ARG X 128      -1.961  10.243  -9.985  1.00 22.62 LIG 0.16  HD
ATOM     21  C   ALA X 127      -0.674  11.037 -11.201  1.00 23.78 LIG 0.24  C 
ATOM     22 O    ALA X 127      -0.136  12.086 -11.548  1.00 22.39 LIG-0.27  OA
BRANCH 21 23
ATOM     23  CA  ALA X 127      -0.466   9.746 -12.010  1.00 25.08 LIG 0.17  C 
ATOM     24  CB  ALA X 127       0.462   8.766 -11.305  1.00 24.37 LIG 0.04  C 
BRANCH 23 25
ATOM     25  N   ALA X 127       0.028  10.130 -13.327  1.00 27.78 LIG-0.35  N 
ATOM     26  C   LEU X 126      -0.891  10.542 -14.199  1.00 33.19 LIG 0.26  C 
ATOM     27 O    LEU X 126      -2.118  10.684 -13.898  1.00 34.96 LIG-0.27  OA
ATOM     28 H    ALA X 127       0.876  10.069 -13.461  1.00 27.78 LIG 0.16  HD
BRANCH 26 29
ATOM     29  CA  LEU X 126      -0.421  10.833 -15.594  1.00 34.21 LIG 0.40  C 
ATOM     30  N   LEU X 126      -1.324  10.248 -16.605  1.00 36.42 LIG 0.61  N 
BRANCH 29 31
ATOM     31  CB  LEU X 126      -0.329  12.366 -15.748  1.00 35.53 LIG 0.06  C 
BRANCH 31 32
ATOM     32  CG  LEU X 126       0.488  13.092 -14.671  1.00 35.00 LIG-0.02  C 
ATOM     33  CD2 LEU X 126      -0.215  14.422 -14.297  1.00 38.18 LIG 0.01  C 
ATOM     34  CD1 LEU X 126       1.882  13.366 -15.136  1.00 36.44 LIG 0.01  C 
ENDBRANCH 31 32
ENDBRANCH 29 31
ENDBRANCH 26 29
ENDBRANCH 23 25
ENDBRANCH 21 23
ENDBRANCH 6 19
ENDBRANCH 3 6
ENDBRANCH 1 2
BRANCH 1 35
ATOM     35  C   ARG X 129       2.631  11.568  -8.243  1.00 22.72 LIG 0.24  C 
ATOM     36  N   LEU X 130       3.609  12.482  -8.122  1.00 24.32 LIG-0.35  N 
ATOM     37 H    LEU X 130       3.551  13.208  -7.666  1.00 24.32 LIG 0.16  HD
ATOM     38 O    ARG X 129       2.739  10.621  -9.023  1.00 21.19 LIG-0.27  OA
BRANCH 36 39
ATOM     39  CA  LEU X 130       4.906  12.265  -8.809  1.00 26.11 LIG 0.18  C 
BRANCH 39 40
ATOM     40  C   LEU X 130       6.064  12.292  -7.840  1.00 29.66 LIG 0.24  C 
ATOM     41 O    LEU X 130       6.183  13.240  -7.048  1.00 28.98 LIG-0.27  OA
ATOM     42  N   ARG X 131       6.939  11.294  -7.919  1.00 30.67 LIG-0.34  N 
ATOM     43 H    ARG X 131       6.832  10.595  -8.410  1.00 30.67 LIG 0.16  HD
BRANCH 42 44
ATOM     44  CA  ARG X 131       8.171  11.315  -7.160  1.00 33.89 LIG 0.18  C 
BRANCH 44 45
ATOM     45  C   ARG X 131       9.397  11.474  -8.061  1.00 35.66 LIG 0.20  C 
ATOM     46 OXT  ARG X 131      10.556  11.544  -7.596  1.00 35.07 LIG-0.65  OA
ATOM     47 O    ARG X 131       9.276  11.564  -9.319  1.00 37.10 LIG-0.65  OA
ENDBRANCH 44 45
BRANCH 44 48
ATOM     48  CB  ARG X 131       8.287  10.025  -6.341  1.00 35.20 LIG 0.04  C 
BRANCH 48 49
ATOM     49  CG  ARG X 131       8.557  10.262  -4.843  1.00 40.01 LIG 0.02  C 
BRANCH 49 50
ATOM     50  CD  ARG X 131       7.273  10.410  -3.984  1.00 47.84 LIG 0.14  C 
BRANCH 50 51
ATOM     51  NE  ARG X 131       7.008  11.817  -3.682  1.00 52.72 LIG-0.23  N 
ATOM     52  CZ  ARG X 131       6.768  12.311  -2.465  1.00 57.07 LIG 0.67  C 
ATOM     53  NH1 ARG X 131       6.781  11.517  -1.382  1.00 58.64 LIG-0.23  N 
ATOM     54  NH2 ARG X 131       6.524  13.617  -2.329  1.00 59.02 LIG-0.23  N 
ATOM     55 2HH1 ARG X 131       6.625  11.848  -0.604  1.00 58.64 LIG 0.17  HD
ATOM     56 1HH1 ARG X 131       6.946  10.677  -1.466  1.00 58.64 LIG 0.17  HD
ATOM     57 2HH2 ARG X 131       6.368  13.946  -1.550  1.00 59.02 LIG 0.17  HD
ATOM     58 1HH2 ARG X 131       6.522  14.128  -3.021  1.00 59.02 LIG 0.17  HD
ATOM     59 HE   ARG X 131       7.007  12.369  -4.341  1.00 52.72 LIG 0.18  HD
ENDBRANCH 50 51
ENDBRANCH 49 50
ENDBRANCH 48 49
ENDBRANCH 44 48
ENDBRANCH 42 44
ENDBRANCH 39 40
BRANCH 39 60
ATOM     60  CB  LEU X 130       5.198  13.310  -9.890  1.00 27.29 LIG 0.04  C 
BRANCH 60 61
ATOM     61  CG  LEU X 130       4.154  13.660 -10.938  1.00 26.34 LIG-0.02  C 
ATOM     62  CD1 LEU X 130       4.738  14.504 -12.118  1.00 29.54 LIG 0.01  C 
ATOM     63  CD2 LEU X 130       3.573  12.386 -11.459  1.00 21.56 LIG 0.01  C 
ENDBRANCH 60 61
ENDBRANCH 39 60
ENDBRANCH 36 39
ENDBRANCH 1 35
BRANCH 1 64
ATOM     64  CB  ARG X 129       1.263  10.456  -6.429  1.00 24.17 LIG 0.04  C 
BRANCH 64 65
ATOM     65  CG  ARG X 129       1.296  10.718  -4.989  1.00 28.32 LIG 0.02  C 
BRANCH 65 66
ATOM     66  CD  ARG X 129       1.250  12.188  -4.614  1.00 31.43 LIG 0.14  C 
BRANCH 66 67
ATOM     67  NE  ARG X 129       2.392  13.001  -5.056  1.00 29.42 LIG-0.23  N 
ATOM     68  CZ  ARG X 129       3.408  13.379  -4.289  1.00 30.66 LIG 0.67  C 
ATOM     69  NH1 ARG X 129       3.419  13.120  -2.983  1.00 33.32 LIG-0.23  N 
ATOM     70  NH2 ARG X 129       4.419  14.068  -4.830  1.00 29.67 LIG-0.23  N 
ATOM     71 2HH1 ARG X 129       4.085  13.371  -2.500  1.00 33.32 LIG 0.17  HD
ATOM     72 1HH1 ARG X 129       2.761  12.701  -2.622  1.00 33.32 LIG 0.17  HD
ATOM     73 2HH2 ARG X 129       5.080  14.317  -4.340  1.00 29.67 LIG 0.17  HD
ATOM     74 1HH2 ARG X 129       4.407  14.263  -5.668  1.00 29.67 LIG 0.17  HD
ATOM     75 HE   ARG X 129       2.403  13.253  -5.879  1.00 29.42 LIG 0.18  HD
ENDBRANCH 66 67
ENDBRANCH 65 66
ENDBRANCH 64 65
ENDBRANCH 1 64
TORSDOF 27
ENDMDL
MODEL 31
USER: ADFR SOLUTION from run 3
USER: SCORE 28.633249 LL:  -4.210 LR: -25.505 RR:   0.000 FEB: -17.451
USER: RMSD 4.476339
USER: SEED 985136
USER: STATUS 1 or 2 clusters left
USER: GENES 29
USER: genes 0 Translation |==|  0.46811 0.38529 0.51765
USER: genes 1 Rotation |==|  0.39459 0.52177 0.57399 0.98264
USER: genes 2 Torsion [C]-CA--N-[C] |==|  0.71352
USER: genes 3 Torsion [N]-C--CA-[N] |==|  0.37907
USER: genes 4 Torsion [C]-CA--CB-[CG] |==|  0.90325
USER: genes 5 Torsion [CA]-CB--CG-[CD] |==|  0.26551
USER: genes 6 Torsion [CB]-CG--CD-[NE] |==|  0.61073
USER: genes 7 Torsion [CG]-CD--NE-[HE] |==|  0.18549
USER: genes 8 Torsion [C]-CA--N-[C] |==|  0.69259
USER: genes 9 Torsion [N]-C--CA-[N] |==|  0.09487
USER: genes 10 Torsion [C]-CA--N-[C] |==|  0.17710
USER: genes 11 Torsion [N]-C--CA-[N] |==|  0.93372
USER: genes 12 Torsion [C]-CA--CB-[CG] |==|  0.29326
USER: genes 13 Torsion [CA]-CB--CG-[CD2] |==|  0.06449
USER: genes 14 Torsion [N]-CA--C-[N] |==|  0.28563
USER: genes 15 Torsion [C]-N--CA-[C] |==|  0.65657
USER: genes 16 Torsion [N]-CA--C-[N] |==|  0.52396
USER: genes 17 Torsion [C]-N--CA-[C] |==|  0.76062
USER: genes 18 Torsion [N]-CA--C-[O] |==|  0.39503
USER: genes 19 Torsion [N]-CA--CB-[CG] |==|  0.57784
USER: genes 20 Torsion [CA]-CB--CG-[CD] |==|  0.17791
USER: genes 21 Torsion [CB]-CG--CD-[NE] |==|  0.03247
USER: genes 22 Torsion [CG]-CD--NE-[CZ] |==|  0.35243
USER: genes 23 Torsion [N]-CA--CB-[CG] |==|  0.77945
USER: genes 24 Torsion [CA]-CB--CG-[CD1] |==|  0.59556
USER: genes 25 Torsion [N]-CA--CB-[CG] |==|  0.45805
USER: genes 26 Torsion [CA]-CB--CG-[CD] |==|  0.35148
USER: genes 27 Torsion [CB]-CG--CD-[NE] |==|  0.56410
USER: genes 28 Torsion [CG]-CD--NE-[HE] |==|  0.23892
ROOT
ATOM      1  CA  ARG X 129       1.511  11.724  -6.779  1.00 23.09 LIG 0.18  C 
ENDROOT
BRANCH 1 2
ATOM      2  N   ARG X 129       2.517  12.393  -7.594  1.00 20.82 LIG-0.35  N 
ATOM      3  C   ARG X 128       3.319  11.784  -8.468  1.00 20.67 LIG 0.24  C 
ATOM      4 O    ARG X 128       3.332  10.544  -8.677  1.00 18.99 LIG-0.27  OA
ATOM      5 H    ARG X 129       2.547  13.242  -7.458  1.00 20.82 LIG 0.16  HD
BRANCH 3 6
ATOM      6  CA  ARG X 128       4.256  12.703  -9.248  1.00 21.45 LIG 0.18  C 
BRANCH 6 7
ATOM      7  CB  ARG X 128       3.762  12.899 -10.670  1.00 22.98 LIG 0.04  C 
BRANCH 7 8
ATOM      8  CG  ARG X 128       3.099  11.612 -11.201  1.00 26.06 LIG 0.02  C 
BRANCH 8 9
ATOM      9  CD  ARG X 128       1.518  11.519 -11.073  1.00 28.46 LIG 0.14  C 
BRANCH 9 10
ATOM     10  NE  ARG X 128       0.816  10.298 -10.703  1.00 34.87 LIG-0.23  N 
ATOM     11 HE   ARG X 128       0.937  10.006  -9.903  1.00 34.87 LIG 0.18  HD
ATOM     12  CZ  ARG X 128      -0.001   9.585 -11.489  1.00 35.06 LIG 0.67  C 
ATOM     13  NH1 ARG X 128      -0.216   9.899 -12.753  1.00 38.28 LIG-0.23  N 
ATOM     14  NH2 ARG X 128      -0.576   8.521 -11.005  1.00 41.06 LIG-0.23  N 
ATOM     15 1HH1 ARG X 128       0.174  10.582 -13.099  1.00 38.28 LIG 0.17  HD
ATOM     16 2HH1 ARG X 128      -0.747   9.420 -13.232  1.00 38.28 LIG 0.17  HD
ATOM     17 1HH2 ARG X 128      -0.430   8.285 -10.191  1.00 41.06 LIG 0.17  HD
ATOM     18 2HH2 ARG X 128      -1.103   8.054 -11.500  1.00 41.06 LIG 0.17  HD
ENDBRANCH 9 10
ENDBRANCH 8 9
ENDBRANCH 7 8
ENDBRANCH 6 7
BRANCH 6 19
ATOM     19  N   ARG X 128       5.581  12.147  -9.323  1.00 22.62 LIG-0.35  N 
ATOM     20 H    ARG X 128       5.640  11.446  -9.819  1.00 22.62 LIG 0.16  HD
ATOM     21  C   ALA X 127       6.609  12.682  -8.678  1.00 23.78 LIG 0.24  C 
ATOM     22 O    ALA X 127       6.526  13.719  -8.025  1.00 22.39 LIG-0.27  OA
BRANCH 21 23
ATOM     23  CA  ALA X 127       7.971  12.005  -8.902  1.00 25.08 LIG 0.17  C 
ATOM     24  CB  ALA X 127       9.136  12.935  -8.591  1.00 24.37 LIG 0.04  C 
BRANCH 23 25
ATOM     25  N   ALA X 127       7.998  11.522 -10.278  1.00 27.78 LIG-0.35  N 
ATOM     26  C   LEU X 126       7.933  12.456 -11.226  1.00 33.19 LIG 0.26  C 
ATOM     27 O    LEU X 126       7.935  13.701 -10.974  1.00 34.96 LIG-0.27  OA
ATOM     28 H    ALA X 127       8.053  10.671 -10.394  1.00 27.78 LIG 0.16  HD
BRANCH 26 29
ATOM     29  CA  LEU X 126       7.843  11.976 -12.645  1.00 34.21 LIG 0.40  C 
ATOM     30  N   LEU X 126       8.396  10.615 -12.795  1.00 36.42 LIG 0.61  N 
BRANCH 29 31
ATOM     31  CB  LEU X 126       6.359  12.025 -13.064  1.00 35.53 LIG 0.06  C 
BRANCH 31 32
ATOM     32  CG  LEU X 126       5.976  13.167 -14.013  1.00 35.00 LIG-0.02  C 
ATOM     33  CD2 LEU X 126       7.235  13.648 -14.780  1.00 38.18 LIG 0.01  C 
ATOM     34  CD1 LEU X 126       5.363  14.311 -13.271  1.00 36.44 LIG 0.01  C 
ENDBRANCH 31 32
ENDBRANCH 29 31
ENDBRANCH 26 29
ENDBRANCH 23 25
ENDBRANCH 21 23
ENDBRANCH 6 19
ENDBRANCH 3 6
ENDBRANCH 1 2
BRANCH 1 35
ATOM     35  C   ARG X 129       0.073  11.936  -7.324  1.00 22.72 LIG 0.24  C 
ATOM     36  N   LEU X 130      -0.554  10.963  -8.006  1.00 24.32 LIG-0.35  N 
ATOM     37 H    LEU X 130      -0.188  10.231  -8.270  1.00 24.32 LIG 0.16  HD
ATOM     38 O    ARG X 129      -0.479  13.014  -7.100  1.00 21.19 LIG-0.27  OA
BRANCH 36 39
ATOM     39  CA  LEU X 130      -1.989  11.117  -8.353  1.00 26.11 LIG 0.18  C 
BRANCH 39 40
ATOM     40  C   LEU X 130      -2.818   9.968  -7.828  1.00 29.66 LIG 0.24  C 
ATOM     41 O    LEU X 130      -2.295   9.117  -7.092  1.00 28.98 LIG-0.27  OA
ATOM     42  N   ARG X 131      -4.084   9.907  -8.228  1.00 30.67 LIG-0.34  N 
ATOM     43 H    ARG X 131      -4.480  10.525  -8.676  1.00 30.67 LIG 0.16  HD
BRANCH 42 44
ATOM     44  CA  ARG X 131      -4.912   8.759  -7.925  1.00 33.89 LIG 0.18  C 
BRANCH 44 45
ATOM     45  C   ARG X 131      -4.756   7.650  -8.968  1.00 35.66 LIG 0.20  C 
ATOM     46 OXT  ARG X 131      -4.645   7.901 -10.188  1.00 35.07 LIG-0.65  OA
ATOM     47 O    ARG X 131      -4.756   6.429  -8.630  1.00 37.10 LIG-0.65  OA
ENDBRANCH 44 45
BRANCH 44 48
ATOM     48  CB  ARG X 131      -6.378   9.195  -7.840  1.00 35.20 LIG 0.04  C 
BRANCH 48 49
ATOM     49  CG  ARG X 131      -7.234   8.319  -6.907  1.00 40.01 LIG 0.02  C 
BRANCH 49 50
ATOM     50  CD  ARG X 131      -6.805   8.375  -5.416  1.00 47.84 LIG 0.14  C 
BRANCH 50 51
ATOM     51  NE  ARG X 131      -5.852   9.463  -5.190  1.00 52.72 LIG-0.23  N 
ATOM     52  CZ  ARG X 131      -5.981  10.419  -4.267  1.00 57.07 LIG 0.67  C 
ATOM     53  NH1 ARG X 131      -7.028  10.432  -3.426  1.00 58.64 LIG-0.23  N 
ATOM     54  NH2 ARG X 131      -5.044  11.367  -4.176  1.00 59.02 LIG-0.23  N 
ATOM     55 2HH1 ARG X 131      -7.099  11.053  -2.836  1.00 58.64 LIG 0.17  HD
ATOM     56 1HH1 ARG X 131      -7.629   9.818  -3.477  1.00 58.64 LIG 0.17  HD
ATOM     57 2HH2 ARG X 131      -5.117  11.988  -3.585  1.00 59.02 LIG 0.17  HD
ATOM     58 1HH2 ARG X 131      -4.369  11.356  -4.709  1.00 59.02 LIG 0.17  HD
ATOM     59 HE   ARG X 131      -5.155   9.488  -5.692  1.00 52.72 LIG 0.18  HD
ENDBRANCH 50 51
ENDBRANCH 49 50
ENDBRANCH 48 49
ENDBRANCH 44 48
ENDBRANCH 42 44
ENDBRANCH 39 40
BRANCH 39 60
ATOM     60  CB  LEU X 130      -2.239  11.200  -9.862  1.00 27.29 LIG 0.04  C 
BRANCH 60 61
ATOM     61  CG  LEU X 130      -2.006  12.497 -10.620  1.00 26.34 LIG-0.02  C 
ATOM     62  CD1 LEU X 130      -3.018  12.705 -11.792  1.00 29.54 LIG 0.01  C 
ATOM     63  CD2 LEU X 130      -2.109  13.628  -9.649  1.00 21.56 LIG 0.01  C 
ENDBRANCH 60 61
ENDBRANCH 39 60
ENDBRANCH 36 39
ENDBRANCH 1 35
BRANCH 1 64
ATOM     64  CB  ARG X 129       1.658  12.441  -5.418  1.00 24.17 LIG 0.04  C 
BRANCH 64 65
ATOM     65  CG  ARG X 129       0.584  12.272  -4.437  1.00 28.32 LIG 0.02  C 
BRANCH 65 66
ATOM     66  CD  ARG X 129       1.046  11.791  -3.073  1.00 31.43 LIG 0.14  C 
BRANCH 66 67
ATOM     67  NE  ARG X 129       0.031  11.118  -2.251  1.00 29.42 LIG-0.23  N 
ATOM     68  CZ  ARG X 129      -0.730  11.708  -1.336  1.00 30.66 LIG 0.67  C 
ATOM     69  NH1 ARG X 129      -0.555  12.987  -1.014  1.00 33.32 LIG-0.23  N 
ATOM     70  NH2 ARG X 129      -1.663  10.992  -0.697  1.00 29.67 LIG-0.23  N 
ATOM     71 2HH1 ARG X 129      -1.056  13.354  -0.419  1.00 33.32 LIG 0.17  HD
ATOM     72 1HH1 ARG X 129       0.060  13.447  -1.400  1.00 33.32 LIG 0.17  HD
ATOM     73 2HH2 ARG X 129      -2.160  11.366  -0.103  1.00 29.67 LIG 0.17  HD
ATOM     74 1HH2 ARG X 129      -1.766  10.158  -0.880  1.00 29.67 LIG 0.17  HD
ATOM     75 HE   ARG X 129      -0.080  10.273  -2.372  1.00 29.42 LIG 0.18  HD
ENDBRANCH 66 67
ENDBRANCH 65 66
ENDBRANCH 64 65
ENDBRANCH 1 64
TORSDOF 27
ENDMDL
MODEL 32
USER: ADFR SOLUTION from run 59
USER: SCORE 28.809999 LL:  -4.835 LR: -25.501 RR:   0.000 FEB: -17.447
USER: RMSD 4.939558
USER: SEED 58
USER: STATUS no improvement in best in 8 clusters for 5 generations
USER: GENES 29
USER: genes 0 Translation |==|  0.45978 0.39128 0.51602
USER: genes 1 Rotation |==|  0.44836 0.52640 0.51651 0.99635
USER: genes 2 Torsion [C]-CA--N-[C] |==|  0.71831
USER: genes 3 Torsion [N]-C--CA-[N] |==|  0.30841
USER: genes 4 Torsion [C]-CA--CB-[CG] |==|  0.47485
USER: genes 5 Torsion [CA]-CB--CG-[CD] |==|  0.24472
USER: genes 6 Torsion [CB]-CG--CD-[NE] |==|  0.18885
USER: genes 7 Torsion [CG]-CD--NE-[HE] |==|  0.03771
USER: genes 8 Torsion [C]-CA--N-[C] |==|  0.69076
USER: genes 9 Torsion [N]-C--CA-[N] |==|  0.44395
USER: genes 10 Torsion [C]-CA--N-[C] |==|  0.76667
USER: genes 11 Torsion [N]-C--CA-[N] |==|  0.34583
USER: genes 12 Torsion [C]-CA--CB-[CG] |==|  0.70598
USER: genes 13 Torsion [CA]-CB--CG-[CD2] |==|  0.58049
USER: genes 14 Torsion [N]-CA--C-[N] |==|  0.47515
USER: genes 15 Torsion [C]-N--CA-[C] |==|  0.21271
USER: genes 16 Torsion [N]-CA--C-[N] |==|  0.57972
USER: genes 17 Torsion [C]-N--CA-[C] |==|  0.16615
USER: genes 18 Torsion [N]-CA--C-[O] |==|  0.65597
USER: genes 19 Torsion [N]-CA--CB-[CG] |==|  0.55715
USER: genes 20 Torsion [CA]-CB--CG-[CD] |==|  0.71276
USER: genes 21 Torsion [CB]-CG--CD-[NE] |==|  0.35085
USER: genes 22 Torsion [CG]-CD--NE-[CZ] |==|  0.66560
USER: genes 23 Torsion [N]-CA--CB-[CG] |==|  0.69612
USER: genes 24 Torsion [CA]-CB--CG-[CD1] |==|  0.55363
USER: genes 25 Torsion [N]-CA--CB-[CG] |==|  0.56258
USER: genes 26 Torsion [CA]-CB--CG-[CD] |==|  0.69106
USER: genes 27 Torsion [CB]-CG--CD-[NE] |==|  0.29318
USER: genes 28 Torsion [CG]-CD--NE-[HE] |==|  0.96268
ROOT
ATOM      1  CA  ARG X 129       1.280  11.823  -6.815  1.00 23.09 LIG 0.18  C 
ENDROOT
BRANCH 1 2
ATOM      2  N   ARG X 129       2.438  12.383  -7.501  1.00 20.82 LIG-0.35  N 
ATOM      3  C   ARG X 128       3.073  11.804  -8.521  1.00 20.67 LIG 0.24  C 
ATOM      4 O    ARG X 128       2.772  10.682  -9.002  1.00 18.99 LIG-0.27  OA
ATOM      5 H    ARG X 129       2.682  13.142  -7.179  1.00 20.82 LIG 0.16  HD
BRANCH 3 6
ATOM      6  CA  ARG X 128       4.228  12.608  -9.113  1.00 21.45 LIG 0.18  C 
BRANCH 6 7
ATOM      7  CB  ARG X 128       4.099  12.710 -10.623  1.00 22.98 LIG 0.04  C 
BRANCH 7 8
ATOM      8  CG  ARG X 128       5.130  13.703 -11.195  1.00 26.06 LIG 0.02  C 
BRANCH 8 9
ATOM      9  CD  ARG X 128       6.558  13.114 -11.568  1.00 28.46 LIG 0.14  C 
BRANCH 9 10
ATOM     10  NE  ARG X 128       6.777  12.181 -12.663  1.00 34.87 LIG-0.23  N 
ATOM     11 HE   ARG X 128       6.135  12.086 -13.228  1.00 34.87 LIG 0.18  HD
ATOM     12  CZ  ARG X 128       7.882  11.455 -12.877  1.00 35.06 LIG 0.67  C 
ATOM     13  NH1 ARG X 128       8.908  11.470 -12.047  1.00 38.28 LIG-0.23  N 
ATOM     14  NH2 ARG X 128       7.937  10.677 -13.920  1.00 41.06 LIG-0.23  N 
ATOM     15 1HH1 ARG X 128       8.882  11.957 -11.339  1.00 38.28 LIG 0.17  HD
ATOM     16 2HH1 ARG X 128       9.604  10.991 -12.213  1.00 38.28 LIG 0.17  HD
ATOM     17 1HH2 ARG X 128       7.269  10.634 -14.461  1.00 41.06 LIG 0.17  HD
ATOM     18 2HH2 ARG X 128       8.641  10.205 -14.069  1.00 41.06 LIG 0.17  HD
ENDBRANCH 9 10
ENDBRANCH 8 9
ENDBRANCH 7 8
ENDBRANCH 6 7
BRANCH 6 19
ATOM     19  N   ARG X 128       5.492  11.982  -8.830  1.00 22.62 LIG-0.35  N 
ATOM     20 H    ARG X 128       5.616  11.237  -9.240  1.00 22.62 LIG 0.16  HD
ATOM     21  C   ALA X 127       6.378  12.523  -8.003  1.00 23.78 LIG 0.24  C 
ATOM     22 O    ALA X 127       6.219  13.619  -7.473  1.00 22.39 LIG-0.27  OA
BRANCH 21 23
ATOM     23  CA  ALA X 127       7.704  11.762  -7.846  1.00 25.08 LIG 0.17  C 
ATOM     24  CB  ALA X 127       7.560  10.527  -6.966  1.00 24.37 LIG 0.04  C 
BRANCH 23 25
ATOM     25  N   ALA X 127       8.690  12.703  -7.326  1.00 27.78 LIG-0.35  N 
ATOM     26  C   LEU X 126       9.301  13.467  -8.230  1.00 33.19 LIG 0.26  C 
ATOM     27 O    LEU X 126       8.999  13.458  -9.464  1.00 34.96 LIG-0.27  OA
ATOM     28 H    ALA X 127       8.816  12.708  -6.475  1.00 27.78 LIG 0.16  HD
BRANCH 26 29
ATOM     29  CA  LEU X 126      10.398  14.361  -7.731  1.00 34.21 LIG 0.40  C 
ATOM     30  N   LEU X 126      11.662  14.128  -8.459  1.00 36.42 LIG 0.61  N 
BRANCH 29 31
ATOM     31  CB  LEU X 126       9.924  15.820  -7.891  1.00 35.53 LIG 0.06  C 
BRANCH 31 32
ATOM     32  CG  LEU X 126      10.573  16.606  -9.038  1.00 35.00 LIG-0.02  C 
ATOM     33  CD2 LEU X 126      10.610  18.113  -8.676  1.00 38.18 LIG 0.01  C 
ATOM     34  CD1 LEU X 126       9.834  16.408 -10.322  1.00 36.44 LIG 0.01  C 
ENDBRANCH 31 32
ENDBRANCH 29 31
ENDBRANCH 26 29
ENDBRANCH 23 25
ENDBRANCH 21 23
ENDBRANCH 6 19
ENDBRANCH 3 6
ENDBRANCH 1 2
BRANCH 1 35
ATOM     35  C   ARG X 129      -0.050  12.481  -7.272  1.00 22.72 LIG 0.24  C 
ATOM     36  N   LEU X 130      -1.234  11.977  -6.885  1.00 24.32 LIG-0.35  N 
ATOM     37 H    LEU X 130      -1.341  11.232  -6.469  1.00 24.32 LIG 0.16  HD
ATOM     38 O    ARG X 129       0.013  13.484  -7.983  1.00 21.19 LIG-0.27  OA
BRANCH 36 39
ATOM     39  CA  LEU X 130      -2.482  12.727  -7.176  1.00 26.11 LIG 0.18  C 
BRANCH 39 40
ATOM     40  C   LEU X 130      -2.890  12.593  -8.624  1.00 29.66 LIG 0.24  C 
ATOM     41 O    LEU X 130      -2.550  11.590  -9.270  1.00 28.98 LIG-0.27  OA
ATOM     42  N   ARG X 131      -3.575  13.603  -9.152  1.00 30.67 LIG-0.34  N 
ATOM     43 H    ARG X 131      -3.880  14.268  -8.701  1.00 30.67 LIG 0.16  HD
BRANCH 42 44
ATOM     44  CA  ARG X 131      -3.862  13.653 -10.570  1.00 33.89 LIG 0.18  C 
BRANCH 44 45
ATOM     45  C   ARG X 131      -4.679  12.445 -11.032  1.00 35.66 LIG 0.20  C 
ATOM     46 OXT  ARG X 131      -5.768  12.140 -10.496  1.00 35.07 LIG-0.65  OA
ATOM     47 O    ARG X 131      -4.266  11.694 -11.964  1.00 37.10 LIG-0.65  OA
ENDBRANCH 44 45
BRANCH 44 48
ATOM     48  CB  ARG X 131      -2.547  13.727 -11.354  1.00 35.20 LIG 0.04  C 
BRANCH 48 49
ATOM     49  CG  ARG X 131      -2.706  14.278 -12.783  1.00 40.01 LIG 0.02  C 
BRANCH 49 50
ATOM     50  CD  ARG X 131      -2.657  13.190 -13.889  1.00 47.84 LIG 0.14  C 
BRANCH 50 51
ATOM     51  NE  ARG X 131      -3.836  13.271 -14.752  1.00 52.72 LIG-0.23  N 
ATOM     52  CZ  ARG X 131      -4.724  12.292 -14.936  1.00 57.07 LIG 0.67  C 
ATOM     53  NH1 ARG X 131      -4.605  11.120 -14.291  1.00 58.64 LIG-0.23  N 
ATOM     54  NH2 ARG X 131      -5.751  12.491 -15.767  1.00 59.02 LIG-0.23  N 
ATOM     55 2HH1 ARG X 131      -5.184  10.497 -14.418  1.00 58.64 LIG 0.17  HD
ATOM     56 1HH1 ARG X 131      -3.949  10.992 -13.749  1.00 58.64 LIG 0.17  HD
ATOM     57 2HH2 ARG X 131      -6.329  11.867 -15.894  1.00 59.02 LIG 0.17  HD
ATOM     58 1HH2 ARG X 131      -5.833  13.243 -16.176  1.00 59.02 LIG 0.17  HD
ATOM     59 HE   ARG X 131      -3.967  14.009 -15.174  1.00 52.72 LIG 0.18  HD
ENDBRANCH 50 51
ENDBRANCH 49 50
ENDBRANCH 48 49
ENDBRANCH 44 48
ENDBRANCH 42 44
ENDBRANCH 39 40
BRANCH 39 60
ATOM     60  CB  LEU X 130      -2.369  14.224  -6.876  1.00 27.29 LIG 0.04  C 
BRANCH 60 61
ATOM     61  CG  LEU X 130      -3.111  14.841  -5.701  1.00 26.34 LIG-0.02  C 
ATOM     62  CD1 LEU X 130      -3.270  16.391  -5.830  1.00 29.54 LIG 0.01  C 
ATOM     63  CD2 LEU X 130      -4.456  14.196  -5.609  1.00 21.56 LIG 0.01  C 
ENDBRANCH 60 61
ENDBRANCH 39 60
ENDBRANCH 36 39
ENDBRANCH 1 35
BRANCH 1 64
ATOM     64  CB  ARG X 129       1.559  12.191  -5.341  1.00 24.17 LIG 0.04  C 
BRANCH 64 65
ATOM     65  CG  ARG X 129       0.905  11.394  -4.302  1.00 28.32 LIG 0.02  C 
BRANCH 65 66
ATOM     66  CD  ARG X 129      -0.160  12.134  -3.513  1.00 31.43 LIG 0.14  C 
BRANCH 66 67
ATOM     67  NE  ARG X 129      -1.552  11.785  -3.826  1.00 29.42 LIG-0.23  N 
ATOM     68  CZ  ARG X 129      -2.610  12.117  -3.095  1.00 30.66 LIG 0.67  C 
ATOM     69  NH1 ARG X 129      -2.472  12.734  -1.924  1.00 33.32 LIG-0.23  N 
ATOM     70  NH2 ARG X 129      -3.835  11.790  -3.524  1.00 29.67 LIG-0.23  N 
ATOM     71 2HH1 ARG X 129      -3.167  12.942  -1.462  1.00 33.32 LIG 0.17  HD
ATOM     72 1HH1 ARG X 129      -1.687  12.924  -1.628  1.00 33.32 LIG 0.17  HD
ATOM     73 2HH2 ARG X 129      -4.524  12.000  -3.056  1.00 29.67 LIG 0.17  HD
ATOM     74 1HH2 ARG X 129      -3.932  11.368  -4.267  1.00 29.67 LIG 0.17  HD
ATOM     75 HE   ARG X 129      -1.695  11.328  -4.541  1.00 29.42 LIG 0.18  HD
ENDBRANCH 66 67
ENDBRANCH 65 66
ENDBRANCH 64 65
ENDBRANCH 1 64
TORSDOF 27
ENDMDL
MODEL 33
USER: ADFR SOLUTION from run 24
USER: SCORE 29.524581 LL:  -4.699 LR: -25.489 RR:   0.000 FEB: -17.435
USER: RMSD 13.229899
USER: SEED 23
USER: STATUS no improvement in best in 2 clusters for 5 generations
USER: GENES 29
USER: genes 0 Translation |==|  0.59025 0.40577 0.43276
USER: genes 1 Rotation |==|  0.45296 0.02130 0.37002 0.54174
USER: genes 2 Torsion [C]-CA--N-[C] |==|  0.60101
USER: genes 3 Torsion [N]-C--CA-[N] |==|  0.44948
USER: genes 4 Torsion [C]-CA--CB-[CG] |==|  0.18718
USER: genes 5 Torsion [CA]-CB--CG-[CD] |==|  0.54854
USER: genes 6 Torsion [CB]-CG--CD-[NE] |==|  0.57228
USER: genes 7 Torsion [CG]-CD--NE-[HE] |==|  0.05500
USER: genes 8 Torsion [C]-CA--N-[C] |==|  0.72751
USER: genes 9 Torsion [N]-C--CA-[N] |==|  0.14886
USER: genes 10 Torsion [C]-CA--N-[C] |==|  0.15522
USER: genes 11 Torsion [N]-C--CA-[N] |==|  0.87148
USER: genes 12 Torsion [C]-CA--CB-[CG] |==|  0.45224
USER: genes 13 Torsion [CA]-CB--CG-[CD2] |==|  0.90928
USER: genes 14 Torsion [N]-CA--C-[N] |==|  0.43196
USER: genes 15 Torsion [C]-N--CA-[C] |==|  0.66474
USER: genes 16 Torsion [N]-CA--C-[N] |==|  0.35000
USER: genes 17 Torsion [C]-N--CA-[C] |==|  0.77821
USER: genes 18 Torsion [N]-CA--C-[O] |==|  0.90888
USER: genes 19 Torsion [N]-CA--CB-[CG] |==|  0.38410
USER: genes 20 Torsion [CA]-CB--CG-[CD] |==|  0.19802
USER: genes 21 Torsion [CB]-CG--CD-[NE] |==|  0.10737
USER: genes 22 Torsion [CG]-CD--NE-[CZ] |==|  0.71966
USER: genes 23 Torsion [N]-CA--CB-[CG] |==|  0.91460
USER: genes 24 Torsion [CA]-CB--CG-[CD1] |==|  0.53491
USER: genes 25 Torsion [N]-CA--CB-[CG] |==|  0.43779
USER: genes 26 Torsion [CA]-CB--CG-[CD] |==|  0.25112
USER: genes 27 Torsion [CB]-CG--CD-[NE] |==|  0.63189
USER: genes 28 Torsion [CG]-CD--NE-[HE] |==|  0.08476
ROOT
ATOM      1  CA  ARG X 129       4.901  12.062  -8.689  1.00 23.09 LIG 0.18  C 
ENDROOT
BRANCH 1 2
ATOM      2  N   ARG X 129       3.866  12.514  -7.768  1.00 20.82 LIG-0.35  N 
ATOM      3  C   ARG X 128       2.722  11.871  -7.530  1.00 20.67 LIG 0.24  C 
ATOM      4 O    ARG X 128       2.375  10.804  -8.098  1.00 18.99 LIG-0.27  OA
ATOM      5 H    ARG X 129       4.066  13.255  -7.379  1.00 20.82 LIG 0.16  HD
BRANCH 3 6
ATOM      6  CA  ARG X 128       1.816  12.512  -6.481  1.00 21.45 LIG 0.18  C 
BRANCH 6 7
ATOM      7  CB  ARG X 128       2.305  12.196  -5.079  1.00 22.98 LIG 0.04  C 
BRANCH 7 8
ATOM      8  CG  ARG X 128       3.657  12.884  -4.802  1.00 26.06 LIG 0.02  C 
BRANCH 8 9
ATOM      9  CD  ARG X 128       4.504  12.328  -3.577  1.00 28.46 LIG 0.14  C 
BRANCH 9 10
ATOM     10  NE  ARG X 128       5.467  13.133  -2.840  1.00 34.87 LIG-0.23  N 
ATOM     11 HE   ARG X 128       5.391  13.988  -2.905  1.00 34.87 LIG 0.18  HD
ATOM     12  CZ  ARG X 128       6.461  12.671  -2.070  1.00 35.06 LIG 0.67  C 
ATOM     13  NH1 ARG X 128       6.715  11.382  -1.942  1.00 38.28 LIG-0.23  N 
ATOM     14  NH2 ARG X 128       7.231  13.521  -1.453  1.00 41.06 LIG-0.23  N 
ATOM     15 1HH1 ARG X 128       6.234  10.805  -2.362  1.00 38.28 LIG 0.17  HD
ATOM     16 2HH1 ARG X 128       7.361  11.118  -1.440  1.00 38.28 LIG 0.17  HD
ATOM     17 1HH2 ARG X 128       7.098  14.366  -1.542  1.00 41.06 LIG 0.17  HD
ATOM     18 2HH2 ARG X 128       7.873  13.238  -0.955  1.00 41.06 LIG 0.17  HD
ENDBRANCH 9 10
ENDBRANCH 8 9
ENDBRANCH 7 8
ENDBRANCH 6 7
BRANCH 6 19
ATOM     19  N   ARG X 128       0.470  12.018  -6.590  1.00 22.62 LIG-0.35  N 
ATOM     20 H    ARG X 128       0.340  11.260  -6.205  1.00 22.62 LIG 0.16  HD
ATOM     21  C   ALA X 127      -0.478  12.688  -7.233  1.00 23.78 LIG 0.24  C 
ATOM     22 O    ALA X 127      -0.298  13.800  -7.724  1.00 22.39 LIG-0.27  OA
BRANCH 21 23
ATOM     23  CA  ALA X 127      -1.879  12.057  -7.216  1.00 25.08 LIG 0.17  C 
ATOM     24  CB  ALA X 127      -2.910  12.922  -7.929  1.00 24.37 LIG 0.04  C 
BRANCH 23 25
ATOM     25  N   ALA X 127      -2.230  11.809  -5.822  1.00 27.78 LIG-0.35  N 
ATOM     26  C   LEU X 126      -2.185  12.865  -5.012  1.00 33.19 LIG 0.26  C 
ATOM     27 O    LEU X 126      -1.940  14.043  -5.420  1.00 34.96 LIG-0.27  OA
ATOM     28 H    ALA X 127      -2.442  11.003  -5.609  1.00 27.78 LIG 0.16  HD
BRANCH 26 29
ATOM     29  CA  LEU X 126      -2.430  12.612  -3.553  1.00 34.21 LIG 0.40  C 
ATOM     30  N   LEU X 126      -3.604  11.742  -3.342  1.00 36.42 LIG 0.61  N 
BRANCH 29 31
ATOM     31  CB  LEU X 126      -1.152  11.975  -2.967  1.00 35.53 LIG 0.06  C 
BRANCH 31 32
ATOM     32  CG  LEU X 126      -1.035  12.013  -1.438  1.00 35.00 LIG-0.02  C 
ATOM     33  CD2 LEU X 126      -1.711  13.300  -0.899  1.00 38.18 LIG 0.01  C 
ATOM     34  CD1 LEU X 126       0.393  11.966  -0.998  1.00 36.44 LIG 0.01  C 
ENDBRANCH 31 32
ENDBRANCH 29 31
ENDBRANCH 26 29
ENDBRANCH 23 25
ENDBRANCH 21 23
ENDBRANCH 6 19
ENDBRANCH 3 6
ENDBRANCH 1 2
BRANCH 1 35
ATOM     35  C   ARG X 129       6.330  12.377  -8.171  1.00 22.72 LIG 0.24  C 
ATOM     36  N   LEU X 130       7.385  11.653  -8.582  1.00 24.32 LIG-0.35  N 
ATOM     37 H    LEU X 130       7.337  10.934  -9.051  1.00 24.32 LIG 0.16  HD
ATOM     38 O    ARG X 129       6.469  13.318  -7.389  1.00 21.19 LIG-0.27  OA
BRANCH 36 39
ATOM     39  CA  LEU X 130       8.758  12.088  -8.223  1.00 26.11 LIG 0.18  C 
BRANCH 39 40
ATOM     40  C   LEU X 130       9.602  12.343  -9.450  1.00 29.66 LIG 0.24  C 
ATOM     41 O    LEU X 130       9.750  11.446 -10.294  1.00 28.98 LIG-0.27  OA
ATOM     42  N   ARG X 131      10.190  13.533  -9.539  1.00 30.67 LIG-0.34  N 
ATOM     43 H    ARG X 131      10.039  14.188  -9.003  1.00 30.67 LIG 0.16  HD
BRANCH 42 44
ATOM     44  CA  ARG X 131      11.154  13.816 -10.581  1.00 33.89 LIG 0.18  C 
BRANCH 44 45
ATOM     45  C   ARG X 131      12.536  13.250 -10.250  1.00 35.66 LIG 0.20  C 
ATOM     46 OXT  ARG X 131      13.302  12.813 -11.138  1.00 35.07 LIG-0.65  OA
ATOM     47 O    ARG X 131      12.946  13.183  -9.053  1.00 37.10 LIG-0.65  OA
ENDBRANCH 44 45
BRANCH 44 48
ATOM     48  CB  ARG X 131      11.245  15.331 -10.792  1.00 35.20 LIG 0.04  C 
BRANCH 48 49
ATOM     49  CG  ARG X 131      12.684  15.845 -10.986  1.00 40.01 LIG 0.02  C 
BRANCH 49 50
ATOM     50  CD  ARG X 131      13.318  15.455 -12.347  1.00 47.84 LIG 0.14  C 
BRANCH 50 51
ATOM     51  NE  ARG X 131      12.329  15.531 -13.423  1.00 52.72 LIG-0.23  N 
ATOM     52  CZ  ARG X 131      11.687  14.488 -13.955  1.00 57.07 LIG 0.67  C 
ATOM     53  NH1 ARG X 131      11.896  13.242 -13.498  1.00 58.64 LIG-0.23  N 
ATOM     54  NH2 ARG X 131      10.818  14.694 -14.947  1.00 59.02 LIG-0.23  N 
ATOM     55 2HH1 ARG X 131      11.476  12.579 -13.849  1.00 58.64 LIG 0.17  HD
ATOM     56 1HH1 ARG X 131      12.450  13.107 -12.854  1.00 58.64 LIG 0.17  HD
ATOM     57 2HH2 ARG X 131      10.399  14.030 -15.298  1.00 59.02 LIG 0.17  HD
ATOM     58 1HH2 ARG X 131      10.678  15.492 -15.236  1.00 59.02 LIG 0.17  HD
ATOM     59 HE   ARG X 131      12.147  16.310 -13.737  1.00 52.72 LIG 0.18  HD
ENDBRANCH 50 51
ENDBRANCH 49 50
ENDBRANCH 48 49
ENDBRANCH 44 48
ENDBRANCH 42 44
ENDBRANCH 39 40
BRANCH 39 60
ATOM     60  CB  LEU X 130       9.509  11.066  -7.365  1.00 27.29 LIG 0.04  C 
BRANCH 60 61
ATOM     61  CG  LEU X 130       8.762  10.159  -6.401  1.00 26.34 LIG-0.02  C 
ATOM     62  CD1 LEU X 130       9.711   9.420  -5.403  1.00 29.54 LIG 0.01  C 
ATOM     63  CD2 LEU X 130       7.777  10.993  -5.646  1.00 21.56 LIG 0.01  C 
ENDBRANCH 60 61
ENDBRANCH 39 60
ENDBRANCH 36 39
ENDBRANCH 1 35
BRANCH 1 64
ATOM     64  CB  ARG X 129       4.611  12.905  -9.951  1.00 24.17 LIG 0.04  C 
BRANCH 64 65
ATOM     65  CG  ARG X 129       5.704  13.107 -10.904  1.00 28.32 LIG 0.02  C 
BRANCH 65 66
ATOM     66  CD  ARG X 129       5.792  12.058 -11.996  1.00 31.43 LIG 0.14  C 
BRANCH 66 67
ATOM     67  NE  ARG X 129       7.127  11.495 -12.243  1.00 29.42 LIG-0.23  N 
ATOM     68  CZ  ARG X 129       7.568  11.052 -13.415  1.00 30.66 LIG 0.67  C 
ATOM     69  NH1 ARG X 129       6.766  10.992 -14.476  1.00 33.32 LIG-0.23  N 
ATOM     70  NH2 ARG X 129       8.830  10.620 -13.521  1.00 29.67 LIG-0.23  N 
ATOM     71 2HH1 ARG X 129       7.068  10.702 -15.227  1.00 33.32 LIG 0.17  HD
ATOM     72 1HH1 ARG X 129       5.947  11.243 -14.410  1.00 33.32 LIG 0.17  HD
ATOM     73 2HH2 ARG X 129       9.123  10.331 -14.276  1.00 29.67 LIG 0.17  HD
ATOM     74 1HH2 ARG X 129       9.348  10.631 -12.835  1.00 29.67 LIG 0.17  HD
ATOM     75 HE   ARG X 129       7.667  11.450 -11.575  1.00 29.42 LIG 0.18  HD
ENDBRANCH 66 67
ENDBRANCH 65 66
ENDBRANCH 64 65
ENDBRANCH 1 64
TORSDOF 27
ENDMDL
MODEL 34
USER: ADFR SOLUTION from run 166
USER: SCORE 28.987164 LL:  -4.121 LR: -25.474 RR:   0.000 FEB: -17.420
USER: RMSD 6.758525
USER: SEED 165
USER: STATUS no improvement in best in 20 clusters for 5 generations
USER: GENES 29
USER: genes 0 Translation |==|  0.57470 0.44068 0.41840
USER: genes 1 Rotation |==|  0.00152 0.51081 0.53485 0.51374
USER: genes 2 Torsion [C]-CA--N-[C] |==|  0.71535
USER: genes 3 Torsion [N]-C--CA-[N] |==|  0.40921
USER: genes 4 Torsion [C]-CA--CB-[CG] |==|  0.76365
USER: genes 5 Torsion [CA]-CB--CG-[CD] |==|  0.27204
USER: genes 6 Torsion [CB]-CG--CD-[NE] |==|  0.86571
USER: genes 7 Torsion [CG]-CD--NE-[HE] |==|  0.09733
USER: genes 8 Torsion [C]-CA--N-[C] |==|  0.63506
USER: genes 9 Torsion [N]-C--CA-[N] |==|  0.84445
USER: genes 10 Torsion [C]-CA--N-[C] |==|  0.81844
USER: genes 11 Torsion [N]-C--CA-[N] |==|  0.18717
USER: genes 12 Torsion [C]-CA--CB-[CG] |==|  0.69828
USER: genes 13 Torsion [CA]-CB--CG-[CD2] |==|  0.56656
USER: genes 14 Torsion [N]-CA--C-[N] |==|  0.30455
USER: genes 15 Torsion [C]-N--CA-[C] |==|  0.79121
USER: genes 16 Torsion [N]-CA--C-[N] |==|  0.36027
USER: genes 17 Torsion [C]-N--CA-[C] |==|  0.21091
USER: genes 18 Torsion [N]-CA--C-[O] |==|  0.52022
USER: genes 19 Torsion [N]-CA--CB-[CG] |==|  0.80797
USER: genes 20 Torsion [CA]-CB--CG-[CD] |==|  0.40475
USER: genes 21 Torsion [CB]-CG--CD-[NE] |==|  0.62476
USER: genes 22 Torsion [CG]-CD--NE-[CZ] |==|  0.59634
USER: genes 23 Torsion [N]-CA--CB-[CG] |==|  0.80081
USER: genes 24 Torsion [CA]-CB--CG-[CD1] |==|  0.44981
USER: genes 25 Torsion [N]-CA--CB-[CG] |==|  0.78800
USER: genes 26 Torsion [CA]-CB--CG-[CD] |==|  0.24006
USER: genes 27 Torsion [CB]-CG--CD-[NE] |==|  0.21257
USER: genes 28 Torsion [CG]-CD--NE-[HE] |==|  0.05553
ROOT
ATOM      1  CA  ARG X 129       4.469  12.638  -9.012  1.00 23.09 LIG 0.18  C 
ENDROOT
BRANCH 1 2
ATOM      2  N   ARG X 129       5.744  11.969  -8.787  1.00 20.82 LIG-0.35  N 
ATOM      3  C   ARG X 128       6.622  12.301  -7.839  1.00 20.67 LIG 0.24  C 
ATOM      4 O    ARG X 128       6.475  13.257  -7.036  1.00 18.99 LIG-0.27  OA
ATOM      5 H    ARG X 129       5.883  11.322  -9.336  1.00 20.82 LIG 0.16  HD
BRANCH 3 6
ATOM      6  CA  ARG X 128       7.865  11.417  -7.762  1.00 21.45 LIG 0.18  C 
BRANCH 6 7
ATOM      7  CB  ARG X 128       7.670  10.295  -6.758  1.00 22.98 LIG 0.04  C 
BRANCH 7 8
ATOM      8  CG  ARG X 128       8.016  10.769  -5.332  1.00 26.06 LIG 0.02  C 
BRANCH 8 9
ATOM      9  CD  ARG X 128       6.798  11.212  -4.413  1.00 28.46 LIG 0.14  C 
BRANCH 9 10
ATOM     10  NE  ARG X 128       5.752  12.124  -4.855  1.00 34.87 LIG-0.23  N 
ATOM     11 HE   ARG X 128       5.516  12.074  -5.681  1.00 34.87 LIG 0.18  HD
ATOM     12  CZ  ARG X 128       5.121  13.032  -4.100  1.00 35.06 LIG 0.67  C 
ATOM     13  NH1 ARG X 128       5.438  13.242  -2.835  1.00 38.28 LIG-0.23  N 
ATOM     14  NH2 ARG X 128       4.186  13.763  -4.637  1.00 41.06 LIG-0.23  N 
ATOM     15 1HH1 ARG X 128       6.070  12.788  -2.469  1.00 38.28 LIG 0.17  HD
ATOM     16 2HH1 ARG X 128       5.013  13.833  -2.378  1.00 38.28 LIG 0.17  HD
ATOM     17 1HH2 ARG X 128       3.982  13.659  -5.466  1.00 41.06 LIG 0.17  HD
ATOM     18 2HH2 ARG X 128       3.773  14.350  -4.163  1.00 41.06 LIG 0.17  HD
ENDBRANCH 9 10
ENDBRANCH 8 9
ENDBRANCH 7 8
ENDBRANCH 6 7
BRANCH 6 19
ATOM     19  N   ARG X 128       9.013  12.177  -7.342  1.00 22.62 LIG-0.35  N 
ATOM     20 H    ARG X 128       8.877  12.665  -6.647  1.00 22.62 LIG 0.16  HD
ATOM     21  C   ALA X 127      10.172  12.117  -7.984  1.00 23.78 LIG 0.24  C 
ATOM     22 O    ALA X 127      10.375  11.368  -8.936  1.00 22.39 LIG-0.27  OA
BRANCH 21 23
ATOM     23  CA  ALA X 127      11.319  12.944  -7.380  1.00 25.08 LIG 0.17  C 
ATOM     24  CB  ALA X 127      11.782  12.395  -6.037  1.00 24.37 LIG 0.04  C 
BRANCH 23 25
ATOM     25  N   ALA X 127      10.861  14.325  -7.289  1.00 27.78 LIG-0.35  N 
ATOM     26  C   LEU X 126      10.622  14.940  -8.447  1.00 33.19 LIG 0.26  C 
ATOM     27 O    LEU X 126      10.698  14.354  -9.571  1.00 34.96 LIG-0.27  OA
ATOM     28 H    ALA X 127      10.772  14.657  -6.500  1.00 27.78 LIG 0.16  HD
BRANCH 26 29
ATOM     29  CA  LEU X 126      10.260  16.394  -8.380  1.00 34.21 LIG 0.40  C 
ATOM     30  N   LEU X 126      11.396  17.217  -7.917  1.00 36.42 LIG 0.61  N 
BRANCH 29 31
ATOM     31  CB  LEU X 126       9.795  16.827  -9.786  1.00 35.53 LIG 0.06  C 
BRANCH 31 32
ATOM     32  CG  LEU X 126      10.759  17.744 -10.550  1.00 35.00 LIG-0.02  C 
ATOM     33  CD2 LEU X 126       9.969  18.562 -11.604  1.00 38.18 LIG 0.01  C 
ATOM     34  CD1 LEU X 126      11.842  16.961 -11.219  1.00 36.44 LIG 0.01  C 
ENDBRANCH 31 32
ENDBRANCH 29 31
ENDBRANCH 26 29
ENDBRANCH 23 25
ENDBRANCH 21 23
ENDBRANCH 6 19
ENDBRANCH 3 6
ENDBRANCH 1 2
BRANCH 1 35
ATOM     35  C   ARG X 129       3.270  11.827  -8.450  1.00 22.72 LIG 0.24  C 
ATOM     36  N   LEU X 130       2.596  12.257  -7.370  1.00 24.32 LIG-0.35  N 
ATOM     37 H    LEU X 130       2.831  12.917  -6.873  1.00 24.32 LIG 0.16  HD
ATOM     38 O    ARG X 129       2.947  10.791  -9.032  1.00 21.19 LIG-0.27  OA
BRANCH 36 39
ATOM     39  CA  LEU X 130       1.344  11.570  -6.965  1.00 26.11 LIG 0.18  C 
BRANCH 39 40
ATOM     40  C   LEU X 130       0.190  11.928  -7.872  1.00 29.66 LIG 0.24  C 
ATOM     41 O    LEU X 130      -0.079  13.121  -8.084  1.00 28.98 LIG-0.27  OA
ATOM     42  N   ARG X 131      -0.517  10.921  -8.374  1.00 30.67 LIG-0.34  N 
ATOM     43 H    ARG X 131      -0.300  10.092  -8.297  1.00 30.67 LIG 0.16  HD
BRANCH 42 44
ATOM     44  CA  ARG X 131      -1.742  11.157  -9.109  1.00 33.89 LIG 0.18  C 
BRANCH 44 45
ATOM     45  C   ARG X 131      -1.470  11.670 -10.524  1.00 35.66 LIG 0.20  C 
ATOM     46 OXT  ARG X 131      -0.311  11.742 -10.990  1.00 35.07 LIG-0.65  OA
ATOM     47 O    ARG X 131      -2.415  12.062 -11.271  1.00 37.10 LIG-0.65  OA
ENDBRANCH 44 45
BRANCH 44 48
ATOM     48  CB  ARG X 131      -2.608  12.165  -8.344  1.00 35.20 LIG 0.04  C 
BRANCH 48 49
ATOM     49  CG  ARG X 131      -3.188  11.612  -7.029  1.00 40.01 LIG 0.02  C 
BRANCH 49 50
ATOM     50  CD  ARG X 131      -3.309  12.668  -5.898  1.00 47.84 LIG 0.14  C 
BRANCH 50 51
ATOM     51  NE  ARG X 131      -2.825  12.128  -4.628  1.00 52.72 LIG-0.23  N 
ATOM     52  CZ  ARG X 131      -3.329  12.417  -3.426  1.00 57.07 LIG 0.67  C 
ATOM     53  NH1 ARG X 131      -4.382  13.242  -3.298  1.00 58.64 LIG-0.23  N 
ATOM     54  NH2 ARG X 131      -2.780  11.867  -2.339  1.00 59.02 LIG-0.23  N 
ATOM     55 2HH1 ARG X 131      -4.697  13.420  -2.518  1.00 58.64 LIG 0.17  HD
ATOM     56 1HH1 ARG X 131      -4.741  13.592  -3.996  1.00 58.64 LIG 0.17  HD
ATOM     57 2HH2 ARG X 131      -3.097  12.046  -1.560  1.00 59.02 LIG 0.17  HD
ATOM     58 1HH2 ARG X 131      -2.111  11.333  -2.420  1.00 59.02 LIG 0.17  HD
ATOM     59 HE   ARG X 131      -2.163  11.580  -4.658  1.00 52.72 LIG 0.18  HD
ENDBRANCH 50 51
ENDBRANCH 49 50
ENDBRANCH 48 49
ENDBRANCH 44 48
ENDBRANCH 42 44
ENDBRANCH 39 40
BRANCH 39 60
ATOM     60  CB  LEU X 130       0.911  11.899  -5.534  1.00 27.29 LIG 0.04  C 
BRANCH 60 61
ATOM     61  CG  LEU X 130       1.680  11.351  -4.342  1.00 26.34 LIG-0.02  C 
ATOM     62  CD1 LEU X 130       1.385  12.131  -3.019  1.00 29.54 LIG 0.01  C 
ATOM     63  CD2 LEU X 130       1.318   9.911  -4.177  1.00 21.56 LIG 0.01  C 
ENDBRANCH 60 61
ENDBRANCH 39 60
ENDBRANCH 36 39
ENDBRANCH 1 35
BRANCH 1 64
ATOM     64  CB  ARG X 129       4.386  12.681 -10.554  1.00 24.17 LIG 0.04  C 
BRANCH 64 65
ATOM     65  CG  ARG X 129       5.204  13.672 -11.256  1.00 28.32 LIG 0.02  C 
BRANCH 65 66
ATOM     66  CD  ARG X 129       6.619  13.218 -11.565  1.00 31.43 LIG 0.14  C 
BRANCH 66 67
ATOM     67  NE  ARG X 129       6.764  12.283 -12.689  1.00 29.42 LIG-0.23  N 
ATOM     68  CZ  ARG X 129       7.807  11.486 -12.894  1.00 30.66 LIG 0.67  C 
ATOM     69  NH1 ARG X 129       8.885  11.547 -12.117  1.00 33.32 LIG-0.23  N 
ATOM     70  NH2 ARG X 129       7.789  10.633 -13.926  1.00 29.67 LIG-0.23  N 
ATOM     71 2HH1 ARG X 129       9.552  11.024 -12.263  1.00 33.32 LIG 0.17  HD
ATOM     72 1HH1 ARG X 129       8.916  12.110 -11.468  1.00 33.32 LIG 0.17  HD
ATOM     73 2HH2 ARG X 129       8.460  10.114 -14.066  1.00 29.67 LIG 0.17  HD
ATOM     74 1HH2 ARG X 129       7.107  10.605 -14.449  1.00 29.67 LIG 0.17  HD
ATOM     75 HE   ARG X 129       6.123  12.249 -13.261  1.00 29.42 LIG 0.18  HD
ENDBRANCH 66 67
ENDBRANCH 65 66
ENDBRANCH 64 65
ENDBRANCH 1 64
TORSDOF 27
ENDMDL
MODEL 35
USER: ADFR SOLUTION from run 134
USER: SCORE 28.248612 LL:  -4.200 LR: -25.465 RR:   0.000 FEB: -17.411
USER: RMSD 10.977645
USER: SEED 133
USER: STATUS no improvement in best in 8 clusters for 5 generations
USER: GENES 29
USER: genes 0 Translation |==|  0.45187 0.40337 0.45978
USER: genes 1 Rotation |==|  0.49398 0.56627 0.00895 0.56662
USER: genes 2 Torsion [C]-CA--N-[C] |==|  0.64441
USER: genes 3 Torsion [N]-C--CA-[N] |==|  0.21473
USER: genes 4 Torsion [C]-CA--CB-[CG] |==|  0.35647
USER: genes 5 Torsion [CA]-CB--CG-[CD] |==|  0.52833
USER: genes 6 Torsion [CB]-CG--CD-[NE] |==|  0.85943
USER: genes 7 Torsion [CG]-CD--NE-[HE] |==|  0.10906
USER: genes 8 Torsion [C]-CA--N-[C] |==|  0.52615
USER: genes 9 Torsion [N]-C--CA-[N] |==|  0.05256
USER: genes 10 Torsion [C]-CA--N-[C] |==|  0.17587
USER: genes 11 Torsion [N]-C--CA-[N] |==|  0.85235
USER: genes 12 Torsion [C]-CA--CB-[CG] |==|  0.27281
USER: genes 13 Torsion [CA]-CB--CG-[CD2] |==|  0.45478
USER: genes 14 Torsion [N]-CA--C-[N] |==|  0.44728
USER: genes 15 Torsion [C]-N--CA-[C] |==|  0.66106
USER: genes 16 Torsion [N]-CA--C-[N] |==|  0.42031
USER: genes 17 Torsion [C]-N--CA-[C] |==|  0.65384
USER: genes 18 Torsion [N]-CA--C-[O] |==|  0.44011
USER: genes 19 Torsion [N]-CA--CB-[CG] |==|  0.61548
USER: genes 20 Torsion [CA]-CB--CG-[CD] |==|  0.25167
USER: genes 21 Torsion [CB]-CG--CD-[NE] |==|  0.85695
USER: genes 22 Torsion [CG]-CD--NE-[CZ] |==|  0.64920
USER: genes 23 Torsion [N]-CA--CB-[CG] |==|  0.77334
USER: genes 24 Torsion [CA]-CB--CG-[CD1] |==|  0.14702
USER: genes 25 Torsion [N]-CA--CB-[CG] |==|  0.52475
USER: genes 26 Torsion [CA]-CB--CG-[CD] |==|  0.38456
USER: genes 27 Torsion [CB]-CG--CD-[NE] |==|  0.48284
USER: genes 28 Torsion [CG]-CD--NE-[HE] |==|  0.17854
ROOT
ATOM      1  CA  ARG X 129       1.060  12.023  -8.081  1.00 23.09 LIG 0.18  C 
ENDROOT
BRANCH 1 2
ATOM      2  N   ARG X 129      -0.022  11.248  -8.674  1.00 20.82 LIG-0.35  N 
ATOM      3  C   ARG X 128      -1.148  11.766  -9.168  1.00 20.67 LIG 0.24  C 
ATOM      4 O    ARG X 128      -1.433  12.991  -9.156  1.00 18.99 LIG-0.27  OA
ATOM      5 H    ARG X 129       0.135  10.403  -8.677  1.00 20.82 LIG 0.16  HD
BRANCH 3 6
ATOM      6  CA  ARG X 128      -2.114  10.759  -9.789  1.00 21.45 LIG 0.18  C 
BRANCH 6 7
ATOM      7  CB  ARG X 128      -3.136  11.459 -10.666  1.00 22.98 LIG 0.04  C 
BRANCH 7 8
ATOM      8  CG  ARG X 128      -3.192  10.813 -12.065  1.00 26.06 LIG 0.02  C 
BRANCH 8 9
ATOM      9  CD  ARG X 128      -4.028  11.585 -13.175  1.00 28.46 LIG 0.14  C 
BRANCH 9 10
ATOM     10  NE  ARG X 128      -5.393  12.049 -12.970  1.00 34.87 LIG-0.23  N 
ATOM     11 HE   ARG X 128      -5.581  12.375 -12.196  1.00 34.87 LIG 0.18  HD
ATOM     12  CZ  ARG X 128      -6.384  12.016 -13.870  1.00 35.06 LIG 0.67  C 
ATOM     13  NH1 ARG X 128      -6.233  11.483 -15.068  1.00 38.28 LIG-0.23  N 
ATOM     14  NH2 ARG X 128      -7.552  12.492 -13.543  1.00 41.06 LIG-0.23  N 
ATOM     15 1HH1 ARG X 128      -5.477  11.141 -15.294  1.00 38.28 LIG 0.17  HD
ATOM     16 2HH1 ARG X 128      -6.890  11.479 -15.623  1.00 38.28 LIG 0.17  HD
ATOM     17 1HH2 ARG X 128      -7.678  12.821 -12.758  1.00 41.06 LIG 0.17  HD
ATOM     18 2HH2 ARG X 128      -8.197  12.477 -14.112  1.00 41.06 LIG 0.17  HD
ENDBRANCH 9 10
ENDBRANCH 8 9
ENDBRANCH 7 8
ENDBRANCH 6 7
BRANCH 6 19
ATOM     19  N   ARG X 128      -2.836  10.041  -8.772  1.00 22.62 LIG-0.35  N 
ATOM     20 H    ARG X 128      -2.729  10.354  -7.978  1.00 22.62 LIG 0.16  HD
ATOM     21  C   ALA X 127      -3.595   8.991  -9.054  1.00 23.78 LIG 0.24  C 
ATOM     22 O    ALA X 127      -3.791   8.592 -10.200  1.00 22.39 LIG-0.27  OA
BRANCH 21 23
ATOM     23  CA  ALA X 127      -4.347   8.365  -7.868  1.00 25.08 LIG 0.17  C 
ATOM     24  CB  ALA X 127      -5.736   7.877  -8.258  1.00 24.37 LIG 0.04  C 
BRANCH 23 25
ATOM     25  N   ALA X 127      -4.386   9.360  -6.802  1.00 27.78 LIG-0.35  N 
ATOM     26  C   LEU X 126      -5.054  10.480  -7.073  1.00 33.19 LIG 0.26  C 
ATOM     27 O    LEU X 126      -5.700  10.659  -8.152  1.00 34.96 LIG-0.27  OA
ATOM     28 H    ALA X 127      -3.979   9.165  -6.069  1.00 27.78 LIG 0.16  HD
BRANCH 26 29
ATOM     29  CA  LEU X 126      -5.011  11.563  -6.034  1.00 34.21 LIG 0.40  C 
ATOM     30  N   LEU X 126      -5.417  11.059  -4.707  1.00 36.42 LIG 0.61  N 
BRANCH 29 31
ATOM     31  CB  LEU X 126      -3.574  12.124  -6.002  1.00 35.53 LIG 0.06  C 
BRANCH 31 32
ATOM     32  CG  LEU X 126      -3.350  13.417  -6.797  1.00 35.00 LIG-0.02  C 
ATOM     33  CD2 LEU X 126      -2.017  14.073  -6.352  1.00 38.18 LIG 0.01  C 
ATOM     34  CD1 LEU X 126      -4.479  14.377  -6.606  1.00 36.44 LIG 0.01  C 
ENDBRANCH 31 32
ENDBRANCH 29 31
ENDBRANCH 26 29
ENDBRANCH 23 25
ENDBRANCH 21 23
ENDBRANCH 6 19
ENDBRANCH 3 6
ENDBRANCH 1 2
BRANCH 1 35
ATOM     35  C   ARG X 129       2.440  11.685  -8.709  1.00 22.72 LIG 0.24  C 
ATOM     36  N   LEU X 130       3.478  12.528  -8.582  1.00 24.32 LIG-0.35  N 
ATOM     37 H    LEU X 130       3.431  13.323  -8.256  1.00 24.32 LIG 0.16  HD
ATOM     38 O    ARG X 129       2.557  10.617  -9.310  1.00 21.19 LIG-0.27  OA
BRANCH 36 39
ATOM     39  CA  LEU X 130       4.829  12.102  -9.025  1.00 26.11 LIG 0.18  C 
BRANCH 39 40
ATOM     40  C   LEU X 130       5.833  12.168  -7.898  1.00 29.66 LIG 0.24  C 
ATOM     41 O    LEU X 130       5.701  13.017  -7.003  1.00 28.98 LIG-0.27  OA
ATOM     42  N   ARG X 131       6.854  11.317  -7.951  1.00 30.67 LIG-0.34  N 
ATOM     43 H    ARG X 131       6.920  10.677  -8.522  1.00 30.67 LIG 0.16  HD
BRANCH 42 44
ATOM     44  CA  ARG X 131       7.959  11.413  -7.021  1.00 33.89 LIG 0.18  C 
BRANCH 44 45
ATOM     45  C   ARG X 131       9.304  11.531  -7.740  1.00 35.66 LIG 0.20  C 
ATOM     46 OXT  ARG X 131       9.462  11.132  -8.915  1.00 35.07 LIG-0.65  OA
ATOM     47 O    ARG X 131      10.317  12.019  -7.157  1.00 37.10 LIG-0.65  OA
ENDBRANCH 44 45
BRANCH 44 48
ATOM     48  CB  ARG X 131       7.960  10.186  -6.104  1.00 35.20 LIG 0.04  C 
BRANCH 48 49
ATOM     49  CG  ARG X 131       8.264  10.512  -4.630  1.00 40.01 LIG 0.02  C 
BRANCH 49 50
ATOM     50  CD  ARG X 131       7.004  10.813  -3.776  1.00 47.84 LIG 0.14  C 
BRANCH 50 51
ATOM     51  NE  ARG X 131       6.169  11.829  -4.419  1.00 52.72 LIG-0.23  N 
ATOM     52  CZ  ARG X 131       5.749  12.958  -3.844  1.00 57.07 LIG 0.67  C 
ATOM     53  NH1 ARG X 131       6.102  13.265  -2.585  1.00 58.64 LIG-0.23  N 
ATOM     54  NH2 ARG X 131       4.975  13.794  -4.540  1.00 59.02 LIG-0.23  N 
ATOM     55 2HH1 ARG X 131       5.825  13.996  -2.226  1.00 58.64 LIG 0.17  HD
ATOM     56 1HH1 ARG X 131       6.607  12.732  -2.138  1.00 58.64 LIG 0.17  HD
ATOM     57 2HH2 ARG X 131       4.697  14.525  -4.180  1.00 59.02 LIG 0.17  HD
ATOM     58 1HH2 ARG X 131       4.753  13.603  -5.349  1.00 59.02 LIG 0.17  HD
ATOM     59 HE   ARG X 131       5.931  11.686  -5.233  1.00 52.72 LIG 0.18  HD
ENDBRANCH 50 51
ENDBRANCH 49 50
ENDBRANCH 48 49
ENDBRANCH 44 48
ENDBRANCH 42 44
ENDBRANCH 39 40
BRANCH 39 60
ATOM     60  CB  LEU X 130       5.383  12.951 -10.173  1.00 27.29 LIG 0.04  C 
BRANCH 60 61
ATOM     61  CG  LEU X 130       4.971  12.680 -11.611  1.00 26.34 LIG-0.02  C 
ATOM     62  CD1 LEU X 130       3.419  12.650 -11.802  1.00 29.54 LIG 0.01  C 
ATOM     63  CD2 LEU X 130       5.571  13.742 -12.474  1.00 21.56 LIG 0.01  C 
ENDBRANCH 60 61
ENDBRANCH 39 60
ENDBRANCH 36 39
ENDBRANCH 1 35
BRANCH 1 64
ATOM     64  CB  ARG X 129       1.034  11.554  -6.609  1.00 24.17 LIG 0.04  C 
BRANCH 64 65
ATOM     65  CG  ARG X 129       1.871  12.274  -5.647  1.00 28.32 LIG 0.02  C 
BRANCH 65 66
ATOM     66  CD  ARG X 129       1.209  12.537  -4.307  1.00 31.43 LIG 0.14  C 
BRANCH 66 67
ATOM     67  NE  ARG X 129       2.066  13.131  -3.271  1.00 29.42 LIG-0.23  N 
ATOM     68  CZ  ARG X 129       2.406  12.545  -2.128  1.00 30.66 LIG 0.67  C 
ATOM     69  NH1 ARG X 129       1.896  11.367  -1.778  1.00 33.32 LIG-0.23  N 
ATOM     70  NH2 ARG X 129       3.246  13.171  -1.295  1.00 29.67 LIG-0.23  N 
ATOM     71 2HH1 ARG X 129       2.127  11.002  -1.035  1.00 33.32 LIG 0.17  HD
ATOM     72 1HH1 ARG X 129       1.336  10.971  -2.296  1.00 33.32 LIG 0.17  HD
ATOM     73 2HH2 ARG X 129       3.471  12.799  -0.553  1.00 29.67 LIG 0.17  HD
ATOM     74 1HH2 ARG X 129       3.560  13.944  -1.501  1.00 29.67 LIG 0.17  HD
ATOM     75 HE   ARG X 129       2.372  13.921  -3.416  1.00 29.42 LIG 0.18  HD
ENDBRANCH 66 67
ENDBRANCH 65 66
ENDBRANCH 64 65
ENDBRANCH 1 64
TORSDOF 27
ENDMDL
MODEL 36
USER: ADFR SOLUTION from run 84
USER: SCORE 29.575143 LL:  -4.650 LR: -25.446 RR:   0.000 FEB: -17.391
USER: RMSD 13.202258
USER: SEED 83
USER: STATUS no improvement in best in 28 clusters for 5 generations
USER: GENES 29
USER: genes 0 Translation |==|  0.58480 0.42177 0.42212
USER: genes 1 Rotation |==|  0.48569 0.03474 0.31826 0.51728
USER: genes 2 Torsion [C]-CA--N-[C] |==|  0.63333
USER: genes 3 Torsion [N]-C--CA-[N] |==|  0.36518
USER: genes 4 Torsion [C]-CA--CB-[CG] |==|  0.42231
USER: genes 5 Torsion [CA]-CB--CG-[CD] |==|  0.39678
USER: genes 6 Torsion [CB]-CG--CD-[NE] |==|  0.43767
USER: genes 7 Torsion [CG]-CD--NE-[HE] |==|  0.80543
USER: genes 8 Torsion [C]-CA--N-[C] |==|  0.65837
USER: genes 9 Torsion [N]-C--CA-[N] |==|  0.36691
USER: genes 10 Torsion [C]-CA--N-[C] |==|  0.82872
USER: genes 11 Torsion [N]-C--CA-[N] |==|  0.42476
USER: genes 12 Torsion [C]-CA--CB-[CG] |==|  0.19886
USER: genes 13 Torsion [CA]-CB--CG-[CD2] |==|  0.50203
USER: genes 14 Torsion [N]-CA--C-[N] |==|  0.37795
USER: genes 15 Torsion [C]-N--CA-[C] |==|  0.75107
USER: genes 16 Torsion [N]-CA--C-[N] |==|  0.30222
USER: genes 17 Torsion [C]-N--CA-[C] |==|  0.55603
USER: genes 18 Torsion [N]-CA--C-[O] |==|  0.94185
USER: genes 19 Torsion [N]-CA--CB-[CG] |==|  0.33218
USER: genes 20 Torsion [CA]-CB--CG-[CD] |==|  0.29328
USER: genes 21 Torsion [CB]-CG--CD-[NE] |==|  0.81348
USER: genes 22 Torsion [CG]-CD--NE-[CZ] |==|  0.36228
USER: genes 23 Torsion [N]-CA--CB-[CG] |==|  0.81172
USER: genes 24 Torsion [CA]-CB--CG-[CD1] |==|  0.63765
USER: genes 25 Torsion [N]-CA--CB-[CG] |==|  0.51809
USER: genes 26 Torsion [CA]-CB--CG-[CD] |==|  0.14986
USER: genes 27 Torsion [CB]-CG--CD-[NE] |==|  0.63069
USER: genes 28 Torsion [CG]-CD--NE-[HE] |==|  0.12817
ROOT
ATOM      1  CA  ARG X 129       4.749  12.326  -8.928  1.00 23.09 LIG 0.18  C 
ENDROOT
BRANCH 1 2
ATOM      2  N   ARG X 129       3.564  12.503  -8.099  1.00 20.82 LIG-0.35  N 
ATOM      3  C   ARG X 128       2.557  11.632  -8.014  1.00 20.67 LIG 0.24  C 
ATOM      4 O    ARG X 128       2.487  10.559  -8.665  1.00 18.99 LIG-0.27  OA
ATOM      5 H    ARG X 129       3.573  13.240  -7.656  1.00 20.82 LIG 0.16  HD
BRANCH 3 6
ATOM      6  CA  ARG X 128       1.447  12.010  -7.034  1.00 21.45 LIG 0.18  C 
BRANCH 6 7
ATOM      7  CB  ARG X 128       1.470  11.104  -5.816  1.00 22.98 LIG 0.04  C 
BRANCH 7 8
ATOM      8  CG  ARG X 128       0.901  11.833  -4.581  1.00 26.06 LIG 0.02  C 
BRANCH 8 9
ATOM      9  CD  ARG X 128       0.028  10.963  -3.578  1.00 28.46 LIG 0.14  C 
BRANCH 9 10
ATOM     10  NE  ARG X 128      -0.182  11.321  -2.183  1.00 34.87 LIG-0.23  N 
ATOM     11 HE   ARG X 128       0.496  11.256  -1.658  1.00 34.87 LIG 0.18  HD
ATOM     12  CZ  ARG X 128      -1.330  11.744  -1.638  1.00 35.06 LIG 0.67  C 
ATOM     13  NH1 ARG X 128      -2.452  11.827  -2.330  1.00 38.28 LIG-0.23  N 
ATOM     14  NH2 ARG X 128      -1.355  12.050  -0.372  1.00 41.06 LIG-0.23  N 
ATOM     15 1HH1 ARG X 128      -2.462  11.605  -3.160  1.00 38.28 LIG 0.17  HD
ATOM     16 2HH1 ARG X 128      -3.172  12.102  -1.950  1.00 38.28 LIG 0.17  HD
ATOM     17 1HH2 ARG X 128      -0.641  11.980   0.102  1.00 41.06 LIG 0.17  HD
ATOM     18 2HH2 ARG X 128      -2.086  12.323  -0.010  1.00 41.06 LIG 0.17  HD
ENDBRANCH 9 10
ENDBRANCH 8 9
ENDBRANCH 7 8
ENDBRANCH 6 7
BRANCH 6 19
ATOM     19  N   ARG X 128       0.152  11.879  -7.646  1.00 22.62 LIG-0.35  N 
ATOM     20 H    ARG X 128      -0.013  11.093  -7.955  1.00 22.62 LIG 0.16  HD
ATOM     21  C   ALA X 127      -0.701  12.892  -7.718  1.00 23.78 LIG 0.24  C 
ATOM     22 O    ALA X 127      -0.480  13.992  -7.216  1.00 22.39 LIG-0.27  OA
BRANCH 21 23
ATOM     23  CA  ALA X 127      -2.066  12.580  -8.351  1.00 25.08 LIG 0.17  C 
ATOM     24  CB  ALA X 127      -2.177  13.113  -9.774  1.00 24.37 LIG 0.04  C 
BRANCH 23 25
ATOM     25  N   ALA X 127      -3.092  13.127  -7.471  1.00 27.78 LIG-0.35  N 
ATOM     26  C   LEU X 126      -3.135  12.621  -6.239  1.00 33.19 LIG 0.26  C 
ATOM     27 O    LEU X 126      -2.290  11.777  -5.806  1.00 34.96 LIG-0.27  OA
ATOM     28 H    ALA X 127      -3.603  13.737  -7.797  1.00 27.78 LIG 0.16  HD
BRANCH 26 29
ATOM     29  CA  LEU X 126      -4.253  13.086  -5.354  1.00 34.21 LIG 0.40  C 
ATOM     30  N   LEU X 126      -4.599  12.073  -4.337  1.00 36.42 LIG 0.61  N 
BRANCH 29 31
ATOM     31  CB  LEU X 126      -3.811  14.410  -4.695  1.00 35.53 LIG 0.06  C 
BRANCH 31 32
ATOM     32  CG  LEU X 126      -3.753  15.627  -5.627  1.00 35.00 LIG-0.02  C 
ATOM     33  CD2 LEU X 126      -3.277  16.868  -4.829  1.00 38.18 LIG 0.01  C 
ATOM     34  CD1 LEU X 126      -5.084  15.901  -6.250  1.00 36.44 LIG 0.01  C 
ENDBRANCH 31 32
ENDBRANCH 29 31
ENDBRANCH 26 29
ENDBRANCH 23 25
ENDBRANCH 21 23
ENDBRANCH 6 19
ENDBRANCH 3 6
ENDBRANCH 1 2
BRANCH 1 35
ATOM     35  C   ARG X 129       6.062  12.609  -8.149  1.00 22.72 LIG 0.24  C 
ATOM     36  N   LEU X 130       7.123  11.793  -8.270  1.00 24.32 LIG-0.35  N 
ATOM     37 H    LEU X 130       7.119  11.037  -8.680  1.00 24.32 LIG 0.16  HD
ATOM     38 O    ARG X 129       6.107  13.608  -7.431  1.00 21.19 LIG-0.27  OA
BRANCH 36 39
ATOM     39  CA  LEU X 130       8.421  12.182  -7.667  1.00 26.11 LIG 0.18  C 
BRANCH 39 40
ATOM     40  C   LEU X 130       9.268  12.982  -8.629  1.00 29.66 LIG 0.24  C 
ATOM     41 O    LEU X 130       9.815  12.414  -9.587  1.00 28.98 LIG-0.27  OA
ATOM     42  N   ARG X 131       9.418  14.277  -8.366  1.00 30.67 LIG-0.34  N 
ATOM     43 H    ARG X 131       8.988  14.698  -7.752  1.00 30.67 LIG 0.16  HD
BRANCH 42 44
ATOM     44  CA  ARG X 131      10.344  15.093  -9.122  1.00 33.89 LIG 0.18  C 
BRANCH 44 45
ATOM     45  C   ARG X 131      10.725  16.371  -8.372  1.00 35.66 LIG 0.20  C 
ATOM     46 OXT  ARG X 131      11.777  16.997  -8.625  1.00 35.07 LIG-0.65  OA
ATOM     47 O    ARG X 131       9.992  16.828  -7.446  1.00 37.10 LIG-0.65  OA
ENDBRANCH 44 45
BRANCH 44 48
ATOM     48  CB  ARG X 131       9.724  15.445 -10.478  1.00 35.20 LIG 0.04  C 
BRANCH 48 49
ATOM     49  CG  ARG X 131       9.552  16.959 -10.707  1.00 40.01 LIG 0.02  C 
BRANCH 49 50
ATOM     50  CD  ARG X 131      10.577  17.568 -11.700  1.00 47.84 LIG 0.14  C 
BRANCH 50 51
ATOM     51  NE  ARG X 131      11.929  17.529 -11.141  1.00 52.72 LIG-0.23  N 
ATOM     52  CZ  ARG X 131      13.010  17.063 -11.772  1.00 57.07 LIG 0.67  C 
ATOM     53  NH1 ARG X 131      12.930  16.604 -13.032  1.00 58.64 LIG-0.23  N 
ATOM     54  NH2 ARG X 131      14.186  17.068 -11.140  1.00 59.02 LIG-0.23  N 
ATOM     55 2HH1 ARG X 131      13.634  16.307 -13.427  1.00 58.64 LIG 0.17  HD
ATOM     56 1HH1 ARG X 131      12.175  16.606 -13.444  1.00 58.64 LIG 0.17  HD
ATOM     57 2HH2 ARG X 131      14.889  16.770 -11.537  1.00 59.02 LIG 0.17  HD
ATOM     58 1HH2 ARG X 131      14.241  17.369 -10.336  1.00 59.02 LIG 0.17  HD
ATOM     59 HE   ARG X 131      12.036  17.829 -10.343  1.00 52.72 LIG 0.18  HD
ENDBRANCH 50 51
ENDBRANCH 49 50
ENDBRANCH 48 49
ENDBRANCH 44 48
ENDBRANCH 42 44
ENDBRANCH 39 40
BRANCH 39 60
ATOM     60  CB  LEU X 130       9.261  10.983  -7.217  1.00 27.29 LIG 0.04  C 
BRANCH 60 61
ATOM     61  CG  LEU X 130       8.815  10.111  -6.055  1.00 26.34 LIG-0.02  C 
ATOM     62  CD1 LEU X 130       9.948   9.877  -5.002  1.00 29.54 LIG 0.01  C 
ATOM     63  CD2 LEU X 130       7.642  10.768  -5.404  1.00 21.56 LIG 0.01  C 
ENDBRANCH 60 61
ENDBRANCH 39 60
ENDBRANCH 36 39
ENDBRANCH 1 35
BRANCH 1 64
ATOM     64  CB  ARG X 129       4.554  13.404 -10.018  1.00 24.17 LIG 0.04  C 
BRANCH 64 65
ATOM     65  CG  ARG X 129       5.502  13.428 -11.134  1.00 28.32 LIG 0.02  C 
BRANCH 65 66
ATOM     66  CD  ARG X 129       5.648  12.107 -11.867  1.00 31.43 LIG 0.14  C 
BRANCH 66 67
ATOM     67  NE  ARG X 129       7.025  11.667 -12.132  1.00 29.42 LIG-0.23  N 
ATOM     68  CZ  ARG X 129       7.469  11.198 -13.293  1.00 30.66 LIG 0.67  C 
ATOM     69  NH1 ARG X 129       6.644  10.992 -14.316  1.00 33.32 LIG-0.23  N 
ATOM     70  NH2 ARG X 129       8.765  10.889 -13.423  1.00 29.67 LIG-0.23  N 
ATOM     71 2HH1 ARG X 129       6.948  10.687 -15.060  1.00 33.32 LIG 0.17  HD
ATOM     72 1HH1 ARG X 129       5.805  11.163 -14.232  1.00 33.32 LIG 0.17  HD
ATOM     73 2HH2 ARG X 129       9.061  10.584 -14.170  1.00 29.67 LIG 0.17  HD
ATOM     74 1HH2 ARG X 129       9.301  10.994 -12.759  1.00 29.67 LIG 0.17  HD
ATOM     75 HE   ARG X 129       7.588  11.717 -11.485  1.00 29.42 LIG 0.18  HD
ENDBRANCH 66 67
ENDBRANCH 65 66
ENDBRANCH 64 65
ENDBRANCH 1 64
TORSDOF 27
ENDMDL
MODEL 37
USER: ADFR SOLUTION from run 98
USER: SCORE 29.568916 LL:  -4.685 LR: -25.390 RR:   0.000 FEB: -17.336
USER: RMSD 10.469986
USER: SEED 97
USER: STATUS no improvement in best in 10 clusters for 5 generations
USER: GENES 29
USER: genes 0 Translation |==|  0.46823 0.39694 0.45906
USER: genes 1 Rotation |==|  0.48643 0.57928 0.02034 0.61602
USER: genes 2 Torsion [C]-CA--N-[C] |==|  0.67925
USER: genes 3 Torsion [N]-C--CA-[N] |==|  0.38206
USER: genes 4 Torsion [C]-CA--CB-[CG] |==|  0.04296
USER: genes 5 Torsion [CA]-CB--CG-[CD] |==|  0.59986
USER: genes 6 Torsion [CB]-CG--CD-[NE] |==|  0.48804
USER: genes 7 Torsion [CG]-CD--NE-[HE] |==|  0.08927
USER: genes 8 Torsion [C]-CA--N-[C] |==|  0.74864
USER: genes 9 Torsion [N]-C--CA-[N] |==|  0.97222
USER: genes 10 Torsion [C]-CA--N-[C] |==|  0.78757
USER: genes 11 Torsion [N]-C--CA-[N] |==|  0.29314
USER: genes 12 Torsion [C]-CA--CB-[CG] |==|  0.31675
USER: genes 13 Torsion [CA]-CB--CG-[CD2] |==|  0.83441
USER: genes 14 Torsion [N]-CA--C-[N] |==|  0.47109
USER: genes 15 Torsion [C]-N--CA-[C] |==|  0.68220
USER: genes 16 Torsion [N]-CA--C-[N] |==|  0.37540
USER: genes 17 Torsion [C]-N--CA-[C] |==|  0.66512
USER: genes 18 Torsion [N]-CA--C-[O] |==|  0.93198
USER: genes 19 Torsion [N]-CA--CB-[CG] |==|  0.61007
USER: genes 20 Torsion [CA]-CB--CG-[CD] |==|  0.25085
USER: genes 21 Torsion [CB]-CG--CD-[NE] |==|  0.74992
USER: genes 22 Torsion [CG]-CD--NE-[CZ] |==|  0.61373
USER: genes 23 Torsion [N]-CA--CB-[CG] |==|  0.83639
USER: genes 24 Torsion [CA]-CB--CG-[CD1] |==|  0.57659
USER: genes 25 Torsion [N]-CA--CB-[CG] |==|  0.88037
USER: genes 26 Torsion [CA]-CB--CG-[CD] |==|  0.74310
USER: genes 27 Torsion [CB]-CG--CD-[NE] |==|  0.46190
USER: genes 28 Torsion [CG]-CD--NE-[HE] |==|  0.90804
ROOT
ATOM      1  CA  ARG X 129       1.515  11.917  -8.097  1.00 23.09 LIG 0.18  C 
ENDROOT
BRANCH 1 2
ATOM      2  N   ARG X 129       0.601  10.972  -8.727  1.00 20.82 LIG-0.35  N 
ATOM      3  C   ARG X 128      -0.503  11.310  -9.395  1.00 20.67 LIG 0.24  C 
ATOM      4 O    ARG X 128      -0.915  12.489  -9.539  1.00 18.99 LIG-0.27  OA
ATOM      5 H    ARG X 129       0.845  10.154  -8.627  1.00 20.82 LIG 0.16  HD
BRANCH 3 6
ATOM      6  CA  ARG X 128      -1.274  10.146 -10.016  1.00 21.45 LIG 0.18  C 
BRANCH 6 7
ATOM      7  CB  ARG X 128      -1.023  10.068 -11.511  1.00 22.98 LIG 0.04  C 
BRANCH 7 8
ATOM      8  CG  ARG X 128       0.205  10.914 -11.905  1.00 26.06 LIG 0.02  C 
BRANCH 8 9
ATOM      9  CD  ARG X 128       0.135  11.665 -13.304  1.00 28.46 LIG 0.14  C 
BRANCH 9 10
ATOM     10  NE  ARG X 128       1.170  12.572 -13.778  1.00 34.87 LIG-0.23  N 
ATOM     11 HE   ARG X 128       1.978  12.401 -13.536  1.00 34.87 LIG 0.18  HD
ATOM     12  CZ  ARG X 128       0.986  13.648 -14.553  1.00 35.06 LIG 0.67  C 
ATOM     13  NH1 ARG X 128      -0.213  14.046 -14.937  1.00 38.28 LIG-0.23  N 
ATOM     14  NH2 ARG X 128       2.021  14.353 -14.914  1.00 41.06 LIG-0.23  N 
ATOM     15 1HH1 ARG X 128      -0.911  13.610 -14.688  1.00 38.28 LIG 0.17  HD
ATOM     16 2HH1 ARG X 128      -0.296  14.742 -15.435  1.00 38.28 LIG 0.17  HD
ATOM     17 1HH2 ARG X 128       2.809  14.125 -14.655  1.00 41.06 LIG 0.17  HD
ATOM     18 2HH2 ARG X 128       1.917  15.046 -15.413  1.00 41.06 LIG 0.17  HD
ENDBRANCH 9 10
ENDBRANCH 8 9
ENDBRANCH 7 8
ENDBRANCH 6 7
BRANCH 6 19
ATOM     19  N   ARG X 128      -2.691  10.303  -9.823  1.00 22.62 LIG-0.35  N 
ATOM     20 H    ARG X 128      -3.085  10.741 -10.449  1.00 22.62 LIG 0.16  HD
ATOM     21  C   ALA X 127      -3.318   9.809  -8.763  1.00 23.78 LIG 0.24  C 
ATOM     22 O    ALA X 127      -2.756   9.130  -7.907  1.00 22.39 LIG-0.27  OA
BRANCH 21 23
ATOM     23  CA  ALA X 127      -4.841  10.012  -8.727  1.00 25.08 LIG 0.17  C 
ATOM     24  CB  ALA X 127      -5.601   8.695  -8.827  1.00 24.37 LIG 0.04  C 
BRANCH 23 25
ATOM     25  N   ALA X 127      -5.185  10.935  -9.802  1.00 27.78 LIG-0.35  N 
ATOM     26  C   LEU X 126      -4.916  12.220  -9.577  1.00 33.19 LIG 0.26  C 
ATOM     27 O    LEU X 126      -4.317  12.631  -8.534  1.00 34.96 LIG-0.27  OA
ATOM     28 H    ALA X 127      -5.538  10.598 -10.511  1.00 27.78 LIG 0.16  HD
BRANCH 26 29
ATOM     29  CA  LEU X 126      -5.365  13.200 -10.621  1.00 34.21 LIG 0.40  C 
ATOM     30  N   LEU X 126      -6.548  13.964 -10.176  1.00 36.42 LIG 0.61  N 
BRANCH 29 31
ATOM     31  CB  LEU X 126      -4.178  14.137 -10.926  1.00 35.53 LIG 0.06  C 
BRANCH 31 32
ATOM     32  CG  LEU X 126      -3.594  14.028 -12.341  1.00 35.00 LIG-0.02  C 
ATOM     33  CD2 LEU X 126      -3.091  12.582 -12.583  1.00 38.18 LIG 0.01  C 
ATOM     34  CD1 LEU X 126      -2.476  14.998 -12.546  1.00 36.44 LIG 0.01  C 
ENDBRANCH 31 32
ENDBRANCH 29 31
ENDBRANCH 26 29
ENDBRANCH 23 25
ENDBRANCH 21 23
ENDBRANCH 6 19
ENDBRANCH 3 6
ENDBRANCH 1 2
BRANCH 1 35
ATOM     35  C   ARG X 129       2.923  11.900  -8.750  1.00 22.72 LIG 0.24  C 
ATOM     36  N   LEU X 130       3.833  12.841  -8.446  1.00 24.32 LIG-0.35  N 
ATOM     37 H    LEU X 130       3.677  13.544  -7.977  1.00 24.32 LIG 0.16  HD
ATOM     38 O    ARG X 129       3.186  10.992  -9.540  1.00 21.19 LIG-0.27  OA
BRANCH 36 39
ATOM     39  CA  LEU X 130       5.227  12.699  -8.935  1.00 26.11 LIG 0.18  C 
BRANCH 39 40
ATOM     40  C   LEU X 130       6.202  12.504  -7.797  1.00 29.66 LIG 0.24  C 
ATOM     41 O    LEU X 130       6.142  13.242  -6.801  1.00 28.98 LIG-0.27  OA
ATOM     42  N   ARG X 131       7.121  11.555  -7.947  1.00 30.67 LIG-0.34  N 
ATOM     43 H    ARG X 131       7.130  10.990  -8.595  1.00 30.67 LIG 0.16  HD
BRANCH 42 44
ATOM     44  CA  ARG X 131       8.204  11.404  -6.999  1.00 33.89 LIG 0.18  C 
BRANCH 44 45
ATOM     45  C   ARG X 131       9.573  11.556  -7.664  1.00 35.66 LIG 0.20  C 
ATOM     46 OXT  ARG X 131      10.581  11.929  -7.025  1.00 35.07 LIG-0.65  OA
ATOM     47 O    ARG X 131       9.728  11.330  -8.901  1.00 37.10 LIG-0.65  OA
ENDBRANCH 44 45
BRANCH 44 48
ATOM     48  CB  ARG X 131       8.100  10.034  -6.321  1.00 35.20 LIG 0.04  C 
BRANCH 48 49
ATOM     49  CG  ARG X 131       8.430  10.058  -4.817  1.00 40.01 LIG 0.02  C 
BRANCH 49 50
ATOM     50  CD  ARG X 131       7.201  10.310  -3.903  1.00 47.84 LIG 0.14  C 
BRANCH 50 51
ATOM     51  NE  ARG X 131       7.014  11.742  -3.667  1.00 52.72 LIG-0.23  N 
ATOM     52  CZ  ARG X 131       6.678  12.292  -2.498  1.00 57.07 LIG 0.67  C 
ATOM     53  NH1 ARG X 131       6.508  11.535  -1.401  1.00 58.64 LIG-0.23  N 
ATOM     54  NH2 ARG X 131       6.521  13.616  -2.422  1.00 59.02 LIG-0.23  N 
ATOM     55 2HH1 ARG X 131       6.292  11.902  -0.654  1.00 58.64 LIG 0.17  HD
ATOM     56 1HH1 ARG X 131       6.616  10.683  -1.446  1.00 58.64 LIG 0.17  HD
ATOM     57 2HH2 ARG X 131       6.304  13.982  -1.674  1.00 59.02 LIG 0.17  HD
ATOM     58 1HH2 ARG X 131       6.636  14.104  -3.121  1.00 59.02 LIG 0.17  HD
ATOM     59 HE   ARG X 131       7.129  12.271  -4.335  1.00 52.72 LIG 0.18  HD
ENDBRANCH 50 51
ENDBRANCH 49 50
ENDBRANCH 48 49
ENDBRANCH 44 48
ENDBRANCH 42 44
ENDBRANCH 39 40
BRANCH 39 60
ATOM     60  CB  LEU X 130       5.710  13.909  -9.739  1.00 27.29 LIG 0.04  C 
BRANCH 60 61
ATOM     61  CG  LEU X 130       4.981  14.348 -10.999  1.00 26.34 LIG-0.02  C 
ATOM     62  CD1 LEU X 130       5.914  15.080 -12.017  1.00 29.54 LIG 0.01  C 
ATOM     63  CD2 LEU X 130       4.380  13.137 -11.635  1.00 21.56 LIG 0.01  C 
ENDBRANCH 60 61
ENDBRANCH 39 60
ENDBRANCH 36 39
ENDBRANCH 1 35
BRANCH 1 64
ATOM     64  CB  ARG X 129       1.608  11.373  -6.654  1.00 24.17 LIG 0.04  C 
BRANCH 64 65
ATOM     65  CG  ARG X 129       0.370  10.939  -6.005  1.00 28.32 LIG 0.02  C 
BRANCH 65 66
ATOM     66  CD  ARG X 129      -0.323  12.011  -5.184  1.00 31.43 LIG 0.14  C 
BRANCH 66 67
ATOM     67  NE  ARG X 129      -1.706  11.720  -4.780  1.00 29.42 LIG-0.23  N 
ATOM     68  CZ  ARG X 129      -2.274  12.117  -3.647  1.00 30.66 LIG 0.67  C 
ATOM     69  NH1 ARG X 129      -1.574  12.752  -2.710  1.00 33.32 LIG-0.23  N 
ATOM     70  NH2 ARG X 129      -3.564  11.838  -3.426  1.00 29.67 LIG-0.23  N 
ATOM     71 2HH1 ARG X 129      -1.956  13.002  -1.982  1.00 33.32 LIG 0.17  HD
ATOM     72 1HH1 ARG X 129      -0.738  12.912  -2.832  1.00 33.32 LIG 0.17  HD
ATOM     73 2HH2 ARG X 129      -3.939  12.091  -2.695  1.00 29.67 LIG 0.17  HD
ATOM     74 1HH2 ARG X 129      -4.017  11.405  -4.015  1.00 29.67 LIG 0.17  HD
ATOM     75 HE   ARG X 129      -2.186  11.255  -5.321  1.00 29.42 LIG 0.18  HD
ENDBRANCH 66 67
ENDBRANCH 65 66
ENDBRANCH 64 65
ENDBRANCH 1 64
TORSDOF 27
ENDMDL
MODEL 38
USER: ADFR SOLUTION from run 54
USER: SCORE 28.257127 LL:  -3.981 LR: -25.335 RR:   0.000 FEB: -17.281
USER: RMSD 11.757495
USER: SEED 53
USER: STATUS no improvement in best in 21 clusters for 5 generations
USER: GENES 29
USER: genes 0 Translation |==|  0.45894 0.40992 0.48916
USER: genes 1 Rotation |==|  0.51723 0.66312 0.02767 0.50213
USER: genes 2 Torsion [C]-CA--N-[C] |==|  0.63676
USER: genes 3 Torsion [N]-C--CA-[N] |==|  0.08175
USER: genes 4 Torsion [C]-CA--CB-[CG] |==|  0.41316
USER: genes 5 Torsion [CA]-CB--CG-[CD] |==|  0.89699
USER: genes 6 Torsion [CB]-CG--CD-[NE] |==|  0.41714
USER: genes 7 Torsion [CG]-CD--NE-[HE] |==|  0.05522
USER: genes 8 Torsion [C]-CA--N-[C] |==|  0.63361
USER: genes 9 Torsion [N]-C--CA-[N] |==|  0.15205
USER: genes 10 Torsion [C]-CA--N-[C] |==|  0.77364
USER: genes 11 Torsion [N]-C--CA-[N] |==|  0.67860
USER: genes 12 Torsion [C]-CA--CB-[CG] |==|  0.26447
USER: genes 13 Torsion [CA]-CB--CG-[CD2] |==|  0.70502
USER: genes 14 Torsion [N]-CA--C-[N] |==|  0.38987
USER: genes 15 Torsion [C]-N--CA-[C] |==|  0.55086
USER: genes 16 Torsion [N]-CA--C-[N] |==|  0.48092
USER: genes 17 Torsion [C]-N--CA-[C] |==|  0.82769
USER: genes 18 Torsion [N]-CA--C-[O] |==|  0.43673
USER: genes 19 Torsion [N]-CA--CB-[CG] |==|  0.08391
USER: genes 20 Torsion [CA]-CB--CG-[CD] |==|  0.17332
USER: genes 21 Torsion [CB]-CG--CD-[NE] |==|  0.62751
USER: genes 22 Torsion [CG]-CD--NE-[CZ] |==|  0.67140
USER: genes 23 Torsion [N]-CA--CB-[CG] |==|  0.10618
USER: genes 24 Torsion [CA]-CB--CG-[CD1] |==|  0.30243
USER: genes 25 Torsion [N]-CA--CB-[CG] |==|  0.69840
USER: genes 26 Torsion [CA]-CB--CG-[CD] |==|  0.28026
USER: genes 27 Torsion [CB]-CG--CD-[NE] |==|  0.50807
USER: genes 28 Torsion [CG]-CD--NE-[HE] |==|  0.99804
ROOT
ATOM      1  CA  ARG X 129       1.257  12.131  -7.420  1.00 23.09 LIG 0.18  C 
ENDROOT
BRANCH 1 2
ATOM      2  N   ARG X 129       0.049  11.949  -8.215  1.00 20.82 LIG-0.35  N 
ATOM      3  C   ARG X 128      -0.905  12.867  -8.373  1.00 20.67 LIG 0.24  C 
ATOM      4 O    ARG X 128      -0.900  14.000  -7.826  1.00 18.99 LIG-0.27  OA
ATOM      5 H    ARG X 129       0.006  11.174  -8.585  1.00 20.82 LIG 0.16  HD
BRANCH 3 6
ATOM      6  CA  ARG X 128      -2.052  12.467  -9.299  1.00 21.45 LIG 0.18  C 
BRANCH 6 7
ATOM      7  CB  ARG X 128      -3.352  13.120  -8.864  1.00 22.98 LIG 0.04  C 
BRANCH 7 8
ATOM      8  CG  ARG X 128      -4.259  13.396 -10.080  1.00 26.06 LIG 0.02  C 
BRANCH 8 9
ATOM      9  CD  ARG X 128      -3.538  13.852 -11.420  1.00 28.46 LIG 0.14  C 
BRANCH 9 10
ATOM     10  NE  ARG X 128      -4.059  13.561 -12.748  1.00 34.87 LIG-0.23  N 
ATOM     11 HE   ARG X 128      -4.895  13.365 -12.804  1.00 34.87 LIG 0.18  HD
ATOM     12  CZ  ARG X 128      -3.363  13.571 -13.892  1.00 35.06 LIG 0.67  C 
ATOM     13  NH1 ARG X 128      -2.063  13.797 -13.926  1.00 38.28 LIG-0.23  N 
ATOM     14  NH2 ARG X 128      -3.979  13.310 -15.010  1.00 41.06 LIG-0.23  N 
ATOM     15 1HH1 ARG X 128      -1.633  13.946 -13.196  1.00 38.28 LIG 0.17  HD
ATOM     16 2HH1 ARG X 128      -1.645  13.796 -14.678  1.00 38.28 LIG 0.17  HD
ATOM     17 1HH2 ARG X 128      -4.821  13.135 -15.007  1.00 41.06 LIG 0.17  HD
ATOM     18 2HH2 ARG X 128      -3.544  13.313 -15.752  1.00 41.06 LIG 0.17  HD
ENDBRANCH 9 10
ENDBRANCH 8 9
ENDBRANCH 7 8
ENDBRANCH 6 7
BRANCH 6 19
ATOM     19  N   ARG X 128      -2.257  11.043  -9.281  1.00 22.62 LIG-0.35  N 
ATOM     20 H    ARG X 128      -2.292  10.703  -8.492  1.00 22.62 LIG 0.16  HD
ATOM     21  C   ALA X 127      -2.379  10.334 -10.396  1.00 23.78 LIG 0.24  C 
ATOM     22 O    ALA X 127      -2.392  10.839 -11.515  1.00 22.39 LIG-0.27  OA
BRANCH 21 23
ATOM     23  CA  ALA X 127      -2.649   8.831 -10.211  1.00 25.08 LIG 0.17  C 
ATOM     24  CB  ALA X 127      -2.803   8.106 -11.542  1.00 24.37 LIG 0.04  C 
BRANCH 23 25
ATOM     25  N   ALA X 127      -3.830   8.700  -9.367  1.00 27.78 LIG-0.35  N 
ATOM     26  C   LEU X 126      -3.626   8.818  -8.055  1.00 33.19 LIG 0.26  C 
ATOM     27 O    LEU X 126      -2.497   9.114  -7.552  1.00 34.96 LIG-0.27  OA
ATOM     28 H    ALA X 127      -4.581   8.555  -9.761  1.00 27.78 LIG 0.16  HD
BRANCH 26 29
ATOM     29  CA  LEU X 126      -4.806   8.573  -7.161  1.00 34.21 LIG 0.40  C 
ATOM     30  N   LEU X 126      -5.191   9.792  -6.422  1.00 36.42 LIG 0.61  N 
BRANCH 29 31
ATOM     31  CB  LEU X 126      -5.966   8.067  -8.044  1.00 35.53 LIG 0.06  C 
BRANCH 31 32
ATOM     32  CG  LEU X 126      -6.120   6.542  -8.126  1.00 35.00 LIG-0.02  C 
ATOM     33  CD2 LEU X 126      -5.635   6.047  -9.513  1.00 38.18 LIG 0.01  C 
ATOM     34  CD1 LEU X 126      -7.537   6.124  -7.903  1.00 36.44 LIG 0.01  C 
ENDBRANCH 31 32
ENDBRANCH 29 31
ENDBRANCH 26 29
ENDBRANCH 23 25
ENDBRANCH 21 23
ENDBRANCH 6 19
ENDBRANCH 3 6
ENDBRANCH 1 2
BRANCH 1 35
ATOM     35  C   ARG X 129       2.540  11.724  -8.194  1.00 22.72 LIG 0.24  C 
ATOM     36  N   LEU X 130       3.667  12.448  -8.085  1.00 24.32 LIG-0.35  N 
ATOM     37 H    LEU X 130       3.728  13.207  -7.687  1.00 24.32 LIG 0.16  HD
ATOM     38 O    ARG X 129       2.498  10.714  -8.896  1.00 21.19 LIG-0.27  OA
BRANCH 36 39
ATOM     39  CA  LEU X 130       4.927  11.939  -8.682  1.00 26.11 LIG 0.18  C 
BRANCH 39 40
ATOM     40  C   LEU X 130       6.139  12.627  -8.099  1.00 29.66 LIG 0.24  C 
ATOM     41 O    LEU X 130       5.992  13.611  -7.358  1.00 28.98 LIG-0.27  OA
ATOM     42  N   ARG X 131       7.329  12.154  -8.456  1.00 30.67 LIG-0.34  N 
ATOM     43 H    ARG X 131       7.447  11.431  -8.908  1.00 30.67 LIG 0.16  HD
BRANCH 42 44
ATOM     44  CA  ARG X 131       8.549  12.845  -8.096  1.00 33.89 LIG 0.18  C 
BRANCH 44 45
ATOM     45  C   ARG X 131       8.617  14.244  -8.710  1.00 35.66 LIG 0.20  C 
ATOM     46 OXT  ARG X 131       7.977  14.545  -9.742  1.00 35.07 LIG-0.65  OA
ATOM     47 O    ARG X 131       9.347  15.146  -8.203  1.00 37.10 LIG-0.65  OA
ENDBRANCH 44 45
BRANCH 44 48
ATOM     48  CB  ARG X 131       9.756  12.015  -8.548  1.00 35.20 LIG 0.04  C 
BRANCH 48 49
ATOM     49  CG  ARG X 131       9.491  11.165  -9.804  1.00 40.01 LIG 0.02  C 
BRANCH 49 50
ATOM     50  CD  ARG X 131       9.148  11.995 -11.070  1.00 47.84 LIG 0.14  C 
BRANCH 50 51
ATOM     51  NE  ARG X 131       7.994  11.428 -11.767  1.00 52.72 LIG-0.23  N 
ATOM     52  CZ  ARG X 131       8.006  10.949 -13.013  1.00 57.07 LIG 0.67  C 
ATOM     53  NH1 ARG X 131       9.139  10.929 -13.735  1.00 58.64 LIG-0.23  N 
ATOM     54  NH2 ARG X 131       6.874  10.474 -13.539  1.00 59.02 LIG-0.23  N 
ATOM     55 2HH1 ARG X 131       9.133  10.617 -14.536  1.00 58.64 LIG 0.17  HD
ATOM     56 1HH1 ARG X 131       9.870  11.227 -13.395  1.00 58.64 LIG 0.17  HD
ATOM     57 2HH2 ARG X 131       6.870  10.163 -14.341  1.00 59.02 LIG 0.17  HD
ATOM     58 1HH2 ARG X 131       6.149  10.479 -13.076  1.00 59.02 LIG 0.17  HD
ATOM     59 HE   ARG X 131       7.248  11.402 -11.340  1.00 52.72 LIG 0.18  HD
ENDBRANCH 50 51
ENDBRANCH 49 50
ENDBRANCH 48 49
ENDBRANCH 44 48
ENDBRANCH 42 44
ENDBRANCH 39 40
BRANCH 39 60
ATOM     60  CB  LEU X 130       4.992  12.121 -10.200  1.00 27.29 LIG 0.04  C 
BRANCH 60 61
ATOM     61  CG  LEU X 130       4.437  13.373 -10.860  1.00 26.34 LIG-0.02  C 
ATOM     62  CD1 LEU X 130       5.556  14.313 -11.417  1.00 29.54 LIG 0.01  C 
ATOM     63  CD2 LEU X 130       3.526  12.952 -11.967  1.00 21.56 LIG 0.01  C 
ENDBRANCH 60 61
ENDBRANCH 39 60
ENDBRANCH 36 39
ENDBRANCH 1 35
BRANCH 1 64
ATOM     64  CB  ARG X 129       1.030  11.151  -6.246  1.00 24.17 LIG 0.04  C 
BRANCH 64 65
ATOM     65  CG  ARG X 129       0.740  11.719  -4.928  1.00 28.32 LIG 0.02  C 
BRANCH 65 66
ATOM     66  CD  ARG X 129      -0.727  11.694  -4.540  1.00 31.43 LIG 0.14  C 
BRANCH 66 67
ATOM     67  NE  ARG X 129      -1.062  12.316  -3.251  1.00 29.42 LIG-0.23  N 
ATOM     68  CZ  ARG X 129      -2.284  12.410  -2.739  1.00 30.66 LIG 0.67  C 
ATOM     69  NH1 ARG X 129      -3.353  12.017  -3.428  1.00 33.32 LIG-0.23  N 
ATOM     70  NH2 ARG X 129      -2.448  12.946  -1.524  1.00 29.67 LIG-0.23  N 
ATOM     71 2HH1 ARG X 129      -4.137  12.084  -3.082  1.00 33.32 LIG 0.17  HD
ATOM     72 1HH1 ARG X 129      -3.259  11.696  -4.220  1.00 33.32 LIG 0.17  HD
ATOM     73 2HH2 ARG X 129      -3.235  13.011  -1.185  1.00 29.67 LIG 0.17  HD
ATOM     74 1HH2 ARG X 129      -1.765  13.226  -1.082  1.00 29.67 LIG 0.17  HD
ATOM     75 HE   ARG X 129      -0.415  12.647  -2.791  1.00 29.42 LIG 0.18  HD
ENDBRANCH 66 67
ENDBRANCH 65 66
ENDBRANCH 64 65
ENDBRANCH 1 64
TORSDOF 27
ENDMDL
MODEL 39
USER: ADFR SOLUTION from run 150
USER: SCORE 28.082128 LL:  -4.138 LR: -25.325 RR:   0.000 FEB: -17.271
USER: RMSD 10.637031
USER: SEED 149
USER: STATUS no improvement in best in 11 clusters for 5 generations
USER: GENES 29
USER: genes 0 Translation |==|  0.43671 0.42426 0.54045
USER: genes 1 Rotation |==|  0.59377 0.37300 0.97167 0.55102
USER: genes 2 Torsion [C]-CA--N-[C] |==|  0.76334
USER: genes 3 Torsion [N]-C--CA-[N] |==|  0.57063
USER: genes 4 Torsion [C]-CA--CB-[CG] |==|  0.59086
USER: genes 5 Torsion [CA]-CB--CG-[CD] |==|  0.75022
USER: genes 6 Torsion [CB]-CG--CD-[NE] |==|  0.88758
USER: genes 7 Torsion [CG]-CD--NE-[HE] |==|  0.76351
USER: genes 8 Torsion [C]-CA--N-[C] |==|  0.62890
USER: genes 9 Torsion [N]-C--CA-[N] |==|  0.08144
USER: genes 10 Torsion [C]-CA--N-[C] |==|  0.68206
USER: genes 11 Torsion [N]-C--CA-[N] |==|  0.15726
USER: genes 12 Torsion [C]-CA--CB-[CG] |==|  0.32318
USER: genes 13 Torsion [CA]-CB--CG-[CD2] |==|  0.58112
USER: genes 14 Torsion [N]-CA--C-[N] |==|  0.32781
USER: genes 15 Torsion [C]-N--CA-[C] |==|  0.58090
USER: genes 16 Torsion [N]-CA--C-[N] |==|  0.38747
USER: genes 17 Torsion [C]-N--CA-[C] |==|  0.61615
USER: genes 18 Torsion [N]-CA--C-[O] |==|  0.14454
USER: genes 19 Torsion [N]-CA--CB-[CG] |==|  0.85967
USER: genes 20 Torsion [CA]-CB--CG-[CD] |==|  0.26367
USER: genes 21 Torsion [CB]-CG--CD-[NE] |==|  0.60528
USER: genes 22 Torsion [CG]-CD--NE-[CZ] |==|  0.67798
USER: genes 23 Torsion [N]-CA--CB-[CG] |==|  0.84918
USER: genes 24 Torsion [CA]-CB--CG-[CD1] |==|  0.42682
USER: genes 25 Torsion [N]-CA--CB-[CG] |==|  0.91680
USER: genes 26 Torsion [CA]-CB--CG-[CD] |==|  0.68082
USER: genes 27 Torsion [CB]-CG--CD-[NE] |==|  0.59849
USER: genes 28 Torsion [CG]-CD--NE-[HE] |==|  0.24570
ROOT
ATOM      1  CA  ARG X 129       0.640  12.367  -6.266  1.00 23.09 LIG 0.18  C 
ENDROOT
BRANCH 1 2
ATOM      2  N   ARG X 129      -0.805  12.209  -6.369  1.00 20.82 LIG-0.35  N 
ATOM      3  C   ARG X 128      -1.619  13.041  -7.020  1.00 20.67 LIG 0.24  C 
ATOM      4 O    ARG X 128      -1.244  14.091  -7.604  1.00 18.99 LIG-0.27  OA
ATOM      5 H    ARG X 129      -1.094  11.510  -5.960  1.00 20.82 LIG 0.16  HD
BRANCH 3 6
ATOM      6  CA  ARG X 128      -3.092  12.637  -7.036  1.00 21.45 LIG 0.18  C 
BRANCH 6 7
ATOM      7  CB  ARG X 128      -3.238  11.128  -7.112  1.00 22.98 LIG 0.04  C 
BRANCH 7 8
ATOM      8  CG  ARG X 128      -4.500  10.739  -7.908  1.00 26.06 LIG 0.02  C 
BRANCH 8 9
ATOM      9  CD  ARG X 128      -5.845  10.575  -7.077  1.00 28.46 LIG 0.14  C 
BRANCH 9 10
ATOM     10  NE  ARG X 128      -5.904   9.942  -5.768  1.00 34.87 LIG-0.23  N 
ATOM     11 HE   ARG X 128      -5.979   9.085  -5.753  1.00 34.87 LIG 0.18  HD
ATOM     12  CZ  ARG X 128      -5.853  10.565  -4.583  1.00 35.06 LIG 0.67  C 
ATOM     13  NH1 ARG X 128      -5.800  11.880  -4.479  1.00 38.28 LIG-0.23  N 
ATOM     14  NH2 ARG X 128      -5.895   9.854  -3.492  1.00 41.06 LIG-0.23  N 
ATOM     15 1HH1 ARG X 128      -5.798  12.368  -5.187  1.00 38.28 LIG 0.17  HD
ATOM     16 2HH1 ARG X 128      -5.769  12.249  -3.703  1.00 38.28 LIG 0.17  HD
ATOM     17 1HH2 ARG X 128      -5.955   8.998  -3.538  1.00 41.06 LIG 0.17  HD
ATOM     18 2HH2 ARG X 128      -5.863  10.242  -2.725  1.00 41.06 LIG 0.17  HD
ENDBRANCH 9 10
ENDBRANCH 8 9
ENDBRANCH 7 8
ENDBRANCH 6 7
BRANCH 6 19
ATOM     19  N   ARG X 128      -3.767  13.194  -8.178  1.00 22.62 LIG-0.35  N 
ATOM     20 H    ARG X 128      -3.341  13.101  -8.919  1.00 22.62 LIG 0.16  HD
ATOM     21  C   ALA X 127      -4.945  13.795  -8.077  1.00 23.78 LIG 0.24  C 
ATOM     22 O    ALA X 127      -5.575  13.865  -7.025  1.00 22.39 LIG-0.27  OA
BRANCH 21 23
ATOM     23  CA  ALA X 127      -5.564  14.289  -9.395  1.00 25.08 LIG 0.17  C 
ATOM     24  CB  ALA X 127      -7.084  14.357  -9.328  1.00 24.37 LIG 0.04  C 
BRANCH 23 25
ATOM     25  N   ALA X 127      -5.093  13.408 -10.457  1.00 27.78 LIG-0.35  N 
ATOM     26  C   LEU X 126      -4.304  13.968 -11.373  1.00 33.19 LIG 0.26  C 
ATOM     27 O    LEU X 126      -3.903  15.172 -11.301  1.00 34.96 LIG-0.27  OA
ATOM     28 H    ALA X 127      -5.349  12.588 -10.428  1.00 27.78 LIG 0.16  HD
BRANCH 26 29
ATOM     29  CA  LEU X 126      -3.901  13.110 -12.536  1.00 34.21 LIG 0.40  C 
ATOM     30  N   LEU X 126      -5.077  12.575 -13.251  1.00 36.42 LIG 0.61  N 
BRANCH 29 31
ATOM     31  CB  LEU X 126      -3.023  13.968 -13.470  1.00 35.53 LIG 0.06  C 
BRANCH 31 32
ATOM     32  CG  LEU X 126      -1.572  13.497 -13.634  1.00 35.00 LIG-0.02  C 
ATOM     33  CD2 LEU X 126      -0.661  14.717 -13.926  1.00 38.18 LIG 0.01  C 
ATOM     34  CD1 LEU X 126      -1.445  12.491 -14.732  1.00 36.44 LIG 0.01  C 
ENDBRANCH 31 32
ENDBRANCH 29 31
ENDBRANCH 26 29
ENDBRANCH 23 25
ENDBRANCH 21 23
ENDBRANCH 6 19
ENDBRANCH 3 6
ENDBRANCH 1 2
BRANCH 1 35
ATOM     35  C   ARG X 129       1.388  11.763  -7.484  1.00 22.72 LIG 0.24  C 
ATOM     36  N   LEU X 130       2.129  12.541  -8.291  1.00 24.32 LIG-0.35  N 
ATOM     37 H    LEU X 130       2.157  13.400  -8.259  1.00 24.32 LIG 0.16  HD
ATOM     38 O    ARG X 129       1.294  10.551  -7.680  1.00 21.19 LIG-0.27  OA
BRANCH 36 39
ATOM     39  CA  LEU X 130       2.982  11.917  -9.333  1.00 26.11 LIG 0.18  C 
BRANCH 39 40
ATOM     40  C   LEU X 130       4.199  12.758  -9.638  1.00 29.66 LIG 0.24  C 
ATOM     41 O    LEU X 130       4.086  13.989  -9.745  1.00 28.98 LIG-0.27  OA
ATOM     42  N   ARG X 131       5.347  12.113  -9.822  1.00 30.67 LIG-0.34  N 
ATOM     43 H    ARG X 131       5.457  11.272  -9.680  1.00 30.67 LIG 0.16  HD
BRANCH 42 44
ATOM     44  CA  ARG X 131       6.530  12.805 -10.289  1.00 33.89 LIG 0.18  C 
BRANCH 44 45
ATOM     45  C   ARG X 131       7.295  11.990 -11.333  1.00 35.66 LIG 0.20  C 
ATOM     46 OXT  ARG X 131       8.524  11.777 -11.234  1.00 35.07 LIG-0.65  OA
ATOM     47 O    ARG X 131       6.710  11.520 -12.353  1.00 37.10 LIG-0.65  OA
ENDBRANCH 44 45
BRANCH 44 48
ATOM     48  CB  ARG X 131       7.440  13.118  -9.097  1.00 35.20 LIG 0.04  C 
BRANCH 48 49
ATOM     49  CG  ARG X 131       6.716  13.808  -7.926  1.00 40.01 LIG 0.02  C 
BRANCH 49 50
ATOM     50  CD  ARG X 131       6.223  12.833  -6.823  1.00 47.84 LIG 0.14  C 
BRANCH 50 51
ATOM     51  NE  ARG X 131       4.923  13.254  -6.301  1.00 52.72 LIG-0.23  N 
ATOM     52  CZ  ARG X 131       4.688  13.646  -5.046  1.00 57.07 LIG 0.67  C 
ATOM     53  NH1 ARG X 131       5.681  13.710  -4.144  1.00 58.64 LIG-0.23  N 
ATOM     54  NH2 ARG X 131       3.446  13.989  -4.693  1.00 59.02 LIG-0.23  N 
ATOM     55 2HH1 ARG X 131       5.516  13.965  -3.340  1.00 58.64 LIG 0.17  HD
ATOM     56 1HH1 ARG X 131       6.483  13.497  -4.371  1.00 58.64 LIG 0.17  HD
ATOM     57 2HH2 ARG X 131       3.283  14.243  -3.887  1.00 59.02 LIG 0.17  HD
ATOM     58 1HH2 ARG X 131       2.810  13.955  -5.271  1.00 59.02 LIG 0.17  HD
ATOM     59 HE   ARG X 131       4.258  13.247  -6.845  1.00 52.72 LIG 0.18  HD
ENDBRANCH 50 51
ENDBRANCH 49 50
ENDBRANCH 48 49
ENDBRANCH 44 48
ENDBRANCH 42 44
ENDBRANCH 39 40
BRANCH 39 60
ATOM     60  CB  LEU X 130       2.248  11.689 -10.657  1.00 27.29 LIG 0.04  C 
BRANCH 60 61
ATOM     61  CG  LEU X 130       0.942  10.912 -10.700  1.00 26.34 LIG-0.02  C 
ATOM     62  CD1 LEU X 130       0.035  11.315 -11.908  1.00 29.54 LIG 0.01  C 
ATOM     63  CD2 LEU X 130       1.269   9.456 -10.771  1.00 21.56 LIG 0.01  C 
ENDBRANCH 60 61
ENDBRANCH 39 60
ENDBRANCH 36 39
ENDBRANCH 1 35
BRANCH 1 64
ATOM     64  CB  ARG X 129       0.973  11.549  -4.998  1.00 24.17 LIG 0.04  C 
BRANCH 64 65
ATOM     65  CG  ARG X 129      -0.049  11.460  -3.954  1.00 28.32 LIG 0.02  C 
BRANCH 65 66
ATOM     66  CD  ARG X 129       0.330  12.120  -2.641  1.00 31.43 LIG 0.14  C 
BRANCH 66 67
ATOM     67  NE  ARG X 129      -0.152  11.455  -1.422  1.00 29.42 LIG-0.23  N 
ATOM     68  CZ  ARG X 129      -1.298  11.720  -0.805  1.00 30.66 LIG 0.67  C 
ATOM     69  NH1 ARG X 129      -2.082  12.718  -1.207  1.00 33.32 LIG-0.23  N 
ATOM     70  NH2 ARG X 129      -1.651  10.997   0.264  1.00 29.67 LIG-0.23  N 
ATOM     71 2HH1 ARG X 129      -2.821  12.876  -0.797  1.00 33.32 LIG 0.17  HD
ATOM     72 1HH1 ARG X 129      -1.850  13.204  -1.877  1.00 33.32 LIG 0.17  HD
ATOM     73 2HH2 ARG X 129      -2.390  11.163   0.670  1.00 29.67 LIG 0.17  HD
ATOM     74 1HH2 ARG X 129      -1.137  10.368   0.546  1.00 29.67 LIG 0.17  HD
ATOM     75 HE   ARG X 129       0.348  10.844  -1.081  1.00 29.42 LIG 0.18  HD
ENDBRANCH 66 67
ENDBRANCH 65 66
ENDBRANCH 64 65
ENDBRANCH 1 64
TORSDOF 27
ENDMDL
MODEL 40
USER: ADFR SOLUTION from run 84
USER: SCORE 29.595098 LL:  -4.837 LR: -25.319 RR:   0.000 FEB: -17.265
USER: RMSD 12.815502
USER: SEED 83
USER: STATUS no improvement in best in 28 clusters for 5 generations
USER: GENES 29
USER: genes 0 Translation |==|  0.58529 0.41983 0.41750
USER: genes 1 Rotation |==|  0.49119 0.03512 0.31642 0.51039
USER: genes 2 Torsion [C]-CA--N-[C] |==|  0.62439
USER: genes 3 Torsion [N]-C--CA-[N] |==|  0.35824
USER: genes 4 Torsion [C]-CA--CB-[CG] |==|  0.29031
USER: genes 5 Torsion [CA]-CB--CG-[CD] |==|  0.95115
USER: genes 6 Torsion [CB]-CG--CD-[NE] |==|  0.56096
USER: genes 7 Torsion [CG]-CD--NE-[HE] |==|  0.81021
USER: genes 8 Torsion [C]-CA--N-[C] |==|  0.64987
USER: genes 9 Torsion [N]-C--CA-[N] |==|  0.36747
USER: genes 10 Torsion [C]-CA--N-[C] |==|  0.83470
USER: genes 11 Torsion [N]-C--CA-[N] |==|  0.42980
USER: genes 12 Torsion [C]-CA--CB-[CG] |==|  0.19864
USER: genes 13 Torsion [CA]-CB--CG-[CD2] |==|  0.50170
USER: genes 14 Torsion [N]-CA--C-[N] |==|  0.37697
USER: genes 15 Torsion [C]-N--CA-[C] |==|  0.75284
USER: genes 16 Torsion [N]-CA--C-[N] |==|  0.29911
USER: genes 17 Torsion [C]-N--CA-[C] |==|  0.55609
USER: genes 18 Torsion [N]-CA--C-[O] |==|  0.94124
USER: genes 19 Torsion [N]-CA--CB-[CG] |==|  0.33420
USER: genes 20 Torsion [CA]-CB--CG-[CD] |==|  0.29878
USER: genes 21 Torsion [CB]-CG--CD-[NE] |==|  0.81638
USER: genes 22 Torsion [CG]-CD--NE-[CZ] |==|  0.36163
USER: genes 23 Torsion [N]-CA--CB-[CG] |==|  0.81287
USER: genes 24 Torsion [CA]-CB--CG-[CD1] |==|  0.63801
USER: genes 25 Torsion [N]-CA--CB-[CG] |==|  0.52320
USER: genes 26 Torsion [CA]-CB--CG-[CD] |==|  0.15360
USER: genes 27 Torsion [CB]-CG--CD-[NE] |==|  0.63112
USER: genes 28 Torsion [CG]-CD--NE-[HE] |==|  0.12889
ROOT
ATOM      1  CA  ARG X 129       4.763  12.294  -9.032  1.00 23.09 LIG 0.18  C 
ENDROOT
BRANCH 1 2
ATOM      2  N   ARG X 129       3.549  12.452  -8.242  1.00 20.82 LIG-0.35  N 
ATOM      3  C   ARG X 128       2.522  11.601  -8.244  1.00 20.67 LIG 0.24  C 
ATOM      4 O    ARG X 128       2.457  10.566  -8.955  1.00 18.99 LIG-0.27  OA
ATOM      5 H    ARG X 129       3.554  13.165  -7.760  1.00 20.82 LIG 0.16  HD
BRANCH 3 6
ATOM      6  CA  ARG X 128       1.381  11.951  -7.290  1.00 21.45 LIG 0.18  C 
BRANCH 6 7
ATOM      7  CB  ARG X 128       1.297  10.946  -6.156  1.00 22.98 LIG 0.04  C 
BRANCH 7 8
ATOM      8  CG  ARG X 128       1.859  11.545  -4.851  1.00 26.06 LIG 0.02  C 
BRANCH 8 9
ATOM      9  CD  ARG X 128       2.776  12.835  -4.995  1.00 28.46 LIG 0.14  C 
BRANCH 9 10
ATOM     10  NE  ARG X 128       3.737  13.250  -3.983  1.00 34.87 LIG-0.23  N 
ATOM     11 HE   ARG X 128       3.419  13.532  -3.235  1.00 34.87 LIG 0.18  HD
ATOM     12  CZ  ARG X 128       5.071  13.234  -4.105  1.00 35.06 LIG 0.67  C 
ATOM     13  NH1 ARG X 128       5.674  12.881  -5.224  1.00 38.28 LIG-0.23  N 
ATOM     14  NH2 ARG X 128       5.803  13.617  -3.097  1.00 41.06 LIG-0.23  N 
ATOM     15 1HH1 ARG X 128       5.209  12.649  -5.909  1.00 38.28 LIG 0.17  HD
ATOM     16 2HH1 ARG X 128       6.533  12.882  -5.270  1.00 38.28 LIG 0.17  HD
ATOM     17 1HH2 ARG X 128       5.429  13.875  -2.367  1.00 41.06 LIG 0.17  HD
ATOM     18 2HH2 ARG X 128       6.661  13.612  -3.162  1.00 41.06 LIG 0.17  HD
ENDBRANCH 9 10
ENDBRANCH 8 9
ENDBRANCH 7 8
ENDBRANCH 6 7
BRANCH 6 19
ATOM     19  N   ARG X 128       0.115  11.938  -7.973  1.00 22.62 LIG-0.35  N 
ATOM     20 H    ARG X 128      -0.052  11.205  -8.392  1.00 22.62 LIG 0.16  HD
ATOM     21  C   ALA X 127      -0.712  12.975  -7.948  1.00 23.78 LIG 0.24  C 
ATOM     22 O    ALA X 127      -0.493  13.992  -7.295  1.00 22.39 LIG-0.27  OA
BRANCH 21 23
ATOM     23  CA  ALA X 127      -2.051  12.787  -8.680  1.00 25.08 LIG 0.17  C 
ATOM     24  CB  ALA X 127      -2.078  13.503 -10.025  1.00 24.37 LIG 0.04  C 
BRANCH 23 25
ATOM     25  N   ALA X 127      -3.106  13.246  -7.785  1.00 27.78 LIG-0.35  N 
ATOM     26  C   LEU X 126      -3.193  12.616  -6.614  1.00 33.19 LIG 0.26  C 
ATOM     27 O    LEU X 126      -2.365  11.727  -6.241  1.00 34.96 LIG-0.27  OA
ATOM     28 H    ALA X 127      -3.605  13.889  -8.064  1.00 27.78 LIG 0.16  HD
BRANCH 26 29
ATOM     29  CA  LEU X 126      -4.342  12.993  -5.726  1.00 34.21 LIG 0.40  C 
ATOM     30  N   LEU X 126      -4.698  11.897  -4.802  1.00 36.42 LIG 0.61  N 
BRANCH 29 31
ATOM     31  CB  LEU X 126      -3.939  14.266  -4.952  1.00 35.53 LIG 0.06  C 
BRANCH 31 32
ATOM     32  CG  LEU X 126      -3.876  15.554  -5.784  1.00 35.00 LIG-0.02  C 
ATOM     33  CD2 LEU X 126      -3.444  16.735  -4.876  1.00 38.18 LIG 0.01  C 
ATOM     34  CD1 LEU X 126      -5.193  15.857  -6.422  1.00 36.44 LIG 0.01  C 
ENDBRANCH 31 32
ENDBRANCH 29 31
ENDBRANCH 26 29
ENDBRANCH 23 25
ENDBRANCH 21 23
ENDBRANCH 6 19
ENDBRANCH 3 6
ENDBRANCH 1 2
BRANCH 1 35
ATOM     35  C   ARG X 129       6.045  12.584  -8.207  1.00 22.72 LIG 0.24  C 
ATOM     36  N   LEU X 130       7.115  11.775  -8.292  1.00 24.32 LIG-0.35  N 
ATOM     37 H    LEU X 130       7.131  11.021  -8.704  1.00 24.32 LIG 0.16  HD
ATOM     38 O    ARG X 129       6.058  13.582  -7.486  1.00 21.19 LIG-0.27  OA
BRANCH 36 39
ATOM     39  CA  LEU X 130       8.390  12.172  -7.643  1.00 26.11 LIG 0.18  C 
BRANCH 39 40
ATOM     40  C   LEU X 130       9.257  12.994  -8.569  1.00 29.66 LIG 0.24  C 
ATOM     41 O    LEU X 130       9.858  12.440  -9.503  1.00 28.98 LIG-0.27  OA
ATOM     42  N   ARG X 131       9.364  14.291  -8.299  1.00 30.67 LIG-0.34  N 
ATOM     43 H    ARG X 131       8.899  14.701  -7.704  1.00 30.67 LIG 0.16  HD
BRANCH 42 44
ATOM     44  CA  ARG X 131      10.303  15.130  -9.015  1.00 33.89 LIG 0.18  C 
BRANCH 44 45
ATOM     45  C   ARG X 131      10.621  16.415  -8.249  1.00 35.66 LIG 0.20  C 
ATOM     46 OXT  ARG X 131      11.670  17.065  -8.454  1.00 35.07 LIG-0.65  OA
ATOM     47 O    ARG X 131       9.836  16.856  -7.357  1.00 37.10 LIG-0.65  OA
ENDBRANCH 44 45
BRANCH 44 48
ATOM     48  CB  ARG X 131       9.732  15.470 -10.395  1.00 35.20 LIG 0.04  C 
BRANCH 48 49
ATOM     49  CG  ARG X 131       9.551  16.980 -10.638  1.00 40.01 LIG 0.02  C 
BRANCH 49 50
ATOM     50  CD  ARG X 131      10.577  17.589 -11.629  1.00 47.84 LIG 0.14  C 
BRANCH 50 51
ATOM     51  NE  ARG X 131      11.930  17.541 -11.073  1.00 52.72 LIG-0.23  N 
ATOM     52  CZ  ARG X 131      13.006  17.069 -11.707  1.00 57.07 LIG 0.67  C 
ATOM     53  NH1 ARG X 131      12.922  16.611 -12.966  1.00 58.64 LIG-0.23  N 
ATOM     54  NH2 ARG X 131      14.184  17.067 -11.076  1.00 59.02 LIG-0.23  N 
ATOM     55 2HH1 ARG X 131      13.623  16.309 -13.363  1.00 58.64 LIG 0.17  HD
ATOM     56 1HH1 ARG X 131      12.166  16.618 -13.377  1.00 58.64 LIG 0.17  HD
ATOM     57 2HH2 ARG X 131      14.884  16.765 -11.474  1.00 59.02 LIG 0.17  HD
ATOM     58 1HH2 ARG X 131      14.242  17.366 -10.273  1.00 59.02 LIG 0.17  HD
ATOM     59 HE   ARG X 131      12.040  17.841 -10.275  1.00 52.72 LIG 0.18  HD
ENDBRANCH 50 51
ENDBRANCH 49 50
ENDBRANCH 48 49
ENDBRANCH 44 48
ENDBRANCH 42 44
ENDBRANCH 39 40
BRANCH 39 60
ATOM     60  CB  LEU X 130       9.229  10.978  -7.181  1.00 27.29 LIG 0.04  C 
BRANCH 60 61
ATOM     61  CG  LEU X 130       8.752  10.082  -6.050  1.00 26.34 LIG-0.02  C 
ATOM     62  CD1 LEU X 130       9.846   9.848  -4.958  1.00 29.54 LIG 0.01  C 
ATOM     63  CD2 LEU X 130       7.544  10.711  -5.436  1.00 21.56 LIG 0.01  C 
ENDBRANCH 60 61
ENDBRANCH 39 60
ENDBRANCH 36 39
ENDBRANCH 1 35
BRANCH 1 64
ATOM     64  CB  ARG X 129       4.594  13.378 -10.120  1.00 24.17 LIG 0.04  C 
BRANCH 64 65
ATOM     65  CG  ARG X 129       5.554  13.394 -11.225  1.00 28.32 LIG 0.02  C 
BRANCH 65 66
ATOM     66  CD  ARG X 129       5.668  12.083 -11.981  1.00 31.43 LIG 0.14  C 
BRANCH 66 67
ATOM     67  NE  ARG X 129       7.034  11.605 -12.238  1.00 29.42 LIG-0.23  N 
ATOM     68  CZ  ARG X 129       7.481  11.148 -13.402  1.00 30.66 LIG 0.67  C 
ATOM     69  NH1 ARG X 129       6.665  10.993 -14.441  1.00 33.32 LIG-0.23  N 
ATOM     70  NH2 ARG X 129       8.768  10.800 -13.520  1.00 29.67 LIG-0.23  N 
ATOM     71 2HH1 ARG X 129       6.970  10.696 -15.188  1.00 33.32 LIG 0.17  HD
ATOM     72 1HH1 ARG X 129       5.831  11.189 -14.366  1.00 33.32 LIG 0.17  HD
ATOM     73 2HH2 ARG X 129       9.066  10.503 -14.270  1.00 29.67 LIG 0.17  HD
ATOM     74 1HH2 ARG X 129       9.297  10.873 -12.846  1.00 29.67 LIG 0.17  HD
ATOM     75 HE   ARG X 129       7.589  11.622 -11.581  1.00 29.42 LIG 0.18  HD
ENDBRANCH 66 67
ENDBRANCH 65 66
ENDBRANCH 64 65
ENDBRANCH 1 64
TORSDOF 27
ENDMDL
