MODEL 1
USER: ADFR SOLUTION from run 57
USER: SCORE 25.639018 LL:  -7.476 LR: -20.222 RR:   0.000 FEB: -11.273
USER: RMSD 2.925650
USER: SEED 56
USER: STATUS no improvement in best in 2 clusters for 5 generations
USER: GENES 32
USER: genes 0 Translation |==|  0.43753 0.41466 0.58650
USER: genes 1 Rotation |==|  0.49390 0.53230 0.50702 0.99887
USER: genes 2 Torsion [CB]-CA--N-[C] |==|  0.54599
USER: genes 3 Torsion [N]-C--CA-[N] |==|  0.42316
USER: genes 4 Torsion [C]-CA--CB-[CG] |==|  0.11926
USER: genes 5 Torsion [CA]-CB--CG-[OD2] |==|  0.15067
USER: genes 6 Torsion [C]-CA--N-[C] |==|  0.82773
USER: genes 7 Torsion [N]-C--CA-[N] |==|  0.37806
USER: genes 8 Torsion [C]-CA--N-[C] |==|  0.75873
USER: genes 9 Torsion [N]-C--CA-[N] |==|  0.55183
USER: genes 10 Torsion [C]-CA--N-[H3] |==|  0.24660
USER: genes 11 Torsion [C]-CA--CB-[CG] |==|  0.86272
USER: genes 12 Torsion [CA]-CB--CG-[CD] |==|  0.76658
USER: genes 13 Torsion [CB]-CG--CD-[OE2] |==|  0.07133
USER: genes 14 Torsion [C]-CA--CB-[CG] |==|  0.34515
USER: genes 15 Torsion [CA]-CB--CG-[CD2] |==|  0.26981
USER: genes 16 Torsion [N]-CA--CB-[CG] |==|  0.48856
USER: genes 17 Torsion [CA]-CB--CG-[CD] |==|  0.25663
USER: genes 18 Torsion [CB]-CG--CD-[CE] |==|  0.29379
USER: genes 19 Torsion [CG]-CD--CE-[NZ] |==|  0.50594
USER: genes 20 Torsion [CD]-CE--NZ-[HZ2] |==|  0.15685
USER: genes 21 Torsion [N]-CA--C-[N] |==|  0.87317
USER: genes 22 Torsion [C]-N--CA-[C] |==|  0.67867
USER: genes 23 Torsion [N]-CA--C-[N] |==|  0.03321
USER: genes 24 Torsion [C]-N--CA-[CB] |==|  0.83684
USER: genes 25 Torsion [N]-CA--C-[N] |==|  0.78122
USER: genes 26 Torsion [C]-N--CA-[CB] |==|  0.26750
USER: genes 27 Torsion [N]-CA--CB-[OG] |==|  0.98722
USER: genes 28 Torsion [CA]-CB--OG-[HG] |==|  0.66662
USER: genes 29 Torsion [N]-CA--C-[O] |==|  0.10260
USER: genes 30 Torsion [N]-CA--CB-[CG] |==|  0.97963
USER: genes 31 Torsion [CA]-CB--CG-[CD1] |==|  0.20472
ROOT
ATOM      1  CA  LYS P   4       1.795  55.646  82.786  1.00 24.08 LIG 0.18  C 
ENDROOT
BRANCH 1 2
ATOM      2  N   LYS P   4       2.235  55.336  81.429  1.00 23.78 LIG-0.35  N 
ATOM      3 H    LYS P   4       1.913  54.605  81.111  1.00 23.78 LIG 0.16  HD
ATOM      4  C   ASP P   3       3.063  56.133  80.759  1.00 23.78 LIG 0.24  C 
ATOM      5 O    ASP P   3       3.534  57.167  81.240  1.00 23.70 LIG-0.27  OA
BRANCH 4 6
ATOM      6  CA  ASP P   3       3.436  55.684  79.352  1.00 23.69 LIG 0.19  C 
BRANCH 6 7
ATOM      7  CB  ASP P   3       4.631  54.727  79.423  1.00 23.04 LIG 0.15  C 
BRANCH 7 8
ATOM      8  CG  ASP P   3       4.510  53.714  80.551  1.00 22.74 LIG 0.17  C 
ATOM      9 OD2  ASP P   3       3.481  53.005  80.613  1.00 21.45 LIG-0.65  OA
ATOM     10 OD1  ASP P   3       5.452  53.626  81.374  1.00 22.26 LIG-0.65  OA
ENDBRANCH 7 8
ENDBRANCH 6 7
BRANCH 6 11
ATOM     11  N   ASP P   3       3.761  56.831  78.507  1.00 24.40 LIG-0.35  N 
ATOM     12  C   LEU P   2       2.879  57.785  78.224  1.00 25.13 LIG 0.24  C 
ATOM     13 O    LEU P   2       1.723  57.781  78.647  1.00 24.84 LIG-0.27  OA
ATOM     14 H    ASP P   3       4.570  56.831  78.213  1.00 24.40 LIG 0.16  HD
BRANCH 12 15
ATOM     15  CA  LEU P   2       3.385  58.918  77.335  1.00 25.73 LIG 0.18  C 
BRANCH 15 16
ATOM     16  N   LEU P   2       2.437  59.295  76.288  1.00 26.50 LIG-0.35  N 
ATOM     17 H    LEU P   2       1.912  59.940  76.505  1.00 26.50 LIG 0.16  HD
ATOM     18  C   GLU P   1       2.402  58.683  75.107  1.00 27.13 LIG 0.25  C 
ATOM     19 O    GLU P   1       3.150  57.749  74.809  1.00 26.76 LIG-0.27  OA
BRANCH 18 20
ATOM     20  CA  GLU P   1       1.363  59.197  74.108  1.00 27.85 LIG 0.28  C 
BRANCH 20 21
ATOM     21  N   GLU P   1       1.123  58.177  73.050  1.00 27.86 LIG-0.07  N 
ATOM     22 H2   GLU P   1       1.870  57.712  72.910  1.00 27.86 LIG 0.28  HD
ATOM     23 H3   GLU P   1       0.475  57.626  73.310  1.00 27.86 LIG 0.28  HD
ATOM     24 H1   GLU P   1       0.882  58.583  72.295  1.00 27.86 LIG 0.28  HD
ENDBRANCH 20 21
BRANCH 20 25
ATOM     25  CB  GLU P   1       0.055  59.520  74.842  1.00 28.74 LIG 0.05  C 
BRANCH 25 26
ATOM     26  CG  GLU P   1      -0.447  58.414  75.766  1.00 29.95 LIG 0.12  C 
BRANCH 26 27
ATOM     27  CD  GLU P   1      -1.254  57.348  75.047  1.00 30.73 LIG 0.17  C 
ATOM     28 OE2  GLU P   1      -1.042  57.168  73.833  1.00 30.75 LIG-0.65  OA
ATOM     29 OE1  GLU P   1      -2.108  56.696  75.683  1.00 31.83 LIG-0.65  OA
ENDBRANCH 26 27
ENDBRANCH 25 26
ENDBRANCH 20 25
ENDBRANCH 18 20
ENDBRANCH 15 16
BRANCH 15 30
ATOM     30  CB  LEU P   2       3.717  60.130  78.211  1.00 26.14 LIG 0.04  C 
BRANCH 30 31
ATOM     31  CG  LEU P   2       5.132  60.710  78.118  1.00 26.56 LIG-0.02  C 
ATOM     32  CD2 LEU P   2       5.134  61.895  77.166  1.00 26.97 LIG 0.01  C 
ATOM     33  CD1 LEU P   2       6.101  59.626  77.630  1.00 26.91 LIG 0.01  C 
ENDBRANCH 30 31
ENDBRANCH 15 30
ENDBRANCH 12 15
ENDBRANCH 6 11
ENDBRANCH 4 6
ENDBRANCH 1 2
BRANCH 1 34
ATOM     34  CB  LYS P   4       1.204  54.395  83.447  1.00 23.66 LIG 0.04  C 
BRANCH 34 35
ATOM     35  CG  LYS P   4       0.791  54.559  84.919  1.00 23.42 LIG 0.00  C 
BRANCH 35 36
ATOM     36  CD  LYS P   4      -0.686  54.961  85.014  1.00 22.86 LIG 0.03  C 
BRANCH 36 37
ATOM     37  CE  LYS P   4      -1.589  53.808  85.481  1.00 22.94 LIG 0.23  C 
BRANCH 37 38
ATOM     38  NZ  LYS P   4      -3.034  54.203  85.520  1.00 22.16 LIG-0.08  N 
ATOM     39 HZ3  LYS P   4      -3.529  53.498  85.744  1.00 22.16 LIG 0.27  HD
ATOM     40 HZ1  LYS P   4      -3.150  54.850  86.121  1.00 22.16 LIG 0.27  HD
ATOM     41 HZ2  LYS P   4      -3.284  54.497  84.717  1.00 22.16 LIG 0.27  HD
ENDBRANCH 37 38
ENDBRANCH 36 37
ENDBRANCH 35 36
ENDBRANCH 34 35
ENDBRANCH 1 34
BRANCH 1 42
ATOM     42  C   LYS P   4       2.929  56.167  83.664  1.00 24.65 LIG 0.24  C 
ATOM     43 O    LYS P   4       2.768  57.158  84.367  1.00 24.26 LIG-0.27  OA
ATOM     44  N   TRP P   5       4.079  55.505  83.612  1.00 25.14 LIG-0.35  N 
ATOM     45 H    TRP P   5       4.234  54.836  83.095  1.00 25.14 LIG 0.16  HD
BRANCH 44 46
ATOM     46  CA  TRP P   5       5.192  55.892  84.467  1.00 26.12 LIG 0.18  C 
BRANCH 46 47
ATOM     47  C   TRP P   5       6.452  56.410  83.772  1.00 26.95 LIG 0.24  C 
ATOM     48 O    TRP P   5       7.489  56.556  84.410  1.00 26.69 LIG-0.27  OA
ATOM     49  N   ALA P   6       6.356  56.698  82.478  1.00 28.22 LIG-0.35  N 
ATOM     50 H    ALA P   6       5.636  56.609  82.017  1.00 28.22 LIG 0.16  HD
BRANCH 49 51
ATOM     51  CA  ALA P   6       7.500  57.200  81.725  1.00 29.75 LIG 0.17  C 
ATOM     52  CB  ALA P   6       8.010  58.492  82.345  1.00 29.57 LIG 0.04  C 
BRANCH 51 53
ATOM     53  C   ALA P   6       8.633  56.185  81.661  1.00 31.01 LIG 0.24  C 
ATOM     54  N   SER P   7       9.387  56.099  82.753  1.00 32.38 LIG-0.34  N 
ATOM     55 H    SER P   7       9.257  56.588  83.450  1.00 32.38 LIG 0.16  HD
ATOM     56 O    ALA P   6       8.809  55.501  80.653  1.00 31.33 LIG-0.27  OA
BRANCH 54 57
ATOM     57  CA  SER P   7      10.507  55.176  82.892  1.00 33.79 LIG 0.21  C 
BRANCH 57 58
ATOM     58  CB  SER P   7      11.826  55.884  82.558  1.00 34.23 LIG 0.20  C 
BRANCH 58 59
ATOM     59 OG   SER P   7      11.577  57.205  82.106  1.00 34.80 LIG-0.40  OA
ATOM     60 HG   SER P   7      11.876  57.296  81.326  1.00 34.80 LIG 0.21  HD
ENDBRANCH 58 59
ENDBRANCH 57 58
BRANCH 57 61
ATOM     61  C   SER P   7      10.593  54.565  84.277  1.00 34.43 LIG 0.20  C 
ATOM     62 O    SER P   7       9.517  54.284  84.863  1.00 34.68 LIG-0.65  OA
ATOM     63 OXT  SER P   7      11.733  54.386  84.757  1.00 35.29 LIG-0.65  OA
ENDBRANCH 57 61
ENDBRANCH 54 57
ENDBRANCH 51 53
ENDBRANCH 49 51
ENDBRANCH 46 47
BRANCH 46 64
ATOM     64  CB  TRP P   5       5.540  54.707  85.377  1.00 25.45 LIG 0.07  C 
BRANCH 64 65
ATOM     65  CG  TRP P   5       4.542  53.596  85.245  1.00 25.18 LIG-0.03  A 
ATOM     66  CD1 TRP P   5       4.407  52.725  84.197  1.00 25.03 LIG 0.10  A 
ATOM     67  NE1 TRP P   5       3.329  51.896  84.405  1.00 24.37 LIG-0.36  N 
ATOM     68  CE2 TRP P   5       2.745  52.220  85.601  1.00 24.69 LIG 0.04  A 
ATOM     69 HE1  TRP P   5       3.064  51.276  83.872  1.00 24.37 LIG 0.17  HD
ATOM     70  CZ2 TRP P   5       1.630  51.666  86.239  1.00 24.50 LIG 0.03  A 
ATOM     71  CD2 TRP P   5       3.487  53.290  86.159  1.00 24.80 LIG-0.00  A 
ATOM     72  CH2 TRP P   5       1.261  52.200  87.454  1.00 24.87 LIG 0.00  A 
ATOM     73  CZ3 TRP P   5       1.977  53.263  88.037  1.00 24.98 LIG 0.00  A 
ATOM     74  CE3 TRP P   5       3.093  53.814  87.398  1.00 25.01 LIG 0.01  A 
ENDBRANCH 64 65
ENDBRANCH 46 64
ENDBRANCH 44 46
ENDBRANCH 1 42
TORSDOF 30
ENDMDL
MODEL 2
USER: ADFR SOLUTION from run 57
USER: SCORE 25.651627 LL:  -8.492 LR: -20.141 RR:   0.000 FEB: -11.192
USER: RMSD 2.181023
USER: SEED 56
USER: STATUS no improvement in best in 2 clusters for 5 generations
USER: GENES 32
USER: genes 0 Translation |==|  0.44716 0.40437 0.58566
USER: genes 1 Rotation |==|  0.52557 0.54030 0.45713 0.99587
USER: genes 2 Torsion [CB]-CA--N-[C] |==|  0.51667
USER: genes 3 Torsion [N]-C--CA-[N] |==|  0.43124
USER: genes 4 Torsion [C]-CA--CB-[CG] |==|  0.11615
USER: genes 5 Torsion [CA]-CB--CG-[OD2] |==|  0.15621
USER: genes 6 Torsion [C]-CA--N-[C] |==|  0.80774
USER: genes 7 Torsion [N]-C--CA-[N] |==|  0.37381
USER: genes 8 Torsion [C]-CA--N-[C] |==|  0.77272
USER: genes 9 Torsion [N]-C--CA-[N] |==|  0.55136
USER: genes 10 Torsion [C]-CA--N-[H3] |==|  0.25584
USER: genes 11 Torsion [C]-CA--CB-[CG] |==|  0.87097
USER: genes 12 Torsion [CA]-CB--CG-[CD] |==|  0.77553
USER: genes 13 Torsion [CB]-CG--CD-[OE2] |==|  0.04847
USER: genes 14 Torsion [C]-CA--CB-[CG] |==|  0.39170
USER: genes 15 Torsion [CA]-CB--CG-[CD2] |==|  0.27652
USER: genes 16 Torsion [N]-CA--CB-[CG] |==|  0.50856
USER: genes 17 Torsion [CA]-CB--CG-[CD] |==|  0.28087
USER: genes 18 Torsion [CB]-CG--CD-[CE] |==|  0.33901
USER: genes 19 Torsion [CG]-CD--CE-[NZ] |==|  0.50672
USER: genes 20 Torsion [CD]-CE--NZ-[HZ2] |==|  0.07441
USER: genes 21 Torsion [N]-CA--C-[N] |==|  0.76275
USER: genes 22 Torsion [C]-N--CA-[C] |==|  0.80656
USER: genes 23 Torsion [N]-CA--C-[N] |==|  0.90972
USER: genes 24 Torsion [C]-N--CA-[CB] |==|  0.36618
USER: genes 25 Torsion [N]-CA--C-[N] |==|  0.27745
USER: genes 26 Torsion [C]-N--CA-[CB] |==|  0.17319
USER: genes 27 Torsion [N]-CA--CB-[OG] |==|  0.75719
USER: genes 28 Torsion [CA]-CB--OG-[HG] |==|  0.07093
USER: genes 29 Torsion [N]-CA--C-[O] |==|  0.53897
USER: genes 30 Torsion [N]-CA--CB-[CG] |==|  0.86349
USER: genes 31 Torsion [CA]-CB--CG-[CD1] |==|  0.34298
ROOT
ATOM      1  CA  LYS P   4       1.997  55.437  82.765  1.00 24.08 LIG 0.18  C 
ENDROOT
BRANCH 1 2
ATOM      2  N   LYS P   4       2.336  55.203  81.365  1.00 23.78 LIG-0.35  N 
ATOM      3 H    LYS P   4       1.968  54.505  81.024  1.00 23.78 LIG 0.16  HD
ATOM      4  C   ASP P   3       3.146  56.016  80.692  1.00 23.78 LIG 0.24  C 
ATOM      5 O    ASP P   3       3.684  57.001  81.204  1.00 23.70 LIG-0.27  OA
BRANCH 4 6
ATOM      6  CA  ASP P   3       3.409  55.648  79.238  1.00 23.69 LIG 0.19  C 
BRANCH 6 7
ATOM      7  CB  ASP P   3       4.523  54.597  79.172  1.00 23.04 LIG 0.15  C 
BRANCH 7 8
ATOM      8  CG  ASP P   3       4.390  53.527  80.245  1.00 22.74 LIG 0.17  C 
ATOM      9 OD2  ASP P   3       3.324  52.874  80.313  1.00 21.45 LIG-0.65  OA
ATOM     10 OD1  ASP P   3       5.357  53.340  81.021  1.00 22.26 LIG-0.65  OA
ENDBRANCH 7 8
ENDBRANCH 6 7
BRANCH 6 11
ATOM     11  N   ASP P   3       3.787  56.827  78.461  1.00 24.40 LIG-0.35  N 
ATOM     12  C   LEU P   2       2.929  57.804  78.180  1.00 25.13 LIG 0.24  C 
ATOM     13 O    LEU P   2       1.755  57.796  78.548  1.00 24.84 LIG-0.27  OA
ATOM     14 H    ASP P   3       4.608  56.829  78.206  1.00 24.40 LIG 0.16  HD
BRANCH 12 15
ATOM     15  CA  LEU P   2       3.489  58.968  77.367  1.00 25.73 LIG 0.18  C 
BRANCH 15 16
ATOM     16  N   LEU P   2       2.612  59.380  76.273  1.00 26.50 LIG-0.35  N 
ATOM     17 H    LEU P   2       2.118  60.061  76.455  1.00 26.50 LIG 0.16  HD
ATOM     18  C   GLU P   1       2.590  58.747  75.103  1.00 27.13 LIG 0.25  C 
ATOM     19 O    GLU P   1       3.291  57.763  74.855  1.00 26.76 LIG-0.27  OA
BRANCH 18 20
ATOM     20  CA  GLU P   1       1.628  59.303  74.050  1.00 27.85 LIG 0.28  C 
BRANCH 20 21
ATOM     21  N   GLU P   1       1.374  58.279  72.999  1.00 27.86 LIG-0.07  N 
ATOM     22 H2   GLU P   1       2.078  57.738  72.934  1.00 27.86 LIG 0.28  HD
ATOM     23 H3   GLU P   1       0.654  57.802  73.216  1.00 27.86 LIG 0.28  HD
ATOM     24 H1   GLU P   1       1.238  58.683  72.217  1.00 27.86 LIG 0.28  HD
ENDBRANCH 20 21
BRANCH 20 25
ATOM     25  CB  GLU P   1       0.311  59.716  74.720  1.00 28.74 LIG 0.05  C 
BRANCH 25 26
ATOM     26  CG  GLU P   1      -0.260  58.688  75.693  1.00 29.95 LIG 0.12  C 
BRANCH 26 27
ATOM     27  CD  GLU P   1      -1.018  57.565  75.007  1.00 30.73 LIG 0.17  C 
ATOM     28 OE2  GLU P   1      -0.833  57.388  73.788  1.00 30.75 LIG-0.65  OA
ATOM     29 OE1  GLU P   1      -1.806  56.864  75.675  1.00 31.83 LIG-0.65  OA
ENDBRANCH 26 27
ENDBRANCH 25 26
ENDBRANCH 20 25
ENDBRANCH 18 20
ENDBRANCH 15 16
BRANCH 15 30
ATOM     30  CB  LEU P   2       3.756  60.149  78.305  1.00 26.14 LIG 0.04  C 
BRANCH 30 31
ATOM     31  CG  LEU P   2       5.019  60.983  78.060  1.00 26.56 LIG-0.02  C 
ATOM     32  CD2 LEU P   2       4.653  62.247  77.302  1.00 26.97 LIG 0.01  C 
ATOM     33  CD1 LEU P   2       6.036  60.153  77.266  1.00 26.91 LIG 0.01  C 
ENDBRANCH 30 31
ENDBRANCH 15 30
ENDBRANCH 12 15
ENDBRANCH 6 11
ENDBRANCH 4 6
ENDBRANCH 1 2
BRANCH 1 34
ATOM     34  CB  LYS P   4       1.172  54.266  83.312  1.00 23.66 LIG 0.04  C 
BRANCH 34 35
ATOM     35  CG  LYS P   4       0.685  54.421  84.762  1.00 23.42 LIG 0.00  C 
BRANCH 35 36
ATOM     36  CD  LYS P   4      -0.788  54.843  84.784  1.00 22.86 LIG 0.03  C 
BRANCH 36 37
ATOM     37  CE  LYS P   4      -1.680  53.857  85.557  1.00 22.94 LIG 0.23  C 
BRANCH 37 38
ATOM     38  NZ  LYS P   4      -3.125  54.253  85.520  1.00 22.16 LIG-0.08  N 
ATOM     39 HZ3  LYS P   4      -3.633  53.522  85.517  1.00 22.16 LIG 0.27  HD
ATOM     40 HZ1  LYS P   4      -3.316  54.745  86.237  1.00 22.16 LIG 0.27  HD
ATOM     41 HZ2  LYS P   4      -3.284  54.728  84.784  1.00 22.16 LIG 0.27  HD
ENDBRANCH 37 38
ENDBRANCH 36 37
ENDBRANCH 35 36
ENDBRANCH 34 35
ENDBRANCH 1 34
BRANCH 1 42
ATOM     42  C   LYS P   4       3.232  55.611  83.645  1.00 24.65 LIG 0.24  C 
ATOM     43 O    LYS P   4       3.675  56.729  83.883  1.00 24.26 LIG-0.27  OA
ATOM     44  N   TRP P   5       3.793  54.503  84.114  1.00 25.14 LIG-0.35  N 
ATOM     45 H    TRP P   5       3.532  53.706  83.925  1.00 25.14 LIG 0.16  HD
BRANCH 44 46
ATOM     46  CA  TRP P   5       4.934  54.578  85.016  1.00 26.12 LIG 0.18  C 
BRANCH 46 47
ATOM     47  C   TRP P   5       6.256  55.065  84.421  1.00 26.95 LIG 0.24  C 
ATOM     48 O    TRP P   5       7.035  55.717  85.108  1.00 26.69 LIG-0.27  OA
ATOM     49  N   ALA P   6       6.497  54.763  83.149  1.00 28.22 LIG-0.35  N 
ATOM     50 H    ALA P   6       5.959  54.314  82.650  1.00 28.22 LIG 0.16  HD
BRANCH 49 51
ATOM     51  CA  ALA P   6       7.728  55.183  82.489  1.00 29.75 LIG 0.17  C 
ATOM     52  CB  ALA P   6       8.355  54.009  81.751  1.00 29.57 LIG 0.04  C 
BRANCH 51 53
ATOM     53  C   ALA P   6       7.494  56.330  81.516  1.00 31.01 LIG 0.24  C 
ATOM     54  N   SER P   7       7.807  57.540  81.972  1.00 32.38 LIG-0.34  N 
ATOM     55 H    SER P   7       8.111  57.676  82.766  1.00 32.38 LIG 0.16  HD
ATOM     56 O    ALA P   6       7.050  56.118  80.389  1.00 31.33 LIG-0.27  OA
BRANCH 54 57
ATOM     57  CA  SER P   7       7.670  58.761  81.186  1.00 33.79 LIG 0.21  C 
BRANCH 57 58
ATOM     58  CB  SER P   7       6.200  58.994  80.816  1.00 34.23 LIG 0.20  C 
BRANCH 58 59
ATOM     59 OG   SER P   7       5.881  58.320  79.611  1.00 34.80 LIG-0.40  OA
ATOM     60 HG   SER P   7       6.399  57.667  79.508  1.00 34.80 LIG 0.21  HD
ENDBRANCH 58 59
ENDBRANCH 57 58
BRANCH 57 61
ATOM     61  C   SER P   7       8.217  59.980  81.902  1.00 34.43 LIG 0.20  C 
ATOM     62 O    SER P   7       7.916  61.113  81.448  1.00 34.68 LIG-0.65  OA
ATOM     63 OXT  SER P   7       8.945  59.783  82.898  1.00 35.29 LIG-0.65  OA
ENDBRANCH 57 61
ENDBRANCH 54 57
ENDBRANCH 51 53
ENDBRANCH 49 51
ENDBRANCH 46 47
BRANCH 46 64
ATOM     64  CB  TRP P   5       5.125  53.205  85.673  1.00 25.45 LIG 0.07  C 
BRANCH 64 65
ATOM     65  CG  TRP P   5       3.838  52.676  86.232  1.00 25.18 LIG-0.03  A 
ATOM     66  CD1 TRP P   5       3.235  51.483  85.933  1.00 25.03 LIG 0.10  A 
ATOM     67  NE1 TRP P   5       2.029  51.384  86.587  1.00 24.37 LIG-0.36  N 
ATOM     68  CE2 TRP P   5       1.831  52.521  87.325  1.00 24.69 LIG 0.04  A 
ATOM     69 HE1  TRP P   5       1.487  50.718  86.540  1.00 24.37 LIG 0.17  HD
ATOM     70  CZ2 TRP P   5       0.761  52.885  88.150  1.00 24.50 LIG 0.03  A 
ATOM     71  CD2 TRP P   5       2.956  53.358  87.124  1.00 24.80 LIG-0.00  A 
ATOM     72  CH2 TRP P   5       0.830  54.109  88.779  1.00 24.87 LIG 0.00  A 
ATOM     73  CZ3 TRP P   5       1.933  54.964  88.601  1.00 24.98 LIG 0.00  A 
ATOM     74  CE3 TRP P   5       3.003  54.598  87.777  1.00 25.01 LIG 0.01  A 
ENDBRANCH 64 65
ENDBRANCH 46 64
ENDBRANCH 44 46
ENDBRANCH 1 42
TORSDOF 30
ENDMDL
MODEL 3
USER: ADFR SOLUTION from run 179
USER: SCORE 23.903369 LL:  -7.090 LR: -19.142 RR:   0.000 FEB: -10.193
USER: RMSD 4.890145
USER: SEED 178
USER: STATUS 1 or 2 clusters left
USER: GENES 32
USER: genes 0 Translation |==|  0.43838 0.41237 0.58590
USER: genes 1 Rotation |==|  0.48183 0.54076 0.52955 0.99713
USER: genes 2 Torsion [CB]-CA--N-[C] |==|  0.55556
USER: genes 3 Torsion [N]-C--CA-[N] |==|  0.44177
USER: genes 4 Torsion [C]-CA--CB-[CG] |==|  0.11127
USER: genes 5 Torsion [CA]-CB--CG-[OD2] |==|  0.16316
USER: genes 6 Torsion [C]-CA--N-[C] |==|  0.81527
USER: genes 7 Torsion [N]-C--CA-[N] |==|  0.89371
USER: genes 8 Torsion [C]-CA--N-[C] |==|  0.57239
USER: genes 9 Torsion [N]-C--CA-[N] |==|  0.41211
USER: genes 10 Torsion [C]-CA--N-[H3] |==|  0.69650
USER: genes 11 Torsion [C]-CA--CB-[CG] |==|  0.50548
USER: genes 12 Torsion [CA]-CB--CG-[CD] |==|  0.23595
USER: genes 13 Torsion [CB]-CG--CD-[OE2] |==|  0.33720
USER: genes 14 Torsion [C]-CA--CB-[CG] |==|  0.27941
USER: genes 15 Torsion [CA]-CB--CG-[CD2] |==|  0.79152
USER: genes 16 Torsion [N]-CA--CB-[CG] |==|  0.69268
USER: genes 17 Torsion [CA]-CB--CG-[CD] |==|  0.68067
USER: genes 18 Torsion [CB]-CG--CD-[CE] |==|  0.59614
USER: genes 19 Torsion [CG]-CD--CE-[NZ] |==|  0.77169
USER: genes 20 Torsion [CD]-CE--NZ-[HZ2] |==|  0.80377
USER: genes 21 Torsion [N]-CA--C-[N] |==|  0.83203
USER: genes 22 Torsion [C]-N--CA-[C] |==|  0.72491
USER: genes 23 Torsion [N]-CA--C-[N] |==|  0.99833
USER: genes 24 Torsion [C]-N--CA-[CB] |==|  0.80367
USER: genes 25 Torsion [N]-CA--C-[N] |==|  0.13617
USER: genes 26 Torsion [C]-N--CA-[CB] |==|  0.89104
USER: genes 27 Torsion [N]-CA--CB-[OG] |==|  0.88489
USER: genes 28 Torsion [CA]-CB--OG-[HG] |==|  0.38431
USER: genes 29 Torsion [N]-CA--C-[O] |==|  0.07736
USER: genes 30 Torsion [N]-CA--CB-[CG] |==|  0.85743
USER: genes 31 Torsion [CA]-CB--CG-[CD1] |==|  0.76807
ROOT
ATOM      1  CA  LYS P   4       1.813  55.600  82.771  1.00 24.08 LIG 0.18  C 
ENDROOT
BRANCH 1 2
ATOM      2  N   LYS P   4       2.235  55.271  81.413  1.00 23.78 LIG-0.35  N 
ATOM      3 H    LYS P   4       1.934  54.521  81.121  1.00 23.78 LIG 0.16  HD
ATOM      4  C   ASP P   3       3.019  56.081  80.706  1.00 23.78 LIG 0.24  C 
ATOM      5 O    ASP P   3       3.461  57.143  81.151  1.00 23.70 LIG-0.27  OA
BRANCH 4 6
ATOM      6  CA  ASP P   3       3.378  55.610  79.302  1.00 23.69 LIG 0.19  C 
BRANCH 6 7
ATOM      7  CB  ASP P   3       4.501  54.571  79.387  1.00 23.04 LIG 0.15  C 
BRANCH 7 8
ATOM      8  CG  ASP P   3       4.330  53.608  80.551  1.00 22.74 LIG 0.17  C 
ATOM      9 OD2  ASP P   3       3.288  52.917  80.610  1.00 21.45 LIG-0.65  OA
ATOM     10 OD1  ASP P   3       5.243  53.543  81.408  1.00 22.26 LIG-0.65  OA
ENDBRANCH 7 8
ENDBRANCH 6 7
BRANCH 6 11
ATOM     11  N   ASP P   3       3.796  56.733  78.466  1.00 24.40 LIG-0.35  N 
ATOM     12  C   LEU P   2       2.963  57.704  78.102  1.00 25.13 LIG 0.24  C 
ATOM     13 O    LEU P   2       1.779  57.736  78.438  1.00 24.84 LIG-0.27  OA
ATOM     14 H    ASP P   3       4.624  56.707  78.234  1.00 24.40 LIG 0.16  HD
BRANCH 12 15
ATOM     15  CA  LEU P   2       3.564  58.807  77.235  1.00 25.73 LIG 0.18  C 
BRANCH 15 16
ATOM     16  N   LEU P   2       4.927  59.165  77.623  1.00 26.50 LIG-0.35  N 
ATOM     17 H    LEU P   2       5.359  58.532  78.015  1.00 26.50 LIG 0.16  HD
ATOM     18  C   GLU P   1       5.441  60.369  77.383  1.00 27.13 LIG 0.25  C 
ATOM     19 O    GLU P   1       4.811  61.274  76.832  1.00 26.76 LIG-0.27  OA
BRANCH 18 20
ATOM     20  CA  GLU P   1       6.886  60.590  77.837  1.00 27.85 LIG 0.28  C 
BRANCH 20 21
ATOM     21  N   GLU P   1       7.568  61.547  76.921  1.00 27.86 LIG-0.07  N 
ATOM     22 H2   GLU P   1       7.973  62.179  77.400  1.00 27.86 LIG 0.28  HD
ATOM     23 H3   GLU P   1       8.171  61.113  76.433  1.00 27.86 LIG 0.28  HD
ATOM     24 H1   GLU P   1       6.966  61.924  76.384  1.00 27.86 LIG 0.28  HD
ENDBRANCH 20 21
BRANCH 20 25
ATOM     25  CB  GLU P   1       6.901  61.126  79.274  1.00 28.74 LIG 0.05  C 
BRANCH 25 26
ATOM     26  CG  GLU P   1       8.290  61.433  79.826  1.00 29.95 LIG 0.12  C 
BRANCH 26 27
ATOM     27  CD  GLU P   1       8.794  62.817  79.454  1.00 30.73 LIG 0.17  C 
ATOM     28 OE2  GLU P   1       9.088  63.603  80.373  1.00 30.75 LIG-0.65  OA
ATOM     29 OE1  GLU P   1       8.887  63.128  78.248  1.00 31.83 LIG-0.65  OA
ENDBRANCH 26 27
ENDBRANCH 25 26
ENDBRANCH 20 25
ENDBRANCH 18 20
ENDBRANCH 15 16
BRANCH 15 30
ATOM     30  CB  LEU P   2       3.530  58.364  75.769  1.00 26.14 LIG 0.04  C 
BRANCH 30 31
ATOM     31  CG  LEU P   2       2.412  58.923  74.882  1.00 26.56 LIG-0.02  C 
ATOM     32  CD2 LEU P   2       1.103  58.230  75.217  1.00 26.97 LIG 0.01  C 
ATOM     33  CD1 LEU P   2       2.772  58.710  73.406  1.00 26.91 LIG 0.01  C 
ENDBRANCH 30 31
ENDBRANCH 15 30
ENDBRANCH 12 15
ENDBRANCH 6 11
ENDBRANCH 4 6
ENDBRANCH 1 2
BRANCH 1 34
ATOM     34  CB  LYS P   4       1.363  54.331  83.505  1.00 23.66 LIG 0.04  C 
BRANCH 34 35
ATOM     35  CG  LYS P   4      -0.143  54.236  83.798  1.00 23.42 LIG 0.00  C 
BRANCH 35 36
ATOM     36  CD  LYS P   4      -0.392  54.261  85.310  1.00 22.86 LIG 0.03  C 
BRANCH 36 37
ATOM     37  CE  LYS P   4      -1.582  53.384  85.733  1.00 22.94 LIG 0.23  C 
BRANCH 37 38
ATOM     38  NZ  LYS P   4      -2.894  54.086  85.551  1.00 22.16 LIG-0.08  N 
ATOM     39 HZ3  LYS P   4      -2.932  54.436  84.734  1.00 22.16 LIG 0.27  HD
ATOM     40 HZ1  LYS P   4      -3.560  53.504  85.656  1.00 22.16 LIG 0.27  HD
ATOM     41 HZ2  LYS P   4      -2.970  54.736  86.155  1.00 22.16 LIG 0.27  HD
ENDBRANCH 37 38
ENDBRANCH 36 37
ENDBRANCH 35 36
ENDBRANCH 34 35
ENDBRANCH 1 34
BRANCH 1 42
ATOM     42  C   LYS P   4       2.921  56.261  83.585  1.00 24.65 LIG 0.24  C 
ATOM     43 O    LYS P   4       2.777  57.395  84.029  1.00 24.26 LIG-0.27  OA
ATOM     44  N   TRP P   5       4.032  55.556  83.768  1.00 25.14 LIG-0.35  N 
ATOM     45 H    TRP P   5       4.178  54.780  83.429  1.00 25.14 LIG 0.16  HD
BRANCH 44 46
ATOM     46  CA  TRP P   5       5.113  56.083  84.589  1.00 26.12 LIG 0.18  C 
BRANCH 46 47
ATOM     47  C   TRP P   5       6.287  56.733  83.854  1.00 26.95 LIG 0.24  C 
ATOM     48 O    TRP P   5       7.217  57.217  84.490  1.00 26.69 LIG-0.27  OA
ATOM     49  N   ALA P   6       6.234  56.755  82.526  1.00 28.22 LIG-0.35  N 
ATOM     50 H    ALA P   6       5.586  56.428  82.064  1.00 28.22 LIG 0.16  HD
BRANCH 49 51
ATOM     51  CA  ALA P   6       7.302  57.354  81.734  1.00 29.75 LIG 0.17  C 
ATOM     52  CB  ALA P   6       7.287  58.868  81.891  1.00 29.57 LIG 0.04  C 
BRANCH 51 53
ATOM     53  C   ALA P   6       8.672  56.816  82.121  1.00 31.01 LIG 0.24  C 
ATOM     54  N   SER P   7       8.766  55.491  82.194  1.00 32.38 LIG-0.34  N 
ATOM     55 H    SER P   7       8.101  54.966  82.045  1.00 32.38 LIG 0.16  HD
ATOM     56 O    ALA P   6       9.611  57.581  82.339  1.00 31.33 LIG-0.27  OA
BRANCH 54 57
ATOM     57  CA  SER P   7       9.997  54.785  82.532  1.00 33.79 LIG 0.21  C 
BRANCH 57 58
ATOM     58  CB  SER P   7      11.201  55.468  81.873  1.00 34.23 LIG 0.20  C 
BRANCH 58 59
ATOM     59 OG   SER P   7      10.885  55.857  80.547  1.00 34.80 LIG-0.40  OA
ATOM     60 HG   SER P   7      11.200  56.621  80.396  1.00 34.80 LIG 0.21  HD
ENDBRANCH 58 59
ENDBRANCH 57 58
BRANCH 57 61
ATOM     61  C   SER P   7      10.221  54.685  84.028  1.00 34.43 LIG 0.20  C 
ATOM     62 O    SER P   7       9.211  54.686  84.776  1.00 34.68 LIG-0.65  OA
ATOM     63 OXT  SER P   7      11.403  54.617  84.429  1.00 35.29 LIG-0.65  OA
ENDBRANCH 57 61
ENDBRANCH 54 57
ENDBRANCH 51 53
ENDBRANCH 49 51
ENDBRANCH 46 47
BRANCH 46 64
ATOM     64  CB  TRP P   5       5.620  54.960  85.503  1.00 25.45 LIG 0.07  C 
BRANCH 64 65
ATOM     65  CG  TRP P   5       4.496  54.306  86.249  1.00 25.18 LIG-0.03  A 
ATOM     66  CD1 TRP P   5       3.916  54.733  87.414  1.00 25.03 LIG 0.10  A 
ATOM     67  NE1 TRP P   5       2.968  53.827  87.832  1.00 24.37 LIG-0.36  N 
ATOM     68  CE2 TRP P   5       2.920  52.792  86.937  1.00 24.69 LIG 0.04  A 
ATOM     69 HE1  TRP P   5       2.485  53.899  88.540  1.00 24.37 LIG 0.17  HD
ATOM     70  CZ2 TRP P   5       2.123  51.642  86.932  1.00 24.50 LIG 0.03  A 
ATOM     71  CD2 TRP P   5       3.871  53.062  85.924  1.00 24.80 LIG-0.00  A 
ATOM     72  CH2 TRP P   5       2.290  50.756  85.890  1.00 24.87 LIG 0.00  A 
ATOM     73  CZ3 TRP P   5       3.226  50.995  84.867  1.00 24.98 LIG 0.00  A 
ATOM     74  CE3 TRP P   5       4.021  52.146  84.873  1.00 25.01 LIG 0.01  A 
ENDBRANCH 64 65
ENDBRANCH 46 64
ENDBRANCH 44 46
ENDBRANCH 1 42
TORSDOF 30
ENDMDL
MODEL 4
USER: ADFR SOLUTION from run 25
USER: SCORE 23.835628 LL:  -6.224 LR: -18.299 RR:   0.000 FEB:  -9.350
USER: RMSD 11.606758
USER: SEED 24
USER: STATUS no improvement in best in 3 clusters for 5 generations
USER: GENES 32
USER: genes 0 Translation |==|  0.48265 0.52115 0.40743
USER: genes 1 Rotation |==|  0.42996 0.97795 0.45078 0.61931
USER: genes 2 Torsion [CB]-CA--N-[C] |==|  0.15081
USER: genes 3 Torsion [N]-C--CA-[N] |==|  0.42215
USER: genes 4 Torsion [C]-CA--CB-[CG] |==|  0.22103
USER: genes 5 Torsion [CA]-CB--CG-[OD2] |==|  0.94347
USER: genes 6 Torsion [C]-CA--N-[C] |==|  0.83517
USER: genes 7 Torsion [N]-C--CA-[N] |==|  0.11709
USER: genes 8 Torsion [C]-CA--N-[C] |==|  0.15364
USER: genes 9 Torsion [N]-C--CA-[N] |==|  0.40222
USER: genes 10 Torsion [C]-CA--N-[H3] |==|  0.82676
USER: genes 11 Torsion [C]-CA--CB-[CG] |==|  0.29442
USER: genes 12 Torsion [CA]-CB--CG-[CD] |==|  0.82494
USER: genes 13 Torsion [CB]-CG--CD-[OE2] |==|  0.71524
USER: genes 14 Torsion [C]-CA--CB-[CG] |==|  0.43195
USER: genes 15 Torsion [CA]-CB--CG-[CD2] |==|  0.31734
USER: genes 16 Torsion [N]-CA--CB-[CG] |==|  0.16953
USER: genes 17 Torsion [CA]-CB--CG-[CD] |==|  0.58164
USER: genes 18 Torsion [CB]-CG--CD-[CE] |==|  0.07122
USER: genes 19 Torsion [CG]-CD--CE-[NZ] |==|  0.72212
USER: genes 20 Torsion [CD]-CE--NZ-[HZ2] |==|  0.16881
USER: genes 21 Torsion [N]-CA--C-[N] |==|  0.09140
USER: genes 22 Torsion [C]-N--CA-[C] |==|  0.85907
USER: genes 23 Torsion [N]-CA--C-[N] |==|  0.42222
USER: genes 24 Torsion [C]-N--CA-[CB] |==|  0.86507
USER: genes 25 Torsion [N]-CA--C-[N] |==|  0.35919
USER: genes 26 Torsion [C]-N--CA-[CB] |==|  0.29803
USER: genes 27 Torsion [N]-CA--CB-[OG] |==|  0.11637
USER: genes 28 Torsion [CA]-CB--OG-[HG] |==|  0.09228
USER: genes 29 Torsion [N]-CA--C-[O] |==|  0.88143
USER: genes 30 Torsion [N]-CA--CB-[CG] |==|  0.56066
USER: genes 31 Torsion [CA]-CB--CG-[CD1] |==|  0.69014
ROOT
ATOM      1  CA  LYS P   4       2.743  57.802  78.354  1.00 24.08 LIG 0.18  C 
ENDROOT
BRANCH 1 2
ATOM      2  N   LYS P   4       1.669  57.495  79.294  1.00 23.78 LIG-0.35  N 
ATOM      3 H    LYS P   4       0.895  57.408  78.931  1.00 23.78 LIG 0.16  HD
ATOM      4  C   ASP P   3       1.894  57.365  80.599  1.00 23.78 LIG 0.24  C 
ATOM      5 O    ASP P   3       3.008  57.517  81.106  1.00 23.70 LIG-0.27  OA
BRANCH 4 6
ATOM      6  CA  ASP P   3       0.679  57.043  81.460  1.00 23.69 LIG 0.19  C 
BRANCH 6 7
ATOM      7  CB  ASP P   3      -0.023  58.346  81.856  1.00 23.04 LIG 0.15  C 
BRANCH 7 8
ATOM      8  CG  ASP P   3      -0.903  58.905  80.749  1.00 22.74 LIG 0.17  C 
ATOM      9 OD2  ASP P   3      -0.692  58.535  79.571  1.00 21.45 LIG-0.65  OA
ATOM     10 OD1  ASP P   3      -1.808  59.715  81.060  1.00 22.26 LIG-0.65  OA
ENDBRANCH 7 8
ENDBRANCH 6 7
BRANCH 6 11
ATOM     11  N   ASP P   3       1.069  56.299  82.656  1.00 24.40 LIG-0.35  N 
ATOM     12  C   LEU P   2       1.688  55.124  82.598  1.00 25.13 LIG 0.24  C 
ATOM     13 O    LEU P   2       1.982  54.569  81.539  1.00 24.84 LIG-0.27  OA
ATOM     14 H    ASP P   3       0.862  56.690  83.394  1.00 24.40 LIG 0.16  HD
BRANCH 12 15
ATOM     15  CA  LEU P   2       2.034  54.486  83.941  1.00 25.73 LIG 0.18  C 
BRANCH 15 16
ATOM     16  N   LEU P   2       0.960  54.602  84.926  1.00 26.50 LIG-0.35  N 
ATOM     17 H    LEU P   2       1.199  54.973  85.664  1.00 26.50 LIG 0.16  HD
ATOM     18  C   GLU P   1      -0.274  54.167  84.685  1.00 27.13 LIG 0.25  C 
ATOM     19 O    GLU P   1      -0.604  53.624  83.629  1.00 26.76 LIG-0.27  OA
BRANCH 18 20
ATOM     20  CA  GLU P   1      -1.294  54.370  85.808  1.00 27.85 LIG 0.28  C 
BRANCH 20 21
ATOM     21  N   GLU P   1      -2.635  54.666  85.233  1.00 27.86 LIG-0.07  N 
ATOM     22 H2   GLU P   1      -3.230  54.749  85.890  1.00 27.86 LIG 0.28  HD
ATOM     23 H3   GLU P   1      -2.599  55.425  84.770  1.00 27.86 LIG 0.28  HD
ATOM     24 H1   GLU P   1      -2.881  54.002  84.693  1.00 27.86 LIG 0.28  HD
ENDBRANCH 20 21
BRANCH 20 25
ATOM     25  CB  GLU P   1      -1.357  53.111  86.683  1.00 28.74 LIG 0.05  C 
BRANCH 25 26
ATOM     26  CG  GLU P   1      -0.689  53.250  88.048  1.00 29.95 LIG 0.12  C 
BRANCH 26 27
ATOM     27  CD  GLU P   1       0.805  53.510  87.964  1.00 30.73 LIG 0.17  C 
ATOM     28 OE2  GLU P   1       1.581  52.561  88.185  1.00 30.75 LIG-0.65  OA
ATOM     29 OE1  GLU P   1       1.209  54.658  87.690  1.00 31.83 LIG-0.65  OA
ENDBRANCH 26 27
ENDBRANCH 25 26
ENDBRANCH 20 25
ENDBRANCH 18 20
ENDBRANCH 15 16
BRANCH 15 30
ATOM     30  CB  LEU P   2       2.391  53.013  83.717  1.00 26.14 LIG 0.04  C 
BRANCH 30 31
ATOM     31  CG  LEU P   2       3.293  52.333  84.753  1.00 26.56 LIG-0.02  C 
ATOM     32  CD2 LEU P   2       2.511  51.248  85.473  1.00 26.97 LIG 0.01  C 
ATOM     33  CD1 LEU P   2       3.807  53.378  85.751  1.00 26.91 LIG 0.01  C 
ENDBRANCH 30 31
ENDBRANCH 15 30
ENDBRANCH 12 15
ENDBRANCH 6 11
ENDBRANCH 4 6
ENDBRANCH 1 2
BRANCH 1 34
ATOM     34  CB  LYS P   4       3.880  56.784  78.500  1.00 23.66 LIG 0.04  C 
BRANCH 34 35
ATOM     35  CG  LYS P   4       3.499  55.322  78.214  1.00 23.42 LIG 0.00  C 
BRANCH 35 36
ATOM     36  CD  LYS P   4       4.377  54.374  79.039  1.00 22.86 LIG 0.03  C 
BRANCH 36 37
ATOM     37  CE  LYS P   4       4.917  55.026  80.322  1.00 22.94 LIG 0.23  C 
BRANCH 37 38
ATOM     38  NZ  LYS P   4       6.334  55.489  80.168  1.00 22.16 LIG-0.08  N 
ATOM     39 HZ3  LYS P   4       6.613  55.850  80.932  1.00 22.16 LIG 0.27  HD
ATOM     40 HZ1  LYS P   4       6.852  54.796  79.960  1.00 22.16 LIG 0.27  HD
ATOM     41 HZ2  LYS P   4       6.379  56.098  79.519  1.00 22.16 LIG 0.27  HD
ENDBRANCH 37 38
ENDBRANCH 36 37
ENDBRANCH 35 36
ENDBRANCH 34 35
ENDBRANCH 1 34
BRANCH 1 42
ATOM     42  C   LYS P   4       2.271  57.795  76.903  1.00 24.65 LIG 0.24  C 
ATOM     43 O    LYS P   4       3.028  57.449  76.003  1.00 24.26 LIG-0.27  OA
ATOM     44  N   TRP P   5       1.023  58.189  76.678  1.00 25.14 LIG-0.35  N 
ATOM     45 H    TRP P   5       0.487  58.480  77.283  1.00 25.14 LIG 0.16  HD
BRANCH 44 46
ATOM     46  CA  TRP P   5       0.468  58.149  75.331  1.00 26.12 LIG 0.18  C 
BRANCH 46 47
ATOM     47  C   TRP P   5       1.294  58.802  74.222  1.00 26.95 LIG 0.24  C 
ATOM     48 O    TRP P   5       2.040  59.739  74.483  1.00 26.69 LIG-0.27  OA
ATOM     49  N   ALA P   6       1.147  58.319  72.992  1.00 28.22 LIG-0.35  N 
ATOM     50 H    ALA P   6       0.622  57.669  72.789  1.00 28.22 LIG 0.16  HD
BRANCH 49 51
ATOM     51  CA  ALA P   6       1.888  58.875  71.865  1.00 29.75 LIG 0.17  C 
ATOM     52  CB  ALA P   6       1.775  60.392  71.861  1.00 29.57 LIG 0.04  C 
BRANCH 51 53
ATOM     53  C   ALA P   6       3.356  58.474  71.891  1.00 31.01 LIG 0.24  C 
ATOM     54  N   SER P   7       3.828  57.961  70.758  1.00 32.38 LIG-0.34  N 
ATOM     55 H    SER P   7       3.343  57.850  70.057  1.00 32.38 LIG 0.16  HD
ATOM     56 O    ALA P   6       4.034  58.631  72.906  1.00 31.33 LIG-0.27  OA
BRANCH 54 57
ATOM     57  CA  SER P   7       5.211  57.533  70.579  1.00 33.79 LIG 0.21  C 
BRANCH 57 58
ATOM     58  CB  SER P   7       5.294  56.002  70.542  1.00 34.23 LIG 0.20  C 
BRANCH 58 59
ATOM     59 OG   SER P   7       4.232  55.468  69.770  1.00 34.80 LIG-0.40  OA
ATOM     60 HG   SER P   7       4.046  55.997  69.144  1.00 34.80 LIG 0.21  HD
ENDBRANCH 58 59
ENDBRANCH 57 58
BRANCH 57 61
ATOM     61  C   SER P   7       5.844  58.110  69.328  1.00 34.43 LIG 0.20  C 
ATOM     62 O    SER P   7       5.158  58.126  68.276  1.00 34.68 LIG-0.65  OA
ATOM     63 OXT  SER P   7       7.019  58.527  69.419  1.00 35.29 LIG-0.65  OA
ENDBRANCH 57 61
ENDBRANCH 54 57
ENDBRANCH 51 53
ENDBRANCH 49 51
ENDBRANCH 46 47
BRANCH 46 64
ATOM     64  CB  TRP P   5      -0.940  58.755  75.368  1.00 25.45 LIG 0.07  C 
BRANCH 64 65
ATOM     65  CG  TRP P   5      -1.771  58.297  74.207  1.00 25.18 LIG-0.03  A 
ATOM     66  CD1 TRP P   5      -2.210  59.055  73.154  1.00 25.03 LIG 0.10  A 
ATOM     67  NE1 TRP P   5      -3.010  58.299  72.328  1.00 24.37 LIG-0.36  N 
ATOM     68  CE2 TRP P   5      -3.100  57.031  72.837  1.00 24.69 LIG 0.04  A 
ATOM     69 HE1  TRP P   5      -3.391  58.578  71.609  1.00 24.37 LIG 0.17  HD
ATOM     70  CZ2 TRP P   5      -3.795  55.915  72.358  1.00 24.50 LIG 0.03  A 
ATOM     71  CD2 TRP P   5      -2.328  56.995  74.024  1.00 24.80 LIG-0.00  A 
ATOM     72  CH2 TRP P   5      -3.706  54.749  73.086  1.00 24.87 LIG 0.00  A 
ATOM     73  CZ3 TRP P   5      -2.948  54.679  74.269  1.00 24.98 LIG 0.00  A 
ATOM     74  CE3 TRP P   5      -2.253  55.796  74.746  1.00 25.01 LIG 0.01  A 
ENDBRANCH 64 65
ENDBRANCH 46 64
ENDBRANCH 44 46
ENDBRANCH 1 42
TORSDOF 30
ENDMDL
MODEL 5
USER: ADFR SOLUTION from run 167
USER: SCORE 22.179978 LL:  -6.136 LR: -18.277 RR:   0.000 FEB:  -9.328
USER: RMSD 9.610839
USER: SEED 166
USER: STATUS no improvement in best in 16 clusters for 5 generations
USER: GENES 32
USER: genes 0 Translation |==|  0.44442 0.31015 0.59087
USER: genes 1 Rotation |==|  0.04071 0.37780 0.51320 0.65474
USER: genes 2 Torsion [CB]-CA--N-[C] |==|  0.87377
USER: genes 3 Torsion [N]-C--CA-[N] |==|  0.61670
USER: genes 4 Torsion [C]-CA--CB-[CG] |==|  0.79972
USER: genes 5 Torsion [CA]-CB--CG-[OD2] |==|  0.78173
USER: genes 6 Torsion [C]-CA--N-[C] |==|  0.67329
USER: genes 7 Torsion [N]-C--CA-[N] |==|  0.03138
USER: genes 8 Torsion [C]-CA--N-[C] |==|  0.73446
USER: genes 9 Torsion [N]-C--CA-[N] |==|  0.49864
USER: genes 10 Torsion [C]-CA--N-[H3] |==|  0.22841
USER: genes 11 Torsion [C]-CA--CB-[CG] |==|  0.51735
USER: genes 12 Torsion [CA]-CB--CG-[CD] |==|  0.89161
USER: genes 13 Torsion [CB]-CG--CD-[OE2] |==|  0.67998
USER: genes 14 Torsion [C]-CA--CB-[CG] |==|  0.23628
USER: genes 15 Torsion [CA]-CB--CG-[CD2] |==|  0.03675
USER: genes 16 Torsion [N]-CA--CB-[CG] |==|  0.79817
USER: genes 17 Torsion [CA]-CB--CG-[CD] |==|  0.30337
USER: genes 18 Torsion [CB]-CG--CD-[CE] |==|  0.50433
USER: genes 19 Torsion [CG]-CD--CE-[NZ] |==|  0.77769
USER: genes 20 Torsion [CD]-CE--NZ-[HZ2] |==|  0.08057
USER: genes 21 Torsion [N]-CA--C-[N] |==|  0.78333
USER: genes 22 Torsion [C]-N--CA-[C] |==|  0.74087
USER: genes 23 Torsion [N]-CA--C-[N] |==|  0.40264
USER: genes 24 Torsion [C]-N--CA-[CB] |==|  0.83477
USER: genes 25 Torsion [N]-CA--C-[N] |==|  0.49735
USER: genes 26 Torsion [C]-N--CA-[CB] |==|  0.47147
USER: genes 27 Torsion [N]-CA--CB-[OG] |==|  0.08638
USER: genes 28 Torsion [CA]-CB--OG-[HG] |==|  0.60812
USER: genes 29 Torsion [N]-CA--C-[O] |==|  0.99594
USER: genes 30 Torsion [N]-CA--CB-[CG] |==|  0.50392
USER: genes 31 Torsion [CA]-CB--CG-[CD1] |==|  0.73078
ROOT
ATOM      1  CA  LYS P   4       1.940  53.529  82.894  1.00 24.08 LIG 0.18  C 
ENDROOT
BRANCH 1 2
ATOM      2  N   LYS P   4       2.603  53.291  84.173  1.00 23.78 LIG-0.35  N 
ATOM      3 H    LYS P   4       2.859  52.479  84.291  1.00 23.78 LIG 0.16  HD
ATOM      4  C   ASP P   3       2.783  54.263  85.063  1.00 23.78 LIG 0.24  C 
ATOM      5 O    ASP P   3       2.387  55.417  84.885  1.00 23.70 LIG-0.27  OA
BRANCH 4 6
ATOM      6  CA  ASP P   3       3.491  53.868  86.353  1.00 23.69 LIG 0.19  C 
BRANCH 6 7
ATOM      7  CB  ASP P   3       3.473  52.342  86.496  1.00 23.04 LIG 0.15  C 
BRANCH 7 8
ATOM      8  CG  ASP P   3       2.095  51.796  86.836  1.00 22.74 LIG 0.17  C 
ATOM      9 OD2  ASP P   3       1.693  51.878  88.018  1.00 21.45 LIG-0.65  OA
ATOM     10 OD1  ASP P   3       1.414  51.285  85.915  1.00 22.26 LIG-0.65  OA
ENDBRANCH 7 8
ENDBRANCH 6 7
BRANCH 6 11
ATOM     11  N   ASP P   3       2.850  54.487  87.511  1.00 24.40 LIG-0.35  N 
ATOM     12  C   LEU P   2       3.482  55.349  88.303  1.00 25.13 LIG 0.24  C 
ATOM     13 O    LEU P   2       4.650  55.692  88.128  1.00 24.84 LIG-0.27  OA
ATOM     14 H    ASP P   3       2.033  54.245  87.629  1.00 24.40 LIG 0.16  HD
BRANCH 12 15
ATOM     15  CA  LEU P   2       2.663  55.911  89.462  1.00 25.73 LIG 0.18  C 
BRANCH 15 16
ATOM     16  N   LEU P   2       1.396  55.210  89.664  1.00 26.50 LIG-0.35  N 
ATOM     17 H    LEU P   2       1.460  54.499  90.144  1.00 26.50 LIG 0.16  HD
ATOM     18  C   GLU P   1       0.252  55.647  89.145  1.00 27.13 LIG 0.25  C 
ATOM     19 O    GLU P   1       0.171  56.660  88.447  1.00 26.76 LIG-0.27  OA
BRANCH 18 20
ATOM     20  CA  GLU P   1      -0.994  54.813  89.454  1.00 27.85 LIG 0.28  C 
BRANCH 20 21
ATOM     21  N   GLU P   1      -2.192  55.430  88.819  1.00 27.86 LIG-0.07  N 
ATOM     22 H2   GLU P   1      -2.132  56.317  88.871  1.00 27.86 LIG 0.28  HD
ATOM     23 H3   GLU P   1      -2.234  55.185  87.965  1.00 27.86 LIG 0.28  HD
ATOM     24 H1   GLU P   1      -2.926  55.157  89.243  1.00 27.86 LIG 0.28  HD
ENDBRANCH 20 21
BRANCH 20 25
ATOM     25  CB  GLU P   1      -0.798  53.381  88.942  1.00 28.74 LIG 0.05  C 
BRANCH 25 26
ATOM     26  CG  GLU P   1      -2.031  52.488  89.057  1.00 29.95 LIG 0.12  C 
BRANCH 26 27
ATOM     27  CD  GLU P   1      -2.815  52.707  90.339  1.00 30.73 LIG 0.17  C 
ATOM     28 OE2  GLU P   1      -2.881  51.770  91.156  1.00 30.75 LIG-0.65  OA
ATOM     29 OE1  GLU P   1      -3.377  53.805  90.531  1.00 31.83 LIG-0.65  OA
ENDBRANCH 26 27
ENDBRANCH 25 26
ENDBRANCH 20 25
ENDBRANCH 18 20
ENDBRANCH 15 16
BRANCH 15 30
ATOM     30  CB  LEU P   2       3.507  55.859  90.740  1.00 26.14 LIG 0.04  C 
BRANCH 30 31
ATOM     31  CG  LEU P   2       4.463  57.026  91.010  1.00 26.56 LIG-0.02  C 
ATOM     32  CD2 LEU P   2       4.132  58.179  90.078  1.00 26.97 LIG 0.01  C 
ATOM     33  CD1 LEU P   2       5.910  56.563  90.801  1.00 26.91 LIG 0.01  C 
ENDBRANCH 30 31
ENDBRANCH 15 30
ENDBRANCH 12 15
ENDBRANCH 6 11
ENDBRANCH 4 6
ENDBRANCH 1 2
BRANCH 1 34
ATOM     34  CB  LYS P   4       0.671  54.364  83.105  1.00 23.66 LIG 0.04  C 
BRANCH 34 35
ATOM     35  CG  LYS P   4      -0.506  53.625  83.761  1.00 23.42 LIG 0.00  C 
BRANCH 35 36
ATOM     36  CD  LYS P   4      -0.724  54.135  85.190  1.00 22.86 LIG 0.03  C 
BRANCH 36 37
ATOM     37  CE  LYS P   4      -1.866  53.406  85.916  1.00 22.94 LIG 0.23  C 
BRANCH 37 38
ATOM     38  NZ  LYS P   4      -3.213  53.931  85.520  1.00 22.16 LIG-0.08  N 
ATOM     39 HZ3  LYS P   4      -3.812  53.275  85.564  1.00 22.16 LIG 0.27  HD
ATOM     40 HZ1  LYS P   4      -3.451  54.588  86.072  1.00 22.16 LIG 0.27  HD
ATOM     41 HZ2  LYS P   4      -3.178  54.243  84.686  1.00 22.16 LIG 0.27  HD
ENDBRANCH 37 38
ENDBRANCH 36 37
ENDBRANCH 35 36
ENDBRANCH 34 35
ENDBRANCH 1 34
BRANCH 1 42
ATOM     42  C   LYS P   4       2.836  54.257  81.897  1.00 24.65 LIG 0.24  C 
ATOM     43 O    LYS P   4       3.398  53.639  80.998  1.00 24.26 LIG-0.27  OA
ATOM     44  N   TRP P   5       2.980  55.566  82.064  1.00 25.14 LIG-0.35  N 
ATOM     45 H    TRP P   5       2.636  56.015  82.711  1.00 25.14 LIG 0.16  HD
BRANCH 44 46
ATOM     46  CA  TRP P   5       3.763  56.350  81.119  1.00 26.12 LIG 0.18  C 
BRANCH 46 47
ATOM     47  C   TRP P   5       5.238  56.569  81.455  1.00 26.95 LIG 0.24  C 
ATOM     48 O    TRP P   5       5.586  56.719  82.621  1.00 26.69 LIG-0.27  OA
ATOM     49  N   ALA P   6       6.094  56.603  80.438  1.00 28.22 LIG-0.35  N 
ATOM     50 H    ALA P   6       5.867  56.508  79.614  1.00 28.22 LIG 0.16  HD
BRANCH 49 51
ATOM     51  CA  ALA P   6       7.522  56.808  80.654  1.00 29.75 LIG 0.17  C 
ATOM     52  CB  ALA P   6       7.760  58.139  81.352  1.00 29.57 LIG 0.04  C 
BRANCH 51 53
ATOM     53  C   ALA P   6       8.145  55.686  81.472  1.00 31.01 LIG 0.24  C 
ATOM     54  N   SER P   7       9.452  55.797  81.692  1.00 32.38 LIG-0.34  N 
ATOM     55 H    SER P   7       9.924  56.449  81.388  1.00 32.38 LIG 0.16  HD
ATOM     56 O    ALA P   6       7.457  54.756  81.891  1.00 31.33 LIG-0.27  OA
BRANCH 54 57
ATOM     57  CA  SER P   7      10.226  54.834  82.467  1.00 33.79 LIG 0.21  C 
BRANCH 57 58
ATOM     58  CB  SER P   7      11.726  55.112  82.318  1.00 34.23 LIG 0.20  C 
BRANCH 58 59
ATOM     59 OG   SER P   7      11.956  56.498  82.127  1.00 34.80 LIG-0.40  OA
ATOM     60 HG   SER P   7      12.570  56.606  81.564  1.00 34.80 LIG 0.21  HD
ENDBRANCH 58 59
ENDBRANCH 57 58
BRANCH 57 61
ATOM     61  C   SER P   7       9.851  54.829  83.936  1.00 34.43 LIG 0.20  C 
ATOM     62 O    SER P   7       8.972  55.641  84.321  1.00 34.68 LIG-0.65  OA
ATOM     63 OXT  SER P   7      10.448  54.021  84.679  1.00 35.29 LIG-0.65  OA
ENDBRANCH 57 61
ENDBRANCH 54 57
ENDBRANCH 51 53
ENDBRANCH 49 51
ENDBRANCH 46 47
BRANCH 46 64
ATOM     64  CB  TRP P   5       3.063  57.698  80.909  1.00 25.45 LIG 0.07  C 
BRANCH 64 65
ATOM     65  CG  TRP P   5       3.794  58.553  79.918  1.00 25.18 LIG-0.03  A 
ATOM     66  CD1 TRP P   5       4.694  59.549  80.189  1.00 25.03 LIG 0.10  A 
ATOM     67  NE1 TRP P   5       5.094  60.158  79.021  1.00 24.37 LIG-0.36  N 
ATOM     68  CE2 TRP P   5       4.453  59.560  77.968  1.00 24.69 LIG 0.04  A 
ATOM     69 HE1  TRP P   5       5.654  60.807  78.962  1.00 24.37 LIG 0.17  HD
ATOM     70  CZ2 TRP P   5       4.530  59.828  76.597  1.00 24.50 LIG 0.03  A 
ATOM     71  CD2 TRP P   5       3.625  58.541  78.499  1.00 24.80 LIG-0.00  A 
ATOM     72  CH2 TRP P   5       3.761  59.057  75.754  1.00 24.87 LIG 0.00  A 
ATOM     73  CZ3 TRP P   5       2.928  58.037  76.248  1.00 24.98 LIG 0.00  A 
ATOM     74  CE3 TRP P   5       2.853  57.769  77.620  1.00 25.01 LIG 0.01  A 
ENDBRANCH 64 65
ENDBRANCH 46 64
ENDBRANCH 44 46
ENDBRANCH 1 42
TORSDOF 30
ENDMDL
