MODEL 1
USER: ADFR SOLUTION from run 54
USER: SCORE 14.260009 LL:  -1.535 LR: -12.827 RR:   0.000 FEB: -10.142
USER: RMSD 1.232776
USER: SEED 53
USER: STATUS no improvement in best in 1 clusters for 5 generations
USER: GENES 11
USER: genes 0 Translation |==|  0.55081 0.56192 0.49854
USER: genes 1 Rotation |==|  0.53545 0.46515 0.51782 0.99720
USER: genes 2 Torsion [N]-CA--C-[N] |==|  0.39675
USER: genes 3 Torsion [N]-CA--C-[O] |==|  0.41197
USER: genes 4 Torsion [C]-CA--CB-[CG] |==|  0.34459
USER: genes 5 Torsion [CA]-CB--CG-[CD] |==|  0.12220
USER: genes 6 Torsion [CB]-CG--CD-[NE] |==|  0.51641
USER: genes 7 Torsion [CG]-CD--NE-[CZ] |==|  0.61292
USER: genes 8 Torsion [C]-CA--N-[C] |==|  0.74008
USER: genes 9 Torsion [N]-C--CA-[CB] |==|  0.66154
USER: genes 10 Torsion [N]-C--CA-[N] |==|  0.54298
ROOT
ATOM      1  CA  ARG B   4      -2.261  14.610  12.711  0.80 38.14 LIG 0.18  C 
ENDROOT
BRANCH 1 2
ATOM      2  C   ARG B   4      -1.848  14.558  11.225  0.80 39.25 LIG 0.24  C 
ATOM      3 O    ARG B   4      -0.651  14.406  10.928  0.80 39.33 LIG-0.27  OA
ATOM      4  N   PRO B   5      -2.829  14.567  10.282  0.80 40.23 LIG-0.34  N 
ATOM      5  CA  PRO B   5      -2.498  14.525   8.848  0.80 40.82 LIG 0.19  C 
ATOM      6  CD  PRO B   5      -4.290  14.459  10.468  0.80 40.52 LIG 0.13  C 
ATOM      7  CB  PRO B   5      -3.870  14.326   8.178  0.80 40.82 LIG 0.04  C 
ATOM      8  CG  PRO B   5      -4.705  13.683   9.245  0.80 40.73 LIG 0.02  C 
BRANCH 5 9
ATOM      9  C   PRO B   5      -1.860  15.849   8.397  0.80 41.28 LIG 0.20  C 
ATOM     10 O    PRO B   5      -1.006  15.824   7.472  0.80 41.33 LIG-0.65  OA
ATOM     11 OXT  PRO B   5      -2.235  16.899   8.981  0.80 41.80 LIG-0.65  OA
ENDBRANCH 5 9
ENDBRANCH 1 2
BRANCH 1 12
ATOM     12  CB  ARG B   4      -2.198  16.054  13.248  0.80 37.56 LIG 0.04  C 
BRANCH 12 13
ATOM     13  CG  ARG B   4      -3.493  16.596  13.867  0.80 36.72 LIG 0.02  C 
BRANCH 13 14
ATOM     14  CD  ARG B   4      -4.153  15.576  14.777  0.80 36.17 LIG 0.14  C 
BRANCH 14 15
ATOM     15  NE  ARG B   4      -5.459  16.008  15.275  0.80 35.68 LIG-0.23  N 
ATOM     16 HE   ARG B   4      -5.982  16.413  14.727  0.80 35.68 LIG 0.18  HD
ATOM     17  CZ  ARG B   4      -5.892  15.818  16.521  0.80 35.42 LIG 0.67  C 
ATOM     18  NH2 ARG B   4      -7.110  16.213  16.867  0.80 34.99 LIG-0.23  N 
ATOM     19  NH1 ARG B   4      -5.127  15.207  17.415  0.80 35.13 LIG-0.23  N 
ATOM     20 2HH2 ARG B   4      -7.390  16.090  17.671  0.80 34.99 LIG 0.17  HD
ATOM     21 1HH2 ARG B   4      -7.620  16.591  16.288  0.80 34.99 LIG 0.17  HD
ATOM     22 2HH1 ARG B   4      -5.414  15.089  18.216  0.80 35.13 LIG 0.17  HD
ATOM     23 1HH1 ARG B   4      -4.344  14.930  17.193  0.80 35.13 LIG 0.17  HD
ENDBRANCH 14 15
ENDBRANCH 13 14
ENDBRANCH 12 13
ENDBRANCH 1 12
BRANCH 1 24
ATOM     24  N   ARG B   4      -1.330  13.750  13.447  0.80 37.32 LIG-0.35  N 
ATOM     25 H    ARG B   4      -0.611  14.155  13.687  0.80 37.32 LIG 0.16  HD
ATOM     26  C   PRO B   3      -1.562  12.466  13.723  0.80 36.53 LIG 0.24  C 
ATOM     27 O    PRO B   3      -2.588  11.869  13.366  0.80 36.51 LIG-0.27  OA
BRANCH 26 28
ATOM     28  CA  PRO B   3      -0.458  11.739  14.500  0.80 35.73 LIG 0.18  C 
ATOM     29  CB  PRO B   3       0.048  10.531  13.720  0.80 35.57 LIG 0.04  C 
ATOM     30  CG  PRO B   3      -0.954   9.502  14.043  0.80 35.32 LIG 0.02  C 
ATOM     31  CD  PRO B   3      -1.110   9.667  15.545  0.80 35.29 LIG 0.13  C 
ATOM     32  N   PRO B   3      -0.948  11.118  15.735  0.80 35.22 LIG-0.34  N 
ATOM     33  C   GLY B   2      -1.181  11.729  16.916  0.80 34.72 LIG 0.25  C 
ATOM     34 O    GLY B   2      -0.981  12.943  17.101  0.80 34.22 LIG-0.27  OA
BRANCH 33 35
ATOM     35  CA  GLY B   2      -1.693  10.872  18.052  0.80 34.38 LIG 0.47  C 
ATOM     36  N   GLY B   2      -2.235  11.713  19.117  0.80 34.02 LIG 0.61  N 
ENDBRANCH 33 35
ENDBRANCH 26 28
ENDBRANCH 1 24
TORSDOF 9
ENDMDL
MODEL 2
USER: ADFR SOLUTION from run 162
USER: SCORE 13.380898 LL:  -1.600 LR: -12.253 RR:   0.000 FEB:  -9.569
USER: RMSD 2.593534
USER: SEED 161
USER: STATUS no improvement in best in 10 clusters for 5 generations
USER: GENES 11
USER: genes 0 Translation |==|  0.49848 0.45340 0.47428
USER: genes 1 Rotation |==|  0.66078 0.35388 0.65333 0.92343
USER: genes 2 Torsion [N]-CA--C-[N] |==|  0.18139
USER: genes 3 Torsion [N]-CA--C-[O] |==|  0.45785
USER: genes 4 Torsion [C]-CA--CB-[CG] |==|  0.56549
USER: genes 5 Torsion [CA]-CB--CG-[CD] |==|  0.31861
USER: genes 6 Torsion [CB]-CG--CD-[NE] |==|  0.44716
USER: genes 7 Torsion [CG]-CD--NE-[CZ] |==|  0.66931
USER: genes 8 Torsion [C]-CA--N-[C] |==|  0.15960
USER: genes 9 Torsion [N]-C--CA-[CB] |==|  0.09954
USER: genes 10 Torsion [N]-C--CA-[N] |==|  0.54092
ROOT
ATOM      1  CA  ARG B   4      -3.007  12.819  12.202  0.80 38.14 LIG 0.18  C 
ENDROOT
BRANCH 1 2
ATOM      2  C   ARG B   4      -2.233  13.798  11.293  0.80 39.25 LIG 0.24  C 
ATOM      3 O    ARG B   4      -2.314  15.020  11.502  0.80 39.33 LIG-0.27  OA
ATOM      4  N   PRO B   5      -1.394  13.281  10.355  0.80 40.23 LIG-0.34  N 
ATOM      5  CA  PRO B   5      -0.634  14.164   9.454  0.80 40.82 LIG 0.19  C 
ATOM      6  CD  PRO B   5      -0.972  11.879  10.165  0.80 40.52 LIG 0.13  C 
ATOM      7  CB  PRO B   5       0.325  13.193   8.741  0.80 40.82 LIG 0.04  C 
ATOM      8  CG  PRO B   5       0.450  12.041   9.693  0.80 40.73 LIG 0.02  C 
BRANCH 5 9
ATOM      9  C   PRO B   5      -1.568  14.846   8.442  0.80 41.28 LIG 0.20  C 
ATOM     10 O    PRO B   5      -1.139  15.838   7.797  0.80 41.33 LIG-0.65  OA
ATOM     11 OXT  PRO B   5      -2.724  14.366   8.310  0.80 41.80 LIG-0.65  OA
ENDBRANCH 5 9
ENDBRANCH 1 2
BRANCH 1 12
ATOM     12  CB  ARG B   4      -4.009  13.576  13.096  0.80 37.56 LIG 0.04  C 
BRANCH 12 13
ATOM     13  CG  ARG B   4      -4.422  12.866  14.391  0.80 36.72 LIG 0.02  C 
BRANCH 13 14
ATOM     14  CD  ARG B   4      -3.950  13.617  15.622  0.80 36.17 LIG 0.14  C 
BRANCH 14 15
ATOM     15  NE  ARG B   4      -4.673  13.243  16.838  0.80 35.68 LIG-0.23  N 
ATOM     16 HE   ARG B   4      -4.626  12.425  17.095  0.80 35.68 LIG 0.18  HD
ATOM     17  CZ  ARG B   4      -5.399  14.084  17.573  0.80 35.42 LIG 0.67  C 
ATOM     18  NH2 ARG B   4      -5.986  13.657  18.683  0.80 34.99 LIG-0.23  N 
ATOM     19  NH1 ARG B   4      -5.516  15.357  17.223  0.80 35.13 LIG-0.23  N 
ATOM     20 2HH2 ARG B   4      -6.455  14.200  19.158  0.80 34.99 LIG 0.17  HD
ATOM     21 1HH2 ARG B   4      -5.899  12.838  18.928  0.80 34.99 LIG 0.17  HD
ATOM     22 2HH1 ARG B   4      -5.986  15.893  17.703  0.80 35.13 LIG 0.17  HD
ATOM     23 1HH1 ARG B   4      -5.122  15.647  16.516  0.80 35.13 LIG 0.17  HD
ENDBRANCH 14 15
ENDBRANCH 13 14
ENDBRANCH 12 13
ENDBRANCH 1 12
BRANCH 1 24
ATOM     24  N   ARG B   4      -2.015  12.120  13.024  0.80 37.32 LIG-0.35  N 
ATOM     25 H    ARG B   4      -2.043  11.266  12.938  0.80 37.32 LIG 0.16  HD
ATOM     26  C   PRO B   3      -1.148  12.737  13.829  0.80 36.53 LIG 0.24  C 
ATOM     27 O    PRO B   3      -1.111  13.967  13.972  0.80 36.51 LIG-0.27  OA
BRANCH 26 28
ATOM     28  CA  PRO B   3      -0.194  11.824  14.608  0.80 35.73 LIG 0.18  C 
ATOM     29  CB  PRO B   3       0.208  10.617  13.769  0.80 35.57 LIG 0.04  C 
ATOM     30  CG  PRO B   3      -0.933   9.704  13.960  0.80 35.32 LIG 0.02  C 
ATOM     31  CD  PRO B   3      -1.162   9.786  15.459  0.80 35.29 LIG 0.13  C 
ATOM     32  N   PRO B   3      -0.834  11.189  15.766  0.80 35.22 LIG-0.34  N 
ATOM     33  C   GLY B   2      -1.065  11.744  16.974  0.80 34.72 LIG 0.25  C 
ATOM     34 O    GLY B   2      -0.728  12.907  17.260  0.80 34.22 LIG-0.27  OA
BRANCH 33 35
ATOM     35  CA  GLY B   2      -1.750  10.885  18.013  0.80 34.38 LIG 0.47  C 
ATOM     36  N   GLY B   2      -2.235  11.713  19.116  0.80 34.02 LIG 0.61  N 
ENDBRANCH 33 35
ENDBRANCH 26 28
ENDBRANCH 1 24
TORSDOF 9
ENDMDL
MODEL 3
USER: ADFR SOLUTION from run 56
USER: SCORE 11.908088 LL:  -0.927 LR: -11.862 RR:   0.000 FEB:  -9.177
USER: RMSD 5.336324
USER: SEED 55
USER: STATUS no improvement in best in 10 clusters for 5 generations
USER: GENES 11
USER: genes 0 Translation |==|  0.56750 0.47146 0.57522
USER: genes 1 Rotation |==|  0.62026 0.57808 0.02125 0.51562
USER: genes 2 Torsion [N]-CA--C-[N] |==|  0.54812
USER: genes 3 Torsion [N]-CA--C-[O] |==|  0.41742
USER: genes 4 Torsion [C]-CA--CB-[CG] |==|  0.33601
USER: genes 5 Torsion [CA]-CB--CG-[CD] |==|  0.98405
USER: genes 6 Torsion [CB]-CG--CD-[NE] |==|  0.33143
USER: genes 7 Torsion [CG]-CD--NE-[CZ] |==|  0.84409
USER: genes 8 Torsion [C]-CA--N-[C] |==|  0.19113
USER: genes 9 Torsion [N]-C--CA-[CB] |==|  0.22883
USER: genes 10 Torsion [N]-C--CA-[N] |==|  0.78669
ROOT
ATOM      1  CA  ARG B   4      -2.023  13.117  14.322  0.80 38.14 LIG 0.18  C 
ENDROOT
BRANCH 1 2
ATOM      2  C   ARG B   4      -1.552  13.865  13.056  0.80 39.25 LIG 0.24  C 
ATOM      3 O    ARG B   4      -1.999  14.999  12.815  0.80 39.33 LIG-0.27  OA
ATOM      4  N   PRO B   5      -0.571  13.301  12.301  0.80 40.23 LIG-0.34  N 
ATOM      5  CA  PRO B   5      -0.084  13.963  11.079  0.80 40.82 LIG 0.19  C 
ATOM      6  CD  PRO B   5       0.255  12.113  12.597  0.80 40.52 LIG 0.13  C 
ATOM      7  CB  PRO B   5       1.140  13.116  10.687  0.80 40.82 LIG 0.04  C 
ATOM      8  CG  PRO B   5       1.576  12.488  11.977  0.80 40.73 LIG 0.02  C 
BRANCH 5 9
ATOM      9  C   PRO B   5      -1.151  13.921   9.974  0.80 41.28 LIG 0.20  C 
ATOM     10 O    PRO B   5      -1.181  14.853   9.127  0.80 41.33 LIG-0.65  OA
ATOM     11 OXT  PRO B   5      -1.943  12.943   9.972  0.80 41.80 LIG-0.65  OA
ENDBRANCH 5 9
ENDBRANCH 1 2
BRANCH 1 12
ATOM     12  CB  ARG B   4      -2.160  11.606  14.047  0.80 37.56 LIG 0.04  C 
BRANCH 12 13
ATOM     13  CG  ARG B   4      -1.301  10.685  14.922  0.80 36.72 LIG 0.02  C 
BRANCH 13 14
ATOM     14  CD  ARG B   4      -0.361  11.472  15.817  0.80 36.17 LIG 0.14  C 
BRANCH 14 15
ATOM     15  NE  ARG B   4      -0.591  11.238  17.242  0.80 35.68 LIG-0.23  N 
ATOM     16 HE   ARG B   4       0.073  10.964  17.715  0.80 35.68 LIG 0.18  HD
ATOM     17  CZ  ARG B   4      -1.757  11.421  17.858  0.80 35.42 LIG 0.67  C 
ATOM     18  NH2 ARG B   4      -1.856  11.219  19.166  0.80 34.99 LIG-0.23  N 
ATOM     19  NH1 ARG B   4      -2.819  11.836  17.181  0.80 35.13 LIG-0.23  N 
ATOM     20 2HH2 ARG B   4      -2.610  11.338  19.563  0.80 34.99 LIG 0.17  HD
ATOM     21 1HH2 ARG B   4      -1.168  10.970  19.616  0.80 34.99 LIG 0.17  HD
ATOM     22 2HH1 ARG B   4      -3.569  11.952  17.587  0.80 35.13 LIG 0.17  HD
ATOM     23 1HH1 ARG B   4      -2.759  11.989  16.337  0.80 35.13 LIG 0.17  HD
ENDBRANCH 14 15
ENDBRANCH 13 14
ENDBRANCH 12 13
ENDBRANCH 1 12
BRANCH 1 24
ATOM     24  N   ARG B   4      -3.318  13.687  14.701  0.80 37.32 LIG-0.35  N 
ATOM     25 H    ARG B   4      -3.290  14.138  15.432  0.80 37.32 LIG 0.16  HD
ATOM     26  C   PRO B   3      -4.437  13.531  13.992  0.80 36.53 LIG 0.24  C 
ATOM     27 O    PRO B   3      -4.491  12.869  12.946  0.80 36.51 LIG-0.27  OA
BRANCH 26 28
ATOM     28  CA  PRO B   3      -5.691  14.205  14.563  0.80 35.73 LIG 0.18  C 
ATOM     29  CB  PRO B   3      -5.734  15.679  14.182  0.80 35.57 LIG 0.04  C 
ATOM     30  CG  PRO B   3      -4.858  16.294  15.194  0.80 35.32 LIG 0.02  C 
ATOM     31  CD  PRO B   3      -5.331  15.628  16.475  0.80 35.29 LIG 0.13  C 
ATOM     32  N   PRO B   3      -5.683  14.270  16.028  0.80 35.22 LIG-0.34  N 
ATOM     33  C   GLY B   2      -5.995  13.278  16.889  0.80 34.72 LIG 0.25  C 
ATOM     34 O    GLY B   2      -6.360  12.148  16.516  0.80 34.22 LIG-0.27  OA
BRANCH 33 35
ATOM     35  CA  GLY B   2      -5.907  13.588  18.366  0.80 34.38 LIG 0.47  C 
ATOM     36  N   GLY B   2      -4.512  13.588  18.802  0.80 34.02 LIG 0.61  N 
ENDBRANCH 33 35
ENDBRANCH 26 28
ENDBRANCH 1 24
TORSDOF 9
ENDMDL
MODEL 4
USER: ADFR SOLUTION from run 64
USER: SCORE 13.313384 LL:  -1.672 LR: -11.740 RR:   0.000 FEB:  -9.056
USER: RMSD 7.238810
USER: SEED 63
USER: STATUS no improvement in best in 15 clusters for 5 generations
USER: GENES 11
USER: genes 0 Translation |==|  0.38054 0.35641 0.53140
USER: genes 1 Rotation |==|  0.26053 0.26909 0.14919 0.62755
USER: genes 2 Torsion [N]-CA--C-[N] |==|  0.87603
USER: genes 3 Torsion [N]-CA--C-[O] |==|  0.38656
USER: genes 4 Torsion [C]-CA--CB-[CG] |==|  0.50812
USER: genes 5 Torsion [CA]-CB--CG-[CD] |==|  0.23734
USER: genes 6 Torsion [CB]-CG--CD-[NE] |==|  0.17514
USER: genes 7 Torsion [CG]-CD--NE-[CZ] |==|  0.22099
USER: genes 8 Torsion [C]-CA--N-[C] |==|  0.81479
USER: genes 9 Torsion [N]-C--CA-[CB] |==|  0.35850
USER: genes 10 Torsion [N]-C--CA-[N] |==|  0.53396
ROOT
ATOM      1  CA  ARG B   4      -4.687  11.219  13.401  0.80 38.14 LIG 0.18  C 
ENDROOT
BRANCH 1 2
ATOM      2  C   ARG B   4      -5.652  10.019  13.286  0.80 39.25 LIG 0.24  C 
ATOM      3 O    ARG B   4      -5.627   9.311  12.266  0.80 39.33 LIG-0.27  OA
ATOM      4  N   PRO B   5      -6.425   9.708  14.361  0.80 40.23 LIG-0.34  N 
ATOM      5  CA  PRO B   5      -7.369   8.579  14.310  0.80 40.82 LIG 0.19  C 
ATOM      6  CD  PRO B   5      -6.374  10.264  15.729  0.80 40.52 LIG 0.13  C 
ATOM      7  CB  PRO B   5      -7.846   8.456  15.769  0.80 40.82 LIG 0.04  C 
ATOM      8  CG  PRO B   5      -6.732   9.064  16.568  0.80 40.73 LIG 0.02  C 
BRANCH 5 9
ATOM      9  C   PRO B   5      -8.550   8.897  13.378  0.80 41.28 LIG 0.20  C 
ATOM     10 O    PRO B   5      -8.979   7.991  12.617  0.80 41.33 LIG-0.65  OA
ATOM     11 OXT  PRO B   5      -9.032  10.058  13.432  0.80 41.80 LIG-0.65  OA
ENDBRANCH 5 9
ENDBRANCH 1 2
BRANCH 1 12
ATOM     12  CB  ARG B   4      -3.451  10.850  14.246  0.80 37.56 LIG 0.04  C 
BRANCH 12 13
ATOM     13  CG  ARG B   4      -2.446  11.981  14.494  0.80 36.72 LIG 0.02  C 
BRANCH 13 14
ATOM     14  CD  ARG B   4      -2.832  12.826  15.694  0.80 36.17 LIG 0.14  C 
BRANCH 14 15
ATOM     15  NE  ARG B   4      -2.833  12.076  16.950  0.80 35.68 LIG-0.23  N 
ATOM     16 HE   ARG B   4      -3.590  11.807  17.255  0.80 35.68 LIG 0.18  HD
ATOM     17  CZ  ARG B   4      -1.741  11.781  17.653  0.80 35.42 LIG 0.67  C 
ATOM     18  NH2 ARG B   4      -1.840  11.060  18.762  0.80 34.99 LIG-0.23  N 
ATOM     19  NH1 ARG B   4      -0.544  12.174  17.238  0.80 35.13 LIG-0.23  N 
ATOM     20 2HH2 ARG B   4      -1.135  10.869  19.216  0.80 34.99 LIG 0.17  HD
ATOM     21 1HH2 ARG B   4      -2.609  10.783  19.028  0.80 34.99 LIG 0.17  HD
ATOM     22 2HH1 ARG B   4       0.155  11.979  17.698  0.80 35.13 LIG 0.17  HD
ATOM     23 1HH1 ARG B   4      -0.469  12.624  16.509  0.80 35.13 LIG 0.17  HD
ENDBRANCH 14 15
ENDBRANCH 13 14
ENDBRANCH 12 13
ENDBRANCH 1 12
BRANCH 1 24
ATOM     24  N   ARG B   4      -5.432  12.310  14.035  0.80 37.32 LIG-0.35  N 
ATOM     25 H    ARG B   4      -5.139  12.513  14.817  0.80 37.32 LIG 0.16  HD
ATOM     26  C   PRO B   3      -6.463  12.936  13.466  0.80 36.53 LIG 0.24  C 
ATOM     27 O    PRO B   3      -6.903  12.641  12.346  0.80 36.51 LIG-0.27  OA
BRANCH 26 28
ATOM     28  CA  PRO B   3      -7.110  14.051  14.297  0.80 35.73 LIG 0.18  C 
ATOM     29  CB  PRO B   3      -7.233  15.333  13.482  0.80 35.57 LIG 0.04  C 
ATOM     30  CG  PRO B   3      -5.888  15.921  13.613  0.80 35.32 LIG 0.02  C 
ATOM     31  CD  PRO B   3      -5.611  15.760  15.098  0.80 35.29 LIG 0.13  C 
ATOM     32  N   PRO B   3      -6.270  14.483  15.419  0.80 35.22 LIG-0.34  N 
ATOM     33  C   GLY B   2      -6.128  13.869  16.613  0.80 34.72 LIG 0.25  C 
ATOM     34 O    GLY B   2      -6.736  12.826  16.914  0.80 34.22 LIG-0.27  OA
BRANCH 33 35
ATOM     35  CA  GLY B   2      -5.194  14.508  17.615  0.80 34.38 LIG 0.47  C 
ATOM     36  N   GLY B   2      -4.928  13.588  18.719  0.80 34.02 LIG 0.61  N 
ENDBRANCH 33 35
ENDBRANCH 26 28
ENDBRANCH 1 24
TORSDOF 9
ENDMDL
MODEL 5
USER: ADFR SOLUTION from run 149
USER: SCORE 12.821382 LL:  -1.480 LR: -11.617 RR:   0.000 FEB:  -8.932
USER: RMSD 4.672858
USER: SEED 148
USER: STATUS no improvement in best in 12 clusters for 5 generations
USER: GENES 11
USER: genes 0 Translation |==|  0.61937 0.47741 0.52563
USER: genes 1 Rotation |==|  0.60263 0.52896 0.01959 0.58854
USER: genes 2 Torsion [N]-CA--C-[N] |==|  0.86143
USER: genes 3 Torsion [N]-CA--C-[O] |==|  0.96503
USER: genes 4 Torsion [C]-CA--CB-[CG] |==|  0.38850
USER: genes 5 Torsion [CA]-CB--CG-[CD] |==|  0.03715
USER: genes 6 Torsion [CB]-CG--CD-[NE] |==|  0.39720
USER: genes 7 Torsion [CG]-CD--NE-[CZ] |==|  0.78092
USER: genes 8 Torsion [C]-CA--N-[C] |==|  0.76856
USER: genes 9 Torsion [N]-C--CA-[CB] |==|  0.60181
USER: genes 10 Torsion [N]-C--CA-[N] |==|  0.68715
ROOT
ATOM      1  CA  ARG B   4      -1.284  13.215  13.280  0.80 38.14 LIG 0.18  C 
ENDROOT
BRANCH 1 2
ATOM      2  C   ARG B   4      -0.989  13.699  11.844  0.80 39.25 LIG 0.24  C 
ATOM      3 O    ARG B   4       0.067  14.310  11.611  0.80 39.33 LIG-0.27  OA
ATOM      4  N   PRO B   5      -1.848  13.339  10.853  0.80 40.23 LIG-0.34  N 
ATOM      5  CA  PRO B   5      -1.623  13.774   9.465  0.80 40.82 LIG 0.19  C 
ATOM      6  CD  PRO B   5      -2.980  12.392  10.910  0.80 40.52 LIG 0.13  C 
ATOM      7  CB  PRO B   5      -2.673  12.973   8.673  0.80 40.82 LIG 0.04  C 
ATOM      8  CG  PRO B   5      -2.943  11.777   9.535  0.80 40.73 LIG 0.02  C 
BRANCH 5 9
ATOM      9  C   PRO B   5      -1.870  15.285   9.320  0.80 41.28 LIG 0.20  C 
ATOM     10 O    PRO B   5      -2.439  15.897  10.260  0.80 41.33 LIG-0.65  OA
ATOM     11 OXT  PRO B   5      -1.479  15.834   8.256  0.80 41.80 LIG-0.65  OA
ENDBRANCH 5 9
ENDBRANCH 1 2
BRANCH 1 12
ATOM     12  CB  ARG B   4      -1.049  11.697  13.407  0.80 37.56 LIG 0.04  C 
BRANCH 12 13
ATOM     13  CG  ARG B   4      -0.376  11.229  14.704  0.80 36.72 LIG 0.02  C 
BRANCH 13 14
ATOM     14  CD  ARG B   4      -0.362  12.321  15.758  0.80 36.17 LIG 0.14  C 
BRANCH 14 15
ATOM     15  NE  ARG B   4      -0.568  11.815  17.115  0.80 35.68 LIG-0.23  N 
ATOM     16 HE   ARG B   4       0.122  11.726  17.619  0.80 35.68 LIG 0.18  HD
ATOM     17  CZ  ARG B   4      -1.753  11.481  17.624  0.80 35.42 LIG 0.67  C 
ATOM     18  NH2 ARG B   4      -1.843  11.068  18.881  0.80 34.99 LIG-0.23  N 
ATOM     19  NH1 ARG B   4      -2.855  11.588  16.893  0.80 35.13 LIG-0.23  N 
ATOM     20 2HH2 ARG B   4      -2.609  10.853  19.210  0.80 34.99 LIG 0.17  HD
ATOM     21 1HH2 ARG B   4      -1.137  11.015  19.368  0.80 34.99 LIG 0.17  HD
ATOM     22 2HH1 ARG B   4      -3.616  11.371  17.230  0.80 35.13 LIG 0.17  HD
ATOM     23 1HH1 ARG B   4      -2.808  11.875  16.084  0.80 35.13 LIG 0.17  HD
ENDBRANCH 14 15
ENDBRANCH 13 14
ENDBRANCH 12 13
ENDBRANCH 1 12
BRANCH 1 24
ATOM     24  N   ARG B   4      -2.684  13.541  13.565  0.80 37.32 LIG-0.35  N 
ATOM     25 H    ARG B   4      -3.220  12.882  13.435  0.80 37.32 LIG 0.16  HD
ATOM     26  C   PRO B   3      -3.099  14.737  13.984  0.80 36.53 LIG 0.24  C 
ATOM     27 O    PRO B   3      -2.337  15.698  14.159  0.80 36.51 LIG-0.27  OA
BRANCH 26 28
ATOM     28  CA  PRO B   3      -4.608  14.876  14.221  0.80 35.73 LIG 0.18  C 
ATOM     29  CB  PRO B   3      -5.095  16.261  13.812  0.80 35.57 LIG 0.04  C 
ATOM     30  CG  PRO B   3      -4.764  17.075  14.995  0.80 35.32 LIG 0.02  C 
ATOM     31  CD  PRO B   3      -5.246  16.195  16.135  0.80 35.29 LIG 0.13  C 
ATOM     32  N   PRO B   3      -4.966  14.836  15.643  0.80 35.22 LIG-0.34  N 
ATOM     33  C   GLY B   2      -5.087  13.740  16.421  0.80 34.72 LIG 0.25  C 
ATOM     34 O    GLY B   2      -4.918  12.584  15.993  0.80 34.22 LIG-0.27  OA
BRANCH 33 35
ATOM     35  CA  GLY B   2      -5.464  13.955  17.870  0.80 34.38 LIG 0.47  C 
ATOM     36  N   GLY B   2      -4.351  13.588  18.743  0.80 34.02 LIG 0.61  N 
ENDBRANCH 33 35
ENDBRANCH 26 28
ENDBRANCH 1 24
TORSDOF 9
ENDMDL
MODEL 6
USER: ADFR SOLUTION from run 133
USER: SCORE 12.003611 LL:  -1.689 LR: -11.396 RR:   0.000 FEB:  -8.712
USER: RMSD 5.578566
USER: SEED 132
USER: STATUS no improvement in best in 23 clusters for 5 generations
USER: GENES 11
USER: genes 0 Translation |==|  0.34649 0.43856 0.57842
USER: genes 1 Rotation |==|  0.27985 0.67563 0.50129 0.91315
USER: genes 2 Torsion [N]-CA--C-[N] |==|  0.27443
USER: genes 3 Torsion [N]-CA--C-[O] |==|  0.49727
USER: genes 4 Torsion [C]-CA--CB-[CG] |==|  0.55995
USER: genes 5 Torsion [CA]-CB--CG-[CD] |==|  0.86873
USER: genes 6 Torsion [CB]-CG--CD-[NE] |==|  0.83581
USER: genes 7 Torsion [CG]-CD--NE-[CZ] |==|  0.39423
USER: genes 8 Torsion [C]-CA--N-[C] |==|  0.19944
USER: genes 9 Torsion [N]-C--CA-[CB] |==|  0.38790
USER: genes 10 Torsion [N]-C--CA-[N] |==|  0.57396
ROOT
ATOM      1  CA  ARG B   4      -5.172  12.574  14.389  0.80 38.14 LIG 0.18  C 
ENDROOT
BRANCH 1 2
ATOM      2  C   ARG B   4      -5.809  11.242  13.936  0.80 39.25 LIG 0.24  C 
ATOM      3 O    ARG B   4      -5.575  10.812  12.794  0.80 39.33 LIG-0.27  OA
ATOM      4  N   PRO B   5      -6.519  10.524  14.847  0.80 40.23 LIG-0.34  N 
ATOM      5  CA  PRO B   5      -7.154   9.250  14.473  0.80 40.82 LIG 0.19  C 
ATOM      6  CD  PRO B   5      -6.653  10.750  16.300  0.80 40.52 LIG 0.13  C 
ATOM      7  CB  PRO B   5      -7.636   8.690  15.824  0.80 40.82 LIG 0.04  C 
ATOM      8  CG  PRO B   5      -6.735   9.342  16.829  0.80 40.73 LIG 0.02  C 
BRANCH 5 9
ATOM      9  C   PRO B   5      -8.344   9.489  13.529  0.80 41.28 LIG 0.20  C 
ATOM     10 O    PRO B   5      -8.985   8.494  13.100  0.80 41.33 LIG-0.65  OA
ATOM     11 OXT  PRO B   5      -8.616  10.682  13.235  0.80 41.80 LIG-0.65  OA
ENDBRANCH 5 9
ENDBRANCH 1 2
BRANCH 1 12
ATOM     12  CB  ARG B   4      -5.292  13.644  13.284  0.80 37.56 LIG 0.04  C 
BRANCH 12 13
ATOM     13  CG  ARG B   4      -4.295  14.806  13.365  0.80 36.72 LIG 0.02  C 
BRANCH 13 14
ATOM     14  CD  ARG B   4      -4.209  15.380  14.768  0.80 36.17 LIG 0.14  C 
BRANCH 14 15
ATOM     15  NE  ARG B   4      -5.490  15.882  15.264  0.80 35.68 LIG-0.23  N 
ATOM     16 HE   ARG B   4      -6.006  16.284  14.707  0.80 35.68 LIG 0.18  HD
ATOM     17  CZ  ARG B   4      -5.913  15.759  16.522  0.80 35.42 LIG 0.67  C 
ATOM     18  NH2 ARG B   4      -7.110  16.214  16.867  0.80 34.99 LIG-0.23  N 
ATOM     19  NH1 ARG B   4      -5.159  15.155  17.430  0.80 35.13 LIG-0.23  N 
ATOM     20 2HH2 ARG B   4      -7.383  16.134  17.679  0.80 34.99 LIG 0.17  HD
ATOM     21 1HH2 ARG B   4      -7.614  16.588  16.280  0.80 34.99 LIG 0.17  HD
ATOM     22 2HH1 ARG B   4      -5.439  15.080  18.240  0.80 35.13 LIG 0.17  HD
ATOM     23 1HH1 ARG B   4      -4.390  14.840  17.210  0.80 35.13 LIG 0.17  HD
ENDBRANCH 14 15
ENDBRANCH 13 14
ENDBRANCH 12 13
ENDBRANCH 1 12
BRANCH 1 24
ATOM     24  N   ARG B   4      -3.764  12.300  14.684  0.80 37.32 LIG-0.35  N 
ATOM     25 H    ARG B   4      -3.583  12.316  15.524  0.80 37.32 LIG 0.16  HD
ATOM     26  C   PRO B   3      -2.844  12.047  13.752  0.80 36.53 LIG 0.24  C 
ATOM     27 O    PRO B   3      -3.091  12.038  12.538  0.80 36.51 LIG-0.27  OA
BRANCH 26 28
ATOM     28  CA  PRO B   3      -1.423  11.789  14.267  0.80 35.73 LIG 0.18  C 
ATOM     29  CB  PRO B   3      -0.762  10.657  13.490  0.80 35.57 LIG 0.04  C 
ATOM     30  CG  PRO B   3      -1.297   9.459  14.160  0.80 35.32 LIG 0.02  C 
ATOM     31  CD  PRO B   3      -1.149   9.818  15.628  0.80 35.29 LIG 0.13  C 
ATOM     32  N   PRO B   3      -1.402  11.269  15.638  0.80 35.22 LIG-0.34  N 
ATOM     33  C   GLY B   2      -1.536  11.977  16.780  0.80 34.72 LIG 0.25  C 
ATOM     34 O    GLY B   2      -1.681  13.213  16.796  0.80 34.22 LIG-0.27  OA
BRANCH 33 35
ATOM     35  CA  GLY B   2      -1.485  11.211  18.082  0.80 34.38 LIG 0.47  C 
ATOM     36  N   GLY B   2      -2.235  11.920  19.117  0.80 34.02 LIG 0.61  N 
ENDBRANCH 33 35
ENDBRANCH 26 28
ENDBRANCH 1 24
TORSDOF 9
ENDMDL
MODEL 7
USER: ADFR SOLUTION from run 182
USER: SCORE 12.846617 LL:  -2.179 LR: -11.231 RR:   0.000 FEB:  -8.546
USER: RMSD 3.659637
USER: SEED 181
USER: STATUS no improvement in best in 7 clusters for 5 generations
USER: GENES 11
USER: genes 0 Translation |==|  0.44979 0.53269 0.56364
USER: genes 1 Rotation |==|  0.62069 0.35673 0.54260 0.96162
USER: genes 2 Torsion [N]-CA--C-[N] |==|  0.20282
USER: genes 3 Torsion [N]-CA--C-[O] |==|  0.00308
USER: genes 4 Torsion [C]-CA--CB-[CG] |==|  0.33665
USER: genes 5 Torsion [CA]-CB--CG-[CD] |==|  0.38280
USER: genes 6 Torsion [CB]-CG--CD-[NE] |==|  0.94125
USER: genes 7 Torsion [CG]-CD--NE-[CZ] |==|  0.79936
USER: genes 8 Torsion [C]-CA--N-[C] |==|  0.58889
USER: genes 9 Torsion [N]-C--CA-[CB] |==|  0.19944
USER: genes 10 Torsion [N]-C--CA-[N] |==|  0.76586
ROOT
ATOM      1  CA  ARG B   4      -3.701  14.127  14.078  0.80 38.14 LIG 0.18  C 
ENDROOT
BRANCH 1 2
ATOM      2  C   ARG B   4      -2.724  14.626  12.991  0.80 39.25 LIG 0.24  C 
ATOM      3 O    ARG B   4      -2.107  15.690  13.166  0.80 39.33 LIG-0.27  OA
ATOM      4  N   PRO B   5      -2.486  13.822  11.920  0.80 40.23 LIG-0.34  N 
ATOM      5  CA  PRO B   5      -1.571  14.244  10.847  0.80 40.82 LIG 0.19  C 
ATOM      6  CD  PRO B   5      -2.913  12.425  11.701  0.80 40.52 LIG 0.13  C 
ATOM      7  CB  PRO B   5      -1.429  12.975   9.988  0.80 40.82 LIG 0.04  C 
ATOM      8  CG  PRO B   5      -1.745  11.857  10.937  0.80 40.73 LIG 0.02  C 
BRANCH 5 9
ATOM      9  C   PRO B   5      -2.184  15.390  10.026  0.80 41.28 LIG 0.20  C 
ATOM     10 O    PRO B   5      -3.318  15.829  10.353  0.80 41.33 LIG-0.65  OA
ATOM     11 OXT  PRO B   5      -1.508  15.836   9.063  0.80 41.80 LIG-0.65  OA
ENDBRANCH 5 9
ENDBRANCH 1 2
BRANCH 1 12
ATOM     12  CB  ARG B   4      -4.106  15.278  15.022  0.80 37.56 LIG 0.04  C 
BRANCH 12 13
ATOM     13  CG  ARG B   4      -5.606  15.583  15.101  0.80 36.72 LIG 0.02  C 
BRANCH 13 14
ATOM     14  CD  ARG B   4      -6.055  15.845  16.527  0.80 36.17 LIG 0.14  C 
BRANCH 14 15
ATOM     15  NE  ARG B   4      -5.145  15.290  17.528  0.80 35.68 LIG-0.23  N 
ATOM     16 HE   ARG B   4      -4.658  15.840  17.975  0.80 35.68 LIG 0.18  HD
ATOM     17  CZ  ARG B   4      -5.018  13.991  17.796  0.80 35.42 LIG 0.67  C 
ATOM     18  NH2 ARG B   4      -4.192  13.588  18.752  0.80 34.99 LIG-0.23  N 
ATOM     19  NH1 ARG B   4      -5.736  13.094  17.134  0.80 35.13 LIG-0.23  N 
ATOM     20 2HH2 ARG B   4      -4.110  12.749  18.924  0.80 34.99 LIG 0.17  HD
ATOM     21 1HH2 ARG B   4      -3.738  14.165  19.199  0.80 34.99 LIG 0.17  HD
ATOM     22 2HH1 ARG B   4      -5.648  12.258  17.313  0.80 35.13 LIG 0.17  HD
ATOM     23 1HH1 ARG B   4      -6.288  13.348  16.527  0.80 35.13 LIG 0.17  HD
ENDBRANCH 14 15
ENDBRANCH 13 14
ENDBRANCH 12 13
ENDBRANCH 1 12
BRANCH 1 24
ATOM     24  N   ARG B   4      -3.010  13.073  14.826  0.80 37.32 LIG-0.35  N 
ATOM     25 H    ARG B   4      -2.161  13.192  14.877  0.80 37.32 LIG 0.16  HD
ATOM     26  C   PRO B   3      -3.626  12.026  15.377  0.80 36.53 LIG 0.24  C 
ATOM     27 O    PRO B   3      -4.848  11.837  15.295  0.80 36.51 LIG-0.27  OA
BRANCH 26 28
ATOM     28  CA  PRO B   3      -2.723  11.031  16.114  0.80 35.73 LIG 0.18  C 
ATOM     29  CB  PRO B   3      -2.211  11.627  17.420  0.80 35.57 LIG 0.04  C 
ATOM     30  CG  PRO B   3      -1.067  12.439  16.970  0.80 35.32 LIG 0.02  C 
ATOM     31  CD  PRO B   3      -0.359  11.494  16.014  0.80 35.29 LIG 0.13  C 
ATOM     32  N   PRO B   3      -1.473  10.757  15.395  0.80 35.22 LIG-0.34  N 
ATOM     33  C   GLY B   2      -1.303   9.922  14.349  0.80 34.72 LIG 0.25  C 
ATOM     34 O    GLY B   2      -2.228   9.244  13.865  0.80 34.22 LIG-0.27  OA
BRANCH 33 35
ATOM     35  CA  GLY B   2       0.089   9.811  13.769  0.80 34.38 LIG 0.47  C 
ATOM     36  N   GLY B   2       0.325  10.885  12.806  0.80 34.02 LIG 0.61  N 
ENDBRANCH 33 35
ENDBRANCH 26 28
ENDBRANCH 1 24
TORSDOF 9
ENDMDL
MODEL 8
USER: ADFR SOLUTION from run 119
USER: SCORE 12.608127 LL:  -1.889 LR: -11.191 RR:   0.000 FEB:  -8.506
USER: RMSD 6.733776
USER: SEED 118
USER: STATUS no improvement in best in 9 clusters for 5 generations
USER: GENES 11
USER: genes 0 Translation |==|  0.55448 0.54115 0.59067
USER: genes 1 Rotation |==|  0.20296 0.82247 0.72626 0.58115
USER: genes 2 Torsion [N]-CA--C-[N] |==|  0.53851
USER: genes 3 Torsion [N]-CA--C-[O] |==|  0.54777
USER: genes 4 Torsion [C]-CA--CB-[CG] |==|  0.42254
USER: genes 5 Torsion [CA]-CB--CG-[CD] |==|  0.54235
USER: genes 6 Torsion [CB]-CG--CD-[NE] |==|  0.19795
USER: genes 7 Torsion [CG]-CD--NE-[CZ] |==|  0.75722
USER: genes 8 Torsion [C]-CA--N-[C] |==|  0.59373
USER: genes 9 Torsion [N]-C--CA-[CB] |==|  0.27411
USER: genes 10 Torsion [N]-C--CA-[N] |==|  0.41800
ROOT
ATOM      1  CA  ARG B   4      -2.209  14.267  14.646  0.80 38.14 LIG 0.18  C 
ENDROOT
BRANCH 1 2
ATOM      2  C   ARG B   4      -1.499  13.013  15.201  0.80 39.25 LIG 0.24  C 
ATOM      3 O    ARG B   4      -0.576  12.496  14.549  0.80 39.33 LIG-0.27  OA
ATOM      4  N   PRO B   5      -1.834  12.579  16.445  0.80 40.23 LIG-0.34  N 
ATOM      5  CA  PRO B   5      -1.197  11.386  17.026  0.80 40.82 LIG 0.19  C 
ATOM      6  CD  PRO B   5      -2.694  13.234  17.452  0.80 40.52 LIG 0.13  C 
ATOM      7  CB  PRO B   5      -1.693  11.399  18.484  0.80 40.82 LIG 0.04  C 
ATOM      8  CG  PRO B   5      -2.024  12.838  18.742  0.80 40.73 LIG 0.02  C 
BRANCH 5 9
ATOM      9  C   PRO B   5      -1.664  10.112  16.304  0.80 41.28 LIG 0.20  C 
ATOM     10 O    PRO B   5      -1.485   8.999  16.865  0.80 41.33 LIG-0.65  OA
ATOM     11 OXT  PRO B   5      -2.212  10.253  15.180  0.80 41.80 LIG-0.65  OA
ENDBRANCH 5 9
ENDBRANCH 1 2
BRANCH 1 12
ATOM     12  CB  ARG B   4      -3.729  14.192  14.895  0.80 37.56 LIG 0.04  C 
BRANCH 12 13
ATOM     13  CG  ARG B   4      -4.453  15.538  15.028  0.80 36.72 LIG 0.02  C 
BRANCH 13 14
ATOM     14  CD  ARG B   4      -5.837  15.376  15.630  0.80 36.17 LIG 0.14  C 
BRANCH 14 15
ATOM     15  NE  ARG B   4      -5.811  15.037  17.052  0.80 35.68 LIG-0.23  N 
ATOM     16 HE   ARG B   4      -5.848  15.683  17.618  0.80 35.68 LIG 0.18  HD
ATOM     17  CZ  ARG B   4      -5.735  13.797  17.531  0.80 35.42 LIG 0.67  C 
ATOM     18  NH2 ARG B   4      -5.757  13.588  18.841  0.80 34.99 LIG-0.23  N 
ATOM     19  NH1 ARG B   4      -5.668  12.759  16.708  0.80 35.13 LIG-0.23  N 
ATOM     20 2HH2 ARG B   4      -5.708  12.786  19.150  0.80 34.99 LIG 0.17  HD
ATOM     21 1HH2 ARG B   4      -5.821  14.253  19.381  0.80 34.99 LIG 0.17  HD
ATOM     22 2HH1 ARG B   4      -5.619  11.962  17.025  0.80 35.13 LIG 0.17  HD
ATOM     23 1HH1 ARG B   4      -5.673  12.885  15.857  0.80 35.13 LIG 0.17  HD
ENDBRANCH 14 15
ENDBRANCH 13 14
ENDBRANCH 12 13
ENDBRANCH 1 12
BRANCH 1 24
ATOM     24  N   ARG B   4      -1.928  14.320  13.209  0.80 37.32 LIG-0.35  N 
ATOM     25 H    ARG B   4      -1.868  13.544  12.845  0.80 37.32 LIG 0.16  HD
ATOM     26  C   PRO B   3      -1.779  15.453  12.521  0.80 36.53 LIG 0.24  C 
ATOM     27 O    PRO B   3      -1.847  16.576  13.039  0.80 36.51 LIG-0.27  OA
BRANCH 26 28
ATOM     28  CA  PRO B   3      -1.485  15.293  11.025  0.80 35.73 LIG 0.18  C 
ATOM     29  CB  PRO B   3      -2.756  15.467  10.201  0.80 35.57 LIG 0.04  C 
ATOM     30  CG  PRO B   3      -3.377  14.134  10.293  0.80 35.32 LIG 0.02  C 
ATOM     31  CD  PRO B   3      -2.197  13.212  10.038  0.80 35.29 LIG 0.13  C 
ATOM     32  N   PRO B   3      -1.076  13.930  10.669  0.80 35.22 LIG-0.34  N 
ATOM     33  C   GLY B   2       0.146  13.380  10.824  0.80 34.72 LIG 0.25  C 
ATOM     34 O    GLY B   2       1.115  14.005  11.293  0.80 34.22 LIG-0.27  OA
BRANCH 33 35
ATOM     35  CA  GLY B   2       0.323  11.945  10.383  0.80 34.38 LIG 0.47  C 
ATOM     36  N   GLY B   2       1.700  11.713   9.951  0.80 34.02 LIG 0.61  N 
ENDBRANCH 33 35
ENDBRANCH 26 28
ENDBRANCH 1 24
TORSDOF 9
ENDMDL
MODEL 9
USER: ADFR SOLUTION from run 118
USER: SCORE 12.426191 LL:  -1.479 LR: -11.170 RR:   0.000 FEB:  -8.485
USER: RMSD 3.811972
USER: SEED 117
USER: STATUS no improvement in best in 18 clusters for 5 generations
USER: GENES 11
USER: genes 0 Translation |==|  0.40518 0.38126 0.51325
USER: genes 1 Rotation |==|  0.75170 0.37710 0.75194 0.82874
USER: genes 2 Torsion [N]-CA--C-[N] |==|  0.86874
USER: genes 3 Torsion [N]-CA--C-[O] |==|  0.78548
USER: genes 4 Torsion [C]-CA--CB-[CG] |==|  0.99070
USER: genes 5 Torsion [CA]-CB--CG-[CD] |==|  0.57503
USER: genes 6 Torsion [CB]-CG--CD-[NE] |==|  0.18539
USER: genes 7 Torsion [CG]-CD--NE-[CZ] |==|  0.28428
USER: genes 8 Torsion [C]-CA--N-[C] |==|  0.86643
USER: genes 9 Torsion [N]-C--CA-[CB] |==|  0.27498
USER: genes 10 Torsion [N]-C--CA-[N] |==|  0.52386
ROOT
ATOM      1  CA  ARG B   4      -4.336  11.629  13.020  0.80 38.14 LIG 0.18  C 
ENDROOT
BRANCH 1 2
ATOM      2  C   ARG B   4      -4.281  13.081  12.500  0.80 39.25 LIG 0.24  C 
ATOM      3 O    ARG B   4      -4.670  13.332  11.347  0.80 39.33 LIG-0.27  OA
ATOM      4  N   PRO B   5      -3.911  14.063  13.365  0.80 40.23 LIG-0.34  N 
ATOM      5  CA  PRO B   5      -3.833  15.466  12.926  0.80 40.82 LIG 0.19  C 
ATOM      6  CD  PRO B   5      -3.693  13.976  14.823  0.80 40.52 LIG 0.13  C 
ATOM      7  CB  PRO B   5      -3.607  16.232  14.243  0.80 40.82 LIG 0.04  C 
ATOM      8  CG  PRO B   5      -4.173  15.324  15.293  0.80 40.73 LIG 0.02  C 
BRANCH 5 9
ATOM      9  C   PRO B   5      -2.650  15.673  11.967  0.80 41.28 LIG 0.20  C 
ATOM     10 O    PRO B   5      -1.488  15.745  12.447  0.80 41.33 LIG-0.65  OA
ATOM     11 OXT  PRO B   5      -2.911  15.757  10.739  0.80 41.80 LIG-0.65  OA
ENDBRANCH 5 9
ENDBRANCH 1 2
BRANCH 1 12
ATOM     12  CB  ARG B   4      -5.555  11.422  13.942  0.80 37.56 LIG 0.04  C 
BRANCH 12 13
ATOM     13  CG  ARG B   4      -6.402  12.669  14.223  0.80 36.72 LIG 0.02  C 
BRANCH 13 14
ATOM     14  CD  ARG B   4      -7.117  12.577  15.559  0.80 36.17 LIG 0.14  C 
BRANCH 14 15
ATOM     15  NE  ARG B   4      -6.206  12.596  16.703  0.80 35.68 LIG-0.23  N 
ATOM     16 HE   ARG B   4      -5.782  11.872  16.889  0.80 35.68 LIG 0.18  HD
ATOM     17  CZ  ARG B   4      -5.987  13.658  17.476  0.80 35.42 LIG 0.67  C 
ATOM     18  NH2 ARG B   4      -5.110  13.588  18.468  0.80 34.99 LIG-0.23  N 
ATOM     19  NH1 ARG B   4      -6.617  14.802  17.244  0.80 35.13 LIG-0.23  N 
ATOM     20 2HH2 ARG B   4      -4.969  14.275  18.967  0.80 34.99 LIG 0.17  HD
ATOM     21 1HH2 ARG B   4      -4.682  12.857  18.613  0.80 34.99 LIG 0.17  HD
ATOM     22 2HH1 ARG B   4      -6.470  15.483  17.747  0.80 35.13 LIG 0.17  HD
ATOM     23 1HH1 ARG B   4      -7.172  14.862  16.590  0.80 35.13 LIG 0.17  HD
ENDBRANCH 14 15
ENDBRANCH 13 14
ENDBRANCH 12 13
ENDBRANCH 1 12
BRANCH 1 24
ATOM     24  N   ARG B   4      -3.092  11.388  13.756  0.80 37.32 LIG-0.35  N 
ATOM     25 H    ARG B   4      -3.216  11.026  14.526  0.80 37.32 LIG 0.16  HD
ATOM     26  C   PRO B   3      -1.881  11.694  13.289  0.80 36.53 LIG 0.24  C 
ATOM     27 O    PRO B   3      -1.692  12.230  12.188  0.80 36.51 LIG-0.27  OA
BRANCH 26 28
ATOM     28  CA  PRO B   3      -0.704  11.365  14.217  0.80 35.73 LIG 0.18  C 
ATOM     29  CB  PRO B   3      -0.047  10.051  13.813  0.80 35.57 LIG 0.04  C 
ATOM     30  CG  PRO B   3      -0.921   9.051  14.452  0.80 35.32 LIG 0.02  C 
ATOM     31  CD  PRO B   3      -1.110   9.632  15.843  0.80 35.29 LIG 0.13  C 
ATOM     32  N   PRO B   3      -1.127  11.083  15.593  0.80 35.22 LIG-0.34  N 
ATOM     33  C   GLY B   2      -1.445  11.984  16.547  0.80 34.72 LIG 0.25  C 
ATOM     34 O    GLY B   2      -1.395  13.213  16.361  0.80 34.22 LIG-0.27  OA
BRANCH 33 35
ATOM     35  CA  GLY B   2      -1.860  11.446  17.898  0.80 34.38 LIG 0.47  C 
ATOM     36  N   GLY B   2      -2.361  12.529  18.742  0.80 34.02 LIG 0.61  N 
ENDBRANCH 33 35
ENDBRANCH 26 28
ENDBRANCH 1 24
TORSDOF 9
ENDMDL
MODEL 10
USER: ADFR SOLUTION from run 96
USER: SCORE 13.253933 LL:  -2.572 LR: -11.146 RR:   0.000 FEB:  -8.461
USER: RMSD 6.315134
USER: SEED 95
USER: STATUS no improvement in best in 12 clusters for 5 generations
USER: GENES 11
USER: genes 0 Translation |==|  0.33250 0.42522 0.59968
USER: genes 1 Rotation |==|  0.25650 0.74326 0.37815 0.84159
USER: genes 2 Torsion [N]-CA--C-[N] |==|  0.85189
USER: genes 3 Torsion [N]-CA--C-[O] |==|  0.42278
USER: genes 4 Torsion [C]-CA--CB-[CG] |==|  0.36516
USER: genes 5 Torsion [CA]-CB--CG-[CD] |==|  0.03838
USER: genes 6 Torsion [CB]-CG--CD-[NE] |==|  0.71867
USER: genes 7 Torsion [CG]-CD--NE-[CZ] |==|  0.38195
USER: genes 8 Torsion [C]-CA--N-[C] |==|  0.64445
USER: genes 9 Torsion [N]-C--CA-[CB] |==|  0.50359
USER: genes 10 Torsion [N]-C--CA-[N] |==|  0.61186
ROOT
ATOM      1  CA  ARG B   4      -5.372  12.354  14.835  0.80 38.14 LIG 0.18  C 
ENDROOT
BRANCH 1 2
ATOM      2  C   ARG B   4      -6.611  11.439  14.934  0.80 39.25 LIG 0.24  C 
ATOM      3 O    ARG B   4      -7.620  11.840  15.538  0.80 39.33 LIG-0.27  OA
ATOM      4  N   PRO B   5      -6.598  10.260  14.256  0.80 40.23 LIG-0.34  N 
ATOM      5  CA  PRO B   5      -7.747   9.341  14.317  0.80 40.82 LIG 0.19  C 
ATOM      6  CD  PRO B   5      -5.607   9.767  13.278  0.80 40.52 LIG 0.13  C 
ATOM      7  CB  PRO B   5      -7.403   8.281  13.255  0.80 40.82 LIG 0.04  C 
ATOM      8  CG  PRO B   5      -6.473   8.992  12.319  0.80 40.73 LIG 0.02  C 
BRANCH 5 9
ATOM      9  C   PRO B   5      -7.860   8.699  15.709  0.80 41.28 LIG 0.20  C 
ATOM     10 O    PRO B   5      -8.995   8.338  16.117  0.80 41.33 LIG-0.65  OA
ATOM     11 OXT  PRO B   5      -6.798   8.565  16.371  0.80 41.80 LIG-0.65  OA
ENDBRANCH 5 9
ENDBRANCH 1 2
BRANCH 1 12
ATOM     12  CB  ARG B   4      -5.213  12.910  13.406  0.80 37.56 LIG 0.04  C 
BRANCH 12 13
ATOM     13  CG  ARG B   4      -4.978  14.422  13.297  0.80 36.72 LIG 0.02  C 
BRANCH 13 14
ATOM     14  CD  ARG B   4      -4.614  15.035  14.637  0.80 36.17 LIG 0.14  C 
BRANCH 14 15
ATOM     15  NE  ARG B   4      -5.734  15.720  15.281  0.80 35.68 LIG-0.23  N 
ATOM     16 HE   ARG B   4      -6.239  16.212  14.788  0.80 35.68 LIG 0.18  HD
ATOM     17  CZ  ARG B   4      -6.026  15.636  16.578  0.80 35.42 LIG 0.67  C 
ATOM     18  NH2 ARG B   4      -7.089  16.266  17.061  0.80 34.99 LIG-0.23  N 
ATOM     19  NH1 ARG B   4      -5.280  14.901  17.390  0.80 35.13 LIG-0.23  N 
ATOM     20 2HH2 ARG B   4      -7.277  16.211  17.899  0.80 34.99 LIG 0.17  HD
ATOM     21 1HH2 ARG B   4      -7.590  16.728  16.537  0.80 34.99 LIG 0.17  HD
ATOM     22 2HH1 ARG B   4      -5.475  14.852  18.226  0.80 35.13 LIG 0.17  HD
ATOM     23 1HH1 ARG B   4      -4.601  14.473  17.081  0.80 35.13 LIG 0.17  HD
ENDBRANCH 14 15
ENDBRANCH 13 14
ENDBRANCH 12 13
ENDBRANCH 1 12
BRANCH 1 24
ATOM     24  N   ARG B   4      -4.208  11.543  15.201  0.80 37.32 LIG-0.35  N 
ATOM     25 H    ARG B   4      -4.153  10.807  14.760  0.80 37.32 LIG 0.16  HD
ATOM     26  C   PRO B   3      -3.313  11.899  16.124  0.80 36.53 LIG 0.24  C 
ATOM     27 O    PRO B   3      -3.391  12.949  16.777  0.80 36.51 LIG-0.27  OA
BRANCH 26 28
ATOM     28  CA  PRO B   3      -2.168  10.907  16.363  0.80 35.73 LIG 0.18  C 
ATOM     29  CB  PRO B   3      -1.235  11.410  17.458  0.80 35.57 LIG 0.04  C 
ATOM     30  CG  PRO B   3      -0.364  12.347  16.726  0.80 35.32 LIG 0.02  C 
ATOM     31  CD  PRO B   3      -0.023  11.556  15.474  0.80 35.29 LIG 0.13  C 
ATOM     32  N   PRO B   3      -1.260  10.800  15.216  0.80 35.22 LIG-0.34  N 
ATOM     33  C   GLY B   2      -1.456  10.086  14.087  0.80 34.72 LIG 0.25  C 
ATOM     34 O    GLY B   2      -2.470   9.391  13.893  0.80 34.22 LIG-0.27  OA
BRANCH 33 35
ATOM     35  CA  GLY B   2      -0.370  10.138  13.036  0.80 34.38 LIG 0.47  C 
ATOM     36  N   GLY B   2      -0.959  10.213  11.701  0.80 34.02 LIG 0.61  N 
ENDBRANCH 33 35
ENDBRANCH 26 28
ENDBRANCH 1 24
TORSDOF 9
ENDMDL
MODEL 11
USER: ADFR SOLUTION from run 16
USER: SCORE 12.798020 LL:  -2.032 LR: -11.108 RR:   0.000 FEB:  -8.423
USER: RMSD 5.929722
USER: SEED 415136
USER: STATUS no improvement in best in 14 clusters for 5 generations
USER: GENES 11
USER: genes 0 Translation |==|  0.56888 0.55859 0.52520
USER: genes 1 Rotation |==|  0.24880 0.75173 0.28321 0.77665
USER: genes 2 Torsion [N]-CA--C-[N] |==|  0.17218
USER: genes 3 Torsion [N]-CA--C-[O] |==|  0.55194
USER: genes 4 Torsion [C]-CA--CB-[CG] |==|  0.60844
USER: genes 5 Torsion [CA]-CB--CG-[CD] |==|  0.30391
USER: genes 6 Torsion [CB]-CG--CD-[NE] |==|  0.54823
USER: genes 7 Torsion [CG]-CD--NE-[CZ] |==|  0.74605
USER: genes 8 Torsion [C]-CA--N-[C] |==|  0.14941
USER: genes 9 Torsion [N]-C--CA-[CB] |==|  0.58792
USER: genes 10 Torsion [N]-C--CA-[N] |==|  0.56003
ROOT
ATOM      1  CA  ARG B   4      -2.003  14.555  13.271  0.80 38.14 LIG 0.18  C 
ENDROOT
BRANCH 1 2
ATOM      2  C   ARG B   4      -3.468  14.153  13.551  0.80 39.25 LIG 0.24  C 
ATOM      3 O    ARG B   4      -4.175  13.737  12.618  0.80 39.33 LIG-0.27  OA
ATOM      4  N   PRO B   5      -3.904  14.161  14.839  0.80 40.23 LIG-0.34  N 
ATOM      5  CA  PRO B   5      -5.291  13.794  15.168  0.80 40.82 LIG 0.19  C 
ATOM      6  CD  PRO B   5      -3.124  14.353  16.078  0.80 40.52 LIG 0.13  C 
ATOM      7  CB  PRO B   5      -5.279  13.722  16.706  0.80 40.82 LIG 0.04  C 
ATOM      8  CG  PRO B   5      -3.844  13.449  17.045  0.80 40.73 LIG 0.02  C 
BRANCH 5 9
ATOM      9  C   PRO B   5      -6.272  14.874  14.682  0.80 41.28 LIG 0.20  C 
ATOM     10 O    PRO B   5      -7.428  14.907  15.178  0.80 41.33 LIG-0.65  OA
ATOM     11 OXT  PRO B   5      -5.857  15.679  13.808  0.80 41.80 LIG-0.65  OA
ENDBRANCH 5 9
ENDBRANCH 1 2
BRANCH 1 12
ATOM     12  CB  ARG B   4      -1.711  14.546  11.757  0.80 37.56 LIG 0.04  C 
BRANCH 12 13
ATOM     13  CG  ARG B   4      -0.335  14.009  11.343  0.80 36.72 LIG 0.02  C 
BRANCH 13 14
ATOM     14  CD  ARG B   4      -0.440  12.662  10.651  0.80 36.17 LIG 0.14  C 
BRANCH 14 15
ATOM     15  NE  ARG B   4       0.831  11.939  10.604  0.80 35.68 LIG-0.23  N 
ATOM     16 HE   ARG B   4       1.024  11.426  11.266  0.80 35.68 LIG 0.18  HD
ATOM     17  CZ  ARG B   4       1.709  12.021   9.606  0.80 35.42 LIG 0.67  C 
ATOM     18  NH2 ARG B   4       2.818  11.293   9.637  0.80 34.99 LIG-0.23  N 
ATOM     19  NH1 ARG B   4       1.472  12.802   8.561  0.80 35.13 LIG-0.23  N 
ATOM     20 2HH2 ARG B   4       3.385  11.346   8.992  0.80 34.99 LIG 0.17  HD
ATOM     21 1HH2 ARG B   4       2.970  10.769  10.301  0.80 34.99 LIG 0.17  HD
ATOM     22 2HH1 ARG B   4       2.044  12.848   7.921  0.80 35.13 LIG 0.17  HD
ATOM     23 1HH1 ARG B   4       0.746  13.261   8.524  0.80 35.13 LIG 0.17  HD
ENDBRANCH 14 15
ENDBRANCH 13 14
ENDBRANCH 12 13
ENDBRANCH 1 12
BRANCH 1 24
ATOM     24  N   ARG B   4      -1.151  13.584  13.962  0.80 37.32 LIG-0.35  N 
ATOM     25 H    ARG B   4      -0.576  13.948  14.487  0.80 37.32 LIG 0.16  HD
ATOM     26  C   PRO B   3      -1.248  12.263  13.803  0.80 36.53 LIG 0.24  C 
ATOM     27 O    PRO B   3      -2.062  11.729  13.038  0.80 36.51 LIG-0.27  OA
BRANCH 26 28
ATOM     28  CA  PRO B   3      -0.259  11.418  14.615  0.80 35.73 LIG 0.18  C 
ATOM     29  CB  PRO B   3       0.105  10.141  13.867  0.80 35.57 LIG 0.04  C 
ATOM     30  CG  PRO B   3      -1.026   9.253  14.189  0.80 35.32 LIG 0.02  C 
ATOM     31  CD  PRO B   3      -1.186   9.466  15.684  0.80 35.29 LIG 0.13  C 
ATOM     32  N   PRO B   3      -0.845  10.889  15.851  0.80 35.22 LIG-0.34  N 
ATOM     33  C   GLY B   2      -1.020  11.548  17.016  0.80 34.72 LIG 0.25  C 
ATOM     34 O    GLY B   2      -0.670  12.731  17.184  0.80 34.22 LIG-0.27  OA
BRANCH 33 35
ATOM     35  CA  GLY B   2      -1.656  10.786  18.156  0.80 34.38 LIG 0.47  C 
ATOM     36  N   GLY B   2      -2.235  11.713  19.126  0.80 34.02 LIG 0.61  N 
ENDBRANCH 33 35
ENDBRANCH 26 28
ENDBRANCH 1 24
TORSDOF 9
ENDMDL
MODEL 12
USER: ADFR SOLUTION from run 89
USER: SCORE 12.503431 LL:  -2.125 LR: -11.046 RR:   0.000 FEB:  -8.362
USER: RMSD 4.610242
USER: SEED 88
USER: STATUS no improvement in best in 12 clusters for 5 generations
USER: GENES 11
USER: genes 0 Translation |==|  0.71953 0.49137 0.44650
USER: genes 1 Rotation |==|  0.30811 0.73250 0.19574 0.75797
USER: genes 2 Torsion [N]-CA--C-[N] |==|  0.29444
USER: genes 3 Torsion [N]-CA--C-[O] |==|  0.51929
USER: genes 4 Torsion [C]-CA--CB-[CG] |==|  0.05469
USER: genes 5 Torsion [CA]-CB--CG-[CD] |==|  0.67089
USER: genes 6 Torsion [CB]-CG--CD-[NE] |==|  0.24354
USER: genes 7 Torsion [CG]-CD--NE-[CZ] |==|  0.74024
USER: genes 8 Torsion [C]-CA--N-[C] |==|  0.86596
USER: genes 9 Torsion [N]-C--CA-[CB] |==|  0.86035
USER: genes 10 Torsion [N]-C--CA-[N] |==|  0.57754
ROOT
ATOM      1  CA  ARG B   4       0.143  13.446  11.619  0.80 38.14 LIG 0.18  C 
ENDROOT
BRANCH 1 2
ATOM      2  C   ARG B   4      -1.393  13.523  11.481  0.80 39.25 LIG 0.24  C 
ATOM      3 O    ARG B   4      -2.006  12.582  10.951  0.80 39.33 LIG-0.27  OA
ATOM      4  N   PRO B   5      -2.038  14.576  12.051  0.80 40.23 LIG-0.34  N 
ATOM      5  CA  PRO B   5      -3.501  14.709  11.948  0.80 40.82 LIG 0.19  C 
ATOM      6  CD  PRO B   5      -1.497  15.618  12.947  0.80 40.52 LIG 0.13  C 
ATOM      7  CB  PRO B   5      -3.813  15.879  12.899  0.80 40.82 LIG 0.04  C 
ATOM      8  CG  PRO B   5      -2.664  15.881  13.862  0.80 40.73 LIG 0.02  C 
BRANCH 5 9
ATOM      9  C   PRO B   5      -3.919  15.052  10.509  0.80 41.28 LIG 0.20  C 
ATOM     10 O    PRO B   5      -5.125  15.330  10.280  0.80 41.33 LIG-0.65  OA
ATOM     11 OXT  PRO B   5      -3.019  15.041   9.629  0.80 41.80 LIG-0.65  OA
ENDBRANCH 5 9
ENDBRANCH 1 2
BRANCH 1 12
ATOM     12  CB  ARG B   4       0.800  13.117  10.262  0.80 37.56 LIG 0.04  C 
BRANCH 12 13
ATOM     13  CG  ARG B   4      -0.056  13.393   9.020  0.80 36.72 LIG 0.02  C 
BRANCH 13 14
ATOM     14  CD  ARG B   4      -0.326  12.127   8.228  0.80 36.17 LIG 0.14  C 
BRANCH 14 15
ATOM     15  NE  ARG B   4      -1.514  11.405   8.683  0.80 35.68 LIG-0.23  N 
ATOM     16 HE   ARG B   4      -2.273  11.636   8.353  0.80 35.68 LIG 0.18  HD
ATOM     17  CZ  ARG B   4      -1.500  10.415   9.574  0.80 35.42 LIG 0.67  C 
ATOM     18  NH2 ARG B   4      -2.627   9.794   9.894  0.80 34.99 LIG-0.23  N 
ATOM     19  NH1 ARG B   4      -0.360  10.019  10.124  0.80 35.13 LIG-0.23  N 
ATOM     20 2HH2 ARG B   4      -2.618   9.154  10.469  0.80 34.99 LIG 0.17  HD
ATOM     21 1HH2 ARG B   4      -3.368  10.031   9.527  0.80 34.99 LIG 0.17  HD
ATOM     22 2HH1 ARG B   4      -0.360   9.379  10.698  0.80 35.13 LIG 0.17  HD
ATOM     23 1HH1 ARG B   4       0.378  10.402   9.907  0.80 35.13 LIG 0.17  HD
ENDBRANCH 14 15
ENDBRANCH 13 14
ENDBRANCH 12 13
ENDBRANCH 1 12
BRANCH 1 24
ATOM     24  N   ARG B   4       0.435  12.394  12.596  0.80 37.32 LIG-0.35  N 
ATOM     25 H    ARG B   4       1.037  11.840  12.330  0.80 37.32 LIG 0.16  HD
ATOM     26  C   PRO B   3      -0.164  12.294  13.783  0.80 36.53 LIG 0.24  C 
ATOM     27 O    PRO B   3      -1.043  13.077  14.168  0.80 36.51 LIG-0.27  OA
BRANCH 26 28
ATOM     28  CA  PRO B   3       0.280  11.117  14.660  0.80 35.73 LIG 0.18  C 
ATOM     29  CB  PRO B   3       0.240   9.811  13.875  0.80 35.57 LIG 0.04  C 
ATOM     30  CG  PRO B   3      -1.180   9.431  13.964  0.80 35.32 LIG 0.02  C 
ATOM     31  CD  PRO B   3      -1.484   9.667  15.433  0.80 35.29 LIG 0.13  C 
ATOM     32  N   PRO B   3      -0.654  10.840  15.756  0.80 35.22 LIG-0.34  N 
ATOM     33  C   GLY B   2      -0.747  11.498  16.931  0.80 34.72 LIG 0.25  C 
ATOM     34 O    GLY B   2      -0.002  12.446  17.237  0.80 34.22 LIG-0.27  OA
BRANCH 33 35
ATOM     35  CA  GLY B   2      -1.801  11.027  17.908  0.80 34.38 LIG 0.47  C 
ATOM     36  N   GLY B   2      -2.235  12.135  18.758  0.80 34.02 LIG 0.61  N 
ENDBRANCH 33 35
ENDBRANCH 26 28
ENDBRANCH 1 24
TORSDOF 9
ENDMDL
MODEL 13
USER: ADFR SOLUTION from run 124
USER: SCORE 12.483315 LL:  -1.863 LR: -11.035 RR:   0.000 FEB:  -8.350
USER: RMSD 6.662559
USER: SEED 123
USER: STATUS no improvement in best in 15 clusters for 5 generations
USER: GENES 11
USER: genes 0 Translation |==|  0.40042 0.38167 0.64211
USER: genes 1 Rotation |==|  0.43298 0.86977 0.53621 0.82783
USER: genes 2 Torsion [N]-CA--C-[N] |==|  0.87834
USER: genes 3 Torsion [N]-CA--C-[O] |==|  0.39032
USER: genes 4 Torsion [C]-CA--CB-[CG] |==|  0.28844
USER: genes 5 Torsion [CA]-CB--CG-[CD] |==|  0.16708
USER: genes 6 Torsion [CB]-CG--CD-[NE] |==|  0.78163
USER: genes 7 Torsion [CG]-CD--NE-[CZ] |==|  0.39717
USER: genes 8 Torsion [C]-CA--N-[C] |==|  0.66124
USER: genes 9 Torsion [N]-C--CA-[CB] |==|  0.50070
USER: genes 10 Torsion [N]-C--CA-[N] |==|  0.20309
ROOT
ATOM      1  CA  ARG B   4      -4.404  11.636  15.726  0.80 38.14 LIG 0.18  C 
ENDROOT
BRANCH 1 2
ATOM      2  C   ARG B   4      -5.770  10.916  15.752  0.80 39.25 LIG 0.24  C 
ATOM      3 O    ARG B   4      -6.352  10.750  16.838  0.80 39.33 LIG-0.27  OA
ATOM      4  N   PRO B   5      -6.348  10.587  14.566  0.80 40.23 LIG-0.34  N 
ATOM      5  CA  PRO B   5      -7.646   9.894  14.526  0.80 40.82 LIG 0.19  C 
ATOM      6  CD  PRO B   5      -5.931  10.960  13.199  0.80 40.52 LIG 0.13  C 
ATOM      7  CB  PRO B   5      -8.014   9.926  13.031  0.80 40.82 LIG 0.04  C 
ATOM      8  CG  PRO B   5      -7.256  11.104  12.496  0.80 40.73 LIG 0.02  C 
BRANCH 5 9
ATOM      9  C   PRO B   5      -7.508   8.445  15.020  0.80 41.28 LIG 0.20  C 
ATOM     10 O    PRO B   5      -8.420   7.963  15.742  0.80 41.33 LIG-0.65  OA
ATOM     11 OXT  PRO B   5      -6.480   7.811  14.668  0.80 41.80 LIG-0.65  OA
ENDBRANCH 5 9
ENDBRANCH 1 2
BRANCH 1 12
ATOM     12  CB  ARG B   4      -4.574  13.124  15.359  0.80 37.56 LIG 0.04  C 
BRANCH 12 13
ATOM     13  CG  ARG B   4      -4.457  14.118  16.521  0.80 36.72 LIG 0.02  C 
BRANCH 13 14
ATOM     14  CD  ARG B   4      -3.099  14.041  17.195  0.80 36.17 LIG 0.14  C 
BRANCH 14 15
ATOM     15  NE  ARG B   4      -2.974  12.908  18.111  0.80 35.68 LIG-0.23  N 
ATOM     16 HE   ARG B   4      -3.664  12.689  18.574  0.80 35.68 LIG 0.18  HD
ATOM     17  CZ  ARG B   4      -1.863  12.191  18.276  0.80 35.42 LIG 0.67  C 
ATOM     18  NH2 ARG B   4      -1.860  11.154  19.104  0.80 34.99 LIG-0.23  N 
ATOM     19  NH1 ARG B   4      -0.764  12.484  17.596  0.80 35.13 LIG-0.23  N 
ATOM     20 2HH2 ARG B   4      -1.143  10.691  19.210  0.80 34.99 LIG 0.17  HD
ATOM     21 1HH2 ARG B   4      -2.574  10.944  19.533  0.80 34.99 LIG 0.17  HD
ATOM     22 2HH1 ARG B   4      -0.051  12.016  17.709  0.80 35.13 LIG 0.17  HD
ATOM     23 1HH1 ARG B   4      -0.764  13.142  17.043  0.80 35.13 LIG 0.17  HD
ENDBRANCH 14 15
ENDBRANCH 13 14
ENDBRANCH 12 13
ENDBRANCH 1 12
BRANCH 1 24
ATOM     24  N   ARG B   4      -3.578  10.954  14.727  0.80 37.32 LIG-0.35  N 
ATOM     25 H    ARG B   4      -3.928  10.948  13.942  0.80 37.32 LIG 0.16  HD
ATOM     26  C   PRO B   3      -2.398  10.393  14.994  0.80 36.53 LIG 0.24  C 
ATOM     27 O    PRO B   3      -1.892  10.381  16.125  0.80 36.51 LIG-0.27  OA
BRANCH 26 28
ATOM     28  CA  PRO B   3      -1.691   9.724  13.809  0.80 35.73 LIG 0.18  C 
ATOM     29  CB  PRO B   3      -0.362   9.117  14.242  0.80 35.57 LIG 0.04  C 
ATOM     30  CG  PRO B   3       0.541  10.281  14.213  0.80 35.32 LIG 0.02  C 
ATOM     31  CD  PRO B   3       0.180  10.935  12.890  0.80 35.29 LIG 0.13  C 
ATOM     32  N   PRO B   3      -1.267  10.684  12.784  0.80 35.22 LIG-0.34  N 
ATOM     33  C   GLY B   2      -2.036  11.246  11.828  0.80 34.72 LIG 0.25  C 
ATOM     34 O    GLY B   2      -3.245  10.985  11.691  0.80 34.22 LIG-0.27  OA
BRANCH 33 35
ATOM     35  CA  GLY B   2      -1.368  12.219  10.883  0.80 34.38 LIG 0.47  C 
ATOM     36  N   GLY B   2      -0.509  11.502   9.942  0.80 34.02 LIG 0.61  N 
ENDBRANCH 33 35
ENDBRANCH 26 28
ENDBRANCH 1 24
TORSDOF 9
ENDMDL
MODEL 14
USER: ADFR SOLUTION from run 23
USER: SCORE 13.576514 LL:  -2.708 LR: -10.986 RR:   0.000 FEB:  -8.301
USER: RMSD 6.003451
USER: SEED 22
USER: STATUS no improvement in best in 5 clusters for 5 generations
USER: GENES 11
USER: genes 0 Translation |==|  0.42731 0.58131 0.58113
USER: genes 1 Rotation |==|  0.12528 0.79504 0.63252 0.57053
USER: genes 2 Torsion [N]-CA--C-[N] |==|  0.88335
USER: genes 3 Torsion [N]-CA--C-[O] |==|  0.82011
USER: genes 4 Torsion [C]-CA--CB-[CG] |==|  0.29301
USER: genes 5 Torsion [CA]-CB--CG-[CD] |==|  0.69758
USER: genes 6 Torsion [CB]-CG--CD-[NE] |==|  0.19019
USER: genes 7 Torsion [CG]-CD--NE-[CZ] |==|  0.71999
USER: genes 8 Torsion [C]-CA--N-[C] |==|  0.78691
USER: genes 9 Torsion [N]-C--CA-[CB] |==|  0.17925
USER: genes 10 Torsion [N]-C--CA-[N] |==|  0.59760
ROOT
ATOM      1  CA  ARG B   4      -4.021  14.930  14.446  0.80 38.14 LIG 0.18  C 
ENDROOT
BRANCH 1 2
ATOM      2  C   ARG B   4      -3.367  14.062  15.543  0.80 39.25 LIG 0.24  C 
ATOM      3 O    ARG B   4      -3.328  14.482  16.711  0.80 39.33 LIG-0.27  OA
ATOM      4  N   PRO B   5      -2.953  12.809  15.212  0.80 40.23 LIG-0.34  N 
ATOM      5  CA  PRO B   5      -2.316  11.936  16.213  0.80 40.82 LIG 0.19  C 
ATOM      6  CD  PRO B   5      -3.177  12.062  13.958  0.80 40.52 LIG 0.13  C 
ATOM      7  CB  PRO B   5      -2.224  10.582  15.487  0.80 40.82 LIG 0.04  C 
ATOM      8  CG  PRO B   5      -3.312  10.646  14.457  0.80 40.73 LIG 0.02  C 
BRANCH 5 9
ATOM      9  C   PRO B   5      -0.915  12.454  16.577  0.80 41.28 LIG 0.20  C 
ATOM     10 O    PRO B   5      -0.025  12.465  15.687  0.80 41.33 LIG-0.65  OA
ATOM     11 OXT  PRO B   5      -0.735  12.849  17.758  0.80 41.80 LIG-0.65  OA
ENDBRANCH 5 9
ENDBRANCH 1 2
BRANCH 1 12
ATOM     12  CB  ARG B   4      -5.488  14.513  14.217  0.80 37.56 LIG 0.04  C 
BRANCH 12 13
ATOM     13  CG  ARG B   4      -6.550  15.463  14.783  0.80 36.72 LIG 0.02  C 
BRANCH 13 14
ATOM     14  CD  ARG B   4      -7.258  14.867  15.986  0.80 36.17 LIG 0.14  C 
BRANCH 14 15
ATOM     15  NE  ARG B   4      -6.395  14.742  17.159  0.80 35.68 LIG-0.23  N 
ATOM     16 HE   ARG B   4      -6.251  15.448  17.627  0.80 35.68 LIG 0.18  HD
ATOM     17  CZ  ARG B   4      -5.815  13.609  17.552  0.80 35.42 LIG 0.67  C 
ATOM     18  NH2 ARG B   4      -5.079  13.588  18.656  0.80 34.99 LIG-0.23  N 
ATOM     19  NH1 ARG B   4      -5.993  12.488  16.867  0.80 35.13 LIG-0.23  N 
ATOM     20 2HH2 ARG B   4      -4.705  12.856  18.910  0.80 34.99 LIG 0.17  HD
ATOM     21 1HH2 ARG B   4      -4.975  14.306  19.117  0.80 34.99 LIG 0.17  HD
ATOM     22 2HH1 ARG B   4      -5.615  11.761  17.128  0.80 35.13 LIG 0.17  HD
ATOM     23 1HH1 ARG B   4      -6.485  12.488  16.162  0.80 35.13 LIG 0.17  HD
ENDBRANCH 14 15
ENDBRANCH 13 14
ENDBRANCH 12 13
ENDBRANCH 1 12
BRANCH 1 24
ATOM     24  N   ARG B   4      -3.238  14.738  13.222  0.80 37.32 LIG-0.35  N 
ATOM     25 H    ARG B   4      -3.619  14.218  12.653  0.80 37.32 LIG 0.16  HD
ATOM     26  C   PRO B   3      -2.053  15.306  13.000  0.80 36.53 LIG 0.24  C 
ATOM     27 O    PRO B   3      -1.488  16.043  13.820  0.80 36.51 LIG-0.27  OA
BRANCH 26 28
ATOM     28  CA  PRO B   3      -1.393  14.975  11.656  0.80 35.73 LIG 0.18  C 
ATOM     29  CB  PRO B   3      -2.222  15.514  10.497  0.80 35.57 LIG 0.04  C 
ATOM     30  CG  PRO B   3      -3.249  14.470  10.330  0.80 35.32 LIG 0.02  C 
ATOM     31  CD  PRO B   3      -2.425  13.196  10.398  0.80 35.29 LIG 0.13  C 
ATOM     32  N   PRO B   3      -1.374  13.536  11.372  0.80 35.22 LIG-0.34  N 
ATOM     33  C   GLY B   2      -0.511  12.621  11.862  0.80 34.72 LIG 0.25  C 
ATOM     34 O    GLY B   2       0.421  12.914  12.632  0.80 34.22 LIG-0.27  OA
BRANCH 33 35
ATOM     35  CA  GLY B   2      -0.698  11.186  11.424  0.80 34.38 LIG 0.47  C 
ATOM     36  N   GLY B   2      -0.362  10.274  12.516  0.80 34.02 LIG 0.61  N 
ENDBRANCH 33 35
ENDBRANCH 26 28
ENDBRANCH 1 24
TORSDOF 9
ENDMDL
MODEL 15
USER: ADFR SOLUTION from run 113
USER: SCORE 12.795086 LL:  -1.975 LR: -10.978 RR:   0.000 FEB:  -8.293
USER: RMSD 6.682327
USER: SEED 112
USER: STATUS no improvement in best in 7 clusters for 5 generations
USER: GENES 11
USER: genes 0 Translation |==|  0.39437 0.35013 0.55823
USER: genes 1 Rotation |==|  0.36078 0.79971 0.55447 0.87125
USER: genes 2 Torsion [N]-CA--C-[N] |==|  0.37584
USER: genes 3 Torsion [N]-CA--C-[O] |==|  0.42373
USER: genes 4 Torsion [C]-CA--CB-[CG] |==|  0.31611
USER: genes 5 Torsion [CA]-CB--CG-[CD] |==|  0.88668
USER: genes 6 Torsion [CB]-CG--CD-[NE] |==|  0.28641
USER: genes 7 Torsion [CG]-CD--NE-[CZ] |==|  0.25728
USER: genes 8 Torsion [C]-CA--N-[C] |==|  0.64445
USER: genes 9 Torsion [N]-C--CA-[CB] |==|  0.48603
USER: genes 10 Torsion [N]-C--CA-[N] |==|  0.35188
ROOT
ATOM      1  CA  ARG B   4      -4.490  11.115  13.965  0.80 38.14 LIG 0.18  C 
ENDROOT
BRANCH 1 2
ATOM      2  C   ARG B   4      -5.547  10.028  13.674  0.80 39.25 LIG 0.24  C 
ATOM      3 O    ARG B   4      -5.554   9.463  12.568  0.80 39.33 LIG-0.27  OA
ATOM      4  N   PRO B   5      -6.371   9.642  14.686  0.80 40.23 LIG-0.34  N 
ATOM      5  CA  PRO B   5      -7.403   8.615  14.469  0.80 40.82 LIG 0.19  C 
ATOM      6  CD  PRO B   5      -6.309  10.004  16.116  0.80 40.52 LIG 0.13  C 
ATOM      7  CB  PRO B   5      -7.925   8.338  15.890  0.80 40.82 LIG 0.04  C 
ATOM      8  CG  PRO B   5      -6.787   8.738  16.780  0.80 40.73 LIG 0.02  C 
BRANCH 5 9
ATOM      9  C   PRO B   5      -8.528   9.153  13.571  0.80 41.28 LIG 0.20  C 
ATOM     10 O    PRO B   5      -9.183   8.338  12.869  0.80 41.33 LIG-0.65  OA
ATOM     11 OXT  PRO B   5      -8.739  10.394  13.591  0.80 41.80 LIG-0.65  OA
ENDBRANCH 5 9
ENDBRANCH 1 2
BRANCH 1 12
ATOM     12  CB  ARG B   4      -4.917  12.470  13.365  0.80 37.56 LIG 0.04  C 
BRANCH 12 13
ATOM     13  CG  ARG B   4      -5.230  13.581  14.375  0.80 36.72 LIG 0.02  C 
BRANCH 13 14
ATOM     14  CD  ARG B   4      -6.002  13.056  15.571  0.80 36.17 LIG 0.14  C 
BRANCH 14 15
ATOM     15  NE  ARG B   4      -5.174  12.891  16.765  0.80 35.68 LIG-0.23  N 
ATOM     16 HE   ARG B   4      -4.759  12.145  16.865  0.80 35.68 LIG 0.18  HD
ATOM     17  CZ  ARG B   4      -5.017  13.818  17.709  0.80 35.42 LIG 0.67  C 
ATOM     18  NH2 ARG B   4      -4.211  13.588  18.737  0.80 34.99 LIG-0.23  N 
ATOM     19  NH1 ARG B   4      -5.636  14.986  17.616  0.80 35.13 LIG-0.23  N 
ATOM     20 2HH2 ARG B   4      -4.109  14.187  19.347  0.80 34.99 LIG 0.17  HD
ATOM     21 1HH2 ARG B   4      -3.790  12.841  18.795  0.80 34.99 LIG 0.17  HD
ATOM     22 2HH1 ARG B   4      -5.529  15.579  18.229  0.80 35.13 LIG 0.17  HD
ATOM     23 1HH1 ARG B   4      -6.144  15.151  16.942  0.80 35.13 LIG 0.17  HD
ENDBRANCH 14 15
ENDBRANCH 13 14
ENDBRANCH 12 13
ENDBRANCH 1 12
BRANCH 1 24
ATOM     24  N   ARG B   4      -3.232  10.664  13.364  0.80 37.32 LIG-0.35  N 
ATOM     25 H    ARG B   4      -3.310  10.443  12.537  0.80 37.32 LIG 0.16  HD
ATOM     26  C   PRO B   3      -2.074  10.598  14.023  0.80 36.53 LIG 0.24  C 
ATOM     27 O    PRO B   3      -1.955  10.898  15.219  0.80 36.51 LIG-0.27  OA
BRANCH 26 28
ATOM     28  CA  PRO B   3      -0.873  10.094  13.214  0.80 35.73 LIG 0.18  C 
ATOM     29  CB  PRO B   3       0.408  10.181  14.036  0.80 35.57 LIG 0.04  C 
ATOM     30  CG  PRO B   3       0.797  11.592  13.867  0.80 35.32 LIG 0.02  C 
ATOM     31  CD  PRO B   3       0.608  11.800  12.375  0.80 35.29 LIG 0.13  C 
ATOM     32  N   PRO B   3      -0.558  10.955  12.069  0.80 35.22 LIG-0.34  N 
ATOM     33  C   GLY B   2      -1.178  10.974  10.870  0.80 34.72 LIG 0.25  C 
ATOM     34 O    GLY B   2      -2.120  10.213  10.584  0.80 34.22 LIG-0.27  OA
BRANCH 33 35
ATOM     35  CA  GLY B   2      -0.672  11.961   9.843  0.80 34.38 LIG 0.47  C 
ATOM     36  N   GLY B   2      -0.361  11.275   8.590  0.80 34.02 LIG 0.61  N 
ENDBRANCH 33 35
ENDBRANCH 26 28
ENDBRANCH 1 24
TORSDOF 9
ENDMDL
MODEL 16
USER: ADFR SOLUTION from run 141
USER: SCORE 12.142083 LL:  -1.741 LR: -10.888 RR:   0.000 FEB:  -8.203
USER: RMSD 6.727252
USER: SEED 140
USER: STATUS no improvement in best in 24 clusters for 5 generations
USER: GENES 11
USER: genes 0 Translation |==|  0.35665 0.33540 0.58444
USER: genes 1 Rotation |==|  0.30983 0.83535 0.53049 0.81693
USER: genes 2 Torsion [N]-CA--C-[N] |==|  0.84449
USER: genes 3 Torsion [N]-CA--C-[O] |==|  0.39468
USER: genes 4 Torsion [C]-CA--CB-[CG] |==|  0.24424
USER: genes 5 Torsion [CA]-CB--CG-[CD] |==|  0.92004
USER: genes 6 Torsion [CB]-CG--CD-[NE] |==|  0.23803
USER: genes 7 Torsion [CG]-CD--NE-[CZ] |==|  0.23481
USER: genes 8 Torsion [C]-CA--N-[C] |==|  0.64341
USER: genes 9 Torsion [N]-C--CA-[CB] |==|  0.60254
USER: genes 10 Torsion [N]-C--CA-[N] |==|  0.24519
ROOT
ATOM      1  CA  ARG B   4      -5.028  10.872  14.515  0.80 38.14 LIG 0.18  C 
ENDROOT
BRANCH 1 2
ATOM      2  C   ARG B   4      -6.051   9.739  14.743  0.80 39.25 LIG 0.24  C 
ATOM      3 O    ARG B   4      -6.534   9.571  15.876  0.80 39.33 LIG-0.27  OA
ATOM      4  N   PRO B   5      -6.478   9.029  13.665  0.80 40.23 LIG-0.34  N 
ATOM      5  CA  PRO B   5      -7.448   7.932  13.819  0.80 40.82 LIG 0.19  C 
ATOM      6  CD  PRO B   5      -6.223   9.281  12.232  0.80 40.52 LIG 0.13  C 
ATOM      7  CB  PRO B   5      -7.807   7.575  12.365  0.80 40.82 LIG 0.04  C 
ATOM      8  CG  PRO B   5      -7.515   8.832  11.600  0.80 40.73 LIG 0.02  C 
BRANCH 5 9
ATOM      9  C   PRO B   5      -6.805   6.730  14.530  0.80 41.28 LIG 0.20  C 
ATOM     10 O    PRO B   5      -7.495   6.076  15.355  0.80 41.33 LIG-0.65  OA
ATOM     11 OXT  PRO B   5      -5.610   6.461  14.242  0.80 41.80 LIG-0.65  OA
ENDBRANCH 5 9
ENDBRANCH 1 2
BRANCH 1 12
ATOM     12  CB  ARG B   4      -5.638  11.998  13.656  0.80 37.56 LIG 0.04  C 
BRANCH 12 13
ATOM     13  CG  ARG B   4      -6.390  13.093  14.421  0.80 36.72 LIG 0.02  C 
BRANCH 13 14
ATOM     14  CD  ARG B   4      -6.994  12.567  15.711  0.80 36.17 LIG 0.14  C 
BRANCH 14 15
ATOM     15  NE  ARG B   4      -6.060  12.592  16.836  0.80 35.68 LIG-0.23  N 
ATOM     16 HE   ARG B   4      -5.625  11.871  17.010  0.80 35.68 LIG 0.18  HD
ATOM     17  CZ  ARG B   4      -5.838  13.653  17.609  0.80 35.42 LIG 0.67  C 
ATOM     18  NH2 ARG B   4      -4.940  13.588  18.584  0.80 34.99 LIG-0.23  N 
ATOM     19  NH1 ARG B   4      -6.485  14.791  17.395  0.80 35.13 LIG-0.23  N 
ATOM     20 2HH2 ARG B   4      -4.796  14.274  19.083  0.80 34.99 LIG 0.17  HD
ATOM     21 1HH2 ARG B   4      -4.501  12.861  18.716  0.80 34.99 LIG 0.17  HD
ATOM     22 2HH1 ARG B   4      -6.335  15.471  17.899  0.80 35.13 LIG 0.17  HD
ATOM     23 1HH1 ARG B   4      -7.053  14.847  16.753  0.80 35.13 LIG 0.17  HD
ENDBRANCH 14 15
ENDBRANCH 13 14
ENDBRANCH 12 13
ENDBRANCH 1 12
BRANCH 1 24
ATOM     24  N   ARG B   4      -3.873  10.279  13.836  0.80 37.32 LIG-0.35  N 
ATOM     25 H    ARG B   4      -4.085   9.827  13.136  0.80 37.32 LIG 0.16  HD
ATOM     26  C   PRO B   3      -2.613  10.417  14.252  0.80 36.53 LIG 0.24  C 
ATOM     27 O    PRO B   3      -2.299  11.052  15.268  0.80 36.51 LIG-0.27  OA
BRANCH 26 28
ATOM     28  CA  PRO B   3      -1.548   9.713  13.403  0.80 35.73 LIG 0.18  C 
ATOM     29  CB  PRO B   3      -0.441   9.146  14.284  0.80 35.57 LIG 0.04  C 
ATOM     30  CG  PRO B   3       0.417  10.322  14.510  0.80 35.32 LIG 0.02  C 
ATOM     31  CD  PRO B   3       0.521  10.917  13.116  0.80 35.29 LIG 0.13  C 
ATOM     32  N   PRO B   3      -0.805  10.638  12.541  0.80 35.22 LIG-0.34  N 
ATOM     33  C   GLY B   2      -1.208  11.149  11.358  0.80 34.72 LIG 0.25  C 
ATOM     34 O    GLY B   2      -2.300  10.863  10.834  0.80 34.22 LIG-0.27  OA
BRANCH 33 35
ATOM     35  CA  GLY B   2      -0.262  12.094  10.652  0.80 34.38 LIG 0.47  C 
ATOM     36  N   GLY B   2       0.654  11.346   9.793  0.80 34.02 LIG 0.61  N 
ENDBRANCH 33 35
ENDBRANCH 26 28
ENDBRANCH 1 24
TORSDOF 9
ENDMDL
MODEL 17
USER: ADFR SOLUTION from run 61
USER: SCORE 12.607302 LL:  -1.807 LR: -10.883 RR:   0.000 FEB:  -8.198
USER: RMSD 7.440774
USER: SEED 60
USER: STATUS no improvement in best in 7 clusters for 5 generations
USER: GENES 11
USER: genes 0 Translation |==|  0.39716 0.35759 0.52144
USER: genes 1 Rotation |==|  0.23774 0.28727 0.15236 0.62294
USER: genes 2 Torsion [N]-CA--C-[N] |==|  0.87462
USER: genes 3 Torsion [N]-CA--C-[O] |==|  0.93130
USER: genes 4 Torsion [C]-CA--CB-[CG] |==|  0.28700
USER: genes 5 Torsion [CA]-CB--CG-[CD] |==|  0.25202
USER: genes 6 Torsion [CB]-CG--CD-[NE] |==|  0.50752
USER: genes 7 Torsion [CG]-CD--NE-[CZ] |==|  0.53161
USER: genes 8 Torsion [C]-CA--N-[C] |==|  0.83099
USER: genes 9 Torsion [N]-C--CA-[CB] |==|  0.30704
USER: genes 10 Torsion [N]-C--CA-[N] |==|  0.42954
ROOT
ATOM      1  CA  ARG B   4      -4.451  11.238  13.192  0.80 38.14 LIG 0.18  C 
ENDROOT
BRANCH 1 2
ATOM      2  C   ARG B   4      -5.522  10.128  13.144  0.80 39.25 LIG 0.24  C 
ATOM      3 O    ARG B   4      -5.646   9.444  12.114  0.80 39.33 LIG-0.27  OA
ATOM      4  N   PRO B   5      -6.224   9.859  14.277  0.80 40.23 LIG-0.34  N 
ATOM      5  CA  PRO B   5      -7.264   8.817  14.292  0.80 40.82 LIG 0.19  C 
ATOM      6  CD  PRO B   5      -6.008  10.378  15.643  0.80 40.52 LIG 0.13  C 
ATOM      7  CB  PRO B   5      -7.622   8.701  15.785  0.80 40.82 LIG 0.04  C 
ATOM      8  CG  PRO B   5      -6.396   9.195  16.492  0.80 40.73 LIG 0.02  C 
BRANCH 5 9
ATOM      9  C   PRO B   5      -8.488   9.254  13.471  0.80 41.28 LIG 0.20  C 
ATOM     10 O    PRO B   5      -8.700  10.485  13.313  0.80 41.33 LIG-0.65  OA
ATOM     11 OXT  PRO B   5      -9.217   8.347  12.993  0.80 41.80 LIG-0.65  OA
ENDBRANCH 5 9
ENDBRANCH 1 2
BRANCH 1 12
ATOM     12  CB  ARG B   4      -3.188  10.750  13.931  0.80 37.56 LIG 0.04  C 
BRANCH 12 13
ATOM     13  CG  ARG B   4      -1.993  10.380  13.043  0.80 36.72 LIG 0.02  C 
BRANCH 13 14
ATOM     14  CD  ARG B   4      -1.076  11.567  12.808  0.80 36.17 LIG 0.14  C 
BRANCH 14 15
ATOM     15  NE  ARG B   4       0.041  11.263  11.913  0.80 35.68 LIG-0.23  N 
ATOM     16 HE   ARG B   4       0.017  10.521  11.481  0.80 35.68 LIG 0.18  HD
ATOM     17  CZ  ARG B   4       1.092  12.059  11.723  0.80 35.42 LIG 0.67  C 
ATOM     18  NH2 ARG B   4       2.037  11.713  10.858  0.80 34.99 LIG-0.23  N 
ATOM     19  NH1 ARG B   4       1.190  13.213  12.367  0.80 35.13 LIG-0.23  N 
ATOM     20 2HH2 ARG B   4       2.717  12.227  10.735  0.80 34.99 LIG 0.17  HD
ATOM     21 1HH2 ARG B   4       1.972  10.976  10.421  0.80 34.99 LIG 0.17  HD
ATOM     22 2HH1 ARG B   4       1.872  13.721  12.238  0.80 35.13 LIG 0.17  HD
ATOM     23 1HH1 ARG B   4       0.572  13.454  12.914  0.80 35.13 LIG 0.17  HD
ENDBRANCH 14 15
ENDBRANCH 13 14
ENDBRANCH 12 13
ENDBRANCH 1 12
BRANCH 1 24
ATOM     24  N   ARG B   4      -5.044  12.379  13.894  0.80 37.32 LIG-0.35  N 
ATOM     25 H    ARG B   4      -4.624  12.593  14.613  0.80 37.32 LIG 0.16  HD
ATOM     26  C   PRO B   3      -6.128  13.031  13.470  0.80 36.53 LIG 0.24  C 
ATOM     27 O    PRO B   3      -6.750  12.721  12.445  0.80 36.51 LIG-0.27  OA
BRANCH 26 28
ATOM     28  CA  PRO B   3      -6.594  14.196  14.351  0.80 35.73 LIG 0.18  C 
ATOM     29  CB  PRO B   3      -6.363  15.531  13.652  0.80 35.57 LIG 0.04  C 
ATOM     30  CG  PRO B   3      -4.941  15.794  13.935  0.80 35.32 LIG 0.02  C 
ATOM     31  CD  PRO B   3      -4.843  15.466  15.415  0.80 35.29 LIG 0.13  C 
ATOM     32  N   PRO B   3      -5.788  14.347  15.567  0.80 35.22 LIG-0.34  N 
ATOM     33  C   GLY B   2      -5.891  13.630  16.706  0.80 34.72 LIG 0.25  C 
ATOM     34 O    GLY B   2      -6.735  12.729  16.865  0.80 34.22 LIG-0.27  OA
BRANCH 33 35
ATOM     35  CA  GLY B   2      -4.938  13.970  17.829  0.80 34.38 LIG 0.47  C 
ATOM     36  N   GLY B   2      -5.515  13.588  19.117  0.80 34.02 LIG 0.61  N 
ENDBRANCH 33 35
ENDBRANCH 26 28
ENDBRANCH 1 24
TORSDOF 9
ENDMDL
MODEL 18
USER: ADFR SOLUTION from run 200
USER: SCORE 12.556967 LL:  -2.135 LR: -10.858 RR:   0.000 FEB:  -8.173
USER: RMSD 7.300643
USER: SEED 199
USER: STATUS no improvement in best in 16 clusters for 5 generations
USER: GENES 11
USER: genes 0 Translation |==|  0.38946 0.36378 0.56209
USER: genes 1 Rotation |==|  0.15720 0.21752 0.27660 0.55279
USER: genes 2 Torsion [N]-CA--C-[N] |==|  0.24638
USER: genes 3 Torsion [N]-CA--C-[O] |==|  0.72548
USER: genes 4 Torsion [C]-CA--CB-[CG] |==|  0.64956
USER: genes 5 Torsion [CA]-CB--CG-[CD] |==|  0.20502
USER: genes 6 Torsion [CB]-CG--CD-[NE] |==|  0.14939
USER: genes 7 Torsion [CG]-CD--NE-[CZ] |==|  0.17557
USER: genes 8 Torsion [C]-CA--N-[C] |==|  0.66049
USER: genes 9 Torsion [N]-C--CA-[CB] |==|  0.30653
USER: genes 10 Torsion [N]-C--CA-[N] |==|  0.73254
ROOT
ATOM      1  CA  ARG B   4      -4.560  11.340  14.046  0.80 38.14 LIG 0.18  C 
ENDROOT
BRANCH 1 2
ATOM      2  C   ARG B   4      -5.559  10.590  14.953  0.80 39.25 LIG 0.24  C 
ATOM      3 O    ARG B   4      -5.354  10.541  16.177  0.80 39.33 LIG-0.27  OA
ATOM      4  N   PRO B   5      -6.697  10.100  14.392  0.80 40.23 LIG-0.34  N 
ATOM      5  CA  PRO B   5      -7.685   9.370  15.203  0.80 40.82 LIG 0.19  C 
ATOM      6  CD  PRO B   5      -7.222  10.314  13.028  0.80 40.52 LIG 0.13  C 
ATOM      7  CB  PRO B   5      -8.876   9.207  14.242  0.80 40.82 LIG 0.04  C 
ATOM      8  CG  PRO B   5      -8.710  10.331  13.264  0.80 40.73 LIG 0.02  C 
BRANCH 5 9
ATOM      9  C   PRO B   5      -7.137   7.997  15.627  0.80 41.28 LIG 0.20  C 
ATOM     10 O    PRO B   5      -7.481   6.980  14.969  0.80 41.33 LIG-0.65  OA
ATOM     11 OXT  PRO B   5      -6.360   7.966  16.617  0.80 41.80 LIG-0.65  OA
ENDBRANCH 5 9
ENDBRANCH 1 2
BRANCH 1 12
ATOM     12  CB  ARG B   4      -3.119  11.187  14.572  0.80 37.56 LIG 0.04  C 
BRANCH 12 13
ATOM     13  CG  ARG B   4      -2.347  12.492  14.802  0.80 36.72 LIG 0.02  C 
BRANCH 13 14
ATOM     14  CD  ARG B   4      -2.834  13.227  16.037  0.80 36.17 LIG 0.14  C 
BRANCH 14 15
ATOM     15  NE  ARG B   4      -2.827  12.397  17.241  0.80 35.68 LIG-0.23  N 
ATOM     16 HE   ARG B   4      -3.582  12.236  17.621  0.80 35.68 LIG 0.18  HD
ATOM     17  CZ  ARG B   4      -1.733  11.873  17.791  0.80 35.42 LIG 0.67  C 
ATOM     18  NH2 ARG B   4      -1.834  11.099  18.863  0.80 34.99 LIG-0.23  N 
ATOM     19  NH1 ARG B   4      -0.539  12.093  17.257  0.80 35.13 LIG-0.23  N 
ATOM     20 2HH2 ARG B   4      -1.126  10.761  19.218  0.80 34.99 LIG 0.17  HD
ATOM     21 1HH2 ARG B   4      -2.605  10.935  19.204  0.80 34.99 LIG 0.17  HD
ATOM     22 2HH1 ARG B   4       0.162  11.751  17.617  0.80 35.13 LIG 0.17  HD
ATOM     23 1HH1 ARG B   4      -0.467  12.577  16.550  0.80 35.13 LIG 0.17  HD
ENDBRANCH 14 15
ENDBRANCH 13 14
ENDBRANCH 12 13
ENDBRANCH 1 12
BRANCH 1 24
ATOM     24  N   ARG B   4      -4.957  12.751  14.044  0.80 37.32 LIG-0.35  N 
ATOM     25 H    ARG B   4      -4.974  13.101  14.829  0.80 37.32 LIG 0.16  HD
ATOM     26  C   PRO B   3      -5.263  13.436  12.941  0.80 36.53 LIG 0.24  C 
ATOM     27 O    PRO B   3      -5.257  12.937  11.808  0.80 36.51 LIG-0.27  OA
BRANCH 26 28
ATOM     28  CA  PRO B   3      -5.657  14.903  13.153  0.80 35.73 LIG 0.18  C 
ATOM     29  CB  PRO B   3      -4.583  15.837  12.611  0.80 35.57 LIG 0.04  C 
ATOM     30  CG  PRO B   3      -3.605  15.869  13.713  0.80 35.32 LIG 0.02  C 
ATOM     31  CD  PRO B   3      -4.497  16.049  14.928  0.80 35.29 LIG 0.13  C 
ATOM     32  N   PRO B   3      -5.701  15.280  14.570  0.80 35.22 LIG-0.34  N 
ATOM     33  C   GLY B   2      -6.695  15.032  15.448  0.80 34.72 LIG 0.25  C 
ATOM     34 O    GLY B   2      -7.745  14.442  15.133  0.80 34.22 LIG-0.27  OA
BRANCH 33 35
ATOM     35  CA  GLY B   2      -6.506  15.519  16.867  0.80 34.38 LIG 0.47  C 
ATOM     36  N   GLY B   2      -5.991  14.442  17.709  0.80 34.02 LIG 0.61  N 
ENDBRANCH 33 35
ENDBRANCH 26 28
ENDBRANCH 1 24
TORSDOF 9
ENDMDL
