MODEL 1
USER: ADFR SOLUTION from run 91
USER: SCORE 17.403784 LL:  -3.323 LR: -16.164 RR:   0.000 FEB:  -9.303
USER: RMSD 11.326497
USER: SEED 90
USER: STATUS no improvement in best in 9 clusters for 5 generations
USER: GENES 25
USER: genes 0 Translation |==|  0.59516 0.51538 0.47149
USER: genes 1 Rotation |==|  0.69633 0.71448 0.89587 0.59347
USER: genes 2 Torsion [CB]-CA--N-[C] |==|  0.49459
USER: genes 3 Torsion [N]-C--CA-[N] |==|  0.27967
USER: genes 4 Torsion [C]-CA--CB-[CG] |==|  0.44273
USER: genes 5 Torsion [CA]-CB--CG-[CD] |==|  0.42357
USER: genes 6 Torsion [CB]-CG--CD-[NE] |==|  0.76610
USER: genes 7 Torsion [CG]-CD--NE-[HE] |==|  0.19570
USER: genes 8 Torsion [C]-CA--N-[C] |==|  0.76658
USER: genes 9 Torsion [N]-C--CA-[N] |==|  0.14216
USER: genes 10 Torsion [C]-CA--N-[C] |==|  0.17843
USER: genes 11 Torsion [N]-C--CA-[N] |==|  0.87391
USER: genes 12 Torsion [N]-CA--C-[N] |==|  0.44701
USER: genes 13 Torsion [C]-N--CA-[C] |==|  0.65133
USER: genes 14 Torsion [N]-CA--C-[N] |==|  0.90465
USER: genes 15 Torsion [C]-N--CA-[C] |==|  0.56111
USER: genes 16 Torsion [N]-CA--C-[N] |==|  0.00579
USER: genes 17 Torsion [C]-N--CA-[CB] |==|  0.16676
USER: genes 18 Torsion [N]-CA--CB-[OG] |==|  0.31360
USER: genes 19 Torsion [CA]-CB--OG-[HG] |==|  0.17408
USER: genes 20 Torsion [N]-CA--C-[OXT] |==|  0.54457
USER: genes 21 Torsion [N]-CA--CB-[OG] |==|  0.78719
USER: genes 22 Torsion [CA]-CB--OG-[HG] |==|  0.05207
USER: genes 23 Torsion [N]-CA--CB-[CG] |==|  0.43950
USER: genes 24 Torsion [CA]-CB--CG-[CD2] |==|  0.66896
ROOT
ATOM      1  CA  ALA B 364      34.931 -14.471  -8.759  1.00 28.10 LIG 0.17  C 
ATOM      2  CB  ALA B 364      35.364 -15.839  -8.261  1.00 26.12 LIG 0.04  C 
ENDROOT
BRANCH 1 3
ATOM      3  N   ALA B 364      36.097 -13.698  -9.177  1.00 32.12 LIG-0.35  N 
ATOM      4 H    ALA B 364      36.850 -14.097  -9.064  1.00 32.12 LIG 0.16  HD
ATOM      5  C   ARG B 363      35.968 -12.478  -9.688  1.00 35.84 LIG 0.24  C 
ATOM      6 O    ARG B 363      34.875 -11.941  -9.851  1.00 34.68 LIG-0.27  OA
BRANCH 5 7
ATOM      7  CA  ARG B 363      37.263 -11.752 -10.068  1.00 40.75 LIG 0.18  C 
BRANCH 7 8
ATOM      8  CB  ARG B 363      37.207 -10.302  -9.569  1.00 43.30 LIG 0.04  C 
BRANCH 8 9
ATOM      9  CG  ARG B 363      38.578  -9.651  -9.441  1.00 48.42 LIG 0.02  C 
BRANCH 9 10
ATOM     10  CD  ARG B 363      38.535  -8.138  -9.608  1.00 50.65 LIG 0.14  C 
BRANCH 10 11
ATOM     11  NE  ARG B 363      38.576  -7.763 -11.022  1.00 53.91 LIG-0.23  N 
ATOM     12 HE   ARG B 363      37.881  -7.930 -11.499  1.00 53.91 LIG 0.18  HD
ATOM     13  CZ  ARG B 363      39.613  -7.182 -11.620  1.00 54.64 LIG 0.67  C 
ATOM     14  NH2 ARG B 363      39.555  -6.884 -12.912  1.00 53.91 LIG-0.23  N 
ATOM     15  NH1 ARG B 363      40.711  -6.900 -10.930  1.00 54.84 LIG-0.23  N 
ATOM     16 1HH2 ARG B 363      38.846  -7.067 -13.364  1.00 53.91 LIG 0.17  HD
ATOM     17 2HH2 ARG B 363      40.225  -6.508 -13.298  1.00 53.91 LIG 0.17  HD
ATOM     18 1HH1 ARG B 363      40.754  -7.092 -10.093  1.00 54.84 LIG 0.17  HD
ATOM     19 2HH1 ARG B 363      41.379  -6.524 -11.320  1.00 54.84 LIG 0.17  HD
ENDBRANCH 10 11
ENDBRANCH 9 10
ENDBRANCH 8 9
ENDBRANCH 7 8
BRANCH 7 20
ATOM     20  N   ARG B 363      37.575 -11.782 -11.493  1.00 43.94 LIG-0.35  N 
ATOM     21  C   ALA B 362      38.203 -12.798 -12.080  1.00 45.99 LIG 0.24  C 
ATOM     22 O    ALA B 362      38.593 -13.798 -11.473  1.00 46.10 LIG-0.27  OA
ATOM     23 H    ARG B 363      37.314 -11.081 -11.919  1.00 43.94 LIG 0.16  HD
BRANCH 21 24
ATOM     24  CA  ALA B 362      38.433 -12.652 -13.580  1.00 47.39 LIG 0.17  C 
ATOM     25  CB  ALA B 362      39.310 -13.790 -14.093  1.00 48.25 LIG 0.04  C 
BRANCH 24 26
ATOM     26  N   ALA B 362      39.060 -11.368 -13.867  1.00 48.90 LIG-0.35  N 
ATOM     27  C   GLY B 361      40.277 -11.066 -13.429  1.00 49.70 LIG 0.25  C 
ATOM     28 O    GLY B 361      40.958 -11.838 -12.747  1.00 50.52 LIG-0.27  OA
ATOM     29 H    ALA B 362      38.576 -10.836 -14.339  1.00 48.90 LIG 0.16  HD
BRANCH 27 30
ATOM     30  CA  GLY B 361      40.803  -9.697 -13.806  1.00 49.65 LIG 0.47  C 
ATOM     31  N   GLY B 361      40.560  -9.388 -15.239  1.00 49.05 LIG 0.61  N 
ENDBRANCH 27 30
ENDBRANCH 24 26
ENDBRANCH 21 24
ENDBRANCH 7 20
ENDBRANCH 5 7
ENDBRANCH 1 3
BRANCH 1 32
ATOM     32  C   ALA B 364      34.226 -13.690  -7.648  1.00 26.37 LIG 0.24  C 
ATOM     33  N   HIS B 365      32.958 -14.006  -7.399  1.00 23.61 LIG-0.35  N 
ATOM     34 H    HIS B 365      32.525 -14.623  -7.814  1.00 23.61 LIG 0.16  HD
ATOM     35 O    ALA B 364      34.824 -12.809  -7.031  1.00 24.80 LIG-0.27  OA
BRANCH 33 36
ATOM     36  CA  HIS B 365      32.184 -13.308  -6.375  1.00 22.03 LIG 0.18  C 
BRANCH 36 37
ATOM     37  C   HIS B 365      31.576 -14.275  -5.363  1.00 20.85 LIG 0.24  C 
ATOM     38 O    HIS B 365      31.461 -13.963  -4.181  1.00 18.88 LIG-0.27  OA
ATOM     39  N   SER B 366      31.196 -15.456  -5.842  1.00 20.61 LIG-0.34  N 
ATOM     40 H    SER B 366      31.273 -15.681  -6.669  1.00 20.61 LIG 0.16  HD
BRANCH 39 41
ATOM     41  CA  SER B 366      30.607 -16.488  -4.998  1.00 22.02 LIG 0.20  C 
BRANCH 41 42
ATOM     42  C   SER B 366      30.770 -17.858  -5.641  1.00 20.47 LIG 0.24  C 
ATOM     43 O    SER B 366      30.308 -18.863  -5.099  1.00 18.56 LIG-0.27  OA
ATOM     44  N   SER B 367      31.433 -17.891  -6.793  1.00 19.80 LIG-0.34  N 
ATOM     45 H    SER B 367      31.755 -17.195  -7.182  1.00 19.80 LIG 0.16  HD
BRANCH 44 46
ATOM     46  CA  SER B 367      31.671 -19.144  -7.504  1.00 20.54 LIG 0.21  C 
BRANCH 46 47
ATOM     47  CB  SER B 367      30.346 -19.820  -7.874  1.00 20.61 LIG 0.20  C 
BRANCH 47 48
ATOM     48 OG   SER B 367      30.142 -19.837  -9.275  1.00 20.78 LIG-0.40  OA
ATOM     49 HG   SER B 367      30.748 -20.291  -9.641  1.00 20.78 LIG 0.21  HD
ENDBRANCH 47 48
ENDBRANCH 46 47
BRANCH 46 50
ATOM     50  C   SER B 367      32.486 -18.895  -8.771  1.00 22.30 LIG 0.20  C 
ATOM     51 O    SER B 367      33.100 -17.810  -8.873  1.00 20.52 LIG-0.65  OA
ATOM     52 OXT  SER B 367      32.512 -19.798  -9.637  1.00 22.33 LIG-0.65  OA
ENDBRANCH 46 50
ENDBRANCH 44 46
ENDBRANCH 41 42
BRANCH 41 53
ATOM     53  CB  SER B 366      29.113 -16.212  -4.791  1.00 25.29 LIG 0.20  C 
BRANCH 53 54
ATOM     54 OG   SER B 366      28.912 -15.170  -3.851  1.00 34.76 LIG-0.40  OA
ATOM     55 HG   SER B 366      29.620 -14.724  -3.770  1.00 34.76 LIG 0.21  HD
ENDBRANCH 53 54
ENDBRANCH 41 53
ENDBRANCH 39 41
ENDBRANCH 36 37
BRANCH 36 56
ATOM     56  CB  HIS B 365      31.059 -12.509  -7.032  1.00 23.96 LIG 0.10  C 
BRANCH 56 57
ATOM     57  CG  HIS B 365      29.932 -12.193  -6.098  1.00 26.34 LIG 0.06  A 
ATOM     58 ND1  HIS B 365      30.087 -11.383  -4.994  1.00 28.92 LIG-0.24  NA
ATOM     59  CE1 HIS B 365      28.919 -11.229  -4.396  1.00 27.03 LIG 0.23  A 
ATOM     60 NE2  HIS B 365      28.013 -11.913  -5.072  1.00 28.88 LIG-0.25  NA
ATOM     61  CD2 HIS B 365      28.621 -12.527  -6.140  1.00 26.83 LIG 0.14  A 
ENDBRANCH 56 57
ENDBRANCH 36 56
ENDBRANCH 33 36
ENDBRANCH 1 32
TORSDOF 23
ENDMDL
MODEL 2
USER: ADFR SOLUTION from run 91
USER: SCORE 16.470737 LL:  -2.801 LR: -15.808 RR:   0.000 FEB:  -8.947
USER: RMSD 12.218803
USER: SEED 90
USER: STATUS no improvement in best in 9 clusters for 5 generations
USER: GENES 25
USER: genes 0 Translation |==|  0.59096 0.49268 0.47348
USER: genes 1 Rotation |==|  0.69283 0.70425 0.90268 0.59457
USER: genes 2 Torsion [CB]-CA--N-[C] |==|  0.47230
USER: genes 3 Torsion [N]-C--CA-[N] |==|  0.31188
USER: genes 4 Torsion [C]-CA--CB-[CG] |==|  0.48353
USER: genes 5 Torsion [CA]-CB--CG-[CD] |==|  0.42689
USER: genes 6 Torsion [CB]-CG--CD-[NE] |==|  0.70751
USER: genes 7 Torsion [CG]-CD--NE-[HE] |==|  0.22141
USER: genes 8 Torsion [C]-CA--N-[C] |==|  0.76005
USER: genes 9 Torsion [N]-C--CA-[N] |==|  0.14045
USER: genes 10 Torsion [C]-CA--N-[C] |==|  0.18014
USER: genes 11 Torsion [N]-C--CA-[N] |==|  0.83120
USER: genes 12 Torsion [N]-CA--C-[N] |==|  0.44943
USER: genes 13 Torsion [C]-N--CA-[C] |==|  0.63341
USER: genes 14 Torsion [N]-CA--C-[N] |==|  0.66912
USER: genes 15 Torsion [C]-N--CA-[C] |==|  0.52840
USER: genes 16 Torsion [N]-CA--C-[N] |==|  0.43030
USER: genes 17 Torsion [C]-N--CA-[CB] |==|  0.86299
USER: genes 18 Torsion [N]-CA--CB-[OG] |==|  0.75650
USER: genes 19 Torsion [CA]-CB--OG-[HG] |==|  0.18366
USER: genes 20 Torsion [N]-CA--C-[OXT] |==|  0.64612
USER: genes 21 Torsion [N]-CA--CB-[OG] |==|  0.75571
USER: genes 22 Torsion [CA]-CB--OG-[HG] |==|  0.10698
USER: genes 23 Torsion [N]-CA--CB-[CG] |==|  0.51301
USER: genes 24 Torsion [CA]-CB--CG-[CD2] |==|  0.56259
ROOT
ATOM      1  CA  ALA B 364      34.827 -14.896  -8.716  1.00 28.10 LIG 0.17  C 
ATOM      2  CB  ALA B 364      35.233 -16.287  -8.260  1.00 26.12 LIG 0.04  C 
ENDROOT
BRANCH 1 3
ATOM      3  N   ALA B 364      36.012 -14.118  -9.066  1.00 32.12 LIG-0.35  N 
ATOM      4 H    ALA B 364      36.758 -14.484  -8.846  1.00 32.12 LIG 0.16  HD
ATOM      5  C   ARG B 363      35.908 -12.943  -9.677  1.00 35.84 LIG 0.24  C 
ATOM      6 O    ARG B 363      34.825 -12.455  -9.993  1.00 34.68 LIG-0.27  OA
BRANCH 5 7
ATOM      7  CA  ARG B 363      37.218 -12.205  -9.972  1.00 40.75 LIG 0.18  C 
BRANCH 7 8
ATOM      8  CB  ARG B 363      37.179 -10.810  -9.333  1.00 43.30 LIG 0.04  C 
BRANCH 8 9
ATOM      9  CG  ARG B 363      38.496 -10.052  -9.451  1.00 48.42 LIG 0.02  C 
BRANCH 9 10
ATOM     10  CD  ARG B 363      38.316  -8.540  -9.425  1.00 50.65 LIG 0.14  C 
BRANCH 10 11
ATOM     11  NE  ARG B 363      38.488  -7.967 -10.760  1.00 53.91 LIG-0.23  N 
ATOM     12 HE   ARG B 363      37.826  -8.020 -11.306  1.00 53.91 LIG 0.18  HD
ATOM     13  CZ  ARG B 363      39.598  -7.370 -11.189  1.00 54.64 LIG 0.67  C 
ATOM     14  NH2 ARG B 363      39.657  -6.884 -12.423  1.00 53.91 LIG-0.23  N 
ATOM     15  NH1 ARG B 363      40.650  -7.259 -10.387  1.00 54.84 LIG-0.23  N 
ATOM     16 1HH2 ARG B 363      38.978  -6.955 -12.946  1.00 53.91 LIG 0.17  HD
ATOM     17 2HH2 ARG B 363      40.374  -6.498 -12.699  1.00 53.91 LIG 0.17  HD
ATOM     18 1HH1 ARG B 363      40.616  -7.574  -9.588  1.00 54.84 LIG 0.17  HD
ATOM     19 2HH1 ARG B 363      41.365  -6.873 -10.668  1.00 54.84 LIG 0.17  HD
ENDBRANCH 10 11
ENDBRANCH 9 10
ENDBRANCH 8 9
ENDBRANCH 7 8
BRANCH 7 20
ATOM     20  N   ARG B 363      37.543 -12.099 -11.391  1.00 43.94 LIG-0.35  N 
ATOM     21  C   ALA B 362      38.201 -13.043 -12.060  1.00 45.99 LIG 0.24  C 
ATOM     22 O    ALA B 362      38.610 -14.084 -11.541  1.00 46.10 LIG-0.27  OA
ATOM     23 H    ARG B 363      37.269 -11.369 -11.755  1.00 43.94 LIG 0.16  HD
BRANCH 21 24
ATOM     24  CA  ALA B 362      38.441 -12.756 -13.538  1.00 47.39 LIG 0.17  C 
ATOM     25  CB  ALA B 362      39.362 -13.814 -14.138  1.00 48.25 LIG 0.04  C 
BRANCH 24 26
ATOM     26  N   ALA B 362      39.026 -11.432 -13.703  1.00 48.90 LIG-0.35  N 
ATOM     27  C   GLY B 361      40.232 -11.133 -13.234  1.00 49.70 LIG 0.25  C 
ATOM     28 O    GLY B 361      40.937 -11.941 -12.625  1.00 50.52 LIG-0.27  OA
ATOM     29 H    ALA B 362      38.524 -10.874 -14.125  1.00 48.90 LIG 0.16  HD
BRANCH 27 30
ATOM     30  CA  GLY B 361      40.713  -9.718 -13.482  1.00 49.65 LIG 0.47  C 
ATOM     31  N   GLY B 361      40.803  -9.410 -14.932  1.00 49.05 LIG 0.61  N 
ENDBRANCH 27 30
ENDBRANCH 24 26
ENDBRANCH 21 24
ENDBRANCH 7 20
ENDBRANCH 5 7
ENDBRANCH 1 3
BRANCH 1 32
ATOM     32  C   ALA B 364      34.094 -14.154  -7.597  1.00 26.37 LIG 0.24  C 
ATOM     33  N   HIS B 365      32.821 -14.481  -7.389  1.00 23.61 LIG-0.35  N 
ATOM     34 H    HIS B 365      32.400 -15.085  -7.833  1.00 23.61 LIG 0.16  HD
ATOM     35 O    ALA B 364      34.674 -13.292  -6.938  1.00 24.80 LIG-0.27  OA
BRANCH 33 36
ATOM     36  CA  HIS B 365      32.022 -13.818  -6.361  1.00 22.03 LIG 0.18  C 
BRANCH 36 37
ATOM     37  C   HIS B 365      31.266 -14.821  -5.493  1.00 20.85 LIG 0.24  C 
ATOM     38 O    HIS B 365      31.867 -15.663  -4.831  1.00 18.88 LIG-0.27  OA
ATOM     39  N   SER B 366      29.940 -14.723  -5.512  1.00 20.61 LIG-0.34  N 
ATOM     40 H    SER B 366      29.513 -14.135  -5.972  1.00 20.61 LIG 0.16  HD
BRANCH 39 41
ATOM     41  CA  SER B 366      29.081 -15.615  -4.742  1.00 22.02 LIG 0.20  C 
BRANCH 41 42
ATOM     42  C   SER B 366      27.626 -15.433  -5.150  1.00 20.47 LIG 0.24  C 
ATOM     43 O    SER B 366      27.239 -14.369  -5.637  1.00 18.56 LIG-0.27  OA
ATOM     44  N   SER B 367      26.823 -16.474  -4.946  1.00 19.80 LIG-0.34  N 
ATOM     45 H    SER B 367      27.083 -17.223  -4.612  1.00 19.80 LIG 0.16  HD
BRANCH 44 46
ATOM     46  CA  SER B 367      25.402 -16.424  -5.280  1.00 20.54 LIG 0.21  C 
BRANCH 46 47
ATOM     47  CB  SER B 367      24.753 -15.159  -4.707  1.00 20.61 LIG 0.20  C 
BRANCH 47 48
ATOM     48 OG   SER B 367      24.296 -15.363  -3.382  1.00 20.78 LIG-0.40  OA
ATOM     49 HG   SER B 367      24.954 -15.491  -2.875  1.00 20.78 LIG 0.21  HD
ENDBRANCH 47 48
ENDBRANCH 46 47
BRANCH 46 50
ATOM     50  C   SER B 367      25.206 -16.456  -6.793  1.00 22.30 LIG 0.20  C 
ATOM     51 O    SER B 367      25.743 -17.383  -7.438  1.00 20.52 LIG-0.65  OA
ATOM     52 OXT  SER B 367      24.501 -15.560  -7.311  1.00 22.33 LIG-0.65  OA
ENDBRANCH 46 50
ENDBRANCH 44 46
ENDBRANCH 41 42
BRANCH 41 53
ATOM     53  CB  SER B 366      29.216 -15.317  -3.244  1.00 25.29 LIG 0.20  C 
BRANCH 53 54
ATOM     54 OG   SER B 366      30.279 -16.060  -2.671  1.00 34.76 LIG-0.40  OA
ATOM     55 HG   SER B 366      30.922 -16.093  -3.211  1.00 34.76 LIG 0.21  HD
ENDBRANCH 53 54
ENDBRANCH 41 53
ENDBRANCH 39 41
ENDBRANCH 36 37
BRANCH 36 56
ATOM     56  CB  HIS B 365      31.013 -12.876  -7.018  1.00 23.96 LIG 0.10  C 
BRANCH 56 57
ATOM     57  CG  HIS B 365      30.225 -12.070  -6.033  1.00 26.34 LIG 0.06  A 
ATOM     58 ND1  HIS B 365      30.701 -11.759  -4.777  1.00 28.92 LIG-0.24  NA
ATOM     59  CE1 HIS B 365      29.826 -10.989  -4.155  1.00 27.03 LIG 0.23  A 
ATOM     60 NE2  HIS B 365      28.799 -10.791  -4.962  1.00 28.88 LIG-0.25  NA
ATOM     61  CD2 HIS B 365      29.022 -11.459  -6.142  1.00 26.83 LIG 0.14  A 
ENDBRANCH 56 57
ENDBRANCH 36 56
ENDBRANCH 33 36
ENDBRANCH 1 32
TORSDOF 23
ENDMDL
MODEL 3
USER: ADFR SOLUTION from run 75
USER: SCORE 17.512582 LL:  -3.673 LR: -15.446 RR:   0.000 FEB:  -8.585
USER: RMSD 10.203829
USER: SEED 74
USER: STATUS 1 or 2 clusters left
USER: GENES 25
USER: genes 0 Translation |==|  0.60557 0.63830 0.48374
USER: genes 1 Rotation |==|  0.77045 0.32933 0.88322 0.52944
USER: genes 2 Torsion [CB]-CA--N-[C] |==|  0.17775
USER: genes 3 Torsion [N]-C--CA-[N] |==|  0.33273
USER: genes 4 Torsion [C]-CA--CB-[CG] |==|  0.76732
USER: genes 5 Torsion [CA]-CB--CG-[CD] |==|  0.28818
USER: genes 6 Torsion [CB]-CG--CD-[NE] |==|  0.59543
USER: genes 7 Torsion [CG]-CD--NE-[HE] |==|  0.31619
USER: genes 8 Torsion [C]-CA--N-[C] |==|  0.77299
USER: genes 9 Torsion [N]-C--CA-[N] |==|  0.82275
USER: genes 10 Torsion [C]-CA--N-[C] |==|  0.77372
USER: genes 11 Torsion [N]-C--CA-[N] |==|  0.79242
USER: genes 12 Torsion [N]-CA--C-[N] |==|  0.51456
USER: genes 13 Torsion [C]-N--CA-[C] |==|  0.81534
USER: genes 14 Torsion [N]-CA--C-[N] |==|  0.90058
USER: genes 15 Torsion [C]-N--CA-[C] |==|  0.68411
USER: genes 16 Torsion [N]-CA--C-[N] |==|  0.02195
USER: genes 17 Torsion [C]-N--CA-[CB] |==|  0.86098
USER: genes 18 Torsion [N]-CA--CB-[OG] |==|  0.82307
USER: genes 19 Torsion [CA]-CB--OG-[HG] |==|  0.77067
USER: genes 20 Torsion [N]-CA--C-[OXT] |==|  0.04517
USER: genes 21 Torsion [N]-CA--CB-[OG] |==|  0.42701
USER: genes 22 Torsion [CA]-CB--OG-[HG] |==|  0.16332
USER: genes 23 Torsion [N]-CA--CB-[CG] |==|  0.76807
USER: genes 24 Torsion [CA]-CB--CG-[CD2] |==|  0.88547
ROOT
ATOM      1  CA  ALA B 364      35.189 -12.166  -8.493  1.00 28.10 LIG 0.17  C 
ATOM      2  CB  ALA B 364      34.827 -12.690  -9.872  1.00 26.12 LIG 0.04  C 
ENDROOT
BRANCH 1 3
ATOM      3  N   ALA B 364      36.637 -12.187  -8.313  1.00 32.12 LIG-0.35  N 
ATOM      4 H    ALA B 364      36.914 -12.716  -7.695  1.00 32.12 LIG 0.16  HD
ATOM      5  C   ARG B 363      37.435 -11.435  -9.063  1.00 35.84 LIG 0.24  C 
ATOM      6 O    ARG B 363      37.009 -10.699  -9.951  1.00 34.68 LIG-0.27  OA
BRANCH 5 7
ATOM      7  CA  ARG B 363      38.937 -11.520  -8.768  1.00 40.75 LIG 0.18  C 
BRANCH 7 8
ATOM      8  CB  ARG B 363      39.443 -10.158  -8.274  1.00 43.30 LIG 0.04  C 
BRANCH 8 9
ATOM      9  CG  ARG B 363      39.782  -9.192  -9.403  1.00 48.42 LIG 0.02  C 
BRANCH 9 10
ATOM     10  CD  ARG B 363      38.723  -8.116  -9.601  1.00 50.65 LIG 0.14  C 
BRANCH 10 11
ATOM     11  NE  ARG B 363      38.593  -7.760 -11.015  1.00 53.91 LIG-0.23  N 
ATOM     12 HE   ARG B 363      37.853  -7.952 -11.408  1.00 53.91 LIG 0.18  HD
ATOM     13  CZ  ARG B 363      39.539  -7.162 -11.734  1.00 54.64 LIG 0.67  C 
ATOM     14  NH2 ARG B 363      39.326  -6.884 -13.014  1.00 53.91 LIG-0.23  N 
ATOM     15  NH1 ARG B 363      40.700  -6.842 -11.176  1.00 54.84 LIG-0.23  N 
ATOM     16 1HH2 ARG B 363      38.576  -7.091 -13.380  1.00 53.91 LIG 0.17  HD
ATOM     17 2HH2 ARG B 363      39.938  -6.497 -13.478  1.00 53.91 LIG 0.17  HD
ATOM     18 1HH1 ARG B 363      40.843  -7.022 -10.348  1.00 54.84 LIG 0.17  HD
ATOM     19 2HH1 ARG B 363      41.310  -6.455 -11.644  1.00 54.84 LIG 0.17  HD
ENDBRANCH 10 11
ENDBRANCH 9 10
ENDBRANCH 8 9
ENDBRANCH 7 8
BRANCH 7 20
ATOM     20  N   ARG B 363      39.747 -11.981  -9.892  1.00 43.94 LIG-0.35  N 
ATOM     21  C   ALA B 362      39.893 -13.266 -10.205  1.00 45.99 LIG 0.24  C 
ATOM     22 O    ALA B 362      39.373 -14.185  -9.569  1.00 46.10 LIG-0.27  OA
ATOM     23 H    ARG B 363      40.120 -11.344 -10.332  1.00 43.94 LIG 0.16  HD
BRANCH 21 24
ATOM     24  CA  ALA B 362      40.772 -13.551 -11.418  1.00 47.39 LIG 0.17  C 
ATOM     25  CB  ALA B 362      42.166 -12.969 -11.208  1.00 48.25 LIG 0.04  C 
BRANCH 24 26
ATOM     26  N   ALA B 362      40.168 -12.987 -12.618  1.00 48.90 LIG-0.35  N 
ATOM     27  C   GLY B 361      39.200 -13.613 -13.279  1.00 49.70 LIG 0.25  C 
ATOM     28 O    GLY B 361      38.750 -14.708 -12.934  1.00 50.52 LIG-0.27  OA
ATOM     29 H    ALA B 362      40.493 -12.226 -12.853  1.00 48.90 LIG 0.16  HD
BRANCH 27 30
ATOM     30  CA  GLY B 361      38.666 -12.907 -14.508  1.00 49.65 LIG 0.47  C 
ATOM     31  N   GLY B 361      37.793 -11.759 -14.149  1.00 49.05 LIG 0.61  N 
ENDBRANCH 27 30
ENDBRANCH 24 26
ENDBRANCH 21 24
ENDBRANCH 7 20
ENDBRANCH 5 7
ENDBRANCH 1 3
BRANCH 1 32
ATOM     32  C   ALA B 364      34.569 -13.043  -7.403  1.00 26.37 LIG 0.24  C 
ATOM     33  N   HIS B 365      33.254 -13.239  -7.461  1.00 23.61 LIG-0.35  N 
ATOM     34 H    HIS B 365      32.746 -12.916  -8.074  1.00 23.61 LIG 0.16  HD
ATOM     35 O    ALA B 364      35.275 -13.528  -6.519  1.00 24.80 LIG-0.27  OA
BRANCH 33 36
ATOM     36  CA  HIS B 365      32.558 -14.041  -6.458  1.00 22.03 LIG 0.18  C 
BRANCH 36 37
ATOM     37  C   HIS B 365      32.967 -15.510  -6.519  1.00 20.85 LIG 0.24  C 
ATOM     38 O    HIS B 365      33.066 -16.182  -5.495  1.00 18.88 LIG-0.27  OA
ATOM     39  N   SER B 366      33.211 -15.996  -7.732  1.00 20.61 LIG-0.34  N 
ATOM     40 H    SER B 366      33.144 -15.532  -8.453  1.00 20.61 LIG 0.16  HD
BRANCH 39 41
ATOM     41  CA  SER B 366      33.621 -17.378  -7.951  1.00 22.02 LIG 0.20  C 
BRANCH 41 42
ATOM     42  C   SER B 366      35.045 -17.431  -8.486  1.00 20.47 LIG 0.24  C 
ATOM     43 O    SER B 366      35.531 -18.497  -8.870  1.00 18.56 LIG-0.27  OA
ATOM     44  N   SER B 367      35.710 -16.280  -8.504  1.00 19.80 LIG-0.34  N 
ATOM     45 H    SER B 367      35.379 -15.530  -8.244  1.00 19.80 LIG 0.16  HD
BRANCH 44 46
ATOM     46  CA  SER B 367      37.088 -16.198  -8.979  1.00 20.54 LIG 0.21  C 
BRANCH 46 47
ATOM     47  CB  SER B 367      37.960 -17.265  -8.307  1.00 20.61 LIG 0.20  C 
BRANCH 47 48
ATOM     48 OG   SER B 367      38.048 -17.061  -6.909  1.00 20.78 LIG-0.40  OA
ATOM     49 HG   SER B 367      38.639 -16.487  -6.745  1.00 20.78 LIG 0.21  HD
ENDBRANCH 47 48
ENDBRANCH 46 47
BRANCH 46 50
ATOM     50  C   SER B 367      37.145 -16.375 -10.494  1.00 22.30 LIG 0.20  C 
ATOM     51 O    SER B 367      38.249 -16.655 -11.013  1.00 20.52 LIG-0.65  OA
ATOM     52 OXT  SER B 367      36.081 -16.246 -11.139  1.00 22.33 LIG-0.65  OA
ENDBRANCH 46 50
ENDBRANCH 44 46
ENDBRANCH 41 42
BRANCH 41 53
ATOM     53  CB  SER B 366      32.686 -18.052  -8.962  1.00 25.29 LIG 0.20  C 
BRANCH 53 54
ATOM     54 OG   SER B 366      33.345 -19.110  -9.639  1.00 34.76 LIG-0.40  OA
ATOM     55 HG   SER B 366      33.612 -19.678  -9.079  1.00 34.76 LIG 0.21  HD
ENDBRANCH 53 54
ENDBRANCH 41 53
ENDBRANCH 39 41
ENDBRANCH 36 37
BRANCH 36 56
ATOM     56  CB  HIS B 365      31.048 -13.941  -6.672  1.00 23.96 LIG 0.10  C 
BRANCH 56 57
ATOM     57  CG  HIS B 365      30.439 -12.726  -6.045  1.00 26.34 LIG 0.06  A 
ATOM     58 ND1  HIS B 365      29.417 -12.016  -6.638  1.00 28.92 LIG-0.24  NA
ATOM     59  CE1 HIS B 365      29.037 -11.039  -5.834  1.00 27.03 LIG 0.23  A 
ATOM     60 NE2  HIS B 365      29.777 -11.089  -4.741  1.00 28.88 LIG-0.25  NA
ATOM     61  CD2 HIS B 365      30.663 -12.134  -4.848  1.00 26.83 LIG 0.14  A 
ENDBRANCH 56 57
ENDBRANCH 36 56
ENDBRANCH 33 36
ENDBRANCH 1 32
TORSDOF 23
ENDMDL
MODEL 4
USER: ADFR SOLUTION from run 190
USER: SCORE 17.232307 LL:  -3.499 LR: -15.434 RR:   0.000 FEB:  -8.573
USER: RMSD 10.725332
USER: SEED 189
USER: STATUS no improvement in best in 5 clusters for 5 generations
USER: GENES 25
USER: genes 0 Translation |==|  0.63841 0.65706 0.40820
USER: genes 1 Rotation |==|  0.28771 0.38523 0.07068 0.58626
USER: genes 2 Torsion [CB]-CA--N-[C] |==|  0.86664
USER: genes 3 Torsion [N]-C--CA-[N] |==|  0.41765
USER: genes 4 Torsion [C]-CA--CB-[CG] |==|  0.46718
USER: genes 5 Torsion [CA]-CB--CG-[CD] |==|  0.41427
USER: genes 6 Torsion [CB]-CG--CD-[NE] |==|  0.27439
USER: genes 7 Torsion [CG]-CD--NE-[HE] |==|  0.25262
USER: genes 8 Torsion [C]-CA--N-[C] |==|  0.19831
USER: genes 9 Torsion [N]-C--CA-[N] |==|  0.10162
USER: genes 10 Torsion [C]-CA--N-[C] |==|  0.15107
USER: genes 11 Torsion [N]-C--CA-[N] |==|  0.88604
USER: genes 12 Torsion [N]-CA--C-[N] |==|  0.34864
USER: genes 13 Torsion [C]-N--CA-[C] |==|  0.79751
USER: genes 14 Torsion [N]-CA--C-[N] |==|  0.89565
USER: genes 15 Torsion [C]-N--CA-[C] |==|  0.66809
USER: genes 16 Torsion [N]-CA--C-[N] |==|  0.09982
USER: genes 17 Torsion [C]-N--CA-[CB] |==|  0.86042
USER: genes 18 Torsion [N]-CA--CB-[OG] |==|  0.82440
USER: genes 19 Torsion [CA]-CB--OG-[HG] |==|  0.38279
USER: genes 20 Torsion [N]-CA--C-[OXT] |==|  0.48083
USER: genes 21 Torsion [N]-CA--CB-[OG] |==|  0.04946
USER: genes 22 Torsion [CA]-CB--OG-[HG] |==|  0.05509
USER: genes 23 Torsion [N]-CA--CB-[CG] |==|  0.50542
USER: genes 24 Torsion [CA]-CB--CG-[CD2] |==|  0.74976
ROOT
ATOM      1  CA  ALA B 364      36.002 -11.814 -10.136  1.00 28.10 LIG 0.17  C 
ATOM      2  CB  ALA B 364      36.966 -12.847 -10.693  1.00 26.12 LIG 0.04  C 
ENDROOT
BRANCH 1 3
ATOM      3  N   ALA B 364      36.663 -10.517 -10.029  1.00 32.12 LIG-0.35  N 
ATOM      4 H    ALA B 364      36.214  -9.859 -10.353  1.00 32.12 LIG 0.16  HD
ATOM      5  C   ARG B 363      37.863 -10.399  -9.472  1.00 35.84 LIG 0.24  C 
ATOM      6 O    ARG B 363      38.473 -11.359  -9.004  1.00 34.68 LIG-0.27  OA
BRANCH 5 7
ATOM      7  CA  ARG B 363      38.470  -8.993  -9.438  1.00 40.75 LIG 0.18  C 
BRANCH 7 8
ATOM      8  CB  ARG B 363      39.198  -8.714 -10.761  1.00 43.30 LIG 0.04  C 
BRANCH 8 9
ATOM      9  CG  ARG B 363      39.587  -7.252 -10.942  1.00 48.42 LIG 0.02  C 
BRANCH 9 10
ATOM     10  CD  ARG B 363      40.859  -7.073 -11.761  1.00 50.65 LIG 0.14  C 
BRANCH 10 11
ATOM     11  NE  ARG B 363      40.546  -6.748 -13.153  1.00 53.91 LIG-0.23  N 
ATOM     12 HE   ARG B 363      40.479  -5.917 -13.364  1.00 53.91 LIG 0.18  HD
ATOM     13  CZ  ARG B 363      40.358  -7.648 -14.115  1.00 54.64 LIG 0.67  C 
ATOM     14  NH2 ARG B 363      40.073  -7.252 -15.350  1.00 53.91 LIG-0.23  N 
ATOM     15  NH1 ARG B 363      40.451  -8.944 -13.845  1.00 54.84 LIG-0.23  N 
ATOM     16 1HH2 ARG B 363      40.011  -6.413 -15.528  1.00 53.91 LIG 0.17  HD
ATOM     17 2HH2 ARG B 363      39.952  -7.834 -15.971  1.00 53.91 LIG 0.17  HD
ATOM     18 1HH1 ARG B 363      40.633  -9.205 -13.047  1.00 54.84 LIG 0.17  HD
ATOM     19 2HH1 ARG B 363      40.329  -9.523 -14.469  1.00 54.84 LIG 0.17  HD
ENDBRANCH 10 11
ENDBRANCH 9 10
ENDBRANCH 8 9
ENDBRANCH 7 8
BRANCH 7 20
ATOM     20  N   ARG B 363      39.365  -8.749  -8.311  1.00 43.94 LIG-0.35  N 
ATOM     21  C   ALA B 362      40.572  -9.298  -8.209  1.00 45.99 LIG 0.24  C 
ATOM     22 O    ALA B 362      41.041 -10.073  -9.046  1.00 46.10 LIG-0.27  OA
ATOM     23 H    ARG B 363      39.038  -8.217  -7.719  1.00 43.94 LIG 0.16  HD
BRANCH 21 24
ATOM     24  CA  ALA B 362      41.364  -8.918  -6.962  1.00 47.39 LIG 0.17  C 
ATOM     25  CB  ALA B 362      42.436  -9.966  -6.679  1.00 48.25 LIG 0.04  C 
BRANCH 24 26
ATOM     26  N   ALA B 362      40.470  -8.795  -5.819  1.00 48.90 LIG-0.35  N 
ATOM     27  C   GLY B 361      39.651  -9.777  -5.458  1.00 49.70 LIG 0.25  C 
ATOM     28 O    GLY B 361      39.582 -10.851  -6.061  1.00 50.52 LIG-0.27  OA
ATOM     29 H    ALA B 362      40.522  -8.041  -5.408  1.00 48.90 LIG 0.16  HD
BRANCH 27 30
ATOM     30  CA  GLY B 361      38.780  -9.509  -4.248  1.00 49.65 LIG 0.47  C 
ATOM     31  N   GLY B 361      39.527  -8.804  -3.175  1.00 49.05 LIG 0.61  N 
ENDBRANCH 27 30
ENDBRANCH 24 26
ENDBRANCH 21 24
ENDBRANCH 7 20
ENDBRANCH 5 7
ENDBRANCH 1 3
BRANCH 1 32
ATOM     32  C   ALA B 364      35.530 -12.215  -8.737  1.00 26.37 LIG 0.24  C 
ATOM     33  N   HIS B 365      34.241 -12.516  -8.597  1.00 23.61 LIG-0.35  N 
ATOM     34 H    HIS B 365      33.673 -12.508  -9.242  1.00 23.61 LIG 0.16  HD
ATOM     35 O    ALA B 364      36.324 -12.245  -7.797  1.00 24.80 LIG-0.27  OA
BRANCH 33 36
ATOM     36  CA  HIS B 365      33.682 -12.890  -7.300  1.00 22.03 LIG 0.18  C 
BRANCH 36 37
ATOM     37  C   HIS B 365      34.114 -14.291  -6.876  1.00 20.85 LIG 0.24  C 
ATOM     38 O    HIS B 365      34.374 -14.544  -5.703  1.00 18.88 LIG-0.27  OA
ATOM     39  N   SER B 366      34.193 -15.194  -7.849  1.00 20.61 LIG-0.34  N 
ATOM     40 H    SER B 366      34.012 -15.024  -8.673  1.00 20.61 LIG 0.16  HD
BRANCH 39 41
ATOM     41  CA  SER B 366      34.601 -16.572  -7.602  1.00 22.02 LIG 0.20  C 
BRANCH 41 42
ATOM     42  C   SER B 366      35.860 -16.903  -8.392  1.00 20.47 LIG 0.24  C 
ATOM     43 O    SER B 366      36.022 -18.026  -8.871  1.00 18.56 LIG-0.27  OA
ATOM     44  N   SER B 367      36.749 -15.922  -8.519  1.00 19.80 LIG-0.34  N 
ATOM     45 H    SER B 367      36.643 -15.133  -8.193  1.00 19.80 LIG 0.16  HD
BRANCH 44 46
ATOM     46  CA  SER B 367      38.005 -16.114  -9.240  1.00 20.54 LIG 0.21  C 
BRANCH 46 47
ATOM     47  CB  SER B 367      38.726 -17.374  -8.749  1.00 20.61 LIG 0.20  C 
BRANCH 47 48
ATOM     48 OG   SER B 367      39.094 -17.267  -7.386  1.00 20.78 LIG-0.40  OA
ATOM     49 HG   SER B 367      38.937 -17.993  -6.995  1.00 20.78 LIG 0.21  HD
ENDBRANCH 47 48
ENDBRANCH 46 47
BRANCH 46 50
ATOM     50  C   SER B 367      37.750 -16.224 -10.741  1.00 22.30 LIG 0.20  C 
ATOM     51 O    SER B 367      36.564 -16.257 -11.136  1.00 20.52 LIG-0.65  OA
ATOM     52 OXT  SER B 367      38.743 -16.259 -11.501  1.00 22.33 LIG-0.65  OA
ENDBRANCH 46 50
ENDBRANCH 44 46
ENDBRANCH 41 42
BRANCH 41 53
ATOM     53  CB  SER B 366      33.486 -17.537  -8.022  1.00 25.29 LIG 0.20  C 
BRANCH 53 54
ATOM     54 OG   SER B 366      32.560 -16.900  -8.888  1.00 34.76 LIG-0.40  OA
ATOM     55 HG   SER B 366      32.917 -16.219  -9.228  1.00 34.76 LIG 0.21  HD
ENDBRANCH 53 54
ENDBRANCH 41 53
ENDBRANCH 39 41
ENDBRANCH 36 37
BRANCH 36 56
ATOM     56  CB  HIS B 365      32.155 -12.842  -7.363  1.00 23.96 LIG 0.10  C 
BRANCH 56 57
ATOM     57  CG  HIS B 365      31.497 -13.168  -6.058  1.00 26.34 LIG 0.06  A 
ATOM     58 ND1  HIS B 365      31.129 -12.200  -5.149  1.00 28.92 LIG-0.24  NA
ATOM     59  CE1 HIS B 365      30.516 -12.768  -4.127  1.00 27.03 LIG 0.23  A 
ATOM     60 NE2  HIS B 365      30.476 -14.072  -4.339  1.00 28.88 LIG-0.25  NA
ATOM     61  CD2 HIS B 365      31.085 -14.348  -5.539  1.00 26.83 LIG 0.14  A 
ENDBRANCH 56 57
ENDBRANCH 36 56
ENDBRANCH 33 36
ENDBRANCH 1 32
TORSDOF 23
ENDMDL
MODEL 5
USER: ADFR SOLUTION from run 160
USER: SCORE 16.670084 LL:  -2.923 LR: -15.330 RR:   0.000 FEB:  -8.469
USER: RMSD 11.450510
USER: SEED 159
USER: STATUS no improvement in best in 11 clusters for 5 generations
USER: GENES 25
USER: genes 0 Translation |==|  0.59284 0.60703 0.44953
USER: genes 1 Rotation |==|  0.27938 0.37080 0.07040 0.50887
USER: genes 2 Torsion [CB]-CA--N-[C] |==|  0.87598
USER: genes 3 Torsion [N]-C--CA-[N] |==|  0.45831
USER: genes 4 Torsion [C]-CA--CB-[CG] |==|  0.44267
USER: genes 5 Torsion [CA]-CB--CG-[CD] |==|  0.37429
USER: genes 6 Torsion [CB]-CG--CD-[NE] |==|  0.30706
USER: genes 7 Torsion [CG]-CD--NE-[HE] |==|  0.77471
USER: genes 8 Torsion [C]-CA--N-[C] |==|  0.62762
USER: genes 9 Torsion [N]-C--CA-[N] |==|  0.45388
USER: genes 10 Torsion [C]-CA--N-[C] |==|  0.75014
USER: genes 11 Torsion [N]-C--CA-[N] |==|  0.04473
USER: genes 12 Torsion [N]-CA--C-[N] |==|  0.37414
USER: genes 13 Torsion [C]-N--CA-[C] |==|  0.83622
USER: genes 14 Torsion [N]-CA--C-[N] |==|  0.77778
USER: genes 15 Torsion [C]-N--CA-[C] |==|  0.66014
USER: genes 16 Torsion [N]-CA--C-[N] |==|  0.98194
USER: genes 17 Torsion [C]-N--CA-[CB] |==|  0.33159
USER: genes 18 Torsion [N]-CA--CB-[OG] |==|  0.56339
USER: genes 19 Torsion [CA]-CB--OG-[HG] |==|  0.99795
USER: genes 20 Torsion [N]-CA--C-[OXT] |==|  0.31736
USER: genes 21 Torsion [N]-CA--CB-[OG] |==|  0.92158
USER: genes 22 Torsion [CA]-CB--OG-[HG] |==|  0.94678
USER: genes 23 Torsion [N]-CA--CB-[CG] |==|  0.63197
USER: genes 24 Torsion [CA]-CB--CG-[CD2] |==|  0.43261
ROOT
ATOM      1  CA  ALA B 364      34.874 -12.752  -9.237  1.00 28.10 LIG 0.17  C 
ATOM      2  CB  ALA B 364      35.564 -14.073  -9.527  1.00 26.12 LIG 0.04  C 
ENDROOT
BRANCH 1 3
ATOM      3  N   ALA B 364      35.836 -11.657  -9.313  1.00 32.12 LIG-0.35  N 
ATOM      4 H    ALA B 364      35.559 -10.966  -9.742  1.00 32.12 LIG 0.16  HD
ATOM      5  C   ARG B 363      37.036 -11.755  -8.751  1.00 35.84 LIG 0.24  C 
ATOM      6 O    ARG B 363      37.397 -12.752  -8.130  1.00 34.68 LIG-0.27  OA
BRANCH 5 7
ATOM      7  CA  ARG B 363      37.972 -10.552  -8.918  1.00 40.75 LIG 0.18  C 
BRANCH 7 8
ATOM      8  CB  ARG B 363      38.445 -10.464 -10.376  1.00 43.30 LIG 0.04  C 
BRANCH 8 9
ATOM      9  CG  ARG B 363      38.949  -9.081 -10.767  1.00 48.42 LIG 0.02  C 
BRANCH 9 10
ATOM     10  CD  ARG B 363      40.255  -9.124 -11.549  1.00 50.65 LIG 0.14  C 
BRANCH 10 11
ATOM     11  NE  ARG B 363      40.047  -8.731 -12.943  1.00 53.91 LIG-0.23  N 
ATOM     12 HE   ARG B 363      39.742  -9.324 -13.484  1.00 53.91 LIG 0.18  HD
ATOM     13  CZ  ARG B 363      40.296  -7.517 -13.431  1.00 54.64 LIG 0.67  C 
ATOM     14  NH2 ARG B 363      40.077  -7.259 -14.714  1.00 53.91 LIG-0.23  N 
ATOM     15  NH1 ARG B 363      40.765  -6.562 -12.638  1.00 54.84 LIG-0.23  N 
ATOM     16 1HH2 ARG B 363      39.775  -7.876 -15.231  1.00 53.91 LIG 0.17  HD
ATOM     17 2HH2 ARG B 363      40.238  -6.475 -15.028  1.00 53.91 LIG 0.17  HD
ATOM     18 1HH1 ARG B 363      40.909  -6.725 -11.807  1.00 54.84 LIG 0.17  HD
ATOM     19 2HH1 ARG B 363      40.925  -5.779 -12.957  1.00 54.84 LIG 0.17  HD
ENDBRANCH 10 11
ENDBRANCH 9 10
ENDBRANCH 8 9
ENDBRANCH 7 8
BRANCH 7 20
ATOM     20  N   ARG B 363      39.120 -10.553  -8.016  1.00 43.94 LIG-0.35  N 
ATOM     21  C   ALA B 362      39.509  -9.479  -7.333  1.00 45.99 LIG 0.24  C 
ATOM     22 O    ALA B 362      38.949  -8.384  -7.410  1.00 46.10 LIG-0.27  OA
ATOM     23 H    ARG B 363      39.521 -11.312  -7.967  1.00 43.94 LIG 0.16  HD
BRANCH 21 24
ATOM     24  CA  ALA B 362      40.726  -9.676  -6.436  1.00 47.39 LIG 0.17  C 
ATOM     25  CB  ALA B 362      40.340 -10.464  -5.188  1.00 48.25 LIG 0.04  C 
BRANCH 24 26
ATOM     26  N   ALA B 362      41.286  -8.384  -6.060  1.00 48.90 LIG-0.35  N 
ATOM     27  C   GLY B 361      42.221  -7.784  -6.788  1.00 49.70 LIG 0.25  C 
ATOM     28 O    GLY B 361      42.686  -8.273  -7.821  1.00 50.52 LIG-0.27  OA
ATOM     29 H    ALA B 362      40.958  -8.054  -5.336  1.00 48.90 LIG 0.16  HD
BRANCH 27 30
ATOM     30  CA  GLY B 361      42.708  -6.444  -6.277  1.00 49.65 LIG 0.47  C 
ATOM     31  N   GLY B 361      42.327  -6.222  -4.859  1.00 49.05 LIG 0.61  N 
ENDBRANCH 27 30
ENDBRANCH 24 26
ENDBRANCH 21 24
ENDBRANCH 7 20
ENDBRANCH 5 7
ENDBRANCH 1 3
BRANCH 1 32
ATOM     32  C   ALA B 364      34.277 -12.753  -7.828  1.00 26.37 LIG 0.24  C 
ATOM     33  N   HIS B 365      32.956 -12.891  -7.733  1.00 23.61 LIG-0.35  N 
ATOM     34 H    HIS B 365      32.433 -12.991  -8.407  1.00 23.61 LIG 0.16  HD
ATOM     35 O    ALA B 364      35.004 -12.624  -6.844  1.00 24.80 LIG-0.27  OA
BRANCH 33 36
ATOM     36  CA  HIS B 365      32.281 -12.884  -6.437  1.00 22.03 LIG 0.18  C 
BRANCH 36 37
ATOM     37  C   HIS B 365      32.791 -13.993  -5.522  1.00 20.85 LIG 0.24  C 
ATOM     38 O    HIS B 365      33.616 -13.758  -4.643  1.00 18.88 LIG-0.27  OA
ATOM     39  N   SER B 366      32.295 -15.206  -5.746  1.00 20.61 LIG-0.34  N 
ATOM     40 H    SER B 366      31.717 -15.378  -6.359  1.00 20.61 LIG 0.16  HD
BRANCH 39 41
ATOM     41  CA  SER B 366      32.693 -16.369  -4.961  1.00 22.02 LIG 0.20  C 
BRANCH 41 42
ATOM     42  C   SER B 366      33.261 -17.452  -5.867  1.00 20.47 LIG 0.24  C 
ATOM     43 O    SER B 366      33.769 -18.467  -5.388  1.00 18.56 LIG-0.27  OA
ATOM     44  N   SER B 367      33.176 -17.229  -7.175  1.00 19.80 LIG-0.34  N 
ATOM     45 H    SER B 367      32.819 -16.527  -7.520  1.00 19.80 LIG 0.16  HD
BRANCH 44 46
ATOM     46  CA  SER B 367      33.697 -18.182  -8.151  1.00 20.54 LIG 0.21  C 
BRANCH 46 47
ATOM     47  CB  SER B 367      32.576 -18.692  -9.065  1.00 20.61 LIG 0.20  C 
BRANCH 47 48
ATOM     48 OG   SER B 367      32.904 -19.943  -9.643  1.00 20.78 LIG-0.40  OA
ATOM     49 HG   SER B 367      33.668 -20.179  -9.386  1.00 20.78 LIG 0.21  HD
ENDBRANCH 47 48
ENDBRANCH 46 47
BRANCH 46 50
ATOM     50  C   SER B 367      34.791 -17.539  -8.999  1.00 22.30 LIG 0.20  C 
ATOM     51 O    SER B 367      34.473 -16.589  -9.749  1.00 20.52 LIG-0.65  OA
ATOM     52 OXT  SER B 367      35.955 -17.983  -8.888  1.00 22.33 LIG-0.65  OA
ENDBRANCH 46 50
ENDBRANCH 44 46
ENDBRANCH 41 42
BRANCH 41 53
ATOM     53  CB  SER B 366      31.484 -16.937  -4.208  1.00 25.29 LIG 0.20  C 
BRANCH 53 54
ATOM     54 OG   SER B 366      30.534 -15.921  -3.929  1.00 34.76 LIG-0.40  OA
ATOM     55 HG   SER B 366      30.904 -15.168  -3.985  1.00 34.76 LIG 0.21  HD
ENDBRANCH 53 54
ENDBRANCH 41 53
ENDBRANCH 39 41
ENDBRANCH 36 37
BRANCH 36 56
ATOM     56  CB  HIS B 365      30.776 -13.063  -6.638  1.00 23.96 LIG 0.10  C 
BRANCH 56 57
ATOM     57  CG  HIS B 365      29.953 -12.083  -5.861  1.00 26.34 LIG 0.06  A 
ATOM     58 ND1  HIS B 365      30.440 -11.410  -4.761  1.00 28.92 LIG-0.24  NA
ATOM     59  CE1 HIS B 365      29.522 -10.569  -4.320  1.00 27.03 LIG 0.23  A 
ATOM     60 NE2  HIS B 365      28.456 -10.674  -5.093  1.00 28.88 LIG-0.25  NA
ATOM     61  CD2 HIS B 365      28.699 -11.616  -6.064  1.00 26.83 LIG 0.14  A 
ENDBRANCH 56 57
ENDBRANCH 36 56
ENDBRANCH 33 36
ENDBRANCH 1 32
TORSDOF 23
ENDMDL
MODEL 6
USER: ADFR SOLUTION from run 83
USER: SCORE 16.752350 LL:  -3.701 LR: -14.895 RR:   0.000 FEB:  -8.034
USER: RMSD 10.521994
USER: SEED 82
USER: STATUS no improvement in best in 9 clusters for 5 generations
USER: GENES 25
USER: genes 0 Translation |==|  0.64642 0.48711 0.40638
USER: genes 1 Rotation |==|  0.36488 0.42256 0.03388 0.59210
USER: genes 2 Torsion [CB]-CA--N-[C] |==|  0.45257
USER: genes 3 Torsion [N]-C--CA-[N] |==|  0.91311
USER: genes 4 Torsion [C]-CA--CB-[CG] |==|  0.60063
USER: genes 5 Torsion [CA]-CB--CG-[CD] |==|  0.65719
USER: genes 6 Torsion [CB]-CG--CD-[NE] |==|  0.78696
USER: genes 7 Torsion [CG]-CD--NE-[HE] |==|  0.18830
USER: genes 8 Torsion [C]-CA--N-[C] |==|  0.83836
USER: genes 9 Torsion [N]-C--CA-[N] |==|  0.24312
USER: genes 10 Torsion [C]-CA--N-[C] |==|  0.78902
USER: genes 11 Torsion [N]-C--CA-[N] |==|  0.35519
USER: genes 12 Torsion [N]-CA--C-[N] |==|  0.38006
USER: genes 13 Torsion [C]-N--CA-[C] |==|  0.13055
USER: genes 14 Torsion [N]-CA--C-[N] |==|  0.16667
USER: genes 15 Torsion [C]-N--CA-[C] |==|  0.60069
USER: genes 16 Torsion [N]-CA--C-[N] |==|  0.40943
USER: genes 17 Torsion [C]-N--CA-[CB] |==|  0.33136
USER: genes 18 Torsion [N]-CA--CB-[OG] |==|  0.74723
USER: genes 19 Torsion [CA]-CB--OG-[HG] |==|  0.82312
USER: genes 20 Torsion [N]-CA--C-[OXT] |==|  0.00140
USER: genes 21 Torsion [N]-CA--CB-[OG] |==|  0.62666
USER: genes 22 Torsion [CA]-CB--OG-[HG] |==|  0.80159
USER: genes 23 Torsion [N]-CA--CB-[CG] |==|  0.63600
USER: genes 24 Torsion [CA]-CB--CG-[CD2] |==|  0.66467
ROOT
ATOM      1  CA  ALA B 364      36.200 -15.001 -10.175  1.00 28.10 LIG 0.17  C 
ATOM      2  CB  ALA B 364      37.321 -15.914 -10.641  1.00 26.12 LIG 0.04  C 
ENDROOT
BRANCH 1 3
ATOM      3  N   ALA B 364      36.755 -13.781  -9.597  1.00 32.12 LIG-0.35  N 
ATOM      4 H    ALA B 364      37.587 -13.832  -9.384  1.00 32.12 LIG 0.16  HD
ATOM      5  C   ARG B 363      36.007 -12.696  -9.427  1.00 35.84 LIG 0.24  C 
ATOM      6 O    ARG B 363      34.823 -12.651  -9.756  1.00 34.68 LIG-0.27  OA
BRANCH 5 7
ATOM      7  CA  ARG B 363      36.690 -11.483  -8.787  1.00 40.75 LIG 0.18  C 
BRANCH 7 8
ATOM      8  CB  ARG B 363      37.243 -10.564  -9.885  1.00 43.30 LIG 0.04  C 
BRANCH 8 9
ATOM      9  CG  ARG B 363      38.567  -9.906  -9.516  1.00 48.42 LIG 0.02  C 
BRANCH 9 10
ATOM     10  CD  ARG B 363      38.515  -8.386  -9.590  1.00 50.65 LIG 0.14  C 
BRANCH 10 11
ATOM     11  NE  ARG B 363      38.576  -7.925 -10.977  1.00 53.91 LIG-0.23  N 
ATOM     12 HE   ARG B 363      37.905  -8.097 -11.486  1.00 53.91 LIG 0.18  HD
ATOM     13  CZ  ARG B 363      39.598  -7.257 -11.508  1.00 54.64 LIG 0.67  C 
ATOM     14  NH2 ARG B 363      39.560  -6.884 -12.781  1.00 53.91 LIG-0.23  N 
ATOM     15  NH1 ARG B 363      40.660  -6.962 -10.767  1.00 54.84 LIG-0.23  N 
ATOM     16 1HH2 ARG B 363      38.875  -7.075 -13.264  1.00 53.91 LIG 0.17  HD
ATOM     17 2HH2 ARG B 363      40.221  -6.452 -13.122  1.00 53.91 LIG 0.17  HD
ATOM     18 1HH1 ARG B 363      40.689  -7.202  -9.943  1.00 54.84 LIG 0.17  HD
ATOM     19 2HH1 ARG B 363      41.318  -6.530 -11.113  1.00 54.84 LIG 0.17  HD
ENDBRANCH 10 11
ENDBRANCH 9 10
ENDBRANCH 8 9
ENDBRANCH 7 8
BRANCH 7 20
ATOM     20  N   ARG B 363      37.744 -11.818  -7.835  1.00 43.94 LIG-0.35  N 
ATOM     21  C   ALA B 362      37.538 -12.568  -6.755  1.00 45.99 LIG 0.24  C 
ATOM     22 O    ALA B 362      36.438 -13.034  -6.450  1.00 46.10 LIG-0.27  OA
ATOM     23 H    ARG B 363      38.512 -11.486  -8.037  1.00 43.94 LIG 0.16  HD
BRANCH 21 24
ATOM     24  CA  ALA B 362      38.763 -12.816  -5.882  1.00 47.39 LIG 0.17  C 
ATOM     25  CB  ALA B 362      38.639 -14.159  -5.168  1.00 48.25 LIG 0.04  C 
BRANCH 24 26
ATOM     26  N   ALA B 362      38.910 -11.743  -4.908  1.00 48.90 LIG-0.35  N 
ATOM     27  C   GLY B 361      39.376 -10.545  -5.247  1.00 49.70 LIG 0.25  C 
ATOM     28 O    GLY B 361      39.720 -10.258  -6.396  1.00 50.52 LIG-0.27  OA
ATOM     29 H    ALA B 362      38.672 -11.954  -4.109  1.00 48.90 LIG 0.16  HD
BRANCH 27 30
ATOM     30  CA  GLY B 361      39.473  -9.526  -4.131  1.00 49.65 LIG 0.47  C 
ATOM     31  N   GLY B 361      40.825  -8.917  -4.055  1.00 49.05 LIG 0.61  N 
ENDBRANCH 27 30
ENDBRANCH 24 26
ENDBRANCH 21 24
ENDBRANCH 7 20
ENDBRANCH 5 7
ENDBRANCH 1 3
BRANCH 1 32
ATOM     32  C   ALA B 364      35.356 -15.687  -9.099  1.00 26.37 LIG 0.24  C 
ATOM     33  N   HIS B 365      34.178 -16.178  -9.477  1.00 23.61 LIG-0.35  N 
ATOM     34 H    HIS B 365      33.878 -16.142 -10.282  1.00 23.61 LIG 0.16  HD
ATOM     35 O    ALA B 364      35.767 -15.763  -7.942  1.00 24.80 LIG-0.27  OA
BRANCH 33 36
ATOM     36  CA  HIS B 365      33.284 -16.833  -8.525  1.00 22.03 LIG 0.18  C 
BRANCH 36 37
ATOM     37  C   HIS B 365      33.130 -16.024  -7.240  1.00 20.85 LIG 0.24  C 
ATOM     38 O    HIS B 365      33.443 -16.500  -6.152  1.00 18.88 LIG-0.27  OA
ATOM     39  N   SER B 366      32.634 -14.798  -7.380  1.00 20.61 LIG-0.34  N 
ATOM     40 H    SER B 366      32.413 -14.458  -8.139  1.00 20.61 LIG 0.16  HD
BRANCH 39 41
ATOM     41  CA  SER B 366      32.419 -13.909  -6.245  1.00 22.02 LIG 0.20  C 
BRANCH 41 42
ATOM     42  C   SER B 366      31.160 -13.079  -6.451  1.00 20.47 LIG 0.24  C 
ATOM     43 O    SER B 366      30.819 -12.729  -7.583  1.00 18.56 LIG-0.27  OA
ATOM     44  N   SER B 367      30.476 -12.764  -5.355  1.00 19.80 LIG-0.34  N 
ATOM     45 H    SER B 367      30.702 -13.008  -4.562  1.00 19.80 LIG 0.16  HD
BRANCH 44 46
ATOM     46  CA  SER B 367      29.259 -11.960  -5.415  1.00 20.54 LIG 0.21  C 
BRANCH 46 47
ATOM     47  CB  SER B 367      28.062 -12.744  -4.865  1.00 20.61 LIG 0.20  C 
BRANCH 47 48
ATOM     48 OG   SER B 367      27.393 -13.458  -5.889  1.00 20.78 LIG-0.40  OA
ATOM     49 HG   SER B 367      27.069 -12.916  -6.444  1.00 20.78 LIG 0.21  HD
ENDBRANCH 47 48
ENDBRANCH 46 47
BRANCH 46 50
ATOM     50  C   SER B 367      29.429 -10.668  -4.620  1.00 22.30 LIG 0.20  C 
ATOM     51 O    SER B 367      28.457  -9.884  -4.555  1.00 20.52 LIG-0.65  OA
ATOM     52 OXT  SER B 367      30.529 -10.468  -4.058  1.00 22.33 LIG-0.65  OA
ENDBRANCH 46 50
ENDBRANCH 44 46
ENDBRANCH 41 42
BRANCH 41 53
ATOM     53  CB  SER B 366      33.614 -12.963  -6.081  1.00 25.29 LIG 0.20  C 
BRANCH 53 54
ATOM     54 OG   SER B 366      34.020 -12.884  -4.724  1.00 34.76 LIG-0.40  OA
ATOM     55 HG   SER B 366      33.446 -12.454  -4.285  1.00 34.76 LIG 0.21  HD
ENDBRANCH 53 54
ENDBRANCH 41 53
ENDBRANCH 39 41
ENDBRANCH 36 37
BRANCH 36 56
ATOM     56  CB  HIS B 365      33.827 -18.217  -8.174  1.00 23.96 LIG 0.10  C 
BRANCH 56 57
ATOM     57  CG  HIS B 365      32.799 -19.301  -8.274  1.00 26.34 LIG 0.06  A 
ATOM     58 ND1  HIS B 365      32.183 -19.634  -9.462  1.00 28.92 LIG-0.24  NA
ATOM     59  CE1 HIS B 365      31.376 -20.661  -9.264  1.00 27.03 LIG 0.23  A 
ATOM     60 NE2  HIS B 365      31.446 -21.005  -7.990  1.00 28.88 LIG-0.25  NA
ATOM     61  CD2 HIS B 365      32.328 -20.169  -7.349  1.00 26.83 LIG 0.14  A 
ENDBRANCH 56 57
ENDBRANCH 36 56
ENDBRANCH 33 36
ENDBRANCH 1 32
TORSDOF 23
ENDMDL
MODEL 7
USER: ADFR SOLUTION from run 165
USER: SCORE 17.768437 LL:  -3.659 LR: -14.857 RR:   0.000 FEB:  -7.996
USER: RMSD 10.814229
USER: SEED 164
USER: STATUS no improvement in best in 5 clusters for 5 generations
USER: GENES 25
USER: genes 0 Translation |==|  0.63705 0.67139 0.41394
USER: genes 1 Rotation |==|  0.28755 0.41887 0.06646 0.60162
USER: genes 2 Torsion [CB]-CA--N-[C] |==|  0.87855
USER: genes 3 Torsion [N]-C--CA-[N] |==|  0.48243
USER: genes 4 Torsion [C]-CA--CB-[CG] |==|  0.71452
USER: genes 5 Torsion [CA]-CB--CG-[CD] |==|  0.19589
USER: genes 6 Torsion [CB]-CG--CD-[NE] |==|  0.11922
USER: genes 7 Torsion [CG]-CD--NE-[HE] |==|  0.00276
USER: genes 8 Torsion [C]-CA--N-[C] |==|  0.78211
USER: genes 9 Torsion [N]-C--CA-[N] |==|  0.37971
USER: genes 10 Torsion [C]-CA--N-[C] |==|  0.58016
USER: genes 11 Torsion [N]-C--CA-[N] |==|  0.78643
USER: genes 12 Torsion [N]-CA--C-[N] |==|  0.36120
USER: genes 13 Torsion [C]-N--CA-[C] |==|  0.80000
USER: genes 14 Torsion [N]-CA--C-[N] |==|  0.88084
USER: genes 15 Torsion [C]-N--CA-[C] |==|  0.69852
USER: genes 16 Torsion [N]-CA--C-[N] |==|  0.05895
USER: genes 17 Torsion [C]-N--CA-[CB] |==|  0.85687
USER: genes 18 Torsion [N]-CA--CB-[OG] |==|  0.73368
USER: genes 19 Torsion [CA]-CB--OG-[HG] |==|  0.18053
USER: genes 20 Torsion [N]-CA--C-[OXT] |==|  0.98492
USER: genes 21 Torsion [N]-CA--CB-[OG] |==|  0.95748
USER: genes 22 Torsion [CA]-CB--OG-[HG] |==|  0.11250
USER: genes 23 Torsion [N]-CA--CB-[CG] |==|  0.62924
USER: genes 24 Torsion [CA]-CB--CG-[CD2] |==|  0.43583
ROOT
ATOM      1  CA  ALA B 364      35.968 -11.545 -10.011  1.00 28.10 LIG 0.17  C 
ATOM      2  CB  ALA B 364      36.905 -12.491 -10.741  1.00 26.12 LIG 0.04  C 
ENDROOT
BRANCH 1 3
ATOM      3  N   ALA B 364      36.645 -10.281  -9.738  1.00 32.12 LIG-0.35  N 
ATOM      4 H    ALA B 364      36.171  -9.581  -9.894  1.00 32.12 LIG 0.16  HD
ATOM      5  C   ARG B 363      37.894 -10.252  -9.286  1.00 35.84 LIG 0.24  C 
ATOM      6 O    ARG B 363      38.539 -11.273  -9.058  1.00 34.68 LIG-0.27  OA
BRANCH 5 7
ATOM      7  CA  ARG B 363      38.510  -8.867  -9.060  1.00 40.75 LIG 0.18  C 
BRANCH 7 8
ATOM      8  CB  ARG B 363      38.576  -8.108 -10.393  1.00 43.30 LIG 0.04  C 
BRANCH 8 9
ATOM      9  CG  ARG B 363      39.971  -8.082 -11.007  1.00 48.42 LIG 0.02  C 
BRANCH 9 10
ATOM     10  CD  ARG B 363      40.413  -9.440 -11.535  1.00 50.65 LIG 0.14  C 
BRANCH 10 11
ATOM     11  NE  ARG B 363      39.326 -10.102 -12.257  1.00 53.91 LIG-0.23  N 
ATOM     12 HE   ARG B 363      38.579  -9.683 -12.326  1.00 53.91 LIG 0.18  HD
ATOM     13  CZ  ARG B 363      39.413 -11.309 -12.813  1.00 54.64 LIG 0.67  C 
ATOM     14  NH2 ARG B 363      38.367 -11.827 -13.444  1.00 53.91 LIG-0.23  N 
ATOM     15  NH1 ARG B 363      40.544 -11.999 -12.737  1.00 54.84 LIG-0.23  N 
ATOM     16 1HH2 ARG B 363      37.632 -11.384 -13.494  1.00 53.91 LIG 0.17  HD
ATOM     17 2HH2 ARG B 363      38.425 -12.607 -13.803  1.00 53.91 LIG 0.17  HD
ATOM     18 1HH1 ARG B 363      41.224 -11.668 -12.328  1.00 54.84 LIG 0.17  HD
ATOM     19 2HH1 ARG B 363      40.597 -12.778 -13.097  1.00 54.84 LIG 0.17  HD
ENDBRANCH 10 11
ENDBRANCH 9 10
ENDBRANCH 8 9
ENDBRANCH 7 8
BRANCH 7 20
ATOM     20  N   ARG B 363      39.825  -8.888  -8.428  1.00 43.94 LIG-0.35  N 
ATOM     21  C   ALA B 362      40.002  -9.073  -7.122  1.00 45.99 LIG 0.24  C 
ATOM     22 O    ALA B 362      39.074  -9.226  -6.325  1.00 46.10 LIG-0.27  OA
ATOM     23 H    ARG B 363      40.475  -8.771  -8.979  1.00 43.94 LIG 0.16  HD
BRANCH 21 24
ATOM     24  CA  ALA B 362      41.451  -9.071  -6.648  1.00 47.39 LIG 0.17  C 
ATOM     25  CB  ALA B 362      41.932 -10.501  -6.418  1.00 48.25 LIG 0.04  C 
BRANCH 24 26
ATOM     26  N   ALA B 362      41.576  -8.297  -5.420  1.00 48.90 LIG-0.35  N 
ATOM     27  C   GLY B 361      42.700  -7.666  -5.098  1.00 49.70 LIG 0.25  C 
ATOM     28 O    GLY B 361      43.713  -7.694  -5.802  1.00 50.52 LIG-0.27  OA
ATOM     29 H    ALA B 362      40.866  -8.288  -4.934  1.00 48.90 LIG 0.16  HD
BRANCH 27 30
ATOM     30  CA  GLY B 361      42.685  -6.898  -3.793  1.00 49.65 LIG 0.47  C 
ATOM     31  N   GLY B 361      41.954  -5.610  -3.919  1.00 49.05 LIG 0.61  N 
ENDBRANCH 27 30
ENDBRANCH 24 26
ENDBRANCH 21 24
ENDBRANCH 7 20
ENDBRANCH 5 7
ENDBRANCH 1 3
BRANCH 1 32
ATOM     32  C   ALA B 364      35.535 -12.143  -8.670  1.00 26.37 LIG 0.24  C 
ATOM     33  N   HIS B 365      34.269 -12.539  -8.567  1.00 23.61 LIG-0.35  N 
ATOM     34 H    HIS B 365      33.695 -12.490  -9.206  1.00 23.61 LIG 0.16  HD
ATOM     35 O    ALA B 364      36.338 -12.236  -7.743  1.00 24.80 LIG-0.27  OA
BRANCH 33 36
ATOM     36  CA  HIS B 365      33.745 -13.103  -7.325  1.00 22.03 LIG 0.18  C 
BRANCH 36 37
ATOM     37  C   HIS B 365      34.285 -14.506  -7.065  1.00 20.85 LIG 0.24  C 
ATOM     38 O    HIS B 365      34.661 -14.841  -5.944  1.00 18.88 LIG-0.27  OA
ATOM     39  N   SER B 366      34.327 -15.319  -8.117  1.00 20.61 LIG-0.34  N 
ATOM     40 H    SER B 366      34.065 -15.091  -8.904  1.00 20.61 LIG 0.16  HD
BRANCH 39 41
ATOM     41  CA  SER B 366      34.826 -16.686  -8.028  1.00 22.02 LIG 0.20  C 
BRANCH 41 42
ATOM     42  C   SER B 366      36.173 -16.805  -8.727  1.00 20.47 LIG 0.24  C 
ATOM     43 O    SER B 366      36.587 -17.902  -9.106  1.00 18.56 LIG-0.27  OA
ATOM     44  N   SER B 367      36.854 -15.675  -8.888  1.00 19.80 LIG-0.34  N 
ATOM     45 H    SER B 367      36.572 -14.903  -8.632  1.00 19.80 LIG 0.16  HD
BRANCH 44 46
ATOM     46  CA  SER B 367      38.166 -15.655  -9.529  1.00 20.54 LIG 0.21  C 
BRANCH 46 47
ATOM     47  CB  SER B 367      39.102 -16.683  -8.884  1.00 20.61 LIG 0.20  C 
BRANCH 47 48
ATOM     48 OG   SER B 367      39.923 -16.090  -7.894  1.00 20.78 LIG-0.40  OA
ATOM     49 HG   SER B 367      39.445 -15.818  -7.259  1.00 20.78 LIG 0.21  HD
ENDBRANCH 47 48
ENDBRANCH 46 47
BRANCH 46 50
ATOM     50  C   SER B 367      38.039 -15.948 -11.022  1.00 22.30 LIG 0.20  C 
ATOM     51 O    SER B 367      39.071 -15.881 -11.725  1.00 20.52 LIG-0.65  OA
ATOM     52 OXT  SER B 367      36.910 -16.259 -11.463  1.00 22.33 LIG-0.65  OA
ENDBRANCH 46 50
ENDBRANCH 44 46
ENDBRANCH 41 42
BRANCH 41 53
ATOM     53  CB  SER B 366      33.837 -17.653  -8.689  1.00 25.29 LIG 0.20  C 
BRANCH 53 54
ATOM     54 OG   SER B 366      32.576 -17.036  -8.889  1.00 34.76 LIG-0.40  OA
ATOM     55 HG   SER B 366      32.689 -16.244  -9.147  1.00 34.76 LIG 0.21  HD
ENDBRANCH 53 54
ENDBRANCH 41 53
ENDBRANCH 39 41
ENDBRANCH 36 37
BRANCH 36 56
ATOM     56  CB  HIS B 365      32.219 -13.166  -7.389  1.00 23.96 LIG 0.10  C 
BRANCH 56 57
ATOM     57  CG  HIS B 365      31.552 -12.649  -6.153  1.00 26.34 LIG 0.06  A 
ATOM     58 ND1  HIS B 365      32.208 -12.535  -4.946  1.00 28.92 LIG-0.24  NA
ATOM     59  CE1 HIS B 365      31.397 -11.994  -4.055  1.00 27.03 LIG 0.23  A 
ATOM     60 NE2  HIS B 365      30.237 -11.754  -4.641  1.00 28.88 LIG-0.25  NA
ATOM     61  CD2 HIS B 365      30.307 -12.157  -5.952  1.00 26.83 LIG 0.14  A 
ENDBRANCH 56 57
ENDBRANCH 36 56
ENDBRANCH 33 36
ENDBRANCH 1 32
TORSDOF 23
ENDMDL
MODEL 8
USER: ADFR SOLUTION from run 163
USER: SCORE 17.552270 LL:  -4.089 LR: -14.836 RR:   0.000 FEB:  -7.975
USER: RMSD 10.907496
USER: SEED 162
USER: STATUS no improvement in best in 2 clusters for 5 generations
USER: GENES 25
USER: genes 0 Translation |==|  0.69325 0.44039 0.38209
USER: genes 1 Rotation |==|  0.49255 0.18397 0.11400 0.53270
USER: genes 2 Torsion [CB]-CA--N-[C] |==|  0.22330
USER: genes 3 Torsion [N]-C--CA-[N] |==|  0.05681
USER: genes 4 Torsion [C]-CA--CB-[CG] |==|  0.25446
USER: genes 5 Torsion [CA]-CB--CG-[CD] |==|  0.10578
USER: genes 6 Torsion [CB]-CG--CD-[NE] |==|  0.20084
USER: genes 7 Torsion [CG]-CD--NE-[HE] |==|  0.71292
USER: genes 8 Torsion [C]-CA--N-[C] |==|  0.16474
USER: genes 9 Torsion [N]-C--CA-[N] |==|  0.38770
USER: genes 10 Torsion [C]-CA--N-[C] |==|  0.84720
USER: genes 11 Torsion [N]-C--CA-[N] |==|  0.58598
USER: genes 12 Torsion [N]-CA--C-[N] |==|  0.52974
USER: genes 13 Torsion [C]-N--CA-[C] |==|  0.81406
USER: genes 14 Torsion [N]-CA--C-[N] |==|  0.33333
USER: genes 15 Torsion [C]-N--CA-[C] |==|  0.56314
USER: genes 16 Torsion [N]-CA--C-[N] |==|  0.46928
USER: genes 17 Torsion [C]-N--CA-[CB] |==|  0.22957
USER: genes 18 Torsion [N]-CA--CB-[OG] |==|  0.51357
USER: genes 19 Torsion [CA]-CB--OG-[HG] |==|  0.07852
USER: genes 20 Torsion [N]-CA--C-[OXT] |==|  0.96793
USER: genes 21 Torsion [N]-CA--CB-[OG] |==|  0.09975
USER: genes 22 Torsion [CA]-CB--OG-[HG] |==|  0.16837
USER: genes 23 Torsion [N]-CA--CB-[CG] |==|  0.61958
USER: genes 24 Torsion [CA]-CB--CG-[CD2] |==|  0.67239
ROOT
ATOM      1  CA  ALA B 364      37.359 -15.877 -10.704  1.00 28.10 LIG 0.17  C 
ATOM      2  CB  ALA B 364      38.413 -16.257  -9.678  1.00 26.12 LIG 0.04  C 
ENDROOT
BRANCH 1 3
ATOM      3  N   ALA B 364      37.625 -14.539 -11.224  1.00 32.12 LIG-0.35  N 
ATOM      4 H    ALA B 364      37.151 -13.916 -10.869  1.00 32.12 LIG 0.16  HD
ATOM      5  C   ARG B 363      38.535 -14.337 -12.170  1.00 35.84 LIG 0.24  C 
ATOM      6 O    ARG B 363      39.209 -15.248 -12.647  1.00 34.68 LIG-0.27  OA
BRANCH 5 7
ATOM      7  CA  ARG B 363      38.711 -12.894 -12.657  1.00 40.75 LIG 0.18  C 
BRANCH 7 8
ATOM      8  CB  ARG B 363      40.188 -12.638 -12.988  1.00 43.30 LIG 0.04  C 
BRANCH 8 9
ATOM      9  CG  ARG B 363      40.540 -12.916 -14.444  1.00 48.42 LIG 0.02  C 
BRANCH 9 10
ATOM     10  CD  ARG B 363      39.443 -12.493 -15.411  1.00 50.65 LIG 0.14  C 
BRANCH 10 11
ATOM     11  NE  ARG B 363      39.373 -11.036 -15.521  1.00 53.91 LIG-0.23  N 
ATOM     12 HE   ARG B 363      38.736 -10.634 -15.107  1.00 53.91 LIG 0.18  HD
ATOM     13  CZ  ARG B 363      40.226 -10.288 -16.218  1.00 54.64 LIG 0.67  C 
ATOM     14  NH2 ARG B 363      40.076  -8.971 -16.260  1.00 53.91 LIG-0.23  N 
ATOM     15  NH1 ARG B 363      41.230 -10.857 -16.875  1.00 54.84 LIG-0.23  N 
ATOM     16 1HH2 ARG B 363      39.426  -8.599 -15.837  1.00 53.91 LIG 0.17  HD
ATOM     17 2HH2 ARG B 363      40.628  -8.489 -16.710  1.00 53.91 LIG 0.17  HD
ATOM     18 1HH1 ARG B 363      41.330 -11.710 -16.852  1.00 54.84 LIG 0.17  HD
ATOM     19 2HH1 ARG B 363      41.780 -10.371 -17.324  1.00 54.84 LIG 0.17  HD
ENDBRANCH 10 11
ENDBRANCH 9 10
ENDBRANCH 8 9
ENDBRANCH 7 8
BRANCH 7 20
ATOM     20  N   ARG B 363      38.221 -11.881 -11.727  1.00 43.94 LIG-0.35  N 
ATOM     21  C   ALA B 362      38.681 -11.749 -10.486  1.00 45.99 LIG 0.24  C 
ATOM     22 O    ALA B 362      39.549 -12.478 -10.001  1.00 46.10 LIG-0.27  OA
ATOM     23 H    ARG B 363      37.608 -11.376 -12.058  1.00 43.94 LIG 0.16  HD
BRANCH 21 24
ATOM     24  CA  ALA B 362      38.051 -10.627  -9.667  1.00 47.39 LIG 0.17  C 
ATOM     25  CB  ALA B 362      38.953  -9.397  -9.677  1.00 48.25 LIG 0.04  C 
BRANCH 24 26
ATOM     26  N   ALA B 362      37.826 -11.072  -8.298  1.00 48.90 LIG-0.35  N 
ATOM     27  C   GLY B 361      37.123 -12.165  -8.021  1.00 49.70 LIG 0.25  C 
ATOM     28 O    GLY B 361      36.609 -12.874  -8.890  1.00 50.52 LIG-0.27  OA
ATOM     29 H    ALA B 362      38.184 -10.569  -7.699  1.00 48.90 LIG 0.16  HD
BRANCH 27 30
ATOM     30  CA  GLY B 361      36.973 -12.508  -6.553  1.00 49.65 LIG 0.47  C 
ATOM     31  N   GLY B 361      36.871 -13.974  -6.336  1.00 49.05 LIG 0.61  N 
ENDBRANCH 27 30
ENDBRANCH 24 26
ENDBRANCH 21 24
ENDBRANCH 7 20
ENDBRANCH 5 7
ENDBRANCH 1 3
BRANCH 1 32
ATOM     32  C   ALA B 364      35.967 -15.863 -10.068  1.00 26.37 LIG 0.24  C 
ATOM     33  N   HIS B 365      35.624 -16.925  -9.343  1.00 23.61 LIG-0.35  N 
ATOM     34 H    HIS B 365      36.139 -17.601  -9.206  1.00 23.61 LIG 0.16  HD
ATOM     35 O    ALA B 364      35.215 -14.905 -10.238  1.00 24.80 LIG-0.27  OA
BRANCH 33 36
ATOM     36  CA  HIS B 365      34.311 -17.025  -8.710  1.00 22.03 LIG 0.18  C 
BRANCH 36 37
ATOM     37  C   HIS B 365      34.134 -15.991  -7.602  1.00 20.85 LIG 0.24  C 
ATOM     38 O    HIS B 365      34.878 -15.977  -6.625  1.00 18.88 LIG-0.27  OA
ATOM     39  N   SER B 366      33.132 -15.132  -7.763  1.00 20.61 LIG-0.34  N 
ATOM     40 H    SER B 366      32.607 -15.135  -8.445  1.00 20.61 LIG 0.16  HD
BRANCH 39 41
ATOM     41  CA  SER B 366      32.830 -14.092  -6.786  1.00 22.02 LIG 0.20  C 
BRANCH 41 42
ATOM     42  C   SER B 366      31.380 -13.647  -6.915  1.00 20.47 LIG 0.24  C 
ATOM     43 O    SER B 366      30.701 -13.996  -7.882  1.00 18.56 LIG-0.27  OA
ATOM     44  N   SER B 367      30.913 -12.873  -5.940  1.00 19.80 LIG-0.34  N 
ATOM     45 H    SER B 367      31.377 -12.628  -5.258  1.00 19.80 LIG 0.16  HD
BRANCH 44 46
ATOM     46  CA  SER B 367      29.544 -12.366  -5.952  1.00 20.54 LIG 0.21  C 
BRANCH 46 47
ATOM     47  CB  SER B 367      28.570 -13.417  -5.407  1.00 20.61 LIG 0.20  C 
BRANCH 47 48
ATOM     48 OG   SER B 367      27.225 -12.986  -5.514  1.00 20.78 LIG-0.40  OA
ATOM     49 HG   SER B 367      27.151 -12.458  -6.163  1.00 20.78 LIG 0.21  HD
ENDBRANCH 47 48
ENDBRANCH 46 47
BRANCH 46 50
ATOM     50  C   SER B 367      29.436 -11.092  -5.119  1.00 22.30 LIG 0.20  C 
ATOM     51 O    SER B 367      28.379 -10.426  -5.195  1.00 20.52 LIG-0.65  OA
ATOM     52 OXT  SER B 367      30.405 -10.786  -4.389  1.00 22.33 LIG-0.65  OA
ENDBRANCH 46 50
ENDBRANCH 44 46
ENDBRANCH 41 42
BRANCH 41 53
ATOM     53  CB  SER B 366      33.742 -12.880  -7.005  1.00 25.29 LIG 0.20  C 
BRANCH 53 54
ATOM     54 OG   SER B 366      33.993 -12.673  -8.386  1.00 34.76 LIG-0.40  OA
ATOM     55 HG   SER B 366      33.267 -12.531  -8.784  1.00 34.76 LIG 0.21  HD
ENDBRANCH 53 54
ENDBRANCH 41 53
ENDBRANCH 39 41
ENDBRANCH 36 37
BRANCH 36 56
ATOM     56  CB  HIS B 365      34.129 -18.421  -8.116  1.00 23.96 LIG 0.10  C 
BRANCH 56 57
ATOM     57  CG  HIS B 365      32.773 -19.003  -8.374  1.00 26.34 LIG 0.06  A 
ATOM     58 ND1  HIS B 365      32.332 -19.326  -9.639  1.00 28.92 LIG-0.24  NA
ATOM     59  CE1 HIS B 365      31.134 -19.877  -9.558  1.00 27.03 LIG 0.23  A 
ATOM     60 NE2  HIS B 365      30.782 -19.921  -8.285  1.00 28.88 LIG-0.25  NA
ATOM     61  CD2 HIS B 365      31.789 -19.379  -7.524  1.00 26.83 LIG 0.14  A 
ENDBRANCH 56 57
ENDBRANCH 36 56
ENDBRANCH 33 36
ENDBRANCH 1 32
TORSDOF 23
ENDMDL
MODEL 9
USER: ADFR SOLUTION from run 6
USER: SCORE 16.579006 LL:  -3.992 LR: -14.835 RR:   0.000 FEB:  -7.974
USER: RMSD 10.043121
USER: SEED 601835
USER: STATUS no improvement in best in 10 clusters for 5 generations
USER: GENES 25
USER: genes 0 Translation |==|  0.61575 0.63774 0.49470
USER: genes 1 Rotation |==|  0.74293 0.29203 0.88323 0.52945
USER: genes 2 Torsion [CB]-CA--N-[C] |==|  0.19268
USER: genes 3 Torsion [N]-C--CA-[N] |==|  0.52568
USER: genes 4 Torsion [C]-CA--CB-[CG] |==|  0.50015
USER: genes 5 Torsion [CA]-CB--CG-[CD] |==|  0.40196
USER: genes 6 Torsion [CB]-CG--CD-[NE] |==|  0.99320
USER: genes 7 Torsion [CG]-CD--NE-[HE] |==|  0.20123
USER: genes 8 Torsion [C]-CA--N-[C] |==|  0.17873
USER: genes 9 Torsion [N]-C--CA-[N] |==|  0.28954
USER: genes 10 Torsion [C]-CA--N-[C] |==|  0.81898
USER: genes 11 Torsion [N]-C--CA-[N] |==|  0.43555
USER: genes 12 Torsion [N]-CA--C-[N] |==|  0.53701
USER: genes 13 Torsion [C]-N--CA-[C] |==|  0.81887
USER: genes 14 Torsion [N]-CA--C-[N] |==|  0.89621
USER: genes 15 Torsion [C]-N--CA-[C] |==|  0.67247
USER: genes 16 Torsion [N]-CA--C-[N] |==|  0.01865
USER: genes 17 Torsion [C]-N--CA-[CB] |==|  0.86510
USER: genes 18 Torsion [N]-CA--CB-[OG] |==|  0.80739
USER: genes 19 Torsion [CA]-CB--OG-[HG] |==|  0.66333
USER: genes 20 Torsion [N]-CA--C-[OXT] |==|  0.03936
USER: genes 21 Torsion [N]-CA--CB-[OG] |==|  0.48003
USER: genes 22 Torsion [CA]-CB--OG-[HG] |==|  0.78855
USER: genes 23 Torsion [N]-CA--CB-[CG] |==|  0.71432
USER: genes 24 Torsion [CA]-CB--CG-[CD2] |==|  0.53209
ROOT
ATOM      1  CA  ALA B 364      35.441 -12.176  -8.254  1.00 28.10 LIG 0.17  C 
ATOM      2  CB  ALA B 364      35.161 -12.508  -9.710  1.00 26.12 LIG 0.04  C 
ENDROOT
BRANCH 1 3
ATOM      3  N   ALA B 364      36.853 -12.393  -7.954  1.00 32.12 LIG-0.35  N 
ATOM      4 H    ALA B 364      37.010 -13.060  -7.434  1.00 32.12 LIG 0.16  HD
ATOM      5  C   ARG B 363      37.794 -11.605  -8.461  1.00 35.84 LIG 0.24  C 
ATOM      6 O    ARG B 363      37.538 -10.668  -9.215  1.00 34.68 LIG-0.27  OA
BRANCH 5 7
ATOM      7  CA  ARG B 363      39.240 -11.913  -8.056  1.00 40.75 LIG 0.18  C 
BRANCH 7 8
ATOM      8  CB  ARG B 363      39.314 -12.136  -6.539  1.00 43.30 LIG 0.04  C 
BRANCH 8 9
ATOM      9  CG  ARG B 363      40.719 -12.449  -6.040  1.00 48.42 LIG 0.02  C 
BRANCH 9 10
ATOM     10  CD  ARG B 363      41.006 -11.859  -4.665  1.00 50.65 LIG 0.14  C 
BRANCH 10 11
ATOM     11  NE  ARG B 363      39.867 -11.079  -4.180  1.00 53.91 LIG-0.23  N 
ATOM     12 HE   ARG B 363      39.167 -11.509  -3.927  1.00 53.91 LIG 0.18  HD
ATOM     13  CZ  ARG B 363      39.840  -9.751  -4.101  1.00 54.64 LIG 0.67  C 
ATOM     14  NH2 ARG B 363      38.755  -9.134  -3.649  1.00 53.91 LIG-0.23  N 
ATOM     15  NH1 ARG B 363      40.894  -9.037  -4.475  1.00 54.84 LIG-0.23  N 
ATOM     16 1HH2 ARG B 363      38.069  -9.592  -3.407  1.00 53.91 LIG 0.17  HD
ATOM     17 2HH2 ARG B 363      38.738  -8.275  -3.598  1.00 53.91 LIG 0.17  HD
ATOM     18 1HH1 ARG B 363      41.598  -9.433  -4.770  1.00 54.84 LIG 0.17  HD
ATOM     19 2HH1 ARG B 363      40.873  -8.179  -4.423  1.00 54.84 LIG 0.17  HD
ENDBRANCH 10 11
ENDBRANCH 9 10
ENDBRANCH 8 9
ENDBRANCH 7 8
BRANCH 7 20
ATOM     20  N   ARG B 363      40.208 -10.900  -8.463  1.00 43.94 LIG-0.35  N 
ATOM     21  C   ALA B 362      40.196  -9.653  -7.998  1.00 45.99 LIG 0.24  C 
ATOM     22 O    ALA B 362      39.360  -9.234  -7.195  1.00 46.10 LIG-0.27  OA
ATOM     23 H    ARG B 363      40.788 -11.184  -9.031  1.00 43.94 LIG 0.16  HD
BRANCH 21 24
ATOM     24  CA  ALA B 362      41.294  -8.740  -8.534  1.00 47.39 LIG 0.17  C 
ATOM     25  CB  ALA B 362      41.935  -7.958  -7.392  1.00 48.25 LIG 0.04  C 
BRANCH 24 26
ATOM     26  N   ALA B 362      40.743  -7.822  -9.522  1.00 48.90 LIG-0.35  N 
ATOM     27  C   GLY B 361      40.250  -8.248 -10.680  1.00 49.70 LIG 0.25  C 
ATOM     28 O    GLY B 361      40.228  -9.439 -11.005  1.00 50.52 LIG-0.27  OA
ATOM     29 H    ALA B 362      40.767  -6.994  -9.289  1.00 48.90 LIG 0.16  HD
BRANCH 27 30
ATOM     30  CA  GLY B 361      39.709  -7.181 -11.609  1.00 49.65 LIG 0.47  C 
ATOM     31  N   GLY B 361      39.701  -7.634 -13.024  1.00 49.05 LIG 0.61  N 
ENDBRANCH 27 30
ENDBRANCH 24 26
ENDBRANCH 21 24
ENDBRANCH 7 20
ENDBRANCH 5 7
ENDBRANCH 1 3
BRANCH 1 32
ATOM     32  C   ALA B 364      34.621 -13.077  -7.328  1.00 26.37 LIG 0.24  C 
ATOM     33  N   HIS B 365      33.333 -13.233  -7.622  1.00 23.61 LIG-0.35  N 
ATOM     34 H    HIS B 365      32.947 -12.872  -8.300  1.00 23.61 LIG 0.16  HD
ATOM     35 O    ALA B 364      35.150 -13.616  -6.356  1.00 24.80 LIG-0.27  OA
BRANCH 33 36
ATOM     36  CA  HIS B 365      32.455 -14.053  -6.791  1.00 22.03 LIG 0.18  C 
BRANCH 36 37
ATOM     37  C   HIS B 365      32.856 -15.526  -6.819  1.00 20.85 LIG 0.24  C 
ATOM     38 O    HIS B 365      32.783 -16.220  -5.809  1.00 18.88 LIG-0.27  OA
ATOM     39  N   SER B 366      33.288 -15.989  -7.989  1.00 20.61 LIG-0.34  N 
ATOM     40 H    SER B 366      33.341 -15.508  -8.700  1.00 20.61 LIG 0.16  HD
BRANCH 39 41
ATOM     41  CA  SER B 366      33.716 -17.371  -8.170  1.00 22.02 LIG 0.20  C 
BRANCH 41 42
ATOM     42  C   SER B 366      35.184 -17.424  -8.572  1.00 20.47 LIG 0.24  C 
ATOM     43 O    SER B 366      35.708 -18.493  -8.889  1.00 18.56 LIG-0.27  OA
ATOM     44  N   SER B 367      35.841 -16.268  -8.551  1.00 19.80 LIG-0.34  N 
ATOM     45 H    SER B 367      35.483 -15.516  -8.336  1.00 19.80 LIG 0.16  HD
BRANCH 44 46
ATOM     46  CA  SER B 367      37.257 -16.185  -8.900  1.00 20.54 LIG 0.21  C 
BRANCH 46 47
ATOM     47  CB  SER B 367      38.063 -17.258  -8.158  1.00 20.61 LIG 0.20  C 
BRANCH 47 48
ATOM     48 OG   SER B 367      38.132 -16.990  -6.769  1.00 20.78 LIG-0.40  OA
ATOM     49 HG   SER B 367      38.936 -16.918  -6.537  1.00 20.78 LIG 0.21  HD
ENDBRANCH 47 48
ENDBRANCH 46 47
BRANCH 46 50
ATOM     50  C   SER B 367      37.450 -16.353 -10.404  1.00 22.30 LIG 0.20  C 
ATOM     51 O    SER B 367      38.602 -16.593 -10.827  1.00 20.52 LIG-0.65  OA
ATOM     52 OXT  SER B 367      36.440 -16.259 -11.138  1.00 22.33 LIG-0.65  OA
ENDBRANCH 46 50
ENDBRANCH 44 46
ENDBRANCH 41 42
BRANCH 41 53
ATOM     53  CB  SER B 366      32.878 -18.044  -9.264  1.00 25.29 LIG 0.20  C 
BRANCH 53 54
ATOM     54 OG   SER B 366      33.383 -19.333  -9.572  1.00 34.76 LIG-0.40  OA
ATOM     55 HG   SER B 366      34.076 -19.257 -10.042  1.00 34.76 LIG 0.21  HD
ENDBRANCH 53 54
ENDBRANCH 41 53
ENDBRANCH 39 41
ENDBRANCH 36 37
BRANCH 36 56
ATOM     56  CB  HIS B 365      31.013 -13.926  -7.281  1.00 23.96 LIG 0.10  C 
BRANCH 56 57
ATOM     57  CG  HIS B 365      30.172 -13.030  -6.426  1.00 26.34 LIG 0.06  A 
ATOM     58 ND1  HIS B 365      30.715 -12.158  -5.506  1.00 28.92 LIG-0.24  NA
ATOM     59  CE1 HIS B 365      29.747 -11.453  -4.947  1.00 27.03 LIG 0.23  A 
ATOM     60 NE2  HIS B 365      28.597 -11.837  -5.470  1.00 28.88 LIG-0.25  NA
ATOM     61  CD2 HIS B 365      28.835 -12.824  -6.397  1.00 26.83 LIG 0.14  A 
ENDBRANCH 56 57
ENDBRANCH 36 56
ENDBRANCH 33 36
ENDBRANCH 1 32
TORSDOF 23
ENDMDL
MODEL 10
USER: ADFR SOLUTION from run 96
USER: SCORE 17.252752 LL:  -3.174 LR: -14.802 RR:   0.000 FEB:  -7.941
USER: RMSD 10.073865
USER: SEED 95
USER: STATUS searching
USER: GENES 25
USER: genes 0 Translation |==|  0.60715 0.64297 0.47282
USER: genes 1 Rotation |==|  0.24342 0.59018 0.08137 0.52803
USER: genes 2 Torsion [CB]-CA--N-[C] |==|  0.85556
USER: genes 3 Torsion [N]-C--CA-[N] |==|  0.90093
USER: genes 4 Torsion [C]-CA--CB-[CG] |==|  0.53979
USER: genes 5 Torsion [CA]-CB--CG-[CD] |==|  0.47337
USER: genes 6 Torsion [CB]-CG--CD-[NE] |==|  0.72454
USER: genes 7 Torsion [CG]-CD--NE-[HE] |==|  0.81722
USER: genes 8 Torsion [C]-CA--N-[C] |==|  0.83264
USER: genes 9 Torsion [N]-C--CA-[N] |==|  0.48622
USER: genes 10 Torsion [C]-CA--N-[C] |==|  0.54899
USER: genes 11 Torsion [N]-C--CA-[N] |==|  0.57959
USER: genes 12 Torsion [N]-CA--C-[N] |==|  0.44756
USER: genes 13 Torsion [C]-N--CA-[C] |==|  0.81874
USER: genes 14 Torsion [N]-CA--C-[N] |==|  0.90100
USER: genes 15 Torsion [C]-N--CA-[C] |==|  0.64106
USER: genes 16 Torsion [N]-CA--C-[N] |==|  0.34451
USER: genes 17 Torsion [C]-N--CA-[CB] |==|  0.16047
USER: genes 18 Torsion [N]-CA--CB-[OG] |==|  0.62635
USER: genes 19 Torsion [CA]-CB--OG-[HG] |==|  0.80946
USER: genes 20 Torsion [N]-CA--C-[OXT] |==|  0.96570
USER: genes 21 Torsion [N]-CA--CB-[OG] |==|  0.36032
USER: genes 22 Torsion [CA]-CB--OG-[HG] |==|  0.13339
USER: genes 23 Torsion [N]-CA--CB-[CG] |==|  0.76992
USER: genes 24 Torsion [CA]-CB--CG-[CD2] |==|  0.87426
ROOT
ATOM      1  CA  ALA B 364      35.228 -12.078  -8.730  1.00 28.10 LIG 0.17  C 
ATOM      2  CB  ALA B 364      35.340 -12.882 -10.014  1.00 26.12 LIG 0.04  C 
ENDROOT
BRANCH 1 3
ATOM      3  N   ALA B 364      36.540 -11.569  -8.342  1.00 32.12 LIG-0.35  N 
ATOM      4 H    ALA B 364      36.565 -10.724  -8.189  1.00 32.12 LIG 0.16  HD
ATOM      5  C   ARG B 363      37.590 -12.377  -8.242  1.00 35.84 LIG 0.24  C 
ATOM      6 O    ARG B 363      37.518 -13.586  -8.452  1.00 34.68 LIG-0.27  OA
BRANCH 5 7
ATOM      7  CA  ARG B 363      38.922 -11.727  -7.852  1.00 40.75 LIG 0.18  C 
BRANCH 7 8
ATOM      8  CB  ARG B 363      39.052 -11.697  -6.322  1.00 43.30 LIG 0.04  C 
BRANCH 8 9
ATOM      9  CG  ARG B 363      40.159 -10.774  -5.826  1.00 48.42 LIG 0.02  C 
BRANCH 9 10
ATOM     10  CD  ARG B 363      40.131 -10.571  -4.317  1.00 50.65 LIG 0.14  C 
BRANCH 10 11
ATOM     11  NE  ARG B 363      39.480  -9.308  -3.969  1.00 53.91 LIG-0.23  N 
ATOM     12 HE   ARG B 363      39.867  -8.579  -4.209  1.00 53.91 LIG 0.18  HD
ATOM     13  CZ  ARG B 363      38.330  -9.208  -3.307  1.00 54.64 LIG 0.67  C 
ATOM     14  NH2 ARG B 363      37.820  -8.013  -3.034  1.00 53.91 LIG-0.23  N 
ATOM     15  NH1 ARG B 363      37.687 -10.301  -2.914  1.00 54.84 LIG-0.23  N 
ATOM     16 1HH2 ARG B 363      38.234  -7.302  -3.285  1.00 53.91 LIG 0.17  HD
ATOM     17 2HH2 ARG B 363      37.077  -7.950  -2.607  1.00 53.91 LIG 0.17  HD
ATOM     18 1HH1 ARG B 363      38.014 -11.077  -3.087  1.00 54.84 LIG 0.17  HD
ATOM     19 2HH1 ARG B 363      36.944 -10.233  -2.486  1.00 54.84 LIG 0.17  HD
ENDBRANCH 10 11
ENDBRANCH 9 10
ENDBRANCH 8 9
ENDBRANCH 7 8
BRANCH 7 20
ATOM     20  N   ARG B 363      39.123 -10.389  -8.400  1.00 43.94 LIG-0.35  N 
ATOM     21  C   ALA B 362      39.147 -10.134  -9.706  1.00 45.99 LIG 0.24  C 
ATOM     22 O    ALA B 362      39.018 -11.002 -10.571  1.00 46.10 LIG-0.27  OA
ATOM     23 H    ARG B 363      39.224  -9.781  -7.800  1.00 43.94 LIG 0.16  HD
BRANCH 21 24
ATOM     24  CA  ALA B 362      39.361  -8.673 -10.086  1.00 47.39 LIG 0.17  C 
ATOM     25  CB  ALA B 362      38.201  -7.821  -9.582  1.00 48.25 LIG 0.04  C 
BRANCH 24 26
ATOM     26  N   ALA B 362      39.485  -8.545 -11.533  1.00 48.90 LIG-0.35  N 
ATOM     27  C   GLY B 361      40.009  -7.465 -12.100  1.00 49.70 LIG 0.25  C 
ATOM     28 O    GLY B 361      40.420  -6.497 -11.454  1.00 50.52 LIG-0.27  OA
ATOM     29 H    ALA B 362      39.191  -9.223 -11.974  1.00 48.90 LIG 0.16  HD
BRANCH 27 30
ATOM     30  CA  GLY B 361      40.077  -7.471 -13.614  1.00 49.65 LIG 0.47  C 
ATOM     31  N   GLY B 361      41.207  -6.651 -14.119  1.00 49.05 LIG 0.61  N 
ENDBRANCH 27 30
ENDBRANCH 24 26
ENDBRANCH 21 24
ENDBRANCH 7 20
ENDBRANCH 5 7
ENDBRANCH 1 3
BRANCH 1 32
ATOM     32  C   ALA B 364      34.709 -12.954  -7.588  1.00 26.37 LIG 0.24  C 
ATOM     33  N   HIS B 365      33.401 -13.197  -7.560  1.00 23.61 LIG-0.35  N 
ATOM     34 H    HIS B 365      32.844 -12.904  -8.147  1.00 23.61 LIG 0.16  HD
ATOM     35 O    ALA B 364      35.484 -13.397  -6.742  1.00 24.80 LIG-0.27  OA
BRANCH 33 36
ATOM     36  CA  HIS B 365      32.797 -14.003  -6.502  1.00 22.03 LIG 0.18  C 
BRANCH 36 37
ATOM     37  C   HIS B 365      33.278 -15.451  -6.544  1.00 20.85 LIG 0.24  C 
ATOM     38 O    HIS B 365      33.459 -16.087  -5.509  1.00 18.88 LIG-0.27  OA
ATOM     39  N   SER B 366      33.489 -15.959  -7.754  1.00 20.61 LIG-0.34  N 
ATOM     40 H    SER B 366      33.363 -15.520  -8.483  1.00 20.61 LIG 0.16  HD
BRANCH 39 41
ATOM     41  CA  SER B 366      33.957 -17.325  -7.957  1.00 22.02 LIG 0.20  C 
BRANCH 41 42
ATOM     42  C   SER B 366      35.160 -17.340  -8.889  1.00 20.47 LIG 0.24  C 
ATOM     43 O    SER B 366      35.088 -16.842 -10.014  1.00 18.56 LIG-0.27  OA
ATOM     44  N   SER B 367      36.262 -17.919  -8.419  1.00 19.80 LIG-0.34  N 
ATOM     45 H    SER B 367      36.325 -18.265  -7.634  1.00 19.80 LIG 0.16  HD
BRANCH 44 46
ATOM     46  CA  SER B 367      37.480 -18.013  -9.219  1.00 20.54 LIG 0.21  C 
BRANCH 46 47
ATOM     47  CB  SER B 367      37.955 -16.621  -9.653  1.00 20.61 LIG 0.20  C 
BRANCH 47 48
ATOM     48 OG   SER B 367      38.313 -16.597 -11.023  1.00 20.78 LIG-0.40  OA
ATOM     49 HG   SER B 367      39.009 -17.053 -11.139  1.00 20.78 LIG 0.21  HD
ENDBRANCH 47 48
ENDBRANCH 46 47
BRANCH 46 50
ATOM     50  C   SER B 367      38.587 -18.706  -8.431  1.00 22.30 LIG 0.20  C 
ATOM     51 O    SER B 367      39.618 -19.057  -9.047  1.00 20.52 LIG-0.65  OA
ATOM     52 OXT  SER B 367      38.416 -18.872  -7.203  1.00 22.33 LIG-0.65  OA
ENDBRANCH 46 50
ENDBRANCH 44 46
ENDBRANCH 41 42
BRANCH 41 53
ATOM     53  CB  SER B 366      32.843 -18.181  -8.570  1.00 25.29 LIG 0.20  C 
BRANCH 53 54
ATOM     54 OG   SER B 366      33.311 -18.887  -9.708  1.00 34.76 LIG-0.40  OA
ATOM     55 HG   SER B 366      34.040 -19.262  -9.525  1.00 34.76 LIG 0.21  HD
ENDBRANCH 53 54
ENDBRANCH 41 53
ENDBRANCH 39 41
ENDBRANCH 36 37
BRANCH 36 56
ATOM     56  CB  HIS B 365      31.275 -13.984  -6.641  1.00 23.96 LIG 0.10  C 
BRANCH 56 57
ATOM     57  CG  HIS B 365      30.638 -12.775  -6.031  1.00 26.34 LIG 0.06  A 
ATOM     58 ND1  HIS B 365      29.606 -12.092  -6.638  1.00 28.92 LIG-0.24  NA
ATOM     59  CE1 HIS B 365      29.201 -11.115  -5.847  1.00 27.03 LIG 0.23  A 
ATOM     60 NE2  HIS B 365      29.935 -11.139  -4.748  1.00 28.88 LIG-0.25  NA
ATOM     61  CD2 HIS B 365      30.843 -12.166  -4.839  1.00 26.83 LIG 0.14  A 
ENDBRANCH 56 57
ENDBRANCH 36 56
ENDBRANCH 33 36
ENDBRANCH 1 32
TORSDOF 23
ENDMDL
MODEL 11
USER: ADFR SOLUTION from run 197
USER: SCORE 16.812344 LL:  -3.286 LR: -14.664 RR:   0.000 FEB:  -7.803
USER: RMSD 10.168285
USER: SEED 196
USER: STATUS no improvement in best in 16 clusters for 5 generations
USER: GENES 25
USER: genes 0 Translation |==|  0.60519 0.62322 0.47181
USER: genes 1 Rotation |==|  0.69487 0.49967 0.95960 0.52816
USER: genes 2 Torsion [CB]-CA--N-[C] |==|  0.86558
USER: genes 3 Torsion [N]-C--CA-[N] |==|  0.96601
USER: genes 4 Torsion [C]-CA--CB-[CG] |==|  0.36969
USER: genes 5 Torsion [CA]-CB--CG-[CD] |==|  0.46299
USER: genes 6 Torsion [CB]-CG--CD-[NE] |==|  0.93995
USER: genes 7 Torsion [CG]-CD--NE-[HE] |==|  0.23404
USER: genes 8 Torsion [C]-CA--N-[C] |==|  0.80507
USER: genes 9 Torsion [N]-C--CA-[N] |==|  0.51950
USER: genes 10 Torsion [C]-CA--N-[C] |==|  0.60577
USER: genes 11 Torsion [N]-C--CA-[N] |==|  0.84681
USER: genes 12 Torsion [N]-CA--C-[N] |==|  0.43582
USER: genes 13 Torsion [C]-N--CA-[C] |==|  0.79311
USER: genes 14 Torsion [N]-CA--C-[N] |==|  0.21858
USER: genes 15 Torsion [C]-N--CA-[C] |==|  0.14937
USER: genes 16 Torsion [N]-CA--C-[N] |==|  0.12919
USER: genes 17 Torsion [C]-N--CA-[CB] |==|  0.17700
USER: genes 18 Torsion [N]-CA--CB-[OG] |==|  0.52452
USER: genes 19 Torsion [CA]-CB--OG-[HG] |==|  0.95382
USER: genes 20 Torsion [N]-CA--C-[OXT] |==|  0.76577
USER: genes 21 Torsion [N]-CA--CB-[OG] |==|  0.93256
USER: genes 22 Torsion [CA]-CB--OG-[HG] |==|  0.86704
USER: genes 23 Torsion [N]-CA--CB-[CG] |==|  0.61102
USER: genes 24 Torsion [CA]-CB--CG-[CD2] |==|  0.56126
ROOT
ATOM      1  CA  ALA B 364      35.180 -12.449  -8.752  1.00 28.10 LIG 0.17  C 
ATOM      2  CB  ALA B 364      35.515 -13.722  -9.509  1.00 26.12 LIG 0.04  C 
ENDROOT
BRANCH 1 3
ATOM      3  N   ALA B 364      36.403 -11.819  -8.264  1.00 32.12 LIG-0.35  N 
ATOM      4 H    ALA B 364      36.463 -10.977  -8.429  1.00 32.12 LIG 0.16  HD
ATOM      5  C   ARG B 363      37.329 -12.521  -7.620  1.00 35.84 LIG 0.24  C 
ATOM      6 O    ARG B 363      37.206 -13.721  -7.386  1.00 34.68 LIG-0.27  OA
BRANCH 5 7
ATOM      7  CA  ARG B 363      38.583 -11.760  -7.176  1.00 40.75 LIG 0.18  C 
BRANCH 7 8
ATOM      8  CB  ARG B 363      38.615 -11.667  -5.644  1.00 43.30 LIG 0.04  C 
BRANCH 8 9
ATOM      9  CG  ARG B 363      39.968 -12.026  -5.043  1.00 48.42 LIG 0.02  C 
BRANCH 9 10
ATOM     10  CD  ARG B 363      40.092 -11.628  -3.579  1.00 50.65 LIG 0.14  C 
BRANCH 10 11
ATOM     11  NE  ARG B 363      39.134 -10.576  -3.237  1.00 53.91 LIG-0.23  N 
ATOM     12 HE   ARG B 363      38.335 -10.816  -3.029  1.00 53.91 LIG 0.18  HD
ATOM     13  CZ  ARG B 363      39.413  -9.275  -3.225  1.00 54.64 LIG 0.67  C 
ATOM     14  NH2 ARG B 363      38.472  -8.396  -2.904  1.00 53.91 LIG-0.23  N 
ATOM     15  NH1 ARG B 363      40.631  -8.849  -3.536  1.00 54.84 LIG-0.23  N 
ATOM     16 1HH2 ARG B 363      37.681  -8.667  -2.704  1.00 53.91 LIG 0.17  HD
ATOM     17 2HH2 ARG B 363      38.653  -7.555  -2.897  1.00 53.91 LIG 0.17  HD
ATOM     18 1HH1 ARG B 363      41.243  -9.415  -3.747  1.00 54.84 LIG 0.17  HD
ATOM     19 2HH1 ARG B 363      40.808  -8.008  -3.528  1.00 54.84 LIG 0.17  HD
ENDBRANCH 10 11
ENDBRANCH 9 10
ENDBRANCH 8 9
ENDBRANCH 7 8
BRANCH 7 20
ATOM     20  N   ARG B 363      38.719 -10.430  -7.763  1.00 43.94 LIG-0.35  N 
ATOM     21  C   ALA B 362      38.998 -10.227  -9.048  1.00 45.99 LIG 0.24  C 
ATOM     22 O    ALA B 362      39.181 -11.139  -9.857  1.00 46.10 LIG-0.27  OA
ATOM     23 H    ARG B 363      38.603  -9.790  -7.200  1.00 43.94 LIG 0.16  HD
BRANCH 21 24
ATOM     24  CA  ALA B 362      39.094  -8.767  -9.478  1.00 47.39 LIG 0.17  C 
ATOM     25  CB  ALA B 362      37.855  -8.001  -9.025  1.00 48.25 LIG 0.04  C 
BRANCH 24 26
ATOM     26  N   ALA B 362      39.235  -8.679 -10.925  1.00 48.90 LIG-0.35  N 
ATOM     27  C   GLY B 361      40.023  -7.778 -11.501  1.00 49.70 LIG 0.25  C 
ATOM     28 O    GLY B 361      40.681  -6.952 -10.861  1.00 50.52 LIG-0.27  OA
ATOM     29 H    ALA B 362      38.770  -9.256 -11.362  1.00 48.90 LIG 0.16  HD
BRANCH 27 30
ATOM     30  CA  GLY B 361      40.075  -7.804 -13.014  1.00 49.65 LIG 0.47  C 
ATOM     31  N   GLY B 361      40.451  -9.146 -13.530  1.00 49.05 LIG 0.61  N 
ENDBRANCH 27 30
ENDBRANCH 24 26
ENDBRANCH 21 24
ENDBRANCH 7 20
ENDBRANCH 5 7
ENDBRANCH 1 3
BRANCH 1 32
ATOM     32  C   ALA B 364      34.296 -12.757  -7.542  1.00 26.37 LIG 0.24  C 
ATOM     33  N   HIS B 365      32.990 -12.884  -7.764  1.00 23.61 LIG-0.35  N 
ATOM     34 H    HIS B 365      32.625 -12.815  -8.539  1.00 23.61 LIG 0.16  HD
ATOM     35 O    ALA B 364      34.793 -12.872  -6.422  1.00 24.80 LIG-0.27  OA
BRANCH 33 36
ATOM     36  CA  HIS B 365      32.054 -13.156  -6.675  1.00 22.03 LIG 0.18  C 
BRANCH 36 37
ATOM     37  C   HIS B 365      32.140 -14.603  -6.199  1.00 20.85 LIG 0.24  C 
ATOM     38 O    HIS B 365      31.303 -15.433  -6.544  1.00 18.88 LIG-0.27  OA
ATOM     39  N   SER B 366      33.160 -14.892  -5.396  1.00 20.61 LIG-0.34  N 
ATOM     40 H    SER B 366      33.750 -14.316  -5.151  1.00 20.61 LIG 0.16  HD
BRANCH 39 41
ATOM     41  CA  SER B 366      33.370 -16.228  -4.852  1.00 22.02 LIG 0.20  C 
BRANCH 41 42
ATOM     42  C   SER B 366      33.403 -17.259  -5.972  1.00 20.47 LIG 0.24  C 
ATOM     43 O    SER B 366      32.765 -18.309  -5.876  1.00 18.56 LIG-0.27  OA
ATOM     44  N   SER B 367      34.151 -16.955  -7.028  1.00 19.80 LIG-0.34  N 
ATOM     45 H    SER B 367      34.596 -16.223  -7.107  1.00 19.80 LIG 0.16  HD
BRANCH 44 46
ATOM     46  CA  SER B 367      34.280 -17.864  -8.164  1.00 20.54 LIG 0.21  C 
BRANCH 46 47
ATOM     47  CB  SER B 367      32.927 -18.061  -8.858  1.00 20.61 LIG 0.20  C 
BRANCH 47 48
ATOM     48 OG   SER B 367      32.986 -19.088  -9.832  1.00 20.78 LIG-0.40  OA
ATOM     49 HG   SER B 367      33.789 -19.252 -10.018  1.00 20.78 LIG 0.21  HD
ENDBRANCH 47 48
ENDBRANCH 46 47
BRANCH 46 50
ATOM     50  C   SER B 367      35.294 -17.327  -9.169  1.00 22.30 LIG 0.20  C 
ATOM     51 O    SER B 367      36.467 -17.759  -9.110  1.00 20.52 LIG-0.65  OA
ATOM     52 OXT  SER B 367      34.897 -16.494 -10.014  1.00 22.33 LIG-0.65  OA
ENDBRANCH 46 50
ENDBRANCH 44 46
ENDBRANCH 41 42
BRANCH 41 53
ATOM     53  CB  SER B 366      32.240 -16.588  -3.881  1.00 25.29 LIG 0.20  C 
BRANCH 53 54
ATOM     54 OG   SER B 366      31.637 -15.421  -3.345  1.00 34.76 LIG-0.40  OA
ATOM     55 HG   SER B 366      32.235 -14.894  -3.078  1.00 34.76 LIG 0.21  HD
ENDBRANCH 53 54
ENDBRANCH 41 53
ENDBRANCH 39 41
ENDBRANCH 36 37
BRANCH 36 56
ATOM     56  CB  HIS B 365      30.626 -12.873  -7.139  1.00 23.96 LIG 0.10  C 
BRANCH 56 57
ATOM     57  CG  HIS B 365      29.784 -12.206  -6.096  1.00 26.34 LIG 0.06  A 
ATOM     58 ND1  HIS B 365      30.323 -11.434  -5.089  1.00 28.92 LIG-0.24  NA
ATOM     59  CE1 HIS B 365      29.347 -10.923  -4.359  1.00 27.03 LIG 0.23  A 
ATOM     60 NE2  HIS B 365      28.195 -11.338  -4.856  1.00 28.88 LIG-0.25  NA
ATOM     61  CD2 HIS B 365      28.441 -12.144  -5.942  1.00 26.83 LIG 0.14  A 
ENDBRANCH 56 57
ENDBRANCH 36 56
ENDBRANCH 33 36
ENDBRANCH 1 32
TORSDOF 23
ENDMDL
MODEL 12
USER: ADFR SOLUTION from run 6
USER: SCORE 16.371059 LL:  -3.958 LR: -14.617 RR:   0.000 FEB:  -7.756
USER: RMSD 9.961775
USER: SEED 601835
USER: STATUS no improvement in best in 10 clusters for 5 generations
USER: GENES 25
USER: genes 0 Translation |==|  0.60439 0.63288 0.47365
USER: genes 1 Rotation |==|  0.24991 0.60053 0.07955 0.52392
USER: genes 2 Torsion [CB]-CA--N-[C] |==|  0.17318
USER: genes 3 Torsion [N]-C--CA-[N] |==|  0.96330
USER: genes 4 Torsion [C]-CA--CB-[CG] |==|  0.17839
USER: genes 5 Torsion [CA]-CB--CG-[CD] |==|  0.11664
USER: genes 6 Torsion [CB]-CG--CD-[NE] |==|  0.49742
USER: genes 7 Torsion [CG]-CD--NE-[HE] |==|  0.11247
USER: genes 8 Torsion [C]-CA--N-[C] |==|  0.20239
USER: genes 9 Torsion [N]-C--CA-[N] |==|  0.07778
USER: genes 10 Torsion [C]-CA--N-[C] |==|  0.73318
USER: genes 11 Torsion [N]-C--CA-[N] |==|  0.44489
USER: genes 12 Torsion [N]-CA--C-[N] |==|  0.43997
USER: genes 13 Torsion [C]-N--CA-[C] |==|  0.82243
USER: genes 14 Torsion [N]-CA--C-[N] |==|  0.92068
USER: genes 15 Torsion [C]-N--CA-[C] |==|  0.68109
USER: genes 16 Torsion [N]-CA--C-[N] |==|  0.01429
USER: genes 17 Torsion [C]-N--CA-[CB] |==|  0.86554
USER: genes 18 Torsion [N]-CA--CB-[OG] |==|  0.86399
USER: genes 19 Torsion [CA]-CB--OG-[HG] |==|  0.23756
USER: genes 20 Torsion [N]-CA--C-[OXT] |==|  0.03848
USER: genes 21 Torsion [N]-CA--CB-[OG] |==|  0.46752
USER: genes 22 Torsion [CA]-CB--OG-[HG] |==|  0.80290
USER: genes 23 Torsion [N]-CA--CB-[CG] |==|  0.77068
USER: genes 24 Torsion [CA]-CB--CG-[CD2] |==|  0.87884
ROOT
ATOM      1  CA  ALA B 364      35.160 -12.268  -8.712  1.00 28.10 LIG 0.17  C 
ATOM      2  CB  ALA B 364      35.266 -13.042 -10.014  1.00 26.12 LIG 0.04  C 
ENDROOT
BRANCH 1 3
ATOM      3  N   ALA B 364      36.483 -11.822  -8.285  1.00 32.12 LIG-0.35  N 
ATOM      4 H    ALA B 364      36.743 -12.144  -7.531  1.00 32.12 LIG 0.16  HD
ATOM      5  C   ARG B 363      37.200 -10.985  -9.026  1.00 35.84 LIG 0.24  C 
ATOM      6 O    ARG B 363      36.806 -10.554 -10.107  1.00 34.68 LIG-0.27  OA
BRANCH 5 7
ATOM      7  CA  ARG B 363      38.563 -10.567  -8.464  1.00 40.75 LIG 0.18  C 
BRANCH 7 8
ATOM      8  CB  ARG B 363      39.683 -11.179  -9.319  1.00 43.30 LIG 0.04  C 
BRANCH 8 9
ATOM      9  CG  ARG B 363      39.700 -10.664 -10.753  1.00 48.42 LIG 0.02  C 
BRANCH 9 10
ATOM     10  CD  ARG B 363      39.460  -9.163 -10.849  1.00 50.65 LIG 0.14  C 
BRANCH 10 11
ATOM     11  NE  ARG B 363      39.507  -8.711 -12.239  1.00 53.91 LIG-0.23  N 
ATOM     12 HE   ARG B 363      39.140  -9.210 -12.835  1.00 53.91 LIG 0.18  HD
ATOM     13  CZ  ARG B 363      40.080  -7.581 -12.647  1.00 54.64 LIG 0.67  C 
ATOM     14  NH2 ARG B 363      40.074  -7.259 -13.935  1.00 53.91 LIG-0.23  N 
ATOM     15  NH1 ARG B 363      40.660  -6.771 -11.770  1.00 54.84 LIG-0.23  N 
ATOM     16 1HH2 ARG B 363      39.700  -7.781 -14.507  1.00 53.91 LIG 0.17  HD
ATOM     17 2HH2 ARG B 363      40.444  -6.528 -14.198  1.00 53.91 LIG 0.17  HD
ATOM     18 1HH1 ARG B 363      40.668  -6.977 -10.936  1.00 54.84 LIG 0.17  HD
ATOM     19 2HH1 ARG B 363      41.029  -6.042 -12.037  1.00 54.84 LIG 0.17  HD
ENDBRANCH 10 11
ENDBRANCH 9 10
ENDBRANCH 8 9
ENDBRANCH 7 8
BRANCH 7 20
ATOM     20  N   ARG B 363      38.764 -10.901  -7.058  1.00 43.94 LIG-0.35  N 
ATOM     21  C   ALA B 362      38.970 -12.144  -6.628  1.00 45.99 LIG 0.24  C 
ATOM     22 O    ALA B 362      38.994 -13.126  -7.372  1.00 46.10 LIG-0.27  OA
ATOM     23 H    ARG B 363      38.738 -10.220  -6.533  1.00 43.94 LIG 0.16  HD
BRANCH 21 24
ATOM     24  CA  ALA B 362      39.166 -12.295  -5.123  1.00 47.39 LIG 0.17  C 
ATOM     25  CB  ALA B 362      38.658 -13.656  -4.659  1.00 48.25 LIG 0.04  C 
BRANCH 24 26
ATOM     26  N   ALA B 362      38.466 -11.231  -4.417  1.00 48.90 LIG-0.35  N 
ATOM     27  C   GLY B 361      39.083 -10.120  -4.028  1.00 49.70 LIG 0.25  C 
ATOM     28 O    GLY B 361      40.283  -9.912  -4.226  1.00 50.52 LIG-0.27  OA
ATOM     29 H    ALA B 362      37.631 -11.387  -4.279  1.00 48.90 LIG 0.16  HD
BRANCH 27 30
ATOM     30  CA  GLY B 361      38.229  -9.099  -3.306  1.00 49.65 LIG 0.47  C 
ATOM     31  N   GLY B 361      39.053  -8.150  -2.514  1.00 49.05 LIG 0.61  N 
ENDBRANCH 27 30
ENDBRANCH 24 26
ENDBRANCH 21 24
ENDBRANCH 7 20
ENDBRANCH 5 7
ENDBRANCH 1 3
BRANCH 1 32
ATOM     32  C   ALA B 364      34.583 -13.151  -7.604  1.00 26.37 LIG 0.24  C 
ATOM     33  N   HIS B 365      33.260 -13.297  -7.576  1.00 23.61 LIG-0.35  N 
ATOM     34 H    HIS B 365      32.724 -12.937  -8.144  1.00 23.61 LIG 0.16  HD
ATOM     35 O    ALA B 364      35.327 -13.687  -6.785  1.00 24.80 LIG-0.27  OA
BRANCH 33 36
ATOM     36  CA  HIS B 365      32.604 -14.100  -6.547  1.00 22.03 LIG 0.18  C 
BRANCH 36 37
ATOM     37  C   HIS B 365      32.999 -15.572  -6.636  1.00 20.85 LIG 0.24  C 
ATOM     38 O    HIS B 365      33.010 -16.285  -5.635  1.00 18.88 LIG-0.27  OA
ATOM     39  N   SER B 366      33.330 -16.013  -7.846  1.00 20.61 LIG-0.34  N 
ATOM     40 H    SER B 366      33.323 -15.520  -8.550  1.00 20.61 LIG 0.16  HD
BRANCH 39 41
ATOM     41  CA  SER B 366      33.739 -17.392  -8.088  1.00 22.02 LIG 0.20  C 
BRANCH 41 42
ATOM     42  C   SER B 366      35.191 -17.443  -8.540  1.00 20.47 LIG 0.24  C 
ATOM     43 O    SER B 366      35.704 -18.510  -8.883  1.00 18.56 LIG-0.27  OA
ATOM     44  N   SER B 367      35.851 -16.288  -8.533  1.00 19.80 LIG-0.34  N 
ATOM     45 H    SER B 367      35.501 -15.538  -8.301  1.00 19.80 LIG 0.16  HD
BRANCH 44 46
ATOM     46  CA  SER B 367      37.254 -16.204  -8.929  1.00 20.54 LIG 0.21  C 
BRANCH 46 47
ATOM     47  CB  SER B 367      38.083 -17.285  -8.227  1.00 20.61 LIG 0.20  C 
BRANCH 47 48
ATOM     48 OG   SER B 367      37.829 -17.314  -6.834  1.00 20.78 LIG-0.40  OA
ATOM     49 HG   SER B 367      37.157 -17.795  -6.682  1.00 20.78 LIG 0.21  HD
ENDBRANCH 47 48
ENDBRANCH 46 47
BRANCH 46 50
ATOM     50  C   SER B 367      37.394 -16.356 -10.442  1.00 22.30 LIG 0.20  C 
ATOM     51 O    SER B 367      38.532 -16.588 -10.907  1.00 20.52 LIG-0.65  OA
ATOM     52 OXT  SER B 367      36.360 -16.259 -11.138  1.00 22.33 LIG-0.65  OA
ENDBRANCH 46 50
ENDBRANCH 44 46
ENDBRANCH 41 42
BRANCH 41 53
ATOM     53  CB  SER B 366      32.859 -18.021  -9.175  1.00 25.29 LIG 0.20  C 
BRANCH 53 54
ATOM     54 OG   SER B 366      33.399 -19.256  -9.617  1.00 34.76 LIG-0.40  OA
ATOM     55 HG   SER B 366      34.095 -19.113 -10.065  1.00 34.76 LIG 0.21  HD
ENDBRANCH 53 54
ENDBRANCH 41 53
ENDBRANCH 39 41
ENDBRANCH 36 37
BRANCH 36 56
ATOM     56  CB  HIS B 365      31.086 -13.988  -6.693  1.00 23.96 LIG 0.10  C 
BRANCH 56 57
ATOM     57  CG  HIS B 365      30.518 -12.761  -6.051  1.00 26.34 LIG 0.06  A 
ATOM     58 ND1  HIS B 365      29.508 -12.020  -6.628  1.00 28.92 LIG-0.24  NA
ATOM     59  CE1 HIS B 365      29.164 -11.039  -5.812  1.00 27.03 LIG 0.23  A 
ATOM     60 NE2  HIS B 365      29.915 -11.116  -4.729  1.00 28.88 LIG-0.25  NA
ATOM     61  CD2 HIS B 365      30.772 -12.184  -4.853  1.00 26.83 LIG 0.14  A 
ENDBRANCH 56 57
ENDBRANCH 36 56
ENDBRANCH 33 36
ENDBRANCH 1 32
TORSDOF 23
ENDMDL
MODEL 13
USER: ADFR SOLUTION from run 197
USER: SCORE 16.393378 LL:  -3.200 LR: -14.618 RR:   0.000 FEB:  -7.758
USER: RMSD 10.777845
USER: SEED 196
USER: STATUS no improvement in best in 16 clusters for 5 generations
USER: GENES 25
USER: genes 0 Translation |==|  0.60111 0.63470 0.47848
USER: genes 1 Rotation |==|  0.23211 0.63241 0.10164 0.54488
USER: genes 2 Torsion [CB]-CA--N-[C] |==|  0.86339
USER: genes 3 Torsion [N]-C--CA-[N] |==|  0.87712
USER: genes 4 Torsion [C]-CA--CB-[CG] |==|  0.43451
USER: genes 5 Torsion [CA]-CB--CG-[CD] |==|  0.45203
USER: genes 6 Torsion [CB]-CG--CD-[NE] |==|  0.91754
USER: genes 7 Torsion [CG]-CD--NE-[HE] |==|  0.24597
USER: genes 8 Torsion [C]-CA--N-[C] |==|  0.83946
USER: genes 9 Torsion [N]-C--CA-[N] |==|  0.47777
USER: genes 10 Torsion [C]-CA--N-[C] |==|  0.54777
USER: genes 11 Torsion [N]-C--CA-[N] |==|  0.87408
USER: genes 12 Torsion [N]-CA--C-[N] |==|  0.46008
USER: genes 13 Torsion [C]-N--CA-[C] |==|  0.80029
USER: genes 14 Torsion [N]-CA--C-[N] |==|  0.92022
USER: genes 15 Torsion [C]-N--CA-[C] |==|  0.21743
USER: genes 16 Torsion [N]-CA--C-[N] |==|  0.84957
USER: genes 17 Torsion [C]-N--CA-[CB] |==|  0.20808
USER: genes 18 Torsion [N]-CA--CB-[OG] |==|  0.68206
USER: genes 19 Torsion [CA]-CB--OG-[HG] |==|  0.10484
USER: genes 20 Torsion [N]-CA--C-[OXT] |==|  0.45064
USER: genes 21 Torsion [N]-CA--CB-[OG] |==|  0.69203
USER: genes 22 Torsion [CA]-CB--OG-[HG] |==|  0.60726
USER: genes 23 Torsion [N]-CA--CB-[CG] |==|  0.81682
USER: genes 24 Torsion [CA]-CB--CG-[CD2] |==|  0.87040
ROOT
ATOM      1  CA  ALA B 364      35.078 -12.233  -8.607  1.00 28.10 LIG 0.17  C 
ATOM      2  CB  ALA B 364      35.074 -12.783 -10.023  1.00 26.12 LIG 0.04  C 
ENDROOT
BRANCH 1 3
ATOM      3  N   ALA B 364      36.428 -11.820  -8.234  1.00 32.12 LIG-0.35  N 
ATOM      4 H    ALA B 364      36.480 -11.032  -7.894  1.00 32.12 LIG 0.16  HD
ATOM      5  C   ARG B 363      37.470 -12.622  -8.421  1.00 35.84 LIG 0.24  C 
ATOM      6 O    ARG B 363      37.361 -13.750  -8.896  1.00 34.68 LIG-0.27  OA
BRANCH 5 7
ATOM      7  CA  ARG B 363      38.842 -12.071  -8.015  1.00 40.75 LIG 0.18  C 
BRANCH 7 8
ATOM      8  CB  ARG B 363      39.022 -12.203  -6.496  1.00 43.30 LIG 0.04  C 
BRANCH 8 9
ATOM      9  CG  ARG B 363      40.481 -12.234  -6.059  1.00 48.42 LIG 0.02  C 
BRANCH 9 10
ATOM     10  CD  ARG B 363      40.663 -11.945  -4.575  1.00 50.65 LIG 0.14  C 
BRANCH 10 11
ATOM     11  NE  ARG B 363      39.606 -11.063  -4.078  1.00 53.91 LIG-0.23  N 
ATOM     12 HE   ARG B 363      38.884 -11.428  -3.790  1.00 53.91 LIG 0.18  HD
ATOM     13  CZ  ARG B 363      39.686  -9.735  -4.042  1.00 54.64 LIG 0.67  C 
ATOM     14  NH2 ARG B 363      38.669  -9.020  -3.575  1.00 53.91 LIG-0.23  N 
ATOM     15  NH1 ARG B 363      40.779  -9.118  -4.473  1.00 54.84 LIG-0.23  N 
ATOM     16 1HH2 ARG B 363      37.958  -9.415  -3.296  1.00 53.91 LIG 0.17  HD
ATOM     17 2HH2 ARG B 363      38.722  -8.162  -3.552  1.00 53.91 LIG 0.17  HD
ATOM     18 1HH1 ARG B 363      41.439  -9.577  -4.777  1.00 54.84 LIG 0.17  HD
ATOM     19 2HH1 ARG B 363      40.827  -8.260  -4.448  1.00 54.84 LIG 0.17  HD
ENDBRANCH 10 11
ENDBRANCH 9 10
ENDBRANCH 8 9
ENDBRANCH 7 8
BRANCH 7 20
ATOM     20  N   ARG B 363      39.086 -10.694  -8.433  1.00 43.94 LIG-0.35  N 
ATOM     21  C   ALA B 362      39.034 -10.299  -9.703  1.00 45.99 LIG 0.24  C 
ATOM     22 O    ALA B 362      38.791 -11.060 -10.642  1.00 46.10 LIG-0.27  OA
ATOM     23 H    ARG B 363      39.266 -10.162  -7.781  1.00 43.94 LIG 0.16  HD
BRANCH 21 24
ATOM     24  CA  ALA B 362      39.311  -8.819  -9.943  1.00 47.39 LIG 0.17  C 
ATOM     25  CB  ALA B 362      38.203  -7.969  -9.328  1.00 48.25 LIG 0.04  C 
BRANCH 24 26
ATOM     26  N   ALA B 362      39.411  -8.554 -11.372  1.00 48.90 LIG-0.35  N 
ATOM     27  C   GLY B 361      39.968  -7.443 -11.843  1.00 49.70 LIG 0.25  C 
ATOM     28 O    GLY B 361      40.430  -6.561 -11.115  1.00 50.52 LIG-0.27  OA
ATOM     29 H    ALA B 362      39.082  -9.172 -11.871  1.00 48.90 LIG 0.16  HD
BRANCH 27 30
ATOM     30  CA  GLY B 361      40.006  -7.302 -13.350  1.00 49.65 LIG 0.47  C 
ATOM     31  N   GLY B 361      40.451  -8.556 -14.011  1.00 49.05 LIG 0.61  N 
ENDBRANCH 27 30
ENDBRANCH 24 26
ENDBRANCH 21 24
ENDBRANCH 7 20
ENDBRANCH 5 7
ENDBRANCH 1 3
BRANCH 1 32
ATOM     32  C   ALA B 364      34.625 -13.303  -7.611  1.00 26.37 LIG 0.24  C 
ATOM     33  N   HIS B 365      33.328 -13.599  -7.593  1.00 23.61 LIG-0.35  N 
ATOM     34 H    HIS B 365      32.744 -13.237  -8.110  1.00 23.61 LIG 0.16  HD
ATOM     35 O    ALA B 364      35.440 -13.845  -6.867  1.00 24.80 LIG-0.27  OA
BRANCH 33 36
ATOM     36  CA  HIS B 365      32.785 -14.589  -6.666  1.00 22.03 LIG 0.18  C 
BRANCH 36 37
ATOM     37  C   HIS B 365      33.184 -16.010  -7.052  1.00 20.85 LIG 0.24  C 
ATOM     38 O    HIS B 365      33.305 -16.887  -6.200  1.00 18.88 LIG-0.27  OA
ATOM     39  N   SER B 366      33.394 -16.224  -8.348  1.00 20.61 LIG-0.34  N 
ATOM     40 H    SER B 366      33.311 -15.615  -8.950  1.00 20.61 LIG 0.16  HD
BRANCH 39 41
ATOM     41  CA  SER B 366      33.790 -17.526  -8.870  1.00 22.02 LIG 0.20  C 
BRANCH 41 42
ATOM     42  C   SER B 366      32.586 -18.453  -8.953  1.00 20.47 LIG 0.24  C 
ATOM     43 O    SER B 366      32.295 -19.009 -10.014  1.00 18.56 LIG-0.27  OA
ATOM     44  N   SER B 367      31.887 -18.612  -7.833  1.00 19.80 LIG-0.34  N 
ATOM     45 H    SER B 367      32.085 -18.233  -7.087  1.00 19.80 LIG 0.16  HD
BRANCH 44 46
ATOM     46  CA  SER B 367      30.701 -19.462  -7.783  1.00 20.54 LIG 0.21  C 
BRANCH 46 47
ATOM     47  CB  SER B 367      31.094 -20.944  -7.785  1.00 20.61 LIG 0.20  C 
BRANCH 47 48
ATOM     48 OG   SER B 367      30.657 -21.597  -8.964  1.00 20.78 LIG-0.40  OA
ATOM     49 HG   SER B 367      30.741 -21.078  -9.619  1.00 20.78 LIG 0.21  HD
ENDBRANCH 47 48
ENDBRANCH 46 47
BRANCH 46 50
ATOM     50  C   SER B 367      29.874 -19.157  -6.537  1.00 22.30 LIG 0.20  C 
ATOM     51 O    SER B 367      30.422 -18.523  -5.607  1.00 20.52 LIG-0.65  OA
ATOM     52 OXT  SER B 367      28.684 -19.542  -6.516  1.00 22.33 LIG-0.65  OA
ENDBRANCH 46 50
ENDBRANCH 44 46
ENDBRANCH 41 42
BRANCH 41 53
ATOM     53  CB  SER B 366      34.844 -18.163  -7.957  1.00 25.29 LIG 0.20  C 
BRANCH 53 54
ATOM     54 OG   SER B 366      36.109 -18.215  -8.597  1.00 34.76 LIG-0.40  OA
ATOM     55 HG   SER B 366      36.492 -18.938  -8.404  1.00 34.76 LIG 0.21  HD
ENDBRANCH 53 54
ENDBRANCH 41 53
ENDBRANCH 39 41
ENDBRANCH 36 37
BRANCH 36 56
ATOM     56  CB  HIS B 365      31.259 -14.494  -6.644  1.00 23.96 LIG 0.10  C 
BRANCH 56 57
ATOM     57  CG  HIS B 365      30.753 -13.205  -6.077  1.00 26.34 LIG 0.06  A 
ATOM     58 ND1  HIS B 365      29.712 -12.502  -6.645  1.00 28.92 LIG-0.24  NA
ATOM     59  CE1 HIS B 365      29.439 -11.444  -5.901  1.00 27.03 LIG 0.23  A 
ATOM     60 NE2  HIS B 365      30.268 -11.436  -4.872  1.00 28.88 LIG-0.25  NA
ATOM     61  CD2 HIS B 365      31.101 -12.525  -4.960  1.00 26.83 LIG 0.14  A 
ENDBRANCH 56 57
ENDBRANCH 36 56
ENDBRANCH 33 36
ENDBRANCH 1 32
TORSDOF 23
ENDMDL
MODEL 14
USER: ADFR SOLUTION from run 56
USER: SCORE 17.516920 LL:  -4.221 LR: -14.582 RR:   0.000 FEB:  -7.721
USER: RMSD 6.518146
USER: SEED 55
USER: STATUS searching
USER: GENES 25
USER: genes 0 Translation |==|  0.44461 0.57696 0.55836
USER: genes 1 Rotation |==|  0.30926 0.45647 0.43049 0.95485
USER: genes 2 Torsion [CB]-CA--N-[C] |==|  0.13656
USER: genes 3 Torsion [N]-C--CA-[N] |==|  0.08294
USER: genes 4 Torsion [C]-CA--CB-[CG] |==|  0.34432
USER: genes 5 Torsion [CA]-CB--CG-[CD] |==|  0.85642
USER: genes 6 Torsion [CB]-CG--CD-[NE] |==|  0.83801
USER: genes 7 Torsion [CG]-CD--NE-[HE] |==|  0.09222
USER: genes 8 Torsion [C]-CA--N-[C] |==|  0.17222
USER: genes 9 Torsion [N]-C--CA-[N] |==|  0.07841
USER: genes 10 Torsion [C]-CA--N-[C] |==|  0.15026
USER: genes 11 Torsion [N]-C--CA-[N] |==|  0.56481
USER: genes 12 Torsion [N]-CA--C-[N] |==|  0.57371
USER: genes 13 Torsion [C]-N--CA-[C] |==|  0.54475
USER: genes 14 Torsion [N]-CA--C-[N] |==|  0.46648
USER: genes 15 Torsion [C]-N--CA-[C] |==|  0.73905
USER: genes 16 Torsion [N]-CA--C-[N] |==|  0.99858
USER: genes 17 Torsion [C]-N--CA-[CB] |==|  0.44906
USER: genes 18 Torsion [N]-CA--CB-[OG] |==|  0.44716
USER: genes 19 Torsion [CA]-CB--OG-[HG] |==|  0.90845
USER: genes 20 Torsion [N]-CA--C-[OXT] |==|  0.20730
USER: genes 21 Torsion [N]-CA--CB-[OG] |==|  0.74459
USER: genes 22 Torsion [CA]-CB--OG-[HG] |==|  0.94915
USER: genes 23 Torsion [N]-CA--CB-[CG] |==|  0.11740
USER: genes 24 Torsion [CA]-CB--CG-[CD2] |==|  0.24818
ROOT
ATOM      1  CA  ALA B 364      31.205 -13.316  -6.870  1.00 28.10 LIG 0.17  C 
ATOM      2  CB  ALA B 364      30.743 -12.509  -8.070  1.00 26.12 LIG 0.04  C 
ENDROOT
BRANCH 1 3
ATOM      3  N   ALA B 364      30.503 -12.873  -5.668  1.00 32.12 LIG-0.35  N 
ATOM      4 H    ALA B 364      31.013 -12.714  -4.995  1.00 32.12 LIG 0.16  HD
ATOM      5  C   ARG B 363      29.182 -12.739  -5.653  1.00 35.84 LIG 0.24  C 
ATOM      6 O    ARG B 363      28.482 -12.960  -6.640  1.00 34.68 LIG-0.27  OA
BRANCH 5 7
ATOM      7  CA  ARG B 363      28.552 -12.292  -4.329  1.00 40.75 LIG 0.18  C 
BRANCH 7 8
ATOM      8  CB  ARG B 363      27.220 -11.581  -4.606  1.00 43.30 LIG 0.04  C 
BRANCH 8 9
ATOM      9  CG  ARG B 363      26.038 -12.202  -3.872  1.00 48.42 LIG 0.02  C 
BRANCH 9 10
ATOM     10  CD  ARG B 363      25.927 -13.705  -4.088  1.00 50.65 LIG 0.14  C 
BRANCH 10 11
ATOM     11  NE  ARG B 363      25.798 -14.023  -5.511  1.00 53.91 LIG-0.23  N 
ATOM     12 HE   ARG B 363      26.205 -13.516  -6.072  1.00 53.91 LIG 0.18  HD
ATOM     13  CZ  ARG B 363      25.094 -15.044  -5.996  1.00 54.64 LIG 0.67  C 
ATOM     14  NH2 ARG B 363      25.035 -15.247  -7.306  1.00 53.91 LIG-0.23  N 
ATOM     15  NH1 ARG B 363      24.447 -15.860  -5.174  1.00 54.84 LIG-0.23  N 
ATOM     16 1HH2 ARG B 363      25.451 -14.720  -7.843  1.00 53.91 LIG 0.17  HD
ATOM     17 2HH2 ARG B 363      24.580 -15.907  -7.619  1.00 53.91 LIG 0.17  HD
ATOM     18 1HH1 ARG B 363      24.482 -15.731  -4.325  1.00 54.84 LIG 0.17  HD
ATOM     19 2HH1 ARG B 363      23.993 -16.518  -5.491  1.00 54.84 LIG 0.17  HD
ENDBRANCH 10 11
ENDBRANCH 9 10
ENDBRANCH 8 9
ENDBRANCH 7 8
BRANCH 7 20
ATOM     20  N   ARG B 363      29.412 -11.446  -3.508  1.00 43.94 LIG-0.35  N 
ATOM     21  C   ALA B 362      29.853 -10.255  -3.904  1.00 45.99 LIG 0.24  C 
ATOM     22 O    ALA B 362      29.590  -9.763  -5.003  1.00 46.10 LIG-0.27  OA
ATOM     23 H    ARG B 363      29.607 -11.790  -2.744  1.00 43.94 LIG 0.16  HD
BRANCH 21 24
ATOM     24  CA  ALA B 362      30.736  -9.515  -2.904  1.00 47.39 LIG 0.17  C 
ATOM     25  CB  ALA B 362      31.735  -8.627  -3.639  1.00 48.25 LIG 0.04  C 
BRANCH 24 26
ATOM     26  N   ALA B 362      31.441 -10.467  -2.057  1.00 48.90 LIG-0.35  N 
ATOM     27  C   GLY B 361      32.182 -11.446  -2.565  1.00 49.70 LIG 0.25  C 
ATOM     28 O    GLY B 361      32.322 -11.624  -3.778  1.00 50.52 LIG-0.27  OA
ATOM     29 H    ALA B 362      31.333 -10.338  -1.213  1.00 48.90 LIG 0.16  HD
BRANCH 27 30
ATOM     30  CA  GLY B 361      32.860 -12.360  -1.565  1.00 49.65 LIG 0.47  C 
ATOM     31  N   GLY B 361      34.052 -13.028  -2.147  1.00 49.05 LIG 0.61  N 
ENDBRANCH 27 30
ENDBRANCH 24 26
ENDBRANCH 21 24
ENDBRANCH 7 20
ENDBRANCH 5 7
ENDBRANCH 1 3
BRANCH 1 32
ATOM     32  C   ALA B 364      32.704 -13.123  -6.633  1.00 26.37 LIG 0.24  C 
ATOM     33  N   HIS B 365      33.466 -12.938  -7.709  1.00 23.61 LIG-0.35  N 
ATOM     34 H    HIS B 365      33.164 -12.909  -8.514  1.00 23.61 LIG 0.16  HD
ATOM     35 O    ALA B 364      33.163 -13.148  -5.492  1.00 24.80 LIG-0.27  OA
BRANCH 33 36
ATOM     36  CA  HIS B 365      34.912 -12.766  -7.599  1.00 22.03 LIG 0.18  C 
BRANCH 36 37
ATOM     37  C   HIS B 365      35.516 -12.186  -8.875  1.00 20.85 LIG 0.24  C 
ATOM     38 O    HIS B 365      34.863 -12.130  -9.914  1.00 18.88 LIG-0.27  OA
ATOM     39  N   SER B 366      36.774 -11.764  -8.784  1.00 20.61 LIG-0.34  N 
ATOM     40 H    SER B 366      37.236 -11.800  -8.060  1.00 20.61 LIG 0.16  HD
BRANCH 39 41
ATOM     41  CA  SER B 366      37.490 -11.195  -9.920  1.00 22.02 LIG 0.20  C 
BRANCH 41 42
ATOM     42  C   SER B 366      38.291 -12.273 -10.637  1.00 20.47 LIG 0.24  C 
ATOM     43 O    SER B 366      38.958 -11.998 -11.636  1.00 18.56 LIG-0.27  OA
ATOM     44  N   SER B 367      38.218 -13.498 -10.125  1.00 19.80 LIG-0.34  N 
ATOM     45 H    SER B 367      37.760 -13.700  -9.425  1.00 19.80 LIG 0.16  HD
BRANCH 44 46
ATOM     46  CA  SER B 367      38.927 -14.624 -10.727  1.00 20.54 LIG 0.21  C 
BRANCH 46 47
ATOM     47  CB  SER B 367      39.053 -15.782  -9.730  1.00 20.61 LIG 0.20  C 
BRANCH 47 48
ATOM     48 OG   SER B 367      39.331 -17.006 -10.386  1.00 20.78 LIG-0.40  OA
ATOM     49 HG   SER B 367      38.956 -17.012 -11.138  1.00 20.78 LIG 0.21  HD
ENDBRANCH 47 48
ENDBRANCH 46 47
BRANCH 46 50
ATOM     50  C   SER B 367      38.201 -15.108 -11.979  1.00 22.30 LIG 0.20  C 
ATOM     51 O    SER B 367      37.540 -16.167 -11.905  1.00 20.52 LIG-0.65  OA
ATOM     52 OXT  SER B 367      38.291 -14.410 -13.014  1.00 22.33 LIG-0.65  OA
ENDBRANCH 46 50
ENDBRANCH 44 46
ENDBRANCH 41 42
BRANCH 41 53
ATOM     53  CB  SER B 366      38.449 -10.098  -9.444  1.00 25.29 LIG 0.20  C 
BRANCH 53 54
ATOM     54 OG   SER B 366      37.826  -8.825  -9.479  1.00 34.76 LIG-0.40  OA
ATOM     55 HG   SER B 366      37.150  -8.857  -9.977  1.00 34.76 LIG 0.21  HD
ENDBRANCH 53 54
ENDBRANCH 41 53
ENDBRANCH 39 41
ENDBRANCH 36 37
BRANCH 36 56
ATOM     56  CB  HIS B 365      35.573 -14.113  -7.309  1.00 23.96 LIG 0.10  C 
BRANCH 56 57
ATOM     57  CG  HIS B 365      35.005 -15.239  -8.116  1.00 26.34 LIG 0.06  A 
ATOM     58 ND1  HIS B 365      33.903 -15.962  -7.710  1.00 28.92 LIG-0.24  NA
ATOM     59  CE1 HIS B 365      33.589 -16.843  -8.643  1.00 27.03 LIG 0.23  A 
ATOM     60 NE2  HIS B 365      34.448 -16.717  -9.639  1.00 28.88 LIG-0.25  NA
ATOM     61  CD2 HIS B 365      35.345 -15.722  -9.333  1.00 26.83 LIG 0.14  A 
ENDBRANCH 56 57
ENDBRANCH 36 56
ENDBRANCH 33 36
ENDBRANCH 1 32
TORSDOF 23
ENDMDL
MODEL 15
USER: ADFR SOLUTION from run 64
USER: SCORE 17.601559 LL:  -4.172 LR: -14.563 RR:   0.000 FEB:  -7.702
USER: RMSD 10.559316
USER: SEED 63
USER: STATUS no improvement in best in 2 clusters for 5 generations
USER: GENES 25
USER: genes 0 Translation |==|  0.53481 0.39686 0.47573
USER: genes 1 Rotation |==|  0.65896 0.66571 0.94316 0.52964
USER: genes 2 Torsion [CB]-CA--N-[C] |==|  0.15730
USER: genes 3 Torsion [N]-C--CA-[N] |==|  0.51756
USER: genes 4 Torsion [C]-CA--CB-[CG] |==|  0.61398
USER: genes 5 Torsion [CA]-CB--CG-[CD] |==|  0.78583
USER: genes 6 Torsion [CB]-CG--CD-[NE] |==|  0.58297
USER: genes 7 Torsion [CG]-CD--NE-[HE] |==|  0.13030
USER: genes 8 Torsion [C]-CA--N-[C] |==|  0.76767
USER: genes 9 Torsion [N]-C--CA-[N] |==|  0.09181
USER: genes 10 Torsion [C]-CA--N-[C] |==|  0.69303
USER: genes 11 Torsion [N]-C--CA-[N] |==|  0.47408
USER: genes 12 Torsion [N]-CA--C-[N] |==|  0.12393
USER: genes 13 Torsion [C]-N--CA-[C] |==|  0.55146
USER: genes 14 Torsion [N]-CA--C-[N] |==|  0.44449
USER: genes 15 Torsion [C]-N--CA-[C] |==|  0.80838
USER: genes 16 Torsion [N]-CA--C-[N] |==|  0.88668
USER: genes 17 Torsion [C]-N--CA-[CB] |==|  0.26190
USER: genes 18 Torsion [N]-CA--CB-[OG] |==|  0.87119
USER: genes 19 Torsion [CA]-CB--OG-[HG] |==|  0.86839
USER: genes 20 Torsion [N]-CA--C-[OXT] |==|  0.54391
USER: genes 21 Torsion [N]-CA--CB-[OG] |==|  0.87719
USER: genes 22 Torsion [CA]-CB--OG-[HG] |==|  0.81770
USER: genes 23 Torsion [N]-CA--CB-[CG] |==|  0.08285
USER: genes 24 Torsion [CA]-CB--CG-[CD2] |==|  0.14588
ROOT
ATOM      1  CA  ALA B 364      33.438 -16.693  -8.667  1.00 28.10 LIG 0.17  C 
ATOM      2  CB  ALA B 364      34.142 -18.031  -8.525  1.00 26.12 LIG 0.04  C 
ENDROOT
BRANCH 1 3
ATOM      3  N   ALA B 364      34.416 -15.609  -8.663  1.00 32.12 LIG-0.35  N 
ATOM      4 H    ALA B 364      34.288 -15.014  -8.055  1.00 32.12 LIG 0.16  HD
ATOM      5  C   ARG B 363      35.411 -15.577  -9.541  1.00 35.84 LIG 0.24  C 
ATOM      6 O    ARG B 363      35.576 -16.452 -10.388  1.00 34.68 LIG-0.27  OA
BRANCH 5 7
ATOM      7  CA  ARG B 363      36.362 -14.377  -9.458  1.00 40.75 LIG 0.18  C 
BRANCH 7 8
ATOM      8  CB  ARG B 363      35.548 -13.077  -9.409  1.00 43.30 LIG 0.04  C 
BRANCH 8 9
ATOM      9  CG  ARG B 363      36.141 -11.958 -10.257  1.00 48.42 LIG 0.02  C 
BRANCH 9 10
ATOM     10  CD  ARG B 363      37.344 -11.291  -9.603  1.00 50.65 LIG 0.14  C 
BRANCH 10 11
ATOM     11  NE  ARG B 363      37.450  -9.888 -10.006  1.00 53.91 LIG-0.23  N 
ATOM     12 HE   ARG B 363      36.737  -9.409  -9.980  1.00 53.91 LIG 0.18  HD
ATOM     13  CZ  ARG B 363      38.574  -9.302 -10.412  1.00 54.64 LIG 0.67  C 
ATOM     14  NH2 ARG B 363      38.568  -8.022 -10.762  1.00 53.91 LIG-0.23  N 
ATOM     15  NH1 ARG B 363      39.705  -9.994 -10.471  1.00 54.84 LIG-0.23  N 
ATOM     16 1HH2 ARG B 363      37.837  -7.570 -10.727  1.00 53.91 LIG 0.17  HD
ATOM     17 2HH2 ARG B 363      39.295  -7.644 -11.023  1.00 53.91 LIG 0.17  HD
ATOM     18 1HH1 ARG B 363      39.714 -10.824 -10.247  1.00 54.84 LIG 0.17  HD
ATOM     19 2HH1 ARG B 363      40.430  -9.612 -10.733  1.00 54.84 LIG 0.17  HD
ENDBRANCH 10 11
ENDBRANCH 9 10
ENDBRANCH 8 9
ENDBRANCH 7 8
BRANCH 7 20
ATOM     20  N   ARG B 363      37.348 -14.314 -10.533  1.00 43.94 LIG-0.35  N 
ATOM     21  C   ALA B 362      38.496 -14.986 -10.507  1.00 45.99 LIG 0.24  C 
ATOM     22 O    ALA B 362      38.840 -15.710  -9.570  1.00 46.10 LIG-0.27  OA
ATOM     23 H    ARG B 363      37.116 -13.802 -11.184  1.00 43.94 LIG 0.16  HD
BRANCH 21 24
ATOM     24  CA  ALA B 362      39.394 -14.799 -11.725  1.00 47.39 LIG 0.17  C 
ATOM     25  CB  ALA B 362      40.850 -15.060 -11.352  1.00 48.25 LIG 0.04  C 
BRANCH 24 26
ATOM     26  N   ALA B 362      39.248 -13.449 -12.254  1.00 48.90 LIG-0.35  N 
ATOM     27  C   GLY B 361      38.657 -13.212 -13.420  1.00 49.70 LIG 0.25  C 
ATOM     28 O    GLY B 361      38.201 -14.106 -14.138  1.00 50.52 LIG-0.27  OA
ATOM     29 H    ALA B 362      39.573 -12.834 -11.749  1.00 48.90 LIG 0.16  HD
BRANCH 27 30
ATOM     30  CA  GLY B 361      38.573 -11.760 -13.843  1.00 49.65 LIG 0.47  C 
ATOM     31  N   GLY B 361      38.103 -11.619 -15.245  1.00 49.05 LIG 0.61  N 
ENDBRANCH 27 30
ENDBRANCH 24 26
ENDBRANCH 21 24
ENDBRANCH 7 20
ENDBRANCH 5 7
ENDBRANCH 1 3
BRANCH 1 32
ATOM     32  C   ALA B 364      32.477 -16.461  -7.498  1.00 26.37 LIG 0.24  C 
ATOM     33  N   HIS B 365      32.027 -15.221  -7.324  1.00 23.61 LIG-0.35  N 
ATOM     34 H    HIS B 365      32.233 -14.558  -7.831  1.00 23.61 LIG 0.16  HD
ATOM     35 O    ALA B 364      32.156 -17.394  -6.763  1.00 24.80 LIG-0.27  OA
BRANCH 33 36
ATOM     36  CA  HIS B 365      31.123 -14.886  -6.226  1.00 22.03 LIG 0.18  C 
BRANCH 36 37
ATOM     37  C   HIS B 365      30.393 -13.568  -6.472  1.00 20.85 LIG 0.24  C 
ATOM     38 O    HIS B 365      30.829 -12.743  -7.271  1.00 18.88 LIG-0.27  OA
ATOM     39  N   SER B 366      29.280 -13.380  -5.770  1.00 20.61 LIG-0.34  N 
ATOM     40 H    SER B 366      28.968 -13.954  -5.210  1.00 20.61 LIG 0.16  HD
BRANCH 39 41
ATOM     41  CA  SER B 366      28.477 -12.168  -5.888  1.00 22.02 LIG 0.20  C 
BRANCH 41 42
ATOM     42  C   SER B 366      29.225 -10.978  -5.303  1.00 20.47 LIG 0.24  C 
ATOM     43 O    SER B 366      29.201  -9.884  -5.869  1.00 18.56 LIG-0.27  OA
ATOM     44  N   SER B 367      29.890 -11.199  -4.173  1.00 19.80 LIG-0.34  N 
ATOM     45 H    SER B 367      29.908 -11.957  -3.767  1.00 19.80 LIG 0.16  HD
BRANCH 44 46
ATOM     46  CA  SER B 367      30.659 -10.145  -3.518  1.00 20.54 LIG 0.21  C 
BRANCH 46 47
ATOM     47  CB  SER B 367      29.818  -9.446  -2.443  1.00 20.61 LIG 0.20  C 
BRANCH 47 48
ATOM     48 OG   SER B 367      28.524  -9.125  -2.921  1.00 20.78 LIG-0.40  OA
ATOM     49 HG   SER B 367      28.586  -8.759  -3.675  1.00 20.78 LIG 0.21  HD
ENDBRANCH 47 48
ENDBRANCH 46 47
BRANCH 46 50
ATOM     50  C   SER B 367      31.922 -10.718  -2.882  1.00 22.30 LIG 0.20  C 
ATOM     51 O    SER B 367      32.303 -11.853  -3.248  1.00 20.52 LIG-0.65  OA
ATOM     52 OXT  SER B 367      32.524 -10.017  -2.038  1.00 22.33 LIG-0.65  OA
ENDBRANCH 46 50
ENDBRANCH 44 46
ENDBRANCH 41 42
BRANCH 41 53
ATOM     53  CB  SER B 366      27.151 -12.338  -5.139  1.00 25.29 LIG 0.20  C 
BRANCH 53 54
ATOM     54 OG   SER B 366      26.573 -13.606  -5.404  1.00 34.76 LIG-0.40  OA
ATOM     55 HG   SER B 366      26.357 -13.651  -6.215  1.00 34.76 LIG 0.21  HD
ENDBRANCH 53 54
ENDBRANCH 41 53
ENDBRANCH 39 41
ENDBRANCH 36 37
BRANCH 36 56
ATOM     56  CB  HIS B 365      31.913 -14.775  -4.922  1.00 23.96 LIG 0.10  C 
BRANCH 56 57
ATOM     57  CG  HIS B 365      33.327 -14.327  -5.121  1.00 26.34 LIG 0.06  A 
ATOM     58 ND1  HIS B 365      34.408 -15.057  -4.672  1.00 28.92 LIG-0.24  NA
ATOM     59  CE1 HIS B 365      35.525 -14.458  -5.042  1.00 27.03 LIG 0.23  A 
ATOM     60 NE2  HIS B 365      35.208 -13.365  -5.713  1.00 28.88 LIG-0.25  NA
ATOM     61  CD2 HIS B 365      33.840 -13.259  -5.775  1.00 26.83 LIG 0.14  A 
ENDBRANCH 56 57
ENDBRANCH 36 56
ENDBRANCH 33 36
ENDBRANCH 1 32
TORSDOF 23
ENDMDL
MODEL 16
USER: ADFR SOLUTION from run 81
USER: SCORE 14.961003 LL:  -3.929 LR: -14.512 RR:   0.000 FEB:  -7.651
USER: RMSD 10.651644
USER: SEED 80
USER: STATUS no improvement in best in 10 clusters for 5 generations
USER: GENES 25
USER: genes 0 Translation |==|  0.60499 0.59374 0.47860
USER: genes 1 Rotation |==|  0.71277 0.51283 0.94615 0.57428
USER: genes 2 Torsion [CB]-CA--N-[C] |==|  0.19909
USER: genes 3 Torsion [N]-C--CA-[N] |==|  0.54539
USER: genes 4 Torsion [C]-CA--CB-[CG] |==|  0.36215
USER: genes 5 Torsion [CA]-CB--CG-[CD] |==|  0.16286
USER: genes 6 Torsion [CB]-CG--CD-[NE] |==|  0.11212
USER: genes 7 Torsion [CG]-CD--NE-[HE] |==|  0.70984
USER: genes 8 Torsion [C]-CA--N-[C] |==|  0.19835
USER: genes 9 Torsion [N]-C--CA-[N] |==|  0.21254
USER: genes 10 Torsion [C]-CA--N-[C] |==|  0.79373
USER: genes 11 Torsion [N]-C--CA-[N] |==|  0.81187
USER: genes 12 Torsion [N]-CA--C-[N] |==|  0.46901
USER: genes 13 Torsion [C]-N--CA-[C] |==|  0.79998
USER: genes 14 Torsion [N]-CA--C-[N] |==|  0.78532
USER: genes 15 Torsion [C]-N--CA-[C] |==|  0.72778
USER: genes 16 Torsion [N]-CA--C-[N] |==|  0.86321
USER: genes 17 Torsion [C]-N--CA-[CB] |==|  0.33120
USER: genes 18 Torsion [N]-CA--CB-[OG] |==|  0.16876
USER: genes 19 Torsion [CA]-CB--OG-[HG] |==|  0.10981
USER: genes 20 Torsion [N]-CA--C-[OXT] |==|  0.86193
USER: genes 21 Torsion [N]-CA--CB-[OG] |==|  0.89615
USER: genes 22 Torsion [CA]-CB--OG-[HG] |==|  0.78352
USER: genes 23 Torsion [N]-CA--CB-[CG] |==|  0.63518
USER: genes 24 Torsion [CA]-CB--CG-[CD2] |==|  0.46360
ROOT
ATOM      1  CA  ALA B 364      35.174 -13.001  -8.604  1.00 28.10 LIG 0.17  C 
ATOM      2  CB  ALA B 364      35.245 -14.386  -9.224  1.00 26.12 LIG 0.04  C 
ENDROOT
BRANCH 1 3
ATOM      3  N   ALA B 364      36.518 -12.522  -8.297  1.00 32.12 LIG-0.35  N 
ATOM      4 H    ALA B 364      36.707 -12.499  -7.458  1.00 32.12 LIG 0.16  HD
ATOM      5  C   ARG B 363      37.357 -12.157  -9.261  1.00 35.84 LIG 0.24  C 
ATOM      6 O    ARG B 363      37.061 -12.215 -10.452  1.00 34.68 LIG-0.27  OA
BRANCH 5 7
ATOM      7  CA  ARG B 363      38.732 -11.645  -8.817  1.00 40.75 LIG 0.18  C 
BRANCH 7 8
ATOM      8  CB  ARG B 363      38.578 -10.775  -7.562  1.00 43.30 LIG 0.04  C 
BRANCH 8 9
ATOM      9  CG  ARG B 363      39.536 -11.155  -6.440  1.00 48.42 LIG 0.02  C 
BRANCH 9 10
ATOM     10  CD  ARG B 363      40.999 -11.068  -6.852  1.00 50.65 LIG 0.14  C 
BRANCH 10 11
ATOM     11  NE  ARG B 363      41.242  -9.886  -7.680  1.00 53.91 LIG-0.23  N 
ATOM     12 HE   ARG B 363      41.345 -10.005  -8.525  1.00 53.91 LIG 0.18  HD
ATOM     13  CZ  ARG B 363      41.314  -8.640  -7.217  1.00 54.64 LIG 0.67  C 
ATOM     14  NH2 ARG B 363      41.543  -7.633  -8.051  1.00 53.91 LIG-0.23  N 
ATOM     15  NH1 ARG B 363      41.160  -8.399  -5.921  1.00 54.84 LIG-0.23  N 
ATOM     16 1HH2 ARG B 363      41.645  -7.785  -8.891  1.00 53.91 LIG 0.17  HD
ATOM     17 2HH2 ARG B 363      41.589  -6.829  -7.751  1.00 53.91 LIG 0.17  HD
ATOM     18 1HH1 ARG B 363      41.014  -9.049  -5.378  1.00 54.84 LIG 0.17  HD
ATOM     19 2HH1 ARG B 363      41.208  -7.593  -5.625  1.00 54.84 LIG 0.17  HD
ENDBRANCH 10 11
ENDBRANCH 9 10
ENDBRANCH 8 9
ENDBRANCH 7 8
BRANCH 7 20
ATOM     20  N   ARG B 363      39.465 -10.917  -9.848  1.00 43.94 LIG-0.35  N 
ATOM     21  C   ALA B 362      39.121  -9.701 -10.264  1.00 45.99 LIG 0.24  C 
ATOM     22 O    ALA B 362      38.145  -9.084  -9.830  1.00 46.10 LIG-0.27  OA
ATOM     23 H    ARG B 363      40.140 -11.348 -10.162  1.00 43.94 LIG 0.16  HD
BRANCH 21 24
ATOM     24  CA  ALA B 362      40.012  -9.097 -11.343  1.00 47.39 LIG 0.17  C 
ATOM     25  CB  ALA B 362      39.810  -7.587 -11.411  1.00 48.25 LIG 0.04  C 
BRANCH 24 26
ATOM     26  N   ALA B 362      39.714  -9.701 -12.635  1.00 48.90 LIG-0.35  N 
ATOM     27  C   GLY B 361      40.101 -10.935 -12.941  1.00 49.70 LIG 0.25  C 
ATOM     28 O    GLY B 361      40.741 -11.651 -12.166  1.00 50.52 LIG-0.27  OA
ATOM     29 H    ALA B 362      39.272  -9.193 -13.170  1.00 48.90 LIG 0.16  HD
BRANCH 27 30
ATOM     30  CA  GLY B 361      39.718 -11.433 -14.319  1.00 49.65 LIG 0.47  C 
ATOM     31  N   GLY B 361      38.250 -11.619 -14.451  1.00 49.05 LIG 0.61  N 
ENDBRANCH 27 30
ENDBRANCH 24 26
ENDBRANCH 21 24
ENDBRANCH 7 20
ENDBRANCH 5 7
ENDBRANCH 1 3
BRANCH 1 32
ATOM     32  C   ALA B 364      34.379 -13.034  -7.298  1.00 26.37 LIG 0.24  C 
ATOM     33  N   HIS B 365      33.065 -13.225  -7.396  1.00 23.61 LIG-0.35  N 
ATOM     34 H    HIS B 365      32.650 -13.341  -8.140  1.00 23.61 LIG 0.16  HD
ATOM     35 O    ALA B 364      34.949 -12.883  -6.218  1.00 24.80 LIG-0.27  OA
BRANCH 33 36
ATOM     36  CA  HIS B 365      32.209 -13.252  -6.213  1.00 22.03 LIG 0.18  C 
BRANCH 36 37
ATOM     37  C   HIS B 365      32.409 -14.523  -5.393  1.00 20.85 LIG 0.24  C 
ATOM     38 O    HIS B 365      33.075 -14.511  -4.361  1.00 18.88 LIG-0.27  OA
ATOM     39  N   SER B 366      31.830 -15.621  -5.870  1.00 20.61 LIG-0.34  N 
ATOM     40 H    SER B 366      31.361 -15.636  -6.592  1.00 20.61 LIG 0.16  HD
BRANCH 39 41
ATOM     41  CA  SER B 366      31.938 -16.913  -5.204  1.00 22.02 LIG 0.20  C 
BRANCH 41 42
ATOM     42  C   SER B 366      33.029 -17.754  -5.852  1.00 20.47 LIG 0.24  C 
ATOM     43 O    SER B 366      33.891 -18.302  -5.163  1.00 18.56 LIG-0.27  OA
ATOM     44  N   SER B 367      32.989 -17.849  -7.178  1.00 19.80 LIG-0.34  N 
ATOM     45 H    SER B 367      32.389 -17.476  -7.668  1.00 19.80 LIG 0.16  HD
BRANCH 44 46
ATOM     46  CA  SER B 367      33.986 -18.613  -7.923  1.00 20.54 LIG 0.21  C 
BRANCH 46 47
ATOM     47  CB  SER B 367      33.324 -19.753  -8.705  1.00 20.61 LIG 0.20  C 
BRANCH 47 48
ATOM     48 OG   SER B 367      32.387 -19.263  -9.647  1.00 20.78 LIG-0.40  OA
ATOM     49 HG   SER B 367      32.688 -18.566 -10.006  1.00 20.78 LIG 0.21  HD
ENDBRANCH 47 48
ENDBRANCH 46 47
BRANCH 46 50
ATOM     50  C   SER B 367      34.746 -17.707  -8.888  1.00 22.30 LIG 0.20  C 
ATOM     51 O    SER B 367      35.995 -17.768  -8.894  1.00 20.52 LIG-0.65  OA
ATOM     52 OXT  SER B 367      34.078 -16.961  -9.639  1.00 22.33 LIG-0.65  OA
ENDBRANCH 46 50
ENDBRANCH 44 46
ENDBRANCH 41 42
BRANCH 41 53
ATOM     53  CB  SER B 366      30.608 -17.669  -5.298  1.00 25.29 LIG 0.20  C 
BRANCH 53 54
ATOM     54 OG   SER B 366      29.508 -16.783  -5.174  1.00 34.76 LIG-0.40  OA
ATOM     55 HG   SER B 366      29.399 -16.583  -4.365  1.00 34.76 LIG 0.21  HD
ENDBRANCH 53 54
ENDBRANCH 41 53
ENDBRANCH 39 41
ENDBRANCH 36 37
BRANCH 36 56
ATOM     56  CB  HIS B 365      30.742 -13.163  -6.634  1.00 23.96 LIG 0.10  C 
BRANCH 56 57
ATOM     57  CG  HIS B 365      29.966 -12.135  -5.871  1.00 26.34 LIG 0.06  A 
ATOM     58 ND1  HIS B 365      30.476 -11.490  -4.764  1.00 28.92 LIG-0.24  NA
ATOM     59  CE1 HIS B 365      29.602 -10.596  -4.337  1.00 27.03 LIG 0.23  A 
ATOM     60 NE2  HIS B 365      28.543 -10.641  -5.125  1.00 28.88 LIG-0.25  NA
ATOM     61  CD2 HIS B 365      28.744 -11.597  -6.091  1.00 26.83 LIG 0.14  A 
ENDBRANCH 56 57
ENDBRANCH 36 56
ENDBRANCH 33 36
ENDBRANCH 1 32
TORSDOF 23
ENDMDL
MODEL 17
USER: ADFR SOLUTION from run 57
USER: SCORE 16.199232 LL:  -3.240 LR: -14.404 RR:   0.000 FEB:  -7.543
USER: RMSD 11.799286
USER: SEED 56
USER: STATUS searching
USER: GENES 25
USER: genes 0 Translation |==|  0.59524 0.52513 0.47004
USER: genes 1 Rotation |==|  0.70186 0.71390 0.89122 0.60222
USER: genes 2 Torsion [CB]-CA--N-[C] |==|  0.49134
USER: genes 3 Torsion [N]-C--CA-[N] |==|  0.28357
USER: genes 4 Torsion [C]-CA--CB-[CG] |==|  0.42240
USER: genes 5 Torsion [CA]-CB--CG-[CD] |==|  0.42429
USER: genes 6 Torsion [CB]-CG--CD-[NE] |==|  0.81167
USER: genes 7 Torsion [CG]-CD--NE-[HE] |==|  0.17026
USER: genes 8 Torsion [C]-CA--N-[C] |==|  0.77095
USER: genes 9 Torsion [N]-C--CA-[N] |==|  0.13173
USER: genes 10 Torsion [C]-CA--N-[C] |==|  0.17778
USER: genes 11 Torsion [N]-C--CA-[N] |==|  0.88621
USER: genes 12 Torsion [N]-CA--C-[N] |==|  0.45353
USER: genes 13 Torsion [C]-N--CA-[C] |==|  0.77527
USER: genes 14 Torsion [N]-CA--C-[N] |==|  0.33952
USER: genes 15 Torsion [C]-N--CA-[C] |==|  0.61150
USER: genes 16 Torsion [N]-CA--C-[N] |==|  0.11482
USER: genes 17 Torsion [C]-N--CA-[CB] |==|  0.29946
USER: genes 18 Torsion [N]-CA--CB-[OG] |==|  0.91826
USER: genes 19 Torsion [CA]-CB--OG-[HG] |==|  0.93756
USER: genes 20 Torsion [N]-CA--C-[OXT] |==|  0.24556
USER: genes 21 Torsion [N]-CA--CB-[OG] |==|  0.88217
USER: genes 22 Torsion [CA]-CB--OG-[HG] |==|  0.94807
USER: genes 23 Torsion [N]-CA--CB-[CG] |==|  0.54714
USER: genes 24 Torsion [CA]-CB--CG-[CD2] |==|  0.43345
ROOT
ATOM      1  CA  ALA B 364      34.933 -14.288  -8.791  1.00 28.10 LIG 0.17  C 
ATOM      2  CB  ALA B 364      35.313 -15.665  -8.275  1.00 26.12 LIG 0.04  C 
ENDROOT
BRANCH 1 3
ATOM      3  N   ALA B 364      36.126 -13.571  -9.231  1.00 32.12 LIG-0.35  N 
ATOM      4 H    ALA B 364      36.864 -13.993  -9.104  1.00 32.12 LIG 0.16  HD
ATOM      5  C   ARG B 363      36.041 -12.365  -9.781  1.00 35.84 LIG 0.24  C 
ATOM      6 O    ARG B 363      34.967 -11.795  -9.963  1.00 34.68 LIG-0.27  OA
BRANCH 5 7
ATOM      7  CA  ARG B 363      37.361 -11.698 -10.182  1.00 40.75 LIG 0.18  C 
BRANCH 7 8
ATOM      8  CB  ARG B 363      37.370 -10.240  -9.700  1.00 43.30 LIG 0.04  C 
BRANCH 8 9
ATOM      9  CG  ARG B 363      38.769  -9.702  -9.424  1.00 48.42 LIG 0.02  C 
BRANCH 9 10
ATOM     10  CD  ARG B 363      38.868  -8.192  -9.595  1.00 50.65 LIG 0.14  C 
BRANCH 10 11
ATOM     11  NE  ARG B 363      38.704  -7.811 -10.998  1.00 53.91 LIG-0.23  N 
ATOM     12 HE   ARG B 363      37.959  -8.004 -11.380  1.00 53.91 LIG 0.18  HD
ATOM     13  CZ  ARG B 363      39.627  -7.185 -11.725  1.00 54.64 LIG 0.67  C 
ATOM     14  NH2 ARG B 363      39.384  -6.884 -12.994  1.00 53.91 LIG-0.23  N 
ATOM     15  NH1 ARG B 363      40.796  -6.860 -11.184  1.00 54.84 LIG-0.23  N 
ATOM     16 1HH2 ARG B 363      38.629  -7.094 -13.348  1.00 53.91 LIG 0.17  HD
ATOM     17 2HH2 ARG B 363      39.981  -6.480 -13.462  1.00 53.91 LIG 0.17  HD
ATOM     18 1HH1 ARG B 363      40.958  -7.055 -10.363  1.00 54.84 LIG 0.17  HD
ATOM     19 2HH1 ARG B 363      41.390  -6.456 -11.656  1.00 54.84 LIG 0.17  HD
ENDBRANCH 10 11
ENDBRANCH 9 10
ENDBRANCH 8 9
ENDBRANCH 7 8
BRANCH 7 20
ATOM     20  N   ARG B 363      37.657 -11.757 -11.610  1.00 43.94 LIG-0.35  N 
ATOM     21  C   ALA B 362      38.208 -12.816 -12.197  1.00 45.99 LIG 0.24  C 
ATOM     22 O    ALA B 362      38.534 -13.838 -11.588  1.00 46.10 LIG-0.27  OA
ATOM     23 H    ARG B 363      37.440 -11.042 -12.038  1.00 43.94 LIG 0.16  HD
BRANCH 21 24
ATOM     24  CA  ALA B 362      38.434 -12.694 -13.699  1.00 47.39 LIG 0.17  C 
ATOM     25  CB  ALA B 362      39.304 -13.843 -14.198  1.00 48.25 LIG 0.04  C 
BRANCH 24 26
ATOM     26  N   ALA B 362      39.065 -11.417 -14.009  1.00 48.90 LIG-0.35  N 
ATOM     27  C   GLY B 361      40.283 -11.112 -13.576  1.00 49.70 LIG 0.25  C 
ATOM     28 O    GLY B 361      40.960 -11.874 -12.881  1.00 50.52 LIG-0.27  OA
ATOM     29 H    ALA B 362      38.582 -10.892 -14.490  1.00 48.90 LIG 0.16  HD
BRANCH 27 30
ATOM     30  CA  GLY B 361      40.813  -9.751 -13.977  1.00 49.65 LIG 0.47  C 
ATOM     31  N   GLY B 361      40.478  -9.421 -15.386  1.00 49.05 LIG 0.61  N 
ENDBRANCH 27 30
ENDBRANCH 24 26
ENDBRANCH 21 24
ENDBRANCH 7 20
ENDBRANCH 5 7
ENDBRANCH 1 3
BRANCH 1 32
ATOM     32  C   ALA B 364      34.272 -13.461  -7.686  1.00 26.37 LIG 0.24  C 
ATOM     33  N   HIS B 365      33.008 -13.753  -7.388  1.00 23.61 LIG-0.35  N 
ATOM     34 H    HIS B 365      32.556 -14.378  -7.767  1.00 23.61 LIG 0.16  HD
ATOM     35 O    ALA B 364      34.899 -12.568  -7.118  1.00 24.80 LIG-0.27  OA
BRANCH 33 36
ATOM     36  CA  HIS B 365      32.275 -13.011  -6.365  1.00 22.03 LIG 0.18  C 
BRANCH 36 37
ATOM     37  C   HIS B 365      32.609 -13.500  -4.958  1.00 20.85 LIG 0.24  C 
ATOM     38 O    HIS B 365      32.428 -14.672  -4.637  1.00 18.88 LIG-0.27  OA
ATOM     39  N   SER B 366      33.090 -12.584  -4.122  1.00 20.61 LIG-0.34  N 
ATOM     40 H    SER B 366      33.220 -11.762  -4.341  1.00 20.61 LIG 0.16  HD
BRANCH 39 41
ATOM     41  CA  SER B 366      33.446 -12.897  -2.743  1.00 22.02 LIG 0.20  C 
BRANCH 41 42
ATOM     42  C   SER B 366      33.018 -11.768  -1.816  1.00 20.47 LIG 0.24  C 
ATOM     43 O    SER B 366      33.753 -11.398  -0.898  1.00 18.56 LIG-0.27  OA
ATOM     44  N   SER B 367      31.827 -11.227  -2.057  1.00 19.80 LIG-0.34  N 
ATOM     45 H    SER B 367      31.309 -11.474  -2.697  1.00 19.80 LIG 0.16  HD
BRANCH 44 46
ATOM     46  CA  SER B 367      31.294 -10.147  -1.232  1.00 20.54 LIG 0.21  C 
BRANCH 46 47
ATOM     47  CB  SER B 367      31.316  -8.818  -1.995  1.00 20.61 LIG 0.20  C 
BRANCH 47 48
ATOM     48 OG   SER B 367      32.371  -8.776  -2.938  1.00 20.78 LIG-0.40  OA
ATOM     49 HG   SER B 367      32.968  -9.324  -2.715  1.00 20.78 LIG 0.21  HD
ENDBRANCH 47 48
ENDBRANCH 46 47
BRANCH 46 50
ATOM     50  C   SER B 367      29.865 -10.460  -0.795  1.00 22.30 LIG 0.20  C 
ATOM     51 O    SER B 367      28.927 -10.069  -1.525  1.00 20.52 LIG-0.65  OA
ATOM     52 OXT  SER B 367      29.705 -11.109   0.263  1.00 22.33 LIG-0.65  OA
ENDBRANCH 46 50
ENDBRANCH 44 46
ENDBRANCH 41 42
BRANCH 41 53
ATOM     53  CB  SER B 366      34.961 -13.093  -2.620  1.00 25.29 LIG 0.20  C 
BRANCH 53 54
ATOM     54 OG   SER B 366      35.468 -13.851  -3.706  1.00 34.76 LIG-0.40  OA
ATOM     55 HG   SER B 366      34.837 -14.267  -4.075  1.00 34.76 LIG 0.21  HD
ENDBRANCH 53 54
ENDBRANCH 41 53
ENDBRANCH 39 41
ENDBRANCH 36 37
BRANCH 36 56
ATOM     56  CB  HIS B 365      30.772 -13.160  -6.595  1.00 23.96 LIG 0.10  C 
BRANCH 56 57
ATOM     57  CG  HIS B 365      29.956 -12.137  -5.869  1.00 26.34 LIG 0.06  A 
ATOM     58 ND1  HIS B 365      30.436 -11.437  -4.783  1.00 28.92 LIG-0.24  NA
ATOM     59  CE1 HIS B 365      29.529 -10.562  -4.389  1.00 27.03 LIG 0.23  A 
ATOM     60 NE2  HIS B 365      28.476 -10.670  -5.179  1.00 28.88 LIG-0.25  NA
ATOM     61  CD2 HIS B 365      28.716 -11.650  -6.113  1.00 26.83 LIG 0.14  A 
ENDBRANCH 56 57
ENDBRANCH 36 56
ENDBRANCH 33 36
ENDBRANCH 1 32
TORSDOF 23
ENDMDL
MODEL 18
USER: ADFR SOLUTION from run 168
USER: SCORE 16.645374 LL:  -3.919 LR: -14.384 RR:   0.000 FEB:  -7.523
USER: RMSD 10.564785
USER: SEED 167
USER: STATUS searching
USER: GENES 25
USER: genes 0 Translation |==|  0.58461 0.49816 0.49737
USER: genes 1 Rotation |==|  0.68809 0.68913 0.91964 0.55244
USER: genes 2 Torsion [CB]-CA--N-[C] |==|  0.49479
USER: genes 3 Torsion [N]-C--CA-[N] |==|  0.91399
USER: genes 4 Torsion [C]-CA--CB-[CG] |==|  0.53164
USER: genes 5 Torsion [CA]-CB--CG-[CD] |==|  0.84705
USER: genes 6 Torsion [CB]-CG--CD-[NE] |==|  0.67624
USER: genes 7 Torsion [CG]-CD--NE-[HE] |==|  0.15362
USER: genes 8 Torsion [C]-CA--N-[C] |==|  0.86111
USER: genes 9 Torsion [N]-C--CA-[N] |==|  0.36962
USER: genes 10 Torsion [C]-CA--N-[C] |==|  0.83495
USER: genes 11 Torsion [N]-C--CA-[N] |==|  0.64195
USER: genes 12 Torsion [N]-CA--C-[N] |==|  0.32008
USER: genes 13 Torsion [C]-N--CA-[C] |==|  0.78902
USER: genes 14 Torsion [N]-CA--C-[N] |==|  0.89277
USER: genes 15 Torsion [C]-N--CA-[C] |==|  0.57355
USER: genes 16 Torsion [N]-CA--C-[N] |==|  0.00339
USER: genes 17 Torsion [C]-N--CA-[CB] |==|  0.16852
USER: genes 18 Torsion [N]-CA--CB-[OG] |==|  0.29151
USER: genes 19 Torsion [CA]-CB--OG-[HG] |==|  0.26136
USER: genes 20 Torsion [N]-CA--C-[OXT] |==|  0.02818
USER: genes 21 Torsion [N]-CA--CB-[OG] |==|  0.82184
USER: genes 22 Torsion [CA]-CB--OG-[HG] |==|  0.03852
USER: genes 23 Torsion [N]-CA--CB-[CG] |==|  0.56985
USER: genes 24 Torsion [CA]-CB--CG-[CD2] |==|  0.50804
ROOT
ATOM      1  CA  ALA B 364      34.670 -14.794  -8.196  1.00 28.10 LIG 0.17  C 
ATOM      2  CB  ALA B 364      35.266 -16.167  -7.939  1.00 26.12 LIG 0.04  C 
ENDROOT
BRANCH 1 3
ATOM      3  N   ALA B 364      35.733 -13.824  -8.444  1.00 32.12 LIG-0.35  N 
ATOM      4 H    ALA B 364      36.529 -14.144  -8.387  1.00 32.12 LIG 0.16  HD
ATOM      5  C   ARG B 363      35.457 -12.557  -8.731  1.00 35.84 LIG 0.24  C 
ATOM      6 O    ARG B 363      34.306 -12.135  -8.820  1.00 34.68 LIG-0.27  OA
BRANCH 5 7
ATOM      7  CA  ARG B 363      36.654 -11.624  -8.946  1.00 40.75 LIG 0.18  C 
BRANCH 7 8
ATOM      8  CB  ARG B 363      37.000 -11.567 -10.441  1.00 43.30 LIG 0.04  C 
BRANCH 8 9
ATOM      9  CG  ARG B 363      38.335 -10.891 -10.728  1.00 48.42 LIG 0.02  C 
BRANCH 9 10
ATOM     10  CD  ARG B 363      38.431  -9.490 -10.138  1.00 50.65 LIG 0.14  C 
BRANCH 10 11
ATOM     11  NE  ARG B 363      38.570  -8.485 -11.192  1.00 53.91 LIG-0.23  N 
ATOM     12 HE   ARG B 363      37.973  -8.467 -11.809  1.00 53.91 LIG 0.18  HD
ATOM     13  CZ  ARG B 363      39.558  -7.595 -11.261  1.00 54.64 LIG 0.67  C 
ATOM     14  NH2 ARG B 363      39.599  -6.723 -12.261  1.00 53.91 LIG-0.23  N 
ATOM     15  NH1 ARG B 363      40.506  -7.575 -10.332  1.00 54.84 LIG-0.23  N 
ATOM     16 1HH2 ARG B 363      38.987  -6.733 -12.865  1.00 53.91 LIG 0.17  HD
ATOM     17 2HH2 ARG B 363      40.237  -6.148 -12.304  1.00 53.91 LIG 0.17  HD
ATOM     18 1HH1 ARG B 363      40.484  -8.139  -9.684  1.00 54.84 LIG 0.17  HD
ATOM     19 2HH1 ARG B 363      41.143  -6.999 -10.380  1.00 54.84 LIG 0.17  HD
ENDBRANCH 10 11
ENDBRANCH 9 10
ENDBRANCH 8 9
ENDBRANCH 7 8
BRANCH 7 20
ATOM     20  N   ARG B 363      37.838 -11.975  -8.169  1.00 43.94 LIG-0.35  N 
ATOM     21  C   ALA B 362      37.806 -12.209  -6.859  1.00 45.99 LIG 0.24  C 
ATOM     22 O    ALA B 362      36.779 -12.137  -6.180  1.00 46.10 LIG-0.27  OA
ATOM     23 H    ARG B 363      38.559 -12.016  -8.637  1.00 43.94 LIG 0.16  HD
BRANCH 21 24
ATOM     24  CA  ALA B 362      39.143 -12.569  -6.222  1.00 47.39 LIG 0.17  C 
ATOM     25  CB  ALA B 362      39.195 -14.061  -5.911  1.00 48.25 LIG 0.04  C 
BRANCH 24 26
ATOM     26  N   ALA B 362      39.341 -11.796  -5.003  1.00 48.90 LIG-0.35  N 
ATOM     27  C   GLY B 361      39.363 -10.468  -5.008  1.00 49.70 LIG 0.25  C 
ATOM     28 O    GLY B 361      39.225  -9.796  -6.035  1.00 50.52 LIG-0.27  OA
ATOM     29 H    ALA B 362      39.441 -12.273  -4.294  1.00 48.90 LIG 0.16  HD
BRANCH 27 30
ATOM     30  CA  GLY B 361      39.575  -9.797  -3.667  1.00 49.65 LIG 0.47  C 
ATOM     31  N   GLY B 361      38.547  -8.759  -3.400  1.00 49.05 LIG 0.61  N 
ENDBRANCH 27 30
ENDBRANCH 24 26
ENDBRANCH 21 24
ENDBRANCH 7 20
ENDBRANCH 5 7
ENDBRANCH 1 3
BRANCH 1 32
ATOM     32  C   ALA B 364      33.874 -14.315  -6.981  1.00 26.37 LIG 0.24  C 
ATOM     33  N   HIS B 365      32.603 -13.977  -7.186  1.00 23.61 LIG-0.35  N 
ATOM     34 H    HIS B 365      32.210 -14.024  -7.950  1.00 23.61 LIG 0.16  HD
ATOM     35 O    ALA B 364      34.408 -14.248  -5.874  1.00 24.80 LIG-0.27  OA
BRANCH 33 36
ATOM     36  CA  HIS B 365      31.759 -13.485  -6.100  1.00 22.03 LIG 0.18  C 
BRANCH 36 37
ATOM     37  C   HIS B 365      31.306 -14.613  -5.177  1.00 20.85 LIG 0.24  C 
ATOM     38 O    HIS B 365      31.244 -14.449  -3.961  1.00 18.88 LIG-0.27  OA
ATOM     39  N   SER B 366      30.997 -15.762  -5.771  1.00 20.61 LIG-0.34  N 
ATOM     40 H    SER B 366      31.038 -15.884  -6.621  1.00 20.61 LIG 0.16  HD
BRANCH 39 41
ATOM     41  CA  SER B 366      30.557 -16.934  -5.022  1.00 22.02 LIG 0.20  C 
BRANCH 41 42
ATOM     42  C   SER B 366      30.895 -18.208  -5.784  1.00 20.47 LIG 0.24  C 
ATOM     43 O    SER B 366      30.588 -19.311  -5.327  1.00 18.56 LIG-0.27  OA
ATOM     44  N   SER B 367      31.530 -18.051  -6.941  1.00 19.80 LIG-0.34  N 
ATOM     45 H    SER B 367      31.744 -17.286  -7.271  1.00 19.80 LIG 0.16  HD
BRANCH 44 46
ATOM     46  CA  SER B 367      31.924 -19.193  -7.761  1.00 20.54 LIG 0.21  C 
BRANCH 46 47
ATOM     47  CB  SER B 367      30.696 -20.006  -8.187  1.00 20.61 LIG 0.20  C 
BRANCH 47 48
ATOM     48 OG   SER B 367      30.371 -19.783  -9.548  1.00 20.78 LIG-0.40  OA
ATOM     49 HG   SER B 367      30.733 -20.374 -10.023  1.00 20.78 LIG 0.21  HD
ENDBRANCH 47 48
ENDBRANCH 46 47
BRANCH 46 50
ATOM     50  C   SER B 367      32.682 -18.727  -9.001  1.00 22.30 LIG 0.20  C 
ATOM     51 O    SER B 367      32.902 -19.564  -9.906  1.00 20.52 LIG-0.65  OA
ATOM     52 OXT  SER B 367      33.029 -17.527  -9.058  1.00 22.33 LIG-0.65  OA
ENDBRANCH 46 50
ENDBRANCH 44 46
ENDBRANCH 41 42
BRANCH 41 53
ATOM     53  CB  SER B 366      29.042 -16.878  -4.797  1.00 25.29 LIG 0.20  C 
BRANCH 53 54
ATOM     54 OG   SER B 366      28.687 -15.770  -3.985  1.00 34.76 LIG-0.40  OA
ATOM     55 HG   SER B 366      29.339 -15.242  -3.931  1.00 34.76 LIG 0.21  HD
ENDBRANCH 53 54
ENDBRANCH 41 53
ENDBRANCH 39 41
ENDBRANCH 36 37
BRANCH 36 56
ATOM     56  CB  HIS B 365      30.525 -12.793  -6.676  1.00 23.96 LIG 0.10  C 
BRANCH 56 57
ATOM     57  CG  HIS B 365      29.931 -11.774  -5.754  1.00 26.34 LIG 0.06  A 
ATOM     58 ND1  HIS B 365      30.530 -11.405  -4.569  1.00 28.92 LIG-0.24  NA
ATOM     59  CE1 HIS B 365      29.821 -10.448  -3.999  1.00 27.03 LIG 0.23  A 
ATOM     60 NE2  HIS B 365      28.782 -10.184  -4.771  1.00 28.88 LIG-0.25  NA
ATOM     61  CD2 HIS B 365      28.826 -11.002  -5.874  1.00 26.83 LIG 0.14  A 
ENDBRANCH 56 57
ENDBRANCH 36 56
ENDBRANCH 33 36
ENDBRANCH 1 32
TORSDOF 23
ENDMDL
MODEL 19
USER: ADFR SOLUTION from run 84
USER: SCORE 16.086562 LL:  -3.339 LR: -14.317 RR:   0.000 FEB:  -7.456
USER: RMSD 11.312936
USER: SEED 83
USER: STATUS no improvement in best in 11 clusters for 5 generations
USER: GENES 25
USER: genes 0 Translation |==|  0.52629 0.42132 0.51628
USER: genes 1 Rotation |==|  0.69410 0.73347 0.89530 0.53941
USER: genes 2 Torsion [CB]-CA--N-[C] |==|  0.82687
USER: genes 3 Torsion [N]-C--CA-[N] |==|  0.83864
USER: genes 4 Torsion [C]-CA--CB-[CG] |==|  0.58803
USER: genes 5 Torsion [CA]-CB--CG-[CD] |==|  0.83254
USER: genes 6 Torsion [CB]-CG--CD-[NE] |==|  0.63971
USER: genes 7 Torsion [CG]-CD--NE-[HE] |==|  0.06330
USER: genes 8 Torsion [C]-CA--N-[C] |==|  0.66670
USER: genes 9 Torsion [N]-C--CA-[N] |==|  0.29262
USER: genes 10 Torsion [C]-CA--N-[C] |==|  0.63119
USER: genes 11 Torsion [N]-C--CA-[N] |==|  0.68604
USER: genes 12 Torsion [N]-CA--C-[N] |==|  0.20887
USER: genes 13 Torsion [C]-N--CA-[C] |==|  0.83333
USER: genes 14 Torsion [N]-CA--C-[N] |==|  0.95467
USER: genes 15 Torsion [C]-N--CA-[C] |==|  0.17597
USER: genes 16 Torsion [N]-CA--C-[N] |==|  0.11263
USER: genes 17 Torsion [C]-N--CA-[CB] |==|  0.28161
USER: genes 18 Torsion [N]-CA--CB-[OG] |==|  0.05679
USER: genes 19 Torsion [CA]-CB--OG-[HG] |==|  0.29389
USER: genes 20 Torsion [N]-CA--C-[OXT] |==|  0.59405
USER: genes 21 Torsion [N]-CA--CB-[OG] |==|  0.87454
USER: genes 22 Torsion [CA]-CB--OG-[HG] |==|  0.20787
USER: genes 23 Torsion [N]-CA--CB-[CG] |==|  0.58999
USER: genes 24 Torsion [CA]-CB--CG-[CD2] |==|  0.56028
ROOT
ATOM      1  CA  ALA B 364      33.227 -16.234  -7.785  1.00 28.10 LIG 0.17  C 
ATOM      2  CB  ALA B 364      33.975 -17.491  -7.376  1.00 26.12 LIG 0.04  C 
ENDROOT
BRANCH 1 3
ATOM      3  N   ALA B 364      34.163 -15.235  -8.290  1.00 32.12 LIG-0.35  N 
ATOM      4 H    ALA B 364      34.042 -15.014  -9.112  1.00 32.12 LIG 0.16  HD
ATOM      5  C   ARG B 363      35.115 -14.729  -7.514  1.00 35.84 LIG 0.24  C 
ATOM      6 O    ARG B 363      35.252 -15.055  -6.337  1.00 34.68 LIG-0.27  OA
BRANCH 5 7
ATOM      7  CA  ARG B 363      36.057 -13.706  -8.159  1.00 40.75 LIG 0.18  C 
BRANCH 7 8
ATOM      8  CB  ARG B 363      35.270 -12.438  -8.520  1.00 43.30 LIG 0.04  C 
BRANCH 8 9
ATOM      9  CG  ARG B 363      35.804 -11.725  -9.757  1.00 48.42 LIG 0.02  C 
BRANCH 9 10
ATOM     10  CD  ARG B 363      37.249 -11.272  -9.604  1.00 50.65 LIG 0.14  C 
BRANCH 10 11
ATOM     11  NE  ARG B 363      37.400  -9.863  -9.970  1.00 53.91 LIG-0.23  N 
ATOM     12 HE   ARG B 363      36.701  -9.364  -9.934  1.00 53.91 LIG 0.18  HD
ATOM     13  CZ  ARG B 363      38.543  -9.300 -10.355  1.00 54.64 LIG 0.67  C 
ATOM     14  NH2 ARG B 363      38.576  -8.011 -10.671  1.00 53.91 LIG-0.23  N 
ATOM     15  NH1 ARG B 363      39.653 -10.023 -10.426  1.00 54.84 LIG-0.23  N 
ATOM     16 1HH2 ARG B 363      37.859  -7.539 -10.627  1.00 53.91 LIG 0.17  HD
ATOM     17 2HH2 ARG B 363      39.315  -7.648 -10.919  1.00 53.91 LIG 0.17  HD
ATOM     18 1HH1 ARG B 363      39.636 -10.859 -10.224  1.00 54.84 LIG 0.17  HD
ATOM     19 2HH1 ARG B 363      40.390  -9.657 -10.675  1.00 54.84 LIG 0.17  HD
ENDBRANCH 10 11
ENDBRANCH 9 10
ENDBRANCH 8 9
ENDBRANCH 7 8
BRANCH 7 20
ATOM     20  N   ARG B 363      36.775 -14.203  -9.329  1.00 43.94 LIG-0.35  N 
ATOM     21  C   ALA B 362      38.102 -14.258  -9.399  1.00 45.99 LIG 0.24  C 
ATOM     22 O    ALA B 362      38.847 -13.882  -8.491  1.00 46.10 LIG-0.27  OA
ATOM     23 H    ARG B 363      36.259 -14.456  -9.969  1.00 43.94 LIG 0.16  HD
BRANCH 21 24
ATOM     24  CA  ALA B 362      38.670 -14.814 -10.700  1.00 47.39 LIG 0.17  C 
ATOM     25  CB  ALA B 362      39.753 -15.847 -10.404  1.00 48.25 LIG 0.04  C 
BRANCH 24 26
ATOM     26  N   ALA B 362      39.217 -13.733 -11.510  1.00 48.90 LIG-0.35  N 
ATOM     27  C   GLY B 361      38.943 -13.618 -12.805  1.00 49.70 LIG 0.25  C 
ATOM     28 O    GLY B 361      38.220 -14.411 -13.413  1.00 50.52 LIG-0.27  OA
ATOM     29 H    ALA B 362      39.724 -13.189 -11.078  1.00 48.90 LIG 0.16  HD
BRANCH 27 30
ATOM     30  CA  GLY B 361      39.580 -12.444 -13.520  1.00 49.65 LIG 0.47  C 
ATOM     31  N   GLY B 361      38.566 -11.452 -13.963  1.00 49.05 LIG 0.61  N 
ENDBRANCH 27 30
ENDBRANCH 24 26
ENDBRANCH 21 24
ENDBRANCH 7 20
ENDBRANCH 5 7
ENDBRANCH 1 3
BRANCH 1 32
ATOM     32  C   ALA B 364      32.496 -15.627  -6.586  1.00 26.37 LIG 0.24  C 
ATOM     33  N   HIS B 365      31.554 -14.724  -6.847  1.00 23.61 LIG-0.35  N 
ATOM     34 H    HIS B 365      31.330 -14.477  -7.640  1.00 23.61 LIG 0.16  HD
ATOM     35 O    ALA B 364      32.788 -15.969  -5.441  1.00 24.80 LIG-0.27  OA
BRANCH 33 36
ATOM     36  CA  HIS B 365      30.811 -14.065  -5.775  1.00 22.03 LIG 0.18  C 
BRANCH 36 37
ATOM     37  C   HIS B 365      30.046 -15.066  -4.915  1.00 20.85 LIG 0.24  C 
ATOM     38 O    HIS B 365      29.619 -14.751  -3.807  1.00 18.88 LIG-0.27  OA
ATOM     39  N   SER B 366      29.885 -16.279  -5.436  1.00 20.61 LIG-0.34  N 
ATOM     40 H    SER B 366      30.181 -16.506  -6.212  1.00 20.61 LIG 0.16  HD
BRANCH 39 41
ATOM     41  CA  SER B 366      29.184 -17.346  -4.731  1.00 22.02 LIG 0.20  C 
BRANCH 41 42
ATOM     42  C   SER B 366      27.727 -16.967  -4.509  1.00 20.47 LIG 0.24  C 
ATOM     43 O    SER B 366      27.166 -17.229  -3.443  1.00 18.56 LIG-0.27  OA
ATOM     44  N   SER B 367      27.118 -16.355  -5.520  1.00 19.80 LIG-0.34  N 
ATOM     45 H    SER B 367      27.501 -16.162  -6.266  1.00 19.80 LIG 0.16  HD
BRANCH 44 46
ATOM     46  CA  SER B 367      25.716 -15.952  -5.441  1.00 20.54 LIG 0.21  C 
BRANCH 46 47
ATOM     47  CB  SER B 367      25.597 -14.451  -5.152  1.00 20.61 LIG 0.20  C 
BRANCH 47 48
ATOM     48 OG   SER B 367      26.786 -13.760  -5.490  1.00 20.78 LIG-0.40  OA
ATOM     49 HG   SER B 367      26.665 -13.323  -6.197  1.00 20.78 LIG 0.21  HD
ENDBRANCH 47 48
ENDBRANCH 46 47
BRANCH 46 50
ATOM     50  C   SER B 367      24.990 -16.280  -6.742  1.00 22.30 LIG 0.20  C 
ATOM     51 O    SER B 367      25.326 -17.314  -7.361  1.00 20.52 LIG-0.65  OA
ATOM     52 OXT  SER B 367      24.081 -15.505  -7.116  1.00 22.33 LIG-0.65  OA
ENDBRANCH 46 50
ENDBRANCH 44 46
ENDBRANCH 41 42
BRANCH 41 53
ATOM     53  CB  SER B 366      29.843 -17.600  -3.370  1.00 25.29 LIG 0.20  C 
BRANCH 53 54
ATOM     54 OG   SER B 366      31.255 -17.649  -3.488  1.00 34.76 LIG-0.40  OA
ATOM     55 HG   SER B 366      31.555 -16.871  -3.591  1.00 34.76 LIG 0.21  HD
ENDBRANCH 53 54
ENDBRANCH 41 53
ENDBRANCH 39 41
ENDBRANCH 36 37
BRANCH 36 56
ATOM     56  CB  HIS B 365      29.818 -13.068  -6.372  1.00 23.96 LIG 0.10  C 
BRANCH 56 57
ATOM     57  CG  HIS B 365      29.589 -11.869  -5.505  1.00 26.34 LIG 0.06  A 
ATOM     58 ND1  HIS B 365      30.521 -11.421  -4.594  1.00 28.92 LIG-0.24  NA
ATOM     59  CE1 HIS B 365      30.079 -10.315  -4.022  1.00 27.03 LIG 0.23  A 
ATOM     60 NE2  HIS B 365      28.892 -10.031  -4.528  1.00 28.88 LIG-0.25  NA
ATOM     61  CD2 HIS B 365      28.562 -10.989  -5.456  1.00 26.83 LIG 0.14  A 
ENDBRANCH 56 57
ENDBRANCH 36 56
ENDBRANCH 33 36
ENDBRANCH 1 32
TORSDOF 23
ENDMDL
MODEL 20
USER: ADFR SOLUTION from run 56
USER: SCORE 16.695362 LL:  -3.740 LR: -14.280 RR:   0.000 FEB:  -7.419
USER: RMSD 6.625080
USER: SEED 55
USER: STATUS searching
USER: GENES 25
USER: genes 0 Translation |==|  0.44505 0.57773 0.55582
USER: genes 1 Rotation |==|  0.30527 0.45570 0.42940 0.95291
USER: genes 2 Torsion [CB]-CA--N-[C] |==|  0.13395
USER: genes 3 Torsion [N]-C--CA-[N] |==|  0.07738
USER: genes 4 Torsion [C]-CA--CB-[CG] |==|  0.44755
USER: genes 5 Torsion [CA]-CB--CG-[CD] |==|  0.31460
USER: genes 6 Torsion [CB]-CG--CD-[NE] |==|  0.69522
USER: genes 7 Torsion [CG]-CD--NE-[HE] |==|  0.82323
USER: genes 8 Torsion [C]-CA--N-[C] |==|  0.17730
USER: genes 9 Torsion [N]-C--CA-[N] |==|  0.08353
USER: genes 10 Torsion [C]-CA--N-[C] |==|  0.14539
USER: genes 11 Torsion [N]-C--CA-[N] |==|  0.56379
USER: genes 12 Torsion [N]-CA--C-[N] |==|  0.57985
USER: genes 13 Torsion [C]-N--CA-[C] |==|  0.53937
USER: genes 14 Torsion [N]-CA--C-[N] |==|  0.46555
USER: genes 15 Torsion [C]-N--CA-[C] |==|  0.74073
USER: genes 16 Torsion [N]-CA--C-[N] |==|  0.99761
USER: genes 17 Torsion [C]-N--CA-[CB] |==|  0.44976
USER: genes 18 Torsion [N]-CA--CB-[OG] |==|  0.44935
USER: genes 19 Torsion [CA]-CB--OG-[HG] |==|  0.90941
USER: genes 20 Torsion [N]-CA--C-[OXT] |==|  0.20854
USER: genes 21 Torsion [N]-CA--CB-[OG] |==|  0.78306
USER: genes 22 Torsion [CA]-CB--OG-[HG] |==|  0.94886
USER: genes 23 Torsion [N]-CA--CB-[CG] |==|  0.11730
USER: genes 24 Torsion [CA]-CB--CG-[CD2] |==|  0.24661
ROOT
ATOM      1  CA  ALA B 364      31.216 -13.302  -6.925  1.00 28.10 LIG 0.17  C 
ATOM      2  CB  ALA B 364      30.762 -12.513  -8.141  1.00 26.12 LIG 0.04  C 
ENDROOT
BRANCH 1 3
ATOM      3  N   ALA B 364      30.513 -12.834  -5.734  1.00 32.12 LIG-0.35  N 
ATOM      4 H    ALA B 364      31.020 -12.678  -5.057  1.00 32.12 LIG 0.16  HD
ATOM      5  C   ARG B 363      29.194 -12.675  -5.731  1.00 35.84 LIG 0.24  C 
ATOM      6 O    ARG B 363      28.499 -12.892  -6.721  1.00 34.68 LIG-0.27  OA
BRANCH 5 7
ATOM      7  CA  ARG B 363      28.562 -12.204  -4.416  1.00 40.75 LIG 0.18  C 
BRANCH 7 8
ATOM      8  CB  ARG B 363      27.272 -11.427  -4.714  1.00 43.30 LIG 0.04  C 
BRANCH 8 9
ATOM      9  CG  ARG B 363      26.343 -11.312  -3.511  1.00 48.42 LIG 0.02  C 
BRANCH 9 10
ATOM     10  CD  ARG B 363      26.201  -9.883  -3.005  1.00 50.65 LIG 0.14  C 
BRANCH 10 11
ATOM     11  NE  ARG B 363      26.864  -9.715  -1.711  1.00 53.91 LIG-0.23  N 
ATOM     12 HE   ARG B 363      26.559 -10.165  -1.045  1.00 53.91 LIG 0.18  HD
ATOM     13  CZ  ARG B 363      27.906  -8.915  -1.494  1.00 54.64 LIG 0.67  C 
ATOM     14  NH2 ARG B 363      28.436  -8.829  -0.281  1.00 53.91 LIG-0.23  N 
ATOM     15  NH1 ARG B 363      28.418  -8.200  -2.488  1.00 54.84 LIG-0.23  N 
ATOM     16 1HH2 ARG B 363      28.106  -9.289   0.366  1.00 53.91 LIG 0.17  HD
ATOM     17 2HH2 ARG B 363      29.109  -8.312  -0.141  1.00 53.91 LIG 0.17  HD
ATOM     18 1HH1 ARG B 363      28.076  -8.252  -3.275  1.00 54.84 LIG 0.17  HD
ATOM     19 2HH1 ARG B 363      29.090  -7.684  -2.344  1.00 54.84 LIG 0.17  HD
ENDBRANCH 10 11
ENDBRANCH 9 10
ENDBRANCH 8 9
ENDBRANCH 7 8
BRANCH 7 20
ATOM     20  N   ARG B 363      29.448 -11.404  -3.575  1.00 43.94 LIG-0.35  N 
ATOM     21  C   ALA B 362      29.925 -10.218  -3.942  1.00 45.99 LIG 0.24  C 
ATOM     22 O    ALA B 362      29.678  -9.692  -5.029  1.00 46.10 LIG-0.27  OA
ATOM     23 H    ARG B 363      29.631 -11.772  -2.819  1.00 43.94 LIG 0.16  HD
BRANCH 21 24
ATOM     24  CA  ALA B 362      30.829  -9.529  -2.925  1.00 47.39 LIG 0.17  C 
ATOM     25  CB  ALA B 362      31.826  -8.620  -3.636  1.00 48.25 LIG 0.04  C 
BRANCH 24 26
ATOM     26  N   ALA B 362      31.537 -10.524  -2.130  1.00 48.90 LIG-0.35  N 
ATOM     27  C   GLY B 361      32.234 -11.506  -2.690  1.00 49.70 LIG 0.25  C 
ATOM     28 O    GLY B 361      32.326 -11.653  -3.912  1.00 50.52 LIG-0.27  OA
ATOM     29 H    ALA B 362      31.463 -10.415  -1.280  1.00 48.90 LIG 0.16  HD
BRANCH 27 30
ATOM     30  CA  GLY B 361      32.920 -12.465  -1.740  1.00 49.65 LIG 0.47  C 
ATOM     31  N   GLY B 361      34.068 -13.154  -2.385  1.00 49.05 LIG 0.61  N 
ENDBRANCH 27 30
ENDBRANCH 24 26
ENDBRANCH 21 24
ENDBRANCH 7 20
ENDBRANCH 5 7
ENDBRANCH 1 3
BRANCH 1 32
ATOM     32  C   ALA B 364      32.716 -13.112  -6.688  1.00 26.37 LIG 0.24  C 
ATOM     33  N   HIS B 365      33.475 -12.905  -7.761  1.00 23.61 LIG-0.35  N 
ATOM     34 H    HIS B 365      33.171 -12.860  -8.564  1.00 23.61 LIG 0.16  HD
ATOM     35 O    ALA B 364      33.176 -13.160  -5.548  1.00 24.80 LIG-0.27  OA
BRANCH 33 36
ATOM     36  CA  HIS B 365      34.921 -12.734  -7.650  1.00 22.03 LIG 0.18  C 
BRANCH 36 37
ATOM     37  C   HIS B 365      35.529 -12.172  -8.933  1.00 20.85 LIG 0.24  C 
ATOM     38 O    HIS B 365      34.880 -12.134  -9.975  1.00 18.88 LIG-0.27  OA
ATOM     39  N   SER B 366      36.785 -11.745  -8.843  1.00 20.61 LIG-0.34  N 
ATOM     40 H    SER B 366      37.245 -11.768  -8.116  1.00 20.61 LIG 0.16  HD
BRANCH 39 41
ATOM     41  CA  SER B 366      37.504 -11.192  -9.984  1.00 22.02 LIG 0.20  C 
BRANCH 41 42
ATOM     42  C   SER B 366      38.300 -12.281 -10.689  1.00 20.47 LIG 0.24  C 
ATOM     43 O    SER B 366      38.963 -12.021 -11.695  1.00 18.56 LIG-0.27  OA
ATOM     44  N   SER B 367      38.226 -13.499 -10.161  1.00 19.80 LIG-0.34  N 
ATOM     45 H    SER B 367      37.770 -13.690  -9.457  1.00 19.80 LIG 0.16  HD
BRANCH 44 46
ATOM     46  CA  SER B 367      38.930 -14.635 -10.750  1.00 20.54 LIG 0.21  C 
BRANCH 46 47
ATOM     47  CB  SER B 367      39.052 -15.782  -9.741  1.00 20.61 LIG 0.20  C 
BRANCH 47 48
ATOM     48 OG   SER B 367      39.342 -17.011 -10.382  1.00 20.78 LIG-0.40  OA
ATOM     49 HG   SER B 367      38.978 -17.025 -11.139  1.00 20.78 LIG 0.21  HD
ENDBRANCH 47 48
ENDBRANCH 46 47
BRANCH 46 50
ATOM     50  C   SER B 367      38.201 -15.130 -11.997  1.00 22.30 LIG 0.20  C 
ATOM     51 O    SER B 367      37.528 -16.181 -11.907  1.00 20.52 LIG-0.65  OA
ATOM     52 OXT  SER B 367      38.299 -14.448 -13.042  1.00 22.33 LIG-0.65  OA
ENDBRANCH 46 50
ENDBRANCH 44 46
ENDBRANCH 41 42
BRANCH 41 53
ATOM     53  CB  SER B 366      38.469 -10.095  -9.520  1.00 25.29 LIG 0.20  C 
BRANCH 53 54
ATOM     54 OG   SER B 366      37.779  -8.883  -9.264  1.00 34.76 LIG-0.40  OA
ATOM     55 HG   SER B 366      37.029  -8.902  -9.643  1.00 34.76 LIG 0.21  HD
ENDBRANCH 53 54
ENDBRANCH 41 53
ENDBRANCH 39 41
ENDBRANCH 36 37
BRANCH 36 56
ATOM     56  CB  HIS B 365      35.579 -14.078  -7.341  1.00 23.96 LIG 0.10  C 
BRANCH 56 57
ATOM     57  CG  HIS B 365      35.010 -15.214  -8.133  1.00 26.34 LIG 0.06  A 
ATOM     58 ND1  HIS B 365      33.913 -15.937  -7.714  1.00 28.92 LIG-0.24  NA
ATOM     59  CE1 HIS B 365      33.597 -16.827  -8.637  1.00 27.03 LIG 0.23  A 
ATOM     60 NE2  HIS B 365      34.449 -16.709  -9.639  1.00 28.88 LIG-0.25  NA
ATOM     61  CD2 HIS B 365      35.345 -15.708  -9.348  1.00 26.83 LIG 0.14  A 
ENDBRANCH 56 57
ENDBRANCH 36 56
ENDBRANCH 33 36
ENDBRANCH 1 32
TORSDOF 23
ENDMDL
MODEL 21
USER: ADFR SOLUTION from run 175
USER: SCORE 16.877441 LL:  -3.716 LR: -14.282 RR:   0.000 FEB:  -7.421
USER: RMSD 11.903746
USER: SEED 174
USER: STATUS no improvement in best in 13 clusters for 5 generations
USER: GENES 25
USER: genes 0 Translation |==|  0.59014 0.49208 0.48484
USER: genes 1 Rotation |==|  0.67095 0.70615 0.91214 0.59174
USER: genes 2 Torsion [CB]-CA--N-[C] |==|  0.48378
USER: genes 3 Torsion [N]-C--CA-[N] |==|  0.19333
USER: genes 4 Torsion [C]-CA--CB-[CG] |==|  0.43567
USER: genes 5 Torsion [CA]-CB--CG-[CD] |==|  0.19174
USER: genes 6 Torsion [CB]-CG--CD-[NE] |==|  0.26064
USER: genes 7 Torsion [CG]-CD--NE-[HE] |==|  0.77205
USER: genes 8 Torsion [C]-CA--N-[C] |==|  0.76734
USER: genes 9 Torsion [N]-C--CA-[N] |==|  0.03093
USER: genes 10 Torsion [C]-CA--N-[C] |==|  0.71168
USER: genes 11 Torsion [N]-C--CA-[N] |==|  0.99183
USER: genes 12 Torsion [N]-CA--C-[N] |==|  0.45000
USER: genes 13 Torsion [C]-N--CA-[C] |==|  0.61629
USER: genes 14 Torsion [N]-CA--C-[N] |==|  0.44156
USER: genes 15 Torsion [C]-N--CA-[C] |==|  0.76121
USER: genes 16 Torsion [N]-CA--C-[N] |==|  0.91301
USER: genes 17 Torsion [C]-N--CA-[CB] |==|  0.88264
USER: genes 18 Torsion [N]-CA--CB-[OG] |==|  0.55023
USER: genes 19 Torsion [CA]-CB--OG-[HG] |==|  0.00217
USER: genes 20 Torsion [N]-CA--C-[OXT] |==|  0.00711
USER: genes 21 Torsion [N]-CA--CB-[OG] |==|  0.20392
USER: genes 22 Torsion [CA]-CB--OG-[HG] |==|  0.14780
USER: genes 23 Torsion [N]-CA--CB-[CG] |==|  0.51502
USER: genes 24 Torsion [CA]-CB--CG-[CD2] |==|  0.60681
ROOT
ATOM      1  CA  ALA B 364      34.807 -14.907  -8.469  1.00 28.10 LIG 0.17  C 
ATOM      2  CB  ALA B 364      35.251 -16.273  -7.975  1.00 26.12 LIG 0.04  C 
ENDROOT
BRANCH 1 3
ATOM      3  N   ALA B 364      35.971 -14.066  -8.729  1.00 32.12 LIG-0.35  N 
ATOM      4 H    ALA B 364      36.723 -14.414  -8.499  1.00 32.12 LIG 0.16  HD
ATOM      5  C   ARG B 363      35.843 -12.863  -9.278  1.00 35.84 LIG 0.24  C 
ATOM      6 O    ARG B 363      34.754 -12.400  -9.610  1.00 34.68 LIG-0.27  OA
BRANCH 5 7
ATOM      7  CA  ARG B 363      37.132 -12.059  -9.480  1.00 40.75 LIG 0.18  C 
BRANCH 7 8
ATOM      8  CB  ARG B 363      36.784 -10.596  -9.790  1.00 43.30 LIG 0.04  C 
BRANCH 8 9
ATOM      9  CG  ARG B 363      37.910  -9.623  -9.462  1.00 48.42 LIG 0.02  C 
BRANCH 9 10
ATOM     10  CD  ARG B 363      39.109  -9.769 -10.389  1.00 50.65 LIG 0.14  C 
BRANCH 10 11
ATOM     11  NE  ARG B 363      39.021  -8.837 -11.513  1.00 53.91 LIG-0.23  N 
ATOM     12 HE   ARG B 363      38.533  -9.064 -12.184  1.00 53.91 LIG 0.18  HD
ATOM     13  CZ  ARG B 363      39.644  -7.662 -11.571  1.00 54.64 LIG 0.67  C 
ATOM     14  NH2 ARG B 363      39.504  -6.886 -12.639  1.00 53.91 LIG-0.23  N 
ATOM     15  NH1 ARG B 363      40.408  -7.260 -10.563  1.00 54.84 LIG-0.23  N 
ATOM     16 1HH2 ARG B 363      39.011  -7.143 -13.295  1.00 53.91 LIG 0.17  HD
ATOM     17 2HH2 ARG B 363      39.906  -6.127 -12.675  1.00 53.91 LIG 0.17  HD
ATOM     18 1HH1 ARG B 363      40.503  -7.760  -9.870  1.00 54.84 LIG 0.17  HD
ATOM     19 2HH1 ARG B 363      40.809  -6.501 -10.603  1.00 54.84 LIG 0.17  HD
ENDBRANCH 10 11
ENDBRANCH 9 10
ENDBRANCH 8 9
ENDBRANCH 7 8
BRANCH 7 20
ATOM     20  N   ARG B 363      38.020 -12.593 -10.508  1.00 43.94 LIG-0.35  N 
ATOM     21  C   ALA B 362      38.892 -13.572 -10.280  1.00 45.99 LIG 0.24  C 
ATOM     22 O    ALA B 362      39.042 -14.106  -9.178  1.00 46.10 LIG-0.27  OA
ATOM     23 H    ARG B 363      37.926 -12.216 -11.276  1.00 43.94 LIG 0.16  HD
BRANCH 21 24
ATOM     24  CA  ALA B 362      39.729 -14.001 -11.480  1.00 47.39 LIG 0.17  C 
ATOM     25  CB  ALA B 362      41.200 -14.101 -11.089  1.00 48.25 LIG 0.04  C 
BRANCH 24 26
ATOM     26  N   ALA B 362      39.564 -13.050 -12.571  1.00 48.90 LIG-0.35  N 
ATOM     27  C   GLY B 361      38.808 -13.319 -13.630  1.00 49.70 LIG 0.25  C 
ATOM     28 O    GLY B 361      38.201 -14.384 -13.770  1.00 50.52 LIG-0.27  OA
ATOM     29 H    ALA B 362      39.995 -12.313 -12.466  1.00 48.90 LIG 0.16  HD
BRANCH 27 30
ATOM     30  CA  GLY B 361      38.727 -12.236 -14.686  1.00 49.65 LIG 0.47  C 
ATOM     31  N   GLY B 361      39.479 -11.018 -14.287  1.00 49.05 LIG 0.61  N 
ENDBRANCH 27 30
ENDBRANCH 24 26
ENDBRANCH 21 24
ENDBRANCH 7 20
ENDBRANCH 5 7
ENDBRANCH 1 3
BRANCH 1 32
ATOM     32  C   ALA B 364      33.948 -14.206  -7.415  1.00 26.37 LIG 0.24  C 
ATOM     33  N   HIS B 365      32.683 -14.605  -7.304  1.00 23.61 LIG-0.35  N 
ATOM     34 H    HIS B 365      32.334 -15.233  -7.775  1.00 23.61 LIG 0.16  HD
ATOM     35 O    ALA B 364      34.425 -13.311  -6.719  1.00 24.80 LIG-0.27  OA
BRANCH 33 36
ATOM     36  CA  HIS B 365      31.770 -13.987  -6.345  1.00 22.03 LIG 0.18  C 
BRANCH 36 37
ATOM     37  C   HIS B 365      30.900 -15.023  -5.638  1.00 20.85 LIG 0.24  C 
ATOM     38 O    HIS B 365      30.710 -16.131  -6.131  1.00 18.88 LIG-0.27  OA
ATOM     39  N   SER B 366      30.369 -14.643  -4.479  1.00 20.61 LIG-0.34  N 
ATOM     40 H    SER B 366      30.499 -13.869  -4.128  1.00 20.61 LIG 0.16  HD
BRANCH 39 41
ATOM     41  CA  SER B 366      29.509 -15.517  -3.692  1.00 22.02 LIG 0.20  C 
BRANCH 41 42
ATOM     42  C   SER B 366      28.065 -15.405  -4.161  1.00 20.47 LIG 0.24  C 
ATOM     43 O    SER B 366      27.307 -16.374  -4.093  1.00 18.56 LIG-0.27  OA
ATOM     44  N   SER B 367      27.693 -14.222  -4.642  1.00 19.80 LIG-0.34  N 
ATOM     45 H    SER B 367      28.213 -13.538  -4.689  1.00 19.80 LIG 0.16  HD
BRANCH 44 46
ATOM     46  CA  SER B 367      26.341 -13.987  -5.139  1.00 20.54 LIG 0.21  C 
BRANCH 46 47
ATOM     47  CB  SER B 367      25.856 -15.175  -5.978  1.00 20.61 LIG 0.20  C 
BRANCH 47 48
ATOM     48 OG   SER B 367      24.754 -14.820  -6.795  1.00 20.78 LIG-0.40  OA
ATOM     49 HG   SER B 367      24.569 -14.009  -6.679  1.00 20.78 LIG 0.21  HD
ENDBRANCH 47 48
ENDBRANCH 46 47
BRANCH 46 50
ATOM     50  C   SER B 367      25.376 -13.756  -3.979  1.00 22.30 LIG 0.20  C 
ATOM     51 O    SER B 367      24.162 -13.606  -4.244  1.00 20.52 LIG-0.65  OA
ATOM     52 OXT  SER B 367      25.846 -13.746  -2.820  1.00 22.33 LIG-0.65  OA
ENDBRANCH 46 50
ENDBRANCH 44 46
ENDBRANCH 41 42
BRANCH 41 53
ATOM     53  CB  SER B 366      29.579 -15.132  -2.209  1.00 25.29 LIG 0.20  C 
BRANCH 53 54
ATOM     54 OG   SER B 366      28.880 -13.924  -1.963  1.00 34.76 LIG-0.40  OA
ATOM     55 HG   SER B 366      28.097 -13.986  -2.263  1.00 34.76 LIG 0.21  HD
ENDBRANCH 53 54
ENDBRANCH 41 53
ENDBRANCH 39 41
ENDBRANCH 36 37
BRANCH 36 56
ATOM     56  CB  HIS B 365      30.863 -12.990  -7.065  1.00 23.96 LIG 0.10  C 
BRANCH 56 57
ATOM     57  CG  HIS B 365      29.980 -12.214  -6.137  1.00 26.34 LIG 0.06  A 
ATOM     58 ND1  HIS B 365      30.429 -11.701  -4.939  1.00 28.92 LIG-0.24  NA
ATOM     59  CE1 HIS B 365      29.459 -11.013  -4.365  1.00 27.03 LIG 0.23  A 
ATOM     60 NE2  HIS B 365      28.395 -11.063  -5.147  1.00 28.88 LIG-0.25  NA
ATOM     61  CD2 HIS B 365      28.694 -11.809  -6.261  1.00 26.83 LIG 0.14  A 
ENDBRANCH 56 57
ENDBRANCH 36 56
ENDBRANCH 33 36
ENDBRANCH 1 32
TORSDOF 23
ENDMDL
MODEL 22
USER: ADFR SOLUTION from run 29
USER: SCORE 17.366057 LL:  -4.028 LR: -14.266 RR:   0.000 FEB:  -7.405
USER: RMSD 11.910593
USER: SEED 28
USER: STATUS no improvement in best in 4 clusters for 5 generations
USER: GENES 25
USER: genes 0 Translation |==|  0.59389 0.52180 0.47178
USER: genes 1 Rotation |==|  0.70726 0.71095 0.89141 0.59666
USER: genes 2 Torsion [CB]-CA--N-[C] |==|  0.50051
USER: genes 3 Torsion [N]-C--CA-[N] |==|  0.26603
USER: genes 4 Torsion [C]-CA--CB-[CG] |==|  0.42709
USER: genes 5 Torsion [CA]-CB--CG-[CD] |==|  0.42756
USER: genes 6 Torsion [CB]-CG--CD-[NE] |==|  0.79928
USER: genes 7 Torsion [CG]-CD--NE-[HE] |==|  0.17762
USER: genes 8 Torsion [C]-CA--N-[C] |==|  0.76411
USER: genes 9 Torsion [N]-C--CA-[N] |==|  0.13889
USER: genes 10 Torsion [C]-CA--N-[C] |==|  0.18293
USER: genes 11 Torsion [N]-C--CA-[N] |==|  0.86902
USER: genes 12 Torsion [N]-CA--C-[N] |==|  0.43394
USER: genes 13 Torsion [C]-N--CA-[C] |==|  0.79669
USER: genes 14 Torsion [N]-CA--C-[N] |==|  0.41807
USER: genes 15 Torsion [C]-N--CA-[C] |==|  0.81155
USER: genes 16 Torsion [N]-CA--C-[N] |==|  0.94155
USER: genes 17 Torsion [C]-N--CA-[CB] |==|  0.21904
USER: genes 18 Torsion [N]-CA--CB-[OG] |==|  0.78100
USER: genes 19 Torsion [CA]-CB--OG-[HG] |==|  0.03014
USER: genes 20 Torsion [N]-CA--C-[OXT] |==|  0.03765
USER: genes 21 Torsion [N]-CA--CB-[OG] |==|  0.03104
USER: genes 22 Torsion [CA]-CB--OG-[HG] |==|  0.10551
USER: genes 23 Torsion [N]-CA--CB-[CG] |==|  0.55432
USER: genes 24 Torsion [CA]-CB--CG-[CD2] |==|  0.43547
ROOT
ATOM      1  CA  ALA B 364      34.900 -14.350  -8.753  1.00 28.10 LIG 0.17  C 
ATOM      2  CB  ALA B 364      35.297 -15.737  -8.278  1.00 26.12 LIG 0.04  C 
ENDROOT
BRANCH 1 3
ATOM      3  N   ALA B 364      36.080 -13.619  -9.205  1.00 32.12 LIG-0.35  N 
ATOM      4 H    ALA B 364      36.817 -14.058  -9.147  1.00 32.12 LIG 0.16  HD
ATOM      5  C   ARG B 363      35.985 -12.376  -9.665  1.00 35.84 LIG 0.24  C 
ATOM      6 O    ARG B 363      34.913 -11.782  -9.750  1.00 34.68 LIG-0.27  OA
BRANCH 5 7
ATOM      7  CA  ARG B 363      37.294 -11.699 -10.088  1.00 40.75 LIG 0.18  C 
BRANCH 7 8
ATOM      8  CB  ARG B 363      37.282 -10.230  -9.641  1.00 43.30 LIG 0.04  C 
BRANCH 8 9
ATOM      9  CG  ARG B 363      38.675  -9.652  -9.424  1.00 48.42 LIG 0.02  C 
BRANCH 9 10
ATOM     10  CD  ARG B 363      38.725  -8.141  -9.607  1.00 50.65 LIG 0.14  C 
BRANCH 10 11
ATOM     11  NE  ARG B 363      38.600  -7.778 -11.019  1.00 53.91 LIG-0.23  N 
ATOM     12 HE   ARG B 363      37.863  -7.972 -11.418  1.00 53.91 LIG 0.18  HD
ATOM     13  CZ  ARG B 363      39.547  -7.170 -11.730  1.00 54.64 LIG 0.67  C 
ATOM     14  NH2 ARG B 363      39.339  -6.886 -13.010  1.00 53.91 LIG-0.23  N 
ATOM     15  NH1 ARG B 363      40.703  -6.847 -11.165  1.00 54.84 LIG-0.23  N 
ATOM     16 1HH2 ARG B 363      38.592  -7.095 -13.381  1.00 53.91 LIG 0.17  HD
ATOM     17 2HH2 ARG B 363      39.951  -6.493 -13.468  1.00 53.91 LIG 0.17  HD
ATOM     18 1HH1 ARG B 363      40.843  -7.030 -10.336  1.00 54.84 LIG 0.17  HD
ATOM     19 2HH1 ARG B 363      41.313  -6.454 -11.627  1.00 54.84 LIG 0.17  HD
ENDBRANCH 10 11
ENDBRANCH 9 10
ENDBRANCH 8 9
ENDBRANCH 7 8
BRANCH 7 20
ATOM     20  N   ARG B 363      37.585 -11.789 -11.515  1.00 43.94 LIG-0.35  N 
ATOM     21  C   ALA B 362      38.193 -12.834 -12.070  1.00 45.99 LIG 0.24  C 
ATOM     22 O    ALA B 362      38.581 -13.814 -11.429  1.00 46.10 LIG-0.27  OA
ATOM     23 H    ARG B 363      37.325 -11.102 -11.964  1.00 43.94 LIG 0.16  HD
BRANCH 21 24
ATOM     24  CA  ALA B 362      38.404 -12.749 -13.577  1.00 47.39 LIG 0.17  C 
ATOM     25  CB  ALA B 362      39.284 -13.901 -14.052  1.00 48.25 LIG 0.04  C 
BRANCH 24 26
ATOM     26  N   ALA B 362      39.015 -11.474 -13.927  1.00 48.90 LIG-0.35  N 
ATOM     27  C   GLY B 361      40.246 -11.156 -13.544  1.00 49.70 LIG 0.25  C 
ATOM     28 O    GLY B 361      40.954 -11.905 -12.865  1.00 50.52 LIG-0.27  OA
ATOM     29 H    ALA B 362      38.511 -10.957 -14.396  1.00 48.90 LIG 0.16  HD
BRANCH 27 30
ATOM     30  CA  GLY B 361      40.753  -9.797 -13.982  1.00 49.65 LIG 0.47  C 
ATOM     31  N   GLY B 361      40.492  -9.550 -15.423  1.00 49.05 LIG 0.61  N 
ENDBRANCH 27 30
ENDBRANCH 24 26
ENDBRANCH 21 24
ENDBRANCH 7 20
ENDBRANCH 5 7
ENDBRANCH 1 3
BRANCH 1 32
ATOM     32  C   ALA B 364      34.263 -13.552  -7.614  1.00 26.37 LIG 0.24  C 
ATOM     33  N   HIS B 365      32.966 -13.752  -7.388  1.00 23.61 LIG-0.35  N 
ATOM     34 H    HIS B 365      32.480 -14.306  -7.831  1.00 23.61 LIG 0.16  HD
ATOM     35 O    ALA B 364      34.937 -12.761  -6.955  1.00 24.80 LIG-0.27  OA
BRANCH 33 36
ATOM     36  CA  HIS B 365      32.254 -13.025  -6.340  1.00 22.03 LIG 0.18  C 
BRANCH 36 37
ATOM     37  C   HIS B 365      32.628 -13.524  -4.946  1.00 20.85 LIG 0.24  C 
ATOM     38 O    HIS B 365      32.963 -14.691  -4.761  1.00 18.88 LIG-0.27  OA
ATOM     39  N   SER B 366      32.557 -12.625  -3.969  1.00 20.61 LIG-0.34  N 
ATOM     40 H    SER B 366      32.324 -11.806  -4.091  1.00 20.61 LIG 0.16  HD
BRANCH 39 41
ATOM     41  CA  SER B 366      32.874 -12.952  -2.584  1.00 22.02 LIG 0.20  C 
BRANCH 41 42
ATOM     42  C   SER B 366      31.835 -13.907  -2.013  1.00 20.47 LIG 0.24  C 
ATOM     43 O    SER B 366      32.098 -14.606  -1.032  1.00 18.56 LIG-0.27  OA
ATOM     44  N   SER B 367      30.659 -13.935  -2.632  1.00 19.80 LIG-0.34  N 
ATOM     45 H    SER B 367      30.464 -13.448  -3.314  1.00 19.80 LIG 0.16  HD
BRANCH 44 46
ATOM     46  CA  SER B 367      29.582 -14.818  -2.193  1.00 20.54 LIG 0.21  C 
BRANCH 46 47
ATOM     47  CB  SER B 367      28.866 -14.236  -0.969  1.00 20.61 LIG 0.20  C 
BRANCH 47 48
ATOM     48 OG   SER B 367      29.604 -14.457   0.219  1.00 20.78 LIG-0.40  OA
ATOM     49 HG   SER B 367      30.372 -14.736   0.025  1.00 20.78 LIG 0.21  HD
ENDBRANCH 47 48
ENDBRANCH 46 47
BRANCH 46 50
ATOM     50  C   SER B 367      28.573 -15.034  -3.318  1.00 22.30 LIG 0.20  C 
ATOM     51 O    SER B 367      27.463 -15.533  -3.026  1.00 20.52 LIG-0.65  OA
ATOM     52 OXT  SER B 367      28.901 -14.685  -4.474  1.00 22.33 LIG-0.65  OA
ENDBRANCH 46 50
ENDBRANCH 44 46
ENDBRANCH 41 42
BRANCH 41 53
ATOM     53  CB  SER B 366      32.898 -11.677  -1.732  1.00 25.29 LIG 0.20  C 
BRANCH 53 54
ATOM     54 OG   SER B 366      32.362 -10.576  -2.447  1.00 34.76 LIG-0.40  OA
ATOM     55 HG   SER B 366      31.711 -10.833  -2.911  1.00 34.76 LIG 0.21  HD
ENDBRANCH 53 54
ENDBRANCH 41 53
ENDBRANCH 39 41
ENDBRANCH 36 37
BRANCH 36 56
ATOM     56  CB  HIS B 365      30.746 -13.186  -6.533  1.00 23.96 LIG 0.10  C 
BRANCH 56 57
ATOM     57  CG  HIS B 365      29.943 -12.139  -5.826  1.00 26.34 LIG 0.06  A 
ATOM     58 ND1  HIS B 365      30.450 -11.389  -4.786  1.00 28.92 LIG-0.24  NA
ATOM     59  CE1 HIS B 365      29.546 -10.505  -4.402  1.00 27.03 LIG 0.23  A 
ATOM     60 NE2  HIS B 365      28.471 -10.656  -5.155  1.00 28.88 LIG-0.25  NA
ATOM     61  CD2 HIS B 365      28.693 -11.672  -6.053  1.00 26.83 LIG 0.14  A 
ENDBRANCH 56 57
ENDBRANCH 36 56
ENDBRANCH 33 36
ENDBRANCH 1 32
TORSDOF 23
ENDMDL
MODEL 23
USER: ADFR SOLUTION from run 138
USER: SCORE 16.754743 LL:  -3.970 LR: -14.275 RR:   0.000 FEB:  -7.414
USER: RMSD 5.856883
USER: SEED 137
USER: STATUS no improvement in best in 5 clusters for 5 generations
USER: GENES 25
USER: genes 0 Translation |==|  0.43910 0.58832 0.55903
USER: genes 1 Rotation |==|  0.24310 0.44328 0.42112 0.91781
USER: genes 2 Torsion [CB]-CA--N-[C] |==|  0.16402
USER: genes 3 Torsion [N]-C--CA-[N] |==|  0.49624
USER: genes 4 Torsion [C]-CA--CB-[CG] |==|  0.36268
USER: genes 5 Torsion [CA]-CB--CG-[CD] |==|  0.75923
USER: genes 6 Torsion [CB]-CG--CD-[NE] |==|  0.30681
USER: genes 7 Torsion [CG]-CD--NE-[HE] |==|  0.94530
USER: genes 8 Torsion [C]-CA--N-[C] |==|  0.52320
USER: genes 9 Torsion [N]-C--CA-[N] |==|  0.35006
USER: genes 10 Torsion [C]-CA--N-[C] |==|  0.80933
USER: genes 11 Torsion [N]-C--CA-[N] |==|  0.89668
USER: genes 12 Torsion [N]-CA--C-[N] |==|  0.60820
USER: genes 13 Torsion [C]-N--CA-[C] |==|  0.54502
USER: genes 14 Torsion [N]-CA--C-[N] |==|  0.45036
USER: genes 15 Torsion [C]-N--CA-[C] |==|  0.72379
USER: genes 16 Torsion [N]-CA--C-[N] |==|  0.04898
USER: genes 17 Torsion [C]-N--CA-[CB] |==|  0.39861
USER: genes 18 Torsion [N]-CA--CB-[OG] |==|  0.02293
USER: genes 19 Torsion [CA]-CB--OG-[HG] |==|  0.23419
USER: genes 20 Torsion [N]-CA--C-[OXT] |==|  0.67865
USER: genes 21 Torsion [N]-CA--CB-[OG] |==|  0.59577
USER: genes 22 Torsion [CA]-CB--OG-[HG] |==|  0.97478
USER: genes 23 Torsion [N]-CA--CB-[CG] |==|  0.16621
USER: genes 24 Torsion [CA]-CB--CG-[CD2] |==|  0.76040
ROOT
ATOM      1  CA  ALA B 364      31.069 -13.103  -6.855  1.00 28.10 LIG 0.17  C 
ATOM      2  CB  ALA B 364      30.694 -12.669  -8.261  1.00 26.12 LIG 0.04  C 
ENDROOT
BRANCH 1 3
ATOM      3  N   ALA B 364      30.361 -12.286  -5.873  1.00 32.12 LIG-0.35  N 
ATOM      4 H    ALA B 364      30.871 -11.852  -5.335  1.00 32.12 LIG 0.16  HD
ATOM      5  C   ARG B 363      29.034 -12.242  -5.843  1.00 35.84 LIG 0.24  C 
ATOM      6 O    ARG B 363      28.332 -12.863  -6.638  1.00 34.68 LIG-0.27  OA
BRANCH 5 7
ATOM      7  CA  ARG B 363      28.400 -11.370  -4.753  1.00 40.75 LIG 0.18  C 
BRANCH 7 8
ATOM      8  CB  ARG B 363      28.888 -11.836  -3.374  1.00 43.30 LIG 0.04  C 
BRANCH 8 9
ATOM      9  CG  ARG B 363      29.398 -10.699  -2.496  1.00 48.42 LIG 0.02  C 
BRANCH 9 10
ATOM     10  CD  ARG B 363      30.869 -10.382  -2.729  1.00 50.65 LIG 0.14  C 
BRANCH 10 11
ATOM     11  NE  ARG B 363      31.030  -9.084  -3.385  1.00 53.91 LIG-0.23  N 
ATOM     12 HE   ARG B 363      30.350  -8.759  -3.799  1.00 53.91 LIG 0.18  HD
ATOM     13  CZ  ARG B 363      32.154  -8.371  -3.385  1.00 54.64 LIG 0.67  C 
ATOM     14  NH2 ARG B 363      32.201  -7.203  -4.014  1.00 53.91 LIG-0.23  N 
ATOM     15  NH1 ARG B 363      33.233  -8.825  -2.759  1.00 54.84 LIG-0.23  N 
ATOM     16 1HH2 ARG B 363      31.505  -6.907  -4.422  1.00 53.91 LIG 0.17  HD
ATOM     17 2HH2 ARG B 363      32.928  -6.744  -4.013  1.00 53.91 LIG 0.17  HD
ATOM     18 1HH1 ARG B 363      33.207  -9.582  -2.352  1.00 54.84 LIG 0.17  HD
ATOM     19 2HH1 ARG B 363      33.957  -8.362  -2.762  1.00 54.84 LIG 0.17  HD
ENDBRANCH 10 11
ENDBRANCH 9 10
ENDBRANCH 8 9
ENDBRANCH 7 8
BRANCH 7 20
ATOM     20  N   ARG B 363      26.942 -11.332  -4.784  1.00 43.94 LIG-0.35  N 
ATOM     21  C   ALA B 362      26.219 -10.510  -4.027  1.00 45.99 LIG 0.24  C 
ATOM     22 O    ALA B 362      26.712  -9.718  -3.220  1.00 46.10 LIG-0.27  OA
ATOM     23 H    ARG B 363      26.593 -11.890  -5.338  1.00 43.94 LIG 0.16  HD
BRANCH 21 24
ATOM     24  CA  ALA B 362      24.708 -10.610  -4.204  1.00 47.39 LIG 0.17  C 
ATOM     25  CB  ALA B 362      24.167  -9.335  -4.844  1.00 48.25 LIG 0.04  C 
BRANCH 24 26
ATOM     26  N   ALA B 362      24.066 -10.835  -2.916  1.00 48.90 LIG-0.35  N 
ATOM     27  C   GLY B 361      24.208 -11.976  -2.250  1.00 49.70 LIG 0.25  C 
ATOM     28 O    GLY B 361      24.881 -12.922  -2.671  1.00 50.52 LIG-0.27  OA
ATOM     29 H    ALA B 362      23.596 -10.172  -2.634  1.00 48.90 LIG 0.16  HD
BRANCH 27 30
ATOM     30  CA  GLY B 361      23.485 -12.070  -0.922  1.00 49.65 LIG 0.47  C 
ATOM     31  N   GLY B 361      23.504 -10.776  -0.192  1.00 49.05 LIG 0.61  N 
ENDBRANCH 27 30
ENDBRANCH 24 26
ENDBRANCH 21 24
ENDBRANCH 7 20
ENDBRANCH 5 7
ENDBRANCH 1 3
BRANCH 1 32
ATOM     32  C   ALA B 364      32.569 -12.925  -6.617  1.00 26.37 LIG 0.24  C 
ATOM     33  N   HIS B 365      33.347 -12.856  -7.695  1.00 23.61 LIG-0.35  N 
ATOM     34 H    HIS B 365      33.055 -12.892  -8.503  1.00 23.61 LIG 0.16  HD
ATOM     35 O    ALA B 364      33.014 -12.858  -5.472  1.00 24.80 LIG-0.27  OA
BRANCH 33 36
ATOM     36  CA  HIS B 365      34.796 -12.709  -7.581  1.00 22.03 LIG 0.18  C 
BRANCH 36 37
ATOM     37  C   HIS B 365      35.428 -12.259  -8.896  1.00 20.85 LIG 0.24  C 
ATOM     38 O    HIS B 365      34.826 -12.377  -9.960  1.00 18.88 LIG-0.27  OA
ATOM     39  N   SER B 366      36.653 -11.748  -8.807  1.00 20.61 LIG-0.34  N 
ATOM     40 H    SER B 366      37.080 -11.661  -8.066  1.00 20.61 LIG 0.16  HD
BRANCH 39 41
ATOM     41  CA  SER B 366      37.390 -11.283  -9.976  1.00 22.02 LIG 0.20  C 
BRANCH 41 42
ATOM     42  C   SER B 366      38.387 -12.341 -10.430  1.00 20.47 LIG 0.24  C 
ATOM     43 O    SER B 366      39.317 -12.043 -11.182  1.00 18.56 LIG-0.27  OA
ATOM     44  N   SER B 367      38.184 -13.574  -9.976  1.00 19.80 LIG-0.34  N 
ATOM     45 H    SER B 367      37.541 -13.791  -9.447  1.00 19.80 LIG 0.16  HD
BRANCH 44 46
ATOM     46  CA  SER B 367      39.059 -14.682 -10.348  1.00 20.54 LIG 0.21  C 
BRANCH 46 47
ATOM     47  CB  SER B 367      39.249 -15.644  -9.170  1.00 20.61 LIG 0.20  C 
BRANCH 47 48
ATOM     48 OG   SER B 367      38.390 -15.323  -8.091  1.00 20.78 LIG-0.40  OA
ATOM     49 HG   SER B 367      37.638 -15.675  -8.218  1.00 20.78 LIG 0.21  HD
ENDBRANCH 47 48
ENDBRANCH 46 47
BRANCH 46 50
ATOM     50  C   SER B 367      38.483 -15.443 -11.539  1.00 22.30 LIG 0.20  C 
ATOM     51 O    SER B 367      38.397 -14.845 -12.635  1.00 20.52 LIG-0.65  OA
ATOM     52 OXT  SER B 367      38.142 -16.634 -11.363  1.00 22.33 LIG-0.65  OA
ENDBRANCH 46 50
ENDBRANCH 44 46
ENDBRANCH 41 42
BRANCH 41 53
ATOM     53  CB  SER B 366      38.152  -9.995  -9.643  1.00 25.29 LIG 0.20  C 
BRANCH 53 54
ATOM     54 OG   SER B 366      38.201  -9.127 -10.764  1.00 34.76 LIG-0.40  OA
ATOM     55 HG   SER B 366      37.911  -9.529 -11.442  1.00 34.76 LIG 0.21  HD
ENDBRANCH 53 54
ENDBRANCH 41 53
ENDBRANCH 39 41
ENDBRANCH 36 37
BRANCH 36 56
ATOM     56  CB  HIS B 365      35.420 -14.040  -7.165  1.00 23.96 LIG 0.10  C 
BRANCH 56 57
ATOM     57  CG  HIS B 365      35.156 -15.149  -8.136  1.00 26.34 LIG 0.06  A 
ATOM     58 ND1  HIS B 365      36.065 -15.521  -9.104  1.00 28.92 LIG-0.24  NA
ATOM     59  CE1 HIS B 365      35.595 -16.561  -9.769  1.00 27.03 LIG 0.23  A 
ATOM     60 NE2  HIS B 365      34.414 -16.876  -9.268  1.00 28.88 LIG-0.25  NA
ATOM     61  CD2 HIS B 365      34.115 -16.006  -8.247  1.00 26.83 LIG 0.14  A 
ENDBRANCH 56 57
ENDBRANCH 36 56
ENDBRANCH 33 36
ENDBRANCH 1 32
TORSDOF 23
ENDMDL
MODEL 24
USER: ADFR SOLUTION from run 3
USER: SCORE 17.023986 LL:  -3.931 LR: -14.256 RR:   0.000 FEB:  -7.395
USER: RMSD 10.769444
USER: SEED 546603
USER: STATUS searching
USER: GENES 25
USER: genes 0 Translation |==|  0.50823 0.39114 0.51128
USER: genes 1 Rotation |==|  0.71509 0.74218 0.87802 0.54675
USER: genes 2 Torsion [CB]-CA--N-[C] |==|  0.11239
USER: genes 3 Torsion [N]-C--CA-[N] |==|  0.12590
USER: genes 4 Torsion [C]-CA--CB-[CG] |==|  0.61585
USER: genes 5 Torsion [CA]-CB--CG-[CD] |==|  0.72420
USER: genes 6 Torsion [CB]-CG--CD-[NE] |==|  0.33749
USER: genes 7 Torsion [CG]-CD--NE-[HE] |==|  0.09975
USER: genes 8 Torsion [C]-CA--N-[C] |==|  0.70000
USER: genes 9 Torsion [N]-C--CA-[N] |==|  0.91035
USER: genes 10 Torsion [C]-CA--N-[C] |==|  0.83731
USER: genes 11 Torsion [N]-C--CA-[N] |==|  0.54549
USER: genes 12 Torsion [N]-CA--C-[N] |==|  0.14220
USER: genes 13 Torsion [C]-N--CA-[C] |==|  0.64278
USER: genes 14 Torsion [N]-CA--C-[N] |==|  0.34620
USER: genes 15 Torsion [C]-N--CA-[C] |==|  0.68167
USER: genes 16 Torsion [N]-CA--C-[N] |==|  0.39826
USER: genes 17 Torsion [C]-N--CA-[CB] |==|  0.17649
USER: genes 18 Torsion [N]-CA--CB-[OG] |==|  0.08738
USER: genes 19 Torsion [CA]-CB--OG-[HG] |==|  0.39955
USER: genes 20 Torsion [N]-CA--C-[OXT] |==|  0.03177
USER: genes 21 Torsion [N]-CA--CB-[OG] |==|  0.66238
USER: genes 22 Torsion [CA]-CB--OG-[HG] |==|  0.89099
USER: genes 23 Torsion [N]-CA--CB-[CG] |==|  0.51969
USER: genes 24 Torsion [CA]-CB--CG-[CD2] |==|  0.24068
ROOT
ATOM      1  CA  ALA B 364      32.780 -16.800  -7.894  1.00 28.10 LIG 0.17  C 
ATOM      2  CB  ALA B 364      33.494 -18.069  -7.463  1.00 26.12 LIG 0.04  C 
ENDROOT
BRANCH 1 3
ATOM      3  N   ALA B 364      33.721 -15.889  -8.538  1.00 32.12 LIG-0.35  N 
ATOM      4 H    ALA B 364      33.618 -15.062  -8.330  1.00 32.12 LIG 0.16  HD
ATOM      5  C   ARG B 363      34.651 -16.338  -9.374  1.00 35.84 LIG 0.24  C 
ATOM      6 O    ARG B 363      34.783 -17.531  -9.639  1.00 34.68 LIG-0.27  OA
BRANCH 5 7
ATOM      7  CA  ARG B 363      35.567 -15.287 -10.010  1.00 40.75 LIG 0.18  C 
BRANCH 7 8
ATOM      8  CB  ARG B 363      36.730 -15.985 -10.731  1.00 43.30 LIG 0.04  C 
BRANCH 8 9
ATOM      9  CG  ARG B 363      38.073 -15.298 -10.520  1.00 48.42 LIG 0.02  C 
BRANCH 9 10
ATOM     10  CD  ARG B 363      38.473 -14.404 -11.686  1.00 50.65 LIG 0.14  C 
BRANCH 10 11
ATOM     11  NE  ARG B 363      38.676 -13.024 -11.245  1.00 53.91 LIG-0.23  N 
ATOM     12 HE   ARG B 363      39.020 -12.899 -10.468  1.00 53.91 LIG 0.18  HD
ATOM     13  CZ  ARG B 363      38.363 -11.947 -11.964  1.00 54.64 LIG 0.67  C 
ATOM     14  NH2 ARG B 363      38.582 -10.734 -11.474  1.00 53.91 LIG-0.23  N 
ATOM     15  NH1 ARG B 363      37.830 -12.082 -13.172  1.00 54.84 LIG-0.23  N 
ATOM     16 1HH2 ARG B 363      38.926 -10.642 -10.691  1.00 53.91 LIG 0.17  HD
ATOM     17 2HH2 ARG B 363      38.380 -10.039 -11.939  1.00 53.91 LIG 0.17  HD
ATOM     18 1HH1 ARG B 363      37.685 -12.867 -13.492  1.00 54.84 LIG 0.17  HD
ATOM     19 2HH1 ARG B 363      37.629 -11.385 -13.633  1.00 54.84 LIG 0.17  HD
ENDBRANCH 10 11
ENDBRANCH 9 10
ENDBRANCH 8 9
ENDBRANCH 7 8
BRANCH 7 20
ATOM     20  N   ARG B 363      36.080 -14.290  -9.076  1.00 43.94 LIG-0.35  N 
ATOM     21  C   ALA B 362      35.667 -13.025  -9.062  1.00 45.99 LIG 0.24  C 
ATOM     22 O    ALA B 362      34.826 -12.576  -9.844  1.00 46.10 LIG-0.27  OA
ATOM     23 H    ARG B 363      36.675 -14.597  -8.536  1.00 43.94 LIG 0.16  HD
BRANCH 21 24
ATOM     24  CA  ALA B 362      36.313 -12.133  -8.008  1.00 47.39 LIG 0.17  C 
ATOM     25  CB  ALA B 362      37.578 -11.488  -8.567  1.00 48.25 LIG 0.04  C 
BRANCH 24 26
ATOM     26  N   ALA B 362      36.632 -12.913  -6.819  1.00 48.90 LIG-0.35  N 
ATOM     27  C   GLY B 361      35.700 -13.571  -6.139  1.00 49.70 LIG 0.25  C 
ATOM     28 O    GLY B 361      34.507 -13.566  -6.455  1.00 50.52 LIG-0.27  OA
ATOM     29 H    ALA B 362      37.465 -12.906  -6.605  1.00 48.90 LIG 0.16  HD
BRANCH 27 30
ATOM     30  CA  GLY B 361      36.177 -14.341  -4.925  1.00 49.65 LIG 0.47  C 
ATOM     31  N   GLY B 361      35.170 -15.335  -4.471  1.00 49.05 LIG 0.61  N 
ENDBRANCH 27 30
ENDBRANCH 24 26
ENDBRANCH 21 24
ENDBRANCH 7 20
ENDBRANCH 5 7
ENDBRANCH 1 3
BRANCH 1 32
ATOM     32  C   ALA B 364      32.185 -16.079  -6.683  1.00 26.37 LIG 0.24  C 
ATOM     33  N   HIS B 365      31.679 -14.865  -6.892  1.00 23.61 LIG-0.35  N 
ATOM     34 H    HIS B 365      31.658 -14.478  -7.659  1.00 23.61 LIG 0.16  HD
ATOM     35 O    ALA B 364      32.191 -16.614  -5.575  1.00 24.80 LIG-0.27  OA
BRANCH 33 36
ATOM     36  CA  HIS B 365      31.107 -14.080  -5.801  1.00 22.03 LIG 0.18  C 
BRANCH 36 37
ATOM     37  C   HIS B 365      29.710 -13.568  -6.140  1.00 20.85 LIG 0.24  C 
ATOM     38 O    HIS B 365      29.510 -12.896  -7.149  1.00 18.88 LIG-0.27  OA
ATOM     39  N   SER B 366      28.748 -13.888  -5.280  1.00 20.61 LIG-0.34  N 
ATOM     40 H    SER B 366      28.880 -14.358  -4.572  1.00 20.61 LIG 0.16  HD
BRANCH 39 41
ATOM     41  CA  SER B 366      27.364 -13.464  -5.462  1.00 22.02 LIG 0.20  C 
BRANCH 41 42
ATOM     42  C   SER B 366      26.952 -12.506  -4.353  1.00 20.47 LIG 0.24  C 
ATOM     43 O    SER B 366      27.358 -12.669  -3.201  1.00 18.56 LIG-0.27  OA
ATOM     44  N   SER B 367      26.141 -11.513  -4.705  1.00 19.80 LIG-0.34  N 
ATOM     45 H    SER B 367      25.856 -11.387  -5.507  1.00 19.80 LIG 0.16  HD
BRANCH 44 46
ATOM     46  CA  SER B 367      25.660 -10.535  -3.734  1.00 20.54 LIG 0.21  C 
BRANCH 46 47
ATOM     47  CB  SER B 367      26.825  -9.724  -3.155  1.00 20.61 LIG 0.20  C 
BRANCH 47 48
ATOM     48 OG   SER B 367      27.868  -9.564  -4.100  1.00 20.78 LIG-0.40  OA
ATOM     49 HG   SER B 367      28.213  -8.803  -4.012  1.00 20.78 LIG 0.21  HD
ENDBRANCH 47 48
ENDBRANCH 46 47
BRANCH 46 50
ATOM     50  C   SER B 367      24.652  -9.588  -4.379  1.00 22.30 LIG 0.20  C 
ATOM     51 O    SER B 367      24.326  -8.556  -3.751  1.00 20.52 LIG-0.65  OA
ATOM     52 OXT  SER B 367      24.215  -9.883  -5.514  1.00 22.33 LIG-0.65  OA
ENDBRANCH 46 50
ENDBRANCH 44 46
ENDBRANCH 41 42
BRANCH 41 53
ATOM     53  CB  SER B 366      26.432 -14.680  -5.439  1.00 25.29 LIG 0.20  C 
BRANCH 53 54
ATOM     54 OG   SER B 366      25.690 -14.777  -6.645  1.00 34.76 LIG-0.40  OA
ATOM     55 HG   SER B 366      25.458 -14.009  -6.893  1.00 34.76 LIG 0.21  HD
ENDBRANCH 53 54
ENDBRANCH 41 53
ENDBRANCH 39 41
ENDBRANCH 36 37
BRANCH 36 56
ATOM     56  CB  HIS B 365      32.009 -12.885  -5.495  1.00 23.96 LIG 0.10  C 
BRANCH 56 57
ATOM     57  CG  HIS B 365      31.588 -12.118  -4.280  1.00 26.34 LIG 0.06  A 
ATOM     58 ND1  HIS B 365      30.701 -11.064  -4.337  1.00 28.92 LIG-0.24  NA
ATOM     59  CE1 HIS B 365      30.465 -10.624  -3.114  1.00 27.03 LIG 0.23  A 
ATOM     60 NE2  HIS B 365      31.169 -11.353  -2.267  1.00 28.88 LIG-0.25  NA
ATOM     61  CD2 HIS B 365      31.881 -12.293  -2.971  1.00 26.83 LIG 0.14  A 
ENDBRANCH 56 57
ENDBRANCH 36 56
ENDBRANCH 33 36
ENDBRANCH 1 32
TORSDOF 23
ENDMDL
MODEL 25
USER: ADFR SOLUTION from run 142
USER: SCORE 15.499488 LL:  -3.531 LR: -14.250 RR:   0.000 FEB:  -7.389
USER: RMSD 11.673648
USER: SEED 141
USER: STATUS no improvement in best in 2 clusters for 5 generations
USER: GENES 25
USER: genes 0 Translation |==|  0.58382 0.47865 0.47022
USER: genes 1 Rotation |==|  0.73041 0.60937 0.92587 0.55988
USER: genes 2 Torsion [CB]-CA--N-[C] |==|  0.44776
USER: genes 3 Torsion [N]-C--CA-[N] |==|  0.13982
USER: genes 4 Torsion [C]-CA--CB-[CG] |==|  0.57338
USER: genes 5 Torsion [CA]-CB--CG-[CD] |==|  0.60408
USER: genes 6 Torsion [CB]-CG--CD-[NE] |==|  0.64217
USER: genes 7 Torsion [CG]-CD--NE-[HE] |==|  0.16739
USER: genes 8 Torsion [C]-CA--N-[C] |==|  0.77855
USER: genes 9 Torsion [N]-C--CA-[N] |==|  0.01607
USER: genes 10 Torsion [C]-CA--N-[C] |==|  0.75363
USER: genes 11 Torsion [N]-C--CA-[N] |==|  0.71970
USER: genes 12 Torsion [N]-CA--C-[N] |==|  0.33406
USER: genes 13 Torsion [C]-N--CA-[C] |==|  0.53333
USER: genes 14 Torsion [N]-CA--C-[N] |==|  0.38991
USER: genes 15 Torsion [C]-N--CA-[C] |==|  0.70643
USER: genes 16 Torsion [N]-CA--C-[N] |==|  0.37238
USER: genes 17 Torsion [C]-N--CA-[CB] |==|  0.22669
USER: genes 18 Torsion [N]-CA--CB-[OG] |==|  0.05893
USER: genes 19 Torsion [CA]-CB--OG-[HG] |==|  0.44351
USER: genes 20 Torsion [N]-CA--C-[OXT] |==|  0.12264
USER: genes 21 Torsion [N]-CA--CB-[OG] |==|  0.14771
USER: genes 22 Torsion [CA]-CB--OG-[HG] |==|  0.96436
USER: genes 23 Torsion [N]-CA--CB-[CG] |==|  0.49586
USER: genes 24 Torsion [CA]-CB--CG-[CD2] |==|  0.19548
ROOT
ATOM      1  CA  ALA B 364      34.651 -15.159  -8.787  1.00 28.10 LIG 0.17  C 
ATOM      2  CB  ALA B 364      34.951 -16.635  -8.981  1.00 26.12 LIG 0.04  C 
ENDROOT
BRANCH 1 3
ATOM      3  N   ALA B 364      35.882 -14.381  -8.885  1.00 32.12 LIG-0.35  N 
ATOM      4 H    ALA B 364      36.603 -14.837  -8.779  1.00 32.12 LIG 0.16  HD
ATOM      5  C   ARG B 363      35.853 -13.073  -9.119  1.00 35.84 LIG 0.24  C 
ATOM      6 O    ARG B 363      34.804 -12.453  -9.280  1.00 34.68 LIG-0.27  OA
BRANCH 5 7
ATOM      7  CA  ARG B 363      37.206 -12.356  -9.176  1.00 40.75 LIG 0.18  C 
BRANCH 7 8
ATOM      8  CB  ARG B 363      36.996 -10.891  -9.585  1.00 43.30 LIG 0.04  C 
BRANCH 8 9
ATOM      9  CG  ARG B 363      38.207 -10.276 -10.276  1.00 48.42 LIG 0.02  C 
BRANCH 9 10
ATOM     10  CD  ARG B 363      38.431  -8.819  -9.894  1.00 50.65 LIG 0.14  C 
BRANCH 10 11
ATOM     11  NE  ARG B 363      38.576  -7.980 -11.084  1.00 53.91 LIG-0.23  N 
ATOM     12 HE   ARG B 363      37.918  -7.952 -11.636  1.00 53.91 LIG 0.18  HD
ATOM     13  CZ  ARG B 363      39.656  -7.256 -11.372  1.00 54.64 LIG 0.67  C 
ATOM     14  NH2 ARG B 363      39.693  -6.528 -12.481  1.00 53.91 LIG-0.23  N 
ATOM     15  NH1 ARG B 363      40.701  -7.261 -10.553  1.00 54.84 LIG-0.23  N 
ATOM     16 1HH2 ARG B 363      39.018  -6.524 -13.014  1.00 53.91 LIG 0.17  HD
ATOM     17 2HH2 ARG B 363      40.391  -6.061 -12.666  1.00 53.91 LIG 0.17  HD
ATOM     18 1HH1 ARG B 363      40.682  -7.732  -9.835  1.00 54.84 LIG 0.17  HD
ATOM     19 2HH1 ARG B 363      41.397  -6.793 -10.743  1.00 54.84 LIG 0.17  HD
ENDBRANCH 10 11
ENDBRANCH 9 10
ENDBRANCH 8 9
ENDBRANCH 7 8
BRANCH 7 20
ATOM     20  N   ARG B 363      38.187 -12.988 -10.053  1.00 43.94 LIG-0.35  N 
ATOM     21  C   ALA B 362      38.901 -14.053  -9.697  1.00 45.99 LIG 0.24  C 
ATOM     22 O    ALA B 362      38.814 -14.593  -8.593  1.00 46.10 LIG-0.27  OA
ATOM     23 H    ARG B 363      38.259 -12.608 -10.821  1.00 43.94 LIG 0.16  HD
BRANCH 21 24
ATOM     24  CA  ALA B 362      39.870 -14.576 -10.751  1.00 47.39 LIG 0.17  C 
ATOM     25  CB  ALA B 362      41.272 -14.705 -10.162  1.00 48.25 LIG 0.04  C 
BRANCH 24 26
ATOM     26  N   ALA B 362      39.891 -13.682 -11.902  1.00 48.90 LIG-0.35  N 
ATOM     27  C   GLY B 361      39.049 -13.826 -12.919  1.00 49.70 LIG 0.25  C 
ATOM     28 O    GLY B 361      38.201 -14.721 -12.970  1.00 50.52 LIG-0.27  OA
ATOM     29 H    ALA B 362      40.489 -13.065 -11.859  1.00 48.90 LIG 0.16  HD
BRANCH 27 30
ATOM     30  CA  GLY B 361      39.184 -12.822 -14.045  1.00 49.65 LIG 0.47  C 
ATOM     31  N   GLY B 361      38.150 -11.758 -13.963  1.00 49.05 LIG 0.61  N 
ENDBRANCH 27 30
ENDBRANCH 24 26
ENDBRANCH 21 24
ENDBRANCH 7 20
ENDBRANCH 5 7
ENDBRANCH 1 3
BRANCH 1 32
ATOM     32  C   ALA B 364      34.047 -14.908  -7.403  1.00 26.37 LIG 0.24  C 
ATOM     33  N   HIS B 365      32.825 -14.384  -7.364  1.00 23.61 LIG-0.35  N 
ATOM     34 H    HIS B 365      32.360 -14.194  -8.062  1.00 23.61 LIG 0.16  HD
ATOM     35 O    ALA B 364      34.685 -15.182  -6.387  1.00 24.80 LIG-0.27  OA
BRANCH 33 36
ATOM     36  CA  HIS B 365      32.164 -14.083  -6.096  1.00 22.03 LIG 0.18  C 
BRANCH 36 37
ATOM     37  C   HIS B 365      30.682 -13.771  -6.286  1.00 20.85 LIG 0.24  C 
ATOM     38 O    HIS B 365      30.295 -13.098  -7.237  1.00 18.88 LIG-0.27  OA
ATOM     39  N   SER B 366      29.861 -14.263  -5.362  1.00 20.61 LIG-0.34  N 
ATOM     40 H    SER B 366      30.126 -14.735  -4.694  1.00 20.61 LIG 0.16  HD
BRANCH 39 41
ATOM     41  CA  SER B 366      28.421 -14.041  -5.402  1.00 22.02 LIG 0.20  C 
BRANCH 41 42
ATOM     42  C   SER B 366      28.011 -13.024  -4.346  1.00 20.47 LIG 0.24  C 
ATOM     43 O    SER B 366      28.442 -13.107  -3.195  1.00 18.56 LIG-0.27  OA
ATOM     44  N   SER B 367      27.174 -12.070  -4.742  1.00 19.80 LIG-0.34  N 
ATOM     45 H    SER B 367      26.872 -11.999  -5.545  1.00 19.80 LIG 0.16  HD
BRANCH 44 46
ATOM     46  CA  SER B 367      26.693 -11.042  -3.824  1.00 20.54 LIG 0.21  C 
BRANCH 46 47
ATOM     47  CB  SER B 367      27.727  -9.921  -3.671  1.00 20.61 LIG 0.20  C 
BRANCH 47 48
ATOM     48 OG   SER B 367      28.628  -9.891  -4.763  1.00 20.78 LIG-0.40  OA
ATOM     49 HG   SER B 367      28.991  -9.134  -4.807  1.00 20.78 LIG 0.21  HD
ENDBRANCH 47 48
ENDBRANCH 46 47
BRANCH 46 50
ATOM     50  C   SER B 367      25.375 -10.453  -4.320  1.00 22.30 LIG 0.20  C 
ATOM     51 O    SER B 367      25.238  -9.210  -4.294  1.00 20.52 LIG-0.65  OA
ATOM     52 OXT  SER B 367      24.504 -11.244  -4.745  1.00 22.33 LIG-0.65  OA
ENDBRANCH 46 50
ENDBRANCH 44 46
ENDBRANCH 41 42
BRANCH 41 53
ATOM     53  CB  SER B 366      27.677 -15.356  -5.139  1.00 25.29 LIG 0.20  C 
BRANCH 53 54
ATOM     54 OG   SER B 366      28.126 -15.965  -3.939  1.00 34.76 LIG-0.40  OA
ATOM     55 HG   SER B 366      28.834 -15.591  -3.683  1.00 34.76 LIG 0.21  HD
ENDBRANCH 53 54
ENDBRANCH 41 53
ENDBRANCH 39 41
ENDBRANCH 36 37
BRANCH 36 56
ATOM     56  CB  HIS B 365      32.840 -12.884  -5.432  1.00 23.96 LIG 0.10  C 
BRANCH 56 57
ATOM     57  CG  HIS B 365      32.201 -12.483  -4.139  1.00 26.34 LIG 0.06  A 
ATOM     58 ND1  HIS B 365      31.414 -11.359  -4.016  1.00 28.92 LIG-0.24  NA
ATOM     59  CE1 HIS B 365      30.935 -11.291  -2.786  1.00 27.03 LIG 0.23  A 
ATOM     60 NE2  HIS B 365      31.385 -12.331  -2.107  1.00 28.88 LIG-0.25  NA
ATOM     61  CD2 HIS B 365      32.181 -13.092  -2.930  1.00 26.83 LIG 0.14  A 
ENDBRANCH 56 57
ENDBRANCH 36 56
ENDBRANCH 33 36
ENDBRANCH 1 32
TORSDOF 23
ENDMDL
MODEL 26
USER: ADFR SOLUTION from run 90
USER: SCORE 16.191180 LL:  -3.743 LR: -14.253 RR:   0.000 FEB:  -7.392
USER: RMSD 11.463507
USER: SEED 89
USER: STATUS no improvement in best in 12 clusters for 5 generations
USER: GENES 25
USER: genes 0 Translation |==|  0.58582 0.47761 0.47776
USER: genes 1 Rotation |==|  0.67789 0.67542 0.93251 0.52271
USER: genes 2 Torsion [CB]-CA--N-[C] |==|  0.50107
USER: genes 3 Torsion [N]-C--CA-[N] |==|  0.91400
USER: genes 4 Torsion [C]-CA--CB-[CG] |==|  0.58827
USER: genes 5 Torsion [CA]-CB--CG-[CD] |==|  0.81030
USER: genes 6 Torsion [CB]-CG--CD-[NE] |==|  0.69444
USER: genes 7 Torsion [CG]-CD--NE-[HE] |==|  0.08498
USER: genes 8 Torsion [C]-CA--N-[C] |==|  0.85264
USER: genes 9 Torsion [N]-C--CA-[N] |==|  0.31667
USER: genes 10 Torsion [C]-CA--N-[C] |==|  0.82944
USER: genes 11 Torsion [N]-C--CA-[N] |==|  0.76166
USER: genes 12 Torsion [N]-CA--C-[N] |==|  0.35832
USER: genes 13 Torsion [C]-N--CA-[C] |==|  0.70683
USER: genes 14 Torsion [N]-CA--C-[N] |==|  0.52132
USER: genes 15 Torsion [C]-N--CA-[C] |==|  0.62112
USER: genes 16 Torsion [N]-CA--C-[N] |==|  0.13207
USER: genes 17 Torsion [C]-N--CA-[CB] |==|  0.27415
USER: genes 18 Torsion [N]-CA--CB-[OG] |==|  0.02937
USER: genes 19 Torsion [CA]-CB--OG-[HG] |==|  0.33350
USER: genes 20 Torsion [N]-CA--C-[OXT] |==|  0.08933
USER: genes 21 Torsion [N]-CA--CB-[OG] |==|  0.81473
USER: genes 22 Torsion [CA]-CB--OG-[HG] |==|  0.96802
USER: genes 23 Torsion [N]-CA--CB-[CG] |==|  0.63792
USER: genes 24 Torsion [CA]-CB--CG-[CD2] |==|  0.99692
ROOT
ATOM      1  CA  ALA B 364      34.700 -15.179  -8.623  1.00 28.10 LIG 0.17  C 
ATOM      2  CB  ALA B 364      35.429 -16.506  -8.500  1.00 26.12 LIG 0.04  C 
ENDROOT
BRANCH 1 3
ATOM      3  N   ALA B 364      35.663 -14.088  -8.746  1.00 32.12 LIG-0.35  N 
ATOM      4 H    ALA B 364      36.486 -14.335  -8.738  1.00 32.12 LIG 0.16  HD
ATOM      5  C   ARG B 363      35.263 -12.826  -8.860  1.00 35.84 LIG 0.24  C 
ATOM      6 O    ARG B 363      34.076 -12.508  -8.883  1.00 34.68 LIG-0.27  OA
BRANCH 5 7
ATOM      7  CA  ARG B 363      36.363 -11.763  -8.957  1.00 40.75 LIG 0.18  C 
BRANCH 7 8
ATOM      8  CB  ARG B 363      36.672 -11.476 -10.433  1.00 43.30 LIG 0.04  C 
BRANCH 8 9
ATOM      9  CG  ARG B 363      38.126 -11.096 -10.684  1.00 48.42 LIG 0.02  C 
BRANCH 9 10
ATOM     10  CD  ARG B 363      38.497  -9.742 -10.094  1.00 50.65 LIG 0.14  C 
BRANCH 10 11
ATOM     11  NE  ARG B 363      38.722  -8.753 -11.148  1.00 53.91 LIG-0.23  N 
ATOM     12 HE   ARG B 363      38.277  -8.838 -11.878  1.00 53.91 LIG 0.18  HD
ATOM     13  CZ  ARG B 363      39.568  -7.729 -11.056  1.00 54.64 LIG 0.67  C 
ATOM     14  NH2 ARG B 363      39.705  -6.885 -12.071  1.00 53.91 LIG-0.23  N 
ATOM     15  NH1 ARG B 363      40.280  -7.548  -9.950  1.00 54.84 LIG-0.23  N 
ATOM     16 1HH2 ARG B 363      39.246  -7.000 -12.789  1.00 53.91 LIG 0.17  HD
ATOM     17 2HH2 ARG B 363      40.251  -6.224 -12.010  1.00 53.91 LIG 0.17  HD
ATOM     18 1HH1 ARG B 363      40.195  -8.093  -9.290  1.00 54.84 LIG 0.17  HD
ATOM     19 2HH1 ARG B 363      40.825  -6.886  -9.894  1.00 54.84 LIG 0.17  HD
ENDBRANCH 10 11
ENDBRANCH 9 10
ENDBRANCH 8 9
ENDBRANCH 7 8
BRANCH 7 20
ATOM     20  N   ARG B 363      37.590 -12.099  -8.242  1.00 43.94 LIG-0.35  N 
ATOM     21  C   ALA B 362      37.611 -12.450  -6.958  1.00 45.99 LIG 0.24  C 
ATOM     22 O    ALA B 362      36.602 -12.509  -6.252  1.00 46.10 LIG-0.27  OA
ATOM     23 H    ARG B 363      38.298 -12.049  -8.728  1.00 43.94 LIG 0.16  HD
BRANCH 21 24
ATOM     24  CA  ALA B 362      38.988 -12.772  -6.387  1.00 47.39 LIG 0.17  C 
ATOM     25  CB  ALA B 362      38.993 -14.170  -5.779  1.00 48.25 LIG 0.04  C 
BRANCH 24 26
ATOM     26  N   ALA B 362      39.355 -11.786  -5.379  1.00 48.90 LIG-0.35  N 
ATOM     27  C   GLY B 361      39.484 -10.496  -5.672  1.00 49.70 LIG 0.25  C 
ATOM     28 O    GLY B 361      39.312 -10.043  -6.806  1.00 50.52 LIG-0.27  OA
ATOM     29 H    ALA B 362      39.478 -12.112  -4.593  1.00 48.90 LIG 0.16  HD
BRANCH 27 30
ATOM     30  CA  GLY B 361      39.868  -9.586  -4.523  1.00 49.65 LIG 0.47  C 
ATOM     31  N   GLY B 361      38.679  -9.135  -3.755  1.00 49.05 LIG 0.61  N 
ENDBRANCH 27 30
ENDBRANCH 24 26
ENDBRANCH 21 24
ENDBRANCH 7 20
ENDBRANCH 5 7
ENDBRANCH 1 3
BRANCH 1 32
ATOM     32  C   ALA B 364      33.849 -14.913  -7.379  1.00 26.37 LIG 0.24  C 
ATOM     33  N   HIS B 365      32.527 -14.963  -7.531  1.00 23.61 LIG-0.35  N 
ATOM     34 H    HIS B 365      32.135 -15.145  -8.274  1.00 23.61 LIG 0.16  HD
ATOM     35 O    ALA B 364      34.384 -14.661  -6.301  1.00 24.80 LIG-0.27  OA
BRANCH 33 36
ATOM     36  CA  HIS B 365      31.622 -14.703  -6.414  1.00 22.03 LIG 0.18  C 
BRANCH 36 37
ATOM     37  C   HIS B 365      30.984 -15.986  -5.888  1.00 20.85 LIG 0.24  C 
ATOM     38 O    HIS B 365      31.344 -17.086  -6.300  1.00 18.88 LIG-0.27  OA
ATOM     39  N   SER B 366      30.027 -15.829  -4.978  1.00 20.61 LIG-0.34  N 
ATOM     40 H    SER B 366      29.771 -15.062  -4.684  1.00 20.61 LIG 0.16  HD
BRANCH 39 41
ATOM     41  CA  SER B 366      29.318 -16.958  -4.388  1.00 22.02 LIG 0.20  C 
BRANCH 41 42
ATOM     42  C   SER B 366      27.826 -16.670  -4.317  1.00 20.47 LIG 0.24  C 
ATOM     43 O    SER B 366      27.194 -16.885  -3.281  1.00 18.56 LIG-0.27  OA
ATOM     44  N   SER B 367      27.266 -16.187  -5.423  1.00 19.80 LIG-0.34  N 
ATOM     45 H    SER B 367      27.699 -16.028  -6.149  1.00 19.80 LIG 0.16  HD
BRANCH 44 46
ATOM     46  CA  SER B 367      25.840 -15.882  -5.491  1.00 20.54 LIG 0.21  C 
BRANCH 46 47
ATOM     47  CB  SER B 367      25.593 -14.384  -5.278  1.00 20.61 LIG 0.20  C 
BRANCH 47 48
ATOM     48 OG   SER B 367      26.802 -13.647  -5.310  1.00 20.78 LIG-0.40  OA
ATOM     49 HG   SER B 367      26.769 -13.081  -5.930  1.00 20.78 LIG 0.21  HD
ENDBRANCH 47 48
ENDBRANCH 46 47
BRANCH 46 50
ATOM     50  C   SER B 367      25.265 -16.305  -6.840  1.00 22.30 LIG 0.20  C 
ATOM     51 O    SER B 367      24.335 -15.622  -7.325  1.00 20.52 LIG-0.65  OA
ATOM     52 OXT  SER B 367      25.764 -17.306  -7.402  1.00 22.33 LIG-0.65  OA
ENDBRANCH 46 50
ENDBRANCH 44 46
ENDBRANCH 41 42
BRANCH 41 53
ATOM     53  CB  SER B 366      29.839 -17.228  -2.972  1.00 25.29 LIG 0.20  C 
BRANCH 53 54
ATOM     54 OG   SER B 366      31.183 -17.679  -2.999  1.00 34.76 LIG-0.40  OA
ATOM     55 HG   SER B 366      31.400 -17.866  -3.789  1.00 34.76 LIG 0.21  HD
ENDBRANCH 53 54
ENDBRANCH 41 53
ENDBRANCH 39 41
ENDBRANCH 36 37
BRANCH 36 56
ATOM     56  CB  HIS B 365      30.514 -13.748  -6.858  1.00 23.96 LIG 0.10  C 
BRANCH 56 57
ATOM     57  CG  HIS B 365      30.319 -12.592  -5.927  1.00 26.34 LIG 0.06  A 
ATOM     58 ND1  HIS B 365      29.337 -11.643  -6.117  1.00 28.92 LIG-0.24  NA
ATOM     59  CE1 HIS B 365      29.357 -10.785  -5.113  1.00 27.03 LIG 0.23  A 
ATOM     60 NE2  HIS B 365      30.318 -11.142  -4.280  1.00 28.88 LIG-0.25  NA
ATOM     61  CD2 HIS B 365      30.936 -12.268  -4.767  1.00 26.83 LIG 0.14  A 
ENDBRANCH 56 57
ENDBRANCH 36 56
ENDBRANCH 33 36
ENDBRANCH 1 32
TORSDOF 23
ENDMDL
MODEL 27
USER: ADFR SOLUTION from run 70
USER: SCORE 15.416931 LL:  -3.240 LR: -14.239 RR:   0.000 FEB:  -7.378
USER: RMSD 11.400256
USER: SEED 69
USER: STATUS searching
USER: GENES 25
USER: genes 0 Translation |==|  0.63864 0.63196 0.48389
USER: genes 1 Rotation |==|  0.84965 0.19933 0.68760 0.54640
USER: genes 2 Torsion [CB]-CA--N-[C] |==|  0.16308
USER: genes 3 Torsion [N]-C--CA-[N] |==|  0.29058
USER: genes 4 Torsion [C]-CA--CB-[CG] |==|  0.77451
USER: genes 5 Torsion [CA]-CB--CG-[CD] |==|  0.30026
USER: genes 6 Torsion [CB]-CG--CD-[NE] |==|  0.99300
USER: genes 7 Torsion [CG]-CD--NE-[HE] |==|  0.79647
USER: genes 8 Torsion [C]-CA--N-[C] |==|  0.70310
USER: genes 9 Torsion [N]-C--CA-[N] |==|  0.08744
USER: genes 10 Torsion [C]-CA--N-[C] |==|  0.19360
USER: genes 11 Torsion [N]-C--CA-[N] |==|  0.23769
USER: genes 12 Torsion [N]-CA--C-[N] |==|  0.65189
USER: genes 13 Torsion [C]-N--CA-[C] |==|  0.72946
USER: genes 14 Torsion [N]-CA--C-[N] |==|  0.50330
USER: genes 15 Torsion [C]-N--CA-[C] |==|  0.68333
USER: genes 16 Torsion [N]-CA--C-[N] |==|  0.85127
USER: genes 17 Torsion [C]-N--CA-[CB] |==|  0.26191
USER: genes 18 Torsion [N]-CA--CB-[OG] |==|  0.67313
USER: genes 19 Torsion [CA]-CB--OG-[HG] |==|  0.22814
USER: genes 20 Torsion [N]-CA--C-[OXT] |==|  0.94387
USER: genes 21 Torsion [N]-CA--CB-[OG] |==|  0.75807
USER: genes 22 Torsion [CA]-CB--OG-[HG] |==|  0.64614
USER: genes 23 Torsion [N]-CA--CB-[CG] |==|  0.85208
USER: genes 24 Torsion [CA]-CB--CG-[CD2] |==|  0.89535
ROOT
ATOM      1  CA  ALA B 364      36.007 -12.285  -8.489  1.00 28.10 LIG 0.17  C 
ATOM      2  CB  ALA B 364      34.826 -11.765  -9.290  1.00 26.12 LIG 0.04  C 
ENDROOT
BRANCH 1 3
ATOM      3  N   ALA B 364      37.167 -12.454  -9.360  1.00 32.12 LIG-0.35  N 
ATOM      4 H    ALA B 364      37.481 -13.254  -9.387  1.00 32.12 LIG 0.16  HD
ATOM      5  C   ARG B 363      37.671 -11.432 -10.043  1.00 35.84 LIG 0.24  C 
ATOM      6 O    ARG B 363      37.188 -10.302  -9.995  1.00 34.68 LIG-0.27  OA
BRANCH 5 7
ATOM      7  CA  ARG B 363      38.904 -11.723 -10.905  1.00 40.75 LIG 0.18  C 
BRANCH 7 8
ATOM      8  CB  ARG B 363      39.985 -10.668 -10.630  1.00 43.30 LIG 0.04  C 
BRANCH 8 9
ATOM      9  CG  ARG B 363      39.765  -9.364 -11.388  1.00 48.42 LIG 0.02  C 
BRANCH 9 10
ATOM     10  CD  ARG B 363      39.323  -8.220 -10.485  1.00 50.65 LIG 0.14  C 
BRANCH 10 11
ATOM     11  NE  ARG B 363      39.158  -8.674  -9.103  1.00 53.91 LIG-0.23  N 
ATOM     12 HE   ARG B 363      38.475  -9.163  -8.922  1.00 53.91 LIG 0.18  HD
ATOM     13  CZ  ARG B 363      39.993  -8.383  -8.108  1.00 54.64 LIG 0.67  C 
ATOM     14  NH2 ARG B 363      39.755  -8.841  -6.885  1.00 53.91 LIG-0.23  N 
ATOM     15  NH1 ARG B 363      41.066  -7.634  -8.332  1.00 54.84 LIG-0.23  N 
ATOM     16 1HH2 ARG B 363      39.060  -9.325  -6.735  1.00 53.91 LIG 0.17  HD
ATOM     17 2HH2 ARG B 363      40.295  -8.653  -6.243  1.00 53.91 LIG 0.17  HD
ATOM     18 1HH1 ARG B 363      41.223  -7.335  -9.123  1.00 54.84 LIG 0.17  HD
ATOM     19 2HH1 ARG B 363      41.603  -7.448  -7.687  1.00 54.84 LIG 0.17  HD
ENDBRANCH 10 11
ENDBRANCH 9 10
ENDBRANCH 8 9
ENDBRANCH 7 8
BRANCH 7 20
ATOM     20  N   ARG B 363      38.633 -11.805 -12.336  1.00 43.94 LIG-0.35  N 
ATOM     21  C   ALA B 362      38.630 -12.951 -13.012  1.00 45.99 LIG 0.24  C 
ATOM     22 O    ALA B 362      38.871 -14.045 -12.497  1.00 46.10 LIG-0.27  OA
ATOM     23 H    ARG B 363      38.475 -11.042 -12.702  1.00 43.94 LIG 0.16  HD
BRANCH 21 24
ATOM     24  CA  ALA B 362      38.318 -12.837 -14.500  1.00 47.39 LIG 0.17  C 
ATOM     25  CB  ALA B 362      38.961 -13.990 -15.264  1.00 48.25 LIG 0.04  C 
BRANCH 24 26
ATOM     26  N   ALA B 362      38.800 -11.563 -15.017  1.00 48.90 LIG-0.35  N 
ATOM     27  C   GLY B 361      40.096 -11.299 -15.140  1.00 49.70 LIG 0.25  C 
ATOM     28 O    GLY B 361      40.979 -12.101 -14.823  1.00 50.52 LIG-0.27  OA
ATOM     29 H    ALA B 362      38.177 -11.009 -15.230  1.00 48.90 LIG 0.16  HD
BRANCH 27 30
ATOM     30  CA  GLY B 361      40.451  -9.935 -15.694  1.00 49.65 LIG 0.47  C 
ATOM     31  N   GLY B 361      40.494  -8.900 -14.629  1.00 49.05 LIG 0.61  N 
ENDBRANCH 27 30
ENDBRANCH 24 26
ENDBRANCH 21 24
ENDBRANCH 7 20
ENDBRANCH 5 7
ENDBRANCH 1 3
BRANCH 1 32
ATOM     32  C   ALA B 364      35.683 -13.646  -7.872  1.00 26.37 LIG 0.24  C 
ATOM     33  N   HIS B 365      34.443 -14.102  -8.031  1.00 23.61 LIG-0.35  N 
ATOM     34 H    HIS B 365      33.829 -13.684  -8.465  1.00 23.61 LIG 0.16  HD
ATOM     35 O    ALA B 364      36.545 -14.271  -7.255  1.00 24.80 LIG-0.27  OA
BRANCH 33 36
ATOM     36  CA  HIS B 365      34.021 -15.380  -7.463  1.00 22.03 LIG 0.18  C 
BRANCH 36 37
ATOM     37  C   HIS B 365      34.080 -16.507  -8.490  1.00 20.85 LIG 0.24  C 
ATOM     38 O    HIS B 365      34.463 -16.297  -9.638  1.00 18.88 LIG-0.27  OA
ATOM     39  N   SER B 366      33.689 -17.704  -8.063  1.00 20.61 LIG-0.34  N 
ATOM     40 H    SER B 366      33.420 -17.859  -7.261  1.00 20.61 LIG 0.16  HD
BRANCH 39 41
ATOM     41  CA  SER B 366      33.680 -18.877  -8.930  1.00 22.02 LIG 0.20  C 
BRANCH 41 42
ATOM     42  C   SER B 366      32.253 -19.353  -9.164  1.00 20.47 LIG 0.24  C 
ATOM     43 O    SER B 366      31.824 -19.507 -10.308  1.00 18.56 LIG-0.27  OA
ATOM     44  N   SER B 367      31.523 -19.581  -8.076  1.00 19.80 LIG-0.34  N 
ATOM     45 H    SER B 367      31.815 -19.483  -7.273  1.00 19.80 LIG 0.16  HD
BRANCH 44 46
ATOM     46  CA  SER B 367      30.136 -20.027  -8.163  1.00 20.54 LIG 0.21  C 
BRANCH 46 47
ATOM     47  CB  SER B 367      30.049 -21.555  -8.080  1.00 20.61 LIG 0.20  C 
BRANCH 47 48
ATOM     48 OG   SER B 367      29.506 -22.111  -9.264  1.00 20.78 LIG-0.40  OA
ATOM     49 HG   SER B 367      30.110 -22.179  -9.845  1.00 20.78 LIG 0.21  HD
ENDBRANCH 47 48
ENDBRANCH 46 47
BRANCH 46 50
ATOM     50  C   SER B 367      29.302 -19.409  -7.044  1.00 22.30 LIG 0.20  C 
ATOM     51 O    SER B 367      28.058 -19.384  -7.180  1.00 20.52 LIG-0.65  OA
ATOM     52 OXT  SER B 367      29.904 -18.973  -6.038  1.00 22.33 LIG-0.65  OA
ENDBRANCH 46 50
ENDBRANCH 44 46
ENDBRANCH 41 42
BRANCH 41 53
ATOM     53  CB  SER B 366      34.484 -20.014  -8.288  1.00 25.29 LIG 0.20  C 
BRANCH 53 54
ATOM     54 OG   SER B 366      35.859 -19.918  -8.621  1.00 34.76 LIG-0.40  OA
ATOM     55 HG   SER B 366      36.122 -20.651  -8.937  1.00 34.76 LIG 0.21  HD
ENDBRANCH 53 54
ENDBRANCH 41 53
ENDBRANCH 39 41
ENDBRANCH 36 37
BRANCH 36 56
ATOM     56  CB  HIS B 365      32.589 -15.265  -6.939  1.00 23.96 LIG 0.10  C 
BRANCH 56 57
ATOM     57  CG  HIS B 365      32.394 -14.124  -5.990  1.00 26.34 LIG 0.06  A 
ATOM     58 ND1  HIS B 365      31.218 -13.407  -5.922  1.00 28.92 LIG-0.24  NA
ATOM     59  CE1 HIS B 365      31.308 -12.509  -4.957  1.00 27.03 LIG 0.23  A 
ATOM     60 NE2  HIS B 365      32.500 -12.616  -4.399  1.00 28.88 LIG-0.25  NA
ATOM     61  CD2 HIS B 365      33.200 -13.618  -5.028  1.00 26.83 LIG 0.14  A 
ENDBRANCH 56 57
ENDBRANCH 36 56
ENDBRANCH 33 36
ENDBRANCH 1 32
TORSDOF 23
ENDMDL
MODEL 28
USER: ADFR SOLUTION from run 187
USER: SCORE 16.591697 LL:  -3.339 LR: -14.218 RR:   0.000 FEB:  -7.358
USER: RMSD 11.421596
USER: SEED 186
USER: STATUS searching
USER: GENES 25
USER: genes 0 Translation |==|  0.59634 0.52412 0.47322
USER: genes 1 Rotation |==|  0.71103 0.70909 0.89038 0.59668
USER: genes 2 Torsion [CB]-CA--N-[C] |==|  0.49522
USER: genes 3 Torsion [N]-C--CA-[N] |==|  0.27117
USER: genes 4 Torsion [C]-CA--CB-[CG] |==|  0.42322
USER: genes 5 Torsion [CA]-CB--CG-[CD] |==|  0.42588
USER: genes 6 Torsion [CB]-CG--CD-[NE] |==|  0.80732
USER: genes 7 Torsion [CG]-CD--NE-[HE] |==|  0.17278
USER: genes 8 Torsion [C]-CA--N-[C] |==|  0.77014
USER: genes 9 Torsion [N]-C--CA-[N] |==|  0.13851
USER: genes 10 Torsion [C]-CA--N-[C] |==|  0.16297
USER: genes 11 Torsion [N]-C--CA-[N] |==|  0.90372
USER: genes 12 Torsion [N]-CA--C-[N] |==|  0.42854
USER: genes 13 Torsion [C]-N--CA-[C] |==|  0.83313
USER: genes 14 Torsion [N]-CA--C-[N] |==|  0.94315
USER: genes 15 Torsion [C]-N--CA-[C] |==|  0.85265
USER: genes 16 Torsion [N]-CA--C-[N] |==|  0.36566
USER: genes 17 Torsion [C]-N--CA-[CB] |==|  0.27890
USER: genes 18 Torsion [N]-CA--CB-[OG] |==|  0.99425
USER: genes 19 Torsion [CA]-CB--OG-[HG] |==|  0.89436
USER: genes 20 Torsion [N]-CA--C-[OXT] |==|  0.94845
USER: genes 21 Torsion [N]-CA--CB-[OG] |==|  0.14658
USER: genes 22 Torsion [CA]-CB--OG-[HG] |==|  0.96944
USER: genes 23 Torsion [N]-CA--CB-[CG] |==|  0.58070
USER: genes 24 Torsion [CA]-CB--CG-[CD2] |==|  0.38401
ROOT
ATOM      1  CA  ALA B 364      34.960 -14.307  -8.722  1.00 28.10 LIG 0.17  C 
ATOM      2  CB  ALA B 364      35.349 -15.701  -8.261  1.00 26.12 LIG 0.04  C 
ENDROOT
BRANCH 1 3
ATOM      3  N   ALA B 364      36.142 -13.585  -9.183  1.00 32.12 LIG-0.35  N 
ATOM      4 H    ALA B 364      36.879 -14.022  -9.113  1.00 32.12 LIG 0.16  HD
ATOM      5  C   ARG B 363      36.050 -12.351  -9.668  1.00 35.84 LIG 0.24  C 
ATOM      6 O    ARG B 363      34.978 -11.759  -9.770  1.00 34.68 LIG-0.27  OA
BRANCH 5 7
ATOM      7  CA  ARG B 363      37.360 -11.682 -10.098  1.00 40.75 LIG 0.18  C 
BRANCH 7 8
ATOM      8  CB  ARG B 363      37.366 -10.217  -9.640  1.00 43.30 LIG 0.04  C 
BRANCH 8 9
ATOM      9  CG  ARG B 363      38.764  -9.662  -9.400  1.00 48.42 LIG 0.02  C 
BRANCH 9 10
ATOM     10  CD  ARG B 363      38.845  -8.153  -9.585  1.00 50.65 LIG 0.14  C 
BRANCH 10 11
ATOM     11  NE  ARG B 363      38.682  -7.787 -10.992  1.00 53.91 LIG-0.23  N 
ATOM     12 HE   ARG B 363      37.937  -7.983 -11.373  1.00 53.91 LIG 0.18  HD
ATOM     13  CZ  ARG B 363      39.608  -7.171 -11.725  1.00 54.64 LIG 0.67  C 
ATOM     14  NH2 ARG B 363      39.366  -6.884 -12.998  1.00 53.91 LIG-0.23  N 
ATOM     15  NH1 ARG B 363      40.776  -6.843 -11.187  1.00 54.84 LIG-0.23  N 
ATOM     16 1HH2 ARG B 363      38.611  -7.097 -13.350  1.00 53.91 LIG 0.17  HD
ATOM     17 2HH2 ARG B 363      39.964  -6.486 -13.470  1.00 53.91 LIG 0.17  HD
ATOM     18 1HH1 ARG B 363      40.937  -7.028 -10.363  1.00 54.84 LIG 0.17  HD
ATOM     19 2HH1 ARG B 363      41.372  -6.445 -11.663  1.00 54.84 LIG 0.17  HD
ENDBRANCH 10 11
ENDBRANCH 9 10
ENDBRANCH 8 9
ENDBRANCH 7 8
BRANCH 7 20
ATOM     20  N   ARG B 363      37.636 -11.763 -11.529  1.00 43.94 LIG-0.35  N 
ATOM     21  C   ALA B 362      38.192 -12.827 -12.104  1.00 45.99 LIG 0.24  C 
ATOM     22 O    ALA B 362      38.539 -13.833 -11.481  1.00 46.10 LIG-0.27  OA
ATOM     23 H    ARG B 363      37.406 -11.059 -11.966  1.00 43.94 LIG 0.16  HD
BRANCH 21 24
ATOM     24  CA  ALA B 362      38.395 -12.729 -13.612  1.00 47.39 LIG 0.17  C 
ATOM     25  CB  ALA B 362      39.222 -13.910 -14.110  1.00 48.25 LIG 0.04  C 
BRANCH 24 26
ATOM     26  N   ALA B 362      39.059 -11.476 -13.947  1.00 48.90 LIG-0.35  N 
ATOM     27  C   GLY B 361      40.251 -11.158 -13.454  1.00 49.70 LIG 0.25  C 
ATOM     28 O    GLY B 361      40.874 -11.887 -12.677  1.00 50.52 LIG-0.27  OA
ATOM     29 H    ALA B 362      38.614 -10.973 -14.485  1.00 48.90 LIG 0.16  HD
BRANCH 27 30
ATOM     30  CA  GLY B 361      40.821  -9.825 -13.891  1.00 49.65 LIG 0.47  C 
ATOM     31  N   GLY B 361      40.451  -9.499 -15.293  1.00 49.05 LIG 0.61  N 
ENDBRANCH 27 30
ENDBRANCH 24 26
ENDBRANCH 21 24
ENDBRANCH 7 20
ENDBRANCH 5 7
ENDBRANCH 1 3
BRANCH 1 32
ATOM     32  C   ALA B 364      34.345 -13.510  -7.570  1.00 26.37 LIG 0.24  C 
ATOM     33  N   HIS B 365      33.041 -13.668  -7.354  1.00 23.61 LIG-0.35  N 
ATOM     34 H    HIS B 365      32.539 -14.195  -7.812  1.00 23.61 LIG 0.16  HD
ATOM     35 O    ALA B 364      35.043 -12.757  -6.891  1.00 24.80 LIG-0.27  OA
BRANCH 33 36
ATOM     36  CA  HIS B 365      32.349 -12.939  -6.295  1.00 22.03 LIG 0.18  C 
BRANCH 36 37
ATOM     37  C   HIS B 365      32.926 -13.251  -4.917  1.00 20.85 LIG 0.24  C 
ATOM     38 O    HIS B 365      32.755 -12.486  -3.972  1.00 18.88 LIG-0.27  OA
ATOM     39  N   SER B 366      33.619 -14.382  -4.819  1.00 20.61 LIG-0.34  N 
ATOM     40 H    SER B 366      33.742 -14.923  -5.477  1.00 20.61 LIG 0.16  HD
BRANCH 39 41
ATOM     41  CA  SER B 366      34.239 -14.812  -3.572  1.00 22.02 LIG 0.20  C 
BRANCH 41 42
ATOM     42  C   SER B 366      35.120 -13.705  -3.008  1.00 20.47 LIG 0.24  C 
ATOM     43 O    SER B 366      35.936 -13.127  -3.728  1.00 18.56 LIG-0.27  OA
ATOM     44  N   SER B 367      34.954 -13.420  -1.720  1.00 19.80 LIG-0.34  N 
ATOM     45 H    SER B 367      34.384 -13.814  -1.211  1.00 19.80 LIG 0.16  HD
BRANCH 44 46
ATOM     46  CA  SER B 367      35.747 -12.390  -1.055  1.00 20.54 LIG 0.21  C 
BRANCH 46 47
ATOM     47  CB  SER B 367      34.948 -11.088  -0.924  1.00 20.61 LIG 0.20  C 
BRANCH 47 48
ATOM     48 OG   SER B 367      33.669 -11.200  -1.520  1.00 20.78 LIG-0.40  OA
ATOM     49 HG   SER B 367      33.726 -11.656  -2.224  1.00 20.78 LIG 0.21  HD
ENDBRANCH 47 48
ENDBRANCH 46 47
BRANCH 46 50
ATOM     50  C   SER B 367      36.184 -12.860   0.330  1.00 22.30 LIG 0.20  C 
ATOM     51 O    SER B 367      37.129 -12.257   0.886  1.00 20.52 LIG-0.65  OA
ATOM     52 OXT  SER B 367      35.563 -13.816   0.847  1.00 22.33 LIG-0.65  OA
ENDBRANCH 46 50
ENDBRANCH 44 46
ENDBRANCH 41 42
BRANCH 41 53
ATOM     53  CB  SER B 366      35.100 -16.057  -3.811  1.00 25.29 LIG 0.20  C 
BRANCH 53 54
ATOM     54 OG   SER B 366      36.021 -15.845  -4.868  1.00 34.76 LIG-0.40  OA
ATOM     55 HG   SER B 366      35.827 -15.133  -5.270  1.00 34.76 LIG 0.21  HD
ENDBRANCH 53 54
ENDBRANCH 41 53
ENDBRANCH 39 41
ENDBRANCH 36 37
BRANCH 36 56
ATOM     56  CB  HIS B 365      30.865 -13.302  -6.302  1.00 23.96 LIG 0.10  C 
BRANCH 56 57
ATOM     57  CG  HIS B 365      29.982 -12.202  -5.801  1.00 26.34 LIG 0.06  A 
ATOM     58 ND1  HIS B 365      30.337 -11.385  -4.749  1.00 28.92 LIG-0.24  NA
ATOM     59  CE1 HIS B 365      29.401 -10.469  -4.570  1.00 27.03 LIG 0.23  A 
ATOM     60 NE2  HIS B 365      28.451 -10.664  -5.467  1.00 28.88 LIG-0.25  NA
ATOM     61  CD2 HIS B 365      28.789 -11.744  -6.248  1.00 26.83 LIG 0.14  A 
ENDBRANCH 56 57
ENDBRANCH 36 56
ENDBRANCH 33 36
ENDBRANCH 1 32
TORSDOF 23
ENDMDL
MODEL 29
USER: ADFR SOLUTION from run 164
USER: SCORE 17.284899 LL:  -4.323 LR: -14.212 RR:   0.000 FEB:  -7.351
USER: RMSD 10.349069
USER: SEED 163
USER: STATUS no improvement in best in 4 clusters for 5 generations
USER: GENES 25
USER: genes 0 Translation |==|  0.61147 0.64337 0.47688
USER: genes 1 Rotation |==|  0.77374 0.33212 0.88215 0.52903
USER: genes 2 Torsion [CB]-CA--N-[C] |==|  0.19522
USER: genes 3 Torsion [N]-C--CA-[N] |==|  0.85627
USER: genes 4 Torsion [C]-CA--CB-[CG] |==|  0.05291
USER: genes 5 Torsion [CA]-CB--CG-[CD] |==|  0.36847
USER: genes 6 Torsion [CB]-CG--CD-[NE] |==|  0.61185
USER: genes 7 Torsion [CG]-CD--NE-[HE] |==|  0.72706
USER: genes 8 Torsion [C]-CA--N-[C] |==|  0.78676
USER: genes 9 Torsion [N]-C--CA-[N] |==|  0.38492
USER: genes 10 Torsion [C]-CA--N-[C] |==|  0.80569
USER: genes 11 Torsion [N]-C--CA-[N] |==|  0.78748
USER: genes 12 Torsion [N]-CA--C-[N] |==|  0.52910
USER: genes 13 Torsion [C]-N--CA-[C] |==|  0.79874
USER: genes 14 Torsion [N]-CA--C-[N] |==|  0.90472
USER: genes 15 Torsion [C]-N--CA-[C] |==|  0.69495
USER: genes 16 Torsion [N]-CA--C-[N] |==|  0.00762
USER: genes 17 Torsion [C]-N--CA-[CB] |==|  0.86941
USER: genes 18 Torsion [N]-CA--CB-[OG] |==|  0.86865
USER: genes 19 Torsion [CA]-CB--OG-[HG] |==|  0.50396
USER: genes 20 Torsion [N]-CA--C-[OXT] |==|  0.53730
USER: genes 21 Torsion [N]-CA--CB-[OG] |==|  0.48726
USER: genes 22 Torsion [CA]-CB--OG-[HG] |==|  0.80065
USER: genes 23 Torsion [N]-CA--CB-[CG] |==|  0.75768
USER: genes 24 Torsion [CA]-CB--CG-[CD2] |==|  0.89261
ROOT
ATOM      1  CA  ALA B 364      35.335 -12.071  -8.642  1.00 28.10 LIG 0.17  C 
ATOM      2  CB  ALA B 364      34.962 -12.606 -10.013  1.00 26.12 LIG 0.04  C 
ENDROOT
BRANCH 1 3
ATOM      3  N   ALA B 364      36.786 -12.074  -8.480  1.00 32.12 LIG-0.35  N 
ATOM      4 H    ALA B 364      37.082 -12.658  -7.923  1.00 32.12 LIG 0.16  HD
ATOM      5  C   ARG B 363      37.556 -11.229  -9.157  1.00 35.84 LIG 0.24  C 
ATOM      6 O    ARG B 363      37.101 -10.417  -9.959  1.00 34.68 LIG-0.27  OA
BRANCH 5 7
ATOM      7  CA  ARG B 363      39.063 -11.308  -8.887  1.00 40.75 LIG 0.18  C 
BRANCH 7 8
ATOM      8  CB  ARG B 363      39.634 -12.583  -9.522  1.00 43.30 LIG 0.04  C 
BRANCH 8 9
ATOM      9  CG  ARG B 363      38.737 -13.179 -10.600  1.00 48.42 LIG 0.02  C 
BRANCH 9 10
ATOM     10  CD  ARG B 363      39.495 -13.540 -11.870  1.00 50.65 LIG 0.14  C 
BRANCH 10 11
ATOM     11  NE  ARG B 363      38.720 -13.194 -13.062  1.00 53.91 LIG-0.23  N 
ATOM     12 HE   ARG B 363      38.273 -13.821 -13.444  1.00 53.91 LIG 0.18  HD
ATOM     13  CZ  ARG B 363      38.658 -11.976 -13.596  1.00 54.64 LIG 0.67  C 
ATOM     14  NH2 ARG B 363      37.927 -11.763 -14.683  1.00 53.91 LIG-0.23  N 
ATOM     15  NH1 ARG B 363      39.326 -10.970 -13.045  1.00 54.84 LIG-0.23  N 
ATOM     16 1HH2 ARG B 363      37.494 -12.412 -15.044  1.00 53.91 LIG 0.17  HD
ATOM     17 2HH2 ARG B 363      37.887 -10.975 -15.027  1.00 53.91 LIG 0.17  HD
ATOM     18 1HH1 ARG B 363      39.801 -11.104 -12.341  1.00 54.84 LIG 0.17  HD
ATOM     19 2HH1 ARG B 363      39.284 -10.185 -13.392  1.00 54.84 LIG 0.17  HD
ENDBRANCH 10 11
ENDBRANCH 9 10
ENDBRANCH 8 9
ENDBRANCH 7 8
BRANCH 7 20
ATOM     20  N   ARG B 363      39.426 -11.241  -7.476  1.00 43.94 LIG-0.35  N 
ATOM     21  C   ALA B 362      39.430 -10.109  -6.777  1.00 45.99 LIG 0.24  C 
ATOM     22 O    ALA B 362      39.142  -9.011  -7.260  1.00 46.10 LIG-0.27  OA
ATOM     23 H    ARG B 363      39.638 -12.003  -7.137  1.00 43.94 LIG 0.16  HD
BRANCH 21 24
ATOM     24  CA  ALA B 362      39.831 -10.240  -5.312  1.00 47.39 LIG 0.17  C 
ATOM     25  CB  ALA B 362      38.590 -10.259  -4.425  1.00 48.25 LIG 0.04  C 
BRANCH 24 26
ATOM     26  N   ALA B 362      40.703  -9.136  -4.931  1.00 48.90 LIG-0.35  N 
ATOM     27  C   GLY B 361      41.946  -9.032  -5.388  1.00 49.70 LIG 0.25  C 
ATOM     28 O    GLY B 361      42.452  -9.855  -6.155  1.00 50.52 LIG-0.27  OA
ATOM     29 H    ALA B 362      40.342  -8.571  -4.392  1.00 48.90 LIG 0.16  HD
BRANCH 27 30
ATOM     30  CA  GLY B 361      42.735  -7.832  -4.909  1.00 49.65 LIG 0.47  C 
ATOM     31  N   GLY B 361      42.325  -6.586  -5.607  1.00 49.05 LIG 0.61  N 
ENDBRANCH 27 30
ENDBRANCH 24 26
ENDBRANCH 21 24
ENDBRANCH 7 20
ENDBRANCH 5 7
ENDBRANCH 1 3
BRANCH 1 32
ATOM     32  C   ALA B 364      34.739 -12.949  -7.539  1.00 26.37 LIG 0.24  C 
ATOM     33  N   HIS B 365      33.446 -13.249  -7.639  1.00 23.61 LIG-0.35  N 
ATOM     34 H    HIS B 365      32.941 -12.991  -8.285  1.00 23.61 LIG 0.16  HD
ATOM     35 O    ALA B 364      35.442 -13.342  -6.609  1.00 24.80 LIG-0.27  OA
BRANCH 33 36
ATOM     36  CA  HIS B 365      32.772 -14.062  -6.630  1.00 22.03 LIG 0.18  C 
BRANCH 36 37
ATOM     37  C   HIS B 365      33.188 -15.528  -6.709  1.00 20.85 LIG 0.24  C 
ATOM     38 O    HIS B 365      33.282 -16.214  -5.694  1.00 18.88 LIG-0.27  OA
ATOM     39  N   SER B 366      33.443 -15.996  -7.927  1.00 20.61 LIG-0.34  N 
ATOM     40 H    SER B 366      33.378 -15.521  -8.642  1.00 20.61 LIG 0.16  HD
BRANCH 39 41
ATOM     41  CA  SER B 366      33.859 -17.373  -8.163  1.00 22.02 LIG 0.20  C 
BRANCH 41 42
ATOM     42  C   SER B 366      35.318 -17.420  -8.596  1.00 20.47 LIG 0.24  C 
ATOM     43 O    SER B 366      35.851 -18.491  -8.889  1.00 18.56 LIG-0.27  OA
ATOM     44  N   SER B 367      35.959 -16.255  -8.629  1.00 19.80 LIG-0.34  N 
ATOM     45 H    SER B 367      35.595 -15.501  -8.432  1.00 19.80 LIG 0.16  HD
BRANCH 44 46
ATOM     46  CA  SER B 367      37.365 -16.165  -9.013  1.00 20.54 LIG 0.21  C 
BRANCH 46 47
ATOM     47  CB  SER B 367      38.197 -17.226  -8.283  1.00 20.61 LIG 0.20  C 
BRANCH 47 48
ATOM     48 OG   SER B 367      37.902 -17.258  -6.899  1.00 20.78 LIG-0.40  OA
ATOM     49 HG   SER B 367      38.385 -17.833  -6.522  1.00 20.78 LIG 0.21  HD
ENDBRANCH 47 48
ENDBRANCH 46 47
BRANCH 46 50
ATOM     50  C   SER B 367      37.523 -16.342 -10.520  1.00 22.30 LIG 0.20  C 
ATOM     51 O    SER B 367      36.498 -16.259 -11.234  1.00 20.52 LIG-0.65  OA
ATOM     52 OXT  SER B 367      38.673 -16.546 -10.969  1.00 22.33 LIG-0.65  OA
ENDBRANCH 46 50
ENDBRANCH 44 46
ENDBRANCH 41 42
BRANCH 41 53
ATOM     53  CB  SER B 366      32.996 -18.006  -9.261  1.00 25.29 LIG 0.20  C 
BRANCH 53 54
ATOM     54 OG   SER B 366      33.452 -19.310  -9.579  1.00 34.76 LIG-0.40  OA
ATOM     55 HG   SER B 366      34.179 -19.259  -9.998  1.00 34.76 LIG 0.21  HD
ENDBRANCH 53 54
ENDBRANCH 41 53
ENDBRANCH 39 41
ENDBRANCH 36 37
BRANCH 36 56
ATOM     56  CB  HIS B 365      31.258 -13.968  -6.817  1.00 23.96 LIG 0.10  C 
BRANCH 56 57
ATOM     57  CG  HIS B 365      30.642 -12.809  -6.096  1.00 26.34 LIG 0.06  A 
ATOM     58 ND1  HIS B 365      29.569 -12.106  -6.601  1.00 28.92 LIG-0.24  NA
ATOM     59  CE1 HIS B 365      29.198 -11.187  -5.727  1.00 27.03 LIG 0.23  A 
ATOM     60 NE2  HIS B 365      29.993 -11.268  -4.675  1.00 28.88 LIG-0.25  NA
ATOM     61  CD2 HIS B 365      30.906 -12.274  -4.881  1.00 26.83 LIG 0.14  A 
ENDBRANCH 56 57
ENDBRANCH 36 56
ENDBRANCH 33 36
ENDBRANCH 1 32
TORSDOF 23
ENDMDL
MODEL 30
USER: ADFR SOLUTION from run 116
USER: SCORE 16.075399 LL:  -3.865 LR: -14.212 RR:   0.000 FEB:  -7.351
USER: RMSD 9.997509
USER: SEED 115
USER: STATUS no improvement in best in 3 clusters for 5 generations
USER: GENES 25
USER: genes 0 Translation |==|  0.69078 0.40977 0.41904
USER: genes 1 Rotation |==|  0.47936 0.66455 0.96956 0.54487
USER: genes 2 Torsion [CB]-CA--N-[C] |==|  0.83087
USER: genes 3 Torsion [N]-C--CA-[N] |==|  0.17432
USER: genes 4 Torsion [C]-CA--CB-[CG] |==|  0.33405
USER: genes 5 Torsion [CA]-CB--CG-[CD] |==|  0.23315
USER: genes 6 Torsion [CB]-CG--CD-[NE] |==|  0.17245
USER: genes 7 Torsion [CG]-CD--NE-[HE] |==|  0.00603
USER: genes 8 Torsion [C]-CA--N-[C] |==|  0.74960
USER: genes 9 Torsion [N]-C--CA-[N] |==|  0.46435
USER: genes 10 Torsion [C]-CA--N-[C] |==|  0.73889
USER: genes 11 Torsion [N]-C--CA-[N] |==|  0.25503
USER: genes 12 Torsion [N]-CA--C-[N] |==|  0.72097
USER: genes 13 Torsion [C]-N--CA-[C] |==|  0.74460
USER: genes 14 Torsion [N]-CA--C-[N] |==|  0.18136
USER: genes 15 Torsion [C]-N--CA-[C] |==|  0.77023
USER: genes 16 Torsion [N]-CA--C-[N] |==|  0.45262
USER: genes 17 Torsion [C]-N--CA-[CB] |==|  0.23518
USER: genes 18 Torsion [N]-CA--CB-[OG] |==|  0.97090
USER: genes 19 Torsion [CA]-CB--OG-[HG] |==|  0.19215
USER: genes 20 Torsion [N]-CA--C-[OXT] |==|  0.42718
USER: genes 21 Torsion [N]-CA--CB-[OG] |==|  0.09133
USER: genes 22 Torsion [CA]-CB--OG-[HG] |==|  0.11200
USER: genes 23 Torsion [N]-CA--CB-[CG] |==|  0.61058
USER: genes 24 Torsion [CA]-CB--CG-[CD2] |==|  0.65526
ROOT
ATOM      1  CA  ALA B 364      37.298 -16.451  -9.900  1.00 28.10 LIG 0.17  C 
ATOM      2  CB  ALA B 364      37.955 -17.641  -9.223  1.00 26.12 LIG 0.04  C 
ENDROOT
BRANCH 1 3
ATOM      3  N   ALA B 364      37.840 -15.207  -9.362  1.00 32.12 LIG-0.35  N 
ATOM      4 H    ALA B 364      38.232 -14.707  -9.941  1.00 32.12 LIG 0.16  HD
ATOM      5  C   ARG B 363      37.719 -14.903  -8.074  1.00 35.84 LIG 0.24  C 
ATOM      6 O    ARG B 363      37.138 -15.632  -7.274  1.00 34.68 LIG-0.27  OA
BRANCH 5 7
ATOM      7  CA  ARG B 363      38.349 -13.582  -7.618  1.00 40.75 LIG 0.18  C 
BRANCH 7 8
ATOM      8  CB  ARG B 363      38.270 -13.475  -6.088  1.00 43.30 LIG 0.04  C 
BRANCH 8 9
ATOM      9  CG  ARG B 363      39.634 -13.351  -5.419  1.00 48.42 LIG 0.02  C 
BRANCH 9 10
ATOM     10  CD  ARG B 363      40.154 -11.920  -5.392  1.00 50.65 LIG 0.14  C 
BRANCH 10 11
ATOM     11  NE  ARG B 363      39.265 -11.052  -4.618  1.00 53.91 LIG-0.23  N 
ATOM     12 HE   ARG B 363      38.582 -11.413  -4.242  1.00 53.91 LIG 0.18  HD
ATOM     13  CZ  ARG B 363      39.441  -9.742  -4.455  1.00 54.64 LIG 0.67  C 
ATOM     14  NH2 ARG B 363      38.575  -9.039  -3.736  1.00 53.91 LIG-0.23  N 
ATOM     15  NH1 ARG B 363      40.481  -9.134  -5.011  1.00 54.84 LIG-0.23  N 
ATOM     16 1HH2 ARG B 363      37.899  -9.430  -3.375  1.00 53.91 LIG 0.17  HD
ATOM     17 2HH2 ARG B 363      38.690  -8.194  -3.631  1.00 53.91 LIG 0.17  HD
ATOM     18 1HH1 ARG B 363      41.044  -9.585  -5.479  1.00 54.84 LIG 0.17  HD
ATOM     19 2HH1 ARG B 363      40.592  -8.288  -4.904  1.00 54.84 LIG 0.17  HD
ENDBRANCH 10 11
ENDBRANCH 9 10
ENDBRANCH 8 9
ENDBRANCH 7 8
BRANCH 7 20
ATOM     20  N   ARG B 363      37.771 -12.393  -8.236  1.00 43.94 LIG-0.35  N 
ATOM     21  C   ALA B 362      38.227 -11.868  -9.370  1.00 45.99 LIG 0.24  C 
ATOM     22 O    ALA B 362      39.187 -12.325  -9.994  1.00 46.10 LIG-0.27  OA
ATOM     23 H    ARG B 363      37.107 -12.064  -7.798  1.00 43.94 LIG 0.16  HD
BRANCH 21 24
ATOM     24  CA  ALA B 362      37.488 -10.629  -9.865  1.00 47.39 LIG 0.17  C 
ATOM     25  CB  ALA B 362      36.103 -11.010 -10.376  1.00 48.25 LIG 0.04  C 
BRANCH 24 26
ATOM     26  N   ALA B 362      38.252  -9.979 -10.922  1.00 48.90 LIG-0.35  N 
ATOM     27  C   GLY B 361      39.097  -8.986 -10.670  1.00 49.70 LIG 0.25  C 
ATOM     28 O    GLY B 361      39.292  -8.539  -9.536  1.00 50.52 LIG-0.27  OA
ATOM     29 H    ALA B 362      38.105 -10.294 -11.709  1.00 48.90 LIG 0.16  HD
BRANCH 27 30
ATOM     30  CA  GLY B 361      39.824  -8.408 -11.866  1.00 49.65 LIG 0.47  C 
ATOM     31  N   GLY B 361      39.092  -7.257 -12.454  1.00 49.05 LIG 0.61  N 
ENDBRANCH 27 30
ENDBRANCH 24 26
ENDBRANCH 21 24
ENDBRANCH 7 20
ENDBRANCH 5 7
ENDBRANCH 1 3
BRANCH 1 32
ATOM     32  C   ALA B 364      35.789 -16.452  -9.648  1.00 26.37 LIG 0.24  C 
ATOM     33  N   HIS B 365      35.350 -17.165  -8.613  1.00 23.61 LIG-0.35  N 
ATOM     34 H    HIS B 365      35.862 -17.607  -8.082  1.00 23.61 LIG 0.16  HD
ATOM     35 O    ALA B 364      35.035 -15.819 -10.385  1.00 24.80 LIG-0.27  OA
BRANCH 33 36
ATOM     36  CA  HIS B 365      33.927 -17.252  -8.296  1.00 22.03 LIG 0.18  C 
BRANCH 36 37
ATOM     37  C   HIS B 365      33.498 -16.177  -7.302  1.00 20.85 LIG 0.24  C 
ATOM     38 O    HIS B 365      33.099 -16.477  -6.179  1.00 18.88 LIG-0.27  OA
ATOM     39  N   SER B 366      33.578 -14.921  -7.732  1.00 20.61 LIG-0.34  N 
ATOM     40 H    SER B 366      33.857 -14.704  -8.516  1.00 20.61 LIG 0.16  HD
BRANCH 39 41
ATOM     41  CA  SER B 366      33.195 -13.786  -6.901  1.00 22.02 LIG 0.20  C 
BRANCH 41 42
ATOM     42  C   SER B 366      31.689 -13.570  -6.958  1.00 20.47 LIG 0.24  C 
ATOM     43 O    SER B 366      31.018 -14.077  -7.859  1.00 18.56 LIG-0.27  OA
ATOM     44  N   SER B 367      31.166 -12.814  -5.998  1.00 19.80 LIG-0.34  N 
ATOM     45 H    SER B 367      31.625 -12.460  -5.362  1.00 19.80 LIG 0.16  HD
BRANCH 44 46
ATOM     46  CA  SER B 367      29.738 -12.518  -5.947  1.00 20.54 LIG 0.21  C 
BRANCH 46 47
ATOM     47  CB  SER B 367      28.974 -13.643  -5.238  1.00 20.61 LIG 0.20  C 
BRANCH 47 48
ATOM     48 OG   SER B 367      29.795 -14.778  -5.029  1.00 20.78 LIG-0.40  OA
ATOM     49 HG   SER B 367      30.381 -14.597  -4.454  1.00 20.78 LIG 0.21  HD
ENDBRANCH 47 48
ENDBRANCH 46 47
BRANCH 46 50
ATOM     50  C   SER B 367      29.488 -11.198  -5.222  1.00 22.30 LIG 0.20  C 
ATOM     51 O    SER B 367      30.341 -10.813  -4.391  1.00 20.52 LIG-0.65  OA
ATOM     52 OXT  SER B 367      28.451 -10.560  -5.508  1.00 22.33 LIG-0.65  OA
ENDBRANCH 46 50
ENDBRANCH 44 46
ENDBRANCH 41 42
BRANCH 41 53
ATOM     53  CB  SER B 366      33.897 -12.513  -7.389  1.00 25.29 LIG 0.20  C 
BRANCH 53 54
ATOM     54 OG   SER B 366      34.076 -12.538  -8.796  1.00 34.76 LIG-0.40  OA
ATOM     55 HG   SER B 366      33.390 -12.856  -9.160  1.00 34.76 LIG 0.21  HD
ENDBRANCH 53 54
ENDBRANCH 41 53
ENDBRANCH 39 41
ENDBRANCH 36 37
BRANCH 36 56
ATOM     56  CB  HIS B 365      33.612 -18.626  -7.704  1.00 23.96 LIG 0.10  C 
BRANCH 56 57
ATOM     57  CG  HIS B 365      32.315 -19.197  -8.184  1.00 26.34 LIG 0.06  A 
ATOM     58 ND1  HIS B 365      32.058 -19.439  -9.517  1.00 28.92 LIG-0.24  NA
ATOM     59  CE1 HIS B 365      30.868 -20.000  -9.639  1.00 27.03 LIG 0.23  A 
ATOM     60 NE2  HIS B 365      30.343 -20.129  -8.433  1.00 28.88 LIG-0.25  NA
ATOM     61  CD2 HIS B 365      31.227 -19.632  -7.506  1.00 26.83 LIG 0.14  A 
ENDBRANCH 56 57
ENDBRANCH 36 56
ENDBRANCH 33 36
ENDBRANCH 1 32
TORSDOF 23
ENDMDL
MODEL 31
USER: ADFR SOLUTION from run 91
USER: SCORE 16.048158 LL:  -3.371 LR: -14.165 RR:   0.000 FEB:  -7.304
USER: RMSD 11.920700
USER: SEED 90
USER: STATUS no improvement in best in 9 clusters for 5 generations
USER: GENES 25
USER: genes 0 Translation |==|  0.59540 0.51827 0.47335
USER: genes 1 Rotation |==|  0.68878 0.72280 0.89346 0.59955
USER: genes 2 Torsion [CB]-CA--N-[C] |==|  0.48899
USER: genes 3 Torsion [N]-C--CA-[N] |==|  0.29193
USER: genes 4 Torsion [C]-CA--CB-[CG] |==|  0.43584
USER: genes 5 Torsion [CA]-CB--CG-[CD] |==|  0.42782
USER: genes 6 Torsion [CB]-CG--CD-[NE] |==|  0.78124
USER: genes 7 Torsion [CG]-CD--NE-[HE] |==|  0.19583
USER: genes 8 Torsion [C]-CA--N-[C] |==|  0.77222
USER: genes 9 Torsion [N]-C--CA-[N] |==|  0.13462
USER: genes 10 Torsion [C]-CA--N-[C] |==|  0.17612
USER: genes 11 Torsion [N]-C--CA-[N] |==|  0.89019
USER: genes 12 Torsion [N]-CA--C-[N] |==|  0.45471
USER: genes 13 Torsion [C]-N--CA-[C] |==|  0.65333
USER: genes 14 Torsion [N]-CA--C-[N] |==|  0.89296
USER: genes 15 Torsion [C]-N--CA-[C] |==|  0.56449
USER: genes 16 Torsion [N]-CA--C-[N] |==|  0.45202
USER: genes 17 Torsion [C]-N--CA-[CB] |==|  0.26079
USER: genes 18 Torsion [N]-CA--CB-[OG] |==|  0.20868
USER: genes 19 Torsion [CA]-CB--OG-[HG] |==|  0.05763
USER: genes 20 Torsion [N]-CA--C-[OXT] |==|  0.82603
USER: genes 21 Torsion [N]-CA--CB-[OG] |==|  0.79385
USER: genes 22 Torsion [CA]-CB--OG-[HG] |==|  0.05001
USER: genes 23 Torsion [N]-CA--CB-[CG] |==|  0.43707
USER: genes 24 Torsion [CA]-CB--CG-[CD2] |==|  0.66617
ROOT
ATOM      1  CA  ALA B 364      34.937 -14.416  -8.719  1.00 28.10 LIG 0.17  C 
ATOM      2  CB  ALA B 364      35.363 -15.758  -8.148  1.00 26.12 LIG 0.04  C 
ENDROOT
BRANCH 1 3
ATOM      3  N   ALA B 364      36.110 -13.657  -9.143  1.00 32.12 LIG-0.35  N 
ATOM      4 H    ALA B 364      36.862 -14.034  -8.969  1.00 32.12 LIG 0.16  HD
ATOM      5  C   ARG B 363      35.986 -12.481  -9.748  1.00 35.84 LIG 0.24  C 
ATOM      6 O    ARG B 363      34.894 -11.976  -9.996  1.00 34.68 LIG-0.27  OA
BRANCH 5 7
ATOM      7  CA  ARG B 363      37.287 -11.763 -10.125  1.00 40.75 LIG 0.18  C 
BRANCH 7 8
ATOM      8  CB  ARG B 363      37.233 -10.308  -9.639  1.00 43.30 LIG 0.04  C 
BRANCH 8 9
ATOM      9  CG  ARG B 363      38.608  -9.680  -9.451  1.00 48.42 LIG 0.02  C 
BRANCH 9 10
ATOM     10  CD  ARG B 363      38.594  -8.164  -9.593  1.00 50.65 LIG 0.14  C 
BRANCH 10 11
ATOM     11  NE  ARG B 363      38.561  -7.768 -11.002  1.00 53.91 LIG-0.23  N 
ATOM     12 HE   ARG B 363      37.836  -7.910 -11.440  1.00 53.91 LIG 0.18  HD
ATOM     13  CZ  ARG B 363      39.576  -7.204 -11.651  1.00 54.64 LIG 0.67  C 
ATOM     14  NH2 ARG B 363      39.450  -6.884 -12.933  1.00 53.91 LIG-0.23  N 
ATOM     15  NH1 ARG B 363      40.720  -6.960 -11.022  1.00 54.84 LIG-0.23  N 
ATOM     16 1HH2 ARG B 363      38.712  -7.042 -13.345  1.00 53.91 LIG 0.17  HD
ATOM     17 2HH2 ARG B 363      40.107  -6.519 -13.352  1.00 53.91 LIG 0.17  HD
ATOM     18 1HH1 ARG B 363      40.806  -7.167 -10.193  1.00 54.84 LIG 0.17  HD
ATOM     19 2HH1 ARG B 363      41.374  -6.595 -11.445  1.00 54.84 LIG 0.17  HD
ENDBRANCH 10 11
ENDBRANCH 9 10
ENDBRANCH 8 9
ENDBRANCH 7 8
BRANCH 7 20
ATOM     20  N   ARG B 363      37.608 -11.807 -11.549  1.00 43.94 LIG-0.35  N 
ATOM     21  C   ALA B 362      38.200 -12.847 -12.130  1.00 45.99 LIG 0.24  C 
ATOM     22 O    ALA B 362      38.547 -13.860 -11.520  1.00 46.10 LIG-0.27  OA
ATOM     23 H    ARG B 363      37.377 -11.097 -11.977  1.00 43.94 LIG 0.16  HD
BRANCH 21 24
ATOM     24  CA  ALA B 362      38.447 -12.710 -13.628  1.00 47.39 LIG 0.17  C 
ATOM     25  CB  ALA B 362      39.339 -13.846 -14.121  1.00 48.25 LIG 0.04  C 
BRANCH 24 26
ATOM     26  N   ALA B 362      39.067 -11.424 -13.919  1.00 48.90 LIG-0.35  N 
ATOM     27  C   GLY B 361      40.270 -11.103 -13.456  1.00 49.70 LIG 0.25  C 
ATOM     28 O    GLY B 361      40.941 -11.857 -12.746  1.00 50.52 LIG-0.27  OA
ATOM     29 H    ALA B 362      38.589 -10.904 -14.410  1.00 48.90 LIG 0.16  HD
BRANCH 27 30
ATOM     30  CA  GLY B 361      40.790  -9.733 -13.840  1.00 49.65 LIG 0.47  C 
ATOM     31  N   GLY B 361      40.455  -9.390 -15.246  1.00 49.05 LIG 0.61  N 
ENDBRANCH 27 30
ENDBRANCH 24 26
ENDBRANCH 21 24
ENDBRANCH 7 20
ENDBRANCH 5 7
ENDBRANCH 1 3
BRANCH 1 32
ATOM     32  C   ALA B 364      34.202 -13.590  -7.662  1.00 26.37 LIG 0.24  C 
ATOM     33  N   HIS B 365      32.947 -13.938  -7.389  1.00 23.61 LIG-0.35  N 
ATOM     34 H    HIS B 365      32.539 -14.598  -7.759  1.00 23.61 LIG 0.16  HD
ATOM     35 O    ALA B 364      34.765 -12.646  -7.108  1.00 24.80 LIG-0.27  OA
BRANCH 33 36
ATOM     36  CA  HIS B 365      32.146 -13.202  -6.413  1.00 22.03 LIG 0.18  C 
BRANCH 36 37
ATOM     37  C   HIS B 365      31.591 -14.118  -5.326  1.00 20.85 LIG 0.24  C 
ATOM     38 O    HIS B 365      31.538 -13.750  -4.155  1.00 18.88 LIG-0.27  OA
ATOM     39  N   SER B 366      31.184 -15.318  -5.728  1.00 20.61 LIG-0.34  N 
ATOM     40 H    SER B 366      31.217 -15.582  -6.546  1.00 20.61 LIG 0.16  HD
BRANCH 39 41
ATOM     41  CA  SER B 366      30.639 -16.307  -4.806  1.00 22.02 LIG 0.20  C 
BRANCH 41 42
ATOM     42  C   SER B 366      30.793 -17.709  -5.378  1.00 20.47 LIG 0.24  C 
ATOM     43 O    SER B 366      31.014 -17.875  -6.579  1.00 18.56 LIG-0.27  OA
ATOM     44  N   SER B 367      30.672 -18.714  -4.515  1.00 19.80 LIG-0.34  N 
ATOM     45 H    SER B 367      30.524 -18.609  -3.674  1.00 19.80 LIG 0.16  HD
BRANCH 44 46
ATOM     46  CA  SER B 367      30.784 -20.106  -4.939  1.00 20.54 LIG 0.21  C 
BRANCH 46 47
ATOM     47  CB  SER B 367      32.219 -20.615  -4.762  1.00 20.61 LIG 0.20  C 
BRANCH 47 48
ATOM     48 OG   SER B 367      32.518 -20.868  -3.401  1.00 20.78 LIG-0.40  OA
ATOM     49 HG   SER B 367      31.803 -20.970  -2.971  1.00 20.78 LIG 0.21  HD
ENDBRANCH 47 48
ENDBRANCH 46 47
BRANCH 46 50
ATOM     50  C   SER B 367      29.829 -20.989  -4.140  1.00 22.30 LIG 0.20  C 
ATOM     51 O    SER B 367      28.933 -21.602  -4.762  1.00 20.52 LIG-0.65  OA
ATOM     52 OXT  SER B 367      30.002 -21.068  -2.903  1.00 22.33 LIG-0.65  OA
ENDBRANCH 46 50
ENDBRANCH 44 46
ENDBRANCH 41 42
BRANCH 41 53
ATOM     53  CB  SER B 366      29.151 -16.034  -4.558  1.00 25.29 LIG 0.20  C 
BRANCH 53 54
ATOM     54 OG   SER B 366      28.972 -14.909  -3.713  1.00 34.76 LIG-0.40  OA
ATOM     55 HG   SER B 366      29.678 -14.453  -3.701  1.00 34.76 LIG 0.21  HD
ENDBRANCH 53 54
ENDBRANCH 41 53
ENDBRANCH 39 41
ENDBRANCH 36 37
BRANCH 36 56
ATOM     56  CB  HIS B 365      30.980 -12.509  -7.117  1.00 23.96 LIG 0.10  C 
BRANCH 56 57
ATOM     57  CG  HIS B 365      29.836 -12.197  -6.204  1.00 26.34 LIG 0.06  A 
ATOM     58 ND1  HIS B 365      29.950 -11.326  -5.141  1.00 28.92 LIG-0.24  NA
ATOM     59  CE1 HIS B 365      28.774 -11.194  -4.555  1.00 27.03 LIG 0.23  A 
ATOM     60 NE2  HIS B 365      27.901 -11.949  -5.198  1.00 28.88 LIG-0.25  NA
ATOM     61  CD2 HIS B 365      28.541 -12.589  -6.232  1.00 26.83 LIG 0.14  A 
ENDBRANCH 56 57
ENDBRANCH 36 56
ENDBRANCH 33 36
ENDBRANCH 1 32
TORSDOF 23
ENDMDL
