MODEL 1
USER: ADFR SOLUTION from run 76
USER: SCORE 16.509152 LL:  -2.556 LR: -14.592 RR:   0.000 FEB:  -8.925
USER: RMSD 5.476353
USER: SEED 75
USER: STATUS no improvement in best in 9 clusters for 5 generations
USER: GENES 21
USER: genes 0 Translation |==|  0.48615 0.62325 0.47441
USER: genes 1 Rotation |==|  0.73996 0.24029 0.68826 0.79921
USER: genes 2 Torsion [N]-C--CA-[N] |==|  0.55612
USER: genes 3 Torsion [C]-CA--N-[C] |==|  0.40867
USER: genes 4 Torsion [N]-C--CA-[N] |==|  0.49912
USER: genes 5 Torsion [C]-CA--N-[C] |==|  0.43553
USER: genes 6 Torsion [N]-C--CA-[N] |==|  0.55328
USER: genes 7 Torsion [N]-C--CA-[N] |==|  0.83943
USER: genes 8 Torsion [C]-CA--CB-[CG] |==|  0.29017
USER: genes 9 Torsion [CA]-CB--CG-[CD] |==|  0.63131
USER: genes 10 Torsion [CB]-CG--CD-[OE2] |==|  0.65430
USER: genes 11 Torsion [C]-N--CA-[CB] |==|  0.84691
USER: genes 12 Torsion [N]-CA--CB-[OG] |==|  0.56351
USER: genes 13 Torsion [CA]-CB--OG-[HG] |==|  0.89680
USER: genes 14 Torsion [N]-CA--C-[N] |==|  0.38332
USER: genes 15 Torsion [C]-N--CA-[CB] |==|  0.14656
USER: genes 16 Torsion [N]-CA--C-[OXT] |==|  0.34787
USER: genes 17 Torsion [N]-CA--CB-[CG] |==|  0.59650
USER: genes 18 Torsion [CA]-CB--CG-[CD] |==|  0.46639
USER: genes 19 Torsion [CB]-CG--CD-[NE] |==|  0.30426
USER: genes 20 Torsion [CG]-CD--NE-[HE] |==|  0.18398
ROOT
ATOM      1  C   GLY B 361      37.870 -10.307  -9.986  1.00 26.32 LIG 0.24  C 
ATOM      2 O    GLY B 361      38.883 -11.005 -10.015  1.00 25.16 LIG-0.27  OA
ATOM      3  N   SER B 362      37.903  -8.995  -9.774  1.00 27.60 LIG-0.34  N 
ATOM      4 H    SER B 362      37.204  -8.496  -9.736  1.00 27.60 LIG 0.16  HD
ENDROOT
BRANCH 1 5
ATOM      5  CA  GLY B 361      36.502 -10.934 -10.187  1.00 24.90 LIG 0.23  C 
BRANCH 5 6
ATOM      6  N   GLY B 361      36.551 -12.365  -9.934  1.00 24.70 LIG-0.35  N 
ATOM      7  C   GLY B 360      35.504 -13.003  -9.417  1.00 25.98 LIG 0.23  C 
ATOM      8 O    GLY B 360      34.451 -12.435  -9.099  1.00 23.45 LIG-0.27  OA
ATOM      9 H    GLY B 361      37.294 -12.742 -10.145  1.00 24.70 LIG 0.16  HD
BRANCH 7 10
ATOM     10  CA  GLY B 360      35.659 -14.495  -9.214  1.00 26.97 LIG 0.23  C 
BRANCH 10 11
ATOM     11  N   GLY B 360      34.452 -15.055  -8.640  1.00 32.20 LIG-0.35  N 
ATOM     12  C   PRO B 359      34.160 -16.343  -8.786  1.00 35.92 LIG 0.24  C 
ATOM     13 O    PRO B 359      34.876 -17.126  -9.405  1.00 37.04 LIG-0.27  OA
ATOM     14 H    GLY B 360      33.962 -14.492  -8.212  1.00 32.20 LIG 0.16  HD
BRANCH 12 15
ATOM     15  CA  PRO B 359      32.864 -16.815  -8.136  1.00 39.21 LIG 0.18  C 
ATOM     16  CB  PRO B 359      32.697 -16.278  -6.717  1.00 38.88 LIG 0.04  C 
ATOM     17  CG  PRO B 359      33.358 -17.331  -5.886  1.00 39.81 LIG 0.02  C 
ATOM     18  CD  PRO B 359      32.820 -18.602  -6.508  1.00 41.55 LIG 0.13  C 
ATOM     19  N   PRO B 359      32.822 -18.269  -7.943  1.00 42.03 LIG-0.34  N 
ATOM     20  C   GLU B 358      32.868 -19.125  -8.974  1.00 44.90 LIG 0.26  C 
ATOM     21 O    GLU B 358      32.952 -18.738 -10.141  1.00 45.02 LIG-0.27  OA
BRANCH 20 22
ATOM     22  CA  GLU B 358      32.817 -20.616  -8.645  1.00 48.47 LIG 0.40  C 
ATOM     23  N   GLU B 358      33.941 -20.984  -7.733  1.00 49.88 LIG 0.61  N 
BRANCH 22 24
ATOM     24  CB  GLU B 358      31.471 -20.948  -7.990  1.00 52.00 LIG 0.06  C 
BRANCH 24 25
ATOM     25  CG  GLU B 358      30.476 -21.666  -8.898  1.00 56.00 LIG 0.12  C 
BRANCH 25 26
ATOM     26  CD  GLU B 358      29.086 -21.053  -8.846  1.00 58.41 LIG 0.17  C 
ATOM     27 OE1  GLU B 358      28.966 -19.833  -9.098  1.00 59.40 LIG-0.65  OA
ATOM     28 OE2  GLU B 358      28.119 -21.789  -8.554  1.00 59.45 LIG-0.65  OA
ENDBRANCH 25 26
ENDBRANCH 24 25
ENDBRANCH 22 24
ENDBRANCH 20 22
ENDBRANCH 12 15
ENDBRANCH 10 11
ENDBRANCH 7 10
ENDBRANCH 5 6
ENDBRANCH 1 5
BRANCH 3 29
ATOM     29  CA  SER B 362      39.165  -8.285  -9.586  1.00 31.63 LIG 0.20  C 
BRANCH 29 30
ATOM     30  CB  SER B 362      39.967  -8.922  -8.442  1.00 29.14 LIG 0.20  C 
BRANCH 30 31
ATOM     31 OG   SER B 362      40.896  -8.008  -7.888  1.00 25.13 LIG-0.40  OA
ATOM     32 HG   SER B 362      41.219  -7.532  -8.499  1.00 25.13 LIG 0.21  HD
ENDBRANCH 30 31
ENDBRANCH 29 30
BRANCH 29 33
ATOM     33  C   SER B 362      40.061  -8.173 -10.821  1.00 35.65 LIG 0.24  C 
ATOM     34 O    SER B 362      40.203  -9.142 -11.565  1.00 37.77 LIG-0.27  OA
ATOM     35  N   ARG B 363      40.665  -7.008 -11.048  1.00 40.10 LIG-0.34  N 
ATOM     36 H    ARG B 363      40.592  -6.318 -10.540  1.00 40.10 LIG 0.16  HD
BRANCH 35 37
ATOM     37  CA  ARG B 363      41.524  -6.821 -12.221  1.00 45.15 LIG 0.18  C 
BRANCH 37 38
ATOM     38  C   ARG B 363      42.039  -5.390 -12.366  1.00 46.43 LIG 0.20  C 
ATOM     39 O    ARG B 363      41.202  -4.463 -12.392  1.00 47.78 LIG-0.65  OA
ATOM     40 OXT  ARG B 363      43.273  -5.209 -12.454  1.00 47.46 LIG-0.65  OA
ENDBRANCH 37 38
BRANCH 37 41
ATOM     41  CB  ARG B 363      40.783  -7.221 -13.501  1.00 48.51 LIG 0.04  C 
BRANCH 41 42
ATOM     42  CG  ARG B 363      41.663  -7.856 -14.563  1.00 53.09 LIG 0.02  C 
BRANCH 42 43
ATOM     43  CD  ARG B 363      40.826  -8.487 -15.662  1.00 56.16 LIG 0.14  C 
BRANCH 43 44
ATOM     44  NE  ARG B 363      40.919  -7.743 -16.916  1.00 60.73 LIG-0.23  N 
ATOM     45 HE   ARG B 363      41.679  -7.727 -17.319  1.00 60.73 LIG 0.18  HD
ATOM     46  CZ  ARG B 363      39.904  -7.088 -17.476  1.00 63.15 LIG 0.67  C 
ATOM     47  NH2 ARG B 363      40.077  -6.441 -18.623  1.00 63.96 LIG-0.23  N 
ATOM     48  NH1 ARG B 363      38.713  -7.080 -16.889  1.00 63.92 LIG-0.23  N 
ATOM     49 1HH2 ARG B 363      40.847  -6.444 -19.008  1.00 63.96 LIG 0.17  HD
ATOM     50 2HH2 ARG B 363      39.419  -6.019 -18.981  1.00 63.96 LIG 0.17  HD
ATOM     51 1HH1 ARG B 363      38.596  -7.498 -16.146  1.00 63.92 LIG 0.17  HD
ATOM     52 2HH1 ARG B 363      38.058  -6.657 -17.252  1.00 63.92 LIG 0.17  HD
ENDBRANCH 43 44
ENDBRANCH 42 43
ENDBRANCH 41 42
ENDBRANCH 37 41
ENDBRANCH 35 37
ENDBRANCH 29 33
ENDBRANCH 3 29
TORSDOF 19
ENDMDL
MODEL 2
USER: ADFR SOLUTION from run 44
USER: SCORE 17.225665 LL:  -3.493 LR: -14.355 RR:   0.000 FEB:  -8.687
USER: RMSD 5.559670
USER: SEED 43
USER: STATUS no improvement in best in 3 clusters for 5 generations
USER: GENES 21
USER: genes 0 Translation |==|  0.49619 0.62676 0.47699
USER: genes 1 Rotation |==|  0.70087 0.23889 0.73001 0.79760
USER: genes 2 Torsion [N]-C--CA-[N] |==|  0.59967
USER: genes 3 Torsion [C]-CA--N-[C] |==|  0.41794
USER: genes 4 Torsion [N]-C--CA-[N] |==|  0.50456
USER: genes 5 Torsion [C]-CA--N-[C] |==|  0.76664
USER: genes 6 Torsion [N]-C--CA-[N] |==|  0.53804
USER: genes 7 Torsion [N]-C--CA-[N] |==|  0.38627
USER: genes 8 Torsion [C]-CA--CB-[CG] |==|  0.37655
USER: genes 9 Torsion [CA]-CB--CG-[CD] |==|  0.94566
USER: genes 10 Torsion [CB]-CG--CD-[OE2] |==|  0.26157
USER: genes 11 Torsion [C]-N--CA-[CB] |==|  0.86316
USER: genes 12 Torsion [N]-CA--CB-[OG] |==|  0.50433
USER: genes 13 Torsion [CA]-CB--OG-[HG] |==|  0.06560
USER: genes 14 Torsion [N]-CA--C-[N] |==|  0.35802
USER: genes 15 Torsion [C]-N--CA-[CB] |==|  0.14587
USER: genes 16 Torsion [N]-CA--C-[OXT] |==|  0.93569
USER: genes 17 Torsion [N]-CA--CB-[CG] |==|  0.51266
USER: genes 18 Torsion [CA]-CB--CG-[CD] |==|  0.52045
USER: genes 19 Torsion [CB]-CG--CD-[NE] |==|  0.07205
USER: genes 20 Torsion [CG]-CD--NE-[HE] |==|  0.80830
ROOT
ATOM      1  C   GLY B 361      38.111 -10.228  -9.926  1.00 26.32 LIG 0.24  C 
ATOM      2 O    GLY B 361      39.121 -10.888  -9.687  1.00 25.16 LIG-0.27  OA
ATOM      3  N   SER B 362      38.105  -8.899  -9.945  1.00 27.60 LIG-0.34  N 
ATOM      4 H    SER B 362      37.405  -8.423 -10.096  1.00 27.60 LIG 0.16  HD
ENDROOT
BRANCH 1 5
ATOM      5  CA  GLY B 361      36.790 -10.923 -10.207  1.00 24.90 LIG 0.23  C 
BRANCH 5 6
ATOM      6  N   GLY B 361      36.662 -12.127  -9.404  1.00 24.70 LIG-0.35  N 
ATOM      7  C   GLY B 360      35.467 -12.568  -9.021  1.00 25.98 LIG 0.23  C 
ATOM      8 O    GLY B 360      34.408 -11.986  -9.294  1.00 23.45 LIG-0.27  OA
ATOM      9 H    GLY B 361      37.406 -12.510  -9.208  1.00 24.70 LIG 0.16  HD
BRANCH 7 10
ATOM     10  CA  GLY B 360      35.450 -13.841  -8.202  1.00 26.97 LIG 0.23  C 
BRANCH 10 11
ATOM     11  N   GLY B 360      34.087 -14.223  -7.890  1.00 32.20 LIG-0.35  N 
ATOM     12  C   PRO B 359      33.451 -13.696  -6.850  1.00 35.92 LIG 0.24  C 
ATOM     13 O    PRO B 359      33.965 -12.871  -6.098  1.00 37.04 LIG-0.27  OA
ATOM     14 H    GLY B 360      33.744 -14.803  -8.425  1.00 32.20 LIG 0.16  HD
BRANCH 12 15
ATOM     15  CA  PRO B 359      32.021 -14.174  -6.625  1.00 39.21 LIG 0.18  C 
ATOM     16  CB  PRO B 359      31.173 -14.085  -7.891  1.00 38.88 LIG 0.04  C 
ATOM     17  CG  PRO B 359      30.599 -12.707  -7.806  1.00 39.81 LIG 0.02  C 
ATOM     18  CD  PRO B 359      30.178 -12.633  -6.354  1.00 41.55 LIG 0.13  C 
ATOM     19  N   PRO B 359      31.283 -13.333  -5.676  1.00 42.03 LIG-0.34  N 
ATOM     20  C   GLU B 358      31.666 -13.197  -4.398  1.00 44.90 LIG 0.26  C 
ATOM     21 O    GLU B 358      32.661 -13.769  -3.951  1.00 45.02 LIG-0.27  OA
BRANCH 20 22
ATOM     22  CA  GLU B 358      30.815 -12.293  -3.507  1.00 48.47 LIG 0.40  C 
ATOM     23  N   GLU B 358      30.649 -12.907  -2.156  1.00 49.88 LIG 0.61  N 
BRANCH 22 24
ATOM     24  CB  GLU B 358      31.486 -10.919  -3.388  1.00 52.00 LIG 0.06  C 
BRANCH 24 25
ATOM     25  CG  GLU B 358      30.540  -9.730  -3.532  1.00 56.00 LIG 0.12  C 
BRANCH 25 26
ATOM     26  CD  GLU B 358      29.237 -10.098  -4.223  1.00 58.41 LIG 0.17  C 
ATOM     27 OE1  GLU B 358      29.202 -10.080  -5.474  1.00 59.40 LIG-0.65  OA
ATOM     28 OE2  GLU B 358      28.252 -10.406  -3.516  1.00 59.45 LIG-0.65  OA
ENDBRANCH 25 26
ENDBRANCH 24 25
ENDBRANCH 22 24
ENDBRANCH 20 22
ENDBRANCH 12 15
ENDBRANCH 10 11
ENDBRANCH 7 10
ENDBRANCH 5 6
ENDBRANCH 1 5
BRANCH 3 29
ATOM     29  CA  SER B 362      39.322  -8.128  -9.706  1.00 31.63 LIG 0.20  C 
BRANCH 29 30
ATOM     30  CB  SER B 362      40.029  -8.633  -8.439  1.00 29.14 LIG 0.20  C 
BRANCH 30 31
ATOM     31 OG   SER B 362      41.196  -7.880  -8.162  1.00 25.13 LIG-0.40  OA
ATOM     32 HG   SER B 362      41.132  -7.122  -8.518  1.00 25.13 LIG 0.21  HD
ENDBRANCH 30 31
ENDBRANCH 29 30
BRANCH 29 33
ATOM     33  C   SER B 362      40.329  -8.090 -10.858  1.00 35.65 LIG 0.24  C 
ATOM     34 O    SER B 362      40.696  -9.139 -11.385  1.00 37.77 LIG-0.27  OA
ATOM     35  N   ARG B 363      40.777  -6.900 -11.252  1.00 40.10 LIG-0.34  N 
ATOM     36 H    ARG B 363      40.546  -6.152 -10.896  1.00 40.10 LIG 0.16  HD
BRANCH 35 37
ATOM     37  CA  ARG B 363      41.729  -6.784 -12.361  1.00 45.15 LIG 0.18  C 
BRANCH 37 38
ATOM     38  C   ARG B 363      42.037  -5.337 -12.739  1.00 46.43 LIG 0.20  C 
ATOM     39 O    ARG B 363      43.115  -5.098 -13.326  1.00 47.78 LIG-0.65  OA
ATOM     40 OXT  ARG B 363      41.202  -4.455 -12.443  1.00 47.46 LIG-0.65  OA
ENDBRANCH 37 38
BRANCH 37 41
ATOM     41  CB  ARG B 363      41.210  -7.528 -13.597  1.00 48.51 LIG 0.04  C 
BRANCH 41 42
ATOM     42  CG  ARG B 363      42.180  -7.556 -14.765  1.00 53.09 LIG 0.02  C 
BRANCH 42 43
ATOM     43  CD  ARG B 363      41.529  -8.148 -16.003  1.00 56.16 LIG 0.14  C 
BRANCH 43 44
ATOM     44  NE  ARG B 363      40.077  -7.980 -15.991  1.00 60.73 LIG-0.23  N 
ATOM     45 HE   ARG B 363      39.625  -8.429 -15.413  1.00 60.73 LIG 0.18  HD
ATOM     46  CZ  ARG B 363      39.409  -7.176 -16.816  1.00 63.15 LIG 0.67  C 
ATOM     47  NH2 ARG B 363      38.087  -7.080 -16.731  1.00 63.96 LIG-0.23  N 
ATOM     48  NH1 ARG B 363      40.063  -6.465 -17.727  1.00 63.92 LIG-0.23  N 
ATOM     49 1HH2 ARG B 363      37.659  -7.538 -16.141  1.00 63.96 LIG 0.17  HD
ATOM     50 2HH2 ARG B 363      37.659  -6.560 -17.265  1.00 63.96 LIG 0.17  HD
ATOM     51 1HH1 ARG B 363      40.919  -6.524 -17.786  1.00 63.92 LIG 0.17  HD
ATOM     52 2HH1 ARG B 363      39.630  -5.946 -18.259  1.00 63.92 LIG 0.17  HD
ENDBRANCH 43 44
ENDBRANCH 42 43
ENDBRANCH 41 42
ENDBRANCH 37 41
ENDBRANCH 35 37
ENDBRANCH 29 33
ENDBRANCH 3 29
TORSDOF 19
ENDMDL
MODEL 3
USER: ADFR SOLUTION from run 24
USER: SCORE 16.867812 LL:  -3.187 LR: -14.265 RR:   0.000 FEB:  -8.598
USER: RMSD 5.513808
USER: SEED 23
USER: STATUS no improvement in best in 12 clusters for 5 generations
USER: GENES 21
USER: genes 0 Translation |==|  0.49123 0.62738 0.46671
USER: genes 1 Rotation |==|  0.74183 0.23479 0.68781 0.79310
USER: genes 2 Torsion [N]-C--CA-[N] |==|  0.56413
USER: genes 3 Torsion [C]-CA--N-[C] |==|  0.40793
USER: genes 4 Torsion [N]-C--CA-[N] |==|  0.44114
USER: genes 5 Torsion [C]-CA--N-[C] |==|  0.73464
USER: genes 6 Torsion [N]-C--CA-[N] |==|  0.88193
USER: genes 7 Torsion [N]-C--CA-[N] |==|  0.81902
USER: genes 8 Torsion [C]-CA--CB-[CG] |==|  0.35032
USER: genes 9 Torsion [CA]-CB--CG-[CD] |==|  0.95818
USER: genes 10 Torsion [CB]-CG--CD-[OE2] |==|  0.82394
USER: genes 11 Torsion [C]-N--CA-[CB] |==|  0.83889
USER: genes 12 Torsion [N]-CA--CB-[OG] |==|  0.54473
USER: genes 13 Torsion [CA]-CB--OG-[HG] |==|  0.96506
USER: genes 14 Torsion [N]-CA--C-[N] |==|  0.37798
USER: genes 15 Torsion [C]-N--CA-[CB] |==|  0.13136
USER: genes 16 Torsion [N]-CA--C-[OXT] |==|  0.35325
USER: genes 17 Torsion [N]-CA--CB-[CG] |==|  0.56426
USER: genes 18 Torsion [CA]-CB--CG-[CD] |==|  0.58567
USER: genes 19 Torsion [CB]-CG--CD-[NE] |==|  0.94146
USER: genes 20 Torsion [CG]-CD--NE-[HE] |==|  0.92739
ROOT
ATOM      1  C   GLY B 361      37.991 -10.214 -10.165  1.00 26.32 LIG 0.24  C 
ATOM      2 O    GLY B 361      39.007 -10.910 -10.189  1.00 25.16 LIG-0.27  OA
ATOM      3  N   SER B 362      38.017  -8.908  -9.919  1.00 27.60 LIG-0.34  N 
ATOM      4 H    SER B 362      37.317  -8.411  -9.884  1.00 27.60 LIG 0.16  HD
ENDROOT
BRANCH 1 5
ATOM      5  CA  GLY B 361      36.630 -10.838 -10.412  1.00 24.90 LIG 0.23  C 
BRANCH 5 6
ATOM      6  N   GLY B 361      36.658 -12.263 -10.130  1.00 24.70 LIG-0.35  N 
ATOM      7  C   GLY B 360      35.588 -12.884  -9.641  1.00 25.98 LIG 0.23  C 
ATOM      8 O    GLY B 360      34.528 -12.303  -9.374  1.00 23.45 LIG-0.27  OA
ATOM      9 H    GLY B 361      37.406 -12.649 -10.304  1.00 24.70 LIG 0.16  HD
BRANCH 7 10
ATOM     10  CA  GLY B 360      35.725 -14.373  -9.402  1.00 26.97 LIG 0.23  C 
BRANCH 10 11
ATOM     11  N   GLY B 360      34.734 -14.824  -8.445  1.00 32.20 LIG-0.35  N 
ATOM     12  C   PRO B 359      35.032 -14.936  -7.155  1.00 35.92 LIG 0.24  C 
ATOM     13 O    PRO B 359      36.142 -14.674  -6.698  1.00 37.04 LIG-0.27  OA
ATOM     14 H    GLY B 360      33.964 -15.004  -8.782  1.00 32.20 LIG 0.16  HD
BRANCH 12 15
ATOM     15  CA  PRO B 359      33.906 -15.418  -6.246  1.00 39.21 LIG 0.18  C 
ATOM     16  CB  PRO B 359      33.615 -16.906  -6.421  1.00 38.88 LIG 0.04  C 
ATOM     17  CG  PRO B 359      32.584 -16.914  -7.503  1.00 39.81 LIG 0.02  C 
ATOM     18  CD  PRO B 359      31.664 -15.795  -7.066  1.00 41.55 LIG 0.13  C 
ATOM     19  N   PRO B 359      32.616 -14.793  -6.558  1.00 42.03 LIG-0.34  N 
ATOM     20  C   GLU B 358      32.423 -13.470  -6.454  1.00 44.90 LIG 0.26  C 
ATOM     21 O    GLU B 358      33.320 -12.705  -6.094  1.00 45.02 LIG-0.27  OA
BRANCH 20 22
ATOM     22  CA  GLU B 358      31.035 -12.938  -6.807  1.00 48.47 LIG 0.40  C 
ATOM     23  N   GLU B 358      30.750 -13.157  -8.257  1.00 49.88 LIG 0.61  N 
BRANCH 22 24
ATOM     24  CB  GLU B 358      29.983 -13.647  -5.946  1.00 52.00 LIG 0.06  C 
BRANCH 24 25
ATOM     25  CG  GLU B 358      29.060 -12.715  -5.166  1.00 56.00 LIG 0.12  C 
BRANCH 25 26
ATOM     26  CD  GLU B 358      29.583 -11.289  -5.104  1.00 58.41 LIG 0.17  C 
ATOM     27 OE1  GLU B 358      28.906 -10.384  -5.644  1.00 59.40 LIG-0.65  OA
ATOM     28 OE2  GLU B 358      30.665 -11.074  -4.516  1.00 59.45 LIG-0.65  OA
ENDBRANCH 25 26
ENDBRANCH 24 25
ENDBRANCH 22 24
ENDBRANCH 20 22
ENDBRANCH 12 15
ENDBRANCH 10 11
ENDBRANCH 7 10
ENDBRANCH 5 6
ENDBRANCH 1 5
BRANCH 3 29
ATOM     29  CA  SER B 362      39.274  -8.202  -9.685  1.00 31.63 LIG 0.20  C 
BRANCH 29 30
ATOM     30  CB  SER B 362      40.018  -8.822  -8.493  1.00 29.14 LIG 0.20  C 
BRANCH 30 31
ATOM     31 OG   SER B 362      41.032  -7.961  -8.010  1.00 25.13 LIG-0.40  OA
ATOM     32 HG   SER B 362      41.163  -7.342  -8.563  1.00 25.13 LIG 0.21  HD
ENDBRANCH 30 31
ENDBRANCH 29 30
BRANCH 29 33
ATOM     33  C   SER B 362      40.228  -8.117 -10.879  1.00 35.65 LIG 0.24  C 
ATOM     34 O    SER B 362      40.425  -9.110 -11.577  1.00 37.77 LIG-0.27  OA
ATOM     35  N   ARG B 363      40.818  -6.948 -11.121  1.00 40.10 LIG-0.34  N 
ATOM     36 H    ARG B 363      40.707  -6.241 -10.645  1.00 40.10 LIG 0.16  HD
BRANCH 35 37
ATOM     37  CA  ARG B 363      41.730  -6.787 -12.258  1.00 45.15 LIG 0.18  C 
BRANCH 37 38
ATOM     38  C   ARG B 363      42.119  -5.332 -12.514  1.00 46.43 LIG 0.20  C 
ATOM     39 O    ARG B 363      41.202  -4.492 -12.641  1.00 47.78 LIG-0.65  OA
ATOM     40 OXT  ARG B 363      43.333  -5.046 -12.588  1.00 47.46 LIG-0.65  OA
ENDBRANCH 37 38
BRANCH 37 41
ATOM     41  CB  ARG B 363      41.114  -7.375 -13.532  1.00 48.51 LIG 0.04  C 
BRANCH 41 42
ATOM     42  CG  ARG B 363      42.124  -7.764 -14.595  1.00 53.09 LIG 0.02  C 
BRANCH 42 43
ATOM     43  CD  ARG B 363      41.539  -7.609 -15.989  1.00 56.16 LIG 0.14  C 
BRANCH 43 44
ATOM     44  NE  ARG B 363      40.078  -7.617 -15.972  1.00 60.73 LIG-0.23  N 
ATOM     45 HE   ARG B 363      39.685  -8.028 -15.327  1.00 60.73 LIG 0.18  HD
ATOM     46  CZ  ARG B 363      39.315  -7.028 -16.891  1.00 63.15 LIG 0.67  C 
ATOM     47  NH2 ARG B 363      37.991  -7.080 -16.795  1.00 63.96 LIG-0.23  N 
ATOM     48  NH1 ARG B 363      39.876  -6.385 -17.908  1.00 63.92 LIG-0.23  N 
ATOM     49 1HH2 ARG B 363      37.623  -7.495 -16.137  1.00 63.96 LIG 0.17  HD
ATOM     50 2HH2 ARG B 363      37.502  -6.699 -17.390  1.00 63.96 LIG 0.17  HD
ATOM     51 1HH1 ARG B 363      40.733  -6.348 -17.975  1.00 63.92 LIG 0.17  HD
ATOM     52 2HH1 ARG B 363      39.382  -6.004 -18.501  1.00 63.92 LIG 0.17  HD
ENDBRANCH 43 44
ENDBRANCH 42 43
ENDBRANCH 41 42
ENDBRANCH 37 41
ENDBRANCH 35 37
ENDBRANCH 29 33
ENDBRANCH 3 29
TORSDOF 19
ENDMDL
MODEL 4
USER: ADFR SOLUTION from run 73
USER: SCORE 15.479891 LL:  -3.998 LR: -14.158 RR:   0.000 FEB:  -8.490
USER: RMSD 5.950292
USER: SEED 72
USER: STATUS no improvement in best in 11 clusters for 5 generations
USER: GENES 21
USER: genes 0 Translation |==|  0.54276 0.73287 0.43372
USER: genes 1 Rotation |==|  0.75909 0.49604 0.09684 0.64256
USER: genes 2 Torsion [N]-C--CA-[N] |==|  0.64244
USER: genes 3 Torsion [C]-CA--N-[C] |==|  0.29906
USER: genes 4 Torsion [N]-C--CA-[N] |==|  0.66110
USER: genes 5 Torsion [C]-CA--N-[C] |==|  0.38108
USER: genes 6 Torsion [N]-C--CA-[N] |==|  0.52298
USER: genes 7 Torsion [N]-C--CA-[N] |==|  0.45052
USER: genes 8 Torsion [C]-CA--CB-[CG] |==|  0.78276
USER: genes 9 Torsion [CA]-CB--CG-[CD] |==|  0.78439
USER: genes 10 Torsion [CB]-CG--CD-[OE2] |==|  0.78732
USER: genes 11 Torsion [C]-N--CA-[CB] |==|  0.29957
USER: genes 12 Torsion [N]-CA--CB-[OG] |==|  0.64677
USER: genes 13 Torsion [CA]-CB--OG-[HG] |==|  0.48515
USER: genes 14 Torsion [N]-CA--C-[N] |==|  0.39255
USER: genes 15 Torsion [C]-N--CA-[CB] |==|  0.24750
USER: genes 16 Torsion [N]-CA--C-[OXT] |==|  0.01946
USER: genes 17 Torsion [N]-CA--CB-[CG] |==|  0.64219
USER: genes 18 Torsion [CA]-CB--CG-[CD] |==|  0.36599
USER: genes 19 Torsion [CB]-CG--CD-[NE] |==|  0.92816
USER: genes 20 Torsion [CG]-CD--NE-[HE] |==|  0.24390
ROOT
ATOM      1  C   GLY B 361      39.228  -7.840 -10.932  1.00 26.32 LIG 0.24  C 
ATOM      2 O    GLY B 361      38.311  -7.083 -11.249  1.00 25.16 LIG-0.27  OA
ATOM      3  N   SER B 362      40.409  -7.838 -11.542  1.00 27.60 LIG-0.34  N 
ATOM      4 H    SER B 362      41.054  -8.370 -11.343  1.00 27.60 LIG 0.16  HD
ENDROOT
BRANCH 1 5
ATOM      5  CA  GLY B 361      39.040  -8.843  -9.807  1.00 24.90 LIG 0.23  C 
BRANCH 5 6
ATOM      6  N   GLY B 361      37.825  -9.615 -10.005  1.00 24.70 LIG-0.35  N 
ATOM      7  C   GLY B 360      37.879 -10.893 -10.371  1.00 25.98 LIG 0.23  C 
ATOM      8 O    GLY B 360      38.940 -11.492 -10.589  1.00 23.45 LIG-0.27  OA
ATOM      9 H    GLY B 361      37.096  -9.180  -9.866  1.00 24.70 LIG 0.16  HD
BRANCH 7 10
ATOM     10  CA  GLY B 360      36.553 -11.604 -10.530  1.00 26.97 LIG 0.23  C 
BRANCH 10 11
ATOM     11  N   GLY B 360      36.493 -12.761  -9.660  1.00 32.20 LIG-0.35  N 
ATOM     12  C   PRO B 359      35.393 -13.039  -8.968  1.00 35.92 LIG 0.24  C 
ATOM     13 O    PRO B 359      34.378 -12.348  -9.016  1.00 37.04 LIG-0.27  OA
ATOM     14 H    GLY B 360      37.212 -13.232  -9.637  1.00 32.20 LIG 0.16  HD
BRANCH 12 15
ATOM     15  CA  PRO B 359      35.449 -14.284  -8.089  1.00 39.21 LIG 0.18  C 
ATOM     16  CB  PRO B 359      35.817 -15.537  -8.880  1.00 38.88 LIG 0.04  C 
ATOM     17  CG  PRO B 359      34.483 -16.052  -9.319  1.00 39.81 LIG 0.02  C 
ATOM     18  CD  PRO B 359      33.664 -15.914  -8.054  1.00 41.55 LIG 0.13  C 
ATOM     19  N   PRO B 359      34.146 -14.632  -7.512  1.00 42.03 LIG-0.34  N 
ATOM     20  C   GLU B 358      33.497 -13.810  -6.675  1.00 44.90 LIG 0.26  C 
ATOM     21 O    GLU B 358      33.956 -12.714  -6.348  1.00 45.02 LIG-0.27  OA
BRANCH 20 22
ATOM     22  CA  GLU B 358      32.147 -14.283  -6.140  1.00 48.47 LIG 0.40  C 
ATOM     23  N   GLU B 358      31.764 -13.496  -4.930  1.00 49.88 LIG 0.61  N 
BRANCH 22 24
ATOM     24  CB  GLU B 358      31.082 -14.129  -7.232  1.00 52.00 LIG 0.06  C 
BRANCH 24 25
ATOM     25  CG  GLU B 358      30.567 -12.705  -7.427  1.00 56.00 LIG 0.12  C 
BRANCH 25 26
ATOM     26  CD  GLU B 358      29.568 -12.292  -6.358  1.00 58.41 LIG 0.17  C 
ATOM     27 OE1  GLU B 358      29.957 -11.526  -5.446  1.00 59.40 LIG-0.65  OA
ATOM     28 OE2  GLU B 358      28.400 -12.730  -6.430  1.00 59.45 LIG-0.65  OA
ENDBRANCH 25 26
ENDBRANCH 24 25
ENDBRANCH 22 24
ENDBRANCH 20 22
ENDBRANCH 12 15
ENDBRANCH 10 11
ENDBRANCH 7 10
ENDBRANCH 5 6
ENDBRANCH 1 5
BRANCH 3 29
ATOM     29  CA  SER B 362      40.705  -6.904 -12.625  1.00 31.63 LIG 0.20  C 
BRANCH 29 30
ATOM     30  CB  SER B 362      41.688  -5.826 -12.143  1.00 29.14 LIG 0.20  C 
BRANCH 30 31
ATOM     31 OG   SER B 362      41.197  -4.524 -12.403  1.00 25.13 LIG-0.40  OA
ATOM     32 HG   SER B 362      41.717  -3.956 -12.066  1.00 25.13 LIG 0.21  HD
ENDBRANCH 30 31
ENDBRANCH 29 30
BRANCH 29 33
ATOM     33  C   SER B 362      41.239  -7.524 -13.918  1.00 35.65 LIG 0.24  C 
ATOM     34 O    SER B 362      42.031  -8.465 -13.864  1.00 37.77 LIG-0.27  OA
ATOM     35  N   ARG B 363      40.819  -7.012 -15.072  1.00 40.10 LIG-0.34  N 
ATOM     36 H    ARG B 363      40.275  -6.350 -15.140  1.00 40.10 LIG 0.16  HD
BRANCH 35 37
ATOM     37  CA  ARG B 363      41.274  -7.567 -16.352  1.00 45.15 LIG 0.18  C 
BRANCH 37 38
ATOM     38  C   ARG B 363      41.375  -6.519 -17.459  1.00 46.43 LIG 0.20  C 
ATOM     39 O    ARG B 363      41.627  -6.909 -18.619  1.00 47.78 LIG-0.65  OA
ATOM     40 OXT  ARG B 363      41.203  -5.318 -17.156  1.00 47.46 LIG-0.65  OA
ENDBRANCH 37 38
BRANCH 37 41
ATOM     41  CB  ARG B 363      40.345  -8.696 -16.811  1.00 48.51 LIG 0.04  C 
BRANCH 41 42
ATOM     42  CG  ARG B 363      41.059  -9.983 -17.182  1.00 53.09 LIG 0.02  C 
BRANCH 42 43
ATOM     43  CD  ARG B 363      40.402 -11.183 -16.522  1.00 56.16 LIG 0.14  C 
BRANCH 43 44
ATOM     44  NE  ARG B 363      39.702 -10.817 -15.293  1.00 60.73 LIG-0.23  N 
ATOM     45 HE   ARG B 363      38.884 -10.560 -15.357  1.00 60.73 LIG 0.18  HD
ATOM     46  CZ  ARG B 363      40.249 -10.855 -14.080  1.00 63.15 LIG 0.67  C 
ATOM     47  NH2 ARG B 363      39.536 -10.509 -13.014  1.00 63.96 LIG-0.23  N 
ATOM     48  NH1 ARG B 363      41.511 -11.240 -13.930  1.00 63.92 LIG-0.23  N 
ATOM     49 1HH2 ARG B 363      38.718 -10.259 -13.105  1.00 63.96 LIG 0.17  HD
ATOM     50 2HH2 ARG B 363      39.893 -10.534 -12.232  1.00 63.96 LIG 0.17  HD
ATOM     51 1HH1 ARG B 363      41.976 -11.465 -14.618  1.00 63.92 LIG 0.17  HD
ATOM     52 2HH1 ARG B 363      41.863 -11.265 -13.146  1.00 63.92 LIG 0.17  HD
ENDBRANCH 43 44
ENDBRANCH 42 43
ENDBRANCH 41 42
ENDBRANCH 37 41
ENDBRANCH 35 37
ENDBRANCH 29 33
ENDBRANCH 3 29
TORSDOF 19
ENDMDL
MODEL 5
USER: ADFR SOLUTION from run 132
USER: SCORE 16.378189 LL:  -4.288 LR: -13.890 RR:   0.000 FEB:  -8.223
USER: RMSD 4.818040
USER: SEED 131
USER: STATUS searching
USER: GENES 21
USER: genes 0 Translation |==|  0.50309 0.54544 0.41635
USER: genes 1 Rotation |==|  0.49020 0.38586 0.73463 0.92641
USER: genes 2 Torsion [N]-C--CA-[N] |==|  0.47839
USER: genes 3 Torsion [C]-CA--N-[C] |==|  0.47901
USER: genes 4 Torsion [N]-C--CA-[N] |==|  0.59018
USER: genes 5 Torsion [C]-CA--N-[C] |==|  0.66275
USER: genes 6 Torsion [N]-C--CA-[N] |==|  0.56847
USER: genes 7 Torsion [N]-C--CA-[N] |==|  0.37083
USER: genes 8 Torsion [C]-CA--CB-[CG] |==|  0.35966
USER: genes 9 Torsion [CA]-CB--CG-[CD] |==|  0.94965
USER: genes 10 Torsion [CB]-CG--CD-[OE2] |==|  0.25468
USER: genes 11 Torsion [C]-N--CA-[CB] |==|  0.37292
USER: genes 12 Torsion [N]-CA--CB-[OG] |==|  0.13528
USER: genes 13 Torsion [CA]-CB--OG-[HG] |==|  0.98884
USER: genes 14 Torsion [N]-CA--C-[N] |==|  0.89259
USER: genes 15 Torsion [C]-N--CA-[CB] |==|  0.27632
USER: genes 16 Torsion [N]-CA--C-[OXT] |==|  0.00355
USER: genes 17 Torsion [N]-CA--CB-[CG] |==|  0.84615
USER: genes 18 Torsion [CA]-CB--CG-[CD] |==|  0.33257
USER: genes 19 Torsion [CB]-CG--CD-[NE] |==|  0.94209
USER: genes 20 Torsion [CG]-CD--NE-[HE] |==|  0.78776
ROOT
ATOM      1  C   GLY B 361      38.276 -12.058 -11.336  1.00 26.32 LIG 0.24  C 
ATOM      2 O    GLY B 361      39.100 -12.623 -10.617  1.00 25.16 LIG-0.27  OA
ATOM      3  N   SER B 362      38.593 -11.513 -12.506  1.00 27.60 LIG-0.34  N 
ATOM      4 H    SER B 362      38.034 -11.102 -13.013  1.00 27.60 LIG 0.16  HD
ENDROOT
BRANCH 1 5
ATOM      5  CA  GLY B 361      36.826 -11.947 -10.899  1.00 24.90 LIG 0.23  C 
BRANCH 5 6
ATOM      6  N   GLY B 361      36.588 -12.737  -9.703  1.00 24.70 LIG-0.35  N 
ATOM      7  C   GLY B 360      35.426 -12.669  -9.060  1.00 25.98 LIG 0.23  C 
ATOM      8 O    GLY B 360      34.497 -11.929  -9.411  1.00 23.45 LIG-0.27  OA
ATOM      9 H    GLY B 361      37.248 -13.233  -9.462  1.00 24.70 LIG 0.16  HD
BRANCH 7 10
ATOM     10  CA  GLY B 360      35.281 -13.548  -7.836  1.00 26.97 LIG 0.23  C 
BRANCH 10 11
ATOM     11  N   GLY B 360      33.907 -13.983  -7.686  1.00 32.20 LIG-0.35  N 
ATOM     12  C   PRO B 359      33.219 -13.705  -6.584  1.00 35.92 LIG 0.24  C 
ATOM     13 O    PRO B 359      33.691 -13.077  -5.639  1.00 37.04 LIG-0.27  OA
ATOM     14 H    GLY B 360      33.593 -14.422  -8.356  1.00 32.20 LIG 0.16  HD
BRANCH 12 15
ATOM     15  CA  PRO B 359      31.781 -14.213  -6.544  1.00 39.21 LIG 0.18  C 
ATOM     16  CB  PRO B 359      31.077 -14.069  -7.891  1.00 38.88 LIG 0.04  C 
ATOM     17  CG  PRO B 359      30.471 -12.705  -7.801  1.00 39.81 LIG 0.02  C 
ATOM     18  CD  PRO B 359      29.891 -12.713  -6.403  1.00 41.55 LIG 0.13  C 
ATOM     19  N   PRO B 359      30.927 -13.433  -5.643  1.00 42.03 LIG-0.34  N 
ATOM     20  C   GLU B 358      31.164 -13.358  -4.325  1.00 44.90 LIG 0.26  C 
ATOM     21 O    GLU B 358      32.115 -13.939  -3.798  1.00 45.02 LIG-0.27  OA
BRANCH 20 22
ATOM     22  CA  GLU B 358      30.204 -12.513  -3.490  1.00 48.47 LIG 0.40  C 
ATOM     23  N   GLU B 358      29.795 -13.257  -2.260  1.00 49.88 LIG 0.61  N 
BRANCH 22 24
ATOM     24  CB  GLU B 358      30.885 -11.193  -3.110  1.00 52.00 LIG 0.06  C 
BRANCH 24 25
ATOM     25  CG  GLU B 358      30.066  -9.940  -3.410  1.00 56.00 LIG 0.12  C 
BRANCH 25 26
ATOM     26  CD  GLU B 358      28.947 -10.196  -4.407  1.00 58.41 LIG 0.17  C 
ATOM     27 OE1  GLU B 358      29.202 -10.080  -5.628  1.00 59.40 LIG-0.65  OA
ATOM     28 OE2  GLU B 358      27.819 -10.512  -3.972  1.00 59.45 LIG-0.65  OA
ENDBRANCH 25 26
ENDBRANCH 24 25
ENDBRANCH 22 24
ENDBRANCH 20 22
ENDBRANCH 12 15
ENDBRANCH 10 11
ENDBRANCH 7 10
ENDBRANCH 5 6
ENDBRANCH 1 5
BRANCH 3 29
ATOM     29  CA  SER B 362      39.954 -11.576 -13.031  1.00 31.63 LIG 0.20  C 
BRANCH 29 30
ATOM     30  CB  SER B 362      39.933 -11.978 -14.514  1.00 29.14 LIG 0.20  C 
BRANCH 30 31
ATOM     31 OG   SER B 362      39.003 -11.205 -15.248  1.00 25.13 LIG-0.40  OA
ATOM     32 HG   SER B 362      38.586 -10.697 -14.726  1.00 25.13 LIG 0.21  HD
ENDBRANCH 30 31
ENDBRANCH 29 30
BRANCH 29 33
ATOM     33  C   SER B 362      40.794 -10.307 -12.871  1.00 35.65 LIG 0.24  C 
ATOM     34 O    SER B 362      41.990 -10.395 -12.593  1.00 37.77 LIG-0.27  OA
ATOM     35  N   ARG B 363      40.188  -9.135 -13.042  1.00 40.10 LIG-0.34  N 
ATOM     36 H    ARG B 363      39.353  -9.043 -13.228  1.00 40.10 LIG 0.16  HD
BRANCH 35 37
ATOM     37  CA  ARG B 363      40.933  -7.877 -12.922  1.00 45.15 LIG 0.18  C 
BRANCH 37 38
ATOM     38  C   ARG B 363      40.169  -6.798 -12.157  1.00 46.43 LIG 0.20  C 
ATOM     39 O    ARG B 363      40.711  -5.680 -12.018  1.00 47.78 LIG-0.65  OA
ATOM     40 OXT  ARG B 363      39.040  -7.080 -11.701  1.00 47.46 LIG-0.65  OA
ENDBRANCH 37 38
BRANCH 37 41
ATOM     41  CB  ARG B 363      41.311  -7.340 -14.307  1.00 48.51 LIG 0.04  C 
BRANCH 41 42
ATOM     42  CG  ARG B 363      42.089  -8.319 -15.168  1.00 53.09 LIG 0.02  C 
BRANCH 42 43
ATOM     43  CD  ARG B 363      41.341  -8.632 -16.452  1.00 56.16 LIG 0.14  C 
BRANCH 43 44
ATOM     44  NE  ARG B 363      39.914  -8.340 -16.339  1.00 60.73 LIG-0.23  N 
ATOM     45 HE   ARG B 363      39.423  -8.893 -15.900  1.00 60.73 LIG 0.18  HD
ATOM     46  CZ  ARG B 363      39.324  -7.271 -16.872  1.00 63.15 LIG 0.67  C 
ATOM     47  NH2 ARG B 363      38.018  -7.080 -16.714  1.00 63.96 LIG-0.23  N 
ATOM     48  NH1 ARG B 363      40.039  -6.391 -17.562  1.00 63.92 LIG-0.23  N 
ATOM     49 1HH2 ARG B 363      37.551  -7.647 -16.267  1.00 63.96 LIG 0.17  HD
ATOM     50 2HH2 ARG B 363      37.641  -6.389 -17.060  1.00 63.96 LIG 0.17  HD
ATOM     51 1HH1 ARG B 363      40.884  -6.510 -17.666  1.00 63.92 LIG 0.17  HD
ATOM     52 2HH1 ARG B 363      39.657  -5.701 -17.905  1.00 63.92 LIG 0.17  HD
ENDBRANCH 43 44
ENDBRANCH 42 43
ENDBRANCH 41 42
ENDBRANCH 37 41
ENDBRANCH 35 37
ENDBRANCH 29 33
ENDBRANCH 3 29
TORSDOF 19
ENDMDL
MODEL 6
USER: ADFR SOLUTION from run 74
USER: SCORE 16.466261 LL:  -4.148 LR: -13.830 RR:   0.000 FEB:  -8.163
USER: RMSD 7.305441
USER: SEED 73
USER: STATUS no improvement in best in 8 clusters for 5 generations
USER: GENES 21
USER: genes 0 Translation |==|  0.35874 0.50705 0.53262
USER: genes 1 Rotation |==|  0.76925 0.47550 0.08826 0.58590
USER: genes 2 Torsion [N]-C--CA-[N] |==|  0.89444
USER: genes 3 Torsion [C]-CA--N-[C] |==|  0.68778
USER: genes 4 Torsion [N]-C--CA-[N] |==|  0.03841
USER: genes 5 Torsion [C]-CA--N-[C] |==|  0.77287
USER: genes 6 Torsion [N]-C--CA-[N] |==|  0.29193
USER: genes 7 Torsion [N]-C--CA-[N] |==|  0.31557
USER: genes 8 Torsion [C]-CA--CB-[CG] |==|  0.46807
USER: genes 9 Torsion [CA]-CB--CG-[CD] |==|  0.82314
USER: genes 10 Torsion [CB]-CG--CD-[OE2] |==|  0.11951
USER: genes 11 Torsion [C]-N--CA-[CB] |==|  0.20296
USER: genes 12 Torsion [N]-CA--CB-[OG] |==|  0.51633
USER: genes 13 Torsion [CA]-CB--OG-[HG] |==|  0.08258
USER: genes 14 Torsion [N]-CA--C-[N] |==|  0.45457
USER: genes 15 Torsion [C]-N--CA-[CB] |==|  0.82849
USER: genes 16 Torsion [N]-CA--C-[OXT] |==|  0.27573
USER: genes 17 Torsion [N]-CA--CB-[CG] |==|  0.89753
USER: genes 18 Torsion [CA]-CB--CG-[CD] |==|  0.81633
USER: genes 19 Torsion [CB]-CG--CD-[NE] |==|  0.31540
USER: genes 20 Torsion [CG]-CD--NE-[HE] |==|  0.80724
ROOT
ATOM      1  C   GLY B 361      34.812 -12.921  -8.633  1.00 26.32 LIG 0.24  C 
ATOM      2 O    GLY B 361      34.111 -11.953  -8.927  1.00 25.16 LIG-0.27  OA
ATOM      3  N   SER B 362      35.988 -13.160  -9.202  1.00 27.60 LIG-0.34  N 
ATOM      4 H    SER B 362      36.483 -13.839  -9.019  1.00 27.60 LIG 0.16  HD
ENDROOT
BRANCH 1 5
ATOM      5  CA  GLY B 361      34.343 -13.915  -7.585  1.00 24.90 LIG 0.23  C 
BRANCH 5 6
ATOM      6  N   GLY B 361      34.701 -15.271  -7.966  1.00 24.70 LIG-0.35  N 
ATOM      7  C   GLY B 360      33.764 -16.160  -8.288  1.00 25.98 LIG 0.23  C 
ATOM      8 O    GLY B 360      32.552 -15.909  -8.261  1.00 23.45 LIG-0.27  OA
ATOM      9 H    GLY B 361      35.545 -15.435  -7.964  1.00 24.70 LIG 0.16  HD
BRANCH 7 10
ATOM     10  CA  GLY B 360      34.251 -17.536  -8.686  1.00 26.97 LIG 0.23  C 
BRANCH 10 11
ATOM     11  N   GLY B 360      35.645 -17.703  -8.326  1.00 32.20 LIG-0.35  N 
ATOM     12  C   PRO B 359      36.613 -17.229  -9.103  1.00 35.92 LIG 0.24  C 
ATOM     13 O    PRO B 359      36.397 -16.635 -10.156  1.00 37.04 LIG-0.27  OA
ATOM     14 H    GLY B 360      35.778 -18.123  -7.587  1.00 32.20 LIG 0.16  HD
BRANCH 12 15
ATOM     15  CA  PRO B 359      38.039 -17.464  -8.617  1.00 39.21 LIG 0.18  C 
ATOM     16  CB  PRO B 359      38.935 -16.247  -8.837  1.00 38.88 LIG 0.04  C 
ATOM     17  CG  PRO B 359      39.488 -16.487 -10.205  1.00 39.81 LIG 0.02  C 
ATOM     18  CD  PRO B 359      39.851 -17.955 -10.141  1.00 41.55 LIG 0.13  C 
ATOM     19  N   PRO B 359      38.730 -18.518  -9.369  1.00 42.03 LIG-0.34  N 
ATOM     20  C   GLU B 358      38.296 -19.786  -9.377  1.00 44.90 LIG 0.26  C 
ATOM     21 O    GLU B 358      37.290 -20.137  -8.756  1.00 45.02 LIG-0.27  OA
BRANCH 20 22
ATOM     22  CA  GLU B 358      39.099 -20.794 -10.198  1.00 48.47 LIG 0.40  C 
ATOM     23  N   GLU B 358      39.744 -21.797  -9.299  1.00 49.88 LIG 0.61  N 
BRANCH 22 24
ATOM     24  CB  GLU B 358      38.170 -21.494 -11.196  1.00 52.00 LIG 0.06  C 
BRANCH 24 25
ATOM     25  CG  GLU B 358      38.884 -22.322 -12.263  1.00 56.00 LIG 0.12  C 
BRANCH 25 26
ATOM     26  CD  GLU B 358      39.754 -21.475 -13.177  1.00 58.41 LIG 0.17  C 
ATOM     27 OE1  GLU B 358      39.726 -21.708 -14.407  1.00 59.40 LIG-0.65  OA
ATOM     28 OE2  GLU B 358      40.463 -20.580 -12.667  1.00 59.45 LIG-0.65  OA
ENDBRANCH 25 26
ENDBRANCH 24 25
ENDBRANCH 22 24
ENDBRANCH 20 22
ENDBRANCH 12 15
ENDBRANCH 10 11
ENDBRANCH 7 10
ENDBRANCH 5 6
ENDBRANCH 1 5
BRANCH 3 29
ATOM     29  CA  SER B 362      36.544 -12.261 -10.210  1.00 31.63 LIG 0.20  C 
BRANCH 29 30
ATOM     30  CB  SER B 362      37.035 -10.963  -9.550  1.00 29.14 LIG 0.20  C 
BRANCH 30 31
ATOM     31 OG   SER B 362      37.455 -10.017 -10.516  1.00 25.13 LIG-0.40  OA
ATOM     32 HG   SER B 362      37.019 -10.127 -11.225  1.00 25.13 LIG 0.21  HD
ENDBRANCH 30 31
ENDBRANCH 29 30
BRANCH 29 33
ATOM     33  C   SER B 362      37.666 -12.836 -11.076  1.00 35.65 LIG 0.24  C 
ATOM     34 O    SER B 362      38.251 -13.858 -10.721  1.00 37.77 LIG-0.27  OA
ATOM     35  N   ARG B 363      37.972 -12.195 -12.203  1.00 40.10 LIG-0.34  N 
ATOM     36 H    ARG B 363      37.587 -11.474 -12.470  1.00 40.10 LIG 0.16  HD
BRANCH 35 37
ATOM     37  CA  ARG B 363      39.024 -12.698 -13.092  1.00 45.15 LIG 0.18  C 
BRANCH 37 38
ATOM     38  C   ARG B 363      38.731 -14.093 -13.641  1.00 46.43 LIG 0.20  C 
ATOM     39 O    ARG B 363      38.979 -15.076 -12.910  1.00 47.78 LIG-0.65  OA
ATOM     40 OXT  ARG B 363      38.261 -14.191 -14.795  1.00 47.46 LIG-0.65  OA
ENDBRANCH 37 38
BRANCH 37 41
ATOM     41  CB  ARG B 363      40.377 -12.713 -12.372  1.00 48.51 LIG 0.04  C 
BRANCH 41 42
ATOM     42  CG  ARG B 363      40.597 -11.546 -11.427  1.00 53.09 LIG 0.02  C 
BRANCH 42 43
ATOM     43  CD  ARG B 363      40.682 -10.234 -12.188  1.00 56.16 LIG 0.14  C 
BRANCH 43 44
ATOM     44  NE  ARG B 363      39.556  -9.353 -11.886  1.00 60.73 LIG-0.23  N 
ATOM     45 HE   ARG B 363      38.778  -9.582 -12.172  1.00 60.73 LIG 0.18  HD
ATOM     46  CZ  ARG B 363      39.656  -8.219 -11.196  1.00 63.15 LIG 0.67  C 
ATOM     47  NH2 ARG B 363      38.577  -7.480 -10.962  1.00 63.96 LIG-0.23  N 
ATOM     48  NH1 ARG B 363      40.837  -7.821 -10.737  1.00 63.92 LIG-0.23  N 
ATOM     49 1HH2 ARG B 363      37.809  -7.734 -11.257  1.00 63.96 LIG 0.17  HD
ATOM     50 2HH2 ARG B 363      38.646  -6.748 -10.516  1.00 63.96 LIG 0.17  HD
ATOM     51 1HH1 ARG B 363      41.539  -8.296 -10.886  1.00 63.92 LIG 0.17  HD
ATOM     52 2HH1 ARG B 363      40.901  -7.089 -10.291  1.00 63.92 LIG 0.17  HD
ENDBRANCH 43 44
ENDBRANCH 42 43
ENDBRANCH 41 42
ENDBRANCH 37 41
ENDBRANCH 35 37
ENDBRANCH 29 33
ENDBRANCH 3 29
TORSDOF 19
ENDMDL
MODEL 7
USER: ADFR SOLUTION from run 106
USER: SCORE 16.011877 LL:  -2.978 LR: -13.765 RR:   0.000 FEB:  -8.098
USER: RMSD 4.945021
USER: SEED 105
USER: STATUS no improvement in best in 14 clusters for 5 generations
USER: GENES 21
USER: genes 0 Translation |==|  0.49425 0.62586 0.47360
USER: genes 1 Rotation |==|  0.74022 0.24797 0.68482 0.80760
USER: genes 2 Torsion [N]-C--CA-[N] |==|  0.63131
USER: genes 3 Torsion [C]-CA--N-[C] |==|  0.43201
USER: genes 4 Torsion [N]-C--CA-[N] |==|  0.55820
USER: genes 5 Torsion [C]-CA--N-[C] |==|  0.74524
USER: genes 6 Torsion [N]-C--CA-[N] |==|  0.20193
USER: genes 7 Torsion [N]-C--CA-[N] |==|  0.84210
USER: genes 8 Torsion [C]-CA--CB-[CG] |==|  0.26766
USER: genes 9 Torsion [CA]-CB--CG-[CD] |==|  0.00369
USER: genes 10 Torsion [CB]-CG--CD-[OE2] |==|  0.75549
USER: genes 11 Torsion [C]-N--CA-[CB] |==|  0.84692
USER: genes 12 Torsion [N]-CA--CB-[OG] |==|  0.55389
USER: genes 13 Torsion [CA]-CB--OG-[HG] |==|  0.92052
USER: genes 14 Torsion [N]-CA--C-[N] |==|  0.37480
USER: genes 15 Torsion [C]-N--CA-[CB] |==|  0.14697
USER: genes 16 Torsion [N]-CA--C-[OXT] |==|  0.87435
USER: genes 17 Torsion [N]-CA--CB-[CG] |==|  0.65491
USER: genes 18 Torsion [CA]-CB--CG-[CD] |==|  0.53501
USER: genes 19 Torsion [CB]-CG--CD-[NE] |==|  0.18058
USER: genes 20 Torsion [CG]-CD--NE-[HE] |==|  0.16728
ROOT
ATOM      1  C   GLY B 361      38.064 -10.248 -10.005  1.00 26.32 LIG 0.24  C 
ATOM      2 O    GLY B 361      39.072 -10.953 -10.063  1.00 25.16 LIG-0.27  OA
ATOM      3  N   SER B 362      38.113  -8.933  -9.821  1.00 27.60 LIG-0.34  N 
ATOM      4 H    SER B 362      37.419  -8.429  -9.763  1.00 27.60 LIG 0.16  HD
ENDROOT
BRANCH 1 5
ATOM      5  CA  GLY B 361      36.686 -10.871 -10.134  1.00 24.90 LIG 0.23  C 
BRANCH 5 6
ATOM      6  N   GLY B 361      36.574 -12.051  -9.293  1.00 24.70 LIG-0.35  N 
ATOM      7  C   GLY B 360      35.387 -12.473  -8.863  1.00 25.98 LIG 0.23  C 
ATOM      8 O    GLY B 360      34.325 -11.892  -9.121  1.00 23.45 LIG-0.27  OA
ATOM      9 H    GLY B 361      37.321 -12.433  -9.108  1.00 24.70 LIG 0.16  HD
BRANCH 7 10
ATOM     10  CA  GLY B 360      35.387 -13.722  -8.007  1.00 26.97 LIG 0.23  C 
BRANCH 10 11
ATOM     11  N   GLY B 360      34.077 -14.341  -8.018  1.00 32.20 LIG-0.35  N 
ATOM     12  C   PRO B 359      33.170 -14.037  -7.097  1.00 35.92 LIG 0.24  C 
ATOM     13 O    PRO B 359      33.376 -13.231  -6.193  1.00 37.04 LIG-0.27  OA
ATOM     14 H    GLY B 360      33.951 -14.904  -8.657  1.00 32.20 LIG 0.16  HD
BRANCH 12 15
ATOM     15  CA  PRO B 359      31.828 -14.752  -7.215  1.00 39.21 LIG 0.18  C 
ATOM     16  CB  PRO B 359      30.786 -14.194  -6.248  1.00 38.88 LIG 0.04  C 
ATOM     17  CG  PRO B 359      30.990 -15.030  -5.026  1.00 39.81 LIG 0.02  C 
ATOM     18  CD  PRO B 359      31.115 -16.418  -5.614  1.00 41.55 LIG 0.13  C 
ATOM     19  N   PRO B 359      31.902 -16.167  -6.834  1.00 42.03 LIG-0.34  N 
ATOM     20  C   GLU B 358      32.670 -17.043  -7.499  1.00 44.90 LIG 0.26  C 
ATOM     21 O    GLU B 358      33.358 -16.707  -8.464  1.00 45.02 LIG-0.27  OA
BRANCH 20 22
ATOM     22  CA  GLU B 358      32.664 -18.489  -7.007  1.00 48.47 LIG 0.40  C 
ATOM     23  N   GLU B 358      33.063 -18.549  -5.569  1.00 49.88 LIG 0.61  N 
BRANCH 22 24
ATOM     24  CB  GLU B 358      31.264 -19.085  -7.194  1.00 52.00 LIG 0.06  C 
BRANCH 24 25
ATOM     25  CG  GLU B 358      31.079 -19.897  -8.474  1.00 56.00 LIG 0.12  C 
BRANCH 25 26
ATOM     26  CD  GLU B 358      32.350 -19.980  -9.304  1.00 58.41 LIG 0.17  C 
ATOM     27 OE1  GLU B 358      33.120 -20.950  -9.116  1.00 59.40 LIG-0.65  OA
ATOM     28 OE2  GLU B 358      32.577 -19.080 -10.141  1.00 59.45 LIG-0.65  OA
ENDBRANCH 25 26
ENDBRANCH 24 25
ENDBRANCH 22 24
ENDBRANCH 20 22
ENDBRANCH 12 15
ENDBRANCH 10 11
ENDBRANCH 7 10
ENDBRANCH 5 6
ENDBRANCH 1 5
BRANCH 3 29
ATOM     29  CA  SER B 362      39.386  -8.227  -9.701  1.00 31.63 LIG 0.20  C 
BRANCH 29 30
ATOM     30  CB  SER B 362      40.233  -8.846  -8.580  1.00 29.14 LIG 0.20  C 
BRANCH 30 31
ATOM     31 OG   SER B 362      41.240  -7.955  -8.138  1.00 25.13 LIG-0.40  OA
ATOM     32 HG   SER B 362      41.462  -7.446  -8.769  1.00 25.13 LIG 0.21  HD
ENDBRANCH 30 31
ENDBRANCH 29 30
BRANCH 29 33
ATOM     33  C   SER B 362      40.229  -8.144 -10.976  1.00 35.65 LIG 0.24  C 
ATOM     34 O    SER B 362      40.380  -9.145 -11.676  1.00 37.77 LIG-0.27  OA
ATOM     35  N   ARG B 363      40.777  -6.971 -11.283  1.00 40.10 LIG-0.34  N 
ATOM     36 H    ARG B 363      40.697  -6.259 -10.808  1.00 40.10 LIG 0.16  HD
BRANCH 35 37
ATOM     37  CA  ARG B 363      41.583  -6.812 -12.498  1.00 45.15 LIG 0.18  C 
BRANCH 37 38
ATOM     38  C   ARG B 363      42.038  -5.372 -12.732  1.00 46.43 LIG 0.20  C 
ATOM     39 O    ARG B 363      43.230  -5.177 -13.055  1.00 47.78 LIG-0.65  OA
ATOM     40 OXT  ARG B 363      41.202  -4.454 -12.588  1.00 47.46 LIG-0.65  OA
ENDBRANCH 37 38
BRANCH 37 41
ATOM     41  CB  ARG B 363      40.808  -7.300 -13.727  1.00 48.51 LIG 0.04  C 
BRANCH 41 42
ATOM     42  CG  ARG B 363      41.524  -8.366 -14.536  1.00 53.09 LIG 0.02  C 
BRANCH 42 43
ATOM     43  CD  ARG B 363      40.852  -8.575 -15.883  1.00 56.16 LIG 0.14  C 
BRANCH 43 44
ATOM     44  NE  ARG B 363      40.946  -7.388 -16.730  1.00 60.73 LIG-0.23  N 
ATOM     45 HE   ARG B 363      41.730  -7.105 -16.940  1.00 60.73 LIG 0.18  HD
ATOM     46  CZ  ARG B 363      39.896  -6.717 -17.198  1.00 63.15 LIG 0.67  C 
ATOM     47  NH2 ARG B 363      40.073  -5.649 -17.969  1.00 63.96 LIG-0.23  N 
ATOM     48  NH1 ARG B 363      38.664  -7.114 -16.898  1.00 63.92 LIG-0.23  N 
ATOM     49 1HH2 ARG B 363      40.869  -5.389 -18.168  1.00 63.96 LIG 0.17  HD
ATOM     50 2HH2 ARG B 363      39.393  -5.219 -18.270  1.00 63.96 LIG 0.17  HD
ATOM     51 1HH1 ARG B 363      38.544  -7.804 -16.400  1.00 63.92 LIG 0.17  HD
ATOM     52 2HH1 ARG B 363      37.987  -6.680 -17.201  1.00 63.92 LIG 0.17  HD
ENDBRANCH 43 44
ENDBRANCH 42 43
ENDBRANCH 41 42
ENDBRANCH 37 41
ENDBRANCH 35 37
ENDBRANCH 29 33
ENDBRANCH 3 29
TORSDOF 19
ENDMDL
MODEL 8
USER: ADFR SOLUTION from run 193
USER: SCORE 15.609744 LL:  -3.285 LR: -13.738 RR:   0.000 FEB:  -8.070
USER: RMSD 6.554370
USER: SEED 192
USER: STATUS no improvement in best in 2 clusters for 5 generations
USER: GENES 21
USER: genes 0 Translation |==|  0.37743 0.51689 0.52540
USER: genes 1 Rotation |==|  0.77510 0.48238 0.10509 0.63437
USER: genes 2 Torsion [N]-C--CA-[N] |==|  0.56844
USER: genes 3 Torsion [C]-CA--N-[C] |==|  0.70325
USER: genes 4 Torsion [N]-C--CA-[N] |==|  0.47377
USER: genes 5 Torsion [C]-CA--N-[C] |==|  0.30238
USER: genes 6 Torsion [N]-C--CA-[N] |==|  0.33815
USER: genes 7 Torsion [N]-C--CA-[N] |==|  0.19262
USER: genes 8 Torsion [C]-CA--CB-[CG] |==|  0.36125
USER: genes 9 Torsion [CA]-CB--CG-[CD] |==|  0.18489
USER: genes 10 Torsion [CB]-CG--CD-[OE2] |==|  0.41145
USER: genes 11 Torsion [C]-N--CA-[CB] |==|  0.23902
USER: genes 12 Torsion [N]-CA--CB-[OG] |==|  0.13874
USER: genes 13 Torsion [CA]-CB--OG-[HG] |==|  0.98569
USER: genes 14 Torsion [N]-CA--C-[N] |==|  0.39200
USER: genes 15 Torsion [C]-N--CA-[CB] |==|  0.75586
USER: genes 16 Torsion [N]-CA--C-[OXT] |==|  0.65449
USER: genes 17 Torsion [N]-CA--CB-[CG] |==|  0.13063
USER: genes 18 Torsion [CA]-CB--CG-[CD] |==|  0.64687
USER: genes 19 Torsion [CB]-CG--CD-[NE] |==|  0.23651
USER: genes 20 Torsion [CG]-CD--NE-[HE] |==|  0.89714
ROOT
ATOM      1  C   GLY B 361      35.260 -12.700  -8.801  1.00 26.32 LIG 0.24  C 
ATOM      2 O    GLY B 361      34.408 -11.906  -9.199  1.00 25.16 LIG-0.27  OA
ATOM      3  N   SER B 362      36.487 -12.756  -9.308  1.00 27.60 LIG-0.34  N 
ATOM      4 H    SER B 362      37.089 -13.314  -9.052  1.00 27.60 LIG 0.16  HD
ENDROOT
BRANCH 1 5
ATOM      5  CA  GLY B 361      34.933 -13.681  -7.689  1.00 24.90 LIG 0.23  C 
BRANCH 5 6
ATOM      6  N   GLY B 361      33.502 -13.927  -7.625  1.00 24.70 LIG-0.35  N 
ATOM      7  C   GLY B 360      32.765 -13.419  -6.642  1.00 25.98 LIG 0.23  C 
ATOM      8 O    GLY B 360      33.236 -12.738  -5.721  1.00 23.45 LIG-0.27  OA
ATOM      9 H    GLY B 361      33.193 -14.415  -8.262  1.00 24.70 LIG 0.16  HD
BRANCH 7 10
ATOM     10  CA  GLY B 360      31.283 -13.724  -6.685  1.00 26.97 LIG 0.23  C 
BRANCH 10 11
ATOM     11  N   GLY B 360      30.644 -13.304  -5.454  1.00 32.20 LIG-0.35  N 
ATOM     12  C   PRO B 359      29.831 -12.254  -5.431  1.00 35.92 LIG 0.24  C 
ATOM     13 O    PRO B 359      29.574 -11.582  -6.426  1.00 37.04 LIG-0.27  OA
ATOM     14 H    GLY B 360      30.836 -13.784  -4.767  1.00 32.20 LIG 0.16  HD
BRANCH 12 15
ATOM     15  CA  PRO B 359      29.217 -11.911  -4.077  1.00 39.21 LIG 0.18  C 
ATOM     16  CB  PRO B 359      27.691 -11.907  -4.117  1.00 38.88 LIG 0.04  C 
ATOM     17  CG  PRO B 359      27.375 -10.492  -4.485  1.00 39.81 LIG 0.02  C 
ATOM     18  CD  PRO B 359      28.320  -9.719  -3.591  1.00 41.55 LIG 0.13  C 
ATOM     19  N   PRO B 359      29.537 -10.549  -3.637  1.00 42.03 LIG-0.34  N 
ATOM     20  C   GLU B 358      30.797 -10.153  -3.406  1.00 44.90 LIG 0.26  C 
ATOM     21 O    GLU B 358      31.757 -10.911  -3.554  1.00 45.02 LIG-0.27  OA
BRANCH 20 22
ATOM     22  CA  GLU B 358      31.003  -8.709  -2.951  1.00 48.47 LIG 0.40  C 
ATOM     23  N   GLU B 358      30.474  -8.522  -1.566  1.00 49.88 LIG 0.61  N 
BRANCH 22 24
ATOM     24  CB  GLU B 358      32.497  -8.368  -2.999  1.00 52.00 LIG 0.06  C 
BRANCH 24 25
ATOM     25  CG  GLU B 358      32.834  -7.071  -3.730  1.00 56.00 LIG 0.12  C 
BRANCH 25 26
ATOM     26  CD  GLU B 358      32.309  -5.839  -3.011  1.00 58.41 LIG 0.17  C 
ATOM     27 OE1  GLU B 358      31.246  -5.941  -2.356  1.00 59.40 LIG-0.65  OA
ATOM     28 OE2  GLU B 358      32.957  -4.774  -3.099  1.00 59.45 LIG-0.65  OA
ENDBRANCH 25 26
ENDBRANCH 24 25
ENDBRANCH 22 24
ENDBRANCH 20 22
ENDBRANCH 12 15
ENDBRANCH 10 11
ENDBRANCH 7 10
ENDBRANCH 5 6
ENDBRANCH 1 5
BRANCH 3 29
ATOM     29  CA  SER B 362      36.915 -11.848 -10.369  1.00 31.63 LIG 0.20  C 
BRANCH 29 30
ATOM     30  CB  SER B 362      37.434 -10.534  -9.766  1.00 29.14 LIG 0.20  C 
BRANCH 30 31
ATOM     31 OG   SER B 362      38.379 -10.772  -8.740  1.00 25.13 LIG-0.40  OA
ATOM     32 HG   SER B 362      38.436 -11.597  -8.595  1.00 25.13 LIG 0.21  HD
ENDBRANCH 30 31
ENDBRANCH 29 30
BRANCH 29 33
ATOM     33  C   SER B 362      37.962 -12.399 -11.341  1.00 35.65 LIG 0.24  C 
ATOM     34 O    SER B 362      38.875 -13.108 -10.920  1.00 37.77 LIG-0.27  OA
ATOM     35  N   ARG B 363      37.841 -12.083 -12.628  1.00 40.10 LIG-0.34  N 
ATOM     36 H    ARG B 363      37.219 -11.582 -12.948  1.00 40.10 LIG 0.16  HD
BRANCH 35 37
ATOM     37  CA  ARG B 363      38.796 -12.588 -13.620  1.00 45.15 LIG 0.18  C 
BRANCH 37 38
ATOM     38  C   ARG B 363      39.294 -13.998 -13.310  1.00 46.43 LIG 0.20  C 
ATOM     39 O    ARG B 363      38.445 -14.903 -13.158  1.00 47.78 LIG-0.65  OA
ATOM     40 OXT  ARG B 363      40.527 -14.185 -13.217  1.00 47.46 LIG-0.65  OA
ENDBRANCH 37 38
BRANCH 37 41
ATOM     41  CB  ARG B 363      39.997 -11.644 -13.740  1.00 48.51 LIG 0.04  C 
BRANCH 41 42
ATOM     42  CG  ARG B 363      40.590 -11.212 -12.412  1.00 53.09 LIG 0.02  C 
BRANCH 42 43
ATOM     43  CD  ARG B 363      40.693  -9.699 -12.325  1.00 56.16 LIG 0.14  C 
BRANCH 43 44
ATOM     44  NE  ARG B 363      39.446  -9.092 -11.864  1.00 60.73 LIG-0.23  N 
ATOM     45 HE   ARG B 363      38.706  -9.440 -12.130  1.00 60.73 LIG 0.18  HD
ATOM     46  CZ  ARG B 363      39.381  -8.034 -11.057  1.00 63.15 LIG 0.67  C 
ATOM     47  NH2 ARG B 363      38.202  -7.550 -10.682  1.00 63.96 LIG-0.23  N 
ATOM     48  NH1 ARG B 363      40.496  -7.459 -10.623  1.00 63.92 LIG-0.23  N 
ATOM     49 1HH2 ARG B 363      37.477  -7.920 -10.960  1.00 63.96 LIG 0.17  HD
ATOM     50 2HH2 ARG B 363      38.164  -6.867 -10.162  1.00 63.96 LIG 0.17  HD
ATOM     51 1HH1 ARG B 363      41.262  -7.769 -10.863  1.00 63.92 LIG 0.17  HD
ATOM     52 2HH1 ARG B 363      40.453  -6.776 -10.102  1.00 63.92 LIG 0.17  HD
ENDBRANCH 43 44
ENDBRANCH 42 43
ENDBRANCH 41 42
ENDBRANCH 37 41
ENDBRANCH 35 37
ENDBRANCH 29 33
ENDBRANCH 3 29
TORSDOF 19
ENDMDL
MODEL 9
USER: ADFR SOLUTION from run 73
USER: SCORE 16.173580 LL:  -4.704 LR: -13.681 RR:   0.000 FEB:  -8.013
USER: RMSD 6.718048
USER: SEED 72
USER: STATUS no improvement in best in 11 clusters for 5 generations
USER: GENES 21
USER: genes 0 Translation |==|  0.53738 0.72515 0.43057
USER: genes 1 Rotation |==|  0.75525 0.50844 0.08314 0.60493
USER: genes 2 Torsion [N]-C--CA-[N] |==|  0.70556
USER: genes 3 Torsion [C]-CA--N-[C] |==|  0.50209
USER: genes 4 Torsion [N]-C--CA-[N] |==|  0.51929
USER: genes 5 Torsion [C]-CA--N-[C] |==|  0.29252
USER: genes 6 Torsion [N]-C--CA-[N] |==|  0.98109
USER: genes 7 Torsion [N]-C--CA-[N] |==|  0.33771
USER: genes 8 Torsion [C]-CA--CB-[CG] |==|  0.06002
USER: genes 9 Torsion [CA]-CB--CG-[CD] |==|  0.60530
USER: genes 10 Torsion [CB]-CG--CD-[OE2] |==|  0.63118
USER: genes 11 Torsion [C]-N--CA-[CB] |==|  0.27625
USER: genes 12 Torsion [N]-CA--CB-[OG] |==|  0.62080
USER: genes 13 Torsion [CA]-CB--OG-[HG] |==|  0.44321
USER: genes 14 Torsion [N]-CA--C-[N] |==|  0.36481
USER: genes 15 Torsion [C]-N--CA-[CB] |==|  0.25346
USER: genes 16 Torsion [N]-CA--C-[OXT] |==|  0.04617
USER: genes 17 Torsion [N]-CA--CB-[CG] |==|  0.68165
USER: genes 18 Torsion [CA]-CB--CG-[CD] |==|  0.37107
USER: genes 19 Torsion [CB]-CG--CD-[NE] |==|  0.88780
USER: genes 20 Torsion [CG]-CD--NE-[HE] |==|  0.08684
ROOT
ATOM      1  C   GLY B 361      39.099  -8.014 -11.005  1.00 26.32 LIG 0.24  C 
ATOM      2 O    GLY B 361      38.260  -7.130 -11.180  1.00 25.16 LIG-0.27  OA
ATOM      3  N   SER B 362      40.242  -8.068 -11.681  1.00 27.60 LIG-0.34  N 
ATOM      4 H    SER B 362      40.831  -8.686 -11.581  1.00 27.60 LIG 0.16  HD
ENDROOT
BRANCH 1 5
ATOM      5  CA  GLY B 361      38.851  -9.115  -9.989  1.00 24.90 LIG 0.23  C 
BRANCH 5 6
ATOM      6  N   GLY B 361      37.858 -10.054 -10.481  1.00 24.70 LIG-0.35  N 
ATOM      7  C   GLY B 360      37.476 -11.093  -9.743  1.00 25.98 LIG 0.23  C 
ATOM      8 O    GLY B 360      37.945 -11.341  -8.625  1.00 23.45 LIG-0.27  OA
ATOM      9 H    GLY B 361      37.553  -9.878 -11.266  1.00 24.70 LIG 0.16  HD
BRANCH 7 10
ATOM     10  CA  GLY B 360      36.422 -11.997 -10.347  1.00 26.97 LIG 0.23  C 
BRANCH 10 11
ATOM     11  N   GLY B 360      35.986 -12.982  -9.379  1.00 32.20 LIG-0.35  N 
ATOM     12  C   PRO B 359      34.805 -12.876  -8.781  1.00 35.92 LIG 0.24  C 
ATOM     13 O    PRO B 359      34.022 -11.955  -9.001  1.00 37.04 LIG-0.27  OA
ATOM     14 H    GLY B 360      36.547 -13.619  -9.235  1.00 32.20 LIG 0.16  HD
BRANCH 12 15
ATOM     15  CA  PRO B 359      34.456 -13.975  -7.783  1.00 39.21 LIG 0.18  C 
ATOM     16  CB  PRO B 359      34.481 -13.478  -6.339  1.00 38.88 LIG 0.04  C 
ATOM     17  CG  PRO B 359      35.899 -13.722  -5.932  1.00 39.81 LIG 0.02  C 
ATOM     18  CD  PRO B 359      36.146 -15.111  -6.479  1.00 41.55 LIG 0.13  C 
ATOM     19  N   PRO B 359      35.439 -15.065  -7.771  1.00 42.03 LIG-0.34  N 
ATOM     20  C   GLU B 358      35.672 -15.824  -8.851  1.00 44.90 LIG 0.26  C 
ATOM     21 O    GLU B 358      35.077 -15.646  -9.915  1.00 45.02 LIG-0.27  OA
BRANCH 20 22
ATOM     22  CA  GLU B 358      36.719 -16.928  -8.715  1.00 48.47 LIG 0.40  C 
ATOM     23  N   GLU B 358      36.111 -18.259  -9.015  1.00 49.88 LIG 0.61  N 
BRANCH 22 24
ATOM     24  CB  GLU B 358      37.883 -16.648  -9.673  1.00 52.00 LIG 0.06  C 
BRANCH 24 25
ATOM     25  CG  GLU B 358      38.013 -15.192 -10.115  1.00 56.00 LIG 0.12  C 
BRANCH 25 26
ATOM     26  CD  GLU B 358      38.428 -15.056 -11.570  1.00 58.41 LIG 0.17  C 
ATOM     27 OE1  GLU B 358      37.829 -15.745 -12.426  1.00 59.40 LIG-0.65  OA
ATOM     28 OE2  GLU B 358      39.351 -14.261 -11.857  1.00 59.45 LIG-0.65  OA
ENDBRANCH 25 26
ENDBRANCH 24 25
ENDBRANCH 22 24
ENDBRANCH 20 22
ENDBRANCH 12 15
ENDBRANCH 10 11
ENDBRANCH 7 10
ENDBRANCH 5 6
ENDBRANCH 1 5
BRANCH 3 29
ATOM     29  CA  SER B 362      40.592  -7.052 -12.669  1.00 31.63 LIG 0.20  C 
BRANCH 29 30
ATOM     30  CB  SER B 362      41.558  -6.026 -12.058  1.00 29.14 LIG 0.20  C 
BRANCH 30 31
ATOM     31 OG   SER B 362      41.202  -4.702 -12.413  1.00 25.13 LIG-0.40  OA
ATOM     32 HG   SER B 362      41.546  -4.164 -11.868  1.00 25.13 LIG 0.21  HD
ENDBRANCH 30 31
ENDBRANCH 29 30
BRANCH 29 33
ATOM     33  C   SER B 362      41.179  -7.569 -13.984  1.00 35.65 LIG 0.24  C 
ATOM     34 O    SER B 362      42.096  -8.390 -13.964  1.00 37.77 LIG-0.27  OA
ATOM     35  N   ARG B 363      40.666  -7.103 -15.120  1.00 40.10 LIG-0.34  N 
ATOM     36 H    ARG B 363      40.033  -6.522 -15.165  1.00 40.10 LIG 0.16  HD
BRANCH 35 37
ATOM     37  CA  ARG B 363      41.167  -7.566 -16.419  1.00 45.15 LIG 0.18  C 
BRANCH 37 38
ATOM     38  C   ARG B 363      41.143  -6.481 -17.494  1.00 46.43 LIG 0.20  C 
ATOM     39 O    ARG B 363      41.244  -6.834 -18.688  1.00 47.78 LIG-0.65  OA
ATOM     40 OXT  ARG B 363      41.027  -5.290 -17.132  1.00 47.46 LIG-0.65  OA
ENDBRANCH 37 38
BRANCH 37 41
ATOM     41  CB  ARG B 363      40.361  -8.776 -16.906  1.00 48.51 LIG 0.04  C 
BRANCH 41 42
ATOM     42  CG  ARG B 363      41.157 -10.064 -16.997  1.00 53.09 LIG 0.02  C 
BRANCH 42 43
ATOM     43  CD  ARG B 363      40.397 -11.223 -16.375  1.00 56.16 LIG 0.14  C 
BRANCH 43 44
ATOM     44  NE  ARG B 363      39.713 -10.830 -15.145  1.00 60.73 LIG-0.23  N 
ATOM     45 HE   ARG B 363      39.433 -10.019 -15.081  1.00 60.73 LIG 0.18  HD
ATOM     46  CZ  ARG B 363      39.495 -11.646 -14.115  1.00 63.15 LIG 0.67  C 
ATOM     47  NH2 ARG B 363      38.858 -11.205 -13.036  1.00 63.96 LIG-0.23  N 
ATOM     48  NH1 ARG B 363      39.912 -12.906 -14.164  1.00 63.92 LIG-0.23  N 
ATOM     49 1HH2 ARG B 363      38.585 -10.390 -12.999  1.00 63.96 LIG 0.17  HD
ATOM     50 2HH2 ARG B 363      38.719 -11.735 -12.373  1.00 63.96 LIG 0.17  HD
ATOM     51 1HH1 ARG B 363      40.324 -13.196 -14.861  1.00 63.92 LIG 0.17  HD
ATOM     52 2HH1 ARG B 363      39.770 -13.432 -13.499  1.00 63.92 LIG 0.17  HD
ENDBRANCH 43 44
ENDBRANCH 42 43
ENDBRANCH 41 42
ENDBRANCH 37 41
ENDBRANCH 35 37
ENDBRANCH 29 33
ENDBRANCH 3 29
TORSDOF 19
ENDMDL
MODEL 10
USER: ADFR SOLUTION from run 151
USER: SCORE 15.818500 LL:  -4.311 LR: -13.663 RR:   0.000 FEB:  -7.995
USER: RMSD 11.907480
USER: SEED 150
USER: STATUS no improvement in best in 10 clusters for 5 generations
USER: GENES 21
USER: genes 0 Translation |==|  0.37926 0.52617 0.52553
USER: genes 1 Rotation |==|  0.19087 0.79881 0.33635 0.69588
USER: genes 2 Torsion [N]-C--CA-[N] |==|  0.34164
USER: genes 3 Torsion [C]-CA--N-[C] |==|  0.24645
USER: genes 4 Torsion [N]-C--CA-[N] |==|  0.60000
USER: genes 5 Torsion [C]-CA--N-[C] |==|  0.37897
USER: genes 6 Torsion [N]-C--CA-[N] |==|  0.21752
USER: genes 7 Torsion [N]-C--CA-[N] |==|  0.37482
USER: genes 8 Torsion [C]-CA--CB-[CG] |==|  0.82352
USER: genes 9 Torsion [CA]-CB--CG-[CD] |==|  0.78366
USER: genes 10 Torsion [CB]-CG--CD-[OE2] |==|  0.47386
USER: genes 11 Torsion [C]-N--CA-[CB] |==|  0.43960
USER: genes 12 Torsion [N]-CA--CB-[OG] |==|  0.07941
USER: genes 13 Torsion [CA]-CB--OG-[HG] |==|  0.95597
USER: genes 14 Torsion [N]-CA--C-[N] |==|  0.90100
USER: genes 15 Torsion [C]-N--CA-[CB] |==|  0.32299
USER: genes 16 Torsion [N]-CA--C-[OXT] |==|  0.40464
USER: genes 17 Torsion [N]-CA--CB-[CG] |==|  0.29305
USER: genes 18 Torsion [CA]-CB--CG-[CD] |==|  0.30388
USER: genes 19 Torsion [CB]-CG--CD-[NE] |==|  0.70645
USER: genes 20 Torsion [CG]-CD--NE-[HE] |==|  0.81529
ROOT
ATOM      1  C   GLY B 361      35.304 -12.491  -8.797  1.00 26.32 LIG 0.24  C 
ATOM      2 O    GLY B 361      36.228 -12.660  -8.002  1.00 25.16 LIG-0.27  OA
ATOM      3  N   SER B 362      34.036 -12.753  -8.497  1.00 27.60 LIG-0.34  N 
ATOM      4 H    SER B 362      33.382 -12.655  -9.045  1.00 27.60 LIG 0.16  HD
ENDROOT
BRANCH 1 5
ATOM      5  CA  GLY B 361      35.584 -11.971 -10.196  1.00 24.90 LIG 0.23  C 
BRANCH 5 6
ATOM      6  N   GLY B 361      36.267 -10.690 -10.141  1.00 24.70 LIG-0.35  N 
ATOM      7  C   GLY B 360      37.595 -10.627 -10.088  1.00 25.98 LIG 0.23  C 
ATOM      8 O    GLY B 360      38.323 -11.628 -10.058  1.00 23.45 LIG-0.27  OA
ATOM      9 H    GLY B 361      35.749 -10.004 -10.146  1.00 24.70 LIG 0.16  HD
BRANCH 7 10
ATOM     10  CA  GLY B 360      38.202  -9.240 -10.052  1.00 26.97 LIG 0.23  C 
BRANCH 10 11
ATOM     11  N   GLY B 360      39.441  -9.211 -10.802  1.00 32.20 LIG-0.35  N 
ATOM     12  C   PRO B 359      39.718  -8.206 -11.626  1.00 35.92 LIG 0.24  C 
ATOM     13 O    PRO B 359      38.958  -7.257 -11.805  1.00 37.04 LIG-0.27  OA
ATOM     14 H    GLY B 360      39.960  -9.884 -10.667  1.00 32.20 LIG 0.16  HD
BRANCH 12 15
ATOM     15  CA  PRO B 359      41.053  -8.286 -12.358  1.00 39.21 LIG 0.18  C 
ATOM     16  CB  PRO B 359      41.443  -6.957 -13.002  1.00 38.88 LIG 0.04  C 
ATOM     17  CG  PRO B 359      40.827  -7.058 -14.361  1.00 39.81 LIG 0.02  C 
ATOM     18  CD  PRO B 359      41.191  -8.470 -14.765  1.00 41.55 LIG 0.13  C 
ATOM     19  N   PRO B 359      41.022  -9.206 -13.500  1.00 42.03 LIG-0.34  N 
ATOM     20  C   GLU B 358      40.782 -10.517 -13.350  1.00 44.90 LIG 0.26  C 
ATOM     21 O    GLU B 358      40.571 -11.021 -12.245  1.00 45.02 LIG-0.27  OA
BRANCH 20 22
ATOM     22  CA  GLU B 358      40.774 -11.374 -14.615  1.00 48.47 LIG 0.40  C 
ATOM     23  N   GLU B 358      41.547 -12.632 -14.393  1.00 49.88 LIG 0.61  N 
BRANCH 22 24
ATOM     24  CB  GLU B 358      39.327 -11.700 -15.001  1.00 52.00 LIG 0.06  C 
BRANCH 24 25
ATOM     25  CG  GLU B 358      38.566 -12.543 -13.979  1.00 56.00 LIG 0.12  C 
BRANCH 25 26
ATOM     26  CD  GLU B 358      38.938 -14.015 -14.041  1.00 58.41 LIG 0.17  C 
ATOM     27 OE1  GLU B 358      39.651 -14.409 -14.992  1.00 59.40 LIG-0.65  OA
ATOM     28 OE2  GLU B 358      38.519 -14.775 -13.141  1.00 59.45 LIG-0.65  OA
ENDBRANCH 25 26
ENDBRANCH 24 25
ENDBRANCH 22 24
ENDBRANCH 20 22
ENDBRANCH 12 15
ENDBRANCH 10 11
ENDBRANCH 7 10
ENDBRANCH 5 6
ENDBRANCH 1 5
BRANCH 3 29
ATOM     29  CA  SER B 362      33.652 -13.241  -7.175  1.00 31.63 LIG 0.20  C 
BRANCH 29 30
ATOM     30  CB  SER B 362      32.166 -12.951  -6.914  1.00 29.14 LIG 0.20  C 
BRANCH 30 31
ATOM     31 OG   SER B 362      31.424 -12.919  -8.119  1.00 25.13 LIG-0.40  OA
ATOM     32 HG   SER B 362      31.949 -12.848  -8.770  1.00 25.13 LIG 0.21  HD
ENDBRANCH 30 31
ENDBRANCH 29 30
BRANCH 29 33
ATOM     33  C   SER B 362      33.927 -14.721  -6.900  1.00 35.65 LIG 0.24  C 
ATOM     34 O    SER B 362      34.271 -15.081  -5.775  1.00 37.77 LIG-0.27  OA
ATOM     35  N   ARG B 363      33.781 -15.578  -7.908  1.00 40.10 LIG-0.34  N 
ATOM     36 H    ARG B 363      33.552 -15.354  -8.706  1.00 40.10 LIG 0.16  HD
BRANCH 35 37
ATOM     37  CA  ARG B 363      34.011 -17.013  -7.715  1.00 45.15 LIG 0.18  C 
BRANCH 37 38
ATOM     38  C   ARG B 363      35.105 -17.574  -8.621  1.00 46.43 LIG 0.20  C 
ATOM     39 O    ARG B 363      35.224 -17.092  -9.768  1.00 47.78 LIG-0.65  OA
ATOM     40 OXT  ARG B 363      35.831 -18.490  -8.178  1.00 47.46 LIG-0.65  OA
ENDBRANCH 37 38
BRANCH 37 41
ATOM     41  CB  ARG B 363      32.716 -17.801  -7.943  1.00 48.51 LIG 0.04  C 
BRANCH 41 42
ATOM     42  CG  ARG B 363      32.669 -18.564  -9.254  1.00 53.09 LIG 0.02  C 
BRANCH 42 43
ATOM     43  CD  ARG B 363      32.764 -20.062  -9.020  1.00 56.16 LIG 0.14  C 
BRANCH 43 44
ATOM     44  NE  ARG B 363      34.077 -20.589  -9.384  1.00 60.73 LIG-0.23  N 
ATOM     45 HE   ARG B 363      34.302 -20.572 -10.214  1.00 60.73 LIG 0.18  HD
ATOM     46  CZ  ARG B 363      34.949 -21.095  -8.514  1.00 63.15 LIG 0.67  C 
ATOM     47  NH2 ARG B 363      36.125 -21.548  -8.932  1.00 63.96 LIG-0.23  N 
ATOM     48  NH1 ARG B 363      34.645 -21.147  -7.222  1.00 63.92 LIG-0.23  N 
ATOM     49 1HH2 ARG B 363      36.327 -21.516  -9.768  1.00 63.96 LIG 0.17  HD
ATOM     50 2HH2 ARG B 363      36.686 -21.874  -8.367  1.00 63.96 LIG 0.17  HD
ATOM     51 1HH1 ARG B 363      33.885 -20.854  -6.946  1.00 63.92 LIG 0.17  HD
ATOM     52 2HH1 ARG B 363      35.209 -21.473  -6.661  1.00 63.92 LIG 0.17  HD
ENDBRANCH 43 44
ENDBRANCH 42 43
ENDBRANCH 41 42
ENDBRANCH 37 41
ENDBRANCH 35 37
ENDBRANCH 29 33
ENDBRANCH 3 29
TORSDOF 19
ENDMDL
MODEL 11
USER: ADFR SOLUTION from run 31
USER: SCORE 16.660662 LL:  -3.979 LR: -13.652 RR:   0.000 FEB:  -7.984
USER: RMSD 5.770077
USER: SEED 30
USER: STATUS no improvement in best in 8 clusters for 5 generations
USER: GENES 21
USER: genes 0 Translation |==|  0.59039 0.63550 0.37452
USER: genes 1 Rotation |==|  0.75134 0.36085 0.85202 0.70869
USER: genes 2 Torsion [N]-C--CA-[N] |==|  0.91684
USER: genes 3 Torsion [C]-CA--N-[C] |==|  0.67114
USER: genes 4 Torsion [N]-C--CA-[N] |==|  0.46964
USER: genes 5 Torsion [C]-CA--N-[C] |==|  0.43907
USER: genes 6 Torsion [N]-C--CA-[N] |==|  0.57938
USER: genes 7 Torsion [N]-C--CA-[N] |==|  0.28891
USER: genes 8 Torsion [C]-CA--CB-[CG] |==|  0.62273
USER: genes 9 Torsion [CA]-CB--CG-[CD] |==|  0.26431
USER: genes 10 Torsion [CB]-CG--CD-[OE2] |==|  0.32425
USER: genes 11 Torsion [C]-N--CA-[CB] |==|  0.75609
USER: genes 12 Torsion [N]-CA--CB-[OG] |==|  0.83038
USER: genes 13 Torsion [CA]-CB--OG-[HG] |==|  0.03043
USER: genes 14 Torsion [N]-CA--C-[N] |==|  0.25884
USER: genes 15 Torsion [C]-N--CA-[CB] |==|  0.28257
USER: genes 16 Torsion [N]-CA--C-[OXT] |==|  0.88043
USER: genes 17 Torsion [N]-CA--CB-[CG] |==|  0.00347
USER: genes 18 Torsion [CA]-CB--CG-[CD] |==|  0.24093
USER: genes 19 Torsion [CB]-CG--CD-[NE] |==|  0.73398
USER: genes 20 Torsion [CG]-CD--NE-[HE] |==|  0.83469
ROOT
ATOM      1  C   GLY B 361      40.371 -10.031 -12.309  1.00 26.32 LIG 0.24  C 
ATOM      2 O    GLY B 361      41.533  -9.738 -12.028  1.00 25.16 LIG-0.27  OA
ATOM      3  N   SER B 362      39.445  -9.120 -12.590  1.00 27.60 LIG-0.34  N 
ATOM      4 H    SER B 362      38.627  -9.307 -12.773  1.00 27.60 LIG 0.16  HD
ENDROOT
BRANCH 1 5
ATOM      5  CA  GLY B 361      39.933 -11.485 -12.336  1.00 24.90 LIG 0.23  C 
BRANCH 5 6
ATOM      6  N   GLY B 361      38.530 -11.605 -11.978  1.00 24.70 LIG-0.35  N 
ATOM      7  C   GLY B 360      38.156 -12.296 -10.904  1.00 25.98 LIG 0.23  C 
ATOM      8 O    GLY B 360      38.954 -12.890 -10.166  1.00 23.45 LIG-0.27  OA
ATOM      9 H    GLY B 361      37.987 -11.202 -12.509  1.00 24.70 LIG 0.16  HD
BRANCH 7 10
ATOM     10  CA  GLY B 360      36.671 -12.340 -10.616  1.00 26.97 LIG 0.23  C 
BRANCH 10 11
ATOM     11  N   GLY B 360      36.385 -13.320  -9.588  1.00 32.20 LIG-0.35  N 
ATOM     12  C   PRO B 359      35.269 -13.250  -8.869  1.00 35.92 LIG 0.24  C 
ATOM     13 O    PRO B 359      34.427 -12.369  -9.022  1.00 37.04 LIG-0.27  OA
ATOM     14 H    GLY B 360      36.985 -13.929  -9.493  1.00 32.20 LIG 0.16  HD
BRANCH 12 15
ATOM     15  CA  PRO B 359      35.078 -14.339  -7.819  1.00 39.21 LIG 0.18  C 
ATOM     16  CB  PRO B 359      35.620 -15.691  -8.278  1.00 38.88 LIG 0.04  C 
ATOM     17  CG  PRO B 359      34.439 -16.305  -8.958  1.00 39.81 LIG 0.02  C 
ATOM     18  CD  PRO B 359      33.322 -15.993  -7.986  1.00 41.55 LIG 0.13  C 
ATOM     19  N   PRO B 359      33.665 -14.628  -7.549  1.00 42.03 LIG-0.34  N 
ATOM     20  C   GLU B 358      32.833 -13.702  -7.051  1.00 44.90 LIG 0.26  C 
ATOM     21 O    GLU B 358      33.208 -12.557  -6.795  1.00 45.02 LIG-0.27  OA
BRANCH 20 22
ATOM     22  CA  GLU B 358      31.384 -14.123  -6.813  1.00 48.47 LIG 0.40  C 
ATOM     23  N   GLU B 358      31.141 -14.346  -5.356  1.00 49.88 LIG 0.61  N 
BRANCH 22 24
ATOM     24  CB  GLU B 358      30.443 -13.036  -7.348  1.00 52.00 LIG 0.06  C 
BRANCH 24 25
ATOM     25  CG  GLU B 358      29.281 -12.684  -6.424  1.00 56.00 LIG 0.12  C 
BRANCH 25 26
ATOM     26  CD  GLU B 358      29.577 -11.484  -5.539  1.00 58.41 LIG 0.17  C 
ATOM     27 OE1  GLU B 358      30.510 -11.574  -4.709  1.00 59.40 LIG-0.65  OA
ATOM     28 OE2  GLU B 358      28.880 -10.455  -5.674  1.00 59.45 LIG-0.65  OA
ENDBRANCH 25 26
ENDBRANCH 24 25
ENDBRANCH 22 24
ENDBRANCH 20 22
ENDBRANCH 12 15
ENDBRANCH 10 11
ENDBRANCH 7 10
ENDBRANCH 5 6
ENDBRANCH 1 5
BRANCH 3 29
ATOM     29  CA  SER B 362      39.760  -7.695 -12.610  1.00 31.63 LIG 0.20  C 
BRANCH 29 30
ATOM     30  CB  SER B 362      39.594  -7.094 -11.206  1.00 29.14 LIG 0.20  C 
BRANCH 30 31
ATOM     31 OG   SER B 362      38.263  -7.222 -10.742  1.00 25.13 LIG-0.40  OA
ATOM     32 HG   SER B 362      37.836  -7.735 -11.251  1.00 25.13 LIG 0.21  HD
ENDBRANCH 30 31
ENDBRANCH 29 30
BRANCH 29 33
ATOM     33  C   SER B 362      41.142  -7.321 -13.152  1.00 35.65 LIG 0.24  C 
ATOM     34 O    SER B 362      42.112  -7.305 -12.396  1.00 37.77 LIG-0.27  OA
ATOM     35  N   ARG B 363      41.242  -7.022 -14.445  1.00 40.10 LIG-0.34  N 
ATOM     36 H    ARG B 363      40.580  -7.015 -14.995  1.00 40.10 LIG 0.16  HD
BRANCH 35 37
ATOM     37  CA  ARG B 363      42.536  -6.672 -15.039  1.00 45.15 LIG 0.18  C 
BRANCH 37 38
ATOM     38  C   ARG B 363      42.464  -5.460 -15.966  1.00 46.43 LIG 0.20  C 
ATOM     39 O    ARG B 363      43.368  -4.601 -15.885  1.00 47.78 LIG-0.65  OA
ATOM     40 OXT  ARG B 363      41.503  -5.378 -16.762  1.00 47.46 LIG-0.65  OA
ENDBRANCH 37 38
BRANCH 37 41
ATOM     41  CB  ARG B 363      43.115  -7.862 -15.812  1.00 48.51 LIG 0.04  C 
BRANCH 41 42
ATOM     42  CG  ARG B 363      42.230  -9.096 -15.817  1.00 53.09 LIG 0.02  C 
BRANCH 42 43
ATOM     43  CD  ARG B 363      41.224  -9.043 -16.953  1.00 56.16 LIG 0.14  C 
BRANCH 43 44
ATOM     44  NE  ARG B 363      39.933  -8.518 -16.517  1.00 60.73 LIG-0.23  N 
ATOM     45 HE   ARG B 363      39.517  -8.938 -15.892  1.00 60.73 LIG 0.18  HD
ATOM     46  CZ  ARG B 363      39.357  -7.429 -17.023  1.00 63.15 LIG 0.67  C 
ATOM     47  NH2 ARG B 363      38.181  -7.018 -16.561  1.00 63.96 LIG-0.23  N 
ATOM     48  NH1 ARG B 363      39.957  -6.748 -17.993  1.00 63.92 LIG-0.23  N 
ATOM     49 1HH2 ARG B 363      37.788  -7.455 -15.933  1.00 63.96 LIG 0.17  HD
ATOM     50 2HH2 ARG B 363      37.812  -6.315 -16.891  1.00 63.96 LIG 0.17  HD
ATOM     51 1HH1 ARG B 363      40.719  -7.010 -18.294  1.00 63.92 LIG 0.17  HD
ATOM     52 2HH1 ARG B 363      39.585  -6.045 -18.318  1.00 63.92 LIG 0.17  HD
ENDBRANCH 43 44
ENDBRANCH 42 43
ENDBRANCH 41 42
ENDBRANCH 37 41
ENDBRANCH 35 37
ENDBRANCH 29 33
ENDBRANCH 3 29
TORSDOF 19
ENDMDL
MODEL 12
USER: ADFR SOLUTION from run 69
USER: SCORE 16.800330 LL:  -3.921 LR: -13.544 RR:   0.000 FEB:  -7.877
USER: RMSD 8.514405
USER: SEED 68
USER: STATUS searching
USER: GENES 21
USER: genes 0 Translation |==|  0.34416 0.35254 0.51172
USER: genes 1 Rotation |==|  0.83790 0.40535 0.58740 0.84529
USER: genes 2 Torsion [N]-C--CA-[N] |==|  0.57535
USER: genes 3 Torsion [C]-CA--N-[C] |==|  0.70014
USER: genes 4 Torsion [N]-C--CA-[N] |==|  0.91667
USER: genes 5 Torsion [C]-CA--N-[C] |==|  0.27152
USER: genes 6 Torsion [N]-C--CA-[N] |==|  0.96810
USER: genes 7 Torsion [N]-C--CA-[N] |==|  0.35818
USER: genes 8 Torsion [C]-CA--CB-[CG] |==|  0.58256
USER: genes 9 Torsion [CA]-CB--CG-[CD] |==|  0.84466
USER: genes 10 Torsion [CB]-CG--CD-[OE2] |==|  0.02744
USER: genes 11 Torsion [C]-N--CA-[CB] |==|  0.52794
USER: genes 12 Torsion [N]-CA--CB-[OG] |==|  0.82860
USER: genes 13 Torsion [CA]-CB--OG-[HG] |==|  0.01979
USER: genes 14 Torsion [N]-CA--C-[N] |==|  0.46873
USER: genes 15 Torsion [C]-N--CA-[CB] |==|  0.80183
USER: genes 16 Torsion [N]-CA--C-[OXT] |==|  0.10126
USER: genes 17 Torsion [N]-CA--CB-[CG] |==|  0.98113
USER: genes 18 Torsion [CA]-CB--CG-[CD] |==|  0.76381
USER: genes 19 Torsion [CB]-CG--CD-[NE] |==|  0.03109
USER: genes 20 Torsion [CG]-CD--NE-[HE] |==|  0.81160
ROOT
ATOM      1  C   GLY B 361      34.462 -16.398  -9.119  1.00 26.32 LIG 0.24  C 
ATOM      2 O    GLY B 361      35.181 -16.840 -10.015  1.00 25.16 LIG-0.27  OA
ATOM      3  N   SER B 362      34.454 -15.117  -8.765  1.00 27.60 LIG-0.34  N 
ATOM      4 H    SER B 362      33.970 -14.795  -8.132  1.00 27.60 LIG 0.16  HD
ENDROOT
BRANCH 1 5
ATOM      5  CA  GLY B 361      33.535 -17.326  -8.353  1.00 24.90 LIG 0.23  C 
BRANCH 5 6
ATOM      6  N   GLY B 361      34.053 -18.683  -8.352  1.00 24.70 LIG-0.35  N 
ATOM      7  C   GLY B 360      33.473 -19.636  -9.077  1.00 25.98 LIG 0.23  C 
ATOM      8 O    GLY B 360      32.462 -19.445  -9.766  1.00 23.45 LIG-0.27  OA
ATOM      9 H    GLY B 361      34.745 -18.804  -7.856  1.00 24.70 LIG 0.16  HD
BRANCH 7 10
ATOM     10  CA  GLY B 360      34.107 -21.009  -9.015  1.00 26.97 LIG 0.23  C 
BRANCH 10 11
ATOM     11  N   GLY B 360      35.533 -20.897  -8.782  1.00 32.20 LIG-0.35  N 
ATOM     12  C   PRO B 359      36.037 -21.030  -7.561  1.00 35.92 LIG 0.24  C 
ATOM     13 O    PRO B 359      35.346 -21.248  -6.569  1.00 37.04 LIG-0.27  OA
ATOM     14 H    GLY B 360      36.001 -20.742  -9.487  1.00 32.20 LIG 0.16  HD
BRANCH 12 15
ATOM     15  CA  PRO B 359      37.552 -20.894  -7.442  1.00 39.21 LIG 0.18  C 
ATOM     16  CB  PRO B 359      37.969 -19.550  -6.850  1.00 38.88 LIG 0.04  C 
ATOM     17  CG  PRO B 359      38.107 -18.685  -8.062  1.00 39.81 LIG 0.02  C 
ATOM     18  CD  PRO B 359      38.853 -19.596  -9.013  1.00 41.55 LIG 0.13  C 
ATOM     19  N   PRO B 359      38.228 -20.903  -8.744  1.00 42.03 LIG-0.34  N 
ATOM     20  C   GLU B 358      38.172 -21.960  -9.567  1.00 44.90 LIG 0.26  C 
ATOM     21 O    GLU B 358      37.547 -22.982  -9.277  1.00 45.02 LIG-0.27  OA
BRANCH 20 22
ATOM     22  CA  GLU B 358      38.917 -21.849 -10.896  1.00 48.47 LIG 0.40  C 
ATOM     23  N   GLU B 358      39.803 -23.035 -11.095  1.00 49.88 LIG 0.61  N 
BRANCH 22 24
ATOM     24  CB  GLU B 358      37.902 -21.747 -12.042  1.00 52.00 LIG 0.06  C 
BRANCH 24 25
ATOM     25  CG  GLU B 358      38.378 -22.324 -13.372  1.00 56.00 LIG 0.12  C 
BRANCH 25 26
ATOM     26  CD  GLU B 358      39.683 -21.705 -13.847  1.00 58.41 LIG 0.17  C 
ATOM     27 OE1  GLU B 358      40.072 -21.959 -15.009  1.00 59.40 LIG-0.65  OA
ATOM     28 OE2  GLU B 358      40.315 -20.966 -13.060  1.00 59.45 LIG-0.65  OA
ENDBRANCH 25 26
ENDBRANCH 24 25
ENDBRANCH 22 24
ENDBRANCH 20 22
ENDBRANCH 12 15
ENDBRANCH 10 11
ENDBRANCH 7 10
ENDBRANCH 5 6
ENDBRANCH 1 5
BRANCH 3 29
ATOM     29  CA  SER B 362      35.293 -14.134  -9.446  1.00 31.63 LIG 0.20  C 
BRANCH 29 30
ATOM     30  CB  SER B 362      35.275 -12.801  -8.682  1.00 29.14 LIG 0.20  C 
BRANCH 30 31
ATOM     31 OG   SER B 362      33.971 -12.253  -8.624  1.00 25.13 LIG-0.40  OA
ATOM     32 HG   SER B 362      33.421 -12.805  -8.936  1.00 25.13 LIG 0.21  HD
ENDBRANCH 30 31
ENDBRANCH 29 30
BRANCH 29 33
ATOM     33  C   SER B 362      36.745 -14.548  -9.694  1.00 35.65 LIG 0.24  C 
ATOM     34 O    SER B 362      37.196 -15.555  -9.150  1.00 37.77 LIG-0.27  OA
ATOM     35  N   ARG B 363      37.477 -13.788 -10.505  1.00 40.10 LIG-0.34  N 
ATOM     36 H    ARG B 363      37.192 -13.074 -10.891  1.00 40.10 LIG 0.16  HD
BRANCH 35 37
ATOM     37  CA  ARG B 363      38.871 -14.133 -10.804  1.00 45.15 LIG 0.18  C 
BRANCH 37 38
ATOM     38  C   ARG B 363      39.046 -15.576 -11.272  1.00 46.43 LIG 0.20  C 
ATOM     39 O    ARG B 363      40.074 -16.191 -10.915  1.00 47.78 LIG-0.65  OA
ATOM     40 OXT  ARG B 363      38.157 -16.078 -11.993  1.00 47.46 LIG-0.65  OA
ENDBRANCH 37 38
BRANCH 37 41
ATOM     41  CB  ARG B 363      39.761 -13.889  -9.580  1.00 48.51 LIG 0.04  C 
BRANCH 41 42
ATOM     42  CG  ARG B 363      39.058 -13.210  -8.419  1.00 53.09 LIG 0.02  C 
BRANCH 42 43
ATOM     43  CD  ARG B 363      39.065 -11.700  -8.582  1.00 56.16 LIG 0.14  C 
BRANCH 43 44
ATOM     44  NE  ARG B 363      39.503 -11.296  -9.916  1.00 60.73 LIG-0.23  N 
ATOM     45 HE   ARG B 363      40.323 -11.440 -10.131  1.00 60.73 LIG 0.18  HD
ATOM     46  CZ  ARG B 363      38.714 -10.721 -10.821  1.00 63.15 LIG 0.67  C 
ATOM     47  NH2 ARG B 363      39.195 -10.391 -12.015  1.00 63.96 LIG-0.23  N 
ATOM     48  NH1 ARG B 363      37.441 -10.475 -10.534  1.00 63.92 LIG-0.23  N 
ATOM     49 1HH2 ARG B 363      40.019 -10.549 -12.206  1.00 63.96 LIG 0.17  HD
ATOM     50 2HH2 ARG B 363      38.683 -10.019 -12.596  1.00 63.96 LIG 0.17  HD
ATOM     51 1HH1 ARG B 363      37.125 -10.687  -9.763  1.00 63.92 LIG 0.17  HD
ATOM     52 2HH1 ARG B 363      36.933 -10.103 -11.120  1.00 63.92 LIG 0.17  HD
ENDBRANCH 43 44
ENDBRANCH 42 43
ENDBRANCH 41 42
ENDBRANCH 37 41
ENDBRANCH 35 37
ENDBRANCH 29 33
ENDBRANCH 3 29
TORSDOF 19
ENDMDL
MODEL 13
USER: ADFR SOLUTION from run 16
USER: SCORE 17.189452 LL:  -4.781 LR: -13.520 RR:   0.000 FEB:  -7.853
USER: RMSD 11.755457
USER: SEED 275524
USER: STATUS no improvement in best in 6 clusters for 5 generations
USER: GENES 21
USER: genes 0 Translation |==|  0.40178 0.38640 0.49183
USER: genes 1 Rotation |==|  0.60730 0.94573 0.57661 0.68425
USER: genes 2 Torsion [N]-C--CA-[N] |==|  0.77964
USER: genes 3 Torsion [C]-CA--N-[C] |==|  0.19570
USER: genes 4 Torsion [N]-C--CA-[N] |==|  0.86042
USER: genes 5 Torsion [C]-CA--N-[C] |==|  0.84328
USER: genes 6 Torsion [N]-C--CA-[N] |==|  0.95398
USER: genes 7 Torsion [N]-C--CA-[N] |==|  0.33896
USER: genes 8 Torsion [C]-CA--CB-[CG] |==|  0.70125
USER: genes 9 Torsion [CA]-CB--CG-[CD] |==|  0.17737
USER: genes 10 Torsion [CB]-CG--CD-[OE2] |==|  0.70175
USER: genes 11 Torsion [C]-N--CA-[CB] |==|  0.18052
USER: genes 12 Torsion [N]-CA--CB-[OG] |==|  0.73404
USER: genes 13 Torsion [CA]-CB--OG-[HG] |==|  0.17088
USER: genes 14 Torsion [N]-CA--C-[N] |==|  0.10556
USER: genes 15 Torsion [C]-N--CA-[CB] |==|  0.29602
USER: genes 16 Torsion [N]-CA--C-[OXT] |==|  0.05925
USER: genes 17 Torsion [N]-CA--CB-[CG] |==|  0.63464
USER: genes 18 Torsion [CA]-CB--CG-[CD] |==|  0.71464
USER: genes 19 Torsion [CB]-CG--CD-[NE] |==|  0.86273
USER: genes 20 Torsion [CG]-CD--NE-[HE] |==|  0.88320
ROOT
ATOM      1  C   GLY B 361      35.845 -15.636  -9.581  1.00 26.32 LIG 0.24  C 
ATOM      2 O    GLY B 361      35.715 -16.484 -10.463  1.00 25.16 LIG-0.27  OA
ATOM      3  N   SER B 362      34.920 -15.413  -8.653  1.00 27.60 LIG-0.34  N 
ATOM      4 H    SER B 362      34.988 -14.815  -8.040  1.00 27.60 LIG 0.16  HD
ENDROOT
BRANCH 1 5
ATOM      5  CA  GLY B 361      37.097 -14.780  -9.520  1.00 24.90 LIG 0.23  C 
BRANCH 5 6
ATOM      6  N   GLY B 361      36.851 -13.467 -10.092  1.00 24.70 LIG-0.35  N 
ATOM      7  C   GLY B 360      36.077 -12.584  -9.467  1.00 25.98 LIG 0.23  C 
ATOM      8 O    GLY B 360      35.505 -12.821  -8.395  1.00 23.45 LIG-0.27  OA
ATOM      9 H    GLY B 361      37.241 -13.324 -10.845  1.00 24.70 LIG 0.16  HD
BRANCH 7 10
ATOM     10  CA  GLY B 360      35.904 -11.242 -10.146  1.00 26.97 LIG 0.23  C 
BRANCH 10 11
ATOM     11  N   GLY B 360      37.194 -10.689 -10.507  1.00 32.20 LIG-0.35  N 
ATOM     12  C   PRO B 359      38.137 -10.503  -9.591  1.00 35.92 LIG 0.24  C 
ATOM     13 O    PRO B 359      37.983 -10.777  -8.403  1.00 37.04 LIG-0.27  OA
ATOM     14 H    GLY B 360      37.284 -10.501 -11.342  1.00 32.20 LIG 0.16  HD
BRANCH 12 15
ATOM     15  CA  PRO B 359      39.453  -9.917 -10.093  1.00 39.21 LIG 0.18  C 
ATOM     16  CB  PRO B 359      39.554  -8.415  -9.838  1.00 38.88 LIG 0.04  C 
ATOM     17  CG  PRO B 359      38.958  -7.830 -11.079  1.00 39.81 LIG 0.02  C 
ATOM     18  CD  PRO B 359      39.601  -8.672 -12.160  1.00 41.55 LIG 0.13  C 
ATOM     19  N   PRO B 359      39.600 -10.013 -11.549  1.00 42.03 LIG-0.34  N 
ATOM     20  C   GLU B 358      39.636 -11.193 -12.184  1.00 44.90 LIG 0.26  C 
ATOM     21 O    GLU B 358      39.545 -12.263 -11.580  1.00 45.02 LIG-0.27  OA
BRANCH 20 22
ATOM     22  CA  GLU B 358      39.792 -11.163 -13.704  1.00 48.47 LIG 0.40  C 
ATOM     23  N   GLU B 358      41.010 -11.924 -14.114  1.00 49.88 LIG 0.61  N 
BRANCH 22 24
ATOM     24  CB  GLU B 358      38.543 -11.768 -14.356  1.00 52.00 LIG 0.06  C 
BRANCH 24 25
ATOM     25  CG  GLU B 358      38.747 -13.149 -14.972  1.00 56.00 LIG 0.12  C 
BRANCH 25 26
ATOM     26  CD  GLU B 358      39.105 -14.205 -13.939  1.00 58.41 LIG 0.17  C 
ATOM     27 OE1  GLU B 358      38.209 -14.603 -13.161  1.00 59.40 LIG-0.65  OA
ATOM     28 OE2  GLU B 358      40.279 -14.635 -13.906  1.00 59.45 LIG-0.65  OA
ENDBRANCH 25 26
ENDBRANCH 24 25
ENDBRANCH 22 24
ENDBRANCH 20 22
ENDBRANCH 12 15
ENDBRANCH 10 11
ENDBRANCH 7 10
ENDBRANCH 5 6
ENDBRANCH 1 5
BRANCH 3 29
ATOM     29  CA  SER B 362      33.684 -16.189  -8.607  1.00 31.63 LIG 0.20  C 
BRANCH 29 30
ATOM     30  CB  SER B 362      33.993 -17.661  -8.292  1.00 29.14 LIG 0.20  C 
BRANCH 30 31
ATOM     31 OG   SER B 362      34.079 -18.437  -9.473  1.00 25.13 LIG-0.40  OA
ATOM     32 HG   SER B 362      34.704 -18.149  -9.953  1.00 25.13 LIG 0.21  HD
ENDBRANCH 30 31
ENDBRANCH 29 30
BRANCH 29 33
ATOM     33  C   SER B 362      32.612 -15.686  -7.638  1.00 35.65 LIG 0.24  C 
ATOM     34 O    SER B 362      31.932 -16.493  -7.004  1.00 37.77 LIG-0.27  OA
ATOM     35  N   ARG B 363      32.453 -14.370  -7.516  1.00 40.10 LIG-0.34  N 
ATOM     36 H    ARG B 363      32.906 -13.784  -7.953  1.00 40.10 LIG 0.16  HD
BRANCH 35 37
ATOM     37  CA  ARG B 363      31.457 -13.815  -6.593  1.00 45.15 LIG 0.18  C 
BRANCH 37 38
ATOM     38  C   ARG B 363      30.564 -12.757  -7.239  1.00 46.43 LIG 0.20  C 
ATOM     39 O    ARG B 363      29.975 -11.947  -6.492  1.00 47.78 LIG-0.65  OA
ATOM     40 OXT  ARG B 363      30.458 -12.750  -8.485  1.00 47.46 LIG-0.65  OA
ENDBRANCH 37 38
BRANCH 37 41
ATOM     41  CB  ARG B 363      32.141 -13.212  -5.361  1.00 48.51 LIG 0.04  C 
BRANCH 41 42
ATOM     42  CG  ARG B 363      31.540 -13.643  -4.036  1.00 53.09 LIG 0.02  C 
BRANCH 42 43
ATOM     43  CD  ARG B 363      30.664 -12.549  -3.451  1.00 56.16 LIG 0.14  C 
BRANCH 43 44
ATOM     44  NE  ARG B 363      31.341 -11.255  -3.438  1.00 60.73 LIG-0.23  N 
ATOM     45 HE   ARG B 363      32.168 -11.236  -3.203  1.00 60.73 LIG 0.18  HD
ATOM     46  CZ  ARG B 363      30.761 -10.102  -3.766  1.00 63.15 LIG 0.67  C 
ATOM     47  NH2 ARG B 363      31.455  -8.970  -3.732  1.00 63.96 LIG-0.23  N 
ATOM     48  NH1 ARG B 363      29.484 -10.080  -4.131  1.00 63.92 LIG-0.23  N 
ATOM     49 1HH2 ARG B 363      32.283  -8.979  -3.497  1.00 63.96 LIG 0.17  HD
ATOM     50 2HH2 ARG B 363      31.077  -8.228  -3.944  1.00 63.96 LIG 0.17  HD
ATOM     51 1HH1 ARG B 363      29.030 -10.810  -4.155  1.00 63.92 LIG 0.17  HD
ATOM     52 2HH1 ARG B 363      29.110  -9.335  -4.343  1.00 63.92 LIG 0.17  HD
ENDBRANCH 43 44
ENDBRANCH 42 43
ENDBRANCH 41 42
ENDBRANCH 37 41
ENDBRANCH 35 37
ENDBRANCH 29 33
ENDBRANCH 3 29
TORSDOF 19
ENDMDL
MODEL 14
USER: ADFR SOLUTION from run 45
USER: SCORE 15.611928 LL:  -3.759 LR: -13.480 RR:   0.000 FEB:  -7.813
USER: RMSD 6.992939
USER: SEED 44
USER: STATUS no improvement in best in 5 clusters for 5 generations
USER: GENES 21
USER: genes 0 Translation |==|  0.37793 0.48692 0.53876
USER: genes 1 Rotation |==|  0.25891 0.76309 0.74092 0.75420
USER: genes 2 Torsion [N]-C--CA-[N] |==|  0.00056
USER: genes 3 Torsion [C]-CA--N-[C] |==|  0.24914
USER: genes 4 Torsion [N]-C--CA-[N] |==|  0.62141
USER: genes 5 Torsion [C]-CA--N-[C] |==|  0.25454
USER: genes 6 Torsion [N]-C--CA-[N] |==|  0.34607
USER: genes 7 Torsion [N]-C--CA-[N] |==|  0.18107
USER: genes 8 Torsion [C]-CA--CB-[CG] |==|  0.34893
USER: genes 9 Torsion [CA]-CB--CG-[CD] |==|  0.18589
USER: genes 10 Torsion [CB]-CG--CD-[OE2] |==|  0.44304
USER: genes 11 Torsion [C]-N--CA-[CB] |==|  0.48889
USER: genes 12 Torsion [N]-CA--CB-[OG] |==|  0.10067
USER: genes 13 Torsion [CA]-CB--OG-[HG] |==|  0.94864
USER: genes 14 Torsion [N]-CA--C-[N] |==|  0.20058
USER: genes 15 Torsion [C]-N--CA-[CB] |==|  0.40881
USER: genes 16 Torsion [N]-CA--C-[OXT] |==|  0.49979
USER: genes 17 Torsion [N]-CA--CB-[CG] |==|  0.89287
USER: genes 18 Torsion [CA]-CB--CG-[CD] |==|  0.33523
USER: genes 19 Torsion [CB]-CG--CD-[NE] |==|  0.35581
USER: genes 20 Torsion [CG]-CD--NE-[HE] |==|  0.13712
ROOT
ATOM      1  C   GLY B 361      35.272 -13.374  -8.490  1.00 26.32 LIG 0.24  C 
ATOM      2 O    GLY B 361      36.441 -13.050  -8.701  1.00 25.16 LIG-0.27  OA
ATOM      3  N   SER B 362      34.838 -14.624  -8.611  1.00 27.60 LIG-0.34  N 
ATOM      4 H    SER B 362      34.023 -14.865  -8.482  1.00 27.60 LIG 0.16  HD
ENDROOT
BRANCH 1 5
ATOM      5  CA  GLY B 361      34.249 -12.330  -8.081  1.00 24.90 LIG 0.23  C 
BRANCH 5 6
ATOM      6  N   GLY B 361      32.943 -12.937  -7.891  1.00 24.70 LIG-0.35  N 
ATOM      7  C   GLY B 360      32.578 -13.416  -6.705  1.00 25.98 LIG 0.23  C 
ATOM      8 O    GLY B 360      33.316 -13.403  -5.710  1.00 23.45 LIG-0.27  OA
ATOM      9 H    GLY B 361      32.448 -12.954  -8.594  1.00 24.70 LIG 0.16  HD
BRANCH 7 10
ATOM     10  CA  GLY B 360      31.188 -14.010  -6.617  1.00 26.97 LIG 0.23  C 
BRANCH 10 11
ATOM     11  N   GLY B 360      30.527 -13.571  -5.405  1.00 32.20 LIG-0.35  N 
ATOM     12  C   PRO B 359      29.769 -12.480  -5.398  1.00 35.92 LIG 0.24  C 
ATOM     13 O    PRO B 359      29.584 -11.785  -6.393  1.00 37.04 LIG-0.27  OA
ATOM     14 H    GLY B 360      30.668 -14.068  -4.717  1.00 32.20 LIG 0.16  HD
BRANCH 12 15
ATOM     15  CA  PRO B 359      29.123 -12.121  -4.064  1.00 39.21 LIG 0.18  C 
ATOM     16  CB  PRO B 359      27.598 -12.105  -4.142  1.00 38.88 LIG 0.04  C 
ATOM     17  CG  PRO B 359      27.303 -10.691  -4.530  1.00 39.81 LIG 0.02  C 
ATOM     18  CD  PRO B 359      28.232  -9.917  -3.619  1.00 41.55 LIG 0.13  C 
ATOM     19  N   PRO B 359      29.442 -10.757  -3.626  1.00 42.03 LIG-0.34  N 
ATOM     20  C   GLU B 358      30.699 -10.370  -3.366  1.00 44.90 LIG 0.26  C 
ATOM     21 O    GLU B 358      31.657 -11.137  -3.483  1.00 45.02 LIG-0.27  OA
BRANCH 20 22
ATOM     22  CA  GLU B 358      30.905  -8.924  -2.918  1.00 48.47 LIG 0.40  C 
ATOM     23  N   GLU B 358      30.255  -8.694  -1.594  1.00 49.88 LIG 0.61  N 
BRANCH 22 24
ATOM     24  CB  GLU B 358      32.407  -8.626  -2.831  1.00 52.00 LIG 0.06  C 
BRANCH 24 25
ATOM     25  CG  GLU B 358      32.867  -7.414  -3.636  1.00 56.00 LIG 0.12  C 
BRANCH 25 26
ATOM     26  CD  GLU B 358      32.318  -6.105  -3.091  1.00 58.41 LIG 0.17  C 
ATOM     27 OE1  GLU B 358      31.301  -6.146  -2.361  1.00 59.40 LIG-0.65  OA
ATOM     28 OE2  GLU B 358      32.902  -5.041  -3.391  1.00 59.45 LIG-0.65  OA
ENDBRANCH 25 26
ENDBRANCH 24 25
ENDBRANCH 22 24
ENDBRANCH 20 22
ENDBRANCH 12 15
ENDBRANCH 10 11
ENDBRANCH 7 10
ENDBRANCH 5 6
ENDBRANCH 1 5
BRANCH 3 29
ATOM     29  CA  SER B 362      35.739 -15.711  -8.983  1.00 31.63 LIG 0.20  C 
BRANCH 29 30
ATOM     30  CB  SER B 362      34.993 -17.054  -8.951  1.00 29.14 LIG 0.20  C 
BRANCH 30 31
ATOM     31 OG   SER B 362      33.655 -16.915  -9.392  1.00 25.13 LIG-0.40  OA
ATOM     32 HG   SER B 362      33.429 -16.107  -9.352  1.00 25.13 LIG 0.21  HD
ENDBRANCH 30 31
ENDBRANCH 29 30
BRANCH 29 33
ATOM     33  C   SER B 362      36.446 -15.565 -10.332  1.00 35.65 LIG 0.24  C 
ATOM     34 O    SER B 362      36.109 -16.274 -11.279  1.00 37.77 LIG-0.27  OA
ATOM     35  N   ARG B 363      37.416 -14.659 -10.430  1.00 40.10 LIG-0.34  N 
ATOM     36 H    ARG B 363      37.679 -14.157  -9.783  1.00 40.10 LIG 0.16  HD
BRANCH 35 37
ATOM     37  CA  ARG B 363      38.125 -14.451 -11.697  1.00 45.15 LIG 0.18  C 
BRANCH 37 38
ATOM     38  C   ARG B 363      39.361 -15.337 -11.846  1.00 46.43 LIG 0.20  C 
ATOM     39 O    ARG B 363      39.641 -16.119 -10.912  1.00 47.78 LIG-0.65  OA
ATOM     40 OXT  ARG B 363      40.039 -15.239 -12.892  1.00 47.46 LIG-0.65  OA
ENDBRANCH 37 38
BRANCH 37 41
ATOM     41  CB  ARG B 363      38.538 -12.982 -11.848  1.00 48.51 LIG 0.04  C 
BRANCH 41 42
ATOM     42  CG  ARG B 363      37.508 -11.987 -11.344  1.00 53.09 LIG 0.02  C 
BRANCH 42 43
ATOM     43  CD  ARG B 363      38.085 -11.112 -10.244  1.00 56.16 LIG 0.14  C 
BRANCH 43 44
ATOM     44  NE  ARG B 363      37.886  -9.691 -10.516  1.00 60.73 LIG-0.23  N 
ATOM     45 HE   ARG B 363      37.097  -9.429 -10.736  1.00 60.73 LIG 0.18  HD
ATOM     46  CZ  ARG B 363      38.848  -8.773 -10.444  1.00 63.15 LIG 0.67  C 
ATOM     47  NH2 ARG B 363      38.577  -7.498 -10.703  1.00 63.96 LIG-0.23  N 
ATOM     48  NH1 ARG B 363      40.084  -9.128 -10.113  1.00 63.92 LIG-0.23  N 
ATOM     49 1HH2 ARG B 363      37.778  -7.262 -10.917  1.00 63.96 LIG 0.17  HD
ATOM     50 2HH2 ARG B 363      39.201  -6.908 -10.656  1.00 63.96 LIG 0.17  HD
ATOM     51 1HH1 ARG B 363      40.264  -9.952  -9.944  1.00 63.92 LIG 0.17  HD
ATOM     52 2HH1 ARG B 363      40.704  -8.534 -10.066  1.00 63.92 LIG 0.17  HD
ENDBRANCH 43 44
ENDBRANCH 42 43
ENDBRANCH 41 42
ENDBRANCH 37 41
ENDBRANCH 35 37
ENDBRANCH 29 33
ENDBRANCH 3 29
TORSDOF 19
ENDMDL
MODEL 15
USER: ADFR SOLUTION from run 78
USER: SCORE 15.378690 LL:  -3.559 LR: -13.467 RR:   0.000 FEB:  -7.799
USER: RMSD 7.918670
USER: SEED 77
USER: STATUS no improvement in best in 10 clusters for 5 generations
USER: GENES 21
USER: genes 0 Translation |==|  0.28197 0.47752 0.60961
USER: genes 1 Rotation |==|  0.29613 0.40073 0.90565 0.68448
USER: genes 2 Torsion [N]-C--CA-[N] |==|  0.61391
USER: genes 3 Torsion [C]-CA--N-[C] |==|  0.17734
USER: genes 4 Torsion [N]-C--CA-[N] |==|  0.12084
USER: genes 5 Torsion [C]-CA--N-[C] |==|  0.27221
USER: genes 6 Torsion [N]-C--CA-[N] |==|  0.45574
USER: genes 7 Torsion [N]-C--CA-[N] |==|  0.19827
USER: genes 8 Torsion [C]-CA--CB-[CG] |==|  0.54868
USER: genes 9 Torsion [CA]-CB--CG-[CD] |==|  0.76805
USER: genes 10 Torsion [CB]-CG--CD-[OE2] |==|  0.67011
USER: genes 11 Torsion [C]-N--CA-[CB] |==|  0.18799
USER: genes 12 Torsion [N]-CA--CB-[OG] |==|  0.15075
USER: genes 13 Torsion [CA]-CB--OG-[HG] |==|  0.07275
USER: genes 14 Torsion [N]-CA--C-[N] |==|  0.74864
USER: genes 15 Torsion [C]-N--CA-[CB] |==|  0.25879
USER: genes 16 Torsion [N]-CA--C-[OXT] |==|  0.96131
USER: genes 17 Torsion [N]-CA--CB-[CG] |==|  0.99421
USER: genes 18 Torsion [CA]-CB--CG-[CD] |==|  0.70595
USER: genes 19 Torsion [CB]-CG--CD-[NE] |==|  0.66672
USER: genes 20 Torsion [CG]-CD--NE-[HE] |==|  0.93029
ROOT
ATOM      1  C   GLY B 361      32.969 -13.586  -6.843  1.00 26.32 LIG 0.24  C 
ATOM      2 O    GLY B 361      33.066 -12.711  -5.982  1.00 25.16 LIG-0.27  OA
ATOM      3  N   SER B 362      33.790 -13.666  -7.885  1.00 27.60 LIG-0.34  N 
ATOM      4 H    SER B 362      33.728 -14.262  -8.502  1.00 27.60 LIG 0.16  HD
ENDROOT
BRANCH 1 5
ATOM      5  CA  GLY B 361      31.873 -14.632  -6.752  1.00 24.90 LIG 0.23  C 
BRANCH 5 6
ATOM      6  N   GLY B 361      30.623 -14.030  -6.320  1.00 24.70 LIG-0.35  N 
ATOM      7  C   GLY B 360      30.009 -13.118  -7.070  1.00 25.98 LIG 0.23  C 
ATOM      8 O    GLY B 360      30.460 -12.711  -8.148  1.00 23.45 LIG-0.27  OA
ATOM      9 H    GLY B 361      30.331 -14.311  -5.561  1.00 24.70 LIG 0.16  HD
BRANCH 7 10
ATOM     10  CA  GLY B 360      28.704 -12.572  -6.531  1.00 26.97 LIG 0.23  C 
BRANCH 10 11
ATOM     11  N   GLY B 360      28.822 -12.287  -5.115  1.00 32.20 LIG-0.35  N 
ATOM     12  C   PRO B 359      29.068 -11.055  -4.684  1.00 35.92 LIG 0.24  C 
ATOM     13 O    PRO B 359      29.212 -10.096  -5.439  1.00 37.04 LIG-0.27  OA
ATOM     14 H    GLY B 360      28.721 -12.969  -4.601  1.00 32.20 LIG 0.16  HD
BRANCH 12 15
ATOM     15  CA  PRO B 359      29.168 -10.879  -3.172  1.00 39.21 LIG 0.18  C 
ATOM     16  CB  PRO B 359      27.797 -10.797  -2.506  1.00 38.88 LIG 0.04  C 
ATOM     17  CG  PRO B 359      27.504  -9.331  -2.537  1.00 39.81 LIG 0.02  C 
ATOM     18  CD  PRO B 359      28.827  -8.739  -2.101  1.00 41.55 LIG 0.13  C 
ATOM     19  N   PRO B 359      29.797  -9.611  -2.787  1.00 42.03 LIG-0.34  N 
ATOM     20  C   GLU B 358      31.061  -9.313  -3.121  1.00 44.90 LIG 0.26  C 
ATOM     21 O    GLU B 358      31.764 -10.088  -3.772  1.00 45.02 LIG-0.27  OA
BRANCH 20 22
ATOM     22  CA  GLU B 358      31.603  -7.961  -2.662  1.00 48.47 LIG 0.40  C 
ATOM     23  N   GLU B 358      31.823  -7.965  -1.184  1.00 49.88 LIG 0.61  N 
BRANCH 22 24
ATOM     24  CB  GLU B 358      32.918  -7.665  -3.393  1.00 52.00 LIG 0.06  C 
BRANCH 24 25
ATOM     25  CG  GLU B 358      33.778  -6.580  -2.750  1.00 56.00 LIG 0.12  C 
BRANCH 25 26
ATOM     26  CD  GLU B 358      33.355  -5.178  -3.158  1.00 58.41 LIG 0.17  C 
ATOM     27 OE1  GLU B 358      32.197  -4.799  -2.867  1.00 59.40 LIG-0.65  OA
ATOM     28 OE2  GLU B 358      34.176  -4.459  -3.767  1.00 59.45 LIG-0.65  OA
ENDBRANCH 25 26
ENDBRANCH 24 25
ENDBRANCH 22 24
ENDBRANCH 20 22
ENDBRANCH 12 15
ENDBRANCH 10 11
ENDBRANCH 7 10
ENDBRANCH 5 6
ENDBRANCH 1 5
BRANCH 3 29
ATOM     29  CA  SER B 362      34.891 -12.723  -8.062  1.00 31.63 LIG 0.20  C 
BRANCH 29 30
ATOM     30  CB  SER B 362      35.950 -12.931  -6.970  1.00 29.14 LIG 0.20  C 
BRANCH 30 31
ATOM     31 OG   SER B 362      36.391 -14.275  -6.923  1.00 25.13 LIG-0.40  OA
ATOM     32 HG   SER B 362      36.291 -14.630  -7.677  1.00 25.13 LIG 0.21  HD
ENDBRANCH 30 31
ENDBRANCH 29 30
BRANCH 29 33
ATOM     33  C   SER B 362      35.575 -12.742  -9.431  1.00 35.65 LIG 0.24  C 
ATOM     34 O    SER B 362      35.156 -12.020 -10.335  1.00 37.77 LIG-0.27  OA
ATOM     35  N   ARG B 363      36.618 -13.553  -9.593  1.00 40.10 LIG-0.34  N 
ATOM     36 H    ARG B 363      36.926 -14.075  -8.983  1.00 40.10 LIG 0.16  HD
BRANCH 35 37
ATOM     37  CA  ARG B 363      37.335 -13.611 -10.871  1.00 45.15 LIG 0.18  C 
BRANCH 37 38
ATOM     38  C   ARG B 363      37.827 -15.014 -11.221  1.00 46.43 LIG 0.20  C 
ATOM     39 O    ARG B 363      38.207 -15.230 -12.392  1.00 47.78 LIG-0.65  OA
ATOM     40 OXT  ARG B 363      37.826 -15.884 -10.323  1.00 47.46 LIG-0.65  OA
ENDBRANCH 37 38
BRANCH 37 41
ATOM     41  CB  ARG B 363      38.526 -12.646 -10.865  1.00 48.51 LIG 0.04  C 
BRANCH 41 42
ATOM     42  CG  ARG B 363      38.666 -11.831  -9.592  1.00 53.09 LIG 0.02  C 
BRANCH 42 43
ATOM     43  CD  ARG B 363      38.244 -10.389  -9.817  1.00 56.16 LIG 0.14  C 
BRANCH 43 44
ATOM     44  NE  ARG B 363      39.333  -9.453  -9.548  1.00 60.73 LIG-0.23  N 
ATOM     45 HE   ARG B 363      39.953  -9.701  -9.005  1.00 60.73 LIG 0.18  HD
ATOM     46  CZ  ARG B 363      39.430  -8.240 -10.089  1.00 63.15 LIG 0.67  C 
ATOM     47  NH2 ARG B 363      40.460  -7.455  -9.792  1.00 63.96 LIG-0.23  N 
ATOM     48  NH1 ARG B 363      38.496  -7.810 -10.930  1.00 63.92 LIG-0.23  N 
ATOM     49 1HH2 ARG B 363      41.068  -7.729  -9.249  1.00 63.96 LIG 0.17  HD
ATOM     50 2HH2 ARG B 363      40.518  -6.672 -10.144  1.00 63.96 LIG 0.17  HD
ATOM     51 1HH1 ARG B 363      37.828  -8.315 -11.125  1.00 63.92 LIG 0.17  HD
ATOM     52 2HH1 ARG B 363      38.560  -7.027 -11.279  1.00 63.92 LIG 0.17  HD
ENDBRANCH 43 44
ENDBRANCH 42 43
ENDBRANCH 41 42
ENDBRANCH 37 41
ENDBRANCH 35 37
ENDBRANCH 29 33
ENDBRANCH 3 29
TORSDOF 19
ENDMDL
MODEL 16
USER: ADFR SOLUTION from run 27
USER: SCORE 16.225571 LL:  -4.406 LR: -13.333 RR:   0.000 FEB:  -7.665
USER: RMSD 10.936468
USER: SEED 26
USER: STATUS no improvement in best in 4 clusters for 5 generations
USER: GENES 21
USER: genes 0 Translation |==|  0.50955 0.64967 0.48030
USER: genes 1 Rotation |==|  0.34763 0.82959 0.56988 0.83656
USER: genes 2 Torsion [N]-C--CA-[N] |==|  0.56656
USER: genes 3 Torsion [C]-CA--N-[C] |==|  0.28492
USER: genes 4 Torsion [N]-C--CA-[N] |==|  0.04941
USER: genes 5 Torsion [C]-CA--N-[C] |==|  0.26635
USER: genes 6 Torsion [N]-C--CA-[N] |==|  0.97937
USER: genes 7 Torsion [N]-C--CA-[N] |==|  0.85326
USER: genes 8 Torsion [C]-CA--CB-[CG] |==|  0.34978
USER: genes 9 Torsion [CA]-CB--CG-[CD] |==|  0.19003
USER: genes 10 Torsion [CB]-CG--CD-[OE2] |==|  0.49306
USER: genes 11 Torsion [C]-N--CA-[CB] |==|  0.52778
USER: genes 12 Torsion [N]-CA--CB-[OG] |==|  0.72651
USER: genes 13 Torsion [CA]-CB--OG-[HG] |==|  0.64612
USER: genes 14 Torsion [N]-CA--C-[N] |==|  0.86797
USER: genes 15 Torsion [C]-N--CA-[CB] |==|  0.83260
USER: genes 16 Torsion [N]-CA--C-[OXT] |==|  0.79943
USER: genes 17 Torsion [N]-CA--CB-[CG] |==|  0.79440
USER: genes 18 Torsion [CA]-CB--CG-[CD] |==|  0.84290
USER: genes 19 Torsion [CB]-CG--CD-[NE] |==|  0.29980
USER: genes 20 Torsion [CG]-CD--NE-[HE] |==|  0.84986
ROOT
ATOM      1  C   GLY B 361      38.431  -9.713  -9.849  1.00 26.32 LIG 0.24  C 
ATOM      2 O    GLY B 361      39.453 -10.396  -9.791  1.00 25.16 LIG-0.27  OA
ATOM      3  N   SER B 362      37.220 -10.237 -10.004  1.00 27.60 LIG-0.34  N 
ATOM      4 H    SER B 362      36.498  -9.773 -10.061  1.00 27.60 LIG 0.16  HD
ENDROOT
BRANCH 1 5
ATOM      5  CA  GLY B 361      38.516  -8.200  -9.753  1.00 24.90 LIG 0.23  C 
BRANCH 5 6
ATOM      6  N   GLY B 361      39.834  -7.733 -10.146  1.00 24.70 LIG-0.35  N 
ATOM      7  C   GLY B 360      40.038  -7.192 -11.345  1.00 25.98 LIG 0.23  C 
ATOM      8 O    GLY B 360      39.147  -7.075 -12.197  1.00 23.45 LIG-0.27  OA
ATOM      9 H    GLY B 361      40.446  -7.836  -9.551  1.00 24.70 LIG 0.16  HD
BRANCH 7 10
ATOM     10  CA  GLY B 360      41.446  -6.724 -11.642  1.00 26.97 LIG 0.23  C 
BRANCH 10 11
ATOM     11  N   GLY B 360      42.385  -7.330 -10.719  1.00 32.20 LIG-0.35  N 
ATOM     12  C   PRO B 359      43.054  -8.429 -11.050  1.00 35.92 LIG 0.24  C 
ATOM     13 O    PRO B 359      42.923  -8.994 -12.133  1.00 37.04 LIG-0.27  OA
ATOM     14 H    GLY B 360      42.463  -6.923  -9.965  1.00 32.20 LIG 0.16  HD
BRANCH 12 15
ATOM     15  CA  PRO B 359      44.015  -8.972  -9.997  1.00 39.21 LIG 0.18  C 
ATOM     16  CB  PRO B 359      43.508 -10.264  -9.360  1.00 38.88 LIG 0.04  C 
ATOM     17  CG  PRO B 359      42.707  -9.765  -8.199  1.00 39.81 LIG 0.02  C 
ATOM     18  CD  PRO B 359      43.616  -8.698  -7.628  1.00 41.55 LIG 0.13  C 
ATOM     19  N   PRO B 359      44.164  -8.075  -8.846  1.00 42.03 LIG-0.34  N 
ATOM     20  C   GLU B 358      44.661  -6.836  -8.969  1.00 44.90 LIG 0.26  C 
ATOM     21 O    GLU B 358      45.017  -6.380 -10.058  1.00 45.02 LIG-0.27  OA
BRANCH 20 22
ATOM     22  CA  GLU B 358      44.766  -5.997  -7.697  1.00 48.47 LIG 0.40  C 
ATOM     23  N   GLU B 358      43.450  -5.958  -6.992  1.00 49.88 LIG 0.61  N 
BRANCH 22 24
ATOM     24  CB  GLU B 358      45.842  -6.593  -6.781  1.00 52.00 LIG 0.06  C 
BRANCH 24 25
ATOM     25  CG  GLU B 358      46.925  -5.611  -6.343  1.00 56.00 LIG 0.12  C 
BRANCH 25 26
ATOM     26  CD  GLU B 358      46.399  -4.540  -5.401  1.00 58.41 LIG 0.17  C 
ATOM     27 OE1  GLU B 358      45.177  -4.537  -5.127  1.00 59.40 LIG-0.65  OA
ATOM     28 OE2  GLU B 358      47.205  -3.705  -4.935  1.00 59.45 LIG-0.65  OA
ENDBRANCH 25 26
ENDBRANCH 24 25
ENDBRANCH 22 24
ENDBRANCH 20 22
ENDBRANCH 12 15
ENDBRANCH 10 11
ENDBRANCH 7 10
ENDBRANCH 5 6
ENDBRANCH 1 5
BRANCH 3 29
ATOM     29  CA  SER B 362      37.020 -11.681 -10.090  1.00 31.63 LIG 0.20  C 
BRANCH 29 30
ATOM     30  CB  SER B 362      35.577 -11.993 -10.512  1.00 29.14 LIG 0.20  C 
BRANCH 30 31
ATOM     31 OG   SER B 362      34.767 -12.313  -9.396  1.00 25.13 LIG-0.40  OA
ATOM     32 HG   SER B 362      34.380 -13.046  -9.531  1.00 25.13 LIG 0.21  HD
ENDBRANCH 30 31
ENDBRANCH 29 30
BRANCH 29 33
ATOM     33  C   SER B 362      37.983 -12.437 -11.008  1.00 35.65 LIG 0.24  C 
ATOM     34 O    SER B 362      38.531 -13.464 -10.608  1.00 37.77 LIG-0.27  OA
ATOM     35  N   ARG B 363      38.194 -11.947 -12.227  1.00 40.10 LIG-0.34  N 
ATOM     36 H    ARG B 363      37.833 -11.227 -12.529  1.00 40.10 LIG 0.16  HD
BRANCH 35 37
ATOM     37  CA  ARG B 363      39.090 -12.628 -13.168  1.00 45.15 LIG 0.18  C 
BRANCH 37 38
ATOM     38  C   ARG B 363      38.612 -14.029 -13.544  1.00 46.43 LIG 0.20  C 
ATOM     39 O    ARG B 363      38.153 -14.205 -14.693  1.00 47.78 LIG-0.65  OA
ATOM     40 OXT  ARG B 363      38.698 -14.936 -12.688  1.00 47.46 LIG-0.65  OA
ENDBRANCH 37 38
BRANCH 37 41
ATOM     41  CB  ARG B 363      40.508 -12.717 -12.593  1.00 48.51 LIG 0.04  C 
BRANCH 41 42
ATOM     42  CG  ARG B 363      41.272 -11.405 -12.603  1.00 53.09 LIG 0.02  C 
BRANCH 42 43
ATOM     43  CD  ARG B 363      41.352 -10.829 -14.006  1.00 56.16 LIG 0.14  C 
BRANCH 43 44
ATOM     44  NE  ARG B 363      40.498  -9.655 -14.165  1.00 60.73 LIG-0.23  N 
ATOM     45 HE   ARG B 363      39.667  -9.731 -13.959  1.00 60.73 LIG 0.18  HD
ATOM     46  CZ  ARG B 363      40.924  -8.473 -14.607  1.00 63.15 LIG 0.67  C 
ATOM     47  NH2 ARG B 363      40.077  -7.455 -14.715  1.00 63.96 LIG-0.23  N 
ATOM     48  NH1 ARG B 363      42.198  -8.307 -14.942  1.00 63.92 LIG-0.23  N 
ATOM     49 1HH2 ARG B 363      39.251  -7.557 -14.499  1.00 63.96 LIG 0.17  HD
ATOM     50 2HH2 ARG B 363      40.356  -6.693 -15.001  1.00 63.96 LIG 0.17  HD
ATOM     51 1HH1 ARG B 363      42.750  -8.963 -14.873  1.00 63.92 LIG 0.17  HD
ATOM     52 2HH1 ARG B 363      42.472  -7.543 -15.227  1.00 63.92 LIG 0.17  HD
ENDBRANCH 43 44
ENDBRANCH 42 43
ENDBRANCH 41 42
ENDBRANCH 37 41
ENDBRANCH 35 37
ENDBRANCH 29 33
ENDBRANCH 3 29
TORSDOF 19
ENDMDL
MODEL 17
USER: ADFR SOLUTION from run 141
USER: SCORE 15.910913 LL:  -4.302 LR: -13.312 RR:   0.000 FEB:  -7.645
USER: RMSD 7.240494
USER: SEED 140
USER: STATUS no improvement in best in 12 clusters for 5 generations
USER: GENES 21
USER: genes 0 Translation |==|  0.34891 0.45595 0.56622
USER: genes 1 Rotation |==|  0.34581 0.83876 0.83317 0.52147
USER: genes 2 Torsion [N]-C--CA-[N] |==|  0.78917
USER: genes 3 Torsion [C]-CA--N-[C] |==|  0.79755
USER: genes 4 Torsion [N]-C--CA-[N] |==|  0.11111
USER: genes 5 Torsion [C]-CA--N-[C] |==|  0.26724
USER: genes 6 Torsion [N]-C--CA-[N] |==|  0.35134
USER: genes 7 Torsion [N]-C--CA-[N] |==|  0.41100
USER: genes 8 Torsion [C]-CA--CB-[CG] |==|  0.44462
USER: genes 9 Torsion [CA]-CB--CG-[CD] |==|  0.26419
USER: genes 10 Torsion [CB]-CG--CD-[OE2] |==|  0.38478
USER: genes 11 Torsion [C]-N--CA-[CB] |==|  0.69757
USER: genes 12 Torsion [N]-CA--CB-[OG] |==|  0.09504
USER: genes 13 Torsion [CA]-CB--OG-[HG] |==|  0.06315
USER: genes 14 Torsion [N]-CA--C-[N] |==|  0.16922
USER: genes 15 Torsion [C]-N--CA-[CB] |==|  0.46536
USER: genes 16 Torsion [N]-CA--C-[OXT] |==|  0.40895
USER: genes 17 Torsion [N]-CA--CB-[CG] |==|  0.61809
USER: genes 18 Torsion [CA]-CB--CG-[CD] |==|  0.98281
USER: genes 19 Torsion [CB]-CG--CD-[NE] |==|  0.58926
USER: genes 20 Torsion [CG]-CD--NE-[HE] |==|  0.82478
ROOT
ATOM      1  C   GLY B 361      34.576 -14.071  -7.851  1.00 26.32 LIG 0.24  C 
ATOM      2 O    GLY B 361      34.827 -13.667  -8.986  1.00 25.16 LIG-0.27  OA
ATOM      3  N   SER B 362      34.741 -15.337  -7.483  1.00 27.60 LIG-0.34  N 
ATOM      4 H    SER B 362      34.556 -15.639  -6.700  1.00 27.60 LIG 0.16  HD
ENDROOT
BRANCH 1 5
ATOM      5  CA  GLY B 361      34.043 -13.116  -6.799  1.00 24.90 LIG 0.23  C 
BRANCH 5 6
ATOM      6  N   GLY B 361      32.617 -13.311  -6.602  1.00 24.70 LIG-0.35  N 
ATOM      7  C   GLY B 360      31.739 -12.908  -7.517  1.00 25.98 LIG 0.23  C 
ATOM      8 O    GLY B 360      32.066 -12.329  -8.562  1.00 23.45 LIG-0.27  OA
ATOM      9 H    GLY B 361      32.405 -13.699  -5.864  1.00 24.70 LIG 0.16  HD
BRANCH 7 10
ATOM     10  CA  GLY B 360      30.281 -13.178  -7.216  1.00 26.97 LIG 0.23  C 
BRANCH 10 11
ATOM     11  N   GLY B 360      30.001 -12.939  -5.815  1.00 32.20 LIG-0.35  N 
ATOM     12  C   PRO B 359      29.503 -11.777  -5.406  1.00 35.92 LIG 0.24  C 
ATOM     13 O    PRO B 359      29.255 -10.848  -6.171  1.00 37.04 LIG-0.27  OA
ATOM     14 H    GLY B 360      30.182 -13.599  -5.294  1.00 32.20 LIG 0.16  HD
BRANCH 12 15
ATOM     15  CA  PRO B 359      29.249 -11.646  -3.908  1.00 39.21 LIG 0.18  C 
ATOM     16  CB  PRO B 359      27.773 -11.424  -3.588  1.00 38.88 LIG 0.04  C 
ATOM     17  CG  PRO B 359      27.649  -9.934  -3.619  1.00 39.81 LIG 0.02  C 
ATOM     18  CD  PRO B 359      28.880  -9.503  -2.851  1.00 41.55 LIG 0.13  C 
ATOM     19  N   PRO B 359      29.892 -10.464  -3.324  1.00 42.03 LIG-0.34  N 
ATOM     20  C   GLU B 358      31.223 -10.302  -3.329  1.00 44.90 LIG 0.26  C 
ATOM     21 O    GLU B 358      31.980 -11.137  -3.829  1.00 45.02 LIG-0.27  OA
BRANCH 20 22
ATOM     22  CA  GLU B 358      31.774  -9.029  -2.690  1.00 48.47 LIG 0.40  C 
ATOM     23  N   GLU B 358      33.111  -9.293  -2.079  1.00 49.88 LIG 0.61  N 
BRANCH 22 24
ATOM     24  CB  GLU B 358      31.885  -7.931  -3.755  1.00 52.00 LIG 0.06  C 
BRANCH 24 25
ATOM     25  CG  GLU B 358      31.956  -6.509  -3.205  1.00 56.00 LIG 0.12  C 
BRANCH 25 26
ATOM     26  CD  GLU B 358      33.383  -6.008  -3.057  1.00 58.41 LIG 0.17  C 
ATOM     27 OE1  GLU B 358      34.247  -6.798  -2.610  1.00 59.40 LIG-0.65  OA
ATOM     28 OE2  GLU B 358      33.641  -4.831  -3.389  1.00 59.45 LIG-0.65  OA
ENDBRANCH 25 26
ENDBRANCH 24 25
ENDBRANCH 22 24
ENDBRANCH 20 22
ENDBRANCH 12 15
ENDBRANCH 10 11
ENDBRANCH 7 10
ENDBRANCH 5 6
ENDBRANCH 1 5
BRANCH 3 29
ATOM     29  CA  SER B 362      35.264 -16.338  -8.410  1.00 31.63 LIG 0.20  C 
BRANCH 29 30
ATOM     30  CB  SER B 362      34.150 -17.312  -8.824  1.00 29.14 LIG 0.20  C 
BRANCH 30 31
ATOM     31 OG   SER B 362      32.896 -16.661  -8.907  1.00 25.13 LIG-0.40  OA
ATOM     32 HG   SER B 362      33.014 -15.837  -9.023  1.00 25.13 LIG 0.21  HD
ENDBRANCH 30 31
ENDBRANCH 29 30
BRANCH 29 33
ATOM     33  C   SER B 362      35.945 -15.796  -9.668  1.00 35.65 LIG 0.24  C 
ATOM     34 O    SER B 362      35.494 -16.075 -10.778  1.00 37.77 LIG-0.27  OA
ATOM     35  N   ARG B 363      37.021 -15.027  -9.510  1.00 40.10 LIG-0.34  N 
ATOM     36 H    ARG B 363      37.364 -14.823  -8.748  1.00 40.10 LIG 0.16  HD
BRANCH 35 37
ATOM     37  CA  ARG B 363      37.716 -14.457 -10.669  1.00 45.15 LIG 0.18  C 
BRANCH 37 38
ATOM     38  C   ARG B 363      38.450 -15.505 -11.504  1.00 46.43 LIG 0.20  C 
ATOM     39 O    ARG B 363      38.938 -16.492 -10.913  1.00 47.78 LIG-0.65  OA
ATOM     40 OXT  ARG B 363      38.533 -15.328 -12.739  1.00 47.46 LIG-0.65  OA
ENDBRANCH 37 38
BRANCH 37 41
ATOM     41  CB  ARG B 363      38.711 -13.380 -10.224  1.00 48.51 LIG 0.04  C 
BRANCH 41 42
ATOM     42  CG  ARG B 363      38.719 -12.136 -11.094  1.00 53.09 LIG 0.02  C 
BRANCH 42 43
ATOM     43  CD  ARG B 363      37.827 -12.313 -12.311  1.00 56.16 LIG 0.14  C 
BRANCH 43 44
ATOM     44  NE  ARG B 363      38.332 -11.580 -13.470  1.00 60.73 LIG-0.23  N 
ATOM     45 HE   ARG B 363      38.375 -10.723 -13.416  1.00 60.73 LIG 0.18  HD
ATOM     46  CZ  ARG B 363      38.730 -12.153 -14.604  1.00 63.15 LIG 0.67  C 
ATOM     47  NH2 ARG B 363      39.181 -11.408 -15.607  1.00 63.96 LIG-0.23  N 
ATOM     48  NH1 ARG B 363      38.678 -13.474 -14.736  1.00 63.92 LIG-0.23  N 
ATOM     49 1HH2 ARG B 363      39.217 -10.553 -15.526  1.00 63.96 LIG 0.17  HD
ATOM     50 2HH2 ARG B 363      39.437 -11.782 -16.338  1.00 63.96 LIG 0.17  HD
ATOM     51 1HH1 ARG B 363      38.387 -13.960 -14.089  1.00 63.92 LIG 0.17  HD
ATOM     52 2HH1 ARG B 363      38.936 -13.843 -15.469  1.00 63.92 LIG 0.17  HD
ENDBRANCH 43 44
ENDBRANCH 42 43
ENDBRANCH 41 42
ENDBRANCH 37 41
ENDBRANCH 35 37
ENDBRANCH 29 33
ENDBRANCH 3 29
TORSDOF 19
ENDMDL
MODEL 18
USER: ADFR SOLUTION from run 158
USER: SCORE 16.391711 LL:  -4.604 LR: -13.282 RR:   0.000 FEB:  -7.614
USER: RMSD 5.702883
USER: SEED 157
USER: STATUS 1 or 2 clusters left
USER: GENES 21
USER: genes 0 Translation |==|  0.38429 0.53568 0.52266
USER: genes 1 Rotation |==|  0.76622 0.45355 0.11131 0.66091
USER: genes 2 Torsion [N]-C--CA-[N] |==|  0.66986
USER: genes 3 Torsion [C]-CA--N-[C] |==|  0.64855
USER: genes 4 Torsion [N]-C--CA-[N] |==|  0.05991
USER: genes 5 Torsion [C]-CA--N-[C] |==|  0.22778
USER: genes 6 Torsion [N]-C--CA-[N] |==|  0.25530
USER: genes 7 Torsion [N]-C--CA-[N] |==|  0.44888
USER: genes 8 Torsion [C]-CA--CB-[CG] |==|  0.43780
USER: genes 9 Torsion [CA]-CB--CG-[CD] |==|  0.00652
USER: genes 10 Torsion [CB]-CG--CD-[OE2] |==|  0.69028
USER: genes 11 Torsion [C]-N--CA-[CB] |==|  0.23693
USER: genes 12 Torsion [N]-CA--CB-[OG] |==|  0.40722
USER: genes 13 Torsion [CA]-CB--OG-[HG] |==|  0.17104
USER: genes 14 Torsion [N]-CA--C-[N] |==|  0.44583
USER: genes 15 Torsion [C]-N--CA-[CB] |==|  0.84284
USER: genes 16 Torsion [N]-CA--C-[OXT] |==|  0.45869
USER: genes 17 Torsion [N]-CA--CB-[CG] |==|  0.70683
USER: genes 18 Torsion [CA]-CB--CG-[CD] |==|  0.20149
USER: genes 19 Torsion [CB]-CG--CD-[NE] |==|  0.70873
USER: genes 20 Torsion [CG]-CD--NE-[HE] |==|  0.08785
ROOT
ATOM      1  C   GLY B 361      35.425 -12.277  -8.864  1.00 26.32 LIG 0.24  C 
ATOM      2 O    GLY B 361      34.559 -11.580  -9.393  1.00 25.16 LIG-0.27  OA
ATOM      3  N   SER B 362      36.660 -12.381  -9.343  1.00 27.60 LIG-0.34  N 
ATOM      4 H    SER B 362      37.272 -12.874  -8.995  1.00 27.60 LIG 0.16  HD
ENDROOT
BRANCH 1 5
ATOM      5  CA  GLY B 361      35.105 -13.077  -7.614  1.00 24.90 LIG 0.23  C 
BRANCH 5 6
ATOM      6  N   GLY B 361      34.045 -14.035  -7.874  1.00 24.70 LIG-0.35  N 
ATOM      7  C   GLY B 360      32.955 -14.072  -7.111  1.00 25.98 LIG 0.23  C 
ATOM      8 O    GLY B 360      32.784 -13.329  -6.135  1.00 23.45 LIG-0.27  OA
ATOM      9 H    GLY B 361      34.186 -14.555  -8.544  1.00 24.70 LIG 0.16  HD
BRANCH 7 10
ATOM     10  CA  GLY B 360      31.907 -15.099  -7.483  1.00 26.97 LIG 0.23  C 
BRANCH 10 11
ATOM     11  N   GLY B 360      32.499 -16.161  -8.272  1.00 32.20 LIG-0.35  N 
ATOM     12  C   PRO B 359      33.145 -17.165  -7.690  1.00 35.92 LIG 0.24  C 
ATOM     13 O    PRO B 359      33.286 -17.256  -6.473  1.00 37.04 LIG-0.27  OA
ATOM     14 H    GLY B 360      32.393 -16.080  -9.122  1.00 32.20 LIG 0.16  HD
BRANCH 12 15
ATOM     15  CA  PRO B 359      33.722 -18.223  -8.624  1.00 39.21 LIG 0.18  C 
ATOM     16  CB  PRO B 359      33.828 -19.592  -7.956  1.00 38.88 LIG 0.04  C 
ATOM     17  CG  PRO B 359      35.193 -19.556  -7.347  1.00 39.81 LIG 0.02  C 
ATOM     18  CD  PRO B 359      36.019 -18.963  -8.468  1.00 41.55 LIG 0.13  C 
ATOM     19  N   PRO B 359      35.108 -17.943  -9.016  1.00 42.03 LIG-0.34  N 
ATOM     20  C   GLU B 358      35.443 -16.843  -9.707  1.00 44.90 LIG 0.26  C 
ATOM     21 O    GLU B 358      34.605 -16.006 -10.048  1.00 45.02 LIG-0.27  OA
BRANCH 20 22
ATOM     22  CA  GLU B 358      36.919 -16.661 -10.056  1.00 48.47 LIG 0.40  C 
ATOM     23  N   GLU B 358      37.070 -15.675 -11.167  1.00 49.88 LIG 0.61  N 
BRANCH 22 24
ATOM     24  CB  GLU B 358      37.681 -16.184  -8.814  1.00 52.00 LIG 0.06  C 
BRANCH 24 25
ATOM     25  CG  GLU B 358      39.181 -16.464  -8.836  1.00 56.00 LIG 0.12  C 
BRANCH 25 26
ATOM     26  CD  GLU B 358      39.636 -17.122 -10.129  1.00 58.41 LIG 0.17  C 
ATOM     27 OE1  GLU B 358      39.601 -16.446 -11.183  1.00 59.40 LIG-0.65  OA
ATOM     28 OE2  GLU B 358      40.026 -18.309 -10.091  1.00 59.45 LIG-0.65  OA
ENDBRANCH 25 26
ENDBRANCH 24 25
ENDBRANCH 22 24
ENDBRANCH 20 22
ENDBRANCH 12 15
ENDBRANCH 10 11
ENDBRANCH 7 10
ENDBRANCH 5 6
ENDBRANCH 1 5
BRANCH 3 29
ATOM     29  CA  SER B 362      37.081 -11.642 -10.530  1.00 31.63 LIG 0.20  C 
BRANCH 29 30
ATOM     30  CB  SER B 362      37.541 -10.229 -10.141  1.00 29.14 LIG 0.20  C 
BRANCH 30 31
ATOM     31 OG   SER B 362      38.590  -9.776 -10.977  1.00 25.13 LIG-0.40  OA
ATOM     32 HG   SER B 362      38.320  -9.739 -11.771  1.00 25.13 LIG 0.21  HD
ENDBRANCH 30 31
ENDBRANCH 29 30
BRANCH 29 33
ATOM     33  C   SER B 362      38.168 -12.304 -11.381  1.00 35.65 LIG 0.24  C 
ATOM     34 O    SER B 362      38.879 -13.181 -10.892  1.00 37.77 LIG-0.27  OA
ATOM     35  N   ARG B 363      38.305 -11.896 -12.641  1.00 40.10 LIG-0.34  N 
ATOM     36 H    ARG B 363      37.830 -11.279 -13.005  1.00 40.10 LIG 0.16  HD
BRANCH 35 37
ATOM     37  CA  ARG B 363      39.313 -12.497 -13.521  1.00 45.15 LIG 0.18  C 
BRANCH 37 38
ATOM     38  C   ARG B 363      39.035 -13.965 -13.838  1.00 46.43 LIG 0.20  C 
ATOM     39 O    ARG B 363      38.202 -14.572 -13.132  1.00 47.78 LIG-0.65  OA
ATOM     40 OXT  ARG B 363      39.653 -14.495 -14.787  1.00 47.46 LIG-0.65  OA
ENDBRANCH 37 38
BRANCH 37 41
ATOM     41  CB  ARG B 363      40.711 -12.371 -12.904  1.00 48.51 LIG 0.04  C 
BRANCH 41 42
ATOM     42  CG  ARG B 363      41.591 -11.321 -13.556  1.00 53.09 LIG 0.02  C 
BRANCH 42 43
ATOM     43  CD  ARG B 363      41.130  -9.919 -13.197  1.00 56.16 LIG 0.14  C 
BRANCH 43 44
ATOM     44  NE  ARG B 363      40.434  -9.272 -14.307  1.00 60.73 LIG-0.23  N 
ATOM     45 HE   ARG B 363      39.984  -9.769 -14.845  1.00 60.73 LIG 0.18  HD
ATOM     46  CZ  ARG B 363      40.452  -7.961 -14.539  1.00 63.15 LIG 0.67  C 
ATOM     47  NH2 ARG B 363      39.784  -7.455 -15.571  1.00 63.96 LIG-0.23  N 
ATOM     48  NH1 ARG B 363      41.136  -7.152 -13.739  1.00 63.92 LIG-0.23  N 
ATOM     49 1HH2 ARG B 363      39.338  -7.975 -16.091  1.00 63.96 LIG 0.17  HD
ATOM     50 2HH2 ARG B 363      39.798  -6.608 -15.717  1.00 63.96 LIG 0.17  HD
ATOM     51 1HH1 ARG B 363      41.570  -7.475 -13.070  1.00 63.92 LIG 0.17  HD
ATOM     52 2HH1 ARG B 363      41.147  -6.305 -13.889  1.00 63.92 LIG 0.17  HD
ENDBRANCH 43 44
ENDBRANCH 42 43
ENDBRANCH 41 42
ENDBRANCH 37 41
ENDBRANCH 35 37
ENDBRANCH 29 33
ENDBRANCH 3 29
TORSDOF 19
ENDMDL
MODEL 19
USER: ADFR SOLUTION from run 152
USER: SCORE 14.445738 LL:  -2.651 LR: -13.277 RR:   0.000 FEB:  -7.609
USER: RMSD 7.258008
USER: SEED 151
USER: STATUS no improvement in best in 21 clusters for 5 generations
USER: GENES 21
USER: genes 0 Translation |==|  0.38591 0.51807 0.49785
USER: genes 1 Rotation |==|  0.80655 0.49109 0.11050 0.56509
USER: genes 2 Torsion [N]-C--CA-[N] |==|  0.00271
USER: genes 3 Torsion [C]-CA--N-[C] |==|  0.70022
USER: genes 4 Torsion [N]-C--CA-[N] |==|  0.42778
USER: genes 5 Torsion [C]-CA--N-[C] |==|  0.55663
USER: genes 6 Torsion [N]-C--CA-[N] |==|  0.38454
USER: genes 7 Torsion [N]-C--CA-[N] |==|  0.18611
USER: genes 8 Torsion [C]-CA--CB-[CG] |==|  0.83183
USER: genes 9 Torsion [CA]-CB--CG-[CD] |==|  0.42003
USER: genes 10 Torsion [CB]-CG--CD-[OE2] |==|  0.40303
USER: genes 11 Torsion [C]-N--CA-[CB] |==|  0.24094
USER: genes 12 Torsion [N]-CA--CB-[OG] |==|  0.63454
USER: genes 13 Torsion [CA]-CB--OG-[HG] |==|  0.21233
USER: genes 14 Torsion [N]-CA--C-[N] |==|  0.39575
USER: genes 15 Torsion [C]-N--CA-[CB] |==|  0.82548
USER: genes 16 Torsion [N]-CA--C-[OXT] |==|  0.03921
USER: genes 17 Torsion [N]-CA--CB-[CG] |==|  0.72003
USER: genes 18 Torsion [CA]-CB--CG-[CD] |==|  0.89095
USER: genes 19 Torsion [CB]-CG--CD-[NE] |==|  0.27690
USER: genes 20 Torsion [CG]-CD--NE-[HE] |==|  0.74643
ROOT
ATOM      1  C   GLY B 361      35.464 -12.673  -9.441  1.00 26.32 LIG 0.24  C 
ATOM      2 O    GLY B 361      34.823 -11.662  -9.729  1.00 25.16 LIG-0.27  OA
ATOM      3  N   SER B 362      36.717 -12.870  -9.836  1.00 27.60 LIG-0.34  N 
ATOM      4 H    SER B 362      37.173 -13.577  -9.656  1.00 27.60 LIG 0.16  HD
ENDROOT
BRANCH 1 5
ATOM      5  CA  GLY B 361      34.827 -13.771  -8.608  1.00 24.90 LIG 0.23  C 
BRANCH 5 6
ATOM      6  N   GLY B 361      35.768 -14.856  -8.382  1.00 24.70 LIG-0.35  N 
ATOM      7  C   GLY B 360      35.621 -16.026  -8.997  1.00 25.98 LIG 0.23  C 
ATOM      8 O    GLY B 360      34.684 -16.277  -9.766  1.00 23.45 LIG-0.27  OA
ATOM      9 H    GLY B 361      36.404 -14.672  -7.833  1.00 24.70 LIG 0.16  HD
BRANCH 7 10
ATOM     10  CA  GLY B 360      36.669 -17.078  -8.701  1.00 26.97 LIG 0.23  C 
BRANCH 10 11
ATOM     11  N   GLY B 360      36.122 -18.405  -8.895  1.00 32.20 LIG-0.35  N 
ATOM     12  C   PRO B 359      36.688 -19.466  -8.331  1.00 35.92 LIG 0.24  C 
ATOM     13 O    PRO B 359      37.692 -19.396  -7.626  1.00 37.04 LIG-0.27  OA
ATOM     14 H    GLY B 360      35.421 -18.437  -9.393  1.00 32.20 LIG 0.16  HD
BRANCH 12 15
ATOM     15  CA  PRO B 359      36.020 -20.810  -8.607  1.00 39.21 LIG 0.18  C 
ATOM     16  CB  PRO B 359      35.246 -21.332  -7.398  1.00 38.88 LIG 0.04  C 
ATOM     17  CG  PRO B 359      36.278 -22.130  -6.667  1.00 39.81 LIG 0.02  C 
ATOM     18  CD  PRO B 359      36.938 -22.893  -7.794  1.00 41.55 LIG 0.13  C 
ATOM     19  N   PRO B 359      36.985 -21.883  -8.866  1.00 42.03 LIG-0.34  N 
ATOM     20  C   GLU B 358      37.827 -21.846  -9.909  1.00 44.90 LIG 0.26  C 
ATOM     21 O    GLU B 358      37.839 -20.906 -10.706  1.00 45.02 LIG-0.27  OA
BRANCH 20 22
ATOM     22  CA  GLU B 358      38.787 -23.023 -10.073  1.00 48.47 LIG 0.40  C 
ATOM     23  N   GLU B 358      38.030 -24.266 -10.407  1.00 49.88 LIG 0.61  N 
BRANCH 22 24
ATOM     24  CB  GLU B 358      39.799 -22.704 -11.180  1.00 52.00 LIG 0.06  C 
BRANCH 24 25
ATOM     25  CG  GLU B 358      39.187 -22.454 -12.555  1.00 56.00 LIG 0.12  C 
BRANCH 25 26
ATOM     26  CD  GLU B 358      40.022 -21.512 -13.407  1.00 58.41 LIG 0.17  C 
ATOM     27 OE1  GLU B 358      40.631 -20.578 -12.837  1.00 59.40 LIG-0.65  OA
ATOM     28 OE2  GLU B 358      40.069 -21.706 -14.641  1.00 59.45 LIG-0.65  OA
ENDBRANCH 25 26
ENDBRANCH 24 25
ENDBRANCH 22 24
ENDBRANCH 20 22
ENDBRANCH 12 15
ENDBRANCH 10 11
ENDBRANCH 7 10
ENDBRANCH 5 6
ENDBRANCH 1 5
BRANCH 3 29
ATOM     29  CA  SER B 362      37.433 -11.873 -10.627  1.00 31.63 LIG 0.20  C 
BRANCH 29 30
ATOM     30  CB  SER B 362      38.105 -10.845  -9.703  1.00 29.14 LIG 0.20  C 
BRANCH 30 31
ATOM     31 OG   SER B 362      37.835  -9.519 -10.119  1.00 25.13 LIG-0.40  OA
ATOM     32 HG   SER B 362      37.053  -9.309  -9.899  1.00 25.13 LIG 0.21  HD
ENDBRANCH 30 31
ENDBRANCH 29 30
BRANCH 29 33
ATOM     33  C   SER B 362      38.473 -12.415 -11.609  1.00 35.65 LIG 0.24  C 
ATOM     34 O    SER B 362      39.164 -13.384 -11.296  1.00 37.77 LIG-0.27  OA
ATOM     35  N   ARG B 363      38.591 -11.807 -12.787  1.00 40.10 LIG-0.34  N 
ATOM     36 H    ARG B 363      38.129 -11.123 -13.029  1.00 40.10 LIG 0.16  HD
BRANCH 35 37
ATOM     37  CA  ARG B 363      39.554 -12.283 -13.787  1.00 45.15 LIG 0.18  C 
BRANCH 37 38
ATOM     38  C   ARG B 363      39.303 -13.725 -14.224  1.00 46.43 LIG 0.20  C 
ATOM     39 O    ARG B 363      40.204 -14.313 -14.859  1.00 47.78 LIG-0.65  OA
ATOM     40 OXT  ARG B 363      38.208 -14.252 -13.929  1.00 47.46 LIG-0.65  OA
ENDBRANCH 37 38
BRANCH 37 41
ATOM     41  CB  ARG B 363      40.986 -12.160 -13.256  1.00 48.51 LIG 0.04  C 
BRANCH 41 42
ATOM     42  CG  ARG B 363      41.746 -10.954 -13.777  1.00 53.09 LIG 0.02  C 
BRANCH 42 43
ATOM     43  CD  ARG B 363      41.441 -10.707 -15.245  1.00 56.16 LIG 0.14  C 
BRANCH 43 44
ATOM     44  NE  ARG B 363      40.452  -9.647 -15.427  1.00 60.73 LIG-0.23  N 
ATOM     45 HE   ARG B 363      39.623  -9.872 -15.465  1.00 60.73 LIG 0.18  HD
ATOM     46  CZ  ARG B 363      40.751  -8.354 -15.538  1.00 63.15 LIG 0.67  C 
ATOM     47  NH2 ARG B 363      39.785  -7.455 -15.695  1.00 63.96 LIG-0.23  N 
ATOM     48  NH1 ARG B 363      42.017  -7.957 -15.489  1.00 63.92 LIG-0.23  N 
ATOM     49 1HH2 ARG B 363      38.963  -7.707 -15.726  1.00 63.96 LIG 0.17  HD
ATOM     50 2HH2 ARG B 363      39.982  -6.621 -15.766  1.00 63.96 LIG 0.17  HD
ATOM     51 1HH1 ARG B 363      42.646  -8.535 -15.387  1.00 63.92 LIG 0.17  HD
ATOM     52 2HH1 ARG B 363      42.209  -7.122 -15.560  1.00 63.92 LIG 0.17  HD
ENDBRANCH 43 44
ENDBRANCH 42 43
ENDBRANCH 41 42
ENDBRANCH 37 41
ENDBRANCH 35 37
ENDBRANCH 29 33
ENDBRANCH 3 29
TORSDOF 19
ENDMDL
MODEL 20
USER: ADFR SOLUTION from run 164
USER: SCORE 15.860553 LL:  -3.945 LR: -13.230 RR:   0.000 FEB:  -7.562
USER: RMSD 4.642106
USER: SEED 163
USER: STATUS no improvement in best in 19 clusters for 5 generations
USER: GENES 21
USER: genes 0 Translation |==|  0.49908 0.65233 0.47006
USER: genes 1 Rotation |==|  0.37303 0.31229 0.90644 0.68289
USER: genes 2 Torsion [N]-C--CA-[N] |==|  0.49034
USER: genes 3 Torsion [C]-CA--N-[C] |==|  0.42535
USER: genes 4 Torsion [N]-C--CA-[N] |==|  0.49375
USER: genes 5 Torsion [C]-CA--N-[C] |==|  0.57400
USER: genes 6 Torsion [N]-C--CA-[N] |==|  0.26240
USER: genes 7 Torsion [N]-C--CA-[N] |==|  0.24625
USER: genes 8 Torsion [C]-CA--CB-[CG] |==|  0.71585
USER: genes 9 Torsion [CA]-CB--CG-[CD] |==|  0.15064
USER: genes 10 Torsion [CB]-CG--CD-[OE2] |==|  0.68871
USER: genes 11 Torsion [C]-N--CA-[CB] |==|  0.16142
USER: genes 12 Torsion [N]-CA--CB-[OG] |==|  0.71595
USER: genes 13 Torsion [CA]-CB--OG-[HG] |==|  0.67118
USER: genes 14 Torsion [N]-CA--C-[N] |==|  0.82839
USER: genes 15 Torsion [C]-N--CA-[CB] |==|  0.13840
USER: genes 16 Torsion [N]-CA--C-[OXT] |==|  0.28174
USER: genes 17 Torsion [N]-CA--CB-[CG] |==|  0.59799
USER: genes 18 Torsion [CA]-CB--CG-[CD] |==|  0.97833
USER: genes 19 Torsion [CB]-CG--CD-[NE] |==|  0.24765
USER: genes 20 Torsion [CG]-CD--NE-[HE] |==|  0.16761
ROOT
ATOM      1  C   GLY B 361      38.180  -9.653 -10.087  1.00 26.32 LIG 0.24  C 
ATOM      2 O    GLY B 361      38.250  -9.166  -8.959  1.00 25.16 LIG-0.27  OA
ATOM      3  N   SER B 362      38.827  -9.147 -11.132  1.00 27.60 LIG-0.34  N 
ATOM      4 H    SER B 362      38.777  -9.466 -11.929  1.00 27.60 LIG 0.16  HD
ENDROOT
BRANCH 1 5
ATOM      5  CA  GLY B 361      37.321 -10.878 -10.340  1.00 24.90 LIG 0.23  C 
BRANCH 5 6
ATOM      6  N   GLY B 361      36.743 -11.366  -9.100  1.00 24.70 LIG-0.35  N 
ATOM      7  C   GLY B 360      35.596 -12.042  -9.099  1.00 25.98 LIG 0.23  C 
ATOM      8 O    GLY B 360      34.945 -12.275 -10.126  1.00 23.45 LIG-0.27  OA
ATOM      9 H    GLY B 361      37.198 -11.182  -8.394  1.00 24.70 LIG 0.16  HD
BRANCH 7 10
ATOM     10  CA  GLY B 360      35.096 -12.518  -7.752  1.00 26.97 LIG 0.23  C 
BRANCH 10 11
ATOM     11  N   GLY B 360      33.820 -13.188  -7.896  1.00 32.20 LIG-0.35  N 
ATOM     12  C   PRO B 359      32.951 -13.226  -6.891  1.00 35.92 LIG 0.24  C 
ATOM     13 O    PRO B 359      33.168 -12.709  -5.798  1.00 37.04 LIG-0.27  OA
ATOM     14 H    GLY B 360      33.685 -13.546  -8.666  1.00 32.20 LIG 0.16  HD
BRANCH 12 15
ATOM     15  CA  PRO B 359      31.641 -13.958  -7.163  1.00 39.21 LIG 0.18  C 
ATOM     16  CB  PRO B 359      30.477 -13.382  -6.362  1.00 38.88 LIG 0.04  C 
ATOM     17  CG  PRO B 359      30.521 -14.177  -5.097  1.00 39.81 LIG 0.02  C 
ATOM     18  CD  PRO B 359      30.732 -15.582  -5.619  1.00 41.55 LIG 0.13  C 
ATOM     19  N   PRO B 359      31.674 -15.360  -6.731  1.00 42.03 LIG-0.34  N 
ATOM     20  C   GLU B 358      32.528 -16.248  -7.259  1.00 44.90 LIG 0.26  C 
ATOM     21 O    GLU B 358      33.337 -15.935  -8.135  1.00 45.02 LIG-0.27  OA
BRANCH 20 22
ATOM     22  CA  GLU B 358      32.466 -17.678  -6.726  1.00 48.47 LIG 0.40  C 
ATOM     23  N   GLU B 358      31.477 -18.479  -7.507  1.00 49.88 LIG 0.61  N 
BRANCH 22 24
ATOM     24  CB  GLU B 358      33.857 -18.317  -6.818  1.00 52.00 LIG 0.06  C 
BRANCH 24 25
ATOM     25  CG  GLU B 358      34.042 -19.284  -7.985  1.00 56.00 LIG 0.12  C 
BRANCH 25 26
ATOM     26  CD  GLU B 358      33.691 -18.659  -9.325  1.00 58.41 LIG 0.17  C 
ATOM     27 OE1  GLU B 358      34.427 -17.747  -9.766  1.00 59.40 LIG-0.65  OA
ATOM     28 OE2  GLU B 358      32.684 -19.080  -9.935  1.00 59.45 LIG-0.65  OA
ENDBRANCH 25 26
ENDBRANCH 24 25
ENDBRANCH 22 24
ENDBRANCH 20 22
ENDBRANCH 12 15
ENDBRANCH 10 11
ENDBRANCH 7 10
ENDBRANCH 5 6
ENDBRANCH 1 5
BRANCH 3 29
ATOM     29  CA  SER B 362      39.695  -7.981 -11.000  1.00 31.63 LIG 0.20  C 
BRANCH 29 30
ATOM     30  CB  SER B 362      40.804  -8.258  -9.974  1.00 29.14 LIG 0.20  C 
BRANCH 30 31
ATOM     31 OG   SER B 362      40.527  -7.640  -8.730  1.00 25.13 LIG-0.40  OA
ATOM     32 HG   SER B 362      41.130  -7.083  -8.553  1.00 25.13 LIG 0.21  HD
ENDBRANCH 30 31
ENDBRANCH 29 30
BRANCH 29 33
ATOM     33  C   SER B 362      40.330  -7.466 -12.294  1.00 35.65 LIG 0.24  C 
ATOM     34 O    SER B 362      40.077  -6.329 -12.690  1.00 37.77 LIG-0.27  OA
ATOM     35  N   ARG B 363      41.146  -8.285 -12.953  1.00 40.10 LIG-0.34  N 
ATOM     36 H    ARG B 363      41.333  -9.087 -12.705  1.00 40.10 LIG 0.16  HD
BRANCH 35 37
ATOM     37  CA  ARG B 363      41.805  -7.854 -14.191  1.00 45.15 LIG 0.18  C 
BRANCH 37 38
ATOM     38  C   ARG B 363      42.836  -8.859 -14.703  1.00 46.43 LIG 0.20  C 
ATOM     39 O    ARG B 363      43.958  -8.882 -14.154  1.00 47.78 LIG-0.65  OA
ATOM     40 OXT  ARG B 363      42.514  -9.609 -15.649  1.00 47.46 LIG-0.65  OA
ENDBRANCH 37 38
BRANCH 37 41
ATOM     41  CB  ARG B 363      42.482  -6.493 -13.996  1.00 48.51 LIG 0.04  C 
BRANCH 41 42
ATOM     42  CG  ARG B 363      42.442  -5.593 -15.217  1.00 53.09 LIG 0.02  C 
BRANCH 42 43
ATOM     43  CD  ARG B 363      41.897  -6.333 -16.426  1.00 56.16 LIG 0.14  C 
BRANCH 43 44
ATOM     44  NE  ARG B 363      40.442  -6.227 -16.522  1.00 60.73 LIG-0.23  N 
ATOM     45 HE   ARG B 363      40.100  -5.442 -16.600  1.00 60.73 LIG 0.18  HD
ATOM     46  CZ  ARG B 363      39.612  -7.268 -16.497  1.00 63.15 LIG 0.67  C 
ATOM     47  NH2 ARG B 363      38.301  -7.080 -16.596  1.00 63.96 LIG-0.23  N 
ATOM     48  NH1 ARG B 363      40.093  -8.500 -16.374  1.00 63.92 LIG-0.23  N 
ATOM     49 1HH2 ARG B 363      37.985  -6.284 -16.677  1.00 63.96 LIG 0.17  HD
ATOM     50 2HH2 ARG B 363      37.768  -7.755 -16.579  1.00 63.96 LIG 0.17  HD
ATOM     51 1HH1 ARG B 363      40.941  -8.627 -16.310  1.00 63.92 LIG 0.17  HD
ATOM     52 2HH1 ARG B 363      39.555  -9.171 -16.359  1.00 63.92 LIG 0.17  HD
ENDBRANCH 43 44
ENDBRANCH 42 43
ENDBRANCH 41 42
ENDBRANCH 37 41
ENDBRANCH 35 37
ENDBRANCH 29 33
ENDBRANCH 3 29
TORSDOF 19
ENDMDL
MODEL 21
USER: ADFR SOLUTION from run 78
USER: SCORE 15.647539 LL:  -3.845 LR: -13.226 RR:   0.000 FEB:  -7.558
USER: RMSD 7.921711
USER: SEED 77
USER: STATUS no improvement in best in 10 clusters for 5 generations
USER: GENES 21
USER: genes 0 Translation |==|  0.27852 0.47085 0.61410
USER: genes 1 Rotation |==|  0.28008 0.40784 0.89865 0.68498
USER: genes 2 Torsion [N]-C--CA-[N] |==|  0.60310
USER: genes 3 Torsion [C]-CA--N-[C] |==|  0.18101
USER: genes 4 Torsion [N]-C--CA-[N] |==|  0.12222
USER: genes 5 Torsion [C]-CA--N-[C] |==|  0.27487
USER: genes 6 Torsion [N]-C--CA-[N] |==|  0.45482
USER: genes 7 Torsion [N]-C--CA-[N] |==|  0.20060
USER: genes 8 Torsion [C]-CA--CB-[CG] |==|  0.54514
USER: genes 9 Torsion [CA]-CB--CG-[CD] |==|  0.77089
USER: genes 10 Torsion [CB]-CG--CD-[OE2] |==|  0.66230
USER: genes 11 Torsion [C]-N--CA-[CB] |==|  0.19941
USER: genes 12 Torsion [N]-CA--CB-[OG] |==|  0.78765
USER: genes 13 Torsion [CA]-CB--OG-[HG] |==|  0.07651
USER: genes 14 Torsion [N]-CA--C-[N] |==|  0.78897
USER: genes 15 Torsion [C]-N--CA-[CB] |==|  0.20438
USER: genes 16 Torsion [N]-CA--C-[OXT] |==|  0.51854
USER: genes 17 Torsion [N]-CA--CB-[CG] |==|  0.67424
USER: genes 18 Torsion [CA]-CB--CG-[CD] |==|  0.79395
USER: genes 19 Torsion [CB]-CG--CD-[NE] |==|  0.54864
USER: genes 20 Torsion [CG]-CD--NE-[HE] |==|  0.96110
ROOT
ATOM      1  C   GLY B 361      32.886 -13.736  -6.738  1.00 26.32 LIG 0.24  C 
ATOM      2 O    GLY B 361      32.971 -12.830  -5.909  1.00 25.16 LIG-0.27  OA
ATOM      3  N   SER B 362      33.757 -13.888  -7.731  1.00 27.60 LIG-0.34  N 
ATOM      4 H    SER B 362      33.704 -14.506  -8.327  1.00 27.60 LIG 0.16  HD
ENDROOT
BRANCH 1 5
ATOM      5  CA  GLY B 361      31.748 -14.738  -6.664  1.00 24.90 LIG 0.23  C 
BRANCH 5 6
ATOM      6  N   GLY B 361      30.520 -14.090  -6.235  1.00 24.70 LIG-0.35  N 
ATOM      7  C   GLY B 360      29.934 -13.167  -6.993  1.00 25.98 LIG 0.23  C 
ATOM      8 O    GLY B 360      30.395 -12.785  -8.077  1.00 23.45 LIG-0.27  OA
ATOM      9 H    GLY B 361      30.222 -14.354  -5.473  1.00 24.70 LIG 0.16  HD
BRANCH 7 10
ATOM     10  CA  GLY B 360      28.650 -12.572  -6.455  1.00 26.97 LIG 0.23  C 
BRANCH 10 11
ATOM     11  N   GLY B 360      28.786 -12.266  -5.045  1.00 32.20 LIG-0.35  N 
ATOM     12  C   PRO B 359      29.053 -11.031  -4.637  1.00 35.92 LIG 0.24  C 
ATOM     13 O    PRO B 359      29.203 -10.087  -5.409  1.00 37.04 LIG-0.27  OA
ATOM     14 H    GLY B 360      28.681 -12.938  -4.519  1.00 32.20 LIG 0.16  HD
BRANCH 12 15
ATOM     15  CA  PRO B 359      29.171 -10.832  -3.129  1.00 39.21 LIG 0.18  C 
ATOM     16  CB  PRO B 359      27.808 -10.712  -2.452  1.00 38.88 LIG 0.04  C 
ATOM     17  CG  PRO B 359      27.543  -9.241  -2.505  1.00 39.81 LIG 0.02  C 
ATOM     18  CD  PRO B 359      28.881  -8.668  -2.091  1.00 41.55 LIG 0.13  C 
ATOM     19  N   PRO B 359      29.827  -9.571  -2.771  1.00 42.03 LIG-0.34  N 
ATOM     20  C   GLU B 358      31.094  -9.303  -3.120  1.00 44.90 LIG 0.26  C 
ATOM     21 O    GLU B 358      31.776 -10.102  -3.765  1.00 45.02 LIG-0.27  OA
BRANCH 20 22
ATOM     22  CA  GLU B 358      31.667  -7.954  -2.689  1.00 48.47 LIG 0.40  C 
ATOM     23  N   GLU B 358      31.918  -7.945  -1.217  1.00 49.88 LIG 0.61  N 
BRANCH 22 24
ATOM     24  CB  GLU B 358      32.970  -7.686  -3.452  1.00 52.00 LIG 0.06  C 
BRANCH 24 25
ATOM     25  CG  GLU B 358      33.845  -6.587  -2.858  1.00 56.00 LIG 0.12  C 
BRANCH 25 26
ATOM     26  CD  GLU B 358      33.405  -5.194  -3.280  1.00 58.41 LIG 0.17  C 
ATOM     27 OE1  GLU B 358      32.238  -4.832  -3.008  1.00 59.40 LIG-0.65  OA
ATOM     28 OE2  GLU B 358      34.224  -4.465  -3.881  1.00 59.45 LIG-0.65  OA
ENDBRANCH 25 26
ENDBRANCH 24 25
ENDBRANCH 22 24
ENDBRANCH 20 22
ENDBRANCH 12 15
ENDBRANCH 10 11
ENDBRANCH 7 10
ENDBRANCH 5 6
ENDBRANCH 1 5
BRANCH 3 29
ATOM     29  CA  SER B 362      34.899 -12.993  -7.887  1.00 31.63 LIG 0.20  C 
BRANCH 29 30
ATOM     30  CB  SER B 362      35.940 -13.263  -6.790  1.00 29.14 LIG 0.20  C 
BRANCH 30 31
ATOM     31 OG   SER B 362      35.539 -12.715  -5.548  1.00 25.13 LIG-0.40  OA
ATOM     32 HG   SER B 362      34.700 -12.680  -5.514  1.00 25.13 LIG 0.21  HD
ENDBRANCH 30 31
ENDBRANCH 29 30
BRANCH 29 33
ATOM     33  C   SER B 362      35.593 -13.022  -9.251  1.00 35.65 LIG 0.24  C 
ATOM     34 O    SER B 362      35.407 -12.107 -10.052  1.00 37.77 LIG-0.27  OA
ATOM     35  N   ARG B 363      36.386 -14.055  -9.522  1.00 40.10 LIG-0.34  N 
ATOM     36 H    ARG B 363      36.527 -14.713  -8.986  1.00 40.10 LIG 0.16  HD
BRANCH 35 37
ATOM     37  CA  ARG B 363      37.098 -14.142 -10.802  1.00 45.15 LIG 0.18  C 
BRANCH 37 38
ATOM     38  C   ARG B 363      37.627 -15.544 -11.101  1.00 46.43 LIG 0.20  C 
ATOM     39 O    ARG B 363      37.307 -16.471 -10.326  1.00 47.78 LIG-0.65  OA
ATOM     40 OXT  ARG B 363      38.357 -15.701 -12.103  1.00 47.46 LIG-0.65  OA
ENDBRANCH 37 38
BRANCH 37 41
ATOM     41  CB  ARG B 363      38.263 -13.146 -10.839  1.00 48.51 LIG 0.04  C 
BRANCH 41 42
ATOM     42  CG  ARG B 363      38.141 -12.079 -11.911  1.00 53.09 LIG 0.02  C 
BRANCH 42 43
ATOM     43  CD  ARG B 363      38.423 -12.653 -13.289  1.00 56.16 LIG 0.14  C 
BRANCH 43 44
ATOM     44  NE  ARG B 363      38.716 -11.608 -14.267  1.00 60.73 LIG-0.23  N 
ATOM     45 HE   ARG B 363      38.530 -10.796 -14.056  1.00 60.73 LIG 0.18  HD
ATOM     46  CZ  ARG B 363      39.252 -11.833 -15.465  1.00 63.15 LIG 0.67  C 
ATOM     47  NH2 ARG B 363      39.491 -10.820 -16.292  1.00 63.96 LIG-0.23  N 
ATOM     48  NH1 ARG B 363      39.553 -13.071 -15.839  1.00 63.92 LIG-0.23  N 
ATOM     49 1HH2 ARG B 363      39.299 -10.016 -16.054  1.00 63.96 LIG 0.17  HD
ATOM     50 2HH2 ARG B 363      39.838 -10.969 -17.064  1.00 63.96 LIG 0.17  HD
ATOM     51 1HH1 ARG B 363      39.400 -13.730 -15.307  1.00 63.92 LIG 0.17  HD
ATOM     52 2HH1 ARG B 363      39.900 -13.215 -16.612  1.00 63.92 LIG 0.17  HD
ENDBRANCH 43 44
ENDBRANCH 42 43
ENDBRANCH 41 42
ENDBRANCH 37 41
ENDBRANCH 35 37
ENDBRANCH 29 33
ENDBRANCH 3 29
TORSDOF 19
ENDMDL
MODEL 22
USER: ADFR SOLUTION from run 108
USER: SCORE 15.392642 LL:  -4.329 LR: -13.223 RR:   0.000 FEB:  -7.555
USER: RMSD 12.433809
USER: SEED 107
USER: STATUS no improvement in best in 11 clusters for 5 generations
USER: GENES 21
USER: genes 0 Translation |==|  0.44073 0.56641 0.48705
USER: genes 1 Rotation |==|  0.66704 0.91359 0.72412 0.52851
USER: genes 2 Torsion [N]-C--CA-[N] |==|  0.56422
USER: genes 3 Torsion [C]-CA--N-[C] |==|  0.40021
USER: genes 4 Torsion [N]-C--CA-[N] |==|  0.81781
USER: genes 5 Torsion [C]-CA--N-[C] |==|  0.65828
USER: genes 6 Torsion [N]-C--CA-[N] |==|  0.02158
USER: genes 7 Torsion [N]-C--CA-[N] |==|  0.31993
USER: genes 8 Torsion [C]-CA--CB-[CG] |==|  0.49183
USER: genes 9 Torsion [CA]-CB--CG-[CD] |==|  0.22080
USER: genes 10 Torsion [CB]-CG--CD-[OE2] |==|  0.26333
USER: genes 11 Torsion [C]-N--CA-[CB] |==|  0.26560
USER: genes 12 Torsion [N]-CA--CB-[OG] |==|  0.48966
USER: genes 13 Torsion [CA]-CB--OG-[HG] |==|  0.99772
USER: genes 14 Torsion [N]-CA--C-[N] |==|  0.39513
USER: genes 15 Torsion [C]-N--CA-[CB] |==|  0.48165
USER: genes 16 Torsion [N]-CA--C-[OXT] |==|  0.88532
USER: genes 17 Torsion [N]-CA--CB-[CG] |==|  0.64728
USER: genes 18 Torsion [CA]-CB--CG-[CD] |==|  0.79255
USER: genes 19 Torsion [CB]-CG--CD-[NE] |==|  0.20732
USER: genes 20 Torsion [CG]-CD--NE-[HE] |==|  0.73286
ROOT
ATOM      1  C   GLY B 361      36.780 -11.586  -9.692  1.00 26.32 LIG 0.24  C 
ATOM      2 O    GLY B 361      36.224 -11.616 -10.790  1.00 25.16 LIG-0.27  OA
ATOM      3  N   SER B 362      36.333 -12.263  -8.639  1.00 27.60 LIG-0.34  N 
ATOM      4 H    SER B 362      36.700 -12.241  -7.862  1.00 27.60 LIG 0.16  HD
ENDROOT
BRANCH 1 5
ATOM      5  CA  GLY B 361      38.026 -10.743  -9.487  1.00 24.90 LIG 0.23  C 
BRANCH 5 6
ATOM      6  N   GLY B 361      38.095  -9.679 -10.474  1.00 24.70 LIG-0.35  N 
ATOM      7  C   GLY B 360      38.581  -8.482 -10.155  1.00 25.98 LIG 0.23  C 
ATOM      8 O    GLY B 360      38.976  -8.190  -9.018  1.00 23.45 LIG-0.27  OA
ATOM      9 H    GLY B 361      37.802  -9.892 -11.254  1.00 24.70 LIG 0.16  HD
BRANCH 7 10
ATOM     10  CA  GLY B 360      38.623  -7.455 -11.266  1.00 26.97 LIG 0.23  C 
BRANCH 10 11
ATOM     11  N   GLY B 360      39.551  -7.866 -12.300  1.00 32.20 LIG-0.35  N 
ATOM     12  C   PRO B 359      40.565  -7.085 -12.657  1.00 35.92 LIG 0.24  C 
ATOM     13 O    PRO B 359      40.777  -5.987 -12.150  1.00 37.04 LIG-0.27  OA
ATOM     14 H    GLY B 360      39.387  -8.637 -12.645  1.00 32.20 LIG 0.16  HD
BRANCH 12 15
ATOM     15  CA  PRO B 359      41.475  -7.627 -13.754  1.00 39.21 LIG 0.18  C 
ATOM     16  CB  PRO B 359      41.577  -6.678 -14.946  1.00 38.88 LIG 0.04  C 
ATOM     17  CG  PRO B 359      40.452  -7.128 -15.822  1.00 39.81 LIG 0.02  C 
ATOM     18  CD  PRO B 359      40.600  -8.634 -15.771  1.00 41.55 LIG 0.13  C 
ATOM     19  N   PRO B 359      40.963  -8.861 -14.361  1.00 42.03 LIG-0.34  N 
ATOM     20  C   GLU B 358      40.792  -9.985 -13.651  1.00 44.90 LIG 0.26  C 
ATOM     21 O    GLU B 358      41.053 -10.044 -12.448  1.00 45.02 LIG-0.27  OA
BRANCH 20 22
ATOM     22  CA  GLU B 358      40.251 -11.205 -14.395  1.00 48.47 LIG 0.40  C 
ATOM     23  N   GLU B 358      41.275 -12.292 -14.421  1.00 49.88 LIG 0.61  N 
BRANCH 22 24
ATOM     24  CB  GLU B 358      38.973 -11.697 -13.705  1.00 52.00 LIG 0.06  C 
BRANCH 24 25
ATOM     25  CG  GLU B 358      38.287 -12.875 -14.392  1.00 56.00 LIG 0.12  C 
BRANCH 25 26
ATOM     26  CD  GLU B 358      38.952 -14.205 -14.078  1.00 58.41 LIG 0.17  C 
ATOM     27 OE1  GLU B 358      39.933 -14.557 -14.772  1.00 59.40 LIG-0.65  OA
ATOM     28 OE2  GLU B 358      38.495 -14.895 -13.141  1.00 59.45 LIG-0.65  OA
ENDBRANCH 25 26
ENDBRANCH 24 25
ENDBRANCH 22 24
ENDBRANCH 20 22
ENDBRANCH 12 15
ENDBRANCH 10 11
ENDBRANCH 7 10
ENDBRANCH 5 6
ENDBRANCH 1 5
BRANCH 3 29
ATOM     29  CA  SER B 362      35.153 -13.118  -8.728  1.00 31.63 LIG 0.20  C 
BRANCH 29 30
ATOM     30  CB  SER B 362      35.571 -14.574  -8.986  1.00 29.14 LIG 0.20  C 
BRANCH 30 31
ATOM     31 OG   SER B 362      34.452 -15.442  -8.992  1.00 25.13 LIG-0.40  OA
ATOM     32 HG   SER B 362      33.754 -15.000  -8.842  1.00 25.13 LIG 0.21  HD
ENDBRANCH 30 31
ENDBRANCH 29 30
BRANCH 29 33
ATOM     33  C   SER B 362      34.203 -13.077  -7.530  1.00 35.65 LIG 0.24  C 
ATOM     34 O    SER B 362      34.658 -12.986  -6.390  1.00 37.77 LIG-0.27  OA
ATOM     35  N   ARG B 363      32.895 -13.141  -7.771  1.00 40.10 LIG-0.34  N 
ATOM     36 H    ARG B 363      32.550 -13.215  -8.555  1.00 40.10 LIG 0.16  HD
BRANCH 35 37
ATOM     37  CA  ARG B 363      31.924 -13.088  -6.673  1.00 45.15 LIG 0.18  C 
BRANCH 37 38
ATOM     38  C   ARG B 363      32.034 -14.274  -5.717  1.00 46.43 LIG 0.20  C 
ATOM     39 O    ARG B 363      31.934 -14.052  -4.491  1.00 47.78 LIG-0.65  OA
ATOM     40 OXT  ARG B 363      32.222 -15.412  -6.200  1.00 47.46 LIG-0.65  OA
ENDBRANCH 37 38
BRANCH 37 41
ATOM     41  CB  ARG B 363      30.494 -13.016  -7.222  1.00 48.51 LIG 0.04  C 
BRANCH 41 42
ATOM     42  CG  ARG B 363      29.670 -11.866  -6.672  1.00 53.09 LIG 0.02  C 
BRANCH 42 43
ATOM     43  CD  ARG B 363      29.231 -12.141  -5.244  1.00 56.16 LIG 0.14  C 
BRANCH 43 44
ATOM     44  NE  ARG B 363      30.331 -11.988  -4.295  1.00 60.73 LIG-0.23  N 
ATOM     45 HE   ARG B 363      30.760 -12.695  -4.059  1.00 60.73 LIG 0.18  HD
ATOM     46  CZ  ARG B 363      30.713 -10.824  -3.772  1.00 63.15 LIG 0.67  C 
ATOM     47  NH2 ARG B 363      31.730 -10.776  -2.919  1.00 63.96 LIG-0.23  N 
ATOM     48  NH1 ARG B 363      30.079  -9.705  -4.104  1.00 63.92 LIG-0.23  N 
ATOM     49 1HH2 ARG B 363      32.145 -11.498  -2.702  1.00 63.96 LIG 0.17  HD
ATOM     50 2HH2 ARG B 363      31.974 -10.023  -2.583  1.00 63.96 LIG 0.17  HD
ATOM     51 1HH1 ARG B 363      29.420  -9.731  -4.656  1.00 63.92 LIG 0.17  HD
ATOM     52 2HH1 ARG B 363      30.327  -8.954  -3.766  1.00 63.92 LIG 0.17  HD
ENDBRANCH 43 44
ENDBRANCH 42 43
ENDBRANCH 41 42
ENDBRANCH 37 41
ENDBRANCH 35 37
ENDBRANCH 29 33
ENDBRANCH 3 29
TORSDOF 19
ENDMDL
MODEL 23
USER: ADFR SOLUTION from run 117
USER: SCORE 15.449904 LL:  -4.125 LR: -13.209 RR:   0.000 FEB:  -7.542
USER: RMSD 5.989014
USER: SEED 116
USER: STATUS no improvement in best in 10 clusters for 5 generations
USER: GENES 21
USER: genes 0 Translation |==|  0.53426 0.71106 0.43805
USER: genes 1 Rotation |==|  0.73713 0.52039 0.06967 0.59041
USER: genes 2 Torsion [N]-C--CA-[N] |==|  0.62502
USER: genes 3 Torsion [C]-CA--N-[C] |==|  0.39480
USER: genes 4 Torsion [N]-C--CA-[N] |==|  0.62183
USER: genes 5 Torsion [C]-CA--N-[C] |==|  0.72400
USER: genes 6 Torsion [N]-C--CA-[N] |==|  0.23383
USER: genes 7 Torsion [N]-C--CA-[N] |==|  0.28752
USER: genes 8 Torsion [C]-CA--CB-[CG] |==|  0.58799
USER: genes 9 Torsion [CA]-CB--CG-[CD] |==|  0.24922
USER: genes 10 Torsion [CB]-CG--CD-[OE2] |==|  0.85710
USER: genes 11 Torsion [C]-N--CA-[CB] |==|  0.26096
USER: genes 12 Torsion [N]-CA--CB-[OG] |==|  0.57734
USER: genes 13 Torsion [CA]-CB--OG-[HG] |==|  0.91478
USER: genes 14 Torsion [N]-CA--C-[N] |==|  0.43105
USER: genes 15 Torsion [C]-N--CA-[CB] |==|  0.29808
USER: genes 16 Torsion [N]-CA--C-[OXT] |==|  0.45350
USER: genes 17 Torsion [N]-CA--CB-[CG] |==|  0.58031
USER: genes 18 Torsion [CA]-CB--CG-[CD] |==|  0.73901
USER: genes 19 Torsion [CB]-CG--CD-[NE] |==|  0.90022
USER: genes 20 Torsion [CG]-CD--NE-[HE] |==|  0.85054
ROOT
ATOM      1  C   GLY B 361      39.024  -8.331 -10.831  1.00 26.32 LIG 0.24  C 
ATOM      2 O    GLY B 361      38.205  -7.413 -10.876  1.00 25.16 LIG-0.27  OA
ATOM      3  N   SER B 362      40.093  -8.384 -11.619  1.00 27.60 LIG-0.34  N 
ATOM      4 H    SER B 362      40.666  -9.024 -11.611  1.00 27.60 LIG 0.16  HD
ENDROOT
BRANCH 1 5
ATOM      5  CA  GLY B 361      38.837  -9.478  -9.854  1.00 24.90 LIG 0.23  C 
BRANCH 5 6
ATOM      6  N   GLY B 361      37.458  -9.935  -9.857  1.00 24.70 LIG-0.35  N 
ATOM      7  C   GLY B 360      37.167 -11.229  -9.745  1.00 25.98 LIG 0.23  C 
ATOM      8 O    GLY B 360      38.029 -12.114  -9.658  1.00 23.45 LIG-0.27  OA
ATOM      9 H    GLY B 361      36.871  -9.311  -9.934  1.00 24.70 LIG 0.16  HD
BRANCH 7 10
ATOM     10  CA  GLY B 360      35.697 -11.590  -9.742  1.00 26.97 LIG 0.23  C 
BRANCH 10 11
ATOM     11  N   GLY B 360      35.421 -12.572  -8.713  1.00 32.20 LIG-0.35  N 
ATOM     12  C   PRO B 359      35.313 -13.862  -9.012  1.00 35.92 LIG 0.24  C 
ATOM     13 O    PRO B 359      35.435 -14.299 -10.153  1.00 37.04 LIG-0.27  OA
ATOM     14 H    GLY B 360      35.337 -12.250  -7.920  1.00 32.20 LIG 0.16  HD
BRANCH 12 15
ATOM     15  CA  PRO B 359      35.023 -14.800  -7.844  1.00 39.21 LIG 0.18  C 
ATOM     16  CB  PRO B 359      35.390 -16.248  -8.158  1.00 38.88 LIG 0.04  C 
ATOM     17  CG  PRO B 359      34.127 -16.787  -8.749  1.00 39.81 LIG 0.02  C 
ATOM     18  CD  PRO B 359      33.081 -16.239  -7.802  1.00 41.55 LIG 0.13  C 
ATOM     19  N   PRO B 359      33.594 -14.886  -7.525  1.00 42.03 LIG-0.34  N 
ATOM     20  C   GLU B 358      32.890 -13.819  -7.121  1.00 44.90 LIG 0.26  C 
ATOM     21 O    GLU B 358      33.404 -12.705  -6.999  1.00 45.02 LIG-0.27  OA
BRANCH 20 22
ATOM     22  CA  GLU B 358      31.408 -14.034  -6.819  1.00 48.47 LIG 0.40  C 
ATOM     23  N   GLU B 358      31.182 -14.078  -5.343  1.00 49.88 LIG 0.61  N 
BRANCH 22 24
ATOM     24  CB  GLU B 358      30.590 -12.900  -7.447  1.00 52.00 LIG 0.06  C 
BRANCH 24 25
ATOM     25  CG  GLU B 358      29.325 -12.522  -6.680  1.00 56.00 LIG 0.12  C 
BRANCH 25 26
ATOM     26  CD  GLU B 358      29.572 -11.442  -5.639  1.00 58.41 LIG 0.17  C 
ATOM     27 OE1  GLU B 358      28.830 -10.434  -5.642  1.00 59.40 LIG-0.65  OA
ATOM     28 OE2  GLU B 358      30.504 -11.602  -4.821  1.00 59.45 LIG-0.65  OA
ENDBRANCH 25 26
ENDBRANCH 24 25
ENDBRANCH 22 24
ENDBRANCH 20 22
ENDBRANCH 12 15
ENDBRANCH 10 11
ENDBRANCH 7 10
ENDBRANCH 5 6
ENDBRANCH 1 5
BRANCH 3 29
ATOM     29  CA  SER B 362      40.381  -7.326 -12.584  1.00 31.63 LIG 0.20  C 
BRANCH 29 30
ATOM     30  CB  SER B 362      41.335  -6.291 -11.969  1.00 29.14 LIG 0.20  C 
BRANCH 30 31
ATOM     31 OG   SER B 362      41.153  -5.011 -12.545  1.00 25.13 LIG-0.40  OA
ATOM     32 HG   SER B 362      40.905  -5.095 -13.343  1.00 25.13 LIG 0.21  HD
ENDBRANCH 30 31
ENDBRANCH 29 30
BRANCH 29 33
ATOM     33  C   SER B 362      40.943  -7.783 -13.932  1.00 35.65 LIG 0.24  C 
ATOM     34 O    SER B 362      41.544  -8.853 -14.014  1.00 37.77 LIG-0.27  OA
ATOM     35  N   ARG B 363      40.755  -6.990 -14.985  1.00 40.10 LIG-0.34  N 
ATOM     36 H    ARG B 363      40.347  -6.233 -14.955  1.00 40.10 LIG 0.16  HD
BRANCH 35 37
ATOM     37  CA  ARG B 363      41.249  -7.370 -16.312  1.00 45.15 LIG 0.18  C 
BRANCH 37 38
ATOM     38  C   ARG B 363      42.057  -6.266 -16.991  1.00 46.43 LIG 0.20  C 
ATOM     39 O    ARG B 363      41.952  -5.102 -16.548  1.00 47.78 LIG-0.65  OA
ATOM     40 OXT  ARG B 363      42.784  -6.573 -17.961  1.00 47.46 LIG-0.65  OA
ENDBRANCH 37 38
BRANCH 37 41
ATOM     41  CB  ARG B 363      40.086  -7.777 -17.224  1.00 48.51 LIG 0.04  C 
BRANCH 41 42
ATOM     42  CG  ARG B 363      40.452  -8.791 -18.292  1.00 53.09 LIG 0.02  C 
BRANCH 42 43
ATOM     43  CD  ARG B 363      40.820  -8.105 -19.596  1.00 56.16 LIG 0.14  C 
BRANCH 43 44
ATOM     44  NE  ARG B 363      40.011  -6.911 -19.833  1.00 60.73 LIG-0.23  N 
ATOM     45 HE   ARG B 363      39.155  -6.994 -19.808  1.00 60.73 LIG 0.18  HD
ATOM     46  CZ  ARG B 363      40.512  -5.704 -20.084  1.00 63.15 LIG 0.67  C 
ATOM     47  NH2 ARG B 363      39.701  -4.670 -20.282  1.00 63.96 LIG-0.23  N 
ATOM     48  NH1 ARG B 363      41.827  -5.527 -20.137  1.00 63.92 LIG-0.23  N 
ATOM     49 1HH2 ARG B 363      38.848  -4.779 -20.247  1.00 63.96 LIG 0.17  HD
ATOM     50 2HH2 ARG B 363      40.029  -3.892 -20.444  1.00 63.96 LIG 0.17  HD
ATOM     51 1HH1 ARG B 363      42.356  -6.193 -20.009  1.00 63.92 LIG 0.17  HD
ATOM     52 2HH1 ARG B 363      42.150  -4.747 -20.299  1.00 63.92 LIG 0.17  HD
ENDBRANCH 43 44
ENDBRANCH 42 43
ENDBRANCH 41 42
ENDBRANCH 37 41
ENDBRANCH 35 37
ENDBRANCH 29 33
ENDBRANCH 3 29
TORSDOF 19
ENDMDL
MODEL 24
USER: ADFR SOLUTION from run 132
USER: SCORE 16.155215 LL:  -3.587 LR: -13.189 RR:   0.000 FEB:  -7.522
USER: RMSD 4.456074
USER: SEED 131
USER: STATUS searching
USER: GENES 21
USER: genes 0 Translation |==|  0.50030 0.57995 0.44783
USER: genes 1 Rotation |==|  0.64259 0.36715 0.61192 0.94665
USER: genes 2 Torsion [N]-C--CA-[N] |==|  0.50546
USER: genes 3 Torsion [C]-CA--N-[C] |==|  0.58485
USER: genes 4 Torsion [N]-C--CA-[N] |==|  0.50184
USER: genes 5 Torsion [C]-CA--N-[C] |==|  0.75957
USER: genes 6 Torsion [N]-C--CA-[N] |==|  0.55848
USER: genes 7 Torsion [N]-C--CA-[N] |==|  0.38406
USER: genes 8 Torsion [C]-CA--CB-[CG] |==|  0.36119
USER: genes 9 Torsion [CA]-CB--CG-[CD] |==|  0.97010
USER: genes 10 Torsion [CB]-CG--CD-[OE2] |==|  0.23895
USER: genes 11 Torsion [C]-N--CA-[CB] |==|  0.77767
USER: genes 12 Torsion [N]-CA--CB-[OG] |==|  0.86501
USER: genes 13 Torsion [CA]-CB--OG-[HG] |==|  0.11240
USER: genes 14 Torsion [N]-CA--C-[N] |==|  0.19639
USER: genes 15 Torsion [C]-N--CA-[CB] |==|  0.80606
USER: genes 16 Torsion [N]-CA--C-[OXT] |==|  0.64602
USER: genes 17 Torsion [N]-CA--CB-[CG] |==|  0.76012
USER: genes 18 Torsion [CA]-CB--CG-[CD] |==|  0.29669
USER: genes 19 Torsion [CB]-CG--CD-[NE] |==|  0.74097
USER: genes 20 Torsion [CG]-CD--NE-[HE] |==|  0.03923
ROOT
ATOM      1  C   GLY B 361      38.209 -11.281 -10.604  1.00 26.32 LIG 0.24  C 
ATOM      2 O    GLY B 361      38.838 -12.338 -10.655  1.00 25.16 LIG-0.27  OA
ATOM      3  N   SER B 362      38.577 -10.189 -11.267  1.00 27.60 LIG-0.34  N 
ATOM      4 H    SER B 362      38.158  -9.440 -11.230  1.00 27.60 LIG 0.16  HD
ENDROOT
BRANCH 1 5
ATOM      5  CA  GLY B 361      36.958 -11.176  -9.751  1.00 24.90 LIG 0.23  C 
BRANCH 5 6
ATOM      6  N   GLY B 361      36.705 -12.425  -9.052  1.00 24.70 LIG-0.35  N 
ATOM      7  C   GLY B 360      35.464 -12.804  -8.759  1.00 25.98 LIG 0.23  C 
ATOM      8 O    GLY B 360      34.464 -12.126  -9.030  1.00 23.45 LIG-0.27  OA
ATOM      9 H    GLY B 361      37.410 -12.876  -8.856  1.00 24.70 LIG 0.16  HD
BRANCH 7 10
ATOM     10  CA  GLY B 360      35.317 -14.131  -8.046  1.00 26.97 LIG 0.23  C 
BRANCH 10 11
ATOM     11  N   GLY B 360      33.918 -14.423  -7.806  1.00 32.20 LIG-0.35  N 
ATOM     12  C   PRO B 359      33.303 -13.969  -6.719  1.00 35.92 LIG 0.24  C 
ATOM     13 O    PRO B 359      33.867 -13.291  -5.863  1.00 37.04 LIG-0.27  OA
ATOM     14 H    GLY B 360      33.540 -14.900  -8.413  1.00 32.20 LIG 0.16  HD
BRANCH 12 15
ATOM     15  CA  PRO B 359      31.831 -14.339  -6.577  1.00 39.21 LIG 0.18  C 
ATOM     16  CB  PRO B 359      31.065 -14.190  -7.889  1.00 38.88 LIG 0.04  C 
ATOM     17  CG  PRO B 359      30.592 -12.773  -7.835  1.00 39.81 LIG 0.02  C 
ATOM     18  CD  PRO B 359      30.095 -12.665  -6.410  1.00 41.55 LIG 0.13  C 
ATOM     19  N   PRO B 359      31.104 -13.443  -5.670  1.00 42.03 LIG-0.34  N 
ATOM     20  C   GLU B 358      31.422 -13.333  -4.373  1.00 44.90 LIG 0.26  C 
ATOM     21 O    GLU B 358      32.345 -13.976  -3.869  1.00 45.02 LIG-0.27  OA
BRANCH 20 22
ATOM     22  CA  GLU B 358      30.592 -12.366  -3.530  1.00 48.47 LIG 0.40  C 
ATOM     23  N   GLU B 358      30.286 -12.970  -2.199  1.00 49.88 LIG 0.61  N 
BRANCH 22 24
ATOM     24  CB  GLU B 358      31.363 -11.053  -3.353  1.00 52.00 LIG 0.06  C 
BRANCH 24 25
ATOM     25  CG  GLU B 358      30.565  -9.793  -3.676  1.00 56.00 LIG 0.12  C 
BRANCH 25 26
ATOM     26  CD  GLU B 358      29.242 -10.096  -4.360  1.00 58.41 LIG 0.17  C 
ATOM     27 OE1  GLU B 358      29.202 -10.080  -5.611  1.00 59.40 LIG-0.65  OA
ATOM     28 OE2  GLU B 358      28.246 -10.350  -3.648  1.00 59.45 LIG-0.65  OA
ENDBRANCH 25 26
ENDBRANCH 24 25
ENDBRANCH 22 24
ENDBRANCH 20 22
ENDBRANCH 12 15
ENDBRANCH 10 11
ENDBRANCH 7 10
ENDBRANCH 5 6
ENDBRANCH 1 5
BRANCH 3 29
ATOM     29  CA  SER B 362      39.754 -10.183 -12.131  1.00 31.63 LIG 0.20  C 
BRANCH 29 30
ATOM     30  CB  SER B 362      41.030 -10.024 -11.290  1.00 29.14 LIG 0.20  C 
BRANCH 30 31
ATOM     31 OG   SER B 362      40.912  -8.959 -10.365  1.00 25.13 LIG-0.40  OA
ATOM     32 HG   SER B 362      40.141  -8.961 -10.031  1.00 25.13 LIG 0.21  HD
ENDBRANCH 30 31
ENDBRANCH 29 30
BRANCH 29 33
ATOM     33  C   SER B 362      39.914 -11.392 -13.055  1.00 35.65 LIG 0.24  C 
ATOM     34 O    SER B 362      40.802 -12.215 -12.839  1.00 37.77 LIG-0.27  OA
ATOM     35  N   ARG B 363      39.069 -11.509 -14.077  1.00 40.10 LIG-0.34  N 
ATOM     36 H    ARG B 363      38.445 -10.945 -14.258  1.00 40.10 LIG 0.16  HD
BRANCH 35 37
ATOM     37  CA  ARG B 363      39.149 -12.651 -14.994  1.00 45.15 LIG 0.18  C 
BRANCH 37 38
ATOM     38  C   ARG B 363      39.127 -14.000 -14.277  1.00 46.43 LIG 0.20  C 
ATOM     39 O    ARG B 363      38.202 -14.220 -13.466  1.00 47.78 LIG-0.65  OA
ATOM     40 OXT  ARG B 363      40.034 -14.822 -14.530  1.00 47.46 LIG-0.65  OA
ENDBRANCH 37 38
BRANCH 37 41
ATOM     41  CB  ARG B 363      40.413 -12.560 -15.857  1.00 48.51 LIG 0.04  C 
BRANCH 41 42
ATOM     42  CG  ARG B 363      40.252 -11.734 -17.120  1.00 53.09 LIG 0.02  C 
BRANCH 42 43
ATOM     43  CD  ARG B 363      40.967 -10.400 -16.997  1.00 56.16 LIG 0.14  C 
BRANCH 43 44
ATOM     44  NE  ARG B 363      40.078  -9.345 -16.516  1.00 60.73 LIG-0.23  N 
ATOM     45 HE   ARG B 363      39.323  -9.579 -16.175  1.00 60.73 LIG 0.18  HD
ATOM     46  CZ  ARG B 363      40.360  -8.045 -16.571  1.00 63.15 LIG 0.67  C 
ATOM     47  NH2 ARG B 363      39.493  -7.152 -16.104  1.00 63.96 LIG-0.23  N 
ATOM     48  NH1 ARG B 363      41.510  -7.634 -17.092  1.00 63.92 LIG-0.23  N 
ATOM     49 1HH2 ARG B 363      38.747  -7.413 -15.765  1.00 63.96 LIG 0.17  HD
ATOM     50 2HH2 ARG B 363      39.679  -6.313 -16.141  1.00 63.96 LIG 0.17  HD
ATOM     51 1HH1 ARG B 363      42.074  -8.209 -17.395  1.00 63.92 LIG 0.17  HD
ATOM     52 2HH1 ARG B 363      41.691  -6.795 -17.126  1.00 63.92 LIG 0.17  HD
ENDBRANCH 43 44
ENDBRANCH 42 43
ENDBRANCH 41 42
ENDBRANCH 37 41
ENDBRANCH 35 37
ENDBRANCH 29 33
ENDBRANCH 3 29
TORSDOF 19
ENDMDL
MODEL 25
USER: ADFR SOLUTION from run 124
USER: SCORE 15.642127 LL:  -3.088 LR: -13.153 RR:   0.000 FEB:  -7.485
USER: RMSD 5.470452
USER: SEED 123
USER: STATUS no improvement in best in 16 clusters for 5 generations
USER: GENES 21
USER: genes 0 Translation |==|  0.57539 0.61363 0.39932
USER: genes 1 Rotation |==|  0.79662 0.31029 0.82330 0.64664
USER: genes 2 Torsion [N]-C--CA-[N] |==|  0.90863
USER: genes 3 Torsion [C]-CA--N-[C] |==|  0.81099
USER: genes 4 Torsion [N]-C--CA-[N] |==|  0.51545
USER: genes 5 Torsion [C]-CA--N-[C] |==|  0.38117
USER: genes 6 Torsion [N]-C--CA-[N] |==|  0.74587
USER: genes 7 Torsion [N]-C--CA-[N] |==|  0.35148
USER: genes 8 Torsion [C]-CA--CB-[CG] |==|  0.32750
USER: genes 9 Torsion [CA]-CB--CG-[CD] |==|  0.61425
USER: genes 10 Torsion [CB]-CG--CD-[OE2] |==|  0.70203
USER: genes 11 Torsion [C]-N--CA-[CB] |==|  0.76221
USER: genes 12 Torsion [N]-CA--CB-[OG] |==|  0.73502
USER: genes 13 Torsion [CA]-CB--OG-[HG] |==|  0.06141
USER: genes 14 Torsion [N]-CA--C-[N] |==|  0.21551
USER: genes 15 Torsion [C]-N--CA-[CB] |==|  0.43457
USER: genes 16 Torsion [N]-CA--C-[OXT] |==|  0.45384
USER: genes 17 Torsion [N]-CA--CB-[CG] |==|  0.78012
USER: genes 18 Torsion [CA]-CB--CG-[CD] |==|  0.38875
USER: genes 19 Torsion [CB]-CG--CD-[NE] |==|  0.86184
USER: genes 20 Torsion [CG]-CD--NE-[HE] |==|  0.79704
ROOT
ATOM      1  C   GLY B 361      40.011 -10.523 -11.732  1.00 26.32 LIG 0.24  C 
ATOM      2 O    GLY B 361      41.162 -10.261 -11.383  1.00 25.16 LIG-0.27  OA
ATOM      3  N   SER B 362      39.014  -9.650 -11.642  1.00 27.60 LIG-0.34  N 
ATOM      4 H    SER B 362      38.202  -9.821 -11.867  1.00 27.60 LIG 0.16  HD
ENDROOT
BRANCH 1 5
ATOM      5  CA  GLY B 361      39.673 -11.896 -12.286  1.00 24.90 LIG 0.23  C 
BRANCH 5 6
ATOM      6  N   GLY B 361      38.322 -12.281 -11.915  1.00 24.70 LIG-0.35  N 
ATOM      7  C   GLY B 360      38.009 -12.540 -10.648  1.00 25.98 LIG 0.23  C 
ATOM      8 O    GLY B 360      38.831 -12.498  -9.723  1.00 23.45 LIG-0.27  OA
ATOM      9 H    GLY B 361      37.766 -12.322 -12.570  1.00 24.70 LIG 0.16  HD
BRANCH 7 10
ATOM     10  CA  GLY B 360      36.568 -12.915 -10.373  1.00 26.97 LIG 0.23  C 
BRANCH 10 11
ATOM     11  N   GLY B 360      36.342 -13.041  -8.948  1.00 32.20 LIG-0.35  N 
ATOM     12  C   PRO B 359      35.247 -12.544  -8.383  1.00 35.92 LIG 0.24  C 
ATOM     13 O    PRO B 359      34.374 -11.955  -9.016  1.00 37.04 LIG-0.27  OA
ATOM     14 H    GLY B 360      36.963 -13.454  -8.520  1.00 32.20 LIG 0.16  HD
BRANCH 12 15
ATOM     15  CA  PRO B 359      35.119 -12.742  -6.876  1.00 39.21 LIG 0.18  C 
ATOM     16  CB  PRO B 359      36.474 -12.931  -6.199  1.00 38.88 LIG 0.04  C 
ATOM     17  CG  PRO B 359      36.667 -14.413  -6.257  1.00 39.81 LIG 0.02  C 
ATOM     18  CD  PRO B 359      35.302 -14.921  -5.846  1.00 41.55 LIG 0.13  C 
ATOM     19  N   PRO B 359      34.402 -13.972  -6.523  1.00 42.03 LIG-0.34  N 
ATOM     20  C   GLU B 358      33.124 -14.176  -6.873  1.00 44.90 LIG 0.26  C 
ATOM     21 O    GLU B 358      32.482 -13.342  -7.515  1.00 45.02 LIG-0.27  OA
BRANCH 20 22
ATOM     22  CA  GLU B 358      32.486 -15.496  -6.447  1.00 48.47 LIG 0.40  C 
ATOM     23  N   GLU B 358      31.215 -15.242  -5.705  1.00 49.88 LIG 0.61  N 
BRANCH 22 24
ATOM     24  CB  GLU B 358      32.213 -16.354  -7.688  1.00 52.00 LIG 0.06  C 
BRANCH 24 25
ATOM     25  CG  GLU B 358      32.963 -17.683  -7.726  1.00 56.00 LIG 0.12  C 
BRANCH 25 26
ATOM     26  CD  GLU B 358      33.506 -18.010  -9.108  1.00 58.41 LIG 0.17  C 
ATOM     27 OE1  GLU B 358      34.490 -17.360  -9.529  1.00 59.40 LIG-0.65  OA
ATOM     28 OE2  GLU B 358      32.952 -18.915  -9.769  1.00 59.45 LIG-0.65  OA
ENDBRANCH 25 26
ENDBRANCH 24 25
ENDBRANCH 22 24
ENDBRANCH 20 22
ENDBRANCH 12 15
ENDBRANCH 10 11
ENDBRANCH 7 10
ENDBRANCH 5 6
ENDBRANCH 1 5
BRANCH 3 29
ATOM     29  CA  SER B 362      39.229  -8.296 -11.140  1.00 31.63 LIG 0.20  C 
BRANCH 29 30
ATOM     30  CB  SER B 362      39.141  -8.277  -9.606  1.00 29.14 LIG 0.20  C 
BRANCH 30 31
ATOM     31 OG   SER B 362      37.845  -7.915  -9.166  1.00 25.13 LIG-0.40  OA
ATOM     32 HG   SER B 362      37.288  -8.066  -9.777  1.00 25.13 LIG 0.21  HD
ENDBRANCH 30 31
ENDBRANCH 29 30
BRANCH 29 33
ATOM     33  C   SER B 362      40.533  -7.620 -11.572  1.00 35.65 LIG 0.24  C 
ATOM     34 O    SER B 362      41.476  -7.551 -10.786  1.00 37.77 LIG-0.27  OA
ATOM     35  N   ARG B 363      40.596  -7.125 -12.806  1.00 40.10 LIG-0.34  N 
ATOM     36 H    ARG B 363      39.950  -7.150 -13.373  1.00 40.10 LIG 0.16  HD
BRANCH 35 37
ATOM     37  CA  ARG B 363      41.819  -6.479 -13.296  1.00 45.15 LIG 0.18  C 
BRANCH 37 38
ATOM     38  C   ARG B 363      41.961  -5.031 -12.830  1.00 46.43 LIG 0.20  C 
ATOM     39 O    ARG B 363      40.946  -4.452 -12.388  1.00 47.78 LIG-0.65  OA
ATOM     40 OXT  ARG B 363      43.085  -4.489 -12.913  1.00 47.46 LIG-0.65  OA
ENDBRANCH 37 38
BRANCH 37 41
ATOM     41  CB  ARG B 363      41.875  -6.523 -14.827  1.00 48.51 LIG 0.04  C 
BRANCH 41 42
ATOM     42  CG  ARG B 363      42.321  -7.856 -15.400  1.00 53.09 LIG 0.02  C 
BRANCH 42 43
ATOM     43  CD  ARG B 363      41.514  -8.219 -16.634  1.00 56.16 LIG 0.14  C 
BRANCH 43 44
ATOM     44  NE  ARG B 363      40.076  -8.094 -16.404  1.00 60.73 LIG-0.23  N 
ATOM     45 HE   ARG B 363      39.694  -8.687 -15.912  1.00 60.73 LIG 0.18  HD
ATOM     46  CZ  ARG B 363      39.319  -7.120 -16.905  1.00 63.15 LIG 0.67  C 
ATOM     47  NH2 ARG B 363      38.018  -7.080 -16.639  1.00 63.96 LIG-0.23  N 
ATOM     48  NH1 ARG B 363      39.863  -6.184 -17.674  1.00 63.92 LIG-0.23  N 
ATOM     49 1HH2 ARG B 363      37.661  -7.684 -16.141  1.00 63.96 LIG 0.17  HD
ATOM     50 2HH2 ARG B 363      37.532  -6.450 -16.965  1.00 63.96 LIG 0.17  HD
ATOM     51 1HH1 ARG B 363      40.704  -6.205 -17.849  1.00 63.92 LIG 0.17  HD
ATOM     52 2HH1 ARG B 363      39.373  -5.555 -17.997  1.00 63.92 LIG 0.17  HD
ENDBRANCH 43 44
ENDBRANCH 42 43
ENDBRANCH 41 42
ENDBRANCH 37 41
ENDBRANCH 35 37
ENDBRANCH 29 33
ENDBRANCH 3 29
TORSDOF 19
ENDMDL
MODEL 26
USER: ADFR SOLUTION from run 142
USER: SCORE 15.851147 LL:  -3.971 LR: -13.106 RR:   0.000 FEB:  -7.438
USER: RMSD 11.949375
USER: SEED 141
USER: STATUS no improvement in best in 30 clusters for 5 generations
USER: GENES 21
USER: genes 0 Translation |==|  0.27970 0.39537 0.60095
USER: genes 1 Rotation |==|  0.82577 0.78098 0.32556 0.68572
USER: genes 2 Torsion [N]-C--CA-[N] |==|  0.83218
USER: genes 3 Torsion [C]-CA--N-[C] |==|  0.73708
USER: genes 4 Torsion [N]-C--CA-[N] |==|  0.83721
USER: genes 5 Torsion [C]-CA--N-[C] |==|  0.29993
USER: genes 6 Torsion [N]-C--CA-[N] |==|  0.84167
USER: genes 7 Torsion [N]-C--CA-[N] |==|  0.40813
USER: genes 8 Torsion [C]-CA--CB-[CG] |==|  0.78864
USER: genes 9 Torsion [CA]-CB--CG-[CD] |==|  0.21899
USER: genes 10 Torsion [CB]-CG--CD-[OE2] |==|  0.63456
USER: genes 11 Torsion [C]-N--CA-[CB] |==|  0.82778
USER: genes 12 Torsion [N]-CA--CB-[OG] |==|  0.82388
USER: genes 13 Torsion [CA]-CB--OG-[HG] |==|  0.24185
USER: genes 14 Torsion [N]-CA--C-[N] |==|  0.39802
USER: genes 15 Torsion [C]-N--CA-[CB] |==|  0.33303
USER: genes 16 Torsion [N]-CA--C-[OXT] |==|  0.95022
USER: genes 17 Torsion [N]-CA--CB-[CG] |==|  0.29266
USER: genes 18 Torsion [CA]-CB--CG-[CD] |==|  0.69315
USER: genes 19 Torsion [CB]-CG--CD-[NE] |==|  0.27007
USER: genes 20 Torsion [CG]-CD--NE-[HE] |==|  0.05862
ROOT
ATOM      1  C   GLY B 361      32.915 -15.434  -7.044  1.00 26.32 LIG 0.24  C 
ATOM      2 O    GLY B 361      31.786 -15.600  -7.507  1.00 25.16 LIG-0.27  OA
ATOM      3  N   SER B 362      33.321 -14.277  -6.531  1.00 27.60 LIG-0.34  N 
ATOM      4 H    SER B 362      34.110 -14.140  -6.218  1.00 27.60 LIG 0.16  HD
ENDROOT
BRANCH 1 5
ATOM      5  CA  GLY B 361      33.920 -16.572  -7.049  1.00 24.90 LIG 0.23  C 
BRANCH 5 6
ATOM      6  N   GLY B 361      35.094 -16.218  -7.828  1.00 24.70 LIG-0.35  N 
ATOM      7  C   GLY B 360      35.193 -16.563  -9.109  1.00 25.98 LIG 0.23  C 
ATOM      8 O    GLY B 360      34.326 -17.216  -9.706  1.00 23.45 LIG-0.27  OA
ATOM      9 H    GLY B 361      35.694 -15.780  -7.395  1.00 24.70 LIG 0.16  HD
BRANCH 7 10
ATOM     10  CA  GLY B 360      36.452 -16.127  -9.828  1.00 26.97 LIG 0.23  C 
BRANCH 10 11
ATOM     11  N   GLY B 360      36.586 -14.685  -9.781  1.00 32.20 LIG-0.35  N 
ATOM     12  C   PRO B 359      37.506 -14.109  -9.015  1.00 35.92 LIG 0.24  C 
ATOM     13 O    PRO B 359      38.285 -14.745  -8.310  1.00 37.04 LIG-0.27  OA
ATOM     14 H    GLY B 360      36.032 -14.255 -10.279  1.00 32.20 LIG 0.16  HD
BRANCH 12 15
ATOM     15  CA  PRO B 359      37.552 -12.585  -9.052  1.00 39.21 LIG 0.18  C 
ATOM     16  CB  PRO B 359      36.227 -11.954  -8.630  1.00 38.88 LIG 0.04  C 
ATOM     17  CG  PRO B 359      35.489 -11.844  -9.926  1.00 39.81 LIG 0.02  C 
ATOM     18  CD  PRO B 359      36.561 -11.312 -10.852  1.00 41.55 LIG 0.13  C 
ATOM     19  N   PRO B 359      37.752 -12.054 -10.404  1.00 42.03 LIG-0.34  N 
ATOM     20  C   GLU B 358      38.858 -12.318 -11.116  1.00 44.90 LIG 0.26  C 
ATOM     21 O    GLU B 358      39.766 -13.024 -10.674  1.00 45.02 LIG-0.27  OA
BRANCH 20 22
ATOM     22  CA  GLU B 358      38.950 -11.708 -12.513  1.00 48.47 LIG 0.40  C 
ATOM     23  N   GLU B 358      40.370 -11.381 -12.843  1.00 49.88 LIG 0.61  N 
BRANCH 22 24
ATOM     24  CB  GLU B 358      38.381 -12.696 -13.539  1.00 52.00 LIG 0.06  C 
BRANCH 24 25
ATOM     25  CG  GLU B 358      39.300 -13.867 -13.879  1.00 56.00 LIG 0.12  C 
BRANCH 25 26
ATOM     26  CD  GLU B 358      39.278 -14.955 -12.818  1.00 58.41 LIG 0.17  C 
ATOM     27 OE1  GLU B 358      38.168 -15.365 -12.409  1.00 59.40 LIG-0.65  OA
ATOM     28 OE2  GLU B 358      40.368 -15.400 -12.396  1.00 59.45 LIG-0.65  OA
ENDBRANCH 25 26
ENDBRANCH 24 25
ENDBRANCH 22 24
ENDBRANCH 20 22
ENDBRANCH 12 15
ENDBRANCH 10 11
ENDBRANCH 7 10
ENDBRANCH 5 6
ENDBRANCH 1 5
BRANCH 3 29
ATOM     29  CA  SER B 362      32.432 -13.121  -6.460  1.00 31.63 LIG 0.20  C 
BRANCH 29 30
ATOM     30  CB  SER B 362      32.006 -12.691  -7.872  1.00 29.14 LIG 0.20  C 
BRANCH 30 31
ATOM     31 OG   SER B 362      33.116 -12.263  -8.641  1.00 25.13 LIG-0.40  OA
ATOM     32 HG   SER B 362      33.467 -12.925  -9.019  1.00 25.13 LIG 0.21  HD
ENDBRANCH 30 31
ENDBRANCH 29 30
BRANCH 29 33
ATOM     33  C   SER B 362      31.183 -13.288  -5.592  1.00 35.65 LIG 0.24  C 
ATOM     34 O    SER B 362      30.600 -14.371  -5.560  1.00 37.77 LIG-0.27  OA
ATOM     35  N   ARG B 363      30.768 -12.235  -4.892  1.00 40.10 LIG-0.34  N 
ATOM     36 H    ARG B 363      31.149 -11.464  -4.903  1.00 40.10 LIG 0.16  HD
BRANCH 35 37
ATOM     37  CA  ARG B 363      29.589 -12.326  -4.024  1.00 45.15 LIG 0.18  C 
BRANCH 37 38
ATOM     38  C   ARG B 363      28.454 -11.399  -4.454  1.00 46.43 LIG 0.20  C 
ATOM     39 O    ARG B 363      27.306 -11.631  -4.018  1.00 47.78 LIG-0.65  OA
ATOM     40 OXT  ARG B 363      28.721 -10.451  -5.225  1.00 47.46 LIG-0.65  OA
ENDBRANCH 37 38
BRANCH 37 41
ATOM     41  CB  ARG B 363      29.965 -12.019  -2.570  1.00 48.51 LIG 0.04  C 
BRANCH 41 42
ATOM     42  CG  ARG B 363      29.519 -10.653  -2.082  1.00 53.09 LIG 0.02  C 
BRANCH 42 43
ATOM     43  CD  ARG B 363      30.709  -9.732  -1.870  1.00 56.16 LIG 0.14  C 
BRANCH 43 44
ATOM     44  NE  ARG B 363      30.932  -8.854  -3.017  1.00 60.73 LIG-0.23  N 
ATOM     45 HE   ARG B 363      30.273  -8.716  -3.552  1.00 60.73 LIG 0.18  HD
ATOM     46  CZ  ARG B 363      32.089  -8.253  -3.286  1.00 63.15 LIG 0.67  C 
ATOM     47  NH2 ARG B 363      32.201  -7.465  -4.350  1.00 63.96 LIG-0.23  N 
ATOM     48  NH1 ARG B 363      33.136  -8.438  -2.491  1.00 63.92 LIG-0.23  N 
ATOM     49 1HH2 ARG B 363      31.525  -7.341  -4.868  1.00 63.96 LIG 0.17  HD
ATOM     50 2HH2 ARG B 363      32.950  -7.079  -4.521  1.00 63.96 LIG 0.17  HD
ATOM     51 1HH1 ARG B 363      33.068  -8.947  -1.801  1.00 63.92 LIG 0.17  HD
ATOM     52 2HH1 ARG B 363      33.883  -8.049  -2.666  1.00 63.92 LIG 0.17  HD
ENDBRANCH 43 44
ENDBRANCH 42 43
ENDBRANCH 41 42
ENDBRANCH 37 41
ENDBRANCH 35 37
ENDBRANCH 29 33
ENDBRANCH 3 29
TORSDOF 19
ENDMDL
MODEL 27
USER: ADFR SOLUTION from run 172
USER: SCORE 15.456341 LL:  -3.375 LR: -13.103 RR:   0.000 FEB:  -7.436
USER: RMSD 7.044333
USER: SEED 171
USER: STATUS no improvement in best in 21 clusters for 5 generations
USER: GENES 21
USER: genes 0 Translation |==|  0.48074 0.60710 0.47695
USER: genes 1 Rotation |==|  0.48215 0.23160 0.81082 0.78466
USER: genes 2 Torsion [N]-C--CA-[N] |==|  0.39734
USER: genes 3 Torsion [C]-CA--N-[C] |==|  0.33702
USER: genes 4 Torsion [N]-C--CA-[N] |==|  0.52019
USER: genes 5 Torsion [C]-CA--N-[C] |==|  0.45205
USER: genes 6 Torsion [N]-C--CA-[N] |==|  0.54627
USER: genes 7 Torsion [N]-C--CA-[N] |==|  0.84672
USER: genes 8 Torsion [C]-CA--CB-[CG] |==|  0.21192
USER: genes 9 Torsion [CA]-CB--CG-[CD] |==|  0.58500
USER: genes 10 Torsion [CB]-CG--CD-[OE2] |==|  0.70112
USER: genes 11 Torsion [C]-N--CA-[CB] |==|  0.54314
USER: genes 12 Torsion [N]-CA--CB-[OG] |==|  0.09504
USER: genes 13 Torsion [CA]-CB--OG-[HG] |==|  0.95378
USER: genes 14 Torsion [N]-CA--C-[N] |==|  0.36798
USER: genes 15 Torsion [C]-N--CA-[CB] |==|  0.26300
USER: genes 16 Torsion [N]-CA--C-[OXT] |==|  0.59519
USER: genes 17 Torsion [N]-CA--CB-[CG] |==|  0.73460
USER: genes 18 Torsion [CA]-CB--CG-[CD] |==|  0.70290
USER: genes 19 Torsion [CB]-CG--CD-[NE] |==|  0.16725
USER: genes 20 Torsion [CG]-CD--NE-[HE] |==|  0.20975
ROOT
ATOM      1  C   GLY B 361      37.740 -10.670  -9.927  1.00 26.32 LIG 0.24  C 
ATOM      2 O    GLY B 361      38.174 -11.047  -8.838  1.00 25.16 LIG-0.27  OA
ATOM      3  N   SER B 362      38.293  -9.681 -10.621  1.00 27.60 LIG-0.34  N 
ATOM      4 H    SER B 362      37.994  -9.396 -11.375  1.00 27.60 LIG 0.16  HD
ENDROOT
BRANCH 1 5
ATOM      5  CA  GLY B 361      36.515 -11.331 -10.533  1.00 24.90 LIG 0.23  C 
BRANCH 5 6
ATOM      6  N   GLY B 361      36.517 -12.760 -10.267  1.00 24.70 LIG-0.35  N 
ATOM      7  C   GLY B 360      35.513 -13.333  -9.609  1.00 25.98 LIG 0.23  C 
ATOM      8 O    GLY B 360      34.543 -12.703  -9.166  1.00 23.45 LIG-0.27  OA
ATOM      9 H    GLY B 361      37.204 -13.181 -10.566  1.00 24.70 LIG 0.16  HD
BRANCH 7 10
ATOM     10  CA  GLY B 360      35.610 -14.830  -9.403  1.00 26.97 LIG 0.23  C 
BRANCH 10 11
ATOM     11  N   GLY B 360      34.382 -15.342  -8.830  1.00 32.20 LIG-0.35  N 
ATOM     12  C   PRO B 359      34.097 -16.639  -8.873  1.00 35.92 LIG 0.24  C 
ATOM     13 O    PRO B 359      34.837 -17.471  -9.392  1.00 37.04 LIG-0.27  OA
ATOM     14 H    GLY B 360      33.875 -14.746  -8.472  1.00 32.20 LIG 0.16  HD
BRANCH 12 15
ATOM     15  CA  PRO B 359      32.777 -17.058  -8.234  1.00 39.21 LIG 0.18  C 
ATOM     16  CB  PRO B 359      32.583 -16.447  -6.848  1.00 38.88 LIG 0.04  C 
ATOM     17  CG  PRO B 359      33.205 -17.466  -5.949  1.00 39.81 LIG 0.02  C 
ATOM     18  CD  PRO B 359      32.662 -18.758  -6.519  1.00 41.55 LIG 0.13  C 
ATOM     19  N   PRO B 359      32.706 -18.499  -7.969  1.00 42.03 LIG-0.34  N 
ATOM     20  C   GLU B 358      32.764 -19.407  -8.954  1.00 44.90 LIG 0.26  C 
ATOM     21 O    GLU B 358      32.884 -19.081 -10.136  1.00 45.02 LIG-0.27  OA
BRANCH 20 22
ATOM     22  CA  GLU B 358      32.680 -20.878  -8.552  1.00 48.47 LIG 0.40  C 
ATOM     23  N   GLU B 358      33.734 -21.202  -7.545  1.00 49.88 LIG 0.61  N 
BRANCH 22 24
ATOM     24  CB  GLU B 358      31.289 -21.170  -7.976  1.00 52.00 LIG 0.06  C 
BRANCH 24 25
ATOM     25  CG  GLU B 358      30.178 -21.290  -9.016  1.00 56.00 LIG 0.12  C 
BRANCH 25 26
ATOM     26  CD  GLU B 358      28.826 -20.845  -8.483  1.00 58.41 LIG 0.17  C 
ATOM     27 OE1  GLU B 358      28.632 -19.621  -8.303  1.00 59.40 LIG-0.65  OA
ATOM     28 OE2  GLU B 358      27.960 -21.716  -8.246  1.00 59.45 LIG-0.65  OA
ENDBRANCH 25 26
ENDBRANCH 24 25
ENDBRANCH 22 24
ENDBRANCH 20 22
ENDBRANCH 12 15
ENDBRANCH 10 11
ENDBRANCH 7 10
ENDBRANCH 5 6
ENDBRANCH 1 5
BRANCH 3 29
ATOM     29  CA  SER B 362      39.485  -8.987 -10.141  1.00 31.63 LIG 0.20  C 
BRANCH 29 30
ATOM     30  CB  SER B 362      39.680  -7.673 -10.911  1.00 29.14 LIG 0.20  C 
BRANCH 30 31
ATOM     31 OG   SER B 362      38.440  -7.081 -11.250  1.00 25.13 LIG-0.40  OA
ATOM     32 HG   SER B 362      37.828  -7.650 -11.176  1.00 25.13 LIG 0.21  HD
ENDBRANCH 30 31
ENDBRANCH 29 30
BRANCH 29 33
ATOM     33  C   SER B 362      39.533  -8.698  -8.639  1.00 35.65 LIG 0.24  C 
ATOM     34 O    SER B 362      38.555  -8.205  -8.079  1.00 37.77 LIG-0.27  OA
ATOM     35  N   ARG B 363      40.652  -8.997  -7.984  1.00 40.10 LIG-0.34  N 
ATOM     36 H    ARG B 363      41.354  -9.333  -8.350  1.00 40.10 LIG 0.16  HD
BRANCH 35 37
ATOM     37  CA  ARG B 363      40.765  -8.764  -6.540  1.00 45.15 LIG 0.18  C 
BRANCH 37 38
ATOM     38  C   ARG B 363      42.150  -8.279  -6.116  1.00 46.43 LIG 0.20  C 
ATOM     39 O    ARG B 363      42.781  -7.540  -6.902  1.00 47.78 LIG-0.65  OA
ATOM     40 OXT  ARG B 363      42.593  -8.644  -5.005  1.00 47.46 LIG-0.65  OA
ENDBRANCH 37 38
BRANCH 37 41
ATOM     41  CB  ARG B 363      40.417 -10.037  -5.760  1.00 48.51 LIG 0.04  C 
BRANCH 41 42
ATOM     42  CG  ARG B 363      38.976 -10.107  -5.286  1.00 53.09 LIG 0.02  C 
BRANCH 42 43
ATOM     43  CD  ARG B 363      38.883  -9.888  -3.786  1.00 56.16 LIG 0.14  C 
BRANCH 43 44
ATOM     44  NE  ARG B 363      39.404  -8.581  -3.391  1.00 60.73 LIG-0.23  N 
ATOM     45 HE   ARG B 363      38.917  -7.890  -3.548  1.00 60.73 LIG 0.18  HD
ATOM     46  CZ  ARG B 363      40.583  -8.391  -2.802  1.00 63.15 LIG 0.67  C 
ATOM     47  NH2 ARG B 363      40.976  -7.166  -2.471  1.00 63.96 LIG-0.23  N 
ATOM     48  NH1 ARG B 363      41.372  -9.427  -2.542  1.00 63.92 LIG-0.23  N 
ATOM     49 1HH2 ARG B 363      40.468  -6.491  -2.636  1.00 63.96 LIG 0.17  HD
ATOM     50 2HH2 ARG B 363      41.738  -7.047  -2.091  1.00 63.96 LIG 0.17  HD
ATOM     51 1HH1 ARG B 363      41.122 -10.222  -2.754  1.00 63.92 LIG 0.17  HD
ATOM     52 2HH1 ARG B 363      42.133  -9.303  -2.162  1.00 63.92 LIG 0.17  HD
ENDBRANCH 43 44
ENDBRANCH 42 43
ENDBRANCH 41 42
ENDBRANCH 37 41
ENDBRANCH 35 37
ENDBRANCH 29 33
ENDBRANCH 3 29
TORSDOF 19
ENDMDL
MODEL 28
USER: ADFR SOLUTION from run 132
USER: SCORE 15.596297 LL:  -4.299 LR: -13.102 RR:   0.000 FEB:  -7.434
USER: RMSD 4.810910
USER: SEED 131
USER: STATUS searching
USER: GENES 21
USER: genes 0 Translation |==|  0.50282 0.54884 0.41941
USER: genes 1 Rotation |==|  0.49145 0.38609 0.73414 0.92677
USER: genes 2 Torsion [N]-C--CA-[N] |==|  0.47780
USER: genes 3 Torsion [C]-CA--N-[C] |==|  0.48637
USER: genes 4 Torsion [N]-C--CA-[N] |==|  0.58328
USER: genes 5 Torsion [C]-CA--N-[C] |==|  0.66188
USER: genes 6 Torsion [N]-C--CA-[N] |==|  0.57347
USER: genes 7 Torsion [N]-C--CA-[N] |==|  0.36717
USER: genes 8 Torsion [C]-CA--CB-[CG] |==|  0.36179
USER: genes 9 Torsion [CA]-CB--CG-[CD] |==|  0.95161
USER: genes 10 Torsion [CB]-CG--CD-[OE2] |==|  0.26406
USER: genes 11 Torsion [C]-N--CA-[CB] |==|  0.35910
USER: genes 12 Torsion [N]-CA--CB-[OG] |==|  0.09354
USER: genes 13 Torsion [CA]-CB--OG-[HG] |==|  0.11253
USER: genes 14 Torsion [N]-CA--C-[N] |==|  0.87884
USER: genes 15 Torsion [C]-N--CA-[CB] |==|  0.31606
USER: genes 16 Torsion [N]-CA--C-[OXT] |==|  0.01482
USER: genes 17 Torsion [N]-CA--CB-[CG] |==|  0.67023
USER: genes 18 Torsion [CA]-CB--CG-[CD] |==|  0.80323
USER: genes 19 Torsion [CB]-CG--CD-[NE] |==|  0.22961
USER: genes 20 Torsion [CG]-CD--NE-[HE] |==|  0.12648
ROOT
ATOM      1  C   GLY B 361      38.270 -11.981 -11.265  1.00 26.32 LIG 0.24  C 
ATOM      2 O    GLY B 361      39.095 -12.551 -10.551  1.00 25.16 LIG-0.27  OA
ATOM      3  N   SER B 362      38.584 -11.432 -12.434  1.00 27.60 LIG-0.34  N 
ATOM      4 H    SER B 362      38.023 -11.018 -12.937  1.00 27.60 LIG 0.16  HD
ENDROOT
BRANCH 1 5
ATOM      5  CA  GLY B 361      36.822 -11.871 -10.823  1.00 24.90 LIG 0.23  C 
BRANCH 5 6
ATOM      6  N   GLY B 361      36.585 -12.669  -9.632  1.00 24.70 LIG-0.35  N 
ATOM      7  C   GLY B 360      35.407 -12.643  -9.015  1.00 25.98 LIG 0.23  C 
ATOM      8 O    GLY B 360      34.461 -11.936  -9.386  1.00 23.45 LIG-0.27  OA
ATOM      9 H    GLY B 361      37.257 -13.142  -9.376  1.00 24.70 LIG 0.16  HD
BRANCH 7 10
ATOM     10  CA  GLY B 360      35.267 -13.528  -7.794  1.00 26.97 LIG 0.23  C 
BRANCH 10 11
ATOM     11  N   GLY B 360      33.894 -13.965  -7.642  1.00 32.20 LIG-0.35  N 
ATOM     12  C   PRO B 359      33.211 -13.697  -6.534  1.00 35.92 LIG 0.24  C 
ATOM     13 O    PRO B 359      33.687 -13.078  -5.586  1.00 37.04 LIG-0.27  OA
ATOM     14 H    GLY B 360      33.577 -14.398  -8.314  1.00 32.20 LIG 0.16  HD
BRANCH 12 15
ATOM     15  CA  PRO B 359      31.774 -14.206  -6.492  1.00 39.21 LIG 0.18  C 
ATOM     16  CB  PRO B 359      31.077 -14.089  -7.845  1.00 38.88 LIG 0.04  C 
ATOM     17  CG  PRO B 359      30.469 -12.724  -7.786  1.00 39.81 LIG 0.02  C 
ATOM     18  CD  PRO B 359      29.881 -12.705  -6.392  1.00 41.55 LIG 0.13  C 
ATOM     19  N   PRO B 359      30.913 -13.408  -5.611  1.00 42.03 LIG-0.34  N 
ATOM     20  C   GLU B 358      31.143 -13.307  -4.294  1.00 44.90 LIG 0.26  C 
ATOM     21 O    GLU B 358      32.091 -13.876  -3.751  1.00 45.02 LIG-0.27  OA
BRANCH 20 22
ATOM     22  CA  GLU B 358      30.177 -12.447  -3.481  1.00 48.47 LIG 0.40  C 
ATOM     23  N   GLU B 358      29.737 -13.179  -2.256  1.00 49.88 LIG 0.61  N 
BRANCH 22 24
ATOM     24  CB  GLU B 358      30.866 -11.132  -3.096  1.00 52.00 LIG 0.06  C 
BRANCH 24 25
ATOM     25  CG  GLU B 358      30.059  -9.873  -3.401  1.00 56.00 LIG 0.12  C 
BRANCH 25 26
ATOM     26  CD  GLU B 358      28.935 -10.123  -4.394  1.00 58.41 LIG 0.17  C 
ATOM     27 OE1  GLU B 358      29.202 -10.080  -5.616  1.00 59.40 LIG-0.65  OA
ATOM     28 OE2  GLU B 358      27.790 -10.361  -3.952  1.00 59.45 LIG-0.65  OA
ENDBRANCH 25 26
ENDBRANCH 24 25
ENDBRANCH 22 24
ENDBRANCH 20 22
ENDBRANCH 12 15
ENDBRANCH 10 11
ENDBRANCH 7 10
ENDBRANCH 5 6
ENDBRANCH 1 5
BRANCH 3 29
ATOM     29  CA  SER B 362      39.943 -11.494 -12.964  1.00 31.63 LIG 0.20  C 
BRANCH 29 30
ATOM     30  CB  SER B 362      39.925 -12.009 -14.411  1.00 29.14 LIG 0.20  C 
BRANCH 30 31
ATOM     31 OG   SER B 362      38.764 -11.584 -15.099  1.00 25.13 LIG-0.40  OA
ATOM     32 HG   SER B 362      38.593 -10.787 -14.896  1.00 25.13 LIG 0.21  HD
ENDBRANCH 30 31
ENDBRANCH 29 30
BRANCH 29 33
ATOM     33  C   SER B 362      40.745 -10.192 -12.908  1.00 35.65 LIG 0.24  C 
ATOM     34 O    SER B 362      41.920 -10.212 -12.545  1.00 37.77 LIG-0.27  OA
ATOM     35  N   ARG B 363      40.128  -9.067 -13.261  1.00 40.10 LIG-0.34  N 
ATOM     36 H    ARG B 363      39.305  -9.021 -13.509  1.00 40.10 LIG 0.16  HD
BRANCH 35 37
ATOM     37  CA  ARG B 363      40.838  -7.783 -13.249  1.00 45.15 LIG 0.18  C 
BRANCH 37 38
ATOM     38  C   ARG B 363      40.161  -6.730 -12.374  1.00 46.43 LIG 0.20  C 
ATOM     39 O    ARG B 363      40.632  -5.573 -12.374  1.00 47.78 LIG-0.65  OA
ATOM     40 OXT  ARG B 363      39.169  -7.072 -11.694  1.00 47.46 LIG-0.65  OA
ENDBRANCH 37 38
BRANCH 37 41
ATOM     41  CB  ARG B 363      40.984  -7.236 -14.673  1.00 48.51 LIG 0.04  C 
BRANCH 41 42
ATOM     42  CG  ARG B 363      42.420  -7.063 -15.134  1.00 53.09 LIG 0.02  C 
BRANCH 42 43
ATOM     43  CD  ARG B 363      43.093  -5.911 -14.409  1.00 56.16 LIG 0.14  C 
BRANCH 43 44
ATOM     44  NE  ARG B 363      43.600  -6.311 -13.098  1.00 60.73 LIG-0.23  N 
ATOM     45 HE   ARG B 363      44.034  -7.051 -13.043  1.00 60.73 LIG 0.18  HD
ATOM     46  CZ  ARG B 363      43.433  -5.603 -11.983  1.00 63.15 LIG 0.67  C 
ATOM     47  NH2 ARG B 363      43.933  -6.040 -10.832  1.00 63.96 LIG-0.23  N 
ATOM     48  NH1 ARG B 363      42.766  -4.455 -12.016  1.00 63.92 LIG-0.23  N 
ATOM     49 1HH2 ARG B 363      44.367  -6.782 -10.805  1.00 63.96 LIG 0.17  HD
ATOM     50 2HH2 ARG B 363      43.823  -5.580 -10.114  1.00 63.96 LIG 0.17  HD
ATOM     51 1HH1 ARG B 363      42.440  -4.168 -12.759  1.00 63.92 LIG 0.17  HD
ATOM     52 2HH1 ARG B 363      42.659  -3.999 -11.295  1.00 63.92 LIG 0.17  HD
ENDBRANCH 43 44
ENDBRANCH 42 43
ENDBRANCH 41 42
ENDBRANCH 37 41
ENDBRANCH 35 37
ENDBRANCH 29 33
ENDBRANCH 3 29
TORSDOF 19
ENDMDL
MODEL 29
USER: ADFR SOLUTION from run 32
USER: SCORE 15.621577 LL:  -3.240 LR: -13.093 RR:   0.000 FEB:  -7.425
USER: RMSD 9.622605
USER: SEED 31
USER: STATUS no improvement in best in 19 clusters for 5 generations
USER: GENES 21
USER: genes 0 Translation |==|  0.36114 0.43534 0.57634
USER: genes 1 Rotation |==|  0.34776 0.39782 0.55915 0.96139
USER: genes 2 Torsion [N]-C--CA-[N] |==|  0.94709
USER: genes 3 Torsion [C]-CA--N-[C] |==|  0.84696
USER: genes 4 Torsion [N]-C--CA-[N] |==|  0.44614
USER: genes 5 Torsion [C]-CA--N-[C] |==|  0.20000
USER: genes 6 Torsion [N]-C--CA-[N] |==|  0.80540
USER: genes 7 Torsion [N]-C--CA-[N] |==|  0.90332
USER: genes 8 Torsion [C]-CA--CB-[CG] |==|  0.79152
USER: genes 9 Torsion [CA]-CB--CG-[CD] |==|  0.74594
USER: genes 10 Torsion [CB]-CG--CD-[OE2] |==|  0.75787
USER: genes 11 Torsion [C]-N--CA-[CB] |==|  0.19378
USER: genes 12 Torsion [N]-CA--CB-[OG] |==|  0.15747
USER: genes 13 Torsion [CA]-CB--OG-[HG] |==|  0.34481
USER: genes 14 Torsion [N]-CA--C-[N] |==|  0.05589
USER: genes 15 Torsion [C]-N--CA-[CB] |==|  0.45780
USER: genes 16 Torsion [N]-CA--C-[OXT] |==|  0.37361
USER: genes 17 Torsion [N]-CA--CB-[CG] |==|  0.53519
USER: genes 18 Torsion [CA]-CB--CG-[CD] |==|  0.39787
USER: genes 19 Torsion [CB]-CG--CD-[NE] |==|  0.27094
USER: genes 20 Torsion [CG]-CD--NE-[HE] |==|  0.74803
ROOT
ATOM      1  C   GLY B 361      34.869 -14.535  -7.616  1.00 26.32 LIG 0.24  C 
ATOM      2 O    GLY B 361      34.956 -15.163  -6.561  1.00 25.16 LIG-0.27  OA
ATOM      3  N   SER B 362      35.544 -14.868  -8.712  1.00 27.60 LIG-0.34  N 
ATOM      4 H    SER B 362      35.506 -14.432  -9.451  1.00 27.60 LIG 0.16  HD
ENDROOT
BRANCH 1 5
ATOM      5  CA  GLY B 361      33.970 -13.315  -7.710  1.00 24.90 LIG 0.23  C 
BRANCH 5 6
ATOM      6  N   GLY B 361      34.349 -12.483  -8.839  1.00 24.70 LIG-0.35  N 
ATOM      7  C   GLY B 360      35.595 -12.035  -8.970  1.00 25.98 LIG 0.23  C 
ATOM      8 O    GLY B 360      36.491 -12.268  -8.147  1.00 23.45 LIG-0.27  OA
ATOM      9 H    GLY B 361      33.713 -12.316  -9.393  1.00 24.70 LIG 0.16  HD
BRANCH 7 10
ATOM     10  CA  GLY B 360      35.882 -11.191 -10.193  1.00 26.97 LIG 0.23  C 
BRANCH 10 11
ATOM     11  N   GLY B 360      37.087 -10.411  -9.998  1.00 32.20 LIG-0.35  N 
ATOM     12  C   PRO B 359      38.283 -10.989 -10.002  1.00 35.92 LIG 0.24  C 
ATOM     13 O    PRO B 359      38.444 -12.196 -10.165  1.00 37.04 LIG-0.27  OA
ATOM     14 H    GLY B 360      36.956  -9.568  -9.883  1.00 32.20 LIG 0.16  HD
BRANCH 12 15
ATOM     15  CA  PRO B 359      39.477 -10.063  -9.788  1.00 39.21 LIG 0.18  C 
ATOM     16  CB  PRO B 359      39.254  -9.085  -8.638  1.00 38.88 LIG 0.04  C 
ATOM     17  CG  PRO B 359      38.620  -7.914  -9.319  1.00 39.81 LIG 0.02  C 
ATOM     18  CD  PRO B 359      39.480  -7.771 -10.557  1.00 41.55 LIG 0.13  C 
ATOM     19  N   PRO B 359      39.720  -9.176 -10.931  1.00 42.03 LIG-0.34  N 
ATOM     20  C   GLU B 358      40.032  -9.649 -12.146  1.00 44.90 LIG 0.26  C 
ATOM     21 O    GLU B 358      40.128 -10.857 -12.371  1.00 45.02 LIG-0.27  OA
BRANCH 20 22
ATOM     22  CA  GLU B 358      40.261  -8.625 -13.256  1.00 48.47 LIG 0.40  C 
ATOM     23  N   GLU B 358      39.351  -7.455 -13.077  1.00 49.88 LIG 0.61  N 
BRANCH 22 24
ATOM     24  CB  GLU B 358      41.725  -8.167 -13.232  1.00 52.00 LIG 0.06  C 
BRANCH 24 25
ATOM     25  CG  GLU B 358      42.076  -7.205 -12.100  1.00 56.00 LIG 0.12  C 
BRANCH 25 26
ATOM     26  CD  GLU B 358      41.919  -5.747 -12.500  1.00 58.41 LIG 0.17  C 
ATOM     27 OE1  GLU B 358      40.827  -5.181 -12.264  1.00 59.40 LIG-0.65  OA
ATOM     28 OE2  GLU B 358      42.883  -5.170 -13.048  1.00 59.45 LIG-0.65  OA
ENDBRANCH 25 26
ENDBRANCH 24 25
ENDBRANCH 22 24
ENDBRANCH 20 22
ENDBRANCH 12 15
ENDBRANCH 10 11
ENDBRANCH 7 10
ENDBRANCH 5 6
ENDBRANCH 1 5
BRANCH 3 29
ATOM     29  CA  SER B 362      36.424 -16.033  -8.739  1.00 31.63 LIG 0.20  C 
BRANCH 29 30
ATOM     30  CB  SER B 362      35.596 -17.326  -8.676  1.00 29.14 LIG 0.20  C 
BRANCH 30 31
ATOM     31 OG   SER B 362      34.651 -17.389  -9.728  1.00 25.13 LIG-0.40  OA
ATOM     32 HG   SER B 362      34.765 -18.096 -10.166  1.00 25.13 LIG 0.21  HD
ENDBRANCH 30 31
ENDBRANCH 29 30
BRANCH 29 33
ATOM     33  C   SER B 362      37.389 -16.116  -9.924  1.00 35.65 LIG 0.24  C 
ATOM     34 O    SER B 362      37.887 -17.198 -10.233  1.00 37.77 LIG-0.27  OA
ATOM     35  N   ARG B 363      37.658 -14.994 -10.587  1.00 40.10 LIG-0.34  N 
ATOM     36 H    ARG B 363      37.333 -14.223 -10.387  1.00 40.10 LIG 0.16  HD
BRANCH 35 37
ATOM     37  CA  ARG B 363      38.559 -15.000 -11.744  1.00 45.15 LIG 0.18  C 
BRANCH 37 38
ATOM     38  C   ARG B 363      40.026 -15.192 -11.361  1.00 46.43 LIG 0.20  C 
ATOM     39 O    ARG B 363      40.478 -14.523 -10.407  1.00 47.78 LIG-0.65  OA
ATOM     40 OXT  ARG B 363      40.709 -16.006 -12.019  1.00 47.46 LIG-0.65  OA
ENDBRANCH 37 38
BRANCH 37 41
ATOM     41  CB  ARG B 363      38.415 -13.702 -12.546  1.00 48.51 LIG 0.04  C 
BRANCH 41 42
ATOM     42  CG  ARG B 363      39.072 -13.735 -13.914  1.00 53.09 LIG 0.02  C 
BRANCH 42 43
ATOM     43  CD  ARG B 363      38.248 -12.971 -14.936  1.00 56.16 LIG 0.14  C 
BRANCH 43 44
ATOM     44  NE  ARG B 363      38.744 -11.611 -15.132  1.00 60.73 LIG-0.23  N 
ATOM     45 HE   ARG B 363      38.416 -10.987 -14.639  1.00 60.73 LIG 0.18  HD
ATOM     46  CZ  ARG B 363      39.672 -11.273 -16.026  1.00 63.15 LIG 0.67  C 
ATOM     47  NH2 ARG B 363      40.069 -10.010 -16.133  1.00 63.96 LIG-0.23  N 
ATOM     48  NH1 ARG B 363      40.205 -12.200 -16.814  1.00 63.92 LIG-0.23  N 
ATOM     49 1HH2 ARG B 363      39.728  -9.406 -15.624  1.00 63.96 LIG 0.17  HD
ATOM     50 2HH2 ARG B 363      40.669  -9.796 -16.712  1.00 63.96 LIG 0.17  HD
ATOM     51 1HH1 ARG B 363      39.951 -13.019 -16.748  1.00 63.92 LIG 0.17  HD
ATOM     52 2HH1 ARG B 363      40.804 -11.981 -17.391  1.00 63.92 LIG 0.17  HD
ENDBRANCH 43 44
ENDBRANCH 42 43
ENDBRANCH 41 42
ENDBRANCH 37 41
ENDBRANCH 35 37
ENDBRANCH 29 33
ENDBRANCH 3 29
TORSDOF 19
ENDMDL
MODEL 30
USER: ADFR SOLUTION from run 172
USER: SCORE 15.919007 LL:  -3.494 LR: -13.076 RR:   0.000 FEB:  -7.408
USER: RMSD 7.113939
USER: SEED 171
USER: STATUS no improvement in best in 21 clusters for 5 generations
USER: GENES 21
USER: genes 0 Translation |==|  0.48586 0.60640 0.46995
USER: genes 1 Rotation |==|  0.39441 0.27190 0.85982 0.73948
USER: genes 2 Torsion [N]-C--CA-[N] |==|  0.42001
USER: genes 3 Torsion [C]-CA--N-[C] |==|  0.31401
USER: genes 4 Torsion [N]-C--CA-[N] |==|  0.55990
USER: genes 5 Torsion [C]-CA--N-[C] |==|  0.72515
USER: genes 6 Torsion [N]-C--CA-[N] |==|  0.56345
USER: genes 7 Torsion [N]-C--CA-[N] |==|  0.38707
USER: genes 8 Torsion [C]-CA--CB-[CG] |==|  0.34960
USER: genes 9 Torsion [CA]-CB--CG-[CD] |==|  0.97699
USER: genes 10 Torsion [CB]-CG--CD-[OE2] |==|  0.21472
USER: genes 11 Torsion [C]-N--CA-[CB] |==|  0.61234
USER: genes 12 Torsion [N]-CA--CB-[OG] |==|  0.18358
USER: genes 13 Torsion [CA]-CB--OG-[HG] |==|  0.93361
USER: genes 14 Torsion [N]-CA--C-[N] |==|  0.32522
USER: genes 15 Torsion [C]-N--CA-[CB] |==|  0.29788
USER: genes 16 Torsion [N]-CA--C-[OXT] |==|  0.01319
USER: genes 17 Torsion [N]-CA--CB-[CG] |==|  0.77987
USER: genes 18 Torsion [CA]-CB--CG-[CD] |==|  0.67055
USER: genes 19 Torsion [CB]-CG--CD-[NE] |==|  0.18305
USER: genes 20 Torsion [CG]-CD--NE-[HE] |==|  0.90378
ROOT
ATOM      1  C   GLY B 361      37.863 -10.686 -10.090  1.00 26.32 LIG 0.24  C 
ATOM      2 O    GLY B 361      38.045 -10.567  -8.878  1.00 25.16 LIG-0.27  OA
ATOM      3  N   SER B 362      38.569 -10.016 -10.995  1.00 27.60 LIG-0.34  N 
ATOM      4 H    SER B 362      38.444 -10.077 -11.843  1.00 27.60 LIG 0.16  HD
ENDROOT
BRANCH 1 5
ATOM      5  CA  GLY B 361      36.788 -11.621 -10.614  1.00 24.90 LIG 0.23  C 
BRANCH 5 6
ATOM      6  N   GLY B 361      36.577 -12.728  -9.696  1.00 24.70 LIG-0.35  N 
ATOM      7  C   GLY B 360      35.431 -12.855  -9.031  1.00 25.98 LIG 0.23  C 
ATOM      8 O    GLY B 360      34.498 -12.047  -9.126  1.00 23.45 LIG-0.27  OA
ATOM      9 H    GLY B 361      37.240 -13.271  -9.628  1.00 24.70 LIG 0.16  HD
BRANCH 7 10
ATOM     10  CA  GLY B 360      35.314 -14.054  -8.116  1.00 26.97 LIG 0.23  C 
BRANCH 10 11
ATOM     11  N   GLY B 360      33.921 -14.361  -7.861  1.00 32.20 LIG-0.35  N 
ATOM     12  C   PRO B 359      33.327 -13.959  -6.743  1.00 35.92 LIG 0.24  C 
ATOM     13 O    PRO B 359      33.905 -13.319  -5.868  1.00 37.04 LIG-0.27  OA
ATOM     14 H    GLY B 360      33.532 -14.811  -8.482  1.00 32.20 LIG 0.16  HD
BRANCH 12 15
ATOM     15  CA  PRO B 359      31.858 -14.340  -6.589  1.00 39.21 LIG 0.18  C 
ATOM     16  CB  PRO B 359      31.076 -14.175  -7.890  1.00 38.88 LIG 0.04  C 
ATOM     17  CG  PRO B 359      30.595 -12.762  -7.808  1.00 39.81 LIG 0.02  C 
ATOM     18  CD  PRO B 359      30.114 -12.678  -6.376  1.00 41.55 LIG 0.13  C 
ATOM     19  N   PRO B 359      31.137 -13.462  -5.661  1.00 42.03 LIG-0.34  N 
ATOM     20  C   GLU B 358      31.470 -13.370  -4.365  1.00 44.90 LIG 0.26  C 
ATOM     21 O    GLU B 358      32.403 -14.015  -3.883  1.00 45.02 LIG-0.27  OA
BRANCH 20 22
ATOM     22  CA  GLU B 358      30.644 -12.421  -3.498  1.00 48.47 LIG 0.40  C 
ATOM     23  N   GLU B 358      30.380 -13.036  -2.163  1.00 49.88 LIG 0.61  N 
BRANCH 22 24
ATOM     24  CB  GLU B 358      31.398 -11.096  -3.333  1.00 52.00 LIG 0.06  C 
BRANCH 24 25
ATOM     25  CG  GLU B 358      30.603  -9.853  -3.726  1.00 56.00 LIG 0.12  C 
BRANCH 25 26
ATOM     26  CD  GLU B 358      29.282 -10.190  -4.397  1.00 58.41 LIG 0.17  C 
ATOM     27 OE1  GLU B 358      29.202 -10.080  -5.641  1.00 59.40 LIG-0.65  OA
ATOM     28 OE2  GLU B 358      28.327 -10.565  -3.681  1.00 59.45 LIG-0.65  OA
ENDBRANCH 25 26
ENDBRANCH 24 25
ENDBRANCH 22 24
ENDBRANCH 20 22
ENDBRANCH 12 15
ENDBRANCH 10 11
ENDBRANCH 7 10
ENDBRANCH 5 6
ENDBRANCH 1 5
BRANCH 3 29
ATOM     29  CA  SER B 362      39.639  -9.103 -10.603  1.00 31.63 LIG 0.20  C 
BRANCH 29 30
ATOM     30  CB  SER B 362      39.605  -7.840 -11.476  1.00 29.14 LIG 0.20  C 
BRANCH 30 31
ATOM     31 OG   SER B 362      38.433  -7.080 -11.244  1.00 25.13 LIG-0.40  OA
ATOM     32 HG   SER B 362      37.830  -7.580 -10.940  1.00 25.13 LIG 0.21  HD
ENDBRANCH 30 31
ENDBRANCH 29 30
BRANCH 29 33
ATOM     33  C   SER B 362      39.663  -8.691  -9.130  1.00 35.65 LIG 0.24  C 
ATOM     34 O    SER B 362      38.720  -8.060  -8.655  1.00 37.77 LIG-0.27  OA
ATOM     35  N   ARG B 363      40.723  -9.039  -8.404  1.00 40.10 LIG-0.34  N 
ATOM     36 H    ARG B 363      41.401  -9.471  -8.711  1.00 40.10 LIG 0.16  HD
BRANCH 35 37
ATOM     37  CA  ARG B 363      40.808  -8.695  -6.981  1.00 45.15 LIG 0.18  C 
BRANCH 37 38
ATOM     38  C   ARG B 363      42.128  -8.024  -6.603  1.00 46.43 LIG 0.20  C 
ATOM     39 O    ARG B 363      42.335  -7.770  -5.397  1.00 47.78 LIG-0.65  OA
ATOM     40 OXT  ARG B 363      42.940  -7.757  -7.515  1.00 47.46 LIG-0.65  OA
ENDBRANCH 37 38
BRANCH 37 41
ATOM     41  CB  ARG B 363      40.610  -9.941  -6.112  1.00 48.51 LIG 0.04  C 
BRANCH 41 42
ATOM     42  CG  ARG B 363      39.162 -10.365  -5.945  1.00 53.09 LIG 0.02  C 
BRANCH 42 43
ATOM     43  CD  ARG B 363      38.743 -10.319  -4.486  1.00 56.16 LIG 0.14  C 
BRANCH 43 44
ATOM     44  NE  ARG B 363      38.739  -8.955  -3.961  1.00 60.73 LIG-0.23  N 
ATOM     45 HE   ARG B 363      39.336  -8.409  -4.254  1.00 60.73 LIG 0.18  HD
ATOM     46  CZ  ARG B 363      37.871  -8.502  -3.059  1.00 63.15 LIG 0.67  C 
ATOM     47  NH2 ARG B 363      37.936  -7.242  -2.641  1.00 63.96 LIG-0.23  N 
ATOM     48  NH1 ARG B 363      36.933  -9.308  -2.574  1.00 63.92 LIG-0.23  N 
ATOM     49 1HH2 ARG B 363      38.541  -6.716  -2.953  1.00 63.96 LIG 0.17  HD
ATOM     50 2HH2 ARG B 363      37.374  -6.954  -2.058  1.00 63.96 LIG 0.17  HD
ATOM     51 1HH1 ARG B 363      36.887 -10.124  -2.842  1.00 63.92 LIG 0.17  HD
ATOM     52 2HH1 ARG B 363      36.373  -9.014  -1.992  1.00 63.92 LIG 0.17  HD
ENDBRANCH 43 44
ENDBRANCH 42 43
ENDBRANCH 41 42
ENDBRANCH 37 41
ENDBRANCH 35 37
ENDBRANCH 29 33
ENDBRANCH 3 29
TORSDOF 19
ENDMDL
MODEL 31
USER: ADFR SOLUTION from run 168
USER: SCORE 16.015432 LL:  -4.615 LR: -13.083 RR:   0.000 FEB:  -7.416
USER: RMSD 11.867445
USER: SEED 167
USER: STATUS no improvement in best in 18 clusters for 5 generations
USER: GENES 21
USER: genes 0 Translation |==|  0.49949 0.64286 0.51585
USER: genes 1 Rotation |==|  0.33561 0.71309 0.48779 0.92121
USER: genes 2 Torsion [N]-C--CA-[N] |==|  0.87273
USER: genes 3 Torsion [C]-CA--N-[C] |==|  0.78354
USER: genes 4 Torsion [N]-C--CA-[N] |==|  0.47504
USER: genes 5 Torsion [C]-CA--N-[C] |==|  0.73545
USER: genes 6 Torsion [N]-C--CA-[N] |==|  0.67895
USER: genes 7 Torsion [N]-C--CA-[N] |==|  0.38591
USER: genes 8 Torsion [C]-CA--CB-[CG] |==|  0.46064
USER: genes 9 Torsion [CA]-CB--CG-[CD] |==|  0.23336
USER: genes 10 Torsion [CB]-CG--CD-[OE2] |==|  0.34118
USER: genes 11 Torsion [C]-N--CA-[CB] |==|  0.42861
USER: genes 12 Torsion [N]-CA--CB-[OG] |==|  0.74581
USER: genes 13 Torsion [CA]-CB--OG-[HG] |==|  0.60546
USER: genes 14 Torsion [N]-CA--C-[N] |==|  0.88333
USER: genes 15 Torsion [C]-N--CA-[CB] |==|  0.84135
USER: genes 16 Torsion [N]-CA--C-[OXT] |==|  0.29916
USER: genes 17 Torsion [N]-CA--CB-[CG] |==|  0.65010
USER: genes 18 Torsion [CA]-CB--CG-[CD] |==|  0.92224
USER: genes 19 Torsion [CB]-CG--CD-[NE] |==|  0.30035
USER: genes 20 Torsion [CG]-CD--NE-[HE] |==|  0.18333
ROOT
ATOM      1  C   GLY B 361      38.190  -9.866  -9.022  1.00 26.32 LIG 0.24  C 
ATOM      2 O    GLY B 361      38.882 -10.603  -8.320  1.00 25.16 LIG-0.27  OA
ATOM      3  N   SER B 362      37.268 -10.326  -9.862  1.00 27.60 LIG-0.34  N 
ATOM      4 H    SER B 362      36.787  -9.826 -10.369  1.00 27.60 LIG 0.16  HD
ENDROOT
BRANCH 1 5
ATOM      5  CA  GLY B 361      38.373  -8.360  -8.964  1.00 24.90 LIG 0.23  C 
BRANCH 5 6
ATOM      6  N   GLY B 361      38.426  -7.796 -10.302  1.00 24.70 LIG-0.35  N 
ATOM      7  C   GLY B 360      39.532  -7.883 -11.036  1.00 25.98 LIG 0.23  C 
ATOM      8 O    GLY B 360      40.575  -8.415 -10.633  1.00 23.45 LIG-0.27  OA
ATOM      9 H    GLY B 361      37.700  -7.415 -10.561  1.00 24.70 LIG 0.16  HD
BRANCH 7 10
ATOM     10  CA  GLY B 360      39.469  -7.277 -12.422  1.00 26.97 LIG 0.23  C 
BRANCH 10 11
ATOM     11  N   GLY B 360      40.787  -7.254 -13.024  1.00 32.20 LIG-0.35  N 
ATOM     12  C   PRO B 359      41.552  -6.170 -12.951  1.00 35.92 LIG 0.24  C 
ATOM     13 O    PRO B 359      41.201  -5.138 -12.385  1.00 37.04 LIG-0.27  OA
ATOM     14 H    GLY B 360      41.016  -7.983 -13.417  1.00 32.20 LIG 0.16  HD
BRANCH 12 15
ATOM     15  CA  PRO B 359      42.919  -6.268 -13.620  1.00 39.21 LIG 0.18  C 
ATOM     16  CB  PRO B 359      43.152  -7.630 -14.268  1.00 38.88 LIG 0.04  C 
ATOM     17  CG  PRO B 359      43.770  -8.421 -13.160  1.00 39.81 LIG 0.02  C 
ATOM     18  CD  PRO B 359      44.771  -7.436 -12.595  1.00 41.55 LIG 0.13  C 
ATOM     19  N   PRO B 359      44.028  -6.166 -12.665  1.00 42.03 LIG-0.34  N 
ATOM     20  C   GLU B 358      44.231  -5.066 -11.925  1.00 44.90 LIG 0.26  C 
ATOM     21 O    GLU B 358      43.494  -4.081 -12.003  1.00 45.02 LIG-0.27  OA
BRANCH 20 22
ATOM     22  CA  GLU B 358      45.419  -5.080 -10.965  1.00 48.47 LIG 0.40  C 
ATOM     23  N   GLU B 358      46.118  -3.760 -10.987  1.00 49.88 LIG 0.61  N 
BRANCH 22 24
ATOM     24  CB  GLU B 358      44.927  -5.397  -9.548  1.00 52.00 LIG 0.06  C 
BRANCH 24 25
ATOM     25  CG  GLU B 358      46.025  -5.775  -8.558  1.00 56.00 LIG 0.12  C 
BRANCH 25 26
ATOM     26  CD  GLU B 358      46.694  -4.562  -7.932  1.00 58.41 LIG 0.17  C 
ATOM     27 OE1  GLU B 358      47.220  -3.717  -8.691  1.00 59.40 LIG-0.65  OA
ATOM     28 OE2  GLU B 358      46.692  -4.455  -6.687  1.00 59.45 LIG-0.65  OA
ENDBRANCH 25 26
ENDBRANCH 24 25
ENDBRANCH 22 24
ENDBRANCH 20 22
ENDBRANCH 12 15
ENDBRANCH 10 11
ENDBRANCH 7 10
ENDBRANCH 5 6
ENDBRANCH 1 5
BRANCH 3 29
ATOM     29  CA  SER B 362      36.996 -11.755  -9.986  1.00 31.63 LIG 0.20  C 
BRANCH 29 30
ATOM     30  CB  SER B 362      35.557 -11.981 -10.475  1.00 29.14 LIG 0.20  C 
BRANCH 30 31
ATOM     31 OG   SER B 362      34.657 -12.121  -9.391  1.00 25.13 LIG-0.40  OA
ATOM     32 HG   SER B 362      34.082 -12.705  -9.578  1.00 25.13 LIG 0.21  HD
ENDBRANCH 30 31
ENDBRANCH 29 30
BRANCH 29 33
ATOM     33  C   SER B 362      37.956 -12.545 -10.878  1.00 35.65 LIG 0.24  C 
ATOM     34 O    SER B 362      38.351 -13.654 -10.521  1.00 37.77 LIG-0.27  OA
ATOM     35  N   ARG B 363      38.333 -11.991 -12.029  1.00 40.10 LIG-0.34  N 
ATOM     36 H    ARG B 363      38.081 -11.215 -12.299  1.00 40.10 LIG 0.16  HD
BRANCH 35 37
ATOM     37  CA  ARG B 363      39.237 -12.697 -12.943  1.00 45.15 LIG 0.18  C 
BRANCH 37 38
ATOM     38  C   ARG B 363      38.622 -13.963 -13.537  1.00 46.43 LIG 0.20  C 
ATOM     39 O    ARG B 363      38.482 -14.956 -12.790  1.00 47.78 LIG-0.65  OA
ATOM     40 OXT  ARG B 363      38.289 -13.952 -14.742  1.00 47.46 LIG-0.65  OA
ENDBRANCH 37 38
BRANCH 37 41
ATOM     41  CB  ARG B 363      40.547 -13.058 -12.234  1.00 48.51 LIG 0.04  C 
BRANCH 41 42
ATOM     42  CG  ARG B 363      41.798 -12.574 -12.943  1.00 53.09 LIG 0.02  C 
BRANCH 42 43
ATOM     43  CD  ARG B 363      41.571 -12.464 -14.441  1.00 56.16 LIG 0.14  C 
BRANCH 43 44
ATOM     44  NE  ARG B 363      41.498 -11.074 -14.883  1.00 60.73 LIG-0.23  N 
ATOM     45 HE   ARG B 363      42.208 -10.593 -14.818  1.00 60.73 LIG 0.18  HD
ATOM     46  CZ  ARG B 363      40.403 -10.502 -15.380  1.00 63.15 LIG 0.67  C 
ATOM     47  NH2 ARG B 363      40.427  -9.230 -15.764  1.00 63.96 LIG-0.23  N 
ATOM     48  NH1 ARG B 363      39.280 -11.202 -15.497  1.00 63.92 LIG-0.23  N 
ATOM     49 1HH2 ARG B 363      41.152  -8.772 -15.691  1.00 63.96 LIG 0.17  HD
ATOM     50 2HH2 ARG B 363      39.718  -8.864 -16.084  1.00 63.96 LIG 0.17  HD
ATOM     51 1HH1 ARG B 363      39.260 -12.026 -15.250  1.00 63.92 LIG 0.17  HD
ATOM     52 2HH1 ARG B 363      38.574 -10.832 -15.819  1.00 63.92 LIG 0.17  HD
ENDBRANCH 43 44
ENDBRANCH 42 43
ENDBRANCH 41 42
ENDBRANCH 37 41
ENDBRANCH 35 37
ENDBRANCH 29 33
ENDBRANCH 3 29
TORSDOF 19
ENDMDL
MODEL 32
USER: ADFR SOLUTION from run 24
USER: SCORE 16.149926 LL:  -3.572 LR: -13.066 RR:   0.000 FEB:  -7.398
USER: RMSD 8.476497
USER: SEED 23
USER: STATUS no improvement in best in 12 clusters for 5 generations
USER: GENES 21
USER: genes 0 Translation |==|  0.48440 0.62603 0.47700
USER: genes 1 Rotation |==|  0.73344 0.24079 0.69957 0.79747
USER: genes 2 Torsion [N]-C--CA-[N] |==|  0.55336
USER: genes 3 Torsion [C]-CA--N-[C] |==|  0.40385
USER: genes 4 Torsion [N]-C--CA-[N] |==|  0.00650
USER: genes 5 Torsion [C]-CA--N-[C] |==|  0.69445
USER: genes 6 Torsion [N]-C--CA-[N] |==|  0.79793
USER: genes 7 Torsion [N]-C--CA-[N] |==|  0.83769
USER: genes 8 Torsion [C]-CA--CB-[CG] |==|  0.23162
USER: genes 9 Torsion [CA]-CB--CG-[CD] |==|  0.77732
USER: genes 10 Torsion [CB]-CG--CD-[OE2] |==|  0.41567
USER: genes 11 Torsion [C]-N--CA-[CB] |==|  0.83592
USER: genes 12 Torsion [N]-CA--CB-[OG] |==|  0.51483
USER: genes 13 Torsion [CA]-CB--OG-[HG] |==|  0.95782
USER: genes 14 Torsion [N]-CA--C-[N] |==|  0.38925
USER: genes 15 Torsion [C]-N--CA-[CB] |==|  0.12799
USER: genes 16 Torsion [N]-CA--C-[OXT] |==|  0.38633
USER: genes 17 Torsion [N]-CA--CB-[CG] |==|  0.55070
USER: genes 18 Torsion [CA]-CB--CG-[CD] |==|  0.61189
USER: genes 19 Torsion [CB]-CG--CD-[NE] |==|  0.93049
USER: genes 20 Torsion [CG]-CD--NE-[HE] |==|  0.95051
ROOT
ATOM      1  C   GLY B 361      37.828 -10.244  -9.926  1.00 26.32 LIG 0.24  C 
ATOM      2 O    GLY B 361      38.853 -10.925  -9.895  1.00 25.16 LIG-0.27  OA
ATOM      3  N   SER B 362      37.832  -8.926  -9.761  1.00 27.60 LIG-0.34  N 
ATOM      4 H    SER B 362      37.124  -8.438  -9.765  1.00 27.60 LIG 0.16  HD
ENDROOT
BRANCH 1 5
ATOM      5  CA  GLY B 361      36.478 -10.903 -10.149  1.00 24.90 LIG 0.23  C 
BRANCH 5 6
ATOM      6  N   GLY B 361      36.548 -12.326  -9.865  1.00 24.70 LIG-0.35  N 
ATOM      7  C   GLY B 360      35.512 -12.968  -9.331  1.00 25.98 LIG 0.23  C 
ATOM      8 O    GLY B 360      34.452 -12.407  -9.022  1.00 23.45 LIG-0.27  OA
ATOM      9 H    GLY B 361      37.295 -12.698 -10.070  1.00 24.70 LIG 0.16  HD
BRANCH 7 10
ATOM     10  CA  GLY B 360      35.688 -14.452  -9.094  1.00 26.97 LIG 0.23  C 
BRANCH 10 11
ATOM     11  N   GLY B 360      37.025 -14.868  -9.468  1.00 32.20 LIG-0.35  N 
ATOM     12  C   PRO B 359      37.230 -15.629 -10.538  1.00 35.92 LIG 0.24  C 
ATOM     13 O    PRO B 359      36.321 -16.025 -11.263  1.00 37.04 LIG-0.27  OA
ATOM     14 H    GLY B 360      37.649 -14.583  -8.949  1.00 32.20 LIG 0.16  HD
BRANCH 12 15
ATOM     15  CA  PRO B 359      38.680 -15.999 -10.831  1.00 39.21 LIG 0.18  C 
ATOM     16  CB  PRO B 359      39.445 -16.393  -9.570  1.00 38.88 LIG 0.04  C 
ATOM     17  CG  PRO B 359      39.998 -15.087  -9.098  1.00 39.81 LIG 0.02  C 
ATOM     18  CD  PRO B 359      40.509 -14.481 -10.387  1.00 41.55 LIG 0.13  C 
ATOM     19  N   PRO B 359      39.462 -14.870 -11.348  1.00 42.03 LIG-0.34  N 
ATOM     20  C   GLU B 358      39.158 -14.265 -12.505  1.00 44.90 LIG 0.26  C 
ATOM     21 O    GLU B 358      38.202 -14.622 -13.198  1.00 45.02 LIG-0.27  OA
BRANCH 20 22
ATOM     22  CA  GLU B 358      40.046 -13.100 -12.938  1.00 48.47 LIG 0.40  C 
ATOM     23  N   GLU B 358      40.042 -12.030 -11.896  1.00 49.88 LIG 0.61  N 
BRANCH 22 24
ATOM     24  CB  GLU B 358      41.474 -13.608 -13.172  1.00 52.00 LIG 0.06  C 
BRANCH 24 25
ATOM     25  CG  GLU B 358      41.718 -14.224 -14.547  1.00 56.00 LIG 0.12  C 
BRANCH 25 26
ATOM     26  CD  GLU B 358      41.223 -15.658 -14.644  1.00 58.41 LIG 0.17  C 
ATOM     27 OE1  GLU B 358      41.232 -16.360 -13.608  1.00 59.40 LIG-0.65  OA
ATOM     28 OE2  GLU B 358      40.825 -16.079 -15.752  1.00 59.45 LIG-0.65  OA
ENDBRANCH 25 26
ENDBRANCH 24 25
ENDBRANCH 22 24
ENDBRANCH 20 22
ENDBRANCH 12 15
ENDBRANCH 10 11
ENDBRANCH 7 10
ENDBRANCH 5 6
ENDBRANCH 1 5
BRANCH 3 29
ATOM     29  CA  SER B 362      39.075  -8.187  -9.557  1.00 31.63 LIG 0.20  C 
BRANCH 29 30
ATOM     30  CB  SER B 362      39.800  -8.703  -8.305  1.00 29.14 LIG 0.20  C 
BRANCH 30 31
ATOM     31 OG   SER B 362      40.946  -7.926  -8.012  1.00 25.13 LIG-0.40  OA
ATOM     32 HG   SER B 362      41.145  -7.456  -8.680  1.00 25.13 LIG 0.21  HD
ENDBRANCH 30 31
ENDBRANCH 29 30
BRANCH 29 33
ATOM     33  C   SER B 362      40.053  -8.183 -10.734  1.00 35.65 LIG 0.24  C 
ATOM     34 O    SER B 362      40.220  -9.207 -11.395  1.00 37.77 LIG-0.27  OA
ATOM     35  N   ARG B 363      40.698  -7.050 -11.002  1.00 40.10 LIG-0.34  N 
ATOM     36 H    ARG B 363      40.608  -6.322 -10.552  1.00 40.10 LIG 0.16  HD
BRANCH 35 37
ATOM     37  CA  ARG B 363      41.637  -6.965 -12.125  1.00 45.15 LIG 0.18  C 
BRANCH 37 38
ATOM     38  C   ARG B 363      42.070  -5.535 -12.441  1.00 46.43 LIG 0.20  C 
ATOM     39 O    ARG B 363      41.202  -4.636 -12.403  1.00 47.78 LIG-0.65  OA
ATOM     40 OXT  ARG B 363      43.269  -5.326 -12.725  1.00 47.46 LIG-0.65  OA
ENDBRANCH 37 38
BRANCH 37 41
ATOM     41  CB  ARG B 363      41.031  -7.597 -13.384  1.00 48.51 LIG 0.04  C 
BRANCH 41 42
ATOM     42  CG  ARG B 363      42.044  -7.955 -14.456  1.00 53.09 LIG 0.02  C 
BRANCH 42 43
ATOM     43  CD  ARG B 363      41.515  -7.625 -15.841  1.00 56.16 LIG 0.14  C 
BRANCH 43 44
ATOM     44  NE  ARG B 363      40.054  -7.618 -15.881  1.00 60.73 LIG-0.23  N 
ATOM     45 HE   ARG B 363      39.632  -8.010 -15.242  1.00 60.73 LIG 0.18  HD
ATOM     46  CZ  ARG B 363      39.334  -7.043 -16.842  1.00 63.15 LIG 0.67  C 
ATOM     47  NH2 ARG B 363      38.006  -7.080 -16.796  1.00 63.96 LIG-0.23  N 
ATOM     48  NH1 ARG B 363      39.940  -6.429 -17.851  1.00 63.92 LIG-0.23  N 
ATOM     49 1HH2 ARG B 363      37.609  -7.476 -16.143  1.00 63.96 LIG 0.17  HD
ATOM     50 2HH2 ARG B 363      37.545  -6.708 -17.418  1.00 63.96 LIG 0.17  HD
ATOM     51 1HH1 ARG B 363      40.799  -6.402 -17.885  1.00 63.92 LIG 0.17  HD
ATOM     52 2HH1 ARG B 363      39.473  -6.057 -18.471  1.00 63.92 LIG 0.17  HD
ENDBRANCH 43 44
ENDBRANCH 42 43
ENDBRANCH 41 42
ENDBRANCH 37 41
ENDBRANCH 35 37
ENDBRANCH 29 33
ENDBRANCH 3 29
TORSDOF 19
ENDMDL
MODEL 33
USER: ADFR SOLUTION from run 151
USER: SCORE 15.362676 LL:  -4.328 LR: -13.036 RR:   0.000 FEB:  -7.368
USER: RMSD 13.302348
USER: SEED 150
USER: STATUS no improvement in best in 10 clusters for 5 generations
USER: GENES 21
USER: genes 0 Translation |==|  0.38909 0.53189 0.52743
USER: genes 1 Rotation |==|  0.18299 0.77090 0.32163 0.71049
USER: genes 2 Torsion [N]-C--CA-[N] |==|  0.33831
USER: genes 3 Torsion [C]-CA--N-[C] |==|  0.27311
USER: genes 4 Torsion [N]-C--CA-[N] |==|  0.57222
USER: genes 5 Torsion [C]-CA--N-[C] |==|  0.36790
USER: genes 6 Torsion [N]-C--CA-[N] |==|  0.36600
USER: genes 7 Torsion [N]-C--CA-[N] |==|  0.44015
USER: genes 8 Torsion [C]-CA--CB-[CG] |==|  0.39270
USER: genes 9 Torsion [CA]-CB--CG-[CD] |==|  0.92239
USER: genes 10 Torsion [CB]-CG--CD-[OE2] |==|  0.20525
USER: genes 11 Torsion [C]-N--CA-[CB] |==|  0.41657
USER: genes 12 Torsion [N]-CA--CB-[OG] |==|  0.06599
USER: genes 13 Torsion [CA]-CB--OG-[HG] |==|  0.99508
USER: genes 14 Torsion [N]-CA--C-[N] |==|  0.89445
USER: genes 15 Torsion [C]-N--CA-[CB] |==|  0.33222
USER: genes 16 Torsion [N]-CA--C-[OXT] |==|  0.38587
USER: genes 17 Torsion [N]-CA--CB-[CG] |==|  0.30645
USER: genes 18 Torsion [CA]-CB--CG-[CD] |==|  0.28715
USER: genes 19 Torsion [CB]-CG--CD-[NE] |==|  0.68553
USER: genes 20 Torsion [CG]-CD--NE-[HE] |==|  0.82216
ROOT
ATOM      1  C   GLY B 361      35.540 -12.362  -8.753  1.00 26.32 LIG 0.24  C 
ATOM      2 O    GLY B 361      36.385 -12.417  -7.859  1.00 25.16 LIG-0.27  OA
ATOM      3  N   SER B 362      34.273 -12.719  -8.571  1.00 27.60 LIG-0.34  N 
ATOM      4 H    SER B 362      33.675 -12.702  -9.188  1.00 27.60 LIG 0.16  HD
ENDROOT
BRANCH 1 5
ATOM      5  CA  GLY B 361      35.924 -11.881 -10.141  1.00 24.90 LIG 0.23  C 
BRANCH 5 6
ATOM      6  N   GLY B 361      36.466 -10.534 -10.087  1.00 24.70 LIG-0.35  N 
ATOM      7  C   GLY B 360      37.780 -10.326 -10.085  1.00 25.98 LIG 0.23  C 
ATOM      8 O    GLY B 360      38.613 -11.242 -10.103  1.00 23.45 LIG-0.27  OA
ATOM      9 H    GLY B 361      35.875  -9.910 -10.057  1.00 24.70 LIG 0.16  HD
BRANCH 7 10
ATOM     10  CA  GLY B 360      38.233  -8.882 -10.044  1.00 26.97 LIG 0.23  C 
BRANCH 10 11
ATOM     11  N   GLY B 360      39.547  -8.748 -10.640  1.00 32.20 LIG-0.35  N 
ATOM     12  C   PRO B 359      39.798  -7.796 -11.532  1.00 35.92 LIG 0.24  C 
ATOM     13 O    PRO B 359      38.952  -6.987 -11.906  1.00 37.04 LIG-0.27  OA
ATOM     14 H    GLY B 360      40.126  -9.323 -10.369  1.00 32.20 LIG 0.16  HD
BRANCH 12 15
ATOM     15  CA  PRO B 359      41.218  -7.753 -12.086  1.00 39.21 LIG 0.18  C 
ATOM     16  CB  PRO B 359      41.977  -6.505 -11.643  1.00 38.88 LIG 0.04  C 
ATOM     17  CG  PRO B 359      41.653  -5.523 -12.723  1.00 39.81 LIG 0.02  C 
ATOM     18  CD  PRO B 359      41.821  -6.363 -13.970  1.00 41.55 LIG 0.13  C 
ATOM     19  N   PRO B 359      41.254  -7.657 -13.550  1.00 42.03 LIG-0.34  N 
ATOM     20  C   GLU B 358      40.746  -8.614 -14.339  1.00 44.90 LIG 0.26  C 
ATOM     21 O    GLU B 358      40.217  -9.627 -13.878  1.00 45.02 LIG-0.27  OA
BRANCH 20 22
ATOM     22  CA  GLU B 358      40.844  -8.399 -15.848  1.00 48.47 LIG 0.40  C 
ATOM     23  N   GLU B 358      40.734  -9.704 -16.566  1.00 49.88 LIG 0.61  N 
BRANCH 22 24
ATOM     24  CB  GLU B 358      39.728  -7.449 -16.301  1.00 52.00 LIG 0.06  C 
BRANCH 24 25
ATOM     25  CG  GLU B 358      40.136  -6.451 -17.381  1.00 56.00 LIG 0.12  C 
BRANCH 25 26
ATOM     26  CD  GLU B 358      41.616  -6.108 -17.334  1.00 58.41 LIG 0.17  C 
ATOM     27 OE1  GLU B 358      41.952  -4.986 -16.891  1.00 59.40 LIG-0.65  OA
ATOM     28 OE2  GLU B 358      42.439  -6.958 -17.737  1.00 59.45 LIG-0.65  OA
ENDBRANCH 25 26
ENDBRANCH 24 25
ENDBRANCH 22 24
ENDBRANCH 20 22
ENDBRANCH 12 15
ENDBRANCH 10 11
ENDBRANCH 7 10
ENDBRANCH 5 6
ENDBRANCH 1 5
BRANCH 3 29
ATOM     29  CA  SER B 362      33.791 -13.180  -7.272  1.00 31.63 LIG 0.20  C 
BRANCH 29 30
ATOM     30  CB  SER B 362      32.308 -12.821  -7.098  1.00 29.14 LIG 0.20  C 
BRANCH 30 31
ATOM     31 OG   SER B 362      31.664 -12.655  -8.348  1.00 25.13 LIG-0.40  OA
ATOM     32 HG   SER B 362      32.221 -12.760  -8.967  1.00 25.13 LIG 0.21  HD
ENDBRANCH 30 31
ENDBRANCH 29 30
BRANCH 29 33
ATOM     33  C   SER B 362      33.981 -14.670  -6.976  1.00 35.65 LIG 0.24  C 
ATOM     34 O    SER B 362      34.285 -15.034  -5.841  1.00 37.77 LIG-0.27  OA
ATOM     35  N   ARG B 363      33.807 -15.529  -7.977  1.00 40.10 LIG-0.34  N 
ATOM     36 H    ARG B 363      33.605 -15.303  -8.782  1.00 40.10 LIG 0.16  HD
BRANCH 35 37
ATOM     37  CA  ARG B 363      33.956 -16.973  -7.764  1.00 45.15 LIG 0.18  C 
BRANCH 37 38
ATOM     38  C   ARG B 363      35.088 -17.588  -8.585  1.00 46.43 LIG 0.20  C 
ATOM     39 O    ARG B 363      35.232 -17.208  -9.767  1.00 47.78 LIG-0.65  OA
ATOM     40 OXT  ARG B 363      35.818 -18.444  -8.040  1.00 47.46 LIG-0.65  OA
ENDBRANCH 37 38
BRANCH 37 41
ATOM     41  CB  ARG B 363      32.647 -17.702  -8.087  1.00 48.51 LIG 0.04  C 
BRANCH 41 42
ATOM     42  CG  ARG B 363      32.700 -18.562  -9.336  1.00 53.09 LIG 0.02  C 
BRANCH 42 43
ATOM     43  CD  ARG B 363      32.819 -20.034  -8.984  1.00 56.16 LIG 0.14  C 
BRANCH 43 44
ATOM     44  NE  ARG B 363      34.107 -20.591  -9.390  1.00 60.73 LIG-0.23  N 
ATOM     45 HE   ARG B 363      34.288 -20.615 -10.231  1.00 60.73 LIG 0.18  HD
ATOM     46  CZ  ARG B 363      35.020 -21.065  -8.544  1.00 63.15 LIG 0.67  C 
ATOM     47  NH2 ARG B 363      36.169 -21.549  -9.001  1.00 63.96 LIG-0.23  N 
ATOM     48  NH1 ARG B 363      34.784 -21.054  -7.237  1.00 63.92 LIG-0.23  N 
ATOM     49 1HH2 ARG B 363      36.327 -21.557  -9.847  1.00 63.96 LIG 0.17  HD
ATOM     50 2HH2 ARG B 363      36.756 -21.853  -8.452  1.00 63.96 LIG 0.17  HD
ATOM     51 1HH1 ARG B 363      34.042 -20.741  -6.936  1.00 63.92 LIG 0.17  HD
ATOM     52 2HH1 ARG B 363      35.375 -21.359  -6.691  1.00 63.92 LIG 0.17  HD
ENDBRANCH 43 44
ENDBRANCH 42 43
ENDBRANCH 41 42
ENDBRANCH 37 41
ENDBRANCH 35 37
ENDBRANCH 29 33
ENDBRANCH 3 29
TORSDOF 19
ENDMDL
MODEL 34
USER: ADFR SOLUTION from run 168
USER: SCORE 16.197082 LL:  -4.847 LR: -13.020 RR:   0.000 FEB:  -7.352
USER: RMSD 12.402966
USER: SEED 167
USER: STATUS no improvement in best in 18 clusters for 5 generations
USER: GENES 21
USER: genes 0 Translation |==|  0.49669 0.64921 0.50858
USER: genes 1 Rotation |==|  0.31995 0.69119 0.47842 0.92493
USER: genes 2 Torsion [N]-C--CA-[N] |==|  0.87028
USER: genes 3 Torsion [C]-CA--N-[C] |==|  0.80865
USER: genes 4 Torsion [N]-C--CA-[N] |==|  0.42244
USER: genes 5 Torsion [C]-CA--N-[C] |==|  0.74317
USER: genes 6 Torsion [N]-C--CA-[N] |==|  0.20514
USER: genes 7 Torsion [N]-C--CA-[N] |==|  0.27854
USER: genes 8 Torsion [C]-CA--CB-[CG] |==|  0.22448
USER: genes 9 Torsion [CA]-CB--CG-[CD] |==|  0.11795
USER: genes 10 Torsion [CB]-CG--CD-[OE2] |==|  0.79428
USER: genes 11 Torsion [C]-N--CA-[CB] |==|  0.40366
USER: genes 12 Torsion [N]-CA--CB-[OG] |==|  0.72017
USER: genes 13 Torsion [CA]-CB--OG-[HG] |==|  0.64821
USER: genes 14 Torsion [N]-CA--C-[N] |==|  0.89047
USER: genes 15 Torsion [C]-N--CA-[CB] |==|  0.83321
USER: genes 16 Torsion [N]-CA--C-[OXT] |==|  0.30229
USER: genes 17 Torsion [N]-CA--CB-[CG] |==|  0.65717
USER: genes 18 Torsion [CA]-CB--CG-[CD] |==|  0.91989
USER: genes 19 Torsion [CB]-CG--CD-[NE] |==|  0.30361
USER: genes 20 Torsion [CG]-CD--NE-[HE] |==|  0.17815
ROOT
ATOM      1  C   GLY B 361      38.123  -9.723  -9.192  1.00 26.32 LIG 0.24  C 
ATOM      2 O    GLY B 361      38.763 -10.394  -8.382  1.00 25.16 LIG-0.27  OA
ATOM      3  N   SER B 362      37.291 -10.261 -10.078  1.00 27.60 LIG-0.34  N 
ATOM      4 H    SER B 362      36.848  -9.808 -10.659  1.00 27.60 LIG 0.16  HD
ENDROOT
BRANCH 1 5
ATOM      5  CA  GLY B 361      38.267  -8.212  -9.217  1.00 24.90 LIG 0.23  C 
BRANCH 5 6
ATOM      6  N   GLY B 361      38.451  -7.736 -10.578  1.00 24.70 LIG-0.35  N 
ATOM      7  C   GLY B 360      39.571  -7.999 -11.248  1.00 25.98 LIG 0.23  C 
ATOM      8 O    GLY B 360      40.520  -8.629 -10.764  1.00 23.45 LIG-0.27  OA
ATOM      9 H    GLY B 361      37.791  -7.287 -10.895  1.00 24.70 LIG 0.16  HD
BRANCH 7 10
ATOM     10  CA  GLY B 360      39.647  -7.470 -12.664  1.00 26.97 LIG 0.23  C 
BRANCH 10 11
ATOM     11  N   GLY B 360      41.025  -7.225 -13.038  1.00 32.20 LIG-0.35  N 
ATOM     12  C   PRO B 359      41.578  -6.030 -12.865  1.00 35.92 LIG 0.24  C 
ATOM     13 O    PRO B 359      40.971  -5.073 -12.391  1.00 37.04 LIG-0.27  OA
ATOM     14 H    GLY B 360      41.435  -7.905 -13.370  1.00 32.20 LIG 0.16  HD
BRANCH 12 15
ATOM     15  CA  PRO B 359      43.035  -5.895 -13.295  1.00 39.21 LIG 0.18  C 
ATOM     16  CB  PRO B 359      43.652  -4.572 -12.848  1.00 38.88 LIG 0.04  C 
ATOM     17  CG  PRO B 359      43.354  -3.665 -13.998  1.00 39.81 LIG 0.02  C 
ATOM     18  CD  PRO B 359      43.699  -4.540 -15.184  1.00 41.55 LIG 0.13  C 
ATOM     19  N   PRO B 359      43.198  -5.856 -14.752  1.00 42.03 LIG-0.34  N 
ATOM     20  C   GLU B 358      42.838  -6.884 -15.535  1.00 44.90 LIG 0.26  C 
ATOM     21 O    GLU B 358      42.349  -7.917 -15.074  1.00 45.02 LIG-0.27  OA
BRANCH 20 22
ATOM     22  CA  GLU B 358      43.056  -6.724 -17.039  1.00 48.47 LIG 0.40  C 
ATOM     23  N   GLU B 358      44.300  -7.436 -17.460  1.00 49.88 LIG 0.61  N 
BRANCH 22 24
ATOM     24  CB  GLU B 358      41.843  -7.283 -17.792  1.00 52.00 LIG 0.06  C 
BRANCH 24 25
ATOM     25  CG  GLU B 358      40.647  -6.339 -17.870  1.00 56.00 LIG 0.12  C 
BRANCH 25 26
ATOM     26  CD  GLU B 358      41.050  -4.905 -18.173  1.00 58.41 LIG 0.17  C 
ATOM     27 OE1  GLU B 358      40.830  -4.456 -19.320  1.00 59.40 LIG-0.65  OA
ATOM     28 OE2  GLU B 358      41.585  -4.230 -17.266  1.00 59.45 LIG-0.65  OA
ENDBRANCH 25 26
ENDBRANCH 24 25
ENDBRANCH 22 24
ENDBRANCH 20 22
ENDBRANCH 12 15
ENDBRANCH 10 11
ENDBRANCH 7 10
ENDBRANCH 5 6
ENDBRANCH 1 5
BRANCH 3 29
ATOM     29  CA  SER B 362      37.062 -11.702 -10.130  1.00 31.63 LIG 0.20  C 
BRANCH 29 30
ATOM     30  CB  SER B 362      35.605 -11.995 -10.517  1.00 29.14 LIG 0.20  C 
BRANCH 30 31
ATOM     31 OG   SER B 362      34.824 -12.327  -9.384  1.00 25.13 LIG-0.40  OA
ATOM     32 HG   SER B 362      34.434 -13.059  -9.517  1.00 25.13 LIG 0.21  HD
ENDBRANCH 30 31
ENDBRANCH 29 30
BRANCH 29 33
ATOM     33  C   SER B 362      37.992 -12.496 -11.051  1.00 35.65 LIG 0.24  C 
ATOM     34 O    SER B 362      38.409 -13.598 -10.697  1.00 37.77 LIG-0.27  OA
ATOM     35  N   ARG B 363      38.319 -11.953 -12.222  1.00 40.10 LIG-0.34  N 
ATOM     36 H    ARG B 363      38.050 -11.181 -12.490  1.00 40.10 LIG 0.16  HD
BRANCH 35 37
ATOM     37  CA  ARG B 363      39.191 -12.663 -13.163  1.00 45.15 LIG 0.18  C 
BRANCH 37 38
ATOM     38  C   ARG B 363      38.592 -13.976 -13.663  1.00 46.43 LIG 0.20  C 
ATOM     39 O    ARG B 363      38.521 -14.933 -12.863  1.00 47.78 LIG-0.65  OA
ATOM     40 OXT  ARG B 363      38.202 -14.037 -14.850  1.00 47.46 LIG-0.65  OA
ENDBRANCH 37 38
BRANCH 37 41
ATOM     41  CB  ARG B 363      40.557 -12.943 -12.527  1.00 48.51 LIG 0.04  C 
BRANCH 41 42
ATOM     42  CG  ARG B 363      41.736 -12.389 -13.306  1.00 53.09 LIG 0.02  C 
BRANCH 42 43
ATOM     43  CD  ARG B 363      41.428 -12.320 -14.792  1.00 56.16 LIG 0.14  C 
BRANCH 43 44
ATOM     44  NE  ARG B 363      41.267 -10.943 -15.254  1.00 60.73 LIG-0.23  N 
ATOM     45 HE   ARG B 363      41.950 -10.422 -15.211  1.00 60.73 LIG 0.18  HD
ATOM     46  CZ  ARG B 363      40.132 -10.443 -15.737  1.00 63.15 LIG 0.67  C 
ATOM     47  NH2 ARG B 363      40.077  -9.178 -16.141  1.00 63.96 LIG-0.23  N 
ATOM     48  NH1 ARG B 363      39.049 -11.207 -15.819  1.00 63.92 LIG-0.23  N 
ATOM     49 1HH2 ARG B 363      40.776  -8.679 -16.091  1.00 63.96 LIG 0.17  HD
ATOM     50 2HH2 ARG B 363      39.342  -8.858 -16.452  1.00 63.96 LIG 0.17  HD
ATOM     51 1HH1 ARG B 363      39.080 -12.026 -15.559  1.00 63.92 LIG 0.17  HD
ATOM     52 2HH1 ARG B 363      38.317 -10.883 -16.131  1.00 63.92 LIG 0.17  HD
ENDBRANCH 43 44
ENDBRANCH 42 43
ENDBRANCH 41 42
ENDBRANCH 37 41
ENDBRANCH 35 37
ENDBRANCH 29 33
ENDBRANCH 3 29
TORSDOF 19
ENDMDL
MODEL 35
USER: ADFR SOLUTION from run 73
USER: SCORE 15.343653 LL:  -4.387 LR: -12.981 RR:   0.000 FEB:  -7.313
USER: RMSD 5.768541
USER: SEED 72
USER: STATUS no improvement in best in 11 clusters for 5 generations
USER: GENES 21
USER: genes 0 Translation |==|  0.52879 0.71401 0.42653
USER: genes 1 Rotation |==|  0.27837 0.56298 0.94374 0.50295
USER: genes 2 Torsion [N]-C--CA-[N] |==|  0.86462
USER: genes 3 Torsion [C]-CA--N-[C] |==|  0.43833
USER: genes 4 Torsion [N]-C--CA-[N] |==|  0.57119
USER: genes 5 Torsion [C]-CA--N-[C] |==|  0.21529
USER: genes 6 Torsion [N]-C--CA-[N] |==|  0.96594
USER: genes 7 Torsion [N]-C--CA-[N] |==|  0.35196
USER: genes 8 Torsion [C]-CA--CB-[CG] |==|  0.04485
USER: genes 9 Torsion [CA]-CB--CG-[CD] |==|  0.58096
USER: genes 10 Torsion [CB]-CG--CD-[OE2] |==|  0.81723
USER: genes 11 Torsion [C]-N--CA-[CB] |==|  0.17497
USER: genes 12 Torsion [N]-CA--CB-[OG] |==|  0.74451
USER: genes 13 Torsion [CA]-CB--OG-[HG] |==|  0.15703
USER: genes 14 Torsion [N]-CA--C-[N] |==|  0.28272
USER: genes 15 Torsion [C]-N--CA-[CB] |==|  0.52702
USER: genes 16 Torsion [N]-CA--C-[OXT] |==|  0.90397
USER: genes 17 Torsion [N]-CA--CB-[CG] |==|  0.30593
USER: genes 18 Torsion [CA]-CB--CG-[CD] |==|  0.78760
USER: genes 19 Torsion [CB]-CG--CD-[NE] |==|  0.88289
USER: genes 20 Torsion [CG]-CD--NE-[HE] |==|  0.82734
ROOT
ATOM      1  C   GLY B 361      38.893  -8.265 -11.099  1.00 26.32 LIG 0.24  C 
ATOM      2 O    GLY B 361      38.599  -7.080 -11.259  1.00 25.16 LIG-0.27  OA
ATOM      3  N   SER B 362      39.761  -8.904 -11.877  1.00 27.60 LIG-0.34  N 
ATOM      4 H    SER B 362      39.965  -9.734 -11.788  1.00 27.60 LIG 0.16  HD
ENDROOT
BRANCH 1 5
ATOM      5  CA  GLY B 361      38.251  -9.069  -9.983  1.00 24.90 LIG 0.23  C 
BRANCH 5 6
ATOM      6  N   GLY B 361      37.738 -10.331 -10.488  1.00 24.70 LIG-0.35  N 
ATOM      7  C   GLY B 360      37.540 -11.364  -9.673  1.00 25.98 LIG 0.23  C 
ATOM      8 O    GLY B 360      37.796 -11.332  -8.462  1.00 23.45 LIG-0.27  OA
ATOM      9 H    GLY B 361      37.582 -10.344 -11.334  1.00 24.70 LIG 0.16  HD
BRANCH 7 10
ATOM     10  CA  GLY B 360      36.986 -12.623 -10.304  1.00 26.97 LIG 0.23  C 
BRANCH 10 11
ATOM     11  N   GLY B 360      36.274 -13.411  -9.318  1.00 32.20 LIG-0.35  N 
ATOM     12  C   PRO B 359      35.048 -13.074  -8.931  1.00 35.92 LIG 0.24  C 
ATOM     13 O    PRO B 359      34.452 -12.093  -9.370  1.00 37.04 LIG-0.27  OA
ATOM     14 H    GLY B 360      36.706 -14.092  -9.020  1.00 32.20 LIG 0.16  HD
BRANCH 12 15
ATOM     15  CA  PRO B 359      34.400 -13.981  -7.890  1.00 39.21 LIG 0.18  C 
ATOM     16  CB  PRO B 359      34.413 -13.364  -6.494  1.00 38.88 LIG 0.04  C 
ATOM     17  CG  PRO B 359      35.711 -13.847  -5.932  1.00 39.81 LIG 0.02  C 
ATOM     18  CD  PRO B 359      35.707 -15.303  -6.344  1.00 41.55 LIG 0.13  C 
ATOM     19  N   PRO B 359      35.129 -15.239  -7.699  1.00 42.03 LIG-0.34  N 
ATOM     20  C   GLU B 358      35.285 -16.129  -8.690  1.00 44.90 LIG 0.26  C 
ATOM     21 O    GLU B 358      34.827 -15.937  -9.817  1.00 45.02 LIG-0.27  OA
BRANCH 20 22
ATOM     22  CA  GLU B 358      36.065 -17.402  -8.367  1.00 48.47 LIG 0.40  C 
ATOM     23  N   GLU B 358      35.265 -18.608  -8.739  1.00 49.88 LIG 0.61  N 
BRANCH 22 24
ATOM     24  CB  GLU B 358      37.395 -17.392  -9.130  1.00 52.00 LIG 0.06  C 
BRANCH 24 25
ATOM     25  CG  GLU B 358      37.806 -16.030  -9.683  1.00 56.00 LIG 0.12  C 
BRANCH 25 26
ATOM     26  CD  GLU B 358      38.650 -16.138 -10.943  1.00 58.41 LIG 0.17  C 
ATOM     27 OE1  GLU B 358      38.173 -15.705 -12.016  1.00 59.40 LIG-0.65  OA
ATOM     28 OE2  GLU B 358      39.786 -16.654 -10.859  1.00 59.45 LIG-0.65  OA
ENDBRANCH 25 26
ENDBRANCH 24 25
ENDBRANCH 22 24
ENDBRANCH 20 22
ENDBRANCH 12 15
ENDBRANCH 10 11
ENDBRANCH 7 10
ENDBRANCH 5 6
ENDBRANCH 1 5
BRANCH 3 29
ATOM     29  CA  SER B 362      40.450  -8.223 -12.969  1.00 31.63 LIG 0.20  C 
BRANCH 29 30
ATOM     30  CB  SER B 362      41.341  -7.100 -12.418  1.00 29.14 LIG 0.20  C 
BRANCH 30 31
ATOM     31 OG   SER B 362      40.653  -5.864 -12.378  1.00 25.13 LIG-0.40  OA
ATOM     32 HG   SER B 362      39.952  -5.947 -11.922  1.00 25.13 LIG 0.21  HD
ENDBRANCH 30 31
ENDBRANCH 29 30
BRANCH 29 33
ATOM     33  C   SER B 362      41.284  -9.113 -13.894  1.00 35.65 LIG 0.24  C 
ATOM     34 O    SER B 362      42.393  -9.501 -13.532  1.00 37.77 LIG-0.27  OA
ATOM     35  N   ARG B 363      40.766  -9.438 -15.076  1.00 40.10 LIG-0.34  N 
ATOM     36 H    ARG B 363      39.998  -9.173 -15.359  1.00 40.10 LIG 0.16  HD
BRANCH 35 37
ATOM     37  CA  ARG B 363      41.499 -10.302 -16.007  1.00 45.15 LIG 0.18  C 
BRANCH 37 38
ATOM     38  C   ARG B 363      42.958  -9.886 -16.190  1.00 46.43 LIG 0.20  C 
ATOM     39 O    ARG B 363      43.809 -10.784 -16.363  1.00 47.78 LIG-0.65  OA
ATOM     40 OXT  ARG B 363      43.237  -8.667 -16.156  1.00 47.46 LIG-0.65  OA
ENDBRANCH 37 38
BRANCH 37 41
ATOM     41  CB  ARG B 363      40.809 -10.329 -17.375  1.00 48.51 LIG 0.04  C 
BRANCH 41 42
ATOM     42  CG  ARG B 363      41.574  -9.620 -18.478  1.00 53.09 LIG 0.02  C 
BRANCH 42 43
ATOM     43  CD  ARG B 363      41.441  -8.112 -18.355  1.00 56.16 LIG 0.14  C 
BRANCH 43 44
ATOM     44  NE  ARG B 363      40.076  -7.709 -18.026  1.00 60.73 LIG-0.23  N 
ATOM     45 HE   ARG B 363      39.453  -7.898 -18.588  1.00 60.73 LIG 0.18  HD
ATOM     46  CZ  ARG B 363      39.733  -7.068 -16.910  1.00 63.15 LIG 0.67  C 
ATOM     47  NH2 ARG B 363      38.463  -6.744 -16.688  1.00 63.96 LIG-0.23  N 
ATOM     48  NH1 ARG B 363      40.659  -6.750 -16.013  1.00 63.92 LIG-0.23  N 
ATOM     49 1HH2 ARG B 363      37.859  -6.949 -17.266  1.00 63.96 LIG 0.17  HD
ATOM     50 2HH2 ARG B 363      38.246  -6.330 -15.967  1.00 63.96 LIG 0.17  HD
ATOM     51 1HH1 ARG B 363      41.482  -6.958 -16.152  1.00 63.92 LIG 0.17  HD
ATOM     52 2HH1 ARG B 363      40.436  -6.337 -15.293  1.00 63.92 LIG 0.17  HD
ENDBRANCH 43 44
ENDBRANCH 42 43
ENDBRANCH 41 42
ENDBRANCH 37 41
ENDBRANCH 35 37
ENDBRANCH 29 33
ENDBRANCH 3 29
TORSDOF 19
ENDMDL
MODEL 36
USER: ADFR SOLUTION from run 73
USER: SCORE 15.717187 LL:  -3.837 LR: -12.970 RR:   0.000 FEB:  -7.302
USER: RMSD 6.213567
USER: SEED 72
USER: STATUS no improvement in best in 11 clusters for 5 generations
USER: GENES 21
USER: genes 0 Translation |==|  0.55659 0.73488 0.43444
USER: genes 1 Rotation |==|  0.75536 0.38434 0.11308 0.64733
USER: genes 2 Torsion [N]-C--CA-[N] |==|  0.67070
USER: genes 3 Torsion [C]-CA--N-[C] |==|  0.22937
USER: genes 4 Torsion [N]-C--CA-[N] |==|  0.63837
USER: genes 5 Torsion [C]-CA--N-[C] |==|  0.43120
USER: genes 6 Torsion [N]-C--CA-[N] |==|  0.49752
USER: genes 7 Torsion [N]-C--CA-[N] |==|  0.41819
USER: genes 8 Torsion [C]-CA--CB-[CG] |==|  0.81973
USER: genes 9 Torsion [CA]-CB--CG-[CD] |==|  0.78070
USER: genes 10 Torsion [CB]-CG--CD-[OE2] |==|  0.75569
USER: genes 11 Torsion [C]-N--CA-[CB] |==|  0.81667
USER: genes 12 Torsion [N]-CA--CB-[OG] |==|  0.89347
USER: genes 13 Torsion [CA]-CB--OG-[HG] |==|  0.36237
USER: genes 14 Torsion [N]-CA--C-[N] |==|  0.43470
USER: genes 15 Torsion [C]-N--CA-[CB] |==|  0.26055
USER: genes 16 Torsion [N]-CA--C-[OXT] |==|  0.14262
USER: genes 17 Torsion [N]-CA--CB-[CG] |==|  0.08775
USER: genes 18 Torsion [CA]-CB--CG-[CD] |==|  0.61868
USER: genes 19 Torsion [CB]-CG--CD-[NE] |==|  0.22896
USER: genes 20 Torsion [CG]-CD--NE-[HE] |==|  0.70004
ROOT
ATOM      1  C   GLY B 361      39.560  -7.795 -10.915  1.00 26.32 LIG 0.24  C 
ATOM      2 O    GLY B 361      38.872  -7.075 -11.639  1.00 25.16 LIG-0.27  OA
ATOM      3  N   SER B 362      40.771  -8.219 -11.261  1.00 27.60 LIG-0.34  N 
ATOM      4 H    SER B 362      41.258  -8.734 -10.775  1.00 27.60 LIG 0.16  HD
ENDROOT
BRANCH 1 5
ATOM      5  CA  GLY B 361      39.035  -8.249  -9.565  1.00 24.90 LIG 0.23  C 
BRANCH 5 6
ATOM      6  N   GLY B 361      37.824  -9.036  -9.723  1.00 24.70 LIG-0.35  N 
ATOM      7  C   GLY B 360      37.885 -10.332 -10.018  1.00 25.98 LIG 0.23  C 
ATOM      8 O    GLY B 360      38.950 -10.938 -10.200  1.00 23.45 LIG-0.27  OA
ATOM      9 H    GLY B 361      37.093  -8.598  -9.610  1.00 24.70 LIG 0.16  HD
BRANCH 7 10
ATOM     10  CA  GLY B 360      36.562 -11.057 -10.141  1.00 26.97 LIG 0.23  C 
BRANCH 10 11
ATOM     11  N   GLY B 360      36.577 -12.273  -9.353  1.00 32.20 LIG-0.35  N 
ATOM     12  C   PRO B 359      35.448 -12.810  -8.904  1.00 35.92 LIG 0.24  C 
ATOM     13 O    PRO B 359      34.341 -12.322  -9.120  1.00 37.04 LIG-0.27  OA
ATOM     14 H    GLY B 360      37.360 -12.600  -9.209  1.00 32.20 LIG 0.16  HD
BRANCH 12 15
ATOM     15  CA  PRO B 359      35.592 -14.090  -8.088  1.00 39.21 LIG 0.18  C 
ATOM     16  CB  PRO B 359      36.140 -15.249  -8.917  1.00 38.88 LIG 0.04  C 
ATOM     17  CG  PRO B 359      34.899 -15.878  -9.465  1.00 39.81 LIG 0.02  C 
ATOM     18  CD  PRO B 359      33.999 -15.903  -8.248  1.00 41.55 LIG 0.13  C 
ATOM     19  N   PRO B 359      34.304 -14.609  -7.612  1.00 42.03 LIG-0.34  N 
ATOM     20  C   GLU B 358      33.521 -13.911  -6.778  1.00 44.90 LIG 0.26  C 
ATOM     21 O    GLU B 358      33.837 -12.793  -6.367  1.00 45.02 LIG-0.27  OA
BRANCH 20 22
ATOM     22  CA  GLU B 358      32.203 -14.557  -6.354  1.00 48.47 LIG 0.40  C 
ATOM     23  N   GLU B 358      31.811 -14.087  -4.991  1.00 49.88 LIG 0.61  N 
BRANCH 22 24
ATOM     24  CB  GLU B 358      31.112 -14.205  -7.372  1.00 52.00 LIG 0.06  C 
BRANCH 24 25
ATOM     25  CG  GLU B 358      30.757 -12.722  -7.443  1.00 56.00 LIG 0.12  C 
BRANCH 25 26
ATOM     26  CD  GLU B 358      29.842 -12.282  -6.312  1.00 58.41 LIG 0.17  C 
ATOM     27 OE1  GLU B 358      30.363 -11.833  -5.266  1.00 59.40 LIG-0.65  OA
ATOM     28 OE2  GLU B 358      28.606 -12.385  -6.470  1.00 59.45 LIG-0.65  OA
ENDBRANCH 25 26
ENDBRANCH 24 25
ENDBRANCH 22 24
ENDBRANCH 20 22
ENDBRANCH 12 15
ENDBRANCH 10 11
ENDBRANCH 7 10
ENDBRANCH 5 6
ENDBRANCH 1 5
BRANCH 3 29
ATOM     29  CA  SER B 362      41.381  -7.830 -12.530  1.00 31.63 LIG 0.20  C 
BRANCH 29 30
ATOM     30  CB  SER B 362      40.592  -8.426 -13.704  1.00 29.14 LIG 0.20  C 
BRANCH 30 31
ATOM     31 OG   SER B 362      40.141  -9.737 -13.414  1.00 25.13 LIG-0.40  OA
ATOM     32 HG   SER B 362      39.323  -9.798 -13.593  1.00 25.13 LIG 0.21  HD
ENDBRANCH 30 31
ENDBRANCH 29 30
BRANCH 29 33
ATOM     33  C   SER B 362      41.553  -6.326 -12.757  1.00 35.65 LIG 0.24  C 
ATOM     34 O    SER B 362      40.836  -5.529 -12.153  1.00 37.77 LIG-0.27  OA
ATOM     35  N   ARG B 363      42.491  -5.931 -13.616  1.00 40.10 LIG-0.34  N 
ATOM     36 H    ARG B 363      42.999  -6.465 -14.059  1.00 40.10 LIG 0.16  HD
BRANCH 35 37
ATOM     37  CA  ARG B 363      42.725  -4.506 -13.871  1.00 45.15 LIG 0.18  C 
BRANCH 37 38
ATOM     38  C   ARG B 363      43.077  -4.206 -15.327  1.00 46.43 LIG 0.20  C 
ATOM     39 O    ARG B 363      44.098  -3.524 -15.557  1.00 47.78 LIG-0.65  OA
ATOM     40 OXT  ARG B 363      42.328  -4.654 -16.223  1.00 47.46 LIG-0.65  OA
ENDBRANCH 37 38
BRANCH 37 41
ATOM     41  CB  ARG B 363      43.839  -3.972 -12.964  1.00 48.51 LIG 0.04  C 
BRANCH 41 42
ATOM     42  CG  ARG B 363      44.907  -4.993 -12.616  1.00 53.09 LIG 0.02  C 
BRANCH 42 43
ATOM     43  CD  ARG B 363      45.287  -4.909 -11.147  1.00 56.16 LIG 0.14  C 
BRANCH 43 44
ATOM     44  NE  ARG B 363      44.351  -5.643 -10.298  1.00 60.73 LIG-0.23  N 
ATOM     45 HE   ARG B 363      43.814  -5.188  -9.804  1.00 60.73 LIG 0.18  HD
ATOM     46  CZ  ARG B 363      44.276  -6.971 -10.239  1.00 63.15 LIG 0.67  C 
ATOM     47  NH2 ARG B 363      43.390  -7.557  -9.442  1.00 63.96 LIG-0.23  N 
ATOM     48  NH1 ARG B 363      45.088  -7.717 -10.980  1.00 63.92 LIG-0.23  N 
ATOM     49 1HH2 ARG B 363      42.861  -7.078  -8.961  1.00 63.96 LIG 0.17  HD
ATOM     50 2HH2 ARG B 363      43.344  -8.415  -9.406  1.00 63.96 LIG 0.17  HD
ATOM     51 1HH1 ARG B 363      45.663  -7.343 -11.498  1.00 63.92 LIG 0.17  HD
ATOM     52 2HH1 ARG B 363      45.038  -8.575 -10.942  1.00 63.92 LIG 0.17  HD
ENDBRANCH 43 44
ENDBRANCH 42 43
ENDBRANCH 41 42
ENDBRANCH 37 41
ENDBRANCH 35 37
ENDBRANCH 29 33
ENDBRANCH 3 29
TORSDOF 19
ENDMDL
MODEL 37
USER: ADFR SOLUTION from run 175
USER: SCORE 15.837517 LL:  -4.249 LR: -12.965 RR:   0.000 FEB:  -7.297
USER: RMSD 4.958322
USER: SEED 174
USER: STATUS no improvement in best in 14 clusters for 5 generations
USER: GENES 21
USER: genes 0 Translation |==|  0.55755 0.71172 0.47141
USER: genes 1 Rotation |==|  0.52030 0.52067 0.81641 0.88606
USER: genes 2 Torsion [N]-C--CA-[N] |==|  0.12680
USER: genes 3 Torsion [C]-CA--N-[C] |==|  0.20431
USER: genes 4 Torsion [N]-C--CA-[N] |==|  0.64258
USER: genes 5 Torsion [C]-CA--N-[C] |==|  0.37658
USER: genes 6 Torsion [N]-C--CA-[N] |==|  0.51418
USER: genes 7 Torsion [N]-C--CA-[N] |==|  0.31910
USER: genes 8 Torsion [C]-CA--CB-[CG] |==|  0.64085
USER: genes 9 Torsion [CA]-CB--CG-[CD] |==|  0.26627
USER: genes 10 Torsion [CB]-CG--CD-[OE2] |==|  0.29454
USER: genes 11 Torsion [C]-N--CA-[CB] |==|  0.85458
USER: genes 12 Torsion [N]-CA--CB-[OG] |==|  0.75470
USER: genes 13 Torsion [CA]-CB--OG-[HG] |==|  0.55489
USER: genes 14 Torsion [N]-CA--C-[N] |==|  0.31111
USER: genes 15 Torsion [C]-N--CA-[CB] |==|  0.46467
USER: genes 16 Torsion [N]-CA--C-[OXT] |==|  0.94128
USER: genes 17 Torsion [N]-CA--CB-[CG] |==|  0.26642
USER: genes 18 Torsion [CA]-CB--CG-[CD] |==|  0.77252
USER: genes 19 Torsion [CB]-CG--CD-[NE] |==|  0.21359
USER: genes 20 Torsion [CG]-CD--NE-[HE] |==|  0.13527
ROOT
ATOM      1  C   GLY B 361      39.583  -8.316 -10.056  1.00 26.32 LIG 0.24  C 
ATOM      2 O    GLY B 361      40.782  -8.365  -9.783  1.00 25.16 LIG-0.27  OA
ATOM      3  N   SER B 362      39.132  -8.088 -11.285  1.00 27.60 LIG-0.34  N 
ATOM      4 H    SER B 362      38.298  -8.036 -11.489  1.00 27.60 LIG 0.16  HD
ENDROOT
BRANCH 1 5
ATOM      5  CA  GLY B 361      38.542  -8.512  -8.968  1.00 24.90 LIG 0.23  C 
BRANCH 5 6
ATOM      6  N   GLY B 361      37.493  -9.413  -9.417  1.00 24.70 LIG-0.35  N 
ATOM      7  C   GLY B 360      37.716 -10.720  -9.524  1.00 25.98 LIG 0.23  C 
ATOM      8 O    GLY B 360      38.810 -11.245  -9.280  1.00 23.45 LIG-0.27  OA
ATOM      9 H    GLY B 361      36.744  -9.031  -9.599  1.00 24.70 LIG 0.16  HD
BRANCH 7 10
ATOM     10  CA  GLY B 360      36.548 -11.566  -9.983  1.00 26.97 LIG 0.23  C 
BRANCH 10 11
ATOM     11  N   GLY B 360      36.342 -12.678  -9.076  1.00 32.20 LIG-0.35  N 
ATOM     12  C   PRO B 359      35.122 -13.007  -8.666  1.00 35.92 LIG 0.24  C 
ATOM     13 O    PRO B 359      34.111 -12.403  -9.016  1.00 37.04 LIG-0.27  OA
ATOM     14 H    GLY B 360      37.060 -13.087  -8.840  1.00 32.20 LIG 0.16  HD
BRANCH 12 15
ATOM     15  CA  PRO B 359      35.032 -14.196  -7.715  1.00 39.21 LIG 0.18  C 
ATOM     16  CB  PRO B 359      35.601 -15.473  -8.327  1.00 38.88 LIG 0.04  C 
ATOM     17  CG  PRO B 359      34.409 -16.074  -9.001  1.00 39.81 LIG 0.02  C 
ATOM     18  CD  PRO B 359      33.335 -15.903  -7.948  1.00 41.55 LIG 0.13  C 
ATOM     19  N   PRO B 359      33.648 -14.570  -7.402  1.00 42.03 LIG-0.34  N 
ATOM     20  C   GLU B 358      32.808 -13.733  -6.777  1.00 44.90 LIG 0.26  C 
ATOM     21 O    GLU B 358      33.152 -12.600  -6.433  1.00 45.02 LIG-0.27  OA
BRANCH 20 22
ATOM     22  CA  GLU B 358      31.392 -14.238  -6.507  1.00 48.47 LIG 0.40  C 
ATOM     23  N   GLU B 358      31.155 -14.355  -5.037  1.00 49.88 LIG 0.61  N 
BRANCH 22 24
ATOM     24  CB  GLU B 358      30.379 -13.271  -7.132  1.00 52.00 LIG 0.06  C 
BRANCH 24 25
ATOM     25  CG  GLU B 358      29.271 -12.807  -6.191  1.00 56.00 LIG 0.12  C 
BRANCH 25 26
ATOM     26  CD  GLU B 358      29.577 -11.468  -5.540  1.00 58.41 LIG 0.17  C 
ATOM     27 OE1  GLU B 358      30.437 -11.433  -4.630  1.00 59.40 LIG-0.65  OA
ATOM     28 OE2  GLU B 358      28.960 -10.456  -5.937  1.00 59.45 LIG-0.65  OA
ENDBRANCH 25 26
ENDBRANCH 24 25
ENDBRANCH 22 24
ENDBRANCH 20 22
ENDBRANCH 12 15
ENDBRANCH 10 11
ENDBRANCH 7 10
ENDBRANCH 5 6
ENDBRANCH 1 5
BRANCH 3 29
ATOM     29  CA  SER B 362      40.044  -7.903 -12.409  1.00 31.63 LIG 0.20  C 
BRANCH 29 30
ATOM     30  CB  SER B 362      41.084  -6.822 -12.078  1.00 29.14 LIG 0.20  C 
BRANCH 30 31
ATOM     31 OG   SER B 362      40.620  -5.531 -12.428  1.00 25.13 LIG-0.40  OA
ATOM     32 HG   SER B 362      41.272  -5.007 -12.495  1.00 25.13 LIG 0.21  HD
ENDBRANCH 30 31
ENDBRANCH 29 30
BRANCH 29 33
ATOM     33  C   SER B 362      40.769  -9.159 -12.898  1.00 35.65 LIG 0.24  C 
ATOM     34 O    SER B 362      41.614  -9.696 -12.183  1.00 37.77 LIG-0.27  OA
ATOM     35  N   ARG B 363      40.452  -9.631 -14.102  1.00 40.10 LIG-0.34  N 
ATOM     36 H    ARG B 363      39.874  -9.271 -14.627  1.00 40.10 LIG 0.16  HD
BRANCH 35 37
ATOM     37  CA  ARG B 363      41.092 -10.840 -14.629  1.00 45.15 LIG 0.18  C 
BRANCH 37 38
ATOM     38  C   ARG B 363      42.565 -10.636 -14.980  1.00 46.43 LIG 0.20  C 
ATOM     39 O    ARG B 363      43.301 -11.644 -15.044  1.00 47.78 LIG-0.65  OA
ATOM     40 OXT  ARG B 363      42.970  -9.471 -15.185  1.00 47.46 LIG-0.65  OA
ENDBRANCH 37 38
BRANCH 37 41
ATOM     41  CB  ARG B 363      40.346 -11.350 -15.867  1.00 48.51 LIG 0.04  C 
BRANCH 41 42
ATOM     42  CG  ARG B 363      40.936 -10.890 -17.188  1.00 53.09 LIG 0.02  C 
BRANCH 42 43
ATOM     43  CD  ARG B 363      40.469  -9.488 -17.537  1.00 56.16 LIG 0.14  C 
BRANCH 43 44
ATOM     44  NE  ARG B 363      41.174  -8.468 -16.765  1.00 60.73 LIG-0.23  N 
ATOM     45 HE   ARG B 363      42.032  -8.514 -16.727  1.00 60.73 LIG 0.18  HD
ATOM     46  CZ  ARG B 363      40.575  -7.472 -16.116  1.00 63.15 LIG 0.67  C 
ATOM     47  NH2 ARG B 363      41.297  -6.583 -15.441  1.00 63.96 LIG-0.23  N 
ATOM     48  NH1 ARG B 363      39.252  -7.362 -16.141  1.00 63.92 LIG-0.23  N 
ATOM     49 1HH2 ARG B 363      42.154  -6.650 -15.422  1.00 63.96 LIG 0.17  HD
ATOM     50 2HH2 ARG B 363      40.906  -5.941 -15.023  1.00 63.96 LIG 0.17  HD
ATOM     51 1HH1 ARG B 363      38.781  -7.934 -16.577  1.00 63.92 LIG 0.17  HD
ATOM     52 2HH1 ARG B 363      38.866  -6.717 -15.722  1.00 63.92 LIG 0.17  HD
ENDBRANCH 43 44
ENDBRANCH 42 43
ENDBRANCH 41 42
ENDBRANCH 37 41
ENDBRANCH 35 37
ENDBRANCH 29 33
ENDBRANCH 3 29
TORSDOF 19
ENDMDL
MODEL 38
USER: ADFR SOLUTION from run 130
USER: SCORE 15.749021 LL:  -4.214 LR: -12.887 RR:   0.000 FEB:  -7.220
USER: RMSD 9.142734
USER: SEED 129
USER: STATUS no improvement in best in 18 clusters for 5 generations
USER: GENES 21
USER: genes 0 Translation |==|  0.22348 0.51116 0.61089
USER: genes 1 Rotation |==|  0.32965 0.34387 0.70669 0.89228
USER: genes 2 Torsion [N]-C--CA-[N] |==|  0.50290
USER: genes 3 Torsion [C]-CA--N-[C] |==|  0.29757
USER: genes 4 Torsion [N]-C--CA-[N] |==|  0.29518
USER: genes 5 Torsion [C]-CA--N-[C] |==|  0.34949
USER: genes 6 Torsion [N]-C--CA-[N] |==|  0.27551
USER: genes 7 Torsion [N]-C--CA-[N] |==|  0.48938
USER: genes 8 Torsion [C]-CA--CB-[CG] |==|  0.45795
USER: genes 9 Torsion [CA]-CB--CG-[CD] |==|  0.03921
USER: genes 10 Torsion [CB]-CG--CD-[OE2] |==|  0.70986
USER: genes 11 Torsion [C]-N--CA-[CB] |==|  0.16813
USER: genes 12 Torsion [N]-CA--CB-[OG] |==|  0.13283
USER: genes 13 Torsion [CA]-CB--OG-[HG] |==|  0.04768
USER: genes 14 Torsion [N]-CA--C-[N] |==|  0.63333
USER: genes 15 Torsion [C]-N--CA-[CB] |==|  0.26586
USER: genes 16 Torsion [N]-CA--C-[OXT] |==|  0.04607
USER: genes 17 Torsion [N]-CA--CB-[CG] |==|  0.96970
USER: genes 18 Torsion [CA]-CB--CG-[CD] |==|  0.74389
USER: genes 19 Torsion [CB]-CG--CD-[NE] |==|  0.88465
USER: genes 20 Torsion [CG]-CD--NE-[HE] |==|  0.79830
ROOT
ATOM      1  C   GLY B 361      31.565 -12.829  -6.813  1.00 26.32 LIG 0.24  C 
ATOM      2 O    GLY B 361      31.834 -13.045  -5.631  1.00 25.16 LIG-0.27  OA
ATOM      3  N   SER B 362      32.470 -12.905  -7.784  1.00 27.60 LIG-0.34  N 
ATOM      4 H    SER B 362      32.303 -12.743  -8.611  1.00 27.60 LIG 0.16  HD
ENDROOT
BRANCH 1 5
ATOM      5  CA  GLY B 361      30.154 -12.446  -7.220  1.00 24.90 LIG 0.23  C 
BRANCH 5 6
ATOM      6  N   GLY B 361      29.284 -12.378  -6.058  1.00 24.70 LIG-0.35  N 
ATOM      7  C   GLY B 360      28.867 -11.207  -5.584  1.00 25.98 LIG 0.23  C 
ATOM      8 O    GLY B 360      29.202 -10.119  -6.071  1.00 23.45 LIG-0.27  OA
ATOM      9 H    GLY B 361      29.074 -13.141  -5.720  1.00 24.70 LIG 0.16  HD
BRANCH 7 10
ATOM     10  CA  GLY B 360      27.951 -11.256  -4.380  1.00 26.97 LIG 0.23  C 
BRANCH 10 11
ATOM     11  N   GLY B 360      28.662 -10.843  -3.187  1.00 32.20 LIG-0.35  N 
ATOM     12  C   PRO B 359      28.195  -9.866  -2.417  1.00 35.92 LIG 0.24  C 
ATOM     13 O    PRO B 359      27.155  -9.259  -2.662  1.00 37.04 LIG-0.27  OA
ATOM     14 H    GLY B 360      29.388 -11.277  -3.032  1.00 32.20 LIG 0.16  HD
BRANCH 12 15
ATOM     15  CA  PRO B 359      29.029  -9.523  -1.188  1.00 39.21 LIG 0.18  C 
ATOM     16  CB  PRO B 359      28.166  -9.113   0.003  1.00 38.88 LIG 0.04  C 
ATOM     17  CG  PRO B 359      28.040  -7.634  -0.176  1.00 39.81 LIG 0.02  C 
ATOM     18  CD  PRO B 359      29.459  -7.239  -0.522  1.00 41.55 LIG 0.13  C 
ATOM     19  N   PRO B 359      29.886  -8.350  -1.391  1.00 42.03 LIG-0.34  N 
ATOM     20  C   GLU B 358      30.854  -8.328  -2.319  1.00 44.90 LIG 0.26  C 
ATOM     21 O    GLU B 358      31.076  -9.292  -3.054  1.00 45.02 LIG-0.27  OA
BRANCH 20 22
ATOM     22  CA  GLU B 358      31.680  -7.048  -2.435  1.00 48.47 LIG 0.40  C 
ATOM     23  N   GLU B 358      32.767  -7.223  -3.444  1.00 49.88 LIG 0.61  N 
BRANCH 22 24
ATOM     24  CB  GLU B 358      30.764  -5.886  -2.838  1.00 52.00 LIG 0.06  C 
BRANCH 24 25
ATOM     25  CG  GLU B 358      31.368  -4.498  -2.641  1.00 56.00 LIG 0.12  C 
BRANCH 25 26
ATOM     26  CD  GLU B 358      32.869  -4.539  -2.409  1.00 58.41 LIG 0.17  C 
ATOM     27 OE1  GLU B 358      33.617  -4.751  -3.391  1.00 59.40 LIG-0.65  OA
ATOM     28 OE2  GLU B 358      33.300  -4.358  -1.249  1.00 59.45 LIG-0.65  OA
ENDBRANCH 25 26
ENDBRANCH 24 25
ENDBRANCH 22 24
ENDBRANCH 20 22
ENDBRANCH 12 15
ENDBRANCH 10 11
ENDBRANCH 7 10
ENDBRANCH 5 6
ENDBRANCH 1 5
BRANCH 3 29
ATOM     29  CA  SER B 362      33.854 -13.282  -7.508  1.00 31.63 LIG 0.20  C 
BRANCH 29 30
ATOM     30  CB  SER B 362      33.909 -14.690  -6.897  1.00 29.14 LIG 0.20  C 
BRANCH 30 31
ATOM     31 OG   SER B 362      33.120 -15.606  -7.632  1.00 25.13 LIG-0.40  OA
ATOM     32 HG   SER B 362      32.952 -15.287  -8.391  1.00 25.13 LIG 0.21  HD
ENDBRANCH 30 31
ENDBRANCH 29 30
BRANCH 29 33
ATOM     33  C   SER B 362      34.816 -13.215  -8.696  1.00 35.65 LIG 0.24  C 
ATOM     34 O    SER B 362      34.837 -12.215  -9.412  1.00 37.77 LIG-0.27  OA
ATOM     35  N   ARG B 363      35.609 -14.262  -8.913  1.00 40.10 LIG-0.34  N 
ATOM     36 H    ARG B 363      35.609 -14.978  -8.436  1.00 40.10 LIG 0.16  HD
BRANCH 35 37
ATOM     37  CA  ARG B 363      36.569 -14.262 -10.022  1.00 45.15 LIG 0.18  C 
BRANCH 37 38
ATOM     38  C   ARG B 363      36.688 -15.620 -10.712  1.00 46.43 LIG 0.20  C 
ATOM     39 O    ARG B 363      37.680 -15.822 -11.446  1.00 47.78 LIG-0.65  OA
ATOM     40 OXT  ARG B 363      35.790 -16.466 -10.516  1.00 47.46 LIG-0.65  OA
ENDBRANCH 37 38
BRANCH 37 41
ATOM     41  CB  ARG B 363      37.954 -13.822  -9.535  1.00 48.51 LIG 0.04  C 
BRANCH 41 42
ATOM     42  CG  ARG B 363      37.971 -13.246  -8.131  1.00 53.09 LIG 0.02  C 
BRANCH 42 43
ATOM     43  CD  ARG B 363      37.805 -11.736  -8.156  1.00 56.16 LIG 0.14  C 
BRANCH 43 44
ATOM     44  NE  ARG B 363      38.581 -11.119  -9.228  1.00 60.73 LIG-0.23  N 
ATOM     45 HE   ARG B 363      39.436 -11.083  -9.138  1.00 60.73 LIG 0.18  HD
ATOM     46  CZ  ARG B 363      38.052 -10.607 -10.338  1.00 63.15 LIG 0.67  C 
ATOM     47  NH2 ARG B 363      38.835 -10.068 -11.266  1.00 63.96 LIG-0.23  N 
ATOM     48  NH1 ARG B 363      36.737 -10.634 -10.522  1.00 63.92 LIG-0.23  N 
ATOM     49 1HH2 ARG B 363      39.688 -10.049 -11.152  1.00 63.96 LIG 0.17  HD
ATOM     50 2HH2 ARG B 363      38.490  -9.739 -11.981  1.00 63.96 LIG 0.17  HD
ATOM     51 1HH1 ARG B 363      36.226 -10.982  -9.924  1.00 63.92 LIG 0.17  HD
ATOM     52 2HH1 ARG B 363      36.396 -10.303 -11.239  1.00 63.92 LIG 0.17  HD
ENDBRANCH 43 44
ENDBRANCH 42 43
ENDBRANCH 41 42
ENDBRANCH 37 41
ENDBRANCH 35 37
ENDBRANCH 29 33
ENDBRANCH 3 29
TORSDOF 19
ENDMDL
MODEL 39
USER: ADFR SOLUTION from run 109
USER: SCORE 15.487732 LL:  -3.548 LR: -12.876 RR:   0.000 FEB:  -7.208
USER: RMSD 4.638477
USER: SEED 108
USER: STATUS no improvement in best in 13 clusters for 5 generations
USER: GENES 21
USER: genes 0 Translation |==|  0.49544 0.54860 0.42971
USER: genes 1 Rotation |==|  0.43682 0.42457 0.62682 0.97353
USER: genes 2 Torsion [N]-C--CA-[N] |==|  0.48303
USER: genes 3 Torsion [C]-CA--N-[C] |==|  0.73386
USER: genes 4 Torsion [N]-C--CA-[N] |==|  0.45530
USER: genes 5 Torsion [C]-CA--N-[C] |==|  0.53180
USER: genes 6 Torsion [N]-C--CA-[N] |==|  0.62960
USER: genes 7 Torsion [N]-C--CA-[N] |==|  0.33963
USER: genes 8 Torsion [C]-CA--CB-[CG] |==|  0.34906
USER: genes 9 Torsion [CA]-CB--CG-[CD] |==|  0.96841
USER: genes 10 Torsion [CB]-CG--CD-[OE2] |==|  0.27297
USER: genes 11 Torsion [C]-N--CA-[CB] |==|  0.20264
USER: genes 12 Torsion [N]-CA--CB-[OG] |==|  0.19904
USER: genes 13 Torsion [CA]-CB--OG-[HG] |==|  0.98955
USER: genes 14 Torsion [N]-CA--C-[N] |==|  0.99325
USER: genes 15 Torsion [C]-N--CA-[CB] |==|  0.83772
USER: genes 16 Torsion [N]-CA--C-[OXT] |==|  0.98844
USER: genes 17 Torsion [N]-CA--CB-[CG] |==|  0.77505
USER: genes 18 Torsion [CA]-CB--CG-[CD] |==|  0.82698
USER: genes 19 Torsion [CB]-CG--CD-[NE] |==|  0.19950
USER: genes 20 Torsion [CG]-CD--NE-[HE] |==|  0.09003
ROOT
ATOM      1  C   GLY B 361      38.093 -11.987 -11.025  1.00 26.32 LIG 0.24  C 
ATOM      2 O    GLY B 361      38.608 -12.786 -10.244  1.00 25.16 LIG-0.27  OA
ATOM      3  N   SER B 362      38.512 -11.828 -12.276  1.00 27.60 LIG-0.34  N 
ATOM      4 H    SER B 362      38.173 -11.264 -12.829  1.00 27.60 LIG 0.16  HD
ENDROOT
BRANCH 1 5
ATOM      5  CA  GLY B 361      36.931 -11.118 -10.576  1.00 24.90 LIG 0.23  C 
BRANCH 5 6
ATOM      6  N   GLY B 361      36.490 -11.497  -9.245  1.00 24.70 LIG-0.35  N 
ATOM      7  C   GLY B 360      35.471 -12.336  -9.076  1.00 25.98 LIG 0.23  C 
ATOM      8 O    GLY B 360      34.827 -12.820 -10.016  1.00 23.45 LIG-0.27  OA
ATOM      9 H    GLY B 361      36.937 -11.140  -8.602  1.00 24.70 LIG 0.16  HD
BRANCH 7 10
ATOM     10  CA  GLY B 360      35.109 -12.676  -7.646  1.00 26.97 LIG 0.23  C 
BRANCH 10 11
ATOM     11  N   GLY B 360      33.789 -13.271  -7.586  1.00 32.20 LIG-0.35  N 
ATOM     12  C   PRO B 359      33.169 -13.442  -6.424  1.00 35.92 LIG 0.24  C 
ATOM     13 O    PRO B 359      33.663 -13.119  -5.346  1.00 37.04 LIG-0.27  OA
ATOM     14 H    GLY B 360      33.460 -13.492  -8.349  1.00 32.20 LIG 0.16  HD
BRANCH 12 15
ATOM     15  CA  PRO B 359      31.784 -14.076  -6.490  1.00 39.21 LIG 0.18  C 
ATOM     16  CB  PRO B 359      31.181 -14.011  -7.891  1.00 38.88 LIG 0.04  C 
ATOM     17  CG  PRO B 359      30.453 -12.705  -7.875  1.00 39.81 LIG 0.02  C 
ATOM     18  CD  PRO B 359      29.763 -12.749  -6.529  1.00 41.55 LIG 0.13  C 
ATOM     19  N   PRO B 359      30.794 -13.365  -5.674  1.00 42.03 LIG-0.34  N 
ATOM     20  C   GLU B 358      30.915 -13.255  -4.343  1.00 44.90 LIG 0.26  C 
ATOM     21 O    GLU B 358      31.867 -13.743  -3.732  1.00 45.02 LIG-0.27  OA
BRANCH 20 22
ATOM     22  CA  GLU B 358      29.819 -12.489  -3.603  1.00 48.47 LIG 0.40  C 
ATOM     23  N   GLU B 358      29.190 -13.360  -2.565  1.00 49.88 LIG 0.61  N 
BRANCH 22 24
ATOM     24  CB  GLU B 358      30.422 -11.238  -2.953  1.00 52.00 LIG 0.06  C 
BRANCH 24 25
ATOM     25  CG  GLU B 358      29.729  -9.929  -3.321  1.00 56.00 LIG 0.12  C 
BRANCH 25 26
ATOM     26  CD  GLU B 358      28.751 -10.086  -4.473  1.00 58.41 LIG 0.17  C 
ATOM     27 OE1  GLU B 358      29.202 -10.080  -5.641  1.00 59.40 LIG-0.65  OA
ATOM     28 OE2  GLU B 358      27.535 -10.217  -4.211  1.00 59.45 LIG-0.65  OA
ENDBRANCH 25 26
ENDBRANCH 24 25
ENDBRANCH 22 24
ENDBRANCH 20 22
ENDBRANCH 12 15
ENDBRANCH 10 11
ENDBRANCH 7 10
ENDBRANCH 5 6
ENDBRANCH 1 5
BRANCH 3 29
ATOM     29  CA  SER B 362      39.610 -12.623 -12.819  1.00 31.63 LIG 0.20  C 
BRANCH 29 30
ATOM     30  CB  SER B 362      39.147 -14.067 -13.068  1.00 29.14 LIG 0.20  C 
BRANCH 30 31
ATOM     31 OG   SER B 362      38.266 -14.146 -14.173  1.00 25.13 LIG-0.40  OA
ATOM     32 HG   SER B 362      38.112 -13.374 -14.465  1.00 25.13 LIG 0.21  HD
ENDBRANCH 30 31
ENDBRANCH 29 30
BRANCH 29 33
ATOM     33  C   SER B 362      40.265 -12.082 -14.092  1.00 35.65 LIG 0.24  C 
ATOM     34 O    SER B 362      41.225 -12.673 -14.584  1.00 37.77 LIG-0.27  OA
ATOM     35  N   ARG B 363      39.760 -10.973 -14.627  1.00 40.10 LIG-0.34  N 
ATOM     36 H    ARG B 363      39.096 -10.535 -14.299  1.00 40.10 LIG 0.16  HD
BRANCH 35 37
ATOM     37  CA  ARG B 363      40.324 -10.407 -15.856  1.00 45.15 LIG 0.18  C 
BRANCH 37 38
ATOM     38  C   ARG B 363      40.162 -11.321 -17.069  1.00 46.43 LIG 0.20  C 
ATOM     39 O    ARG B 363      40.536 -10.895 -18.183  1.00 47.78 LIG-0.65  OA
ATOM     40 OXT  ARG B 363      39.660 -12.453 -16.896  1.00 47.46 LIG-0.65  OA
ENDBRANCH 37 38
BRANCH 37 41
ATOM     41  CB  ARG B 363      41.810 -10.081 -15.667  1.00 48.51 LIG 0.04  C 
BRANCH 41 42
ATOM     42  CG  ARG B 363      42.078  -8.766 -14.959  1.00 53.09 LIG 0.02  C 
BRANCH 42 43
ATOM     43  CD  ARG B 363      41.537  -7.593 -15.758  1.00 56.16 LIG 0.14  C 
BRANCH 43 44
ATOM     44  NE  ARG B 363      40.077  -7.539 -15.729  1.00 60.73 LIG-0.23  N 
ATOM     45 HE   ARG B 363      39.678  -7.814 -15.019  1.00 60.73 LIG 0.18  HD
ATOM     46  CZ  ARG B 363      39.324  -7.090 -16.732  1.00 63.15 LIG 0.67  C 
ATOM     47  NH2 ARG B 363      38.000  -7.071 -16.617  1.00 63.96 LIG-0.23  N 
ATOM     48  NH1 ARG B 363      39.894  -6.658 -17.851  1.00 63.92 LIG-0.23  N 
ATOM     49 1HH2 ARG B 363      37.627  -7.349 -15.894  1.00 63.96 LIG 0.17  HD
ATOM     50 2HH2 ARG B 363      37.518  -6.780 -17.267  1.00 63.96 LIG 0.17  HD
ATOM     51 1HH1 ARG B 363      40.750  -6.668 -17.929  1.00 63.92 LIG 0.17  HD
ATOM     52 2HH1 ARG B 363      39.407  -6.368 -18.497  1.00 63.92 LIG 0.17  HD
ENDBRANCH 43 44
ENDBRANCH 42 43
ENDBRANCH 41 42
ENDBRANCH 37 41
ENDBRANCH 35 37
ENDBRANCH 29 33
ENDBRANCH 3 29
TORSDOF 19
ENDMDL
MODEL 40
USER: ADFR SOLUTION from run 196
USER: SCORE 15.526487 LL:  -3.560 LR: -12.838 RR:   0.000 FEB:  -7.170
USER: RMSD 11.678950
USER: SEED 195
USER: STATUS no improvement in best in 2 clusters for 5 generations
USER: GENES 21
USER: genes 0 Translation |==|  0.25597 0.43736 0.59719
USER: genes 1 Rotation |==|  0.87103 0.44150 0.82777 0.53853
USER: genes 2 Torsion [N]-C--CA-[N] |==|  0.42792
USER: genes 3 Torsion [C]-CA--N-[C] |==|  0.53377
USER: genes 4 Torsion [N]-C--CA-[N] |==|  0.98732
USER: genes 5 Torsion [C]-CA--N-[C] |==|  0.25271
USER: genes 6 Torsion [N]-C--CA-[N] |==|  0.86593
USER: genes 7 Torsion [N]-C--CA-[N] |==|  0.39080
USER: genes 8 Torsion [C]-CA--CB-[CG] |==|  0.79074
USER: genes 9 Torsion [CA]-CB--CG-[CD] |==|  0.21747
USER: genes 10 Torsion [CB]-CG--CD-[OE2] |==|  0.12772
USER: genes 11 Torsion [C]-N--CA-[CB] |==|  0.50556
USER: genes 12 Torsion [N]-CA--CB-[OG] |==|  0.60904
USER: genes 13 Torsion [CA]-CB--OG-[HG] |==|  0.44134
USER: genes 14 Torsion [N]-CA--C-[N] |==|  0.48887
USER: genes 15 Torsion [C]-N--CA-[CB] |==|  0.35059
USER: genes 16 Torsion [N]-CA--C-[OXT] |==|  0.42269
USER: genes 17 Torsion [N]-CA--CB-[CG] |==|  0.51998
USER: genes 18 Torsion [CA]-CB--CG-[CD] |==|  0.50827
USER: genes 19 Torsion [CB]-CG--CD-[NE] |==|  0.74670
USER: genes 20 Torsion [CG]-CD--NE-[HE] |==|  0.26251
ROOT
ATOM      1  C   GLY B 361      32.345 -14.489  -7.131  1.00 26.32 LIG 0.24  C 
ATOM      2 O    GLY B 361      33.072 -13.511  -6.957  1.00 25.16 LIG-0.27  OA
ATOM      3  N   SER B 362      31.051 -14.488  -6.831  1.00 27.60 LIG-0.34  N 
ATOM      4 H    SER B 362      30.533 -15.167  -6.933  1.00 27.60 LIG 0.16  HD
ENDROOT
BRANCH 1 5
ATOM      5  CA  GLY B 361      32.915 -15.775  -7.703  1.00 24.90 LIG 0.23  C 
BRANCH 5 6
ATOM      6  N   GLY B 361      34.083 -15.500  -8.523  1.00 24.70 LIG-0.35  N 
ATOM      7  C   GLY B 360      34.599 -16.437  -9.313  1.00 25.98 LIG 0.23  C 
ATOM      8 O    GLY B 360      34.149 -17.589  -9.385  1.00 23.45 LIG-0.27  OA
ATOM      9 H    GLY B 361      34.394 -14.701  -8.450  1.00 24.70 LIG 0.16  HD
BRANCH 7 10
ATOM     10  CA  GLY B 360      35.804 -16.035 -10.136  1.00 26.97 LIG 0.23  C 
BRANCH 10 11
ATOM     11  N   GLY B 360      36.089 -14.626  -9.959  1.00 32.20 LIG-0.35  N 
ATOM     12  C   PRO B 359      36.921 -14.212  -9.009  1.00 35.92 LIG 0.24  C 
ATOM     13 O    PRO B 359      37.489 -14.977  -8.234  1.00 37.04 LIG-0.27  OA
ATOM     14 H    GLY B 360      35.682 -14.104 -10.508  1.00 32.20 LIG 0.16  HD
BRANCH 12 15
ATOM     15  CA  PRO B 359      37.144 -12.705  -8.922  1.00 39.21 LIG 0.18  C 
ATOM     16  CB  PRO B 359      35.891 -11.959  -8.472  1.00 38.88 LIG 0.04  C 
ATOM     17  CG  PRO B 359      35.202 -11.662  -9.765  1.00 39.81 LIG 0.02  C 
ATOM     18  CD  PRO B 359      36.350 -11.188 -10.629  1.00 41.55 LIG 0.13  C 
ATOM     19  N   PRO B 359      37.437 -12.097 -10.225  1.00 42.03 LIG-0.34  N 
ATOM     20  C   GLU B 358      38.521 -12.432 -10.939  1.00 44.90 LIG 0.26  C 
ATOM     21 O    GLU B 358      39.331 -13.272 -10.541  1.00 45.02 LIG-0.27  OA
BRANCH 20 22
ATOM     22  CA  GLU B 358      38.717 -11.730 -12.281  1.00 48.47 LIG 0.40  C 
ATOM     23  N   GLU B 358      40.161 -11.411 -12.493  1.00 49.88 LIG 0.61  N 
BRANCH 22 24
ATOM     24  CB  GLU B 358      38.202 -12.633 -13.409  1.00 52.00 LIG 0.06  C 
BRANCH 24 25
ATOM     25  CG  GLU B 358      39.113 -13.807 -13.756  1.00 56.00 LIG 0.12  C 
BRANCH 25 26
ATOM     26  CD  GLU B 358      38.994 -14.954 -12.766  1.00 58.41 LIG 0.17  C 
ATOM     27 OE1  GLU B 358      40.045 -15.481 -12.337  1.00 59.40 LIG-0.65  OA
ATOM     28 OE2  GLU B 358      37.852 -15.327 -12.418  1.00 59.45 LIG-0.65  OA
ENDBRANCH 25 26
ENDBRANCH 24 25
ENDBRANCH 22 24
ENDBRANCH 20 22
ENDBRANCH 12 15
ENDBRANCH 10 11
ENDBRANCH 7 10
ENDBRANCH 5 6
ENDBRANCH 1 5
BRANCH 3 29
ATOM     29  CA  SER B 362      30.394 -13.301  -6.292  1.00 31.63 LIG 0.20  C 
BRANCH 29 30
ATOM     30  CB  SER B 362      28.918 -13.599  -5.993  1.00 29.14 LIG 0.20  C 
BRANCH 30 31
ATOM     31 OG   SER B 362      28.087 -12.505  -6.336  1.00 25.13 LIG-0.40  OA
ATOM     32 HG   SER B 362      27.299 -12.774  -6.441  1.00 25.13 LIG 0.21  HD
ENDBRANCH 30 31
ENDBRANCH 29 30
BRANCH 29 33
ATOM     33  C   SER B 362      31.040 -12.684  -5.049  1.00 35.65 LIG 0.24  C 
ATOM     34 O    SER B 362      32.008 -13.234  -4.525  1.00 37.77 LIG-0.27  OA
ATOM     35  N   ARG B 363      30.521 -11.554  -4.575  1.00 40.10 LIG-0.34  N 
ATOM     36 H    ARG B 363      29.840 -11.153  -4.914  1.00 40.10 LIG 0.16  HD
BRANCH 35 37
ATOM     37  CA  ARG B 363      31.098 -10.895  -3.398  1.00 45.15 LIG 0.18  C 
BRANCH 37 38
ATOM     38  C   ARG B 363      30.191 -10.957  -2.170  1.00 46.43 LIG 0.20  C 
ATOM     39 O    ARG B 363      28.956 -11.026  -2.353  1.00 47.78 LIG-0.65  OA
ATOM     40 OXT  ARG B 363      30.721 -10.932  -1.039  1.00 47.46 LIG-0.65  OA
ENDBRANCH 37 38
BRANCH 37 41
ATOM     41  CB  ARG B 363      31.428  -9.431  -3.708  1.00 48.51 LIG 0.04  C 
BRANCH 41 42
ATOM     42  CG  ARG B 363      32.187  -8.713  -2.606  1.00 53.09 LIG 0.02  C 
BRANCH 42 43
ATOM     43  CD  ARG B 363      32.411  -7.253  -2.958  1.00 56.16 LIG 0.14  C 
BRANCH 43 44
ATOM     44  NE  ARG B 363      33.677  -7.046  -3.658  1.00 60.73 LIG-0.23  N 
ATOM     45 HE   ARG B 363      33.665  -7.037  -4.517  1.00 60.73 LIG 0.18  HD
ATOM     46  CZ  ARG B 363      34.848  -6.871  -3.050  1.00 63.15 LIG 0.67  C 
ATOM     47  NH2 ARG B 363      35.952  -6.684  -3.766  1.00 63.96 LIG-0.23  N 
ATOM     48  NH1 ARG B 363      34.919  -6.881  -1.724  1.00 63.92 LIG-0.23  N 
ATOM     49 1HH2 ARG B 363      35.911  -6.676  -4.625  1.00 63.96 LIG 0.17  HD
ATOM     50 2HH2 ARG B 363      36.707  -6.571  -3.370  1.00 63.96 LIG 0.17  HD
ATOM     51 1HH1 ARG B 363      34.207  -7.002  -1.256  1.00 63.92 LIG 0.17  HD
ATOM     52 2HH1 ARG B 363      35.676  -6.767  -1.333  1.00 63.92 LIG 0.17  HD
ENDBRANCH 43 44
ENDBRANCH 42 43
ENDBRANCH 41 42
ENDBRANCH 37 41
ENDBRANCH 35 37
ENDBRANCH 29 33
ENDBRANCH 3 29
TORSDOF 19
ENDMDL
MODEL 41
USER: ADFR SOLUTION from run 4
USER: SCORE 14.679394 LL:  -4.124 LR: -12.827 RR:   0.000 FEB:  -7.159
USER: RMSD 13.234778
USER: SEED 130104
USER: STATUS no improvement in best in 16 clusters for 5 generations
USER: GENES 21
USER: genes 0 Translation |==|  0.38073 0.52734 0.52214
USER: genes 1 Rotation |==|  0.20285 0.81988 0.36059 0.69985
USER: genes 2 Torsion [N]-C--CA-[N] |==|  0.36267
USER: genes 3 Torsion [C]-CA--N-[C] |==|  0.27347
USER: genes 4 Torsion [N]-C--CA-[N] |==|  0.63889
USER: genes 5 Torsion [C]-CA--N-[C] |==|  0.38388
USER: genes 6 Torsion [N]-C--CA-[N] |==|  0.72081
USER: genes 7 Torsion [N]-C--CA-[N] |==|  0.44202
USER: genes 8 Torsion [C]-CA--CB-[CG] |==|  0.49649
USER: genes 9 Torsion [CA]-CB--CG-[CD] |==|  0.22579
USER: genes 10 Torsion [CB]-CG--CD-[OE2] |==|  0.26642
USER: genes 11 Torsion [C]-N--CA-[CB] |==|  0.44559
USER: genes 12 Torsion [N]-CA--CB-[OG] |==|  0.13664
USER: genes 13 Torsion [CA]-CB--OG-[HG] |==|  0.00773
USER: genes 14 Torsion [N]-CA--C-[N] |==|  0.89794
USER: genes 15 Torsion [C]-N--CA-[CB] |==|  0.35140
USER: genes 16 Torsion [N]-CA--C-[OXT] |==|  0.40180
USER: genes 17 Torsion [N]-CA--CB-[CG] |==|  0.58691
USER: genes 18 Torsion [CA]-CB--CG-[CD] |==|  0.67145
USER: genes 19 Torsion [CB]-CG--CD-[NE] |==|  0.22741
USER: genes 20 Torsion [CG]-CD--NE-[HE] |==|  0.66400
ROOT
ATOM      1  C   GLY B 361      35.340 -12.465  -8.876  1.00 26.32 LIG 0.24  C 
ATOM      2 O    GLY B 361      36.306 -12.756  -8.171  1.00 25.16 LIG-0.27  OA
ATOM      3  N   SER B 362      34.085 -12.717  -8.519  1.00 27.60 LIG-0.34  N 
ATOM      4 H    SER B 362      33.400 -12.534  -9.006  1.00 27.60 LIG 0.16  HD
ENDROOT
BRANCH 1 5
ATOM      5  CA  GLY B 361      35.548 -11.797 -10.224  1.00 24.90 LIG 0.23  C 
BRANCH 5 6
ATOM      6  N   GLY B 361      36.435 -10.652 -10.098  1.00 24.70 LIG-0.35  N 
ATOM      7  C   GLY B 360      37.727 -10.754 -10.398  1.00 25.98 LIG 0.23  C 
ATOM      8 O    GLY B 360      38.257 -11.809 -10.770  1.00 23.45 LIG-0.27  OA
ATOM      9 H    GLY B 361      36.055  -9.932  -9.822  1.00 24.70 LIG 0.16  HD
BRANCH 7 10
ATOM     10  CA  GLY B 360      38.553  -9.494 -10.247  1.00 26.97 LIG 0.23  C 
BRANCH 10 11
ATOM     11  N   GLY B 360      39.331  -9.254 -11.446  1.00 32.20 LIG-0.35  N 
ATOM     12  C   PRO B 359      39.451  -8.030 -11.948  1.00 35.92 LIG 0.24  C 
ATOM     13 O    PRO B 359      38.921  -7.043 -11.444  1.00 37.04 LIG-0.27  OA
ATOM     14 H    GLY B 360      39.693  -9.956 -11.788  1.00 32.20 LIG 0.16  HD
BRANCH 12 15
ATOM     15  CA  PRO B 359      40.296  -7.903 -13.212  1.00 39.21 LIG 0.18  C 
ATOM     16  CB  PRO B 359      40.547  -9.252 -13.880  1.00 38.88 LIG 0.04  C 
ATOM     17  CG  PRO B 359      41.810  -9.713 -13.226  1.00 39.81 LIG 0.02  C 
ATOM     18  CD  PRO B 359      42.649  -8.454 -13.245  1.00 41.55 LIG 0.13  C 
ATOM     19  N   PRO B 359      41.652  -7.413 -12.942  1.00 42.03 LIG-0.34  N 
ATOM     20  C   GLU B 358      41.879  -6.203 -12.410  1.00 44.90 LIG 0.26  C 
ATOM     21 O    GLU B 358      40.960  -5.436 -12.116  1.00 45.02 LIG-0.27  OA
BRANCH 20 22
ATOM     22  CA  GLU B 358      43.336  -5.806 -12.176  1.00 48.47 LIG 0.40  C 
ATOM     23  N   GLU B 358      43.458  -4.321 -12.074  1.00 49.88 LIG 0.61  N 
BRANCH 22 24
ATOM     24  CB  GLU B 358      43.844  -6.470 -10.890  1.00 52.00 LIG 0.06  C 
BRANCH 24 25
ATOM     25  CG  GLU B 358      45.304  -6.179 -10.553  1.00 56.00 LIG 0.12  C 
BRANCH 25 26
ATOM     26  CD  GLU B 358      45.491  -4.834  -9.869  1.00 58.41 LIG 0.17  C 
ATOM     27 OE1  GLU B 358      45.581  -3.811 -10.586  1.00 59.40 LIG-0.65  OA
ATOM     28 OE2  GLU B 358      45.546  -4.801  -8.621  1.00 59.45 LIG-0.65  OA
ENDBRANCH 25 26
ENDBRANCH 24 25
ENDBRANCH 22 24
ENDBRANCH 20 22
ENDBRANCH 12 15
ENDBRANCH 10 11
ENDBRANCH 7 10
ENDBRANCH 5 6
ENDBRANCH 1 5
BRANCH 3 29
ATOM     29  CA  SER B 362      33.767 -13.340  -7.237  1.00 31.63 LIG 0.20  C 
BRANCH 29 30
ATOM     30  CB  SER B 362      32.300 -13.078  -6.868  1.00 29.14 LIG 0.20  C 
BRANCH 30 31
ATOM     31 OG   SER B 362      31.431 -13.379  -7.945  1.00 25.13 LIG-0.40  OA
ATOM     32 HG   SER B 362      31.877 -13.686  -8.587  1.00 25.13 LIG 0.21  HD
ENDBRANCH 30 31
ENDBRANCH 29 30
BRANCH 29 33
ATOM     33  C   SER B 362      34.047 -14.841  -7.134  1.00 35.65 LIG 0.24  C 
ATOM     34 O    SER B 362      34.467 -15.314  -6.079  1.00 37.77 LIG-0.27  OA
ATOM     35  N   ARG B 363      33.821 -15.591  -8.210  1.00 40.10 LIG-0.34  N 
ATOM     36 H    ARG B 363      33.537 -15.286  -8.963  1.00 40.10 LIG 0.16  HD
BRANCH 35 37
ATOM     37  CA  ARG B 363      34.049 -17.039  -8.180  1.00 45.15 LIG 0.18  C 
BRANCH 37 38
ATOM     38  C   ARG B 363      35.238 -17.478  -9.033  1.00 46.43 LIG 0.20  C 
ATOM     39 O    ARG B 363      35.456 -16.864 -10.100  1.00 47.78 LIG-0.65  OA
ATOM     40 OXT  ARG B 363      35.939 -18.431  -8.629  1.00 47.46 LIG-0.65  OA
ENDBRANCH 37 38
BRANCH 37 41
ATOM     41  CB  ARG B 363      32.795 -17.792  -8.641  1.00 48.51 LIG 0.04  C 
BRANCH 41 42
ATOM     42  CG  ARG B 363      32.607 -19.151  -7.992  1.00 53.09 LIG 0.02  C 
BRANCH 42 43
ATOM     43  CD  ARG B 363      32.629 -20.261  -9.029  1.00 56.16 LIG 0.14  C 
BRANCH 43 44
ATOM     44  NE  ARG B 363      33.992 -20.643  -9.391  1.00 60.73 LIG-0.23  N 
ATOM     45 HE   ARG B 363      34.225 -20.570 -10.215  1.00 60.73 LIG 0.18  HD
ATOM     46  CZ  ARG B 363      34.898 -21.097  -8.526  1.00 63.15 LIG 0.67  C 
ATOM     47  NH2 ARG B 363      36.119 -21.416  -8.942  1.00 63.96 LIG-0.23  N 
ATOM     48  NH1 ARG B 363      34.584 -21.231  -7.243  1.00 63.92 LIG-0.23  N 
ATOM     49 1HH2 ARG B 363      36.327 -21.330  -9.772  1.00 63.96 LIG 0.17  HD
ATOM     50 2HH2 ARG B 363      36.700 -21.709  -8.381  1.00 63.96 LIG 0.17  HD
ATOM     51 1HH1 ARG B 363      33.795 -21.025  -6.969  1.00 63.92 LIG 0.17  HD
ATOM     52 2HH1 ARG B 363      35.170 -21.524  -6.685  1.00 63.92 LIG 0.17  HD
ENDBRANCH 43 44
ENDBRANCH 42 43
ENDBRANCH 41 42
ENDBRANCH 37 41
ENDBRANCH 35 37
ENDBRANCH 29 33
ENDBRANCH 3 29
TORSDOF 19
ENDMDL
MODEL 42
USER: ADFR SOLUTION from run 4
USER: SCORE 16.168494 LL:  -4.230 LR: -12.799 RR:   0.000 FEB:  -7.132
USER: RMSD 11.868849
USER: SEED 130104
USER: STATUS no improvement in best in 16 clusters for 5 generations
USER: GENES 21
USER: genes 0 Translation |==|  0.48805 0.59592 0.47478
USER: genes 1 Rotation |==|  0.15559 0.30700 0.24203 0.66608
USER: genes 2 Torsion [N]-C--CA-[N] |==|  0.44151
USER: genes 3 Torsion [C]-CA--N-[C] |==|  0.24583
USER: genes 4 Torsion [N]-C--CA-[N] |==|  0.88931
USER: genes 5 Torsion [C]-CA--N-[C] |==|  0.81058
USER: genes 6 Torsion [N]-C--CA-[N] |==|  0.86884
USER: genes 7 Torsion [N]-C--CA-[N] |==|  0.33030
USER: genes 8 Torsion [C]-CA--CB-[CG] |==|  0.81057
USER: genes 9 Torsion [CA]-CB--CG-[CD] |==|  0.74854
USER: genes 10 Torsion [CB]-CG--CD-[OE2] |==|  0.10474
USER: genes 11 Torsion [C]-N--CA-[CB] |==|  0.15609
USER: genes 12 Torsion [N]-CA--CB-[OG] |==|  0.55528
USER: genes 13 Torsion [CA]-CB--OG-[HG] |==|  0.74454
USER: genes 14 Torsion [N]-CA--C-[N] |==|  0.61851
USER: genes 15 Torsion [C]-N--CA-[CB] |==|  0.46327
USER: genes 16 Torsion [N]-CA--C-[OXT] |==|  0.36696
USER: genes 17 Torsion [N]-CA--CB-[CG] |==|  0.49415
USER: genes 18 Torsion [CA]-CB--CG-[CD] |==|  0.71371
USER: genes 19 Torsion [CB]-CG--CD-[NE] |==|  0.28484
USER: genes 20 Torsion [CG]-CD--NE-[HE] |==|  0.67272
ROOT
ATOM      1  C   GLY B 361      37.915 -10.922  -9.977  1.00 26.32 LIG 0.24  C 
ATOM      2 O    GLY B 361      37.131  -9.984  -9.833  1.00 25.16 LIG-0.27  OA
ATOM      3  N   SER B 362      37.661 -12.150  -9.537  1.00 27.60 LIG-0.34  N 
ATOM      4 H    SER B 362      38.204 -12.811  -9.616  1.00 27.60 LIG 0.16  HD
ENDROOT
BRANCH 1 5
ATOM      5  CA  GLY B 361      39.246 -10.706 -10.676  1.00 24.90 LIG 0.23  C 
BRANCH 5 6
ATOM      6  N   GLY B 361      39.199  -9.522 -11.517  1.00 24.70 LIG-0.35  N 
ATOM      7  C   GLY B 360      39.505  -8.323 -11.026  1.00 25.98 LIG 0.23  C 
ATOM      8 O    GLY B 360      39.819  -8.133  -9.844  1.00 23.45 LIG-0.27  OA
ATOM      9 H    GLY B 361      38.963  -9.667 -12.330  1.00 24.70 LIG 0.16  HD
BRANCH 7 10
ATOM     10  CA  GLY B 360      39.439  -7.162 -11.996  1.00 26.97 LIG 0.23  C 
BRANCH 10 11
ATOM     11  N   GLY B 360      39.962  -7.555 -13.289  1.00 32.20 LIG-0.35  N 
ATOM     12  C   PRO B 359      41.253  -7.824 -13.451  1.00 35.92 LIG 0.24  C 
ATOM     13 O    PRO B 359      42.071  -7.757 -12.538  1.00 37.04 LIG-0.27  OA
ATOM     14 H    GLY B 360      39.376  -7.594 -13.917  1.00 32.20 LIG 0.16  HD
BRANCH 12 15
ATOM     15  CA  PRO B 359      41.683  -8.228 -14.857  1.00 39.21 LIG 0.18  C 
ATOM     16  CB  PRO B 359      41.585  -7.072 -15.849  1.00 38.88 LIG 0.04  C 
ATOM     17  CG  PRO B 359      40.189  -7.200 -16.368  1.00 39.81 LIG 0.02  C 
ATOM     18  CD  PRO B 359      40.081  -8.690 -16.609  1.00 41.55 LIG 0.13  C 
ATOM     19  N   PRO B 359      40.805  -9.243 -15.451  1.00 42.03 LIG-0.34  N 
ATOM     20  C   GLU B 358      40.663 -10.463 -14.912  1.00 44.90 LIG 0.26  C 
ATOM     21 O    GLU B 358      41.259 -10.798 -13.887  1.00 45.02 LIG-0.27  OA
BRANCH 20 22
ATOM     22  CA  GLU B 358      39.720 -11.433 -15.622  1.00 48.47 LIG 0.40  C 
ATOM     23  N   GLU B 358      40.468 -12.643 -16.077  1.00 49.88 LIG 0.61  N 
BRANCH 22 24
ATOM     24  CB  GLU B 358      38.589 -11.835 -14.667  1.00 52.00 LIG 0.06  C 
BRANCH 24 25
ATOM     25  CG  GLU B 358      39.025 -12.695 -13.484  1.00 56.00 LIG 0.12  C 
BRANCH 25 26
ATOM     26  CD  GLU B 358      38.953 -14.184 -13.784  1.00 58.41 LIG 0.17  C 
ATOM     27 OE1  GLU B 358      38.576 -14.955 -12.872  1.00 59.40 LIG-0.65  OA
ATOM     28 OE2  GLU B 358      39.271 -14.580 -14.926  1.00 59.45 LIG-0.65  OA
ENDBRANCH 25 26
ENDBRANCH 24 25
ENDBRANCH 22 24
ENDBRANCH 20 22
ENDBRANCH 12 15
ENDBRANCH 10 11
ENDBRANCH 7 10
ENDBRANCH 5 6
ENDBRANCH 1 5
BRANCH 3 29
ATOM     29  CA  SER B 362      36.405 -12.474  -8.866  1.00 31.63 LIG 0.20  C 
BRANCH 29 30
ATOM     30  CB  SER B 362      35.214 -12.110  -9.765  1.00 29.14 LIG 0.20  C 
BRANCH 30 31
ATOM     31 OG   SER B 362      34.020 -11.978  -9.016  1.00 25.13 LIG-0.40  OA
ATOM     32 HG   SER B 362      33.617 -12.714  -8.999  1.00 25.13 LIG 0.21  HD
ENDBRANCH 30 31
ENDBRANCH 29 30
BRANCH 29 33
ATOM     33  C   SER B 362      36.251 -13.922  -8.396  1.00 35.65 LIG 0.24  C 
ATOM     34 O    SER B 362      37.196 -14.494  -7.854  1.00 37.77 LIG-0.27  OA
ATOM     35  N   ARG B 363      35.078 -14.518  -8.595  1.00 40.10 LIG-0.34  N 
ATOM     36 H    ARG B 363      34.404 -14.147  -8.979  1.00 40.10 LIG 0.16  HD
BRANCH 35 37
ATOM     37  CA  ARG B 363      34.850 -15.899  -8.154  1.00 45.15 LIG 0.18  C 
BRANCH 37 38
ATOM     38  C   ARG B 363      35.622 -16.927  -8.979  1.00 46.43 LIG 0.20  C 
ATOM     39 O    ARG B 363      35.569 -16.842 -10.225  1.00 47.78 LIG-0.65  OA
ATOM     40 OXT  ARG B 363      36.269 -17.809  -8.374  1.00 47.46 LIG-0.65  OA
ENDBRANCH 37 38
BRANCH 37 41
ATOM     41  CB  ARG B 363      33.357 -16.239  -8.196  1.00 48.51 LIG 0.04  C 
BRANCH 41 42
ATOM     42  CG  ARG B 363      33.028 -17.668  -7.804  1.00 53.09 LIG 0.02  C 
BRANCH 42 43
ATOM     43  CD  ARG B 363      32.723 -18.515  -9.027  1.00 56.16 LIG 0.14  C 
BRANCH 43 44
ATOM     44  NE  ARG B 363      33.848 -19.374  -9.390  1.00 60.73 LIG-0.23  N 
ATOM     45 HE   ARG B 363      34.214 -19.255 -10.159  1.00 60.73 LIG 0.18  HD
ATOM     46  CZ  ARG B 363      34.343 -20.331  -8.607  1.00 63.15 LIG 0.67  C 
ATOM     47  NH2 ARG B 363      35.374 -21.063  -9.016  1.00 63.96 LIG-0.23  N 
ATOM     48  NH1 ARG B 363      33.810 -20.556  -7.412  1.00 63.92 LIG-0.23  N 
ATOM     49 1HH2 ARG B 363      35.724 -20.920  -9.789  1.00 63.96 LIG 0.17  HD
ATOM     50 2HH2 ARG B 363      35.691 -21.680  -8.508  1.00 63.96 LIG 0.17  HD
ATOM     51 1HH1 ARG B 363      33.143 -20.084  -7.143  1.00 63.92 LIG 0.17  HD
ATOM     52 2HH1 ARG B 363      34.131 -21.173  -6.907  1.00 63.92 LIG 0.17  HD
ENDBRANCH 43 44
ENDBRANCH 42 43
ENDBRANCH 41 42
ENDBRANCH 37 41
ENDBRANCH 35 37
ENDBRANCH 29 33
ENDBRANCH 3 29
TORSDOF 19
ENDMDL
MODEL 43
USER: ADFR SOLUTION from run 73
USER: SCORE 15.219632 LL:  -3.708 LR: -12.726 RR:   0.000 FEB:  -7.059
USER: RMSD 6.725169
USER: SEED 72
USER: STATUS no improvement in best in 11 clusters for 5 generations
USER: GENES 21
USER: genes 0 Translation |==|  0.54480 0.72188 0.42366
USER: genes 1 Rotation |==|  0.78087 0.42749 0.09909 0.57162
USER: genes 2 Torsion [N]-C--CA-[N] |==|  0.80999
USER: genes 3 Torsion [C]-CA--N-[C] |==|  0.43726
USER: genes 4 Torsion [N]-C--CA-[N] |==|  0.58328
USER: genes 5 Torsion [C]-CA--N-[C] |==|  0.21450
USER: genes 6 Torsion [N]-C--CA-[N] |==|  0.94191
USER: genes 7 Torsion [N]-C--CA-[N] |==|  0.34544
USER: genes 8 Torsion [C]-CA--CB-[CG] |==|  0.07470
USER: genes 9 Torsion [CA]-CB--CG-[CD] |==|  0.61322
USER: genes 10 Torsion [CB]-CG--CD-[OE2] |==|  0.69134
USER: genes 11 Torsion [C]-N--CA-[CB] |==|  0.82582
USER: genes 12 Torsion [N]-CA--CB-[OG] |==|  0.78816
USER: genes 13 Torsion [CA]-CB--OG-[HG] |==|  0.43777
USER: genes 14 Torsion [N]-CA--C-[N] |==|  0.33940
USER: genes 15 Torsion [C]-N--CA-[CB] |==|  0.35013
USER: genes 16 Torsion [N]-CA--C-[OXT] |==|  0.97196
USER: genes 17 Torsion [N]-CA--CB-[CG] |==|  0.09551
USER: genes 18 Torsion [CA]-CB--CG-[CD] |==|  0.67611
USER: genes 19 Torsion [CB]-CG--CD-[NE] |==|  0.11549
USER: genes 20 Torsion [CG]-CD--NE-[HE] |==|  0.81178
ROOT
ATOM      1  C   GLY B 361      39.277  -8.088 -11.166  1.00 26.32 LIG 0.24  C 
ATOM      2 O    GLY B 361      38.754  -7.080 -11.641  1.00 25.16 LIG-0.27  OA
ATOM      3  N   SER B 362      40.452  -8.553 -11.577  1.00 27.60 LIG-0.34  N 
ATOM      4 H    SER B 362      40.824  -9.263 -11.267  1.00 27.60 LIG 0.16  HD
ENDROOT
BRANCH 1 5
ATOM      5  CA  GLY B 361      38.578  -8.868 -10.067  1.00 24.90 LIG 0.23  C 
BRANCH 5 6
ATOM      6  N   GLY B 361      38.136 -10.163 -10.557  1.00 24.70 LIG-0.35  N 
ATOM      7  C   GLY B 360      37.915 -11.171  -9.717  1.00 25.98 LIG 0.23  C 
ATOM      8 O    GLY B 360      38.089 -11.088  -8.494  1.00 23.45 LIG-0.27  OA
ATOM      9 H    GLY B 361      38.036 -10.210 -11.409  1.00 24.70 LIG 0.16  HD
BRANCH 7 10
ATOM     10  CA  GLY B 360      37.440 -12.469 -10.335  1.00 26.97 LIG 0.23  C 
BRANCH 10 11
ATOM     11  N   GLY B 360      36.602 -13.195  -9.403  1.00 32.20 LIG-0.35  N 
ATOM     12  C   PRO B 359      35.340 -12.835  -9.195  1.00 35.92 LIG 0.24  C 
ATOM     13 O    PRO B 359      34.813 -11.882  -9.764  1.00 37.04 LIG-0.27  OA
ATOM     14 H    GLY B 360      36.988 -13.858  -9.012  1.00 32.20 LIG 0.16  HD
BRANCH 12 15
ATOM     15  CA  PRO B 359      34.558 -13.677  -8.193  1.00 39.21 LIG 0.18  C 
ATOM     16  CB  PRO B 359      34.578 -13.077  -6.789  1.00 38.88 LIG 0.04  C 
ATOM     17  CG  PRO B 359      35.795 -13.701  -6.183  1.00 39.81 LIG 0.02  C 
ATOM     18  CD  PRO B 359      35.653 -15.144  -6.614  1.00 41.55 LIG 0.13  C 
ATOM     19  N   PRO B 359      35.142 -15.007  -7.989  1.00 42.03 LIG-0.34  N 
ATOM     20  C   GLU B 358      35.244 -15.900  -8.985  1.00 44.90 LIG 0.26  C 
ATOM     21 O    GLU B 358      34.855 -15.651 -10.128  1.00 45.02 LIG-0.27  OA
BRANCH 20 22
ATOM     22  CA  GLU B 358      35.871 -17.251  -8.649  1.00 48.47 LIG 0.40  C 
ATOM     23  N   GLU B 358      34.940 -18.360  -9.016  1.00 49.88 LIG 0.61  N 
BRANCH 22 24
ATOM     24  CB  GLU B 358      37.197 -17.400  -9.404  1.00 52.00 LIG 0.06  C 
BRANCH 24 25
ATOM     25  CG  GLU B 358      37.893 -16.084  -9.740  1.00 56.00 LIG 0.12  C 
BRANCH 25 26
ATOM     26  CD  GLU B 358      38.499 -16.080 -11.134  1.00 58.41 LIG 0.17  C 
ATOM     27 OE1  GLU B 358      37.725 -16.080 -12.118  1.00 59.40 LIG-0.65  OA
ATOM     28 OE2  GLU B 358      39.745 -16.076 -11.245  1.00 59.45 LIG-0.65  OA
ENDBRANCH 25 26
ENDBRANCH 24 25
ENDBRANCH 22 24
ENDBRANCH 20 22
ENDBRANCH 12 15
ENDBRANCH 10 11
ENDBRANCH 7 10
ENDBRANCH 5 6
ENDBRANCH 1 5
BRANCH 3 29
ATOM     29  CA  SER B 362      41.219  -7.872 -12.617  1.00 31.63 LIG 0.20  C 
BRANCH 29 30
ATOM     30  CB  SER B 362      40.435  -7.865 -13.937  1.00 29.14 LIG 0.20  C 
BRANCH 30 31
ATOM     31 OG   SER B 362      40.479  -9.129 -14.574  1.00 25.13 LIG-0.40  OA
ATOM     32 HG   SER B 362      39.827  -9.201 -15.099  1.00 25.13 LIG 0.21  HD
ENDBRANCH 30 31
ENDBRANCH 29 30
BRANCH 29 33
ATOM     33  C   SER B 362      41.666  -6.444 -12.294  1.00 35.65 LIG 0.24  C 
ATOM     34 O    SER B 362      40.827  -5.590 -12.012  1.00 37.77 LIG-0.27  OA
ATOM     35  N   ARG B 363      42.969  -6.177 -12.331  1.00 40.10 LIG-0.34  N 
ATOM     36 H    ARG B 363      43.576  -6.752 -12.534  1.00 40.10 LIG 0.16  HD
BRANCH 35 37
ATOM     37  CA  ARG B 363      43.472  -4.836 -12.016  1.00 45.15 LIG 0.18  C 
BRANCH 37 38
ATOM     38  C   ARG B 363      44.048  -4.110 -13.231  1.00 46.43 LIG 0.20  C 
ATOM     39 O    ARG B 363      44.322  -2.896 -13.115  1.00 47.78 LIG-0.65  OA
ATOM     40 OXT  ARG B 363      44.215  -4.759 -14.286  1.00 47.46 LIG-0.65  OA
ENDBRANCH 37 38
BRANCH 37 41
ATOM     41  CB  ARG B 363      44.540  -4.906 -10.919  1.00 48.51 LIG 0.04  C 
BRANCH 41 42
ATOM     42  CG  ARG B 363      45.411  -6.148 -10.969  1.00 53.09 LIG 0.02  C 
BRANCH 42 43
ATOM     43  CD  ARG B 363      45.229  -6.995  -9.722  1.00 56.16 LIG 0.14  C 
BRANCH 43 44
ATOM     44  NE  ARG B 363      43.827  -7.080  -9.319  1.00 60.73 LIG-0.23  N 
ATOM     45 HE   ARG B 363      43.447  -6.365  -9.030  1.00 60.73 LIG 0.18  HD
ATOM     46  CZ  ARG B 363      43.099  -8.194  -9.371  1.00 63.15 LIG 0.67  C 
ATOM     47  NH2 ARG B 363      41.826  -8.179  -8.989  1.00 63.96 LIG-0.23  N 
ATOM     48  NH1 ARG B 363      43.642  -9.325  -9.807  1.00 63.92 LIG-0.23  N 
ATOM     49 1HH2 ARG B 363      41.470  -7.449  -8.707  1.00 63.96 LIG 0.17  HD
ATOM     50 2HH2 ARG B 363      41.359  -8.900  -9.024  1.00 63.96 LIG 0.17  HD
ATOM     51 1HH1 ARG B 363      44.465  -9.339 -10.055  1.00 63.92 LIG 0.17  HD
ATOM     52 2HH1 ARG B 363      43.170 -10.043  -9.840  1.00 63.92 LIG 0.17  HD
ENDBRANCH 43 44
ENDBRANCH 42 43
ENDBRANCH 41 42
ENDBRANCH 37 41
ENDBRANCH 35 37
ENDBRANCH 29 33
ENDBRANCH 3 29
TORSDOF 19
ENDMDL
MODEL 44
USER: ADFR SOLUTION from run 138
USER: SCORE 14.434718 LL:  -3.501 LR: -12.707 RR:   0.000 FEB:  -7.039
USER: RMSD 12.351554
USER: SEED 137
USER: STATUS no improvement in best in 21 clusters for 5 generations
USER: GENES 21
USER: genes 0 Translation |==|  0.29546 0.47888 0.58813
USER: genes 1 Rotation |==|  0.18346 0.27022 0.21569 0.62717
USER: genes 2 Torsion [N]-C--CA-[N] |==|  0.42680
USER: genes 3 Torsion [C]-CA--N-[C] |==|  0.56402
USER: genes 4 Torsion [N]-C--CA-[N] |==|  0.39909
USER: genes 5 Torsion [C]-CA--N-[C] |==|  0.86266
USER: genes 6 Torsion [N]-C--CA-[N] |==|  0.96763
USER: genes 7 Torsion [N]-C--CA-[N] |==|  0.17379
USER: genes 8 Torsion [C]-CA--CB-[CG] |==|  0.16558
USER: genes 9 Torsion [CA]-CB--CG-[CD] |==|  0.66256
USER: genes 10 Torsion [CB]-CG--CD-[OE2] |==|  0.46460
USER: genes 11 Torsion [C]-N--CA-[CB] |==|  0.48346
USER: genes 12 Torsion [N]-CA--CB-[OG] |==|  0.88348
USER: genes 13 Torsion [CA]-CB--OG-[HG] |==|  0.33037
USER: genes 14 Torsion [N]-CA--C-[N] |==|  0.26050
USER: genes 15 Torsion [C]-N--CA-[CB] |==|  0.18565
USER: genes 16 Torsion [N]-CA--C-[OXT] |==|  0.24612
USER: genes 17 Torsion [N]-CA--CB-[CG] |==|  0.59642
USER: genes 18 Torsion [CA]-CB--CG-[CD] |==|  0.63720
USER: genes 19 Torsion [CB]-CG--CD-[NE] |==|  0.03045
USER: genes 20 Torsion [CG]-CD--NE-[HE] |==|  0.15294
ROOT
ATOM      1  C   GLY B 361      33.293 -13.555  -7.342  1.00 26.32 LIG 0.24  C 
ATOM      2 O    GLY B 361      32.481 -12.641  -7.488  1.00 25.16 LIG-0.27  OA
ATOM      3  N   SER B 362      32.962 -14.742  -6.844  1.00 27.60 LIG-0.34  N 
ATOM      4 H    SER B 362      33.518 -15.385  -6.721  1.00 27.60 LIG 0.16  HD
ENDROOT
BRANCH 1 5
ATOM      5  CA  GLY B 361      34.748 -13.356  -7.727  1.00 24.90 LIG 0.23  C 
BRANCH 5 6
ATOM      6  N   GLY B 361      34.871 -12.351  -8.769  1.00 24.70 LIG-0.35  N 
ATOM      7  C   GLY B 360      35.933 -12.324  -9.570  1.00 25.98 LIG 0.23  C 
ATOM      8 O    GLY B 360      36.879 -13.117  -9.470  1.00 23.45 LIG-0.27  OA
ATOM      9 H    GLY B 361      34.215 -11.797  -8.815  1.00 24.70 LIG 0.16  HD
BRANCH 7 10
ATOM     10  CA  GLY B 360      35.948 -11.245 -10.632  1.00 26.97 LIG 0.23  C 
BRANCH 10 11
ATOM     11  N   GLY B 360      37.296 -10.750 -10.830  1.00 32.20 LIG-0.35  N 
ATOM     12  C   PRO B 359      38.047 -10.385  -9.797  1.00 35.92 LIG 0.24  C 
ATOM     13 O    PRO B 359      37.659 -10.438  -8.633  1.00 37.04 LIG-0.27  OA
ATOM     14 H    GLY B 360      37.551 -10.718 -11.650  1.00 32.20 LIG 0.16  HD
BRANCH 12 15
ATOM     15  CA  PRO B 359      39.448  -9.883 -10.131  1.00 39.21 LIG 0.18  C 
ATOM     16  CB  PRO B 359      39.561  -8.364 -10.024  1.00 38.88 LIG 0.04  C 
ATOM     17  CG  PRO B 359      39.199  -7.910 -11.402  1.00 39.81 LIG 0.02  C 
ATOM     18  CD  PRO B 359      39.979  -8.878 -12.265  1.00 41.55 LIG 0.13  C 
ATOM     19  N   PRO B 359      39.828 -10.142 -11.524  1.00 42.03 LIG-0.34  N 
ATOM     20  C   GLU B 358      39.925 -11.386 -12.015  1.00 44.90 LIG 0.26  C 
ATOM     21 O    GLU B 358      39.696 -12.381 -11.324  1.00 45.02 LIG-0.27  OA
BRANCH 20 22
ATOM     22  CA  GLU B 358      40.329 -11.528 -13.481  1.00 48.47 LIG 0.40  C 
ATOM     23  N   GLU B 358      41.699 -10.973 -13.697  1.00 49.88 LIG 0.61  N 
BRANCH 22 24
ATOM     24  CB  GLU B 358      40.287 -13.008 -13.881  1.00 52.00 LIG 0.06  C 
BRANCH 24 25
ATOM     25  CG  GLU B 358      38.923 -13.675 -13.725  1.00 56.00 LIG 0.12  C 
BRANCH 25 26
ATOM     26  CD  GLU B 358      38.959 -14.872 -12.789  1.00 58.41 LIG 0.17  C 
ATOM     27 OE1  GLU B 358      40.075 -15.330 -12.453  1.00 59.40 LIG-0.65  OA
ATOM     28 OE2  GLU B 358      37.875 -15.352 -12.391  1.00 59.45 LIG-0.65  OA
ENDBRANCH 25 26
ENDBRANCH 24 25
ENDBRANCH 22 24
ENDBRANCH 20 22
ENDBRANCH 12 15
ENDBRANCH 10 11
ENDBRANCH 7 10
ENDBRANCH 5 6
ENDBRANCH 1 5
BRANCH 3 29
ATOM     29  CA  SER B 362      31.587 -15.049  -6.457  1.00 31.63 LIG 0.20  C 
BRANCH 29 30
ATOM     30  CB  SER B 362      31.466 -16.526  -6.056  1.00 29.14 LIG 0.20  C 
BRANCH 30 31
ATOM     31 OG   SER B 362      32.191 -17.364  -6.937  1.00 25.13 LIG-0.40  OA
ATOM     32 HG   SER B 362      32.785 -17.775  -6.509  1.00 25.13 LIG 0.21  HD
ENDBRANCH 30 31
ENDBRANCH 29 30
BRANCH 29 33
ATOM     33  C   SER B 362      30.993 -14.180  -5.345  1.00 35.65 LIG 0.24  C 
ATOM     34 O    SER B 362      31.176 -14.484  -4.167  1.00 37.77 LIG-0.27  OA
ATOM     35  N   ARG B 363      30.290 -13.108  -5.703  1.00 40.10 LIG-0.34  N 
ATOM     36 H    ARG B 363      30.138 -12.877  -6.518  1.00 40.10 LIG 0.16  HD
BRANCH 35 37
ATOM     37  CA  ARG B 363      29.706 -12.219  -4.693  1.00 45.15 LIG 0.18  C 
BRANCH 37 38
ATOM     38  C   ARG B 363      28.747 -11.188  -5.284  1.00 46.43 LIG 0.20  C 
ATOM     39 O    ARG B 363      29.211 -10.076  -5.618  1.00 47.78 LIG-0.65  OA
ATOM     40 OXT  ARG B 363      27.542 -11.498  -5.405  1.00 47.46 LIG-0.65  OA
ENDBRANCH 37 38
BRANCH 37 41
ATOM     41  CB  ARG B 363      30.807 -11.494  -3.913  1.00 48.51 LIG 0.04  C 
BRANCH 41 42
ATOM     42  CG  ARG B 363      30.482 -11.250  -2.450  1.00 53.09 LIG 0.02  C 
BRANCH 42 43
ATOM     43  CD  ARG B 363      30.740  -9.803  -2.066  1.00 56.16 LIG 0.14  C 
BRANCH 43 44
ATOM     44  NE  ARG B 363      30.984  -8.962  -3.235  1.00 60.73 LIG-0.23  N 
ATOM     45 HE   ARG B 363      30.390  -8.956  -3.858  1.00 60.73 LIG 0.18  HD
ATOM     46  CZ  ARG B 363      32.065  -8.203  -3.400  1.00 63.15 LIG 0.67  C 
ATOM     47  NH2 ARG B 363      32.202  -7.462  -4.495  1.00 63.96 LIG-0.23  N 
ATOM     48  NH1 ARG B 363      33.011  -8.181  -2.469  1.00 63.92 LIG-0.23  N 
ATOM     49 1HH2 ARG B 363      31.591  -7.472  -5.101  1.00 63.96 LIG 0.17  HD
ATOM     50 2HH2 ARG B 363      32.902  -6.973  -4.598  1.00 63.96 LIG 0.17  HD
ATOM     51 1HH1 ARG B 363      32.927  -8.658  -1.758  1.00 63.92 LIG 0.17  HD
ATOM     52 2HH1 ARG B 363      33.709  -7.689  -2.576  1.00 63.92 LIG 0.17  HD
ENDBRANCH 43 44
ENDBRANCH 42 43
ENDBRANCH 41 42
ENDBRANCH 37 41
ENDBRANCH 35 37
ENDBRANCH 29 33
ENDBRANCH 3 29
TORSDOF 19
ENDMDL
MODEL 45
USER: ADFR SOLUTION from run 82
USER: SCORE 16.032794 LL:  -4.344 LR: -12.680 RR:   0.000 FEB:  -7.012
USER: RMSD 11.551738
USER: SEED 81
USER: STATUS searching
USER: GENES 21
USER: genes 0 Translation |==|  0.31584 0.35665 0.55402
USER: genes 1 Rotation |==|  0.42836 0.11883 0.81230 0.54524
USER: genes 2 Torsion [N]-C--CA-[N] |==|  0.40158
USER: genes 3 Torsion [C]-CA--N-[C] |==|  0.32019
USER: genes 4 Torsion [N]-C--CA-[N] |==|  0.94141
USER: genes 5 Torsion [C]-CA--N-[C] |==|  0.26930
USER: genes 6 Torsion [N]-C--CA-[N] |==|  0.95502
USER: genes 7 Torsion [N]-C--CA-[N] |==|  0.37183
USER: genes 8 Torsion [C]-CA--CB-[CG] |==|  0.30104
USER: genes 9 Torsion [CA]-CB--CG-[CD] |==|  0.10933
USER: genes 10 Torsion [CB]-CG--CD-[OE2] |==|  0.79210
USER: genes 11 Torsion [C]-N--CA-[CB] |==|  0.48925
USER: genes 12 Torsion [N]-CA--CB-[OG] |==|  0.11455
USER: genes 13 Torsion [CA]-CB--OG-[HG] |==|  0.02510
USER: genes 14 Torsion [N]-CA--C-[N] |==|  0.48889
USER: genes 15 Torsion [C]-N--CA-[CB] |==|  0.44774
USER: genes 16 Torsion [N]-CA--C-[OXT] |==|  0.71260
USER: genes 17 Torsion [N]-CA--CB-[CG] |==|  0.09928
USER: genes 18 Torsion [CA]-CB--CG-[CD] |==|  0.36455
USER: genes 19 Torsion [CB]-CG--CD-[NE] |==|  0.56274
USER: genes 20 Torsion [CG]-CD--NE-[HE] |==|  0.76116
ROOT
ATOM      1  C   GLY B 361      33.782 -16.305  -8.135  1.00 26.32 LIG 0.24  C 
ATOM      2 O    GLY B 361      33.358 -16.829  -7.105  1.00 25.16 LIG-0.27  OA
ATOM      3  N   SER B 362      34.080 -15.013  -8.218  1.00 27.60 LIG-0.34  N 
ATOM      4 H    SER B 362      34.363 -14.629  -8.933  1.00 27.60 LIG 0.16  HD
ENDROOT
BRANCH 1 5
ATOM      5  CA  GLY B 361      33.979 -17.135  -9.391  1.00 24.90 LIG 0.23  C 
BRANCH 5 6
ATOM      6  N   GLY B 361      34.435 -18.474  -9.056  1.00 24.70 LIG-0.35  N 
ATOM      7  C   GLY B 360      33.679 -19.538  -9.315  1.00 25.98 LIG 0.23  C 
ATOM      8 O    GLY B 360      32.552 -19.463  -9.822  1.00 23.45 LIG-0.27  OA
ATOM      9 H    GLY B 361      35.212 -18.508  -8.689  1.00 24.70 LIG 0.16  HD
BRANCH 7 10
ATOM     10  CA  GLY B 360      34.261 -20.884  -8.940  1.00 26.97 LIG 0.23  C 
BRANCH 10 11
ATOM     11  N   GLY B 360      35.703 -20.797  -8.829  1.00 32.20 LIG-0.35  N 
ATOM     12  C   PRO B 359      36.287 -20.629  -7.648  1.00 35.92 LIG 0.24  C 
ATOM     13 O    PRO B 359      35.660 -20.535  -6.596  1.00 37.04 LIG-0.27  OA
ATOM     14 H    GLY B 360      36.126 -20.863  -9.574  1.00 32.20 LIG 0.16  HD
BRANCH 12 15
ATOM     15  CA  PRO B 359      37.811 -20.555  -7.657  1.00 39.21 LIG 0.18  C 
ATOM     16  CB  PRO B 359      38.323 -19.119  -7.590  1.00 38.88 LIG 0.04  C 
ATOM     17  CG  PRO B 359      38.414 -18.734  -9.033  1.00 39.81 LIG 0.02  C 
ATOM     18  CD  PRO B 359      39.057 -19.961  -9.642  1.00 41.55 LIG 0.13  C 
ATOM     19  N   PRO B 359      38.397 -21.054  -8.906  1.00 42.03 LIG-0.34  N 
ATOM     20  C   GLU B 358      38.242 -22.324  -9.307  1.00 44.90 LIG 0.26  C 
ATOM     21 O    GLU B 358      37.596 -23.143  -8.650  1.00 45.02 LIG-0.27  OA
BRANCH 20 22
ATOM     22  CA  GLU B 358      38.900 -22.724 -10.626  1.00 48.47 LIG 0.40  C 
ATOM     23  N   GLU B 358      39.623 -24.022 -10.472  1.00 49.88 LIG 0.61  N 
BRANCH 22 24
ATOM     24  CB  GLU B 358      37.827 -22.840 -11.716  1.00 52.00 LIG 0.06  C 
BRANCH 24 25
ATOM     25  CG  GLU B 358      37.854 -21.729 -12.762  1.00 56.00 LIG 0.12  C 
BRANCH 25 26
ATOM     26  CD  GLU B 358      39.267 -21.330 -13.157  1.00 58.41 LIG 0.17  C 
ATOM     27 OE1  GLU B 358      39.702 -21.707 -14.269  1.00 59.40 LIG-0.65  OA
ATOM     28 OE2  GLU B 358      39.938 -20.641 -12.358  1.00 59.45 LIG-0.65  OA
ENDBRANCH 25 26
ENDBRANCH 24 25
ENDBRANCH 22 24
ENDBRANCH 20 22
ENDBRANCH 12 15
ENDBRANCH 10 11
ENDBRANCH 7 10
ENDBRANCH 5 6
ENDBRANCH 1 5
BRANCH 3 29
ATOM     29  CA  SER B 362      33.945 -14.125  -7.066  1.00 31.63 LIG 0.20  C 
BRANCH 29 30
ATOM     30  CB  SER B 362      34.447 -12.717  -7.419  1.00 29.14 LIG 0.20  C 
BRANCH 30 31
ATOM     31 OG   SER B 362      34.035 -12.330  -8.717  1.00 25.13 LIG-0.40  OA
ATOM     32 HG   SER B 362      33.485 -12.890  -9.016  1.00 25.13 LIG 0.21  HD
ENDBRANCH 30 31
ENDBRANCH 29 30
BRANCH 29 33
ATOM     33  C   SER B 362      32.543 -14.018  -6.462  1.00 35.65 LIG 0.24  C 
ATOM     34 O    SER B 362      31.601 -14.603  -6.995  1.00 37.77 LIG-0.27  OA
ATOM     35  N   ARG B 363      32.395 -13.283  -5.362  1.00 40.10 LIG-0.34  N 
ATOM     36 H    ARG B 363      33.033 -12.856  -4.974  1.00 40.10 LIG 0.16  HD
BRANCH 35 37
ATOM     37  CA  ARG B 363      31.085 -13.149  -4.717  1.00 45.15 LIG 0.18  C 
BRANCH 37 38
ATOM     38  C   ARG B 363      30.145 -12.200  -5.459  1.00 46.43 LIG 0.20  C 
ATOM     39 O    ARG B 363      29.596 -12.612  -6.504  1.00 47.78 LIG-0.65  OA
ATOM     40 OXT  ARG B 363      29.967 -11.055  -4.991  1.00 47.46 LIG-0.65  OA
ENDBRANCH 37 38
BRANCH 37 41
ATOM     41  CB  ARG B 363      31.243 -12.672  -3.270  1.00 48.51 LIG 0.04  C 
BRANCH 41 42
ATOM     42  CG  ARG B 363      32.378 -11.687  -3.055  1.00 53.09 LIG 0.02  C 
BRANCH 42 43
ATOM     43  CD  ARG B 363      31.912 -10.478  -2.263  1.00 56.16 LIG 0.14  C 
BRANCH 43 44
ATOM     44  NE  ARG B 363      32.770  -9.316  -2.483  1.00 60.73 LIG-0.23  N 
ATOM     45 HE   ARG B 363      33.473  -9.237  -1.995  1.00 60.73 LIG 0.18  HD
ATOM     46  CZ  ARG B 363      32.533  -8.371  -3.391  1.00 63.15 LIG 0.67  C 
ATOM     47  NH2 ARG B 363      33.371  -7.350  -3.528  1.00 63.96 LIG-0.23  N 
ATOM     48  NH1 ARG B 363      31.456  -8.447  -4.165  1.00 63.92 LIG-0.23  N 
ATOM     49 1HH2 ARG B 363      34.070  -7.297  -3.029  1.00 63.96 LIG 0.17  HD
ATOM     50 2HH2 ARG B 363      33.214  -6.742  -4.115  1.00 63.96 LIG 0.17  HD
ATOM     51 1HH1 ARG B 363      30.911  -9.107  -4.081  1.00 63.92 LIG 0.17  HD
ATOM     52 2HH1 ARG B 363      31.305  -7.837  -4.752  1.00 63.92 LIG 0.17  HD
ENDBRANCH 43 44
ENDBRANCH 42 43
ENDBRANCH 41 42
ENDBRANCH 37 41
ENDBRANCH 35 37
ENDBRANCH 29 33
ENDBRANCH 3 29
TORSDOF 19
ENDMDL
MODEL 46
USER: ADFR SOLUTION from run 48
USER: SCORE 15.479122 LL:  -3.482 LR: -12.677 RR:   0.000 FEB:  -7.009
USER: RMSD 5.582692
USER: SEED 47
USER: STATUS no improvement in best in 17 clusters for 5 generations
USER: GENES 21
USER: genes 0 Translation |==|  0.55615 0.70821 0.45610
USER: genes 1 Rotation |==|  0.37047 0.53118 0.87156 0.80691
USER: genes 2 Torsion [N]-C--CA-[N] |==|  0.05476
USER: genes 3 Torsion [C]-CA--N-[C] |==|  0.27635
USER: genes 4 Torsion [N]-C--CA-[N] |==|  0.54791
USER: genes 5 Torsion [C]-CA--N-[C] |==|  0.28801
USER: genes 6 Torsion [N]-C--CA-[N] |==|  0.53986
USER: genes 7 Torsion [N]-C--CA-[N] |==|  0.38803
USER: genes 8 Torsion [C]-CA--CB-[CG] |==|  0.79731
USER: genes 9 Torsion [CA]-CB--CG-[CD] |==|  0.79094
USER: genes 10 Torsion [CB]-CG--CD-[OE2] |==|  0.45766
USER: genes 11 Torsion [C]-N--CA-[CB] |==|  0.52778
USER: genes 12 Torsion [N]-CA--CB-[OG] |==|  0.84053
USER: genes 13 Torsion [CA]-CB--OG-[HG] |==|  0.26632
USER: genes 14 Torsion [N]-CA--C-[N] |==|  0.45091
USER: genes 15 Torsion [C]-N--CA-[CB] |==|  0.86226
USER: genes 16 Torsion [N]-CA--C-[OXT] |==|  0.06916
USER: genes 17 Torsion [N]-CA--CB-[CG] |==|  0.75912
USER: genes 18 Torsion [CA]-CB--CG-[CD] |==|  0.16396
USER: genes 19 Torsion [CB]-CG--CD-[NE] |==|  0.21247
USER: genes 20 Torsion [CG]-CD--NE-[HE] |==|  0.83696
ROOT
ATOM      1  C   GLY B 361      39.550  -8.395 -10.412  1.00 26.32 LIG 0.24  C 
ATOM      2 O    GLY B 361      40.485  -7.792  -9.887  1.00 25.16 LIG-0.27  OA
ATOM      3  N   SER B 362      39.602  -8.868 -11.653  1.00 27.60 LIG-0.34  N 
ATOM      4 H    SER B 362      38.953  -9.279 -12.039  1.00 27.60 LIG 0.16  HD
ENDROOT
BRANCH 1 5
ATOM      5  CA  GLY B 361      38.259  -8.623  -9.646  1.00 24.90 LIG 0.23  C 
BRANCH 5 6
ATOM      6  N   GLY B 361      37.492  -9.705 -10.240  1.00 24.70 LIG-0.35  N 
ATOM      7  C   GLY B 360      37.525 -10.930  -9.722  1.00 25.98 LIG 0.23  C 
ATOM      8 O    GLY B 360      38.212 -11.233  -8.738  1.00 23.45 LIG-0.27  OA
ATOM      9 H    GLY B 361      37.033  -9.483 -10.933  1.00 24.70 LIG 0.16  HD
BRANCH 7 10
ATOM     10  CA  GLY B 360      36.674 -11.975 -10.411  1.00 26.97 LIG 0.23  C 
BRANCH 10 11
ATOM     11  N   GLY B 360      36.477 -13.119  -9.544  1.00 32.20 LIG-0.35  N 
ATOM     12  C   PRO B 359      35.324 -13.307  -8.913  1.00 35.92 LIG 0.24  C 
ATOM     13 O    PRO B 359      34.370 -12.540  -9.016  1.00 37.04 LIG-0.27  OA
ATOM     14 H    GLY B 360      37.156 -13.644  -9.482  1.00 32.20 LIG 0.16  HD
BRANCH 12 15
ATOM     15  CA  PRO B 359      35.236 -14.548  -8.030  1.00 39.21 LIG 0.18  C 
ATOM     16  CB  PRO B 359      35.691 -15.811  -8.758  1.00 38.88 LIG 0.04  C 
ATOM     17  CG  PRO B 359      34.424 -16.308  -9.377  1.00 39.81 LIG 0.02  C 
ATOM     18  CD  PRO B 359      33.438 -16.150  -8.239  1.00 41.55 LIG 0.13  C 
ATOM     19  N   PRO B 359      33.860 -14.872  -7.639  1.00 42.03 LIG-0.34  N 
ATOM     20  C   GLU B 358      33.113 -14.035  -6.905  1.00 44.90 LIG 0.26  C 
ATOM     21 O    GLU B 358      33.540 -12.945  -6.521  1.00 45.02 LIG-0.27  OA
BRANCH 20 22
ATOM     22  CA  GLU B 358      31.694 -14.485  -6.563  1.00 48.47 LIG 0.40  C 
ATOM     23  N   GLU B 358      31.360 -14.117  -5.154  1.00 49.88 LIG 0.61  N 
BRANCH 22 24
ATOM     24  CB  GLU B 358      30.703 -13.828  -7.532  1.00 52.00 LIG 0.06  C 
BRANCH 24 25
ATOM     25  CG  GLU B 358      30.470 -12.338  -7.298  1.00 56.00 LIG 0.12  C 
BRANCH 25 26
ATOM     26  CD  GLU B 358      29.590 -12.065  -6.089  1.00 58.41 LIG 0.17  C 
ATOM     27 OE1  GLU B 358      28.929 -13.014  -5.609  1.00 59.40 LIG-0.65  OA
ATOM     28 OE2  GLU B 358      29.559 -10.906  -5.622  1.00 59.45 LIG-0.65  OA
ENDBRANCH 25 26
ENDBRANCH 24 25
ENDBRANCH 22 24
ENDBRANCH 20 22
ENDBRANCH 12 15
ENDBRANCH 10 11
ENDBRANCH 7 10
ENDBRANCH 5 6
ENDBRANCH 1 5
BRANCH 3 29
ATOM     29  CA  SER B 362      40.800  -8.721 -12.474  1.00 31.63 LIG 0.20  C 
BRANCH 29 30
ATOM     30  CB  SER B 362      40.503  -9.128 -13.925  1.00 29.14 LIG 0.20  C 
BRANCH 30 31
ATOM     31 OG   SER B 362      40.021 -10.457 -14.002  1.00 25.13 LIG-0.40  OA
ATOM     32 HG   SER B 362      39.181 -10.450 -14.021  1.00 25.13 LIG 0.21  HD
ENDBRANCH 30 31
ENDBRANCH 29 30
BRANCH 29 33
ATOM     33  C   SER B 362      41.452  -7.336 -12.468  1.00 35.65 LIG 0.24  C 
ATOM     34 O    SER B 362      40.812  -6.360 -12.079  1.00 37.77 LIG-0.27  OA
ATOM     35  N   ARG B 363      42.710  -7.240 -12.891  1.00 40.10 LIG-0.34  N 
ATOM     36 H    ARG B 363      43.178  -7.902 -13.178  1.00 40.10 LIG 0.16  HD
BRANCH 35 37
ATOM     37  CA  ARG B 363      43.405  -5.948 -12.897  1.00 45.15 LIG 0.18  C 
BRANCH 37 38
ATOM     38  C   ARG B 363      43.797  -5.471 -11.500  1.00 46.43 LIG 0.20  C 
ATOM     39 O    ARG B 363      43.950  -4.244 -11.318  1.00 47.78 LIG-0.65  OA
ATOM     40 OXT  ARG B 363      43.950  -6.327 -10.602  1.00 47.46 LIG-0.65  OA
ENDBRANCH 37 38
BRANCH 37 41
ATOM     41  CB  ARG B 363      42.544  -4.875 -13.572  1.00 48.51 LIG 0.04  C 
BRANCH 41 42
ATOM     42  CG  ARG B 363      42.703  -4.801 -15.080  1.00 53.09 LIG 0.02  C 
BRANCH 42 43
ATOM     43  CD  ARG B 363      42.345  -6.125 -15.734  1.00 56.16 LIG 0.14  C 
BRANCH 43 44
ATOM     44  NE  ARG B 363      40.900  -6.332 -15.797  1.00 60.73 LIG-0.23  N 
ATOM     45 HE   ARG B 363      40.461  -6.331 -15.058  1.00 60.73 LIG 0.18  HD
ATOM     46  CZ  ARG B 363      40.219  -6.521 -16.925  1.00 63.15 LIG 0.67  C 
ATOM     47  NH2 ARG B 363      38.903  -6.695 -16.891  1.00 63.96 LIG-0.23  N 
ATOM     48  NH1 ARG B 363      40.854  -6.535 -18.092  1.00 63.92 LIG-0.23  N 
ATOM     49 1HH2 ARG B 363      38.487  -6.686 -16.138  1.00 63.96 LIG 0.17  HD
ATOM     50 2HH2 ARG B 363      38.466  -6.817 -17.622  1.00 63.96 LIG 0.17  HD
ATOM     51 1HH1 ARG B 363      41.707  -6.422 -18.119  1.00 63.92 LIG 0.17  HD
ATOM     52 2HH1 ARG B 363      40.413  -6.656 -18.820  1.00 63.92 LIG 0.17  HD
ENDBRANCH 43 44
ENDBRANCH 42 43
ENDBRANCH 41 42
ENDBRANCH 37 41
ENDBRANCH 35 37
ENDBRANCH 29 33
ENDBRANCH 3 29
TORSDOF 19
ENDMDL
MODEL 47
USER: ADFR SOLUTION from run 61
USER: SCORE 15.046406 LL:  -4.217 LR: -12.668 RR:   0.000 FEB:  -7.000
USER: RMSD 4.772829
USER: SEED 60
USER: STATUS no improvement in best in 11 clusters for 5 generations
USER: GENES 21
USER: genes 0 Translation |==|  0.49396 0.54351 0.41675
USER: genes 1 Rotation |==|  0.48602 0.48269 0.67567 0.96760
USER: genes 2 Torsion [N]-C--CA-[N] |==|  0.42824
USER: genes 3 Torsion [C]-CA--N-[C] |==|  0.60933
USER: genes 4 Torsion [N]-C--CA-[N] |==|  0.55071
USER: genes 5 Torsion [C]-CA--N-[C] |==|  0.66986
USER: genes 6 Torsion [N]-C--CA-[N] |==|  0.55447
USER: genes 7 Torsion [N]-C--CA-[N] |==|  0.35998
USER: genes 8 Torsion [C]-CA--CB-[CG] |==|  0.26108
USER: genes 9 Torsion [CA]-CB--CG-[CD] |==|  0.07944
USER: genes 10 Torsion [CB]-CG--CD-[OE2] |==|  0.64309
USER: genes 11 Torsion [C]-N--CA-[CB] |==|  0.41111
USER: genes 12 Torsion [N]-CA--CB-[OG] |==|  0.25933
USER: genes 13 Torsion [CA]-CB--OG-[HG] |==|  0.92966
USER: genes 14 Torsion [N]-CA--C-[N] |==|  0.92044
USER: genes 15 Torsion [C]-N--CA-[CB] |==|  0.41751
USER: genes 16 Torsion [N]-CA--C-[OXT] |==|  0.88882
USER: genes 17 Torsion [N]-CA--CB-[CG] |==|  0.08538
USER: genes 18 Torsion [CA]-CB--CG-[CD] |==|  0.21719
USER: genes 19 Torsion [CB]-CG--CD-[NE] |==|  0.64518
USER: genes 20 Torsion [CG]-CD--NE-[HE] |==|  0.90046
ROOT
ATOM      1  C   GLY B 361      38.057 -12.101 -11.327  1.00 26.32 LIG 0.24  C 
ATOM      2 O    GLY B 361      38.911 -12.830 -10.822  1.00 25.16 LIG-0.27  OA
ATOM      3  N   SER B 362      38.053 -11.779 -12.616  1.00 27.60 LIG-0.34  N 
ATOM      4 H    SER B 362      37.473 -11.261 -12.981  1.00 27.60 LIG 0.16  HD
ENDROOT
BRANCH 1 5
ATOM      5  CA  GLY B 361      36.947 -11.516 -10.471  1.00 24.90 LIG 0.23  C 
BRANCH 5 6
ATOM      6  N   GLY B 361      36.689 -12.360  -9.317  1.00 24.70 LIG-0.35  N 
ATOM      7  C   GLY B 360      35.447 -12.571  -8.889  1.00 25.98 LIG 0.23  C 
ATOM      8 O    GLY B 360      34.451 -12.057  -9.415  1.00 23.45 LIG-0.27  OA
ATOM      9 H    GLY B 361      37.392 -12.696  -8.952  1.00 24.70 LIG 0.16  HD
BRANCH 7 10
ATOM     10  CA  GLY B 360      35.294 -13.482  -7.689  1.00 26.97 LIG 0.23  C 
BRANCH 10 11
ATOM     11  N   GLY B 360      33.932 -13.965  -7.593  1.00 32.20 LIG-0.35  N 
ATOM     12  C   PRO B 359      33.184 -13.691  -6.529  1.00 35.92 LIG 0.24  C 
ATOM     13 O    PRO B 359      33.588 -13.027  -5.578  1.00 37.04 LIG-0.27  OA
ATOM     14 H    GLY B 360      33.665 -14.429  -8.266  1.00 32.20 LIG 0.16  HD
BRANCH 12 15
ATOM     15  CA  PRO B 359      31.766 -14.252  -6.543  1.00 39.21 LIG 0.18  C 
ATOM     16  CB  PRO B 359      31.075 -14.050  -7.890  1.00 38.88 LIG 0.04  C 
ATOM     17  CG  PRO B 359      30.418 -12.717  -7.726  1.00 39.81 LIG 0.02  C 
ATOM     18  CD  PRO B 359      29.819 -12.832  -6.341  1.00 41.55 LIG 0.13  C 
ATOM     19  N   PRO B 359      30.871 -13.560  -5.609  1.00 42.03 LIG-0.34  N 
ATOM     20  C   GLU B 358      31.087 -13.559  -4.286  1.00 44.90 LIG 0.26  C 
ATOM     21 O    GLU B 358      32.051 -14.137  -3.781  1.00 45.02 LIG-0.27  OA
BRANCH 20 22
ATOM     22  CA  GLU B 358      30.084 -12.802  -3.416  1.00 48.47 LIG 0.40  C 
ATOM     23  N   GLU B 358      29.615 -13.669  -2.294  1.00 49.88 LIG 0.61  N 
BRANCH 22 24
ATOM     24  CB  GLU B 358      30.744 -11.532  -2.865  1.00 52.00 LIG 0.06  C 
BRANCH 24 25
ATOM     25  CG  GLU B 358      30.508 -10.275  -3.698  1.00 56.00 LIG 0.12  C 
BRANCH 25 26
ATOM     26  CD  GLU B 358      29.192 -10.315  -4.458  1.00 58.41 LIG 0.17  C 
ATOM     27 OE1  GLU B 358      28.146 -10.580  -3.823  1.00 59.40 LIG-0.65  OA
ATOM     28 OE2  GLU B 358      29.204 -10.080  -5.686  1.00 59.45 LIG-0.65  OA
ENDBRANCH 25 26
ENDBRANCH 24 25
ENDBRANCH 22 24
ENDBRANCH 20 22
ENDBRANCH 12 15
ENDBRANCH 10 11
ENDBRANCH 7 10
ENDBRANCH 5 6
ENDBRANCH 1 5
BRANCH 3 29
ATOM     29  CA  SER B 362      39.063 -12.299 -13.534  1.00 31.63 LIG 0.20  C 
BRANCH 29 30
ATOM     30  CB  SER B 362      38.464 -12.478 -14.937  1.00 29.14 LIG 0.20  C 
BRANCH 30 31
ATOM     31 OG   SER B 362      38.683 -11.335 -15.744  1.00 25.13 LIG-0.40  OA
ATOM     32 HG   SER B 362      38.777 -10.660 -15.254  1.00 25.13 LIG 0.21  HD
ENDBRANCH 30 31
ENDBRANCH 29 30
BRANCH 29 33
ATOM     33  C   SER B 362      40.354 -11.484 -13.643  1.00 35.65 LIG 0.24  C 
ATOM     34 O    SER B 362      41.410 -12.046 -13.929  1.00 37.77 LIG-0.27  OA
ATOM     35  N   ARG B 363      40.282 -10.174 -13.420  1.00 40.10 LIG-0.34  N 
ATOM     36 H    ARG B 363      39.560  -9.757 -13.209  1.00 40.10 LIG 0.16  HD
BRANCH 35 37
ATOM     37  CA  ARG B 363      41.474  -9.326 -13.524  1.00 45.15 LIG 0.18  C 
BRANCH 37 38
ATOM     38  C   ARG B 363      42.276  -9.257 -12.225  1.00 46.43 LIG 0.20  C 
ATOM     39 O    ARG B 363      43.524  -9.280 -12.302  1.00 47.78 LIG-0.65  OA
ATOM     40 OXT  ARG B 363      41.652  -9.183 -11.145  1.00 47.46 LIG-0.65  OA
ENDBRANCH 37 38
BRANCH 37 41
ATOM     41  CB  ARG B 363      41.090  -7.906 -13.954  1.00 48.51 LIG 0.04  C 
BRANCH 41 42
ATOM     42  CG  ARG B 363      39.716  -7.460 -13.488  1.00 53.09 LIG 0.02  C 
BRANCH 42 43
ATOM     43  CD  ARG B 363      39.740  -7.051 -12.026  1.00 56.16 LIG 0.14  C 
BRANCH 43 44
ATOM     44  NE  ARG B 363      38.709  -7.736 -11.249  1.00 60.73 LIG-0.23  N 
ATOM     45 HE   ARG B 363      37.954  -7.890 -11.631  1.00 60.73 LIG 0.18  HD
ATOM     46  CZ  ARG B 363      38.863  -8.137  -9.989  1.00 63.15 LIG 0.67  C 
ATOM     47  NH2 ARG B 363      37.872  -8.759  -9.359  1.00 63.96 LIG-0.23  N 
ATOM     48  NH1 ARG B 363      40.009  -7.919  -9.356  1.00 63.92 LIG-0.23  N 
ATOM     49 1HH2 ARG B 363      37.127  -8.904  -9.766  1.00 63.96 LIG 0.17  HD
ATOM     50 2HH2 ARG B 363      37.975  -9.017  -8.546  1.00 63.96 LIG 0.17  HD
ATOM     51 1HH1 ARG B 363      40.654  -7.517  -9.760  1.00 63.92 LIG 0.17  HD
ATOM     52 2HH1 ARG B 363      40.108  -8.179  -8.542  1.00 63.92 LIG 0.17  HD
ENDBRANCH 43 44
ENDBRANCH 42 43
ENDBRANCH 41 42
ENDBRANCH 37 41
ENDBRANCH 35 37
ENDBRANCH 29 33
ENDBRANCH 3 29
TORSDOF 19
ENDMDL
MODEL 48
USER: ADFR SOLUTION from run 139
USER: SCORE 15.659570 LL:  -4.063 LR: -12.660 RR:   0.000 FEB:  -6.993
USER: RMSD 4.074977
USER: SEED 138
USER: STATUS no improvement in best in 14 clusters for 5 generations
USER: GENES 21
USER: genes 0 Translation |==|  0.43905 0.52860 0.43512
USER: genes 1 Rotation |==|  0.55927 0.29953 0.58647 0.94589
USER: genes 2 Torsion [N]-C--CA-[N] |==|  0.57873
USER: genes 3 Torsion [C]-CA--N-[C] |==|  0.16280
USER: genes 4 Torsion [N]-C--CA-[N] |==|  0.00767
USER: genes 5 Torsion [C]-CA--N-[C] |==|  0.61148
USER: genes 6 Torsion [N]-C--CA-[N] |==|  0.23521
USER: genes 7 Torsion [N]-C--CA-[N] |==|  0.22867
USER: genes 8 Torsion [C]-CA--CB-[CG] |==|  0.72147
USER: genes 9 Torsion [CA]-CB--CG-[CD] |==|  0.15493
USER: genes 10 Torsion [CB]-CG--CD-[OE2] |==|  0.17835
USER: genes 11 Torsion [C]-N--CA-[CB] |==|  0.21989
USER: genes 12 Torsion [N]-CA--CB-[OG] |==|  0.74837
USER: genes 13 Torsion [CA]-CB--OG-[HG] |==|  0.08896
USER: genes 14 Torsion [N]-CA--C-[N] |==|  0.00000
USER: genes 15 Torsion [C]-N--CA-[CB] |==|  0.16155
USER: genes 16 Torsion [N]-CA--C-[OXT] |==|  0.55324
USER: genes 17 Torsion [N]-CA--CB-[CG] |==|  0.56350
USER: genes 18 Torsion [CA]-CB--CG-[CD] |==|  0.63634
USER: genes 19 Torsion [CB]-CG--CD-[NE] |==|  0.05091
USER: genes 20 Torsion [CG]-CD--NE-[HE] |==|  0.18676
ROOT
ATOM      1  C   GLY B 361      36.739 -12.437 -10.899  1.00 26.32 LIG 0.24  C 
ATOM      2 O    GLY B 361      37.039 -13.586 -10.577  1.00 25.16 LIG-0.27  OA
ATOM      3  N   SER B 362      37.554 -11.645 -11.589  1.00 27.60 LIG-0.34  N 
ATOM      4 H    SER B 362      37.366 -10.836 -11.810  1.00 27.60 LIG 0.16  HD
ENDROOT
BRANCH 1 5
ATOM      5  CA  GLY B 361      35.394 -11.856 -10.503  1.00 24.90 LIG 0.23  C 
BRANCH 5 6
ATOM      6  N   GLY B 361      34.909 -12.472  -9.279  1.00 24.70 LIG-0.35  N 
ATOM      7  C   GLY B 360      35.620 -12.413  -8.157  1.00 25.98 LIG 0.23  C 
ATOM      8 O    GLY B 360      36.728 -11.866  -8.082  1.00 23.45 LIG-0.27  OA
ATOM      9 H    GLY B 361      34.146 -12.863  -9.351  1.00 24.70 LIG 0.16  HD
BRANCH 7 10
ATOM     10  CA  GLY B 360      35.011 -13.074  -6.938  1.00 26.97 LIG 0.23  C 
BRANCH 10 11
ATOM     11  N   GLY B 360      33.756 -13.711  -7.284  1.00 32.20 LIG-0.35  N 
ATOM     12  C   PRO B 359      32.712 -13.653  -6.464  1.00 35.92 LIG 0.24  C 
ATOM     13 O    PRO B 359      32.741 -13.072  -5.382  1.00 37.04 LIG-0.27  OA
ATOM     14 H    GLY B 360      33.754 -14.115  -8.043  1.00 32.20 LIG 0.16  HD
BRANCH 12 15
ATOM     15  CA  PRO B 359      31.447 -14.360  -6.938  1.00 39.21 LIG 0.18  C 
ATOM     16  CB  PRO B 359      30.196 -13.849  -6.227  1.00 38.88 LIG 0.04  C 
ATOM     17  CG  PRO B 359      30.106 -14.745  -5.033  1.00 39.81 LIG 0.02  C 
ATOM     18  CD  PRO B 359      30.385 -16.103  -5.641  1.00 41.55 LIG 0.13  C 
ATOM     19  N   PRO B 359      31.442 -15.792  -6.620  1.00 42.03 LIG-0.34  N 
ATOM     20  C   GLU B 358      32.357 -16.635  -7.120  1.00 44.90 LIG 0.26  C 
ATOM     21 O    GLU B 358      33.255 -16.253  -7.872  1.00 45.02 LIG-0.27  OA
BRANCH 20 22
ATOM     22  CA  GLU B 358      32.248 -18.104  -6.715  1.00 48.47 LIG 0.40  C 
ATOM     23  N   GLU B 358      31.240 -18.803  -7.568  1.00 49.88 LIG 0.61  N 
BRANCH 22 24
ATOM     24  CB  GLU B 358      33.619 -18.775  -6.856  1.00 52.00 LIG 0.06  C 
BRANCH 24 25
ATOM     25  CG  GLU B 358      33.800 -19.602  -8.126  1.00 56.00 LIG 0.12  C 
BRANCH 25 26
ATOM     26  CD  GLU B 358      33.537 -18.800  -9.390  1.00 58.41 LIG 0.17  C 
ATOM     27 OE1  GLU B 358      32.573 -19.135 -10.116  1.00 59.40 LIG-0.65  OA
ATOM     28 OE2  GLU B 358      34.291 -17.839  -9.656  1.00 59.45 LIG-0.65  OA
ENDBRANCH 25 26
ENDBRANCH 24 25
ENDBRANCH 22 24
ENDBRANCH 20 22
ENDBRANCH 12 15
ENDBRANCH 10 11
ENDBRANCH 7 10
ENDBRANCH 5 6
ENDBRANCH 1 5
BRANCH 3 29
ATOM     29  CA  SER B 362      38.865 -12.106 -12.038  1.00 31.63 LIG 0.20  C 
BRANCH 29 30
ATOM     30  CB  SER B 362      38.721 -12.977 -13.295  1.00 29.14 LIG 0.20  C 
BRANCH 30 31
ATOM     31 OG   SER B 362      38.567 -14.345 -12.964  1.00 25.13 LIG-0.40  OA
ATOM     32 HG   SER B 362      38.159 -14.412 -12.233  1.00 25.13 LIG 0.21  HD
ENDBRANCH 30 31
ENDBRANCH 29 30
BRANCH 29 33
ATOM     33  C   SER B 362      39.905 -11.015 -12.303  1.00 35.65 LIG 0.24  C 
ATOM     34 O    SER B 362      41.033 -11.324 -12.684  1.00 37.77 LIG-0.27  OA
ATOM     35  N   ARG B 363      39.541  -9.749 -12.108  1.00 40.10 LIG-0.34  N 
ATOM     36 H    ARG B 363      38.763  -9.505 -11.834  1.00 40.10 LIG 0.16  HD
BRANCH 35 37
ATOM     37  CA  ARG B 363      40.478  -8.649 -12.359  1.00 45.15 LIG 0.18  C 
BRANCH 37 38
ATOM     38  C   ARG B 363      39.885  -7.275 -12.056  1.00 46.43 LIG 0.20  C 
ATOM     39 O    ARG B 363      38.878  -7.217 -11.319  1.00 47.78 LIG-0.65  OA
ATOM     40 OXT  ARG B 363      40.430  -6.269 -12.560  1.00 47.46 LIG-0.65  OA
ENDBRANCH 37 38
BRANCH 37 41
ATOM     41  CB  ARG B 363      40.966  -8.678 -13.812  1.00 48.51 LIG 0.04  C 
BRANCH 41 42
ATOM     42  CG  ARG B 363      42.292  -7.977 -14.042  1.00 53.09 LIG 0.02  C 
BRANCH 42 43
ATOM     43  CD  ARG B 363      42.209  -7.020 -15.219  1.00 56.16 LIG 0.14  C 
BRANCH 43 44
ATOM     44  NE  ARG B 363      40.827  -6.687 -15.556  1.00 60.73 LIG-0.23  N 
ATOM     45 HE   ARG B 363      40.375  -6.224 -14.990  1.00 60.73 LIG 0.18  HD
ATOM     46  CZ  ARG B 363      40.222  -7.055 -16.684  1.00 63.15 LIG 0.67  C 
ATOM     47  NH2 ARG B 363      38.961  -6.702 -16.912  1.00 63.96 LIG-0.23  N 
ATOM     48  NH1 ARG B 363      40.877  -7.775 -17.587  1.00 63.92 LIG-0.23  N 
ATOM     49 1HH2 ARG B 363      38.533  -6.235 -16.330  1.00 63.96 LIG 0.17  HD
ATOM     50 2HH2 ARG B 363      38.573  -6.941 -17.641  1.00 63.96 LIG 0.17  HD
ATOM     51 1HH1 ARG B 363      41.693  -8.005 -17.444  1.00 63.92 LIG 0.17  HD
ATOM     52 2HH1 ARG B 363      40.485  -8.011 -18.315  1.00 63.92 LIG 0.17  HD
ENDBRANCH 43 44
ENDBRANCH 42 43
ENDBRANCH 41 42
ENDBRANCH 37 41
ENDBRANCH 35 37
ENDBRANCH 29 33
ENDBRANCH 3 29
TORSDOF 19
ENDMDL
MODEL 49
USER: ADFR SOLUTION from run 153
USER: SCORE 14.585228 LL:  -4.189 LR: -12.610 RR:   0.000 FEB:  -6.942
USER: RMSD 9.950138
USER: SEED 152
USER: STATUS no improvement in best in 26 clusters for 5 generations
USER: GENES 21
USER: genes 0 Translation |==|  0.38620 0.35601 0.52009
USER: genes 1 Rotation |==|  0.87361 0.62913 0.45215 0.80240
USER: genes 2 Torsion [N]-C--CA-[N] |==|  0.62178
USER: genes 3 Torsion [C]-CA--N-[C] |==|  0.21517
USER: genes 4 Torsion [N]-C--CA-[N] |==|  0.49357
USER: genes 5 Torsion [C]-CA--N-[C] |==|  0.56437
USER: genes 6 Torsion [N]-C--CA-[N] |==|  0.50513
USER: genes 7 Torsion [N]-C--CA-[N] |==|  0.40300
USER: genes 8 Torsion [C]-CA--CB-[CG] |==|  0.88671
USER: genes 9 Torsion [CA]-CB--CG-[CD] |==|  0.37196
USER: genes 10 Torsion [CB]-CG--CD-[OE2] |==|  0.12978
USER: genes 11 Torsion [C]-N--CA-[CB] |==|  0.43352
USER: genes 12 Torsion [N]-CA--CB-[OG] |==|  0.61919
USER: genes 13 Torsion [CA]-CB--OG-[HG] |==|  0.10378
USER: genes 14 Torsion [N]-CA--C-[N] |==|  0.04898
USER: genes 15 Torsion [C]-N--CA-[CB] |==|  0.24227
USER: genes 16 Torsion [N]-CA--C-[OXT] |==|  0.84333
USER: genes 17 Torsion [N]-CA--CB-[CG] |==|  0.72020
USER: genes 18 Torsion [CA]-CB--CG-[CD] |==|  0.76181
USER: genes 19 Torsion [CB]-CG--CD-[NE] |==|  0.24829
USER: genes 20 Torsion [CG]-CD--NE-[HE] |==|  0.20889
ROOT
ATOM      1  C   GLY B 361      35.471 -16.320  -8.924  1.00 26.32 LIG 0.24  C 
ATOM      2 O    GLY B 361      35.121 -16.506 -10.089  1.00 25.16 LIG-0.27  OA
ATOM      3  N   SER B 362      35.555 -15.110  -8.381  1.00 27.60 LIG-0.34  N 
ATOM      4 H    SER B 362      35.811 -14.961  -7.574  1.00 27.60 LIG 0.16  HD
ENDROOT
BRANCH 1 5
ATOM      5  CA  GLY B 361      35.839 -17.496  -8.038  1.00 24.90 LIG 0.23  C 
BRANCH 5 6
ATOM      6  N   GLY B 361      36.669 -18.445  -8.761  1.00 24.70 LIG-0.35  N 
ATOM      7  C   GLY B 360      37.962 -18.205  -8.964  1.00 25.98 LIG 0.23  C 
ATOM      8 O    GLY B 360      38.529 -17.173  -8.583  1.00 23.45 LIG-0.27  OA
ATOM      9 H    GLY B 361      36.257 -19.148  -9.033  1.00 24.70 LIG 0.16  HD
BRANCH 7 10
ATOM     10  CA  GLY B 360      38.734 -19.270  -9.714  1.00 26.97 LIG 0.23  C 
BRANCH 10 11
ATOM     11  N   GLY B 360      40.108 -18.854  -9.909  1.00 32.20 LIG-0.35  N 
ATOM     12  C   PRO B 359      40.843 -19.364 -10.891  1.00 35.92 LIG 0.24  C 
ATOM     13 O    PRO B 359      40.418 -20.205 -11.679  1.00 37.04 LIG-0.27  OA
ATOM     14 H    GLY B 360      40.390 -18.267  -9.347  1.00 32.20 LIG 0.16  HD
BRANCH 12 15
ATOM     15  CA  PRO B 359      42.274 -18.847 -10.998  1.00 39.21 LIG 0.18  C 
ATOM     16  CB  PRO B 359      42.329 -17.348 -11.285  1.00 38.88 LIG 0.04  C 
ATOM     17  CG  PRO B 359      42.327 -17.299 -12.779  1.00 39.81 LIG 0.02  C 
ATOM     18  CD  PRO B 359      43.320 -18.387 -13.128  1.00 41.55 LIG 0.13  C 
ATOM     19  N   PRO B 359      43.005 -19.425 -12.130  1.00 42.03 LIG-0.34  N 
ATOM     20  C   GLU B 358      43.246 -20.740 -12.225  1.00 44.90 LIG 0.26  C 
ATOM     21 O    GLU B 358      42.864 -21.538 -11.366  1.00 45.02 LIG-0.27  OA
BRANCH 20 22
ATOM     22  CA  GLU B 358      44.017 -21.222 -13.453  1.00 48.47 LIG 0.40  C 
ATOM     23  N   GLU B 358      44.904 -22.368 -13.090  1.00 49.88 LIG 0.61  N 
BRANCH 22 24
ATOM     24  CB  GLU B 358      43.026 -21.642 -14.544  1.00 52.00 LIG 0.06  C 
BRANCH 24 25
ATOM     25  CG  GLU B 358      41.807 -22.412 -14.041  1.00 56.00 LIG 0.12  C 
BRANCH 25 26
ATOM     26  CD  GLU B 358      40.505 -21.905 -14.640  1.00 58.41 LIG 0.17  C 
ATOM     27 OE1  GLU B 358      39.537 -21.705 -13.872  1.00 59.40 LIG-0.65  OA
ATOM     28 OE2  GLU B 358      40.452 -21.706 -15.873  1.00 59.45 LIG-0.65  OA
ENDBRANCH 25 26
ENDBRANCH 24 25
ENDBRANCH 22 24
ENDBRANCH 20 22
ENDBRANCH 12 15
ENDBRANCH 10 11
ENDBRANCH 7 10
ENDBRANCH 5 6
ENDBRANCH 1 5
BRANCH 3 29
ATOM     29  CA  SER B 362      35.208 -13.910  -9.137  1.00 31.63 LIG 0.20  C 
BRANCH 29 30
ATOM     30  CB  SER B 362      34.818 -12.773  -8.179  1.00 29.14 LIG 0.20  C 
BRANCH 30 31
ATOM     31 OG   SER B 362      33.676 -12.075  -8.641  1.00 25.13 LIG-0.40  OA
ATOM     32 HG   SER B 362      33.139 -12.616  -8.992  1.00 25.13 LIG 0.21  HD
ENDBRANCH 30 31
ENDBRANCH 29 30
BRANCH 29 33
ATOM     33  C   SER B 362      36.272 -13.399 -10.110  1.00 35.65 LIG 0.24  C 
ATOM     34 O    SER B 362      36.210 -12.246 -10.535  1.00 37.77 LIG-0.27  OA
ATOM     35  N   ARG B 363      37.243 -14.237 -10.465  1.00 40.10 LIG-0.34  N 
ATOM     36 H    ARG B 363      37.306 -15.050 -10.192  1.00 40.10 LIG 0.16  HD
BRANCH 35 37
ATOM     37  CA  ARG B 363      38.308 -13.812 -11.380  1.00 45.15 LIG 0.18  C 
BRANCH 37 38
ATOM     38  C   ARG B 363      38.864 -14.955 -12.227  1.00 46.43 LIG 0.20  C 
ATOM     39 O    ARG B 363      38.835 -14.834 -13.471  1.00 47.78 LIG-0.65  OA
ATOM     40 OXT  ARG B 363      39.319 -15.961 -11.641  1.00 47.46 LIG-0.65  OA
ENDBRANCH 37 38
BRANCH 37 41
ATOM     41  CB  ARG B 363      39.455 -13.156 -10.604  1.00 48.51 LIG 0.04  C 
BRANCH 41 42
ATOM     42  CG  ARG B 363      39.452 -11.639 -10.642  1.00 53.09 LIG 0.02  C 
BRANCH 42 43
ATOM     43  CD  ARG B 363      40.166 -11.121 -11.878  1.00 56.16 LIG 0.14  C 
BRANCH 43 44
ATOM     44  NE  ARG B 363      39.257 -10.968 -13.012  1.00 60.73 LIG-0.23  N 
ATOM     45 HE   ARG B 363      38.717 -10.299 -13.007  1.00 60.73 LIG 0.18  HD
ATOM     46  CZ  ARG B 363      39.210 -11.798 -14.052  1.00 63.15 LIG 0.67  C 
ATOM     47  NH2 ARG B 363      38.354 -11.580 -15.044  1.00 63.96 LIG-0.23  N 
ATOM     48  NH1 ARG B 363      40.021 -12.849 -14.102  1.00 63.92 LIG-0.23  N 
ATOM     49 1HH2 ARG B 363      37.827 -10.900 -15.016  1.00 63.96 LIG 0.17  HD
ATOM     50 2HH2 ARG B 363      38.327 -12.118 -15.714  1.00 63.96 LIG 0.17  HD
ATOM     51 1HH1 ARG B 363      40.577 -12.994 -13.463  1.00 63.92 LIG 0.17  HD
ATOM     52 2HH1 ARG B 363      39.990 -13.384 -14.775  1.00 63.92 LIG 0.17  HD
ENDBRANCH 43 44
ENDBRANCH 42 43
ENDBRANCH 41 42
ENDBRANCH 37 41
ENDBRANCH 35 37
ENDBRANCH 29 33
ENDBRANCH 3 29
TORSDOF 19
ENDMDL
