MODEL 1
USER: ADFR SOLUTION from run 162
USER: SCORE 17.760138 LL:  -3.004 LR: -16.965 RR:   0.000 FEB:  -9.806
USER: RMSD 10.714618
USER: SEED 161
USER: STATUS no improvement in best in 2 clusters for 5 generations
USER: GENES 26
USER: genes 0 Translation |==|  0.57236 0.70516 0.38572
USER: genes 1 Rotation |==|  0.73267 0.60788 0.91309 0.61656
USER: genes 2 Torsion [N]-CA--C-[N] |==|  0.47291
USER: genes 3 Torsion [C]-N--CA-[CB] |==|  0.35706
USER: genes 4 Torsion [N]-CA--CB-[OG] |==|  0.92452
USER: genes 5 Torsion [CA]-CB--OG-[HG] |==|  0.01522
USER: genes 6 Torsion [N]-CA--C-[N] |==|  0.87809
USER: genes 7 Torsion [C]-N--CA-[C] |==|  0.58743
USER: genes 8 Torsion [N]-CA--C-[N] |==|  0.78341
USER: genes 9 Torsion [C]-N--CA-[C] |==|  0.86309
USER: genes 10 Torsion [N]-CA--C-[O] |==|  0.31080
USER: genes 11 Torsion [N]-CA--CB-[OG] |==|  0.65185
USER: genes 12 Torsion [CA]-CB--OG-[HG] |==|  0.79067
USER: genes 13 Torsion [N]-CA--CB-[OG] |==|  0.98449
USER: genes 14 Torsion [CA]-CB--OG-[HG] |==|  0.51523
USER: genes 15 Torsion [N]-C--CA-[N] |==|  0.28859
USER: genes 16 Torsion [C]-CA--N-[C] |==|  0.75548
USER: genes 17 Torsion [N]-C--CA-[N] |==|  0.92057
USER: genes 18 Torsion [C]-CA--CB-[CG] |==|  0.14284
USER: genes 19 Torsion [CA]-CB--CG-[CD] |==|  0.15023
USER: genes 20 Torsion [CB]-CG--CD-[OE1] |==|  0.18618
USER: genes 21 Torsion [C]-CA--CB-[CG] |==|  0.48270
USER: genes 22 Torsion [CA]-CB--CG-[CD] |==|  0.38225
USER: genes 23 Torsion [CB]-CG--CD-[CE] |==|  0.65405
USER: genes 24 Torsion [CG]-CD--CE-[NZ] |==|  0.10331
USER: genes 25 Torsion [CD]-CE--NZ-[HZ3] |==|  0.73765
ROOT
ATOM      1  C   LYS B 143      36.171 -12.442 -10.309  1.00 34.55 LIG 0.24  C 
ATOM      2 O    LYS B 143      35.118 -11.820 -10.459  1.00 35.84 LIG-0.27  OA
ATOM      3  N   PRO B 144      36.189 -13.713  -9.875  1.00 31.41 LIG-0.34  N 
ATOM      4  CA  PRO B 144      34.933 -14.395  -9.555  1.00 28.99 LIG 0.18  C 
ATOM      5  CB  PRO B 144      35.349 -15.862  -9.492  1.00 27.49 LIG 0.04  C 
ATOM      6  CG  PRO B 144      36.716 -15.777  -8.927  1.00 29.54 LIG 0.02  C 
ATOM      7  CD  PRO B 144      37.334 -14.625  -9.711  1.00 30.41 LIG 0.13  C 
ENDROOT
BRANCH 4 8
ATOM      8  C   PRO B 144      34.363 -13.899  -8.234  1.00 27.24 LIG 0.24  C 
ATOM      9  N   SER B 145      33.128 -14.298  -7.938  1.00 24.69 LIG-0.34  N 
ATOM     10 H    SER B 145      32.657 -14.805  -8.449  1.00 24.69 LIG 0.16  HD
ATOM     11 O    PRO B 144      35.031 -13.173  -7.503  1.00 26.33 LIG-0.27  OA
BRANCH 9 12
ATOM     12  CA  SER B 145      32.457 -13.906  -6.706  1.00 22.76 LIG 0.20  C 
BRANCH 12 13
ATOM     13  CB  SER B 145      31.077 -13.327  -7.016  1.00 22.87 LIG 0.20  C 
BRANCH 13 14
ATOM     14 OG   SER B 145      31.052 -12.757  -8.316  1.00 23.93 LIG-0.40  OA
ATOM     15 HG   SER B 145      31.781 -12.910  -8.704  1.00 23.93 LIG 0.21  HD
ENDBRANCH 13 14
ENDBRANCH 12 13
BRANCH 12 16
ATOM     16  C   SER B 145      32.278 -15.144  -5.845  1.00 23.07 LIG 0.24  C 
ATOM     17 O    SER B 145      32.519 -15.111  -4.634  1.00 22.80 LIG-0.27  OA
ATOM     18  N   SER B 146      31.859 -16.238  -6.470  1.00 21.84 LIG-0.34  N 
ATOM     19 H    SER B 146      31.664 -16.274  -7.307  1.00 21.84 LIG 0.16  HD
BRANCH 18 20
ATOM     20  CA  SER B 146      31.695 -17.493  -5.752  1.00 21.58 LIG 0.20  C 
BRANCH 20 21
ATOM     21  C   SER B 146      31.999 -18.590  -6.770  1.00 21.23 LIG 0.24  C 
ATOM     22 O    SER B 146      33.088 -19.172  -6.751  1.00 18.65 LIG-0.27  OA
ATOM     23  N   SER B 147      31.044 -18.879  -7.648  1.00 20.83 LIG-0.34  N 
ATOM     24 H    SER B 147      30.281 -18.483  -7.677  1.00 20.83 LIG 0.16  HD
BRANCH 23 25
ATOM     25  CA  SER B 147      31.223 -19.919  -8.657  1.00 21.16 LIG 0.21  C 
BRANCH 25 26
ATOM     26  C   SER B 147      32.542 -19.779  -9.416  1.00 22.63 LIG 0.20  C 
ATOM     27 O    SER B 147      33.415 -20.654  -9.233  1.00 24.48 LIG-0.65  OA
ATOM     28 OXT  SER B 147      32.687 -18.809 -10.191  1.00 22.21 LIG-0.65  OA
ENDBRANCH 25 26
BRANCH 25 29
ATOM     29  CB  SER B 147      30.052 -19.904  -9.646  1.00 20.11 LIG 0.20  C 
BRANCH 29 30
ATOM     30 OG   SER B 147      29.437 -21.175  -9.738  1.00 18.07 LIG-0.40  OA
ATOM     31 HG   SER B 147      29.923 -21.689 -10.191  1.00 18.07 LIG 0.21  HD
ENDBRANCH 29 30
ENDBRANCH 25 29
ENDBRANCH 23 25
ENDBRANCH 20 21
BRANCH 20 32
ATOM     32  CB  SER B 146      30.262 -17.635  -5.236  1.00 20.68 LIG 0.20  C 
BRANCH 32 33
ATOM     33 OG   SER B 146      29.526 -16.455  -5.486  1.00 26.78 LIG-0.40  OA
ATOM     34 HG   SER B 146      28.767 -16.519  -5.132  1.00 26.78 LIG 0.21  HD
ENDBRANCH 32 33
ENDBRANCH 20 32
ENDBRANCH 18 20
ENDBRANCH 12 16
ENDBRANCH 9 12
ENDBRANCH 4 8
BRANCH 1 35
ATOM     35  CA  LYS B 143      37.511 -11.783 -10.627  1.00 37.18 LIG 0.18  C 
BRANCH 35 36
ATOM     36  N   LYS B 143      37.682 -11.732 -12.076  1.00 37.14 LIG-0.35  N 
ATOM     37  C   GLU B 142      38.230 -12.731 -12.757  1.00 37.51 LIG 0.26  C 
ATOM     38 O    GLU B 142      38.637 -13.762 -12.223  1.00 36.88 LIG-0.27  OA
ATOM     39 H    LYS B 143      37.398 -11.005 -12.439  1.00 37.14 LIG 0.16  HD
BRANCH 37 40
ATOM     40  CA  GLU B 142      38.331 -12.539 -14.268  1.00 37.87 LIG 0.40  C 
ATOM     41  N   GLU B 142      37.257 -11.654 -14.805  1.00 38.42 LIG 0.61  N 
BRANCH 40 42
ATOM     42  CB  GLU B 142      39.708 -11.965 -14.605  1.00 37.65 LIG 0.06  C 
BRANCH 42 43
ATOM     43  CG  GLU B 142      40.878 -12.727 -14.013  1.00 37.75 LIG 0.12  C 
BRANCH 43 44
ATOM     44  CD  GLU B 142      40.853 -14.204 -14.363  1.00 38.95 LIG 0.17  C 
ATOM     45 OE1  GLU B 142      41.025 -14.543 -15.555  1.00 40.26 LIG-0.65  OA
ATOM     46 OE2  GLU B 142      40.646 -15.029 -13.448  1.00 39.11 LIG-0.65  OA
ENDBRANCH 43 44
ENDBRANCH 42 43
ENDBRANCH 40 42
ENDBRANCH 37 40
ENDBRANCH 35 36
BRANCH 35 47
ATOM     47  CB  LYS B 143      37.537 -10.367 -10.045  1.00 39.83 LIG 0.04  C 
BRANCH 47 48
ATOM     48  CG  LYS B 143      38.880  -9.654 -10.166  1.00 44.30 LIG 0.00  C 
BRANCH 48 49
ATOM     49  CD  LYS B 143      38.709  -8.196 -10.583  1.00 47.73 LIG 0.03  C 
BRANCH 49 50
ATOM     50  CE  LYS B 143      39.518  -7.894 -11.845  1.00 49.61 LIG 0.23  C 
BRANCH 50 51
ATOM     51  NZ  LYS B 143      39.526  -9.025 -12.818  1.00 50.46 LIG-0.08  N 
ATOM     52 HZ2  LYS B 143      39.535  -8.703 -13.648  1.00 50.46 LIG 0.27  HD
ATOM     53 HZ3  LYS B 143      40.250  -9.525 -12.686  1.00 50.46 LIG 0.27  HD
ATOM     54 HZ1  LYS B 143      38.798  -9.522 -12.701  1.00 50.46 LIG 0.27  HD
ENDBRANCH 50 51
ENDBRANCH 49 50
ENDBRANCH 48 49
ENDBRANCH 47 48
ENDBRANCH 35 47
ENDBRANCH 1 35
TORSDOF 24
ENDMDL
MODEL 2
USER: ADFR SOLUTION from run 34
USER: SCORE 19.855744 LL:  -3.752 LR: -16.753 RR:   0.000 FEB:  -9.594
USER: RMSD 11.237065
USER: SEED 33
USER: STATUS no improvement in best in 4 clusters for 5 generations
USER: GENES 26
USER: genes 0 Translation |==|  0.69097 0.73571 0.40280
USER: genes 1 Rotation |==|  0.07363 0.75375 0.53882 0.54809
USER: genes 2 Torsion [N]-CA--C-[N] |==|  0.56064
USER: genes 3 Torsion [C]-N--CA-[CB] |==|  0.14004
USER: genes 4 Torsion [N]-CA--CB-[OG] |==|  0.58848
USER: genes 5 Torsion [CA]-CB--OG-[HG] |==|  0.84702
USER: genes 6 Torsion [N]-CA--C-[N] |==|  0.11879
USER: genes 7 Torsion [C]-N--CA-[C] |==|  0.77431
USER: genes 8 Torsion [N]-CA--C-[N] |==|  0.48826
USER: genes 9 Torsion [C]-N--CA-[C] |==|  0.67753
USER: genes 10 Torsion [N]-CA--C-[O] |==|  0.71862
USER: genes 11 Torsion [N]-CA--CB-[OG] |==|  0.86785
USER: genes 12 Torsion [CA]-CB--OG-[HG] |==|  0.22198
USER: genes 13 Torsion [N]-CA--CB-[OG] |==|  0.01160
USER: genes 14 Torsion [CA]-CB--OG-[HG] |==|  0.16748
USER: genes 15 Torsion [N]-C--CA-[N] |==|  0.84444
USER: genes 16 Torsion [C]-CA--N-[C] |==|  0.69524
USER: genes 17 Torsion [N]-C--CA-[N] |==|  0.48199
USER: genes 18 Torsion [C]-CA--CB-[CG] |==|  0.93036
USER: genes 19 Torsion [CA]-CB--CG-[CD] |==|  0.83300
USER: genes 20 Torsion [CB]-CG--CD-[OE1] |==|  0.96443
USER: genes 21 Torsion [C]-CA--CB-[CG] |==|  0.43034
USER: genes 22 Torsion [CA]-CB--CG-[CD] |==|  0.27446
USER: genes 23 Torsion [CB]-CG--CD-[CE] |==|  0.64722
USER: genes 24 Torsion [CG]-CD--CE-[NZ] |==|  0.40756
USER: genes 25 Torsion [CD]-CE--NZ-[HZ3] |==|  0.73037
ROOT
ATOM      1  C   LYS B 143      38.661 -11.777  -9.899  1.00 34.55 LIG 0.24  C 
ATOM      2 O    LYS B 143      39.387 -12.449  -9.165  1.00 35.84 LIG-0.27  OA
ATOM      3  N   PRO B 144      37.331 -11.960  -9.942  1.00 31.41 LIG-0.34  N 
ATOM      4  CA  PRO B 144      36.706 -12.990  -9.110  1.00 28.99 LIG 0.18  C 
ATOM      5  CB  PRO B 144      35.228 -12.615  -9.155  1.00 27.49 LIG 0.04  C 
ATOM      6  CG  PRO B 144      35.080 -12.091 -10.534  1.00 29.54 LIG 0.02  C 
ATOM      7  CD  PRO B 144      36.311 -11.208 -10.693  1.00 30.41 LIG 0.13  C 
ENDROOT
BRANCH 4 8
ATOM      8  C   PRO B 144      36.968 -14.380  -9.673  1.00 27.24 LIG 0.24  C 
ATOM      9  N   SER B 145      36.119 -15.335  -9.301  1.00 24.69 LIG-0.34  N 
ATOM     10 H    SER B 145      35.454 -15.202  -8.772  1.00 24.69 LIG 0.16  HD
ATOM     11 O    PRO B 144      37.916 -14.576 -10.428  1.00 26.33 LIG-0.27  OA
BRANCH 9 12
ATOM     12  CA  SER B 145      36.242 -16.710  -9.766  1.00 22.76 LIG 0.20  C 
BRANCH 12 13
ATOM     13  CB  SER B 145      37.669 -17.215  -9.554  1.00 22.87 LIG 0.20  C 
BRANCH 13 14
ATOM     14 OG   SER B 145      38.027 -18.147 -10.564  1.00 23.93 LIG-0.40  OA
ATOM     15 HG   SER B 145      37.462 -18.768 -10.585  1.00 23.93 LIG 0.21  HD
ENDBRANCH 13 14
ENDBRANCH 12 13
BRANCH 12 16
ATOM     16  C   SER B 145      35.299 -17.577  -8.950  1.00 23.07 LIG 0.24  C 
ATOM     17 O    SER B 145      35.659 -18.683  -8.533  1.00 22.80 LIG-0.27  OA
ATOM     18  N   SER B 146      34.089 -17.078  -8.725  1.00 21.84 LIG-0.34  N 
ATOM     19 H    SER B 146      33.828 -16.302  -8.987  1.00 21.84 LIG 0.16  HD
BRANCH 18 20
ATOM     20  CA  SER B 146      33.089 -17.841  -7.993  1.00 21.58 LIG 0.20  C 
BRANCH 20 21
ATOM     21  C   SER B 146      32.482 -18.804  -9.011  1.00 21.23 LIG 0.24  C 
ATOM     22 O    SER B 146      32.827 -18.756 -10.195  1.00 18.65 LIG-0.27  OA
ATOM     23  N   SER B 147      31.591 -19.679  -8.555  1.00 20.83 LIG-0.34  N 
ATOM     24 H    SER B 147      31.339 -19.725  -7.735  1.00 20.83 LIG 0.16  HD
BRANCH 23 25
ATOM     25  CA  SER B 147      30.958 -20.654  -9.438  1.00 21.16 LIG 0.21  C 
BRANCH 25 26
ATOM     26  C   SER B 147      29.448 -20.446  -9.553  1.00 22.63 LIG 0.20  C 
ATOM     27 O    SER B 147      28.705 -21.198  -8.888  1.00 24.48 LIG-0.65  OA
ATOM     28 OXT  SER B 147      29.024 -19.531 -10.290  1.00 22.21 LIG-0.65  OA
ENDBRANCH 25 26
BRANCH 25 29
ATOM     29  CB  SER B 147      31.250 -22.078  -8.951  1.00 20.11 LIG 0.20  C 
BRANCH 29 30
ATOM     30 OG   SER B 147      32.623 -22.253  -8.660  1.00 18.07 LIG-0.40  OA
ATOM     31 HG   SER B 147      32.793 -21.931  -7.903  1.00 18.07 LIG 0.21  HD
ENDBRANCH 29 30
ENDBRANCH 25 29
ENDBRANCH 23 25
ENDBRANCH 20 21
BRANCH 20 32
ATOM     32  CB  SER B 146      32.009 -16.914  -7.433  1.00 20.68 LIG 0.20  C 
BRANCH 32 33
ATOM     33 OG   SER B 146      32.225 -15.586  -7.861  1.00 26.78 LIG-0.40  OA
ATOM     34 HG   SER B 146      32.200 -15.553  -8.699  1.00 26.78 LIG 0.21  HD
ENDBRANCH 32 33
ENDBRANCH 20 32
ENDBRANCH 18 20
ENDBRANCH 12 16
ENDBRANCH 9 12
ENDBRANCH 4 8
BRANCH 1 35
ATOM     35  CA  LYS B 143      39.256 -10.687 -10.789  1.00 37.18 LIG 0.18  C 
BRANCH 35 36
ATOM     36  N   LYS B 143      38.867 -10.941 -12.172  1.00 37.14 LIG-0.35  N 
ATOM     37  C   GLU B 142      39.741 -11.343 -13.089  1.00 37.51 LIG 0.26  C 
ATOM     38 O    GLU B 142      40.932 -11.523 -12.844  1.00 36.88 LIG-0.27  OA
ATOM     39 H    LYS B 143      38.032 -10.808 -12.334  1.00 37.14 LIG 0.16  HD
BRANCH 37 40
ATOM     40  CA  GLU B 142      39.184 -11.579 -14.490  1.00 37.87 LIG 0.40  C 
ATOM     41  N   GLU B 142      40.252 -11.876 -15.488  1.00 38.42 LIG 0.61  N 
BRANCH 40 42
ATOM     42  CB  GLU B 142      38.175 -12.729 -14.436  1.00 37.65 LIG 0.06  C 
BRANCH 42 43
ATOM     43  CG  GLU B 142      38.383 -13.705 -13.294  1.00 37.75 LIG 0.12  C 
BRANCH 43 44
ATOM     44  CD  GLU B 142      39.741 -14.383 -13.343  1.00 38.95 LIG 0.17  C 
ATOM     45 OE1  GLU B 142      40.427 -14.284 -14.385  1.00 40.26 LIG-0.65  OA
ATOM     46 OE2  GLU B 142      40.120 -15.029 -12.343  1.00 39.11 LIG-0.65  OA
ENDBRANCH 43 44
ENDBRANCH 42 43
ENDBRANCH 40 42
ENDBRANCH 37 40
ENDBRANCH 35 36
BRANCH 35 47
ATOM     47  CB  LYS B 143      38.736  -9.319 -10.340  1.00 39.83 LIG 0.04  C 
BRANCH 47 48
ATOM     48  CG  LYS B 143      39.646  -8.147 -10.692  1.00 44.30 LIG 0.00  C 
BRANCH 48 49
ATOM     49  CD  LYS B 143      39.175  -7.428 -11.953  1.00 47.73 LIG 0.03  C 
BRANCH 49 50
ATOM     50  CE  LYS B 143      40.312  -7.314 -12.970  1.00 49.61 LIG 0.23  C 
BRANCH 50 51
ATOM     51  NZ  LYS B 143      39.840  -7.385 -14.384  1.00 50.46 LIG-0.08  N 
ATOM     52 HZ2  LYS B 143      40.322  -6.830 -14.886  1.00 50.46 LIG 0.27  HD
ATOM     53 HZ3  LYS B 143      39.936  -8.217 -14.688  1.00 50.46 LIG 0.27  HD
ATOM     54 HZ1  LYS B 143      38.982  -7.153 -14.422  1.00 50.46 LIG 0.27  HD
ENDBRANCH 50 51
ENDBRANCH 49 50
ENDBRANCH 48 49
ENDBRANCH 47 48
ENDBRANCH 35 47
ENDBRANCH 1 35
TORSDOF 24
ENDMDL
MODEL 3
USER: ADFR SOLUTION from run 34
USER: SCORE 19.295655 LL:  -3.703 LR: -16.309 RR:   0.000 FEB:  -9.150
USER: RMSD 10.590900
USER: SEED 33
USER: STATUS no improvement in best in 4 clusters for 5 generations
USER: GENES 26
USER: genes 0 Translation |==|  0.68323 0.75106 0.42114
USER: genes 1 Rotation |==|  0.06407 0.74153 0.49512 0.54009
USER: genes 2 Torsion [N]-CA--C-[N] |==|  0.72208
USER: genes 3 Torsion [C]-N--CA-[CB] |==|  0.88262
USER: genes 4 Torsion [N]-CA--CB-[OG] |==|  0.42086
USER: genes 5 Torsion [CA]-CB--OG-[HG] |==|  0.15110
USER: genes 6 Torsion [N]-CA--C-[N] |==|  0.37202
USER: genes 7 Torsion [C]-N--CA-[C] |==|  0.76986
USER: genes 8 Torsion [N]-CA--C-[N] |==|  0.94823
USER: genes 9 Torsion [C]-N--CA-[C] |==|  0.51283
USER: genes 10 Torsion [N]-CA--C-[O] |==|  0.96976
USER: genes 11 Torsion [N]-CA--CB-[OG] |==|  0.20728
USER: genes 12 Torsion [CA]-CB--OG-[HG] |==|  0.15384
USER: genes 13 Torsion [N]-CA--CB-[OG] |==|  0.00959
USER: genes 14 Torsion [CA]-CB--OG-[HG] |==|  0.13462
USER: genes 15 Torsion [N]-C--CA-[N] |==|  0.87400
USER: genes 16 Torsion [C]-CA--N-[C] |==|  0.70150
USER: genes 17 Torsion [N]-C--CA-[N] |==|  0.46033
USER: genes 18 Torsion [C]-CA--CB-[CG] |==|  0.91584
USER: genes 19 Torsion [CA]-CB--CG-[CD] |==|  0.81467
USER: genes 20 Torsion [CB]-CG--CD-[OE1] |==|  0.97816
USER: genes 21 Torsion [C]-CA--CB-[CG] |==|  0.45769
USER: genes 22 Torsion [CA]-CB--CG-[CD] |==|  0.23599
USER: genes 23 Torsion [CB]-CG--CD-[CE] |==|  0.66257
USER: genes 24 Torsion [CG]-CD--CE-[NZ] |==|  0.49115
USER: genes 25 Torsion [CD]-CE--NZ-[HZ3] |==|  0.67292
ROOT
ATOM      1  C   LYS B 143      38.499 -11.444  -9.459  1.00 34.55 LIG 0.24  C 
ATOM      2 O    LYS B 143      39.138 -11.988  -8.558  1.00 35.84 LIG-0.27  OA
ATOM      3  N   PRO B 144      37.196 -11.702  -9.662  1.00 31.41 LIG-0.34  N 
ATOM      4  CA  PRO B 144      36.499 -12.666  -8.807  1.00 28.99 LIG 0.18  C 
ATOM      5  CB  PRO B 144      35.029 -12.379  -9.099  1.00 27.49 LIG 0.04  C 
ATOM      6  CG  PRO B 144      35.059 -12.022 -10.537  1.00 29.54 LIG 0.02  C 
ATOM      7  CD  PRO B 144      36.266 -11.096 -10.629  1.00 30.41 LIG 0.13  C 
ENDROOT
BRANCH 4 8
ATOM      8  C   PRO B 144      36.891 -14.093  -9.160  1.00 27.24 LIG 0.24  C 
ATOM      9  N   SER B 145      36.035 -14.768  -9.923  1.00 24.69 LIG-0.34  N 
ATOM     10 H    SER B 145      35.293 -14.440 -10.211  1.00 24.69 LIG 0.16  HD
ATOM     11 O    PRO B 144      37.947 -14.567  -8.750  1.00 26.33 LIG-0.27  OA
BRANCH 9 12
ATOM     12  CA  SER B 145      36.281 -16.140 -10.345  1.00 22.76 LIG 0.20  C 
BRANCH 12 13
ATOM     13  CB  SER B 145      37.742 -16.312 -10.761  1.00 22.87 LIG 0.20  C 
BRANCH 13 14
ATOM     14 OG   SER B 145      38.171 -17.649 -10.545  1.00 23.93 LIG-0.40  OA
ATOM     15 HG   SER B 145      37.650 -18.177 -10.937  1.00 23.93 LIG 0.21  HD
ENDBRANCH 13 14
ENDBRANCH 12 13
BRANCH 12 16
ATOM     16  C   SER B 145      36.005 -17.059  -9.166  1.00 23.07 LIG 0.24  C 
ATOM     17 O    SER B 145      36.448 -16.796  -8.043  1.00 22.80 LIG-0.27  OA
ATOM     18  N   SER B 146      35.277 -18.139  -9.423  1.00 21.84 LIG-0.34  N 
ATOM     19 H    SER B 146      34.942 -18.327 -10.192  1.00 21.84 LIG 0.16  HD
BRANCH 18 20
ATOM     20  CA  SER B 146      34.989 -19.112  -8.379  1.00 21.58 LIG 0.20  C 
BRANCH 20 21
ATOM     21  C   SER B 146      36.216 -20.019  -8.315  1.00 21.23 LIG 0.24  C 
ATOM     22 O    SER B 146      36.419 -20.722  -7.321  1.00 18.65 LIG-0.27  OA
ATOM     23  N   SER B 147      37.026 -20.014  -9.369  1.00 20.83 LIG-0.34  N 
ATOM     24 H    SER B 147      36.901 -19.530 -10.069  1.00 20.83 LIG 0.16  HD
BRANCH 23 25
ATOM     25  CA  SER B 147      38.220 -20.851  -9.421  1.00 21.16 LIG 0.21  C 
BRANCH 25 26
ATOM     26  C   SER B 147      39.058 -20.601 -10.674  1.00 22.63 LIG 0.20  C 
ATOM     27 O    SER B 147      38.555 -19.905 -11.581  1.00 24.48 LIG-0.65  OA
ATOM     28 OXT  SER B 147      40.207 -21.088 -10.733  1.00 22.21 LIG-0.65  OA
ENDBRANCH 25 26
BRANCH 25 29
ATOM     29  CB  SER B 147      37.832 -22.333  -9.343  1.00 20.11 LIG 0.20  C 
BRANCH 29 30
ATOM     30 OG   SER B 147      37.280 -22.786 -10.564  1.00 18.07 LIG-0.40  OA
ATOM     31 HG   SER B 147      37.818 -22.633 -11.190  1.00 18.07 LIG 0.21  HD
ENDBRANCH 29 30
ENDBRANCH 25 29
ENDBRANCH 23 25
ENDBRANCH 20 21
BRANCH 20 32
ATOM     32  CB  SER B 146      33.746 -19.929  -8.734  1.00 20.68 LIG 0.20  C 
BRANCH 32 33
ATOM     33 OG   SER B 146      33.265 -19.570 -10.012  1.00 26.78 LIG-0.40  OA
ATOM     34 HG   SER B 146      33.901 -19.565 -10.560  1.00 26.78 LIG 0.21  HD
ENDBRANCH 32 33
ENDBRANCH 20 32
ENDBRANCH 18 20
ENDBRANCH 12 16
ENDBRANCH 9 12
ENDBRANCH 4 8
BRANCH 1 35
ATOM     35  CA  LYS B 143      39.172 -10.429 -10.382  1.00 37.18 LIG 0.18  C 
BRANCH 35 36
ATOM     36  N   LYS B 143      38.783 -10.713 -11.760  1.00 37.14 LIG-0.35  N 
ATOM     37  C   GLU B 142      39.628 -11.245 -12.636  1.00 37.51 LIG 0.26  C 
ATOM     38 O    GLU B 142      40.791 -11.531 -12.355  1.00 36.88 LIG-0.27  OA
ATOM     39 H    LYS B 143      37.969 -10.505 -11.946  1.00 37.14 LIG 0.16  HD
BRANCH 37 40
ATOM     40  CA  GLU B 142      39.074 -11.495 -14.036  1.00 37.87 LIG 0.40  C 
ATOM     41  N   GLU B 142      40.147 -11.766 -15.036  1.00 38.42 LIG 0.61  N 
BRANCH 40 42
ATOM     42  CB  GLU B 142      38.094 -12.668 -13.980  1.00 37.65 LIG 0.06  C 
BRANCH 42 43
ATOM     43  CG  GLU B 142      38.401 -13.705 -12.916  1.00 37.75 LIG 0.12  C 
BRANCH 43 44
ATOM     44  CD  GLU B 142      39.690 -14.460 -13.189  1.00 38.95 LIG 0.17  C 
ATOM     45 OE1  GLU B 142      40.272 -14.284 -14.283  1.00 40.26 LIG-0.65  OA
ATOM     46 OE2  GLU B 142      40.117 -15.244 -12.315  1.00 39.11 LIG-0.65  OA
ENDBRANCH 43 44
ENDBRANCH 42 43
ENDBRANCH 40 42
ENDBRANCH 37 40
ENDBRANCH 35 36
BRANCH 35 47
ATOM     47  CB  LYS B 143      38.736  -9.014  -9.993  1.00 39.83 LIG 0.04  C 
BRANCH 47 48
ATOM     48  CG  LYS B 143      39.596  -7.900 -10.579  1.00 44.30 LIG 0.00  C 
BRANCH 48 49
ATOM     49  CD  LYS B 143      39.145  -7.521 -11.987  1.00 47.73 LIG 0.03  C 
BRANCH 49 50
ATOM     50  CE  LYS B 143      40.285  -7.705 -12.990  1.00 49.61 LIG 0.23  C 
BRANCH 50 51
ATOM     51  NZ  LYS B 143      39.876  -7.420 -14.396  1.00 50.46 LIG-0.08  N 
ATOM     52 HZ2  LYS B 143      40.394  -6.779 -14.733  1.00 50.46 LIG 0.27  HD
ATOM     53 HZ3  LYS B 143      39.964  -8.158 -14.887  1.00 50.46 LIG 0.27  HD
ATOM     54 HZ1  LYS B 143      39.027  -7.155 -14.411  1.00 50.46 LIG 0.27  HD
ENDBRANCH 50 51
ENDBRANCH 49 50
ENDBRANCH 48 49
ENDBRANCH 47 48
ENDBRANCH 35 47
ENDBRANCH 1 35
TORSDOF 24
ENDMDL
MODEL 4
USER: ADFR SOLUTION from run 165
USER: SCORE 18.488428 LL:  -4.405 LR: -16.139 RR:   0.000 FEB:  -8.980
USER: RMSD 10.455336
USER: SEED 164
USER: STATUS searching
USER: GENES 26
USER: genes 0 Translation |==|  0.58381 0.72869 0.39533
USER: genes 1 Rotation |==|  0.76347 0.55911 0.91153 0.58794
USER: genes 2 Torsion [N]-CA--C-[N] |==|  0.39813
USER: genes 3 Torsion [C]-N--CA-[CB] |==|  0.46242
USER: genes 4 Torsion [N]-CA--CB-[OG] |==|  0.99629
USER: genes 5 Torsion [CA]-CB--OG-[HG] |==|  0.92333
USER: genes 6 Torsion [N]-CA--C-[N] |==|  0.77899
USER: genes 7 Torsion [C]-N--CA-[C] |==|  0.75000
USER: genes 8 Torsion [N]-CA--C-[N] |==|  0.96537
USER: genes 9 Torsion [C]-N--CA-[C] |==|  0.19256
USER: genes 10 Torsion [N]-CA--C-[O] |==|  0.20207
USER: genes 11 Torsion [N]-CA--CB-[OG] |==|  0.62950
USER: genes 12 Torsion [CA]-CB--OG-[HG] |==|  0.81459
USER: genes 13 Torsion [N]-CA--CB-[OG] |==|  0.87287
USER: genes 14 Torsion [CA]-CB--OG-[HG] |==|  0.09696
USER: genes 15 Torsion [N]-C--CA-[N] |==|  0.23252
USER: genes 16 Torsion [C]-CA--N-[C] |==|  0.63014
USER: genes 17 Torsion [N]-C--CA-[N] |==|  0.46376
USER: genes 18 Torsion [C]-CA--CB-[CG] |==|  0.91517
USER: genes 19 Torsion [CA]-CB--CG-[CD] |==|  0.82206
USER: genes 20 Torsion [CB]-CG--CD-[OE1] |==|  0.42527
USER: genes 21 Torsion [C]-CA--CB-[CG] |==|  0.50421
USER: genes 22 Torsion [CA]-CB--CG-[CD] |==|  0.30079
USER: genes 23 Torsion [CB]-CG--CD-[CE] |==|  0.62717
USER: genes 24 Torsion [CG]-CD--CE-[NZ] |==|  0.41955
USER: genes 25 Torsion [CD]-CE--NZ-[HZ3] |==|  0.06835
ROOT
ATOM      1  C   LYS B 143      36.411 -11.930 -10.078  1.00 34.55 LIG 0.24  C 
ATOM      2 O    LYS B 143      35.371 -11.276  -9.985  1.00 35.84 LIG-0.27  OA
ATOM      3  N   PRO B 144      36.421 -13.269  -9.964  1.00 31.41 LIG-0.34  N 
ATOM      4  CA  PRO B 144      35.172 -13.990  -9.709  1.00 28.99 LIG 0.18  C 
ATOM      5  CB  PRO B 144      35.541 -15.435 -10.034  1.00 27.49 LIG 0.04  C 
ATOM      6  CG  PRO B 144      36.952 -15.507  -9.585  1.00 29.54 LIG 0.02  C 
ATOM      7  CD  PRO B 144      37.543 -14.209 -10.122  1.00 30.41 LIG 0.13  C 
ENDROOT
BRANCH 4 8
ATOM      8  C   PRO B 144      34.727 -13.819  -8.264  1.00 27.24 LIG 0.24  C 
ATOM      9  N   SER B 145      33.416 -13.720  -8.059  1.00 24.69 LIG-0.34  N 
ATOM     10 H    SER B 145      32.832 -13.745  -8.691  1.00 24.69 LIG 0.16  HD
ATOM     11 O    PRO B 144      35.556 -13.779  -7.359  1.00 26.33 LIG-0.27  OA
BRANCH 9 12
ATOM     12  CA  SER B 145      32.845 -13.558  -6.729  1.00 22.76 LIG 0.20  C 
BRANCH 12 13
ATOM     13  CB  SER B 145      31.378 -13.142  -6.829  1.00 22.87 LIG 0.20  C 
BRANCH 13 14
ATOM     14 OG   SER B 145      30.988 -12.999  -8.187  1.00 23.93 LIG-0.40  OA
ATOM     15 HG   SER B 145      31.657 -12.795  -8.651  1.00 23.93 LIG 0.21  HD
ENDBRANCH 13 14
ENDBRANCH 12 13
BRANCH 12 16
ATOM     16  C   SER B 145      32.918 -14.895  -6.011  1.00 23.07 LIG 0.24  C 
ATOM     17 O    SER B 145      33.811 -15.122  -5.188  1.00 22.80 LIG-0.27  OA
ATOM     18  N   SER B 146      31.982 -15.782  -6.327  1.00 21.84 LIG-0.34  N 
ATOM     19 H    SER B 146      31.340 -15.634  -6.880  1.00 21.84 LIG 0.16  HD
BRANCH 18 20
ATOM     20  CA  SER B 146      31.981 -17.111  -5.734  1.00 21.58 LIG 0.20  C 
BRANCH 20 21
ATOM     21  C   SER B 146      32.819 -17.978  -6.671  1.00 21.23 LIG 0.24  C 
ATOM     22 O    SER B 146      33.183 -19.103  -6.318  1.00 18.65 LIG-0.27  OA
ATOM     23  N   SER B 147      33.118 -17.465  -7.861  1.00 20.83 LIG-0.34  N 
ATOM     24 H    SER B 147      32.874 -16.683  -8.122  1.00 20.83 LIG 0.16  HD
BRANCH 23 25
ATOM     25  CA  SER B 147      33.903 -18.211  -8.839  1.00 21.16 LIG 0.21  C 
BRANCH 25 26
ATOM     26  C   SER B 147      33.141 -19.405  -9.414  1.00 22.63 LIG 0.20  C 
ATOM     27 O    SER B 147      32.213 -19.173 -10.217  1.00 24.48 LIG-0.65  OA
ATOM     28 OXT  SER B 147      33.485 -20.556  -9.069  1.00 22.21 LIG-0.65  OA
ENDBRANCH 25 26
BRANCH 25 29
ATOM     29  CB  SER B 147      35.218 -18.687  -8.212  1.00 20.11 LIG 0.20  C 
BRANCH 29 30
ATOM     30 OG   SER B 147      36.319 -18.425  -9.060  1.00 18.07 LIG-0.40  OA
ATOM     31 HG   SER B 147      36.259 -18.897  -9.752  1.00 18.07 LIG 0.21  HD
ENDBRANCH 29 30
ENDBRANCH 25 29
ENDBRANCH 23 25
ENDBRANCH 20 21
BRANCH 20 32
ATOM     32  CB  SER B 146      30.556 -17.658  -5.643  1.00 20.68 LIG 0.20  C 
BRANCH 32 33
ATOM     33 OG   SER B 146      29.679 -16.676  -5.133  1.00 26.78 LIG-0.40  OA
ATOM     34 HG   SER B 146      29.917 -15.918  -5.406  1.00 26.78 LIG 0.21  HD
ENDBRANCH 32 33
ENDBRANCH 20 32
ENDBRANCH 18 20
ENDBRANCH 12 16
ENDBRANCH 9 12
ENDBRANCH 4 8
BRANCH 1 35
ATOM     35  CA  LYS B 143      37.744 -11.232 -10.344  1.00 37.18 LIG 0.18  C 
BRANCH 35 36
ATOM     36  N   LYS B 143      38.018 -11.267 -11.777  1.00 37.14 LIG-0.35  N 
ATOM     37  C   GLU B 142      39.204 -11.621 -12.260  1.00 37.51 LIG 0.26  C 
ATOM     38 O    GLU B 142      40.151 -11.937 -11.542  1.00 36.88 LIG-0.27  OA
ATOM     39 H    LYS B 143      37.351 -11.040 -12.270  1.00 37.14 LIG 0.16  HD
BRANCH 37 40
ATOM     40  CA  GLU B 142      39.338 -11.620 -13.780  1.00 37.87 LIG 0.40  C 
ATOM     41  N   GLU B 142      40.756 -11.722 -14.231  1.00 38.42 LIG 0.61  N 
BRANCH 40 42
ATOM     42  CB  GLU B 142      38.517 -12.779 -14.351  1.00 37.65 LIG 0.06  C 
BRANCH 42 43
ATOM     43  CG  GLU B 142      38.406 -13.989 -13.442  1.00 37.75 LIG 0.12  C 
BRANCH 43 44
ATOM     44  CD  GLU B 142      39.747 -14.654 -13.186  1.00 38.95 LIG 0.17  C 
ATOM     45 OE1  GLU B 142      39.909 -15.293 -12.123  1.00 40.26 LIG-0.65  OA
ATOM     46 OE2  GLU B 142      40.647 -14.527 -14.043  1.00 39.11 LIG-0.65  OA
ENDBRANCH 43 44
ENDBRANCH 42 43
ENDBRANCH 40 42
ENDBRANCH 37 40
ENDBRANCH 35 36
BRANCH 35 47
ATOM     47  CB  LYS B 143      37.669  -9.782  -9.858  1.00 39.83 LIG 0.04  C 
BRANCH 47 48
ATOM     48  CG  LYS B 143      38.932  -8.964 -10.102  1.00 44.30 LIG 0.00  C 
BRANCH 48 49
ATOM     49  CD  LYS B 143      38.730  -7.929 -11.205  1.00 47.73 LIG 0.03  C 
BRANCH 49 50
ATOM     50  CE  LYS B 143      39.908  -7.939 -12.181  1.00 49.61 LIG 0.23  C 
BRANCH 50 51
ATOM     51  NZ  LYS B 143      39.526  -7.525 -13.562  1.00 50.46 LIG-0.08  N 
ATOM     52 HZ2  LYS B 143      39.358  -8.248 -14.054  1.00 50.46 LIG 0.27  HD
ATOM     53 HZ3  LYS B 143      38.797  -7.015 -13.529  1.00 50.46 LIG 0.27  HD
ATOM     54 HZ1  LYS B 143      40.193  -7.064 -13.930  1.00 50.46 LIG 0.27  HD
ENDBRANCH 50 51
ENDBRANCH 49 50
ENDBRANCH 48 49
ENDBRANCH 47 48
ENDBRANCH 35 47
ENDBRANCH 1 35
TORSDOF 24
ENDMDL
MODEL 5
USER: ADFR SOLUTION from run 142
USER: SCORE 18.170949 LL:  -3.868 LR: -16.091 RR:   0.000 FEB:  -8.932
USER: RMSD 11.531309
USER: SEED 141
USER: STATUS searching
USER: GENES 26
USER: genes 0 Translation |==|  0.57092 0.71303 0.39569
USER: genes 1 Rotation |==|  0.74771 0.56674 0.92211 0.57751
USER: genes 2 Torsion [N]-CA--C-[N] |==|  0.48393
USER: genes 3 Torsion [C]-N--CA-[CB] |==|  0.23655
USER: genes 4 Torsion [N]-CA--CB-[OG] |==|  0.02953
USER: genes 5 Torsion [CA]-CB--OG-[HG] |==|  0.96025
USER: genes 6 Torsion [N]-CA--C-[N] |==|  0.54180
USER: genes 7 Torsion [C]-N--CA-[C] |==|  0.62868
USER: genes 8 Torsion [N]-CA--C-[N] |==|  0.35295
USER: genes 9 Torsion [C]-N--CA-[C] |==|  0.45651
USER: genes 10 Torsion [N]-CA--C-[O] |==|  0.04822
USER: genes 11 Torsion [N]-CA--CB-[OG] |==|  0.49679
USER: genes 12 Torsion [CA]-CB--OG-[HG] |==|  0.80637
USER: genes 13 Torsion [N]-CA--CB-[OG] |==|  0.03245
USER: genes 14 Torsion [CA]-CB--OG-[HG] |==|  0.67434
USER: genes 15 Torsion [N]-C--CA-[N] |==|  0.24228
USER: genes 16 Torsion [C]-CA--N-[C] |==|  0.62111
USER: genes 17 Torsion [N]-C--CA-[N] |==|  0.46992
USER: genes 18 Torsion [C]-CA--CB-[CG] |==|  0.91676
USER: genes 19 Torsion [CA]-CB--CG-[CD] |==|  0.81304
USER: genes 20 Torsion [CB]-CG--CD-[OE1] |==|  0.42538
USER: genes 21 Torsion [C]-CA--CB-[CG] |==|  0.35859
USER: genes 22 Torsion [CA]-CB--CG-[CD] |==|  0.34773
USER: genes 23 Torsion [CB]-CG--CD-[CE] |==|  0.85762
USER: genes 24 Torsion [CG]-CD--CE-[NZ] |==|  0.24900
USER: genes 25 Torsion [CD]-CE--NZ-[HZ3] |==|  0.37470
ROOT
ATOM      1  C   LYS B 143      36.140 -12.271 -10.070  1.00 34.55 LIG 0.24  C 
ATOM      2 O    LYS B 143      35.056 -11.686 -10.050  1.00 35.84 LIG-0.27  OA
ATOM      3  N   PRO B 144      36.230 -13.605  -9.940  1.00 31.41 LIG-0.34  N 
ATOM      4  CA  PRO B 144      35.017 -14.405  -9.756  1.00 28.99 LIG 0.18  C 
ATOM      5  CB  PRO B 144      35.499 -15.824 -10.041  1.00 27.49 LIG 0.04  C 
ATOM      6  CG  PRO B 144      36.880 -15.801  -9.503  1.00 29.54 LIG 0.02  C 
ATOM      7  CD  PRO B 144      37.419 -14.471 -10.015  1.00 30.41 LIG 0.13  C 
ENDROOT
BRANCH 4 8
ATOM      8  C   PRO B 144      34.470 -14.253  -8.344  1.00 27.24 LIG 0.24  C 
ATOM      9  N   SER B 145      33.302 -14.841  -8.098  1.00 24.69 LIG-0.34  N 
ATOM     10 H    SER B 145      32.859 -15.286  -8.688  1.00 24.69 LIG 0.16  HD
ATOM     11 O    PRO B 144      35.096 -13.617  -7.501  1.00 26.33 LIG-0.27  OA
BRANCH 9 12
ATOM     12  CA  SER B 145      32.661 -14.784  -6.792  1.00 22.76 LIG 0.20  C 
BRANCH 12 13
ATOM     13  CB  SER B 145      31.837 -13.504  -6.662  1.00 22.87 LIG 0.20  C 
BRANCH 13 14
ATOM     14 OG   SER B 145      31.723 -12.850  -7.917  1.00 23.93 LIG-0.40  OA
ATOM     15 HG   SER B 145      32.282 -13.173  -8.453  1.00 23.93 LIG 0.21  HD
ENDBRANCH 13 14
ENDBRANCH 12 13
BRANCH 12 16
ATOM     16  C   SER B 145      31.725 -15.974  -6.666  1.00 23.07 LIG 0.24  C 
ATOM     17 O    SER B 145      31.803 -16.925  -7.450  1.00 22.80 LIG-0.27  OA
ATOM     18  N   SER B 146      30.835 -15.919  -5.682  1.00 21.84 LIG-0.34  N 
ATOM     19 H    SER B 146      30.780 -15.276  -5.113  1.00 21.84 LIG 0.16  HD
BRANCH 18 20
ATOM     20  CA  SER B 146      29.859 -16.982  -5.495  1.00 21.58 LIG 0.20  C 
BRANCH 20 21
ATOM     21  C   SER B 146      28.521 -16.278  -5.284  1.00 21.23 LIG 0.24  C 
ATOM     22 O    SER B 146      28.409 -15.398  -4.426  1.00 18.65 LIG-0.27  OA
ATOM     23  N   SER B 147      27.513 -16.653  -6.066  1.00 20.83 LIG-0.34  N 
ATOM     24 H    SER B 147      27.573 -17.265  -6.667  1.00 20.83 LIG 0.16  HD
BRANCH 23 25
ATOM     25  CA  SER B 147      26.194 -16.038  -5.960  1.00 21.16 LIG 0.21  C 
BRANCH 25 26
ATOM     26  C   SER B 147      25.311 -16.331  -7.173  1.00 22.63 LIG 0.20  C 
ATOM     27 O    SER B 147      25.640 -17.279  -7.917  1.00 24.48 LIG-0.65  OA
ATOM     28 OXT  SER B 147      24.298 -15.624  -7.361  1.00 22.21 LIG-0.65  OA
ENDBRANCH 25 26
BRANCH 25 29
ATOM     29  CB  SER B 147      26.328 -14.523  -5.771  1.00 20.11 LIG 0.20  C 
BRANCH 29 30
ATOM     30 OG   SER B 147      25.062 -13.897  -5.691  1.00 18.07 LIG-0.40  OA
ATOM     31 HG   SER B 147      24.688 -13.925  -6.442  1.00 18.07 LIG 0.21  HD
ENDBRANCH 29 30
ENDBRANCH 25 29
ENDBRANCH 23 25
ENDBRANCH 20 21
BRANCH 20 32
ATOM     32  CB  SER B 146      30.211 -17.825  -4.268  1.00 20.68 LIG 0.20  C 
BRANCH 32 33
ATOM     33 OG   SER B 146      31.216 -17.194  -3.504  1.00 26.78 LIG-0.40  OA
ATOM     34 HG   SER B 146      31.902 -17.679  -3.488  1.00 26.78 LIG 0.21  HD
ENDBRANCH 32 33
ENDBRANCH 20 32
ENDBRANCH 18 20
ENDBRANCH 12 16
ENDBRANCH 9 12
ENDBRANCH 4 8
BRANCH 1 35
ATOM     35  CA  LYS B 143      37.439 -11.489 -10.258  1.00 37.18 LIG 0.18  C 
BRANCH 35 36
ATOM     36  N   LYS B 143      37.762 -11.444 -11.681  1.00 37.14 LIG-0.35  N 
ATOM     37  C   GLU B 142      38.995 -11.648 -12.131  1.00 37.51 LIG 0.26  C 
ATOM     38 O    GLU B 142      39.948 -11.881 -11.389  1.00 36.88 LIG-0.27  OA
ATOM     39 H    LYS B 143      37.090 -11.276 -12.190  1.00 37.14 LIG 0.16  HD
BRANCH 37 40
ATOM     40  CA  GLU B 142      39.177 -11.581 -13.644  1.00 37.87 LIG 0.40  C 
ATOM     41  N   GLU B 142      40.613 -11.562 -14.049  1.00 38.42 LIG 0.61  N 
BRANCH 40 42
ATOM     42  CB  GLU B 142      38.463 -12.775 -14.284  1.00 37.65 LIG 0.06  C 
BRANCH 42 43
ATOM     43  CG  GLU B 142      38.400 -14.018 -13.417  1.00 37.75 LIG 0.12  C 
BRANCH 43 44
ATOM     44  CD  GLU B 142      39.766 -14.642 -13.189  1.00 38.95 LIG 0.17  C 
ATOM     45 OE1  GLU B 142      39.957 -15.312 -12.149  1.00 40.26 LIG-0.65  OA
ATOM     46 OE2  GLU B 142      40.656 -14.453 -14.044  1.00 39.11 LIG-0.65  OA
ENDBRANCH 43 44
ENDBRANCH 42 43
ENDBRANCH 40 42
ENDBRANCH 37 40
ENDBRANCH 35 36
BRANCH 35 47
ATOM     47  CB  LYS B 143      37.266 -10.068  -9.714  1.00 39.83 LIG 0.04  C 
BRANCH 47 48
ATOM     48  CG  LYS B 143      38.356  -9.621  -8.746  1.00 44.30 LIG 0.00  C 
BRANCH 48 49
ATOM     49  CD  LYS B 143      39.007  -8.316  -9.195  1.00 47.73 LIG 0.03  C 
BRANCH 49 50
ATOM     50  CE  LYS B 143      39.457  -8.407 -10.654  1.00 49.61 LIG 0.23  C 
BRANCH 50 51
ATOM     51  NZ  LYS B 143      38.401  -7.980 -11.618  1.00 50.46 LIG-0.08  N 
ATOM     52 HZ2  LYS B 143      37.761  -7.540 -11.182  1.00 50.46 LIG 0.27  HD
ATOM     53 HZ3  LYS B 143      38.759  -7.447 -12.234  1.00 50.46 LIG 0.27  HD
ATOM     54 HZ1  LYS B 143      38.052  -8.696 -12.013  1.00 50.46 LIG 0.27  HD
ENDBRANCH 50 51
ENDBRANCH 49 50
ENDBRANCH 48 49
ENDBRANCH 47 48
ENDBRANCH 35 47
ENDBRANCH 1 35
TORSDOF 24
ENDMDL
MODEL 6
USER: ADFR SOLUTION from run 179
USER: SCORE 17.864217 LL:  -3.959 LR: -15.997 RR:   0.000 FEB:  -8.838
USER: RMSD 11.092306
USER: SEED 178
USER: STATUS no improvement in best in 4 clusters for 5 generations
USER: GENES 26
USER: genes 0 Translation |==|  0.56464 0.68966 0.39768
USER: genes 1 Rotation |==|  0.75438 0.58358 0.91606 0.57213
USER: genes 2 Torsion [N]-CA--C-[N] |==|  0.36587
USER: genes 3 Torsion [C]-N--CA-[CB] |==|  0.09695
USER: genes 4 Torsion [N]-CA--CB-[OG] |==|  0.52583
USER: genes 5 Torsion [CA]-CB--OG-[HG] |==|  0.67987
USER: genes 6 Torsion [N]-CA--C-[N] |==|  0.43274
USER: genes 7 Torsion [C]-N--CA-[C] |==|  0.76255
USER: genes 8 Torsion [N]-CA--C-[N] |==|  0.89278
USER: genes 9 Torsion [C]-N--CA-[C] |==|  0.56088
USER: genes 10 Torsion [N]-CA--C-[O] |==|  0.06079
USER: genes 11 Torsion [N]-CA--CB-[OG] |==|  0.75451
USER: genes 12 Torsion [CA]-CB--OG-[HG] |==|  0.99185
USER: genes 13 Torsion [N]-CA--CB-[OG] |==|  0.70091
USER: genes 14 Torsion [CA]-CB--OG-[HG] |==|  0.82420
USER: genes 15 Torsion [N]-C--CA-[N] |==|  0.28094
USER: genes 16 Torsion [C]-CA--N-[C] |==|  0.73333
USER: genes 17 Torsion [N]-C--CA-[N] |==|  0.26257
USER: genes 18 Torsion [C]-CA--CB-[CG] |==|  0.67334
USER: genes 19 Torsion [CA]-CB--CG-[CD] |==|  0.18490
USER: genes 20 Torsion [CB]-CG--CD-[OE1] |==|  0.17335
USER: genes 21 Torsion [C]-CA--CB-[CG] |==|  0.39961
USER: genes 22 Torsion [CA]-CB--CG-[CD] |==|  0.37307
USER: genes 23 Torsion [CB]-CG--CD-[CE] |==|  0.75372
USER: genes 24 Torsion [CG]-CD--CE-[NZ] |==|  0.27568
USER: genes 25 Torsion [CD]-CE--NZ-[HZ3] |==|  0.08670
ROOT
ATOM      1  C   LYS B 143      36.008 -12.779 -10.022  1.00 34.55 LIG 0.24  C 
ATOM      2 O    LYS B 143      34.901 -12.241  -9.975  1.00 35.84 LIG-0.27  OA
ATOM      3  N   PRO B 144      36.164 -14.101  -9.838  1.00 31.41 LIG-0.34  N 
ATOM      4  CA  PRO B 144      34.999 -14.943  -9.560  1.00 28.99 LIG 0.18  C 
ATOM      5  CB  PRO B 144      35.530 -16.352  -9.805  1.00 27.49 LIG 0.04  C 
ATOM      6  CG  PRO B 144      36.932 -16.244  -9.336  1.00 29.54 LIG 0.02  C 
ATOM      7  CD  PRO B 144      37.386 -14.917  -9.933  1.00 30.41 LIG 0.13  C 
ENDROOT
BRANCH 4 8
ATOM      8  C   PRO B 144      34.512 -14.749  -8.131  1.00 27.24 LIG 0.24  C 
ATOM      9  N   SER B 145      33.205 -14.547  -7.976  1.00 24.69 LIG-0.34  N 
ATOM     10 H    SER B 145      32.647 -14.520  -8.631  1.00 24.69 LIG 0.16  HD
ATOM     11 O    PRO B 144      35.305 -14.785  -7.194  1.00 26.33 LIG-0.27  OA
BRANCH 9 12
ATOM     12  CA  SER B 145      32.597 -14.352  -6.667  1.00 22.76 LIG 0.20  C 
BRANCH 12 13
ATOM     13  CB  SER B 145      33.549 -13.583  -5.751  1.00 22.87 LIG 0.20  C 
BRANCH 13 14
ATOM     14 OG   SER B 145      33.062 -13.572  -4.417  1.00 23.93 LIG-0.40  OA
ATOM     15 HG   SER B 145      32.876 -12.784  -4.193  1.00 23.93 LIG 0.21  HD
ENDBRANCH 13 14
ENDBRANCH 12 13
BRANCH 12 16
ATOM     16  C   SER B 145      31.332 -13.531  -6.845  1.00 23.07 LIG 0.24  C 
ATOM     17 O    SER B 145      31.196 -12.783  -7.819  1.00 22.80 LIG-0.27  OA
ATOM     18  N   SER B 146      30.408 -13.665  -5.902  1.00 21.84 LIG-0.34  N 
ATOM     19 H    SER B 146      30.475 -14.197  -5.229  1.00 21.84 LIG 0.16  HD
BRANCH 18 20
ATOM     20  CA  SER B 146      29.175 -12.893  -5.947  1.00 21.58 LIG 0.20  C 
BRANCH 20 21
ATOM     21  C   SER B 146      29.502 -11.559  -5.279  1.00 21.23 LIG 0.24  C 
ATOM     22 O    SER B 146      29.026 -10.510  -5.720  1.00 18.65 LIG-0.27  OA
ATOM     23  N   SER B 147      30.302 -11.597  -4.218  1.00 20.83 LIG-0.34  N 
ATOM     24 H    SER B 147      30.644 -12.319  -3.899  1.00 20.83 LIG 0.16  HD
BRANCH 23 25
ATOM     25  CA  SER B 147      30.671 -10.384  -3.495  1.00 21.16 LIG 0.21  C 
BRANCH 25 26
ATOM     26  C   SER B 147      31.960 -10.549  -2.690  1.00 22.63 LIG 0.20  C 
ATOM     27 O    SER B 147      32.749 -11.455  -3.035  1.00 24.48 LIG-0.65  OA
ATOM     28 OXT  SER B 147      32.176  -9.770  -1.738  1.00 22.21 LIG-0.65  OA
ENDBRANCH 25 26
BRANCH 25 29
ATOM     29  CB  SER B 147      29.531  -9.954  -2.565  1.00 20.11 LIG 0.20  C 
BRANCH 29 30
ATOM     30 OG   SER B 147      28.614  -9.106  -3.230  1.00 18.07 LIG-0.40  OA
ATOM     31 HG   SER B 147      28.884  -8.958  -4.011  1.00 18.07 LIG 0.21  HD
ENDBRANCH 29 30
ENDBRANCH 25 29
ENDBRANCH 23 25
ENDBRANCH 20 21
BRANCH 20 32
ATOM     32  CB  SER B 146      28.063 -13.609  -5.178  1.00 20.68 LIG 0.20  C 
BRANCH 32 33
ATOM     33 OG   SER B 146      27.110 -14.146  -6.071  1.00 26.78 LIG-0.40  OA
ATOM     34 HG   SER B 146      26.739 -13.523  -6.494  1.00 26.78 LIG 0.21  HD
ENDBRANCH 32 33
ENDBRANCH 20 32
ENDBRANCH 18 20
ENDBRANCH 12 16
ENDBRANCH 9 12
ENDBRANCH 4 8
BRANCH 1 35
ATOM     35  CA  LYS B 143      37.260 -11.952 -10.308  1.00 37.18 LIG 0.18  C 
BRANCH 35 36
ATOM     36  N   LYS B 143      37.331 -11.679 -11.740  1.00 37.14 LIG-0.35  N 
ATOM     37  C   GLU B 142      38.052 -12.429 -12.566  1.00 37.51 LIG 0.26  C 
ATOM     38 O    GLU B 142      38.712 -13.395 -12.188  1.00 36.88 LIG-0.27  OA
ATOM     39 H    LYS B 143      36.868 -10.999 -11.993  1.00 37.14 LIG 0.16  HD
BRANCH 37 40
ATOM     40  CA  GLU B 142      38.018 -12.029 -14.038  1.00 37.87 LIG 0.40  C 
ATOM     41  N   GLU B 142      39.154 -11.138 -14.416  1.00 38.42 LIG 0.61  N 
BRANCH 40 42
ATOM     42  CB  GLU B 142      38.030 -13.295 -14.898  1.00 37.65 LIG 0.06  C 
BRANCH 42 43
ATOM     43  CG  GLU B 142      39.238 -13.438 -15.804  1.00 37.75 LIG 0.12  C 
BRANCH 43 44
ATOM     44  CD  GLU B 142      40.529 -13.637 -15.030  1.00 38.95 LIG 0.17  C 
ATOM     45 OE1  GLU B 142      40.651 -14.654 -14.312  1.00 40.26 LIG-0.65  OA
ATOM     46 OE2  GLU B 142      41.421 -12.768 -15.129  1.00 39.11 LIG-0.65  OA
ENDBRANCH 43 44
ENDBRANCH 42 43
ENDBRANCH 40 42
ENDBRANCH 37 40
ENDBRANCH 35 36
BRANCH 35 47
ATOM     47  CB  LYS B 143      37.195 -10.637  -9.526  1.00 39.83 LIG 0.04  C 
BRANCH 47 48
ATOM     48  CG  LYS B 143      38.538 -10.145  -8.996  1.00 44.30 LIG 0.00  C 
BRANCH 48 49
ATOM     49  CD  LYS B 143      38.737  -8.656  -9.261  1.00 47.73 LIG 0.03  C 
BRANCH 49 50
ATOM     50  CE  LYS B 143      39.386  -8.429 -10.628  1.00 49.61 LIG 0.23  C 
BRANCH 50 51
ATOM     51  NZ  LYS B 143      38.401  -8.063 -11.687  1.00 50.46 LIG-0.08  N 
ATOM     52 HZ2  LYS B 143      38.087  -8.802 -12.070  1.00 50.46 LIG 0.27  HD
ATOM     53 HZ3  LYS B 143      37.727  -7.609 -11.323  1.00 50.46 LIG 0.27  HD
ATOM     54 HZ1  LYS B 143      38.800  -7.557 -12.301  1.00 50.46 LIG 0.27  HD
ENDBRANCH 50 51
ENDBRANCH 49 50
ENDBRANCH 48 49
ENDBRANCH 47 48
ENDBRANCH 35 47
ENDBRANCH 1 35
TORSDOF 24
ENDMDL
MODEL 7
USER: ADFR SOLUTION from run 148
USER: SCORE 16.377003 LL:  -3.157 LR: -15.689 RR:   0.000 FEB:  -8.530
USER: RMSD 11.622749
USER: SEED 147
USER: STATUS no improvement in best in 14 clusters for 5 generations
USER: GENES 26
USER: genes 0 Translation |==|  0.56519 0.69796 0.39598
USER: genes 1 Rotation |==|  0.77230 0.56316 0.90942 0.56512
USER: genes 2 Torsion [N]-CA--C-[N] |==|  0.38653
USER: genes 3 Torsion [C]-N--CA-[CB] |==|  0.12420
USER: genes 4 Torsion [N]-CA--CB-[OG] |==|  0.72069
USER: genes 5 Torsion [CA]-CB--OG-[HG] |==|  0.25468
USER: genes 6 Torsion [N]-CA--C-[N] |==|  0.53788
USER: genes 7 Torsion [C]-N--CA-[C] |==|  0.20198
USER: genes 8 Torsion [N]-CA--C-[N] |==|  0.52610
USER: genes 9 Torsion [C]-N--CA-[C] |==|  0.49233
USER: genes 10 Torsion [N]-CA--C-[O] |==|  0.35143
USER: genes 11 Torsion [N]-CA--CB-[OG] |==|  0.08554
USER: genes 12 Torsion [CA]-CB--OG-[HG] |==|  0.11302
USER: genes 13 Torsion [N]-CA--CB-[OG] |==|  0.68698
USER: genes 14 Torsion [CA]-CB--OG-[HG] |==|  0.94085
USER: genes 15 Torsion [N]-C--CA-[N] |==|  0.23174
USER: genes 16 Torsion [C]-CA--N-[C] |==|  0.70690
USER: genes 17 Torsion [N]-C--CA-[N] |==|  0.96297
USER: genes 18 Torsion [C]-CA--CB-[CG] |==|  0.27380
USER: genes 19 Torsion [CA]-CB--CG-[CD] |==|  0.02567
USER: genes 20 Torsion [CB]-CG--CD-[OE1] |==|  0.75551
USER: genes 21 Torsion [C]-CA--CB-[CG] |==|  0.46681
USER: genes 22 Torsion [CA]-CB--CG-[CD] |==|  0.16920
USER: genes 23 Torsion [CB]-CG--CD-[CE] |==|  0.32195
USER: genes 24 Torsion [CG]-CD--CE-[NZ] |==|  0.52291
USER: genes 25 Torsion [CD]-CE--NZ-[HZ3] |==|  0.73335
ROOT
ATOM      1  C   LYS B 143      36.020 -12.598 -10.062  1.00 34.55 LIG 0.24  C 
ATOM      2 O    LYS B 143      34.939 -12.033  -9.894  1.00 35.84 LIG-0.27  OA
ATOM      3  N   PRO B 144      36.138 -13.935 -10.005  1.00 31.41 LIG-0.34  N 
ATOM      4  CA  PRO B 144      34.963 -14.763  -9.723  1.00 28.99 LIG 0.18  C 
ATOM      5  CB  PRO B 144      35.425 -16.160 -10.125  1.00 27.49 LIG 0.04  C 
ATOM      6  CG  PRO B 144      36.858 -16.138  -9.744  1.00 29.54 LIG 0.02  C 
ATOM      7  CD  PRO B 144      37.321 -14.778 -10.252  1.00 30.41 LIG 0.13  C 
ENDROOT
BRANCH 4 8
ATOM      8  C   PRO B 144      34.577 -14.681  -8.254  1.00 27.24 LIG 0.24  C 
ATOM      9  N   SER B 145      33.274 -14.608  -7.990  1.00 24.69 LIG-0.34  N 
ATOM     10 H    SER B 145      32.665 -14.601  -8.598  1.00 24.69 LIG 0.16  HD
ATOM     11 O    PRO B 144      35.442 -14.689  -7.382  1.00 26.33 LIG-0.27  OA
BRANCH 9 12
ATOM     12  CA  SER B 145      32.758 -14.531  -6.630  1.00 22.76 LIG 0.20  C 
BRANCH 12 13
ATOM     13  CB  SER B 145      33.571 -13.529  -5.811  1.00 22.87 LIG 0.20  C 
BRANCH 13 14
ATOM     14 OG   SER B 145      34.511 -14.201  -4.985  1.00 23.93 LIG-0.40  OA
ATOM     15 HG   SER B 145      35.241 -14.275  -5.394  1.00 23.93 LIG 0.21  HD
ENDBRANCH 13 14
ENDBRANCH 12 13
BRANCH 12 16
ATOM     16  C   SER B 145      31.319 -14.047  -6.691  1.00 23.07 LIG 0.24  C 
ATOM     17 O    SER B 145      30.704 -14.027  -7.763  1.00 22.80 LIG-0.27  OA
ATOM     18  N   SER B 146      30.784 -13.652  -5.542  1.00 21.84 LIG-0.34  N 
ATOM     19 H    SER B 146      31.188 -13.680  -4.783  1.00 21.84 LIG 0.16  HD
BRANCH 18 20
ATOM     20  CA  SER B 146      29.427 -13.128  -5.490  1.00 21.58 LIG 0.20  C 
BRANCH 20 21
ATOM     21  C   SER B 146      28.513 -14.335  -5.692  1.00 21.23 LIG 0.24  C 
ATOM     22 O    SER B 146      28.979 -15.478  -5.671  1.00 18.65 LIG-0.27  OA
ATOM     23  N   SER B 147      27.221 -14.088  -5.876  1.00 20.83 LIG-0.34  N 
ATOM     24 H    SER B 147      26.880 -13.299  -5.895  1.00 20.83 LIG 0.16  HD
BRANCH 23 25
ATOM     25  CA  SER B 147      26.256 -15.166  -6.066  1.00 21.16 LIG 0.21  C 
BRANCH 25 26
ATOM     26  C   SER B 147      24.821 -14.654  -6.192  1.00 22.63 LIG 0.20  C 
ATOM     27 O    SER B 147      24.161 -15.012  -7.190  1.00 24.48 LIG-0.65  OA
ATOM     28 OXT  SER B 147      24.368 -13.916  -5.291  1.00 22.21 LIG-0.65  OA
ENDBRANCH 25 26
BRANCH 25 29
ATOM     29  CB  SER B 147      26.348 -16.170  -4.911  1.00 20.11 LIG 0.20  C 
BRANCH 29 30
ATOM     30 OG   SER B 147      26.741 -15.538  -3.707  1.00 18.07 LIG-0.40  OA
ATOM     31 HG   SER B 147      26.349 -14.798  -3.638  1.00 18.07 LIG 0.21  HD
ENDBRANCH 29 30
ENDBRANCH 25 29
ENDBRANCH 23 25
ENDBRANCH 20 21
BRANCH 20 32
ATOM     32  CB  SER B 146      29.203 -12.105  -6.604  1.00 20.68 LIG 0.20  C 
BRANCH 32 33
ATOM     33 OG   SER B 146      29.024 -10.813  -6.062  1.00 26.78 LIG-0.40  OA
ATOM     34 HG   SER B 146      28.785 -10.876  -5.260  1.00 26.78 LIG 0.21  HD
ENDBRANCH 32 33
ENDBRANCH 20 32
ENDBRANCH 18 20
ENDBRANCH 12 16
ENDBRANCH 9 12
ENDBRANCH 4 8
BRANCH 1 35
ATOM     35  CA  LYS B 143      37.281 -11.788 -10.360  1.00 37.18 LIG 0.18  C 
BRANCH 35 36
ATOM     36  N   LYS B 143      37.491 -11.752 -11.803  1.00 37.14 LIG-0.35  N 
ATOM     37  C   GLU B 142      38.436 -12.472 -12.397  1.00 37.51 LIG 0.26  C 
ATOM     38 O    GLU B 142      39.201 -13.211 -11.780  1.00 36.88 LIG-0.27  OA
ATOM     39 H    LYS B 143      36.953 -11.228 -12.225  1.00 37.14 LIG 0.16  HD
BRANCH 37 40
ATOM     40  CA  GLU B 142      38.528 -12.339 -13.914  1.00 37.87 LIG 0.40  C 
ATOM     41  N   GLU B 142      37.335 -11.664 -14.503  1.00 38.42 LIG 0.61  N 
BRANCH 40 42
ATOM     42  CB  GLU B 142      39.801 -11.569 -14.270  1.00 37.65 LIG 0.06  C 
BRANCH 42 43
ATOM     43  CG  GLU B 142      40.977 -12.436 -14.677  1.00 37.75 LIG 0.12  C 
BRANCH 43 44
ATOM     44  CD  GLU B 142      40.592 -13.892 -14.867  1.00 38.95 LIG 0.17  C 
ATOM     45 OE1  GLU B 142      40.625 -14.658 -13.879  1.00 40.26 LIG-0.65  OA
ATOM     46 OE2  GLU B 142      40.270 -14.278 -16.011  1.00 39.11 LIG-0.65  OA
ENDBRANCH 43 44
ENDBRANCH 42 43
ENDBRANCH 40 42
ENDBRANCH 37 40
ENDBRANCH 35 36
BRANCH 35 47
ATOM     47  CB  LYS B 143      37.115 -10.366  -9.817  1.00 39.83 LIG 0.04  C 
BRANCH 47 48
ATOM     48  CG  LYS B 143      38.398  -9.542  -9.791  1.00 44.30 LIG 0.00  C 
BRANCH 48 49
ATOM     49  CD  LYS B 143      38.980  -9.362 -11.190  1.00 47.73 LIG 0.03  C 
BRANCH 49 50
ATOM     50  CE  LYS B 143      38.969  -7.887 -11.597  1.00 49.61 LIG 0.23  C 
BRANCH 50 51
ATOM     51  NZ  LYS B 143      39.344  -7.673 -13.025  1.00 50.46 LIG-0.08  N 
ATOM     52 HZ2  LYS B 143      38.867  -6.999 -13.360  1.00 50.46 LIG 0.27  HD
ATOM     53 HZ3  LYS B 143      40.211  -7.477 -13.079  1.00 50.46 LIG 0.27  HD
ATOM     54 HZ1  LYS B 143      39.178  -8.413 -13.490  1.00 50.46 LIG 0.27  HD
ENDBRANCH 50 51
ENDBRANCH 49 50
ENDBRANCH 48 49
ENDBRANCH 47 48
ENDBRANCH 35 47
ENDBRANCH 1 35
TORSDOF 24
ENDMDL
MODEL 8
USER: ADFR SOLUTION from run 67
USER: SCORE 17.808721 LL:  -3.954 LR: -15.528 RR:   0.000 FEB:  -8.369
USER: RMSD 11.269621
USER: SEED 66
USER: STATUS no improvement in best in 7 clusters for 5 generations
USER: GENES 26
USER: genes 0 Translation |==|  0.57084 0.70400 0.38513
USER: genes 1 Rotation |==|  0.76474 0.57783 0.91164 0.56637
USER: genes 2 Torsion [N]-CA--C-[N] |==|  0.46341
USER: genes 3 Torsion [C]-N--CA-[CB] |==|  0.19921
USER: genes 4 Torsion [N]-CA--CB-[OG] |==|  0.10101
USER: genes 5 Torsion [CA]-CB--OG-[HG] |==|  0.91954
USER: genes 6 Torsion [N]-CA--C-[N] |==|  0.56711
USER: genes 7 Torsion [C]-N--CA-[C] |==|  0.65584
USER: genes 8 Torsion [N]-CA--C-[N] |==|  0.97252
USER: genes 9 Torsion [C]-N--CA-[C] |==|  0.48656
USER: genes 10 Torsion [N]-CA--C-[O] |==|  0.03694
USER: genes 11 Torsion [N]-CA--CB-[OG] |==|  0.67919
USER: genes 12 Torsion [CA]-CB--OG-[HG] |==|  0.05468
USER: genes 13 Torsion [N]-CA--CB-[OG] |==|  0.12485
USER: genes 14 Torsion [CA]-CB--OG-[HG] |==|  0.16656
USER: genes 15 Torsion [N]-C--CA-[N] |==|  0.23338
USER: genes 16 Torsion [C]-CA--N-[C] |==|  0.60000
USER: genes 17 Torsion [N]-C--CA-[N] |==|  0.46781
USER: genes 18 Torsion [C]-CA--CB-[CG] |==|  0.94909
USER: genes 19 Torsion [CA]-CB--CG-[CD] |==|  0.79711
USER: genes 20 Torsion [CB]-CG--CD-[OE1] |==|  0.93700
USER: genes 21 Torsion [C]-CA--CB-[CG] |==|  0.34222
USER: genes 22 Torsion [CA]-CB--CG-[CD] |==|  0.37112
USER: genes 23 Torsion [CB]-CG--CD-[CE] |==|  0.80305
USER: genes 24 Torsion [CG]-CD--CE-[NZ] |==|  0.24028
USER: genes 25 Torsion [CD]-CE--NZ-[HZ3] |==|  0.71245
ROOT
ATOM      1  C   LYS B 143      36.139 -12.467 -10.323  1.00 34.55 LIG 0.24  C 
ATOM      2 O    LYS B 143      35.036 -11.930 -10.209  1.00 35.84 LIG-0.27  OA
ATOM      3  N   PRO B 144      36.298 -13.794 -10.191  1.00 31.41 LIG-0.34  N 
ATOM      4  CA  PRO B 144      35.144 -14.644  -9.891  1.00 28.99 LIG 0.18  C 
ATOM      5  CB  PRO B 144      35.661 -16.045 -10.207  1.00 27.49 LIG 0.04  C 
ATOM      6  CG  PRO B 144      37.082 -15.955  -9.796  1.00 29.54 LIG 0.02  C 
ATOM      7  CD  PRO B 144      37.513 -14.609 -10.367  1.00 30.41 LIG 0.13  C 
ENDROOT
BRANCH 4 8
ATOM      8  C   PRO B 144      34.721 -14.498  -8.436  1.00 27.24 LIG 0.24  C 
ATOM      9  N   SER B 145      33.533 -15.004  -8.114  1.00 24.69 LIG-0.34  N 
ATOM     10 H    SER B 145      33.013 -15.393  -8.679  1.00 24.69 LIG 0.16  HD
ATOM     11 O    PRO B 144      35.459 -13.941  -7.628  1.00 26.33 LIG-0.27  OA
BRANCH 9 12
ATOM     12  CA  SER B 145      33.001 -14.943  -6.760  1.00 22.76 LIG 0.20  C 
BRANCH 12 13
ATOM     13  CB  SER B 145      32.593 -13.510  -6.416  1.00 22.87 LIG 0.20  C 
BRANCH 13 14
ATOM     14 OG   SER B 145      32.046 -12.857  -7.552  1.00 23.93 LIG-0.40  OA
ATOM     15 HG   SER B 145      32.385 -13.179  -8.250  1.00 23.93 LIG 0.21  HD
ENDBRANCH 13 14
ENDBRANCH 12 13
BRANCH 12 16
ATOM     16  C   SER B 145      31.766 -15.825  -6.690  1.00 23.07 LIG 0.24  C 
ATOM     17 O    SER B 145      31.610 -16.757  -7.485  1.00 22.80 LIG-0.27  OA
ATOM     18  N   SER B 146      30.886 -15.528  -5.741  1.00 21.84 LIG-0.34  N 
ATOM     19 H    SER B 146      30.988 -14.898  -5.165  1.00 21.84 LIG 0.16  HD
BRANCH 18 20
ATOM     20  CA  SER B 146      29.646 -16.278  -5.611  1.00 21.58 LIG 0.20  C 
BRANCH 20 21
ATOM     21  C   SER B 146      28.529 -15.240  -5.692  1.00 21.23 LIG 0.24  C 
ATOM     22 O    SER B 146      27.352 -15.599  -5.786  1.00 18.65 LIG-0.27  OA
ATOM     23  N   SER B 147      28.890 -13.962  -5.649  1.00 20.83 LIG-0.34  N 
ATOM     24 H    SER B 147      29.705 -13.694  -5.586  1.00 20.83 LIG 0.16  HD
BRANCH 23 25
ATOM     25  CA  SER B 147      27.904 -12.887  -5.706  1.00 21.16 LIG 0.21  C 
BRANCH 25 26
ATOM     26  C   SER B 147      28.532 -11.505  -5.522  1.00 22.63 LIG 0.20  C 
ATOM     27 O    SER B 147      29.775 -11.415  -5.604  1.00 24.48 LIG-0.65  OA
ATOM     28 OXT  SER B 147      27.780 -10.529  -5.313  1.00 22.21 LIG-0.65  OA
ENDBRANCH 25 26
BRANCH 25 29
ATOM     29  CB  SER B 147      26.817 -13.107  -4.649  1.00 20.11 LIG 0.20  C 
BRANCH 29 30
ATOM     30 OG   SER B 147      25.554 -13.332  -5.245  1.00 18.07 LIG-0.40  OA
ATOM     31 HG   SER B 147      25.659 -13.571  -6.043  1.00 18.07 LIG 0.21  HD
ENDBRANCH 29 30
ENDBRANCH 25 29
ENDBRANCH 23 25
ENDBRANCH 20 21
BRANCH 20 32
ATOM     32  CB  SER B 146      29.595 -17.003  -4.265  1.00 20.68 LIG 0.20  C 
BRANCH 32 33
ATOM     33 OG   SER B 146      30.009 -16.145  -3.223  1.00 26.78 LIG-0.40  OA
ATOM     34 HG   SER B 146      29.502 -15.477  -3.192  1.00 26.78 LIG 0.21  HD
ENDBRANCH 32 33
ENDBRANCH 20 32
ENDBRANCH 18 20
ENDBRANCH 12 16
ENDBRANCH 9 12
ENDBRANCH 4 8
BRANCH 1 35
ATOM     35  CA  LYS B 143      37.379 -11.632 -10.636  1.00 37.18 LIG 0.18  C 
BRANCH 35 36
ATOM     36  N   LYS B 143      37.613 -11.654 -12.076  1.00 37.14 LIG-0.35  N 
ATOM     37  C   GLU B 142      38.838 -11.671 -12.592  1.00 37.51 LIG 0.26  C 
ATOM     38 O    GLU B 142      39.855 -11.664 -11.900  1.00 36.88 LIG-0.27  OA
ATOM     39 H    LYS B 143      36.895 -11.654 -12.550  1.00 37.14 LIG 0.16  HD
BRANCH 37 40
ATOM     40  CA  GLU B 142      38.925 -11.705 -14.115  1.00 37.87 LIG 0.40  C 
ATOM     41  N   GLU B 142      40.306 -11.446 -14.615  1.00 38.42 LIG 0.61  N 
BRANCH 40 42
ATOM     42  CB  GLU B 142      38.428 -13.065 -14.610  1.00 37.65 LIG 0.06  C 
BRANCH 42 43
ATOM     43  CG  GLU B 142      38.400 -14.156 -13.556  1.00 37.75 LIG 0.12  C 
BRANCH 43 44
ATOM     44  CD  GLU B 142      39.788 -14.653 -13.192  1.00 38.95 LIG 0.17  C 
ATOM     45 OE1  GLU B 142      40.720 -14.495 -14.011  1.00 40.26 LIG-0.65  OA
ATOM     46 OE2  GLU B 142      39.946 -15.219 -12.089  1.00 39.11 LIG-0.65  OA
ENDBRANCH 43 44
ENDBRANCH 42 43
ENDBRANCH 40 42
ENDBRANCH 37 40
ENDBRANCH 35 36
BRANCH 35 47
ATOM     47  CB  LYS B 143      37.161 -10.193 -10.161  1.00 39.83 LIG 0.04  C 
BRANCH 47 48
ATOM     48  CG  LYS B 143      38.208  -9.682  -9.177  1.00 44.30 LIG 0.00  C 
BRANCH 48 49
ATOM     49  CD  LYS B 143      38.702  -8.288  -9.552  1.00 47.73 LIG 0.03  C 
BRANCH 49 50
ATOM     50  CE  LYS B 143      39.568  -8.340 -10.812  1.00 49.61 LIG 0.23  C 
BRANCH 50 51
ATOM     51  NZ  LYS B 143      38.773  -8.257 -12.071  1.00 50.46 LIG-0.08  N 
ATOM     52 HZ2  LYS B 143      39.174  -7.701 -12.640  1.00 50.46 LIG 0.27  HD
ATOM     53 HZ3  LYS B 143      38.713  -9.065 -12.440  1.00 50.46 LIG 0.27  HD
ATOM     54 HZ1  LYS B 143      37.956  -7.954 -11.887  1.00 50.46 LIG 0.27  HD
ENDBRANCH 50 51
ENDBRANCH 49 50
ENDBRANCH 48 49
ENDBRANCH 47 48
ENDBRANCH 35 47
ENDBRANCH 1 35
TORSDOF 24
ENDMDL
MODEL 9
USER: ADFR SOLUTION from run 178
USER: SCORE 18.512918 LL:  -4.401 LR: -15.509 RR:   0.000 FEB:  -8.350
USER: RMSD 10.403799
USER: SEED 177
USER: STATUS searching
USER: GENES 26
USER: genes 0 Translation |==|  0.57553 0.70897 0.38715
USER: genes 1 Rotation |==|  0.74901 0.55161 0.92658 0.55800
USER: genes 2 Torsion [N]-CA--C-[N] |==|  0.50629
USER: genes 3 Torsion [C]-N--CA-[CB] |==|  0.26111
USER: genes 4 Torsion [N]-CA--CB-[OG] |==|  0.88390
USER: genes 5 Torsion [CA]-CB--OG-[HG] |==|  0.12936
USER: genes 6 Torsion [N]-CA--C-[N] |==|  0.99981
USER: genes 7 Torsion [C]-N--CA-[C] |==|  0.69882
USER: genes 8 Torsion [N]-CA--C-[N] |==|  0.07515
USER: genes 9 Torsion [C]-N--CA-[C] |==|  0.64592
USER: genes 10 Torsion [N]-CA--C-[O] |==|  0.90040
USER: genes 11 Torsion [N]-CA--CB-[OG] |==|  0.97747
USER: genes 12 Torsion [CA]-CB--OG-[HG] |==|  0.81885
USER: genes 13 Torsion [N]-CA--CB-[OG] |==|  0.14866
USER: genes 14 Torsion [CA]-CB--OG-[HG] |==|  0.11155
USER: genes 15 Torsion [N]-C--CA-[N] |==|  0.23957
USER: genes 16 Torsion [C]-CA--N-[C] |==|  0.62245
USER: genes 17 Torsion [N]-C--CA-[N] |==|  0.47333
USER: genes 18 Torsion [C]-CA--CB-[CG] |==|  0.93296
USER: genes 19 Torsion [CA]-CB--CG-[CD] |==|  0.80706
USER: genes 20 Torsion [CB]-CG--CD-[OE1] |==|  0.41676
USER: genes 21 Torsion [C]-CA--CB-[CG] |==|  0.37615
USER: genes 22 Torsion [CA]-CB--CG-[CD] |==|  0.35053
USER: genes 23 Torsion [CB]-CG--CD-[CE] |==|  0.82926
USER: genes 24 Torsion [CG]-CD--CE-[NZ] |==|  0.25163
USER: genes 25 Torsion [CD]-CE--NZ-[HZ3] |==|  0.39409
ROOT
ATOM      1  C   LYS B 143      36.237 -12.359 -10.274  1.00 34.55 LIG 0.24  C 
ATOM      2 O    LYS B 143      35.132 -11.820 -10.206  1.00 35.84 LIG-0.27  OA
ATOM      3  N   PRO B 144      36.377 -13.695 -10.269  1.00 31.41 LIG-0.34  N 
ATOM      4  CA  PRO B 144      35.195 -14.554 -10.166  1.00 28.99 LIG 0.18  C 
ATOM      5  CB  PRO B 144      35.731 -15.922 -10.579  1.00 27.49 LIG 0.04  C 
ATOM      6  CG  PRO B 144      37.109 -15.896 -10.033  1.00 29.54 LIG 0.02  C 
ATOM      7  CD  PRO B 144      37.598 -14.505 -10.418  1.00 30.41 LIG 0.13  C 
ENDROOT
BRANCH 4 8
ATOM      8  C   PRO B 144      34.640 -14.554  -8.749  1.00 27.24 LIG 0.24  C 
ATOM      9  N   SER B 145      33.590 -15.340  -8.528  1.00 24.69 LIG-0.34  N 
ATOM     10 H    SER B 145      33.224 -15.828  -9.135  1.00 24.69 LIG 0.16  HD
ATOM     11 O    PRO B 144      35.157 -13.858  -7.880  1.00 26.33 LIG-0.27  OA
BRANCH 9 12
ATOM     12  CA  SER B 145      32.958 -15.446  -7.220  1.00 22.76 LIG 0.20  C 
BRANCH 12 13
ATOM     13  CB  SER B 145      31.784 -14.471  -7.119  1.00 22.87 LIG 0.20  C 
BRANCH 13 14
ATOM     14 OG   SER B 145      32.121 -13.218  -7.696  1.00 23.93 LIG-0.40  OA
ATOM     15 HG   SER B 145      32.487 -13.342  -8.441  1.00 23.93 LIG 0.21  HD
ENDBRANCH 13 14
ENDBRANCH 12 13
BRANCH 12 16
ATOM     16  C   SER B 145      32.425 -16.859  -7.059  1.00 23.07 LIG 0.24  C 
ATOM     17 O    SER B 145      31.846 -17.202  -6.022  1.00 22.80 LIG-0.27  OA
ATOM     18  N   SER B 146      32.623 -17.681  -8.082  1.00 21.84 LIG-0.34  N 
ATOM     19 H    SER B 146      33.003 -17.455  -8.820  1.00 21.84 LIG 0.16  HD
BRANCH 18 20
ATOM     20  CA  SER B 146      32.195 -19.071  -8.019  1.00 21.58 LIG 0.20  C 
BRANCH 20 21
ATOM     21  C   SER B 146      33.478 -19.891  -7.902  1.00 21.23 LIG 0.24  C 
ATOM     22 O    SER B 146      33.516 -21.050  -8.323  1.00 18.65 LIG-0.27  OA
ATOM     23  N   SER B 147      34.526 -19.293  -7.343  1.00 20.83 LIG-0.34  N 
ATOM     24 H    SER B 147      34.516 -18.487  -7.043  1.00 20.83 LIG 0.16  HD
BRANCH 23 25
ATOM     25  CA  SER B 147      35.805 -19.978  -7.192  1.00 21.16 LIG 0.21  C 
BRANCH 25 26
ATOM     26  C   SER B 147      36.330 -19.930  -5.757  1.00 22.63 LIG 0.20  C 
ATOM     27 O    SER B 147      36.118 -18.892  -5.095  1.00 24.48 LIG-0.65  OA
ATOM     28 OXT  SER B 147      36.932 -20.928  -5.306  1.00 22.21 LIG-0.65  OA
ENDBRANCH 25 26
BRANCH 25 29
ATOM     29  CB  SER B 147      36.845 -19.377  -8.145  1.00 20.11 LIG 0.20  C 
BRANCH 29 30
ATOM     30 OG   SER B 147      36.253 -18.455  -9.040  1.00 18.07 LIG-0.40  OA
ATOM     31 HG   SER B 147      35.718 -18.860  -9.546  1.00 18.07 LIG 0.21  HD
ENDBRANCH 29 30
ENDBRANCH 25 29
ENDBRANCH 23 25
ENDBRANCH 20 21
BRANCH 20 32
ATOM     32  CB  SER B 146      31.436 -19.457  -9.289  1.00 20.68 LIG 0.20  C 
BRANCH 32 33
ATOM     33 OG   SER B 146      32.203 -19.158 -10.437  1.00 26.78 LIG-0.40  OA
ATOM     34 HG   SER B 146      33.007 -19.352 -10.294  1.00 26.78 LIG 0.21  HD
ENDBRANCH 32 33
ENDBRANCH 20 32
ENDBRANCH 18 20
ENDBRANCH 12 16
ENDBRANCH 9 12
ENDBRANCH 4 8
BRANCH 1 35
ATOM     35  CA  LYS B 143      37.506 -11.515 -10.383  1.00 37.18 LIG 0.18  C 
BRANCH 35 36
ATOM     36  N   LYS B 143      37.842 -11.345 -11.793  1.00 37.14 LIG-0.35  N 
ATOM     37  C   GLU B 142      39.086 -11.473 -12.242  1.00 37.51 LIG 0.26  C 
ATOM     38 O    GLU B 142      40.038 -11.736 -11.509  1.00 36.88 LIG-0.27  OA
ATOM     39 H    LYS B 143      37.170 -11.157 -12.296  1.00 37.14 LIG 0.16  HD
BRANCH 37 40
ATOM     40  CA  GLU B 142      39.282 -11.280 -13.743  1.00 37.87 LIG 0.40  C 
ATOM     41  N   GLU B 142      40.721 -11.213 -14.129  1.00 38.42 LIG 0.61  N 
BRANCH 40 42
ATOM     42  CB  GLU B 142      38.586 -12.423 -14.486  1.00 37.65 LIG 0.06  C 
BRANCH 42 43
ATOM     43  CG  GLU B 142      38.405 -13.692 -13.675  1.00 37.75 LIG 0.12  C 
BRANCH 43 44
ATOM     44  CD  GLU B 142      39.718 -14.402 -13.398  1.00 38.95 LIG 0.17  C 
ATOM     45 OE1  GLU B 142      39.831 -15.073 -12.348  1.00 40.26 LIG-0.65  OA
ATOM     46 OE2  GLU B 142      40.647 -14.279 -14.225  1.00 39.11 LIG-0.65  OA
ENDBRANCH 43 44
ENDBRANCH 42 43
ENDBRANCH 40 42
ENDBRANCH 37 40
ENDBRANCH 35 36
BRANCH 35 47
ATOM     47  CB  LYS B 143      37.269 -10.149  -9.732  1.00 39.83 LIG 0.04  C 
BRANCH 47 48
ATOM     48  CG  LYS B 143      38.404  -9.669  -8.832  1.00 44.30 LIG 0.00  C 
BRANCH 48 49
ATOM     49  CD  LYS B 143      38.888  -8.278  -9.230  1.00 47.73 LIG 0.03  C 
BRANCH 49 50
ATOM     50  CE  LYS B 143      39.438  -8.283 -10.658  1.00 49.61 LIG 0.23  C 
BRANCH 50 51
ATOM     51  NZ  LYS B 143      38.401  -7.974 -11.684  1.00 50.46 LIG-0.08  N 
ATOM     52 HZ2  LYS B 143      37.726  -7.536 -11.302  1.00 50.46 LIG 0.27  HD
ATOM     53 HZ3  LYS B 143      38.757  -7.468 -12.324  1.00 50.46 LIG 0.27  HD
ATOM     54 HZ1  LYS B 143      38.099  -8.732 -12.039  1.00 50.46 LIG 0.27  HD
ENDBRANCH 50 51
ENDBRANCH 49 50
ENDBRANCH 48 49
ENDBRANCH 47 48
ENDBRANCH 35 47
ENDBRANCH 1 35
TORSDOF 24
ENDMDL
MODEL 10
USER: ADFR SOLUTION from run 14
USER: SCORE 17.301778 LL:  -4.203 LR: -15.443 RR:   0.000 FEB:  -8.284
USER: RMSD 10.011963
USER: SEED 370856
USER: STATUS no improvement in best in 5 clusters for 5 generations
USER: GENES 26
USER: genes 0 Translation |==|  0.58101 0.70172 0.40696
USER: genes 1 Rotation |==|  0.77213 0.50458 0.91855 0.52715
USER: genes 2 Torsion [N]-CA--C-[N] |==|  0.45296
USER: genes 3 Torsion [C]-N--CA-[CB] |==|  0.36873
USER: genes 4 Torsion [N]-CA--CB-[OG] |==|  0.88779
USER: genes 5 Torsion [CA]-CB--OG-[HG] |==|  0.11753
USER: genes 6 Torsion [N]-CA--C-[N] |==|  0.08285
USER: genes 7 Torsion [C]-N--CA-[C] |==|  0.61859
USER: genes 8 Torsion [N]-CA--C-[N] |==|  0.82258
USER: genes 9 Torsion [C]-N--CA-[C] |==|  0.56113
USER: genes 10 Torsion [N]-CA--C-[O] |==|  0.76773
USER: genes 11 Torsion [N]-CA--CB-[OG] |==|  0.16763
USER: genes 12 Torsion [CA]-CB--OG-[HG] |==|  0.08476
USER: genes 13 Torsion [N]-CA--CB-[OG] |==|  0.06222
USER: genes 14 Torsion [CA]-CB--OG-[HG] |==|  0.23112
USER: genes 15 Torsion [N]-C--CA-[N] |==|  0.12283
USER: genes 16 Torsion [C]-CA--N-[C] |==|  0.14709
USER: genes 17 Torsion [N]-C--CA-[N] |==|  0.57472
USER: genes 18 Torsion [C]-CA--CB-[CG] |==|  0.32623
USER: genes 19 Torsion [CA]-CB--CG-[CD] |==|  0.02221
USER: genes 20 Torsion [CB]-CG--CD-[OE1] |==|  0.26053
USER: genes 21 Torsion [C]-CA--CB-[CG] |==|  0.42120
USER: genes 22 Torsion [CA]-CB--CG-[CD] |==|  0.15095
USER: genes 23 Torsion [CB]-CG--CD-[CE] |==|  0.18502
USER: genes 24 Torsion [CG]-CD--CE-[NZ] |==|  0.03059
USER: genes 25 Torsion [CD]-CE--NZ-[HZ3] |==|  0.05863
ROOT
ATOM      1  C   LYS B 143      36.352 -12.516  -9.799  1.00 34.55 LIG 0.24  C 
ATOM      2 O    LYS B 143      35.263 -12.016  -9.515  1.00 35.84 LIG-0.27  OA
ATOM      3  N   PRO B 144      36.477 -13.818 -10.110  1.00 31.41 LIG-0.34  N 
ATOM      4  CA  PRO B 144      35.298 -14.687 -10.105  1.00 28.99 LIG 0.18  C 
ATOM      5  CB  PRO B 144      35.781 -15.920 -10.862  1.00 27.49 LIG 0.04  C 
ATOM      6  CG  PRO B 144      37.201 -16.008 -10.445  1.00 29.54 LIG 0.02  C 
ATOM      7  CD  PRO B 144      37.671 -14.562 -10.543  1.00 30.41 LIG 0.13  C 
ENDROOT
BRANCH 4 8
ATOM      8  C   PRO B 144      34.866 -15.014  -8.683  1.00 27.24 LIG 0.24  C 
ATOM      9  N   SER B 145      33.632 -15.493  -8.538  1.00 24.69 LIG-0.34  N 
ATOM     10 H    SER B 145      33.089 -15.616  -9.194  1.00 24.69 LIG 0.16  HD
ATOM     11 O    PRO B 144      35.636 -14.838  -7.743  1.00 26.33 LIG-0.27  OA
BRANCH 9 12
ATOM     12  CA  SER B 145      33.086 -15.855  -7.237  1.00 22.76 LIG 0.20  C 
BRANCH 12 13
ATOM     13  CB  SER B 145      31.685 -15.268  -7.069  1.00 22.87 LIG 0.20  C 
BRANCH 13 14
ATOM     14 OG   SER B 145      31.626 -13.950  -7.595  1.00 23.93 LIG-0.40  OA
ATOM     15 HG   SER B 145      32.040 -13.921  -8.325  1.00 23.93 LIG 0.21  HD
ENDBRANCH 13 14
ENDBRANCH 12 13
BRANCH 12 16
ATOM     16  C   SER B 145      32.985 -17.369  -7.165  1.00 23.07 LIG 0.24  C 
ATOM     17 O    SER B 145      32.113 -17.912  -6.479  1.00 22.80 LIG-0.27  OA
ATOM     18  N   SER B 146      33.880 -18.051  -7.871  1.00 21.84 LIG-0.34  N 
ATOM     19 H    SER B 146      34.479 -17.691  -8.372  1.00 21.84 LIG 0.16  HD
BRANCH 18 20
ATOM     20  CA  SER B 146      33.905 -19.506  -7.841  1.00 21.58 LIG 0.20  C 
BRANCH 20 21
ATOM     21  C   SER B 146      35.380 -19.888  -7.742  1.00 21.23 LIG 0.24  C 
ATOM     22 O    SER B 146      35.803 -20.486  -6.748  1.00 18.65 LIG-0.27  OA
ATOM     23  N   SER B 147      36.159 -19.554  -8.766  1.00 20.83 LIG-0.34  N 
ATOM     24 H    SER B 147      35.882 -19.136  -9.465  1.00 20.83 LIG 0.16  HD
BRANCH 23 25
ATOM     25  CA  SER B 147      37.581 -19.881  -8.783  1.00 21.16 LIG 0.21  C 
BRANCH 25 26
ATOM     26  C   SER B 147      38.377 -18.985  -9.731  1.00 22.63 LIG 0.20  C 
ATOM     27 O    SER B 147      38.404 -19.296 -10.941  1.00 24.48 LIG-0.65  OA
ATOM     28 OXT  SER B 147      38.953 -17.979  -9.263  1.00 22.21 LIG-0.65  OA
ENDBRANCH 25 26
BRANCH 25 29
ATOM     29  CB  SER B 147      37.783 -21.351  -9.168  1.00 20.11 LIG 0.20  C 
BRANCH 29 30
ATOM     30 OG   SER B 147      37.260 -21.625 -10.454  1.00 18.07 LIG-0.40  OA
ATOM     31 HG   SER B 147      37.317 -20.937 -10.932  1.00 18.07 LIG 0.21  HD
ENDBRANCH 29 30
ENDBRANCH 25 29
ENDBRANCH 23 25
ENDBRANCH 20 21
BRANCH 20 32
ATOM     32  CB  SER B 146      33.295 -20.081  -9.119  1.00 20.68 LIG 0.20  C 
BRANCH 32 33
ATOM     33 OG   SER B 146      33.346 -19.131 -10.164  1.00 26.78 LIG-0.40  OA
ATOM     34 HG   SER B 146      34.102 -19.154 -10.527  1.00 26.78 LIG 0.21  HD
ENDBRANCH 32 33
ENDBRANCH 20 32
ENDBRANCH 18 20
ENDBRANCH 12 16
ENDBRANCH 9 12
ENDBRANCH 4 8
BRANCH 1 35
ATOM     35  CA  LYS B 143      37.616 -11.659  -9.821  1.00 37.18 LIG 0.18  C 
BRANCH 35 36
ATOM     36  N   LYS B 143      38.384 -11.978 -11.020  1.00 37.14 LIG-0.35  N 
ATOM     37  C   GLU B 142      37.843 -11.946 -12.233  1.00 37.51 LIG 0.26  C 
ATOM     38 O    GLU B 142      36.665 -11.654 -12.433  1.00 36.88 LIG-0.27  OA
ATOM     39 H    LYS B 143      39.205 -12.185 -10.869  1.00 37.14 LIG 0.16  HD
BRANCH 37 40
ATOM     40  CA  GLU B 142      38.773 -12.292 -13.392  1.00 37.87 LIG 0.40  C 
ATOM     41  N   GLU B 142      38.355 -11.652 -14.673  1.00 38.42 LIG 0.61  N 
BRANCH 40 42
ATOM     42  CB  GLU B 142      40.198 -11.868 -13.030  1.00 37.65 LIG 0.06  C 
BRANCH 42 43
ATOM     43  CG  GLU B 142      41.199 -13.005 -12.949  1.00 37.75 LIG 0.12  C 
BRANCH 43 44
ATOM     44  CD  GLU B 142      40.627 -14.324 -13.435  1.00 38.95 LIG 0.17  C 
ATOM     45 OE1  GLU B 142      40.803 -14.654 -14.630  1.00 40.26 LIG-0.65  OA
ATOM     46 OE2  GLU B 142      39.988 -15.030 -12.626  1.00 39.11 LIG-0.65  OA
ENDBRANCH 43 44
ENDBRANCH 42 43
ENDBRANCH 40 42
ENDBRANCH 37 40
ENDBRANCH 35 36
BRANCH 35 47
ATOM     47  CB  LYS B 143      37.230 -10.178  -9.822  1.00 39.83 LIG 0.04  C 
BRANCH 47 48
ATOM     48  CG  LYS B 143      38.260  -9.252  -9.182  1.00 44.30 LIG 0.00  C 
BRANCH 48 49
ATOM     49  CD  LYS B 143      39.641  -9.427  -9.807  1.00 47.73 LIG 0.03  C 
BRANCH 49 50
ATOM     50  CE  LYS B 143      39.640  -8.958 -11.264  1.00 49.61 LIG 0.23  C 
BRANCH 50 51
ATOM     51  NZ  LYS B 143      38.401  -8.216 -11.637  1.00 50.46 LIG-0.08  N 
ATOM     52 HZ2  LYS B 143      37.842  -8.765 -12.061  1.00 50.46 LIG 0.27  HD
ATOM     53 HZ3  LYS B 143      38.008  -7.904 -10.902  1.00 50.46 LIG 0.27  HD
ATOM     54 HZ1  LYS B 143      38.611  -7.537 -12.172  1.00 50.46 LIG 0.27  HD
ENDBRANCH 50 51
ENDBRANCH 49 50
ENDBRANCH 48 49
ENDBRANCH 47 48
ENDBRANCH 35 47
ENDBRANCH 1 35
TORSDOF 24
ENDMDL
MODEL 11
USER: ADFR SOLUTION from run 27
USER: SCORE 17.539626 LL:  -3.439 LR: -15.296 RR:   0.000 FEB:  -8.137
USER: RMSD 11.180998
USER: SEED 26
USER: STATUS no improvement in best in 2 clusters for 5 generations
USER: GENES 26
USER: genes 0 Translation |==|  0.57931 0.69962 0.39471
USER: genes 1 Rotation |==|  0.56163 0.74059 0.90876 0.64573
USER: genes 2 Torsion [N]-CA--C-[N] |==|  0.59643
USER: genes 3 Torsion [C]-N--CA-[CB] |==|  0.22202
USER: genes 4 Torsion [N]-CA--CB-[OG] |==|  0.77681
USER: genes 5 Torsion [CA]-CB--OG-[HG] |==|  0.13050
USER: genes 6 Torsion [N]-CA--C-[N] |==|  0.29455
USER: genes 7 Torsion [C]-N--CA-[C] |==|  0.75596
USER: genes 8 Torsion [N]-CA--C-[N] |==|  0.98601
USER: genes 9 Torsion [C]-N--CA-[C] |==|  0.75276
USER: genes 10 Torsion [N]-CA--C-[O] |==|  0.49646
USER: genes 11 Torsion [N]-CA--CB-[OG] |==|  0.04205
USER: genes 12 Torsion [CA]-CB--OG-[HG] |==|  0.62052
USER: genes 13 Torsion [N]-CA--CB-[OG] |==|  0.01003
USER: genes 14 Torsion [CA]-CB--OG-[HG] |==|  0.21780
USER: genes 15 Torsion [N]-C--CA-[N] |==|  0.39904
USER: genes 16 Torsion [C]-CA--N-[C] |==|  0.85273
USER: genes 17 Torsion [N]-C--CA-[N] |==|  0.88552
USER: genes 18 Torsion [C]-CA--CB-[CG] |==|  0.10152
USER: genes 19 Torsion [CA]-CB--CG-[CD] |==|  0.19345
USER: genes 20 Torsion [CB]-CG--CD-[OE1] |==|  0.13800
USER: genes 21 Torsion [C]-CA--CB-[CG] |==|  0.36909
USER: genes 22 Torsion [CA]-CB--CG-[CD] |==|  0.36243
USER: genes 23 Torsion [CB]-CG--CD-[CE] |==|  0.79355
USER: genes 24 Torsion [CG]-CD--CE-[NZ] |==|  0.26465
USER: genes 25 Torsion [CD]-CE--NZ-[HZ3] |==|  0.69379
ROOT
ATOM      1  C   LYS B 143      36.316 -12.562 -10.093  1.00 34.55 LIG 0.24  C 
ATOM      2 O    LYS B 143      35.425 -12.619 -10.941  1.00 35.84 LIG-0.27  OA
ATOM      3  N   PRO B 144      36.258 -13.269  -8.952  1.00 31.41 LIG-0.34  N 
ATOM      4  CA  PRO B 144      35.103 -14.130  -8.683  1.00 28.99 LIG 0.18  C 
ATOM      5  CB  PRO B 144      35.595 -15.011  -7.539  1.00 27.49 LIG 0.04  C 
ATOM      6  CG  PRO B 144      36.460 -14.081  -6.776  1.00 29.54 LIG 0.02  C 
ATOM      7  CD  PRO B 144      37.254 -13.382  -7.874  1.00 30.41 LIG 0.13  C 
ENDROOT
BRANCH 4 8
ATOM      8  C   PRO B 144      33.885 -13.304  -8.296  1.00 27.24 LIG 0.24  C 
ATOM      9  N   SER B 145      33.069 -13.846  -7.395  1.00 24.69 LIG-0.34  N 
ATOM     10 H    SER B 145      33.198 -14.619  -7.039  1.00 24.69 LIG 0.16  HD
ATOM     11 O    PRO B 144      33.695 -12.202  -8.802  1.00 26.33 LIG-0.27  OA
BRANCH 9 12
ATOM     12  CA  SER B 145      31.868 -13.169  -6.925  1.00 22.76 LIG 0.20  C 
BRANCH 12 13
ATOM     13  CB  SER B 145      30.737 -13.330  -7.941  1.00 22.87 LIG 0.20  C 
BRANCH 13 14
ATOM     14 OG   SER B 145      30.885 -12.403  -9.007  1.00 23.93 LIG-0.40  OA
ATOM     15 HG   SER B 145      31.679 -12.413  -9.279  1.00 23.93 LIG 0.21  HD
ENDBRANCH 13 14
ENDBRANCH 12 13
BRANCH 12 16
ATOM     16  C   SER B 145      31.436 -13.812  -5.618  1.00 23.07 LIG 0.24  C 
ATOM     17 O    SER B 145      30.902 -14.927  -5.609  1.00 22.80 LIG-0.27  OA
ATOM     18  N   SER B 146      31.661 -13.109  -4.515  1.00 21.84 LIG-0.34  N 
ATOM     19 H    SER B 146      32.051 -12.342  -4.500  1.00 21.84 LIG 0.16  HD
BRANCH 18 20
ATOM     20  CA  SER B 146      31.248 -13.608  -3.212  1.00 21.58 LIG 0.20  C 
BRANCH 20 21
ATOM     21  C   SER B 146      29.809 -13.129  -3.027  1.00 21.23 LIG 0.24  C 
ATOM     22 O    SER B 146      29.160 -13.477  -2.037  1.00 18.65 LIG-0.27  OA
ATOM     23  N   SER B 147      29.315 -12.329  -3.967  1.00 20.83 LIG-0.34  N 
ATOM     24 H    SER B 147      29.753 -12.078  -4.664  1.00 20.83 LIG 0.16  HD
BRANCH 23 25
ATOM     25  CA  SER B 147      27.957 -11.802  -3.885  1.00 21.16 LIG 0.21  C 
BRANCH 25 26
ATOM     26  C   SER B 147      26.929 -12.726  -4.537  1.00 22.63 LIG 0.20  C 
ATOM     27 O    SER B 147      25.729 -12.380  -4.501  1.00 24.48 LIG-0.65  OA
ATOM     28 OXT  SER B 147      27.330 -13.775  -5.086  1.00 22.21 LIG-0.65  OA
ENDBRANCH 25 26
BRANCH 25 29
ATOM     29  CB  SER B 147      27.887 -10.413  -4.531  1.00 20.11 LIG 0.20  C 
BRANCH 29 30
ATOM     30 OG   SER B 147      29.029 -10.154  -5.324  1.00 18.07 LIG-0.40  OA
ATOM     31 HG   SER B 147      29.297  -9.371  -5.183  1.00 18.07 LIG 0.21  HD
ENDBRANCH 29 30
ENDBRANCH 25 29
ENDBRANCH 23 25
ENDBRANCH 20 21
BRANCH 20 32
ATOM     32  CB  SER B 146      32.140 -13.037  -2.110  1.00 20.68 LIG 0.20  C 
BRANCH 32 33
ATOM     33 OG   SER B 146      33.068 -12.118  -2.648  1.00 26.78 LIG-0.40  OA
ATOM     34 HG   SER B 146      32.685 -11.384  -2.789  1.00 26.78 LIG 0.21  HD
ENDBRANCH 32 33
ENDBRANCH 20 32
ENDBRANCH 18 20
ENDBRANCH 12 16
ENDBRANCH 9 12
ENDBRANCH 4 8
BRANCH 1 35
ATOM     35  CA  LYS B 143      37.545 -11.683 -10.318  1.00 37.18 LIG 0.18  C 
BRANCH 35 36
ATOM     36  N   LYS B 143      37.893 -11.709 -11.735  1.00 37.14 LIG-0.35  N 
ATOM     37  C   GLU B 142      38.074 -12.847 -12.396  1.00 37.51 LIG 0.26  C 
ATOM     38 O    GLU B 142      37.970 -13.952 -11.867  1.00 36.88 LIG-0.27  OA
ATOM     39 H    LYS B 143      37.967 -10.931 -12.095  1.00 37.14 LIG 0.16  HD
BRANCH 37 40
ATOM     40  CA  GLU B 142      38.422 -12.716 -13.876  1.00 37.87 LIG 0.40  C 
ATOM     41  N   GLU B 142      37.628 -11.654 -14.559  1.00 38.42 LIG 0.61  N 
BRANCH 40 42
ATOM     42  CB  GLU B 142      39.919 -12.426 -14.011  1.00 37.65 LIG 0.06  C 
BRANCH 42 43
ATOM     43  CG  GLU B 142      40.799 -13.139 -13.002  1.00 37.75 LIG 0.12  C 
BRANCH 43 44
ATOM     44  CD  GLU B 142      40.866 -14.638 -13.239  1.00 38.95 LIG 0.17  C 
ATOM     45 OE1  GLU B 142      41.121 -15.055 -14.391  1.00 40.26 LIG-0.65  OA
ATOM     46 OE2  GLU B 142      40.649 -15.402 -12.275  1.00 39.11 LIG-0.65  OA
ENDBRANCH 43 44
ENDBRANCH 42 43
ENDBRANCH 40 42
ENDBRANCH 37 40
ENDBRANCH 35 36
BRANCH 35 47
ATOM     47  CB  LYS B 143      37.235 -10.249  -9.880  1.00 39.83 LIG 0.04  C 
BRANCH 47 48
ATOM     48  CG  LYS B 143      38.306  -9.606  -9.004  1.00 44.30 LIG 0.00  C 
BRANCH 48 49
ATOM     49  CD  LYS B 143      38.695  -8.222  -9.514  1.00 47.73 LIG 0.03  C 
BRANCH 49 50
ATOM     50  CE  LYS B 143      39.562  -8.331 -10.770  1.00 49.61 LIG 0.23  C 
BRANCH 50 51
ATOM     51  NZ  LYS B 143      38.776  -8.216 -12.033  1.00 50.46 LIG-0.08  N 
ATOM     52 HZ2  LYS B 143      39.156  -7.614 -12.566  1.00 50.46 LIG 0.27  HD
ATOM     53 HZ3  LYS B 143      38.758  -9.006 -12.444  1.00 50.46 LIG 0.27  HD
ATOM     54 HZ1  LYS B 143      37.944  -7.962 -11.843  1.00 50.46 LIG 0.27  HD
ENDBRANCH 50 51
ENDBRANCH 49 50
ENDBRANCH 48 49
ENDBRANCH 47 48
ENDBRANCH 35 47
ENDBRANCH 1 35
TORSDOF 24
ENDMDL
MODEL 12
USER: ADFR SOLUTION from run 182
USER: SCORE 16.943038 LL:  -4.271 LR: -15.256 RR:   0.000 FEB:  -8.096
USER: RMSD 10.290931
USER: SEED 181
USER: STATUS no improvement in best in 1 clusters for 5 generations
USER: GENES 26
USER: genes 0 Translation |==|  0.56999 0.71606 0.40021
USER: genes 1 Rotation |==|  0.73205 0.60599 0.91914 0.59613
USER: genes 2 Torsion [N]-CA--C-[N] |==|  0.40595
USER: genes 3 Torsion [C]-N--CA-[CB] |==|  0.42766
USER: genes 4 Torsion [N]-CA--CB-[OG] |==|  0.95345
USER: genes 5 Torsion [CA]-CB--OG-[HG] |==|  0.97574
USER: genes 6 Torsion [N]-CA--C-[N] |==|  0.85618
USER: genes 7 Torsion [C]-N--CA-[C] |==|  0.53063
USER: genes 8 Torsion [N]-CA--C-[N] |==|  0.18280
USER: genes 9 Torsion [C]-N--CA-[C] |==|  0.79846
USER: genes 10 Torsion [N]-CA--C-[O] |==|  0.23240
USER: genes 11 Torsion [N]-CA--CB-[OG] |==|  0.00660
USER: genes 12 Torsion [CA]-CB--OG-[HG] |==|  0.40815
USER: genes 13 Torsion [N]-CA--CB-[OG] |==|  0.70732
USER: genes 14 Torsion [CA]-CB--OG-[HG] |==|  0.17469
USER: genes 15 Torsion [N]-C--CA-[N] |==|  0.28060
USER: genes 16 Torsion [C]-CA--N-[C] |==|  0.61447
USER: genes 17 Torsion [N]-C--CA-[N] |==|  0.41717
USER: genes 18 Torsion [C]-CA--CB-[CG] |==|  0.98273
USER: genes 19 Torsion [CA]-CB--CG-[CD] |==|  0.74251
USER: genes 20 Torsion [CB]-CG--CD-[OE1] |==|  0.94180
USER: genes 21 Torsion [C]-CA--CB-[CG] |==|  0.41305
USER: genes 22 Torsion [CA]-CB--CG-[CD] |==|  0.74979
USER: genes 23 Torsion [CB]-CG--CD-[CE] |==|  0.52666
USER: genes 24 Torsion [CG]-CD--CE-[NZ] |==|  0.41248
USER: genes 25 Torsion [CD]-CE--NZ-[HZ3] |==|  0.54884
ROOT
ATOM      1  C   LYS B 143      36.121 -12.205  -9.961  1.00 34.55 LIG 0.24  C 
ATOM      2 O    LYS B 143      35.026 -11.652 -10.080  1.00 35.84 LIG-0.27  OA
ATOM      3  N   PRO B 144      36.230 -13.491  -9.591  1.00 31.41 LIG-0.34  N 
ATOM      4  CA  PRO B 144      35.027 -14.275  -9.303  1.00 28.99 LIG 0.18  C 
ATOM      5  CB  PRO B 144      35.544 -15.710  -9.312  1.00 27.49 LIG 0.04  C 
ATOM      6  CG  PRO B 144      36.905 -15.557  -8.745  1.00 29.54 LIG 0.02  C 
ATOM      7  CD  PRO B 144      37.437 -14.328  -9.472  1.00 30.41 LIG 0.13  C 
ENDROOT
BRANCH 4 8
ATOM      8  C   PRO B 144      34.429 -13.884  -7.959  1.00 27.24 LIG 0.24  C 
ATOM      9  N   SER B 145      33.102 -13.938  -7.867  1.00 24.69 LIG-0.34  N 
ATOM     10 H    SER B 145      32.589 -14.172  -8.516  1.00 24.69 LIG 0.16  HD
ATOM     11 O    PRO B 144      35.157 -13.546  -7.029  1.00 26.33 LIG-0.27  OA
BRANCH 9 12
ATOM     12  CA  SER B 145      32.392 -13.598  -6.641  1.00 22.76 LIG 0.20  C 
BRANCH 12 13
ATOM     13  CB  SER B 145      30.975 -13.125  -6.963  1.00 22.87 LIG 0.20  C 
BRANCH 13 14
ATOM     14 OG   SER B 145      30.860 -12.781  -8.336  1.00 23.93 LIG-0.40  OA
ATOM     15 HG   SER B 145      31.621 -12.786  -8.691  1.00 23.93 LIG 0.21  HD
ENDBRANCH 13 14
ENDBRANCH 12 13
BRANCH 12 16
ATOM     16  C   SER B 145      32.299 -14.846  -5.780  1.00 23.07 LIG 0.24  C 
ATOM     17 O    SER B 145      32.665 -14.829  -4.600  1.00 22.80 LIG-0.27  OA
ATOM     18  N   SER B 146      31.815 -15.932  -6.372  1.00 21.84 LIG-0.34  N 
ATOM     19 H    SER B 146      31.535 -15.957  -7.185  1.00 21.84 LIG 0.16  HD
BRANCH 18 20
ATOM     20  CA  SER B 146      31.722 -17.195  -5.656  1.00 21.58 LIG 0.20  C 
BRANCH 20 21
ATOM     21  C   SER B 146      31.396 -18.244  -6.717  1.00 21.23 LIG 0.24  C 
ATOM     22 O    SER B 146      30.307 -18.825  -6.703  1.00 18.65 LIG-0.27  OA
ATOM     23  N   SER B 147      32.326 -18.481  -7.637  1.00 20.83 LIG-0.34  N 
ATOM     24 H    SER B 147      33.090 -18.087  -7.661  1.00 20.83 LIG 0.16  HD
BRANCH 23 25
ATOM     25  CA  SER B 147      32.115 -19.453  -8.704  1.00 21.16 LIG 0.21  C 
BRANCH 25 26
ATOM     26  C   SER B 147      32.168 -20.896  -8.202  1.00 22.63 LIG 0.20  C 
ATOM     27 O    SER B 147      31.128 -21.379  -7.708  1.00 24.48 LIG-0.65  OA
ATOM     28 OXT  SER B 147      33.238 -21.531  -8.319  1.00 22.21 LIG-0.65  OA
ENDBRANCH 25 26
BRANCH 25 29
ATOM     29  CB  SER B 147      33.150 -19.253  -9.817  1.00 20.11 LIG 0.20  C 
BRANCH 29 30
ATOM     30 OG   SER B 147      34.064 -18.222  -9.493  1.00 18.07 LIG-0.40  OA
ATOM     31 HG   SER B 147      34.817 -18.403  -9.816  1.00 18.07 LIG 0.21  HD
ENDBRANCH 29 30
ENDBRANCH 25 29
ENDBRANCH 23 25
ENDBRANCH 20 21
BRANCH 20 32
ATOM     32  CB  SER B 146      30.610 -17.140  -4.608  1.00 20.68 LIG 0.20  C 
BRANCH 32 33
ATOM     33 OG   SER B 146      31.156 -17.024  -3.311  1.00 26.78 LIG-0.40  OA
ATOM     34 HG   SER B 146      31.579 -16.301  -3.249  1.00 26.78 LIG 0.21  HD
ENDBRANCH 32 33
ENDBRANCH 20 32
ENDBRANCH 18 20
ENDBRANCH 12 16
ENDBRANCH 9 12
ENDBRANCH 4 8
BRANCH 1 35
ATOM     35  CA  LYS B 143      37.411 -11.438 -10.248  1.00 37.18 LIG 0.18  C 
BRANCH 35 36
ATOM     36  N   LYS B 143      37.606 -11.365 -11.692  1.00 37.14 LIG-0.35  N 
ATOM     37  C   GLU B 142      38.800 -11.530 -12.252  1.00 37.51 LIG 0.26  C 
ATOM     38 O    GLU B 142      39.820 -11.750 -11.601  1.00 36.88 LIG-0.27  OA
ATOM     39 H    LYS B 143      36.888 -11.206 -12.138  1.00 37.14 LIG 0.16  HD
BRANCH 37 40
ATOM     40  CA  GLU B 142      38.846 -11.437 -13.774  1.00 37.87 LIG 0.40  C 
ATOM     41  N   GLU B 142      40.156 -10.930 -14.278  1.00 38.42 LIG 0.61  N 
BRANCH 40 42
ATOM     42  CB  GLU B 142      38.551 -12.817 -14.366  1.00 37.65 LIG 0.06  C 
BRANCH 42 43
ATOM     43  CG  GLU B 142      38.439 -13.935 -13.347  1.00 37.75 LIG 0.12  C 
BRANCH 43 44
ATOM     44  CD  GLU B 142      39.757 -14.654 -13.119  1.00 38.95 LIG 0.17  C 
ATOM     45 OE1  GLU B 142      40.645 -14.576 -13.996  1.00 40.26 LIG-0.65  OA
ATOM     46 OE2  GLU B 142      39.901 -15.311 -12.066  1.00 39.11 LIG-0.65  OA
ENDBRANCH 43 44
ENDBRANCH 42 43
ENDBRANCH 40 42
ENDBRANCH 37 40
ENDBRANCH 35 36
BRANCH 35 47
ATOM     47  CB  LYS B 143      37.311 -10.029  -9.659  1.00 39.83 LIG 0.04  C 
BRANCH 47 48
ATOM     48  CG  LYS B 143      38.638  -9.439  -9.193  1.00 44.30 LIG 0.00  C 
BRANCH 48 49
ATOM     49  CD  LYS B 143      38.921  -9.773  -7.731  1.00 47.73 LIG 0.03  C 
BRANCH 49 50
ATOM     50  CE  LYS B 143      40.126  -8.983  -7.217  1.00 49.61 LIG 0.23  C 
BRANCH 50 51
ATOM     51  NZ  LYS B 143      40.031  -8.654  -5.765  1.00 50.46 LIG-0.08  N 
ATOM     52 HZ2  LYS B 143      40.235  -9.374  -5.283  1.00 50.46 LIG 0.27  HD
ATOM     53 HZ3  LYS B 143      40.600  -7.997  -5.571  1.00 50.46 LIG 0.27  HD
ATOM     54 HZ1  LYS B 143      39.202  -8.393  -5.572  1.00 50.46 LIG 0.27  HD
ENDBRANCH 50 51
ENDBRANCH 49 50
ENDBRANCH 48 49
ENDBRANCH 47 48
ENDBRANCH 35 47
ENDBRANCH 1 35
TORSDOF 24
ENDMDL
MODEL 13
USER: ADFR SOLUTION from run 139
USER: SCORE 18.051086 LL:  -3.978 LR: -15.222 RR:   0.000 FEB:  -8.062
USER: RMSD 10.932474
USER: SEED 138
USER: STATUS no improvement in best in 5 clusters for 5 generations
USER: GENES 26
USER: genes 0 Translation |==|  0.65487 0.70487 0.40724
USER: genes 1 Rotation |==|  0.38811 0.80131 0.88165 0.53217
USER: genes 2 Torsion [N]-CA--C-[N] |==|  0.37114
USER: genes 3 Torsion [C]-N--CA-[CB] |==|  0.51124
USER: genes 4 Torsion [N]-CA--CB-[OG] |==|  0.94991
USER: genes 5 Torsion [CA]-CB--OG-[HG] |==|  0.47136
USER: genes 6 Torsion [N]-CA--C-[N] |==|  0.31143
USER: genes 7 Torsion [C]-N--CA-[C] |==|  0.56110
USER: genes 8 Torsion [N]-CA--C-[N] |==|  0.45780
USER: genes 9 Torsion [C]-N--CA-[C] |==|  0.74175
USER: genes 10 Torsion [N]-CA--C-[O] |==|  0.20877
USER: genes 11 Torsion [N]-CA--CB-[OG] |==|  0.76570
USER: genes 12 Torsion [CA]-CB--OG-[HG] |==|  0.75558
USER: genes 13 Torsion [N]-CA--CB-[OG] |==|  0.93021
USER: genes 14 Torsion [CA]-CB--OG-[HG] |==|  0.16459
USER: genes 15 Torsion [N]-C--CA-[N] |==|  0.49377
USER: genes 16 Torsion [C]-CA--N-[C] |==|  0.73751
USER: genes 17 Torsion [N]-C--CA-[N] |==|  0.53448
USER: genes 18 Torsion [C]-CA--CB-[CG] |==|  0.72879
USER: genes 19 Torsion [CA]-CB--CG-[CD] |==|  0.14016
USER: genes 20 Torsion [CB]-CG--CD-[OE1] |==|  0.22830
USER: genes 21 Torsion [C]-CA--CB-[CG] |==|  0.38604
USER: genes 22 Torsion [CA]-CB--CG-[CD] |==|  0.03407
USER: genes 23 Torsion [CB]-CG--CD-[CE] |==|  0.24642
USER: genes 24 Torsion [CG]-CD--CE-[NZ] |==|  0.95918
USER: genes 25 Torsion [CD]-CE--NZ-[HZ3] |==|  0.15105
ROOT
ATOM      1  C   LYS B 143      37.903 -12.448  -9.792  1.00 34.55 LIG 0.24  C 
ATOM      2 O    LYS B 143      37.619 -13.327 -10.607  1.00 35.84 LIG-0.27  OA
ATOM      3  N   PRO B 144      37.842 -12.661  -8.467  1.00 31.41 LIG-0.34  N 
ATOM      4  CA  PRO B 144      37.414 -13.965  -7.955  1.00 28.99 LIG 0.18  C 
ATOM      5  CB  PRO B 144      37.848 -13.915  -6.493  1.00 27.49 LIG 0.04  C 
ATOM      6  CG  PRO B 144      37.636 -12.489  -6.151  1.00 29.54 LIG 0.02  C 
ATOM      7  CD  PRO B 144      38.213 -11.763  -7.361  1.00 30.41 LIG 0.13  C 
ENDROOT
BRANCH 4 8
ATOM      8  C   PRO B 144      35.911 -14.146  -8.107  1.00 27.24 LIG 0.24  C 
ATOM      9  N   SER B 145      35.505 -15.310  -8.607  1.00 24.69 LIG-0.34  N 
ATOM     10 H    SER B 145      36.042 -15.940  -8.843  1.00 24.69 LIG 0.16  HD
ATOM     11 O    PRO B 144      35.140 -13.249  -7.774  1.00 26.33 LIG-0.27  OA
BRANCH 9 12
ATOM     12  CA  SER B 145      34.097 -15.626  -8.803  1.00 22.76 LIG 0.20  C 
BRANCH 12 13
ATOM     13  CB  SER B 145      33.939 -17.064  -9.295  1.00 22.87 LIG 0.20  C 
BRANCH 13 14
ATOM     14 OG   SER B 145      35.166 -17.553  -9.816  1.00 23.93 LIG-0.40  OA
ATOM     15 HG   SER B 145      35.103 -18.380  -9.951  1.00 23.93 LIG 0.21  HD
ENDBRANCH 13 14
ENDBRANCH 12 13
BRANCH 12 16
ATOM     16  C   SER B 145      33.387 -15.494  -7.466  1.00 23.07 LIG 0.24  C 
ATOM     17 O    SER B 145      33.619 -16.287  -6.547  1.00 22.80 LIG-0.27  OA
ATOM     18  N   SER B 146      32.518 -14.497  -7.358  1.00 21.84 LIG-0.34  N 
ATOM     19 H    SER B 146      32.359 -13.922  -7.978  1.00 21.84 LIG 0.16  HD
BRANCH 18 20
ATOM     20  CA  SER B 146      31.748 -14.303  -6.139  1.00 21.58 LIG 0.20  C 
BRANCH 20 21
ATOM     21  C   SER B 146      30.524 -13.487  -6.551  1.00 21.23 LIG 0.24  C 
ATOM     22 O    SER B 146      30.499 -12.914  -7.644  1.00 18.65 LIG-0.27  OA
ATOM     23  N   SER B 147      29.513 -13.440  -5.690  1.00 20.83 LIG-0.34  N 
ATOM     24 H    SER B 147      29.515 -13.832  -4.924  1.00 20.83 LIG 0.16  HD
BRANCH 23 25
ATOM     25  CA  SER B 147      28.291 -12.701  -5.986  1.00 21.16 LIG 0.21  C 
BRANCH 25 26
ATOM     26  C   SER B 147      28.327 -11.269  -5.451  1.00 22.63 LIG 0.20  C 
ATOM     27 O    SER B 147      29.026 -10.436  -6.066  1.00 24.48 LIG-0.65  OA
ATOM     28 OXT  SER B 147      27.651 -10.991  -4.438  1.00 22.21 LIG-0.65  OA
ENDBRANCH 25 26
BRANCH 25 29
ATOM     29  CB  SER B 147      27.074 -13.437  -5.414  1.00 20.11 LIG 0.20  C 
BRANCH 29 30
ATOM     30 OG   SER B 147      26.614 -14.440  -6.299  1.00 18.07 LIG-0.40  OA
ATOM     31 HG   SER B 147      26.062 -14.107  -6.839  1.00 18.07 LIG 0.21  HD
ENDBRANCH 29 30
ENDBRANCH 25 29
ENDBRANCH 23 25
ENDBRANCH 20 21
BRANCH 20 32
ATOM     32  CB  SER B 146      32.568 -13.537  -5.101  1.00 20.68 LIG 0.20  C 
BRANCH 32 33
ATOM     33 OG   SER B 146      33.950 -13.717  -5.329  1.00 26.78 LIG-0.40  OA
ATOM     34 HG   SER B 146      34.145 -13.444  -6.098  1.00 26.78 LIG 0.21  HD
ENDBRANCH 32 33
ENDBRANCH 20 32
ENDBRANCH 18 20
ENDBRANCH 12 16
ENDBRANCH 9 12
ENDBRANCH 4 8
BRANCH 1 35
ATOM     35  CA  LYS B 143      38.356 -11.068 -10.267  1.00 37.18 LIG 0.18  C 
BRANCH 35 36
ATOM     36  N   LYS B 143      38.405 -11.063 -11.726  1.00 37.14 LIG-0.35  N 
ATOM     37  C   GLU B 142      39.524 -11.314 -12.395  1.00 37.51 LIG 0.26  C 
ATOM     38 O    GLU B 142      40.594 -11.563 -11.841  1.00 36.88 LIG-0.27  OA
ATOM     39 H    LYS B 143      37.653 -10.883 -12.104  1.00 37.14 LIG 0.16  HD
BRANCH 37 40
ATOM     40  CA  GLU B 142      39.418 -11.284 -13.917  1.00 37.87 LIG 0.40  C 
ATOM     41  N   GLU B 142      40.621 -11.859 -14.587  1.00 38.42 LIG 0.61  N 
BRANCH 40 42
ATOM     42  CB  GLU B 142      38.161 -12.046 -14.343  1.00 37.65 LIG 0.06  C 
BRANCH 42 43
ATOM     43  CG  GLU B 142      38.401 -13.482 -14.768  1.00 37.75 LIG 0.12  C 
BRANCH 43 44
ATOM     44  CD  GLU B 142      39.219 -14.264 -13.756  1.00 38.95 LIG 0.17  C 
ATOM     45 OE1  GLU B 142      38.638 -14.756 -12.763  1.00 40.26 LIG-0.65  OA
ATOM     46 OE2  GLU B 142      40.449 -14.377 -13.944  1.00 39.11 LIG-0.65  OA
ENDBRANCH 43 44
ENDBRANCH 42 43
ENDBRANCH 40 42
ENDBRANCH 37 40
ENDBRANCH 35 36
BRANCH 35 47
ATOM     47  CB  LYS B 143      37.370 -10.007  -9.771  1.00 39.83 LIG 0.04  C 
BRANCH 47 48
ATOM     48  CG  LYS B 143      38.020  -8.721  -9.270  1.00 44.30 LIG 0.00  C 
BRANCH 48 49
ATOM     49  CD  LYS B 143      39.496  -8.651  -9.649  1.00 47.73 LIG 0.03  C 
BRANCH 49 50
ATOM     50  CE  LYS B 143      39.673  -8.004 -11.024  1.00 49.61 LIG 0.23  C 
BRANCH 50 51
ATOM     51  NZ  LYS B 143      38.401  -7.922 -11.799  1.00 50.46 LIG-0.08  N 
ATOM     52 HZ2  LYS B 143      38.119  -8.743 -11.996  1.00 50.46 LIG 0.27  HD
ATOM     53 HZ3  LYS B 143      37.782  -7.506 -11.312  1.00 50.46 LIG 0.27  HD
ATOM     54 HZ1  LYS B 143      38.540  -7.467 -12.551  1.00 50.46 LIG 0.27  HD
ENDBRANCH 50 51
ENDBRANCH 49 50
ENDBRANCH 48 49
ENDBRANCH 47 48
ENDBRANCH 35 47
ENDBRANCH 1 35
TORSDOF 24
ENDMDL
MODEL 14
USER: ADFR SOLUTION from run 6
USER: SCORE 18.131295 LL:  -4.046 LR: -15.002 RR:   0.000 FEB:  -7.843
USER: RMSD 10.601465
USER: SEED 201782
USER: STATUS no improvement in best in 3 clusters for 5 generations
USER: GENES 26
USER: genes 0 Translation |==|  0.65953 0.59561 0.36769
USER: genes 1 Rotation |==|  0.51100 0.68654 0.95472 0.59117
USER: genes 2 Torsion [N]-CA--C-[N] |==|  0.51985
USER: genes 3 Torsion [C]-N--CA-[CB] |==|  0.52778
USER: genes 4 Torsion [N]-CA--CB-[OG] |==|  0.74828
USER: genes 5 Torsion [CA]-CB--OG-[HG] |==|  0.70646
USER: genes 6 Torsion [N]-CA--C-[N] |==|  0.31277
USER: genes 7 Torsion [C]-N--CA-[C] |==|  0.61771
USER: genes 8 Torsion [N]-CA--C-[N] |==|  0.46649
USER: genes 9 Torsion [C]-N--CA-[C] |==|  0.62336
USER: genes 10 Torsion [N]-CA--C-[O] |==|  0.40533
USER: genes 11 Torsion [N]-CA--CB-[OG] |==|  0.65584
USER: genes 12 Torsion [CA]-CB--OG-[HG] |==|  0.86705
USER: genes 13 Torsion [N]-CA--CB-[OG] |==|  0.12270
USER: genes 14 Torsion [CA]-CB--OG-[HG] |==|  0.97595
USER: genes 15 Torsion [N]-C--CA-[N] |==|  0.48265
USER: genes 16 Torsion [C]-CA--N-[C] |==|  0.57429
USER: genes 17 Torsion [N]-C--CA-[N] |==|  0.60772
USER: genes 18 Torsion [C]-CA--CB-[CG] |==|  0.74255
USER: genes 19 Torsion [CA]-CB--CG-[CD] |==|  0.14951
USER: genes 20 Torsion [CB]-CG--CD-[OE1] |==|  0.15244
USER: genes 21 Torsion [C]-CA--CB-[CG] |==|  0.86426
USER: genes 22 Torsion [CA]-CB--CG-[CD] |==|  0.76760
USER: genes 23 Torsion [CB]-CG--CD-[CE] |==|  0.86469
USER: genes 24 Torsion [CG]-CD--CE-[NZ] |==|  0.37557
USER: genes 25 Torsion [CD]-CE--NZ-[HZ3] |==|  0.97430
ROOT
ATOM      1  C   LYS B 143      38.001 -14.824 -10.741  1.00 34.55 LIG 0.24  C 
ATOM      2 O    LYS B 143      37.269 -14.914 -11.728  1.00 35.84 LIG-0.27  OA
ATOM      3  N   PRO B 144      38.044 -15.782  -9.800  1.00 31.41 LIG-0.34  N 
ATOM      4  CA  PRO B 144      37.196 -16.969  -9.924  1.00 28.99 LIG 0.18  C 
ATOM      5  CB  PRO B 144      37.812 -17.936  -8.917  1.00 27.49 LIG 0.04  C 
ATOM      6  CG  PRO B 144      38.255 -17.022  -7.837  1.00 29.54 LIG 0.02  C 
ATOM      7  CD  PRO B 144      38.903 -15.878  -8.608  1.00 30.41 LIG 0.13  C 
ENDROOT
BRANCH 4 8
ATOM      8  C   PRO B 144      35.746 -16.641  -9.599  1.00 27.24 LIG 0.24  C 
ATOM      9  N   SER B 145      34.908 -17.674  -9.535  1.00 24.69 LIG-0.34  N 
ATOM     10 H    SER B 145      35.147 -18.490  -9.670  1.00 24.69 LIG 0.16  HD
ATOM     11 O    PRO B 144      35.399 -15.479  -9.408  1.00 26.33 LIG-0.27  OA
BRANCH 9 12
ATOM     12  CA  SER B 145      33.494 -17.512  -9.227  1.00 22.76 LIG 0.20  C 
BRANCH 12 13
ATOM     13  CB  SER B 145      32.846 -18.874  -8.982  1.00 22.87 LIG 0.20  C 
BRANCH 13 14
ATOM     14 OG   SER B 145      32.328 -19.409 -10.191  1.00 23.93 LIG-0.40  OA
ATOM     15 HG   SER B 145      31.491 -19.346 -10.190  1.00 23.93 LIG 0.21  HD
ENDBRANCH 13 14
ENDBRANCH 12 13
BRANCH 12 16
ATOM     16  C   SER B 145      33.372 -16.685  -7.959  1.00 23.07 LIG 0.24  C 
ATOM     17 O    SER B 145      33.747 -17.137  -6.872  1.00 22.80 LIG-0.27  OA
ATOM     18  N   SER B 146      32.844 -15.475  -8.095  1.00 21.84 LIG-0.34  N 
ATOM     19 H    SER B 146      32.598 -15.134  -8.846  1.00 21.84 LIG 0.16  HD
BRANCH 18 20
ATOM     20  CA  SER B 146      32.638 -14.614  -6.941  1.00 21.58 LIG 0.20  C 
BRANCH 20 21
ATOM     21  C   SER B 146      31.261 -13.983  -7.139  1.00 21.23 LIG 0.24  C 
ATOM     22 O    SER B 146      30.682 -14.084  -8.224  1.00 18.65 LIG-0.27  OA
ATOM     23  N   SER B 147      30.735 -13.345  -6.099  1.00 20.83 LIG-0.34  N 
ATOM     24 H    SER B 147      31.126 -13.263  -5.337  1.00 20.83 LIG 0.16  HD
BRANCH 23 25
ATOM     25  CA  SER B 147      29.420 -12.716  -6.174  1.00 21.16 LIG 0.21  C 
BRANCH 25 26
ATOM     26  C   SER B 147      29.401 -11.321  -5.550  1.00 22.63 LIG 0.20  C 
ATOM     27 O    SER B 147      28.654 -10.463  -6.066  1.00 24.48 LIG-0.65  OA
ATOM     28 OXT  SER B 147      30.117 -11.102  -4.550  1.00 22.21 LIG-0.65  OA
ENDBRANCH 25 26
BRANCH 25 29
ATOM     29  CB  SER B 147      28.370 -13.602  -5.494  1.00 20.11 LIG 0.20  C 
BRANCH 29 30
ATOM     30 OG   SER B 147      27.308 -13.914  -6.375  1.00 18.07 LIG-0.40  OA
ATOM     31 HG   SER B 147      27.043 -13.212  -6.754  1.00 18.07 LIG 0.21  HD
ENDBRANCH 29 30
ENDBRANCH 25 29
ENDBRANCH 23 25
ENDBRANCH 20 21
BRANCH 20 32
ATOM     32  CB  SER B 146      33.713 -13.527  -6.882  1.00 20.68 LIG 0.20  C 
BRANCH 32 33
ATOM     33 OG   SER B 146      33.922 -12.967  -8.162  1.00 26.78 LIG-0.40  OA
ATOM     34 HG   SER B 146      33.503 -13.415  -8.735  1.00 26.78 LIG 0.21  HD
ENDBRANCH 32 33
ENDBRANCH 20 32
ENDBRANCH 18 20
ENDBRANCH 12 16
ENDBRANCH 9 12
ENDBRANCH 4 8
BRANCH 1 35
ATOM     35  CA  LYS B 143      38.909 -13.609 -10.558  1.00 37.18 LIG 0.18  C 
BRANCH 35 36
ATOM     36  N   LYS B 143      38.823 -12.770 -11.748  1.00 37.14 LIG-0.35  N 
ATOM     37  C   GLU B 142      39.817 -11.973 -12.123  1.00 37.51 LIG 0.26  C 
ATOM     38 O    GLU B 142      40.872 -11.880 -11.497  1.00 36.88 LIG-0.27  OA
ATOM     39 H    LYS B 143      38.079 -12.839 -12.176  1.00 37.14 LIG 0.16  HD
BRANCH 37 40
ATOM     40  CA  GLU B 142      39.587 -11.164 -13.396  1.00 37.87 LIG 0.40  C 
ATOM     41  N   GLU B 142      40.812 -11.063 -14.241  1.00 38.42 LIG 0.61  N 
BRANCH 40 42
ATOM     42  CB  GLU B 142      38.447 -11.805 -14.192  1.00 37.65 LIG 0.06  C 
BRANCH 42 43
ATOM     43  CG  GLU B 142      38.887 -12.815 -15.234  1.00 37.75 LIG 0.12  C 
BRANCH 43 44
ATOM     44  CD  GLU B 142      39.774 -13.904 -14.656  1.00 38.95 LIG 0.17  C 
ATOM     45 OE1  GLU B 142      39.356 -14.567 -13.681  1.00 40.26 LIG-0.65  OA
ATOM     46 OE2  GLU B 142      40.898 -14.089 -15.168  1.00 39.11 LIG-0.65  OA
ENDBRANCH 43 44
ENDBRANCH 42 43
ENDBRANCH 40 42
ENDBRANCH 37 40
ENDBRANCH 35 36
BRANCH 35 47
ATOM     47  CB  LYS B 143      38.463 -12.819  -9.324  1.00 39.83 LIG 0.04  C 
BRANCH 47 48
ATOM     48  CG  LYS B 143      36.968 -12.525  -9.264  1.00 44.30 LIG 0.00  C 
BRANCH 48 49
ATOM     49  CD  LYS B 143      36.604 -11.284 -10.076  1.00 47.73 LIG 0.03  C 
BRANCH 49 50
ATOM     50  CE  LYS B 143      37.537 -10.121  -9.735  1.00 49.61 LIG 0.23  C 
BRANCH 50 51
ATOM     51  NZ  LYS B 143      38.026  -9.392 -10.941  1.00 50.46 LIG-0.08  N 
ATOM     52 HZ2  LYS B 143      38.912  -9.318 -10.906  1.00 50.46 LIG 0.27  HD
ATOM     53 HZ3  LYS B 143      37.795  -9.841 -11.674  1.00 50.46 LIG 0.27  HD
ATOM     54 HZ1  LYS B 143      37.661  -8.580 -10.966  1.00 50.46 LIG 0.27  HD
ENDBRANCH 50 51
ENDBRANCH 49 50
ENDBRANCH 48 49
ENDBRANCH 47 48
ENDBRANCH 35 47
ENDBRANCH 1 35
TORSDOF 24
ENDMDL
