MODEL 1
USER: ADFR SOLUTION from run 61
USER: SCORE 7.830925 LL:  -0.823 LR:  -7.588 RR:   0.000 FEB:  -5.500
USER: RMSD 3.865840
USER: SEED 60
USER: STATUS no improvement in best in 27 clusters for 5 generations
USER: GENES 9
USER: genes 0 Translation |==|  0.38875 0.69054 0.45386
USER: genes 1 Rotation |==|  0.43896 0.58517 0.54494 0.98683
USER: genes 2 Torsion [C]-N--CA-[C] |==|  0.75665
USER: genes 3 Torsion [N]-CA--C-[O] |==|  0.41588
USER: genes 4 Torsion [N]-CA--CB-[CG] |==|  0.56955
USER: genes 5 Torsion [CA]-CB--CG-[CD2] |==|  0.26136
USER: genes 6 Torsion [N]-C--CA-[N] |==|  0.92710
USER: genes 7 Torsion [C]-CA--N-[C] |==|  0.61667
USER: genes 8 Torsion [N]-C--CA-[N] |==|  0.75365
ROOT
ATOM      1  C   ALA S   7      -0.885  -9.760   6.394  1.00 26.16 LIG 0.24  C 
ATOM      2 O    ALA S   7      -0.532  -9.408   5.270  1.00 23.62 LIG-0.27  OA
ATOM      3  N   PHE S   8      -0.064 -10.303   7.286  1.00 26.19 LIG-0.35  N 
ATOM      4 H    PHE S   8      -0.314 -10.557   8.068  1.00 26.19 LIG 0.16  HD
ENDROOT
BRANCH 3 5
ATOM      5  CA  PHE S   8       1.351 -10.518   7.017  1.00 26.02 LIG 0.17  C 
BRANCH 5 6
ATOM      6  C   PHE S   8       1.571 -11.862   6.350  1.00 27.74 LIG 0.22  C 
ATOM      7 O    PHE S   8       2.523 -12.011   5.558  1.00 30.84 LIG-0.29  OA
ENDBRANCH 5 6
BRANCH 5 8
ATOM      8  CB  PHE S   8       2.160 -10.506   8.303  1.00 24.81 LIG 0.07  C 
BRANCH 8 9
ATOM      9  CG  PHE S   8       3.606 -10.127   8.115  1.00 22.51 LIG-0.06  A 
ATOM     10  CD2 PHE S   8       4.004  -8.822   8.276  1.00 18.27 LIG 0.01  A 
ATOM     11  CE2 PHE S   8       5.360  -8.440   8.073  1.00 17.55 LIG 0.00  A 
ATOM     12  CZ  PHE S   8       6.292  -9.402   7.698  1.00 18.56 LIG 0.00  A 
ATOM     13  CE1 PHE S   8       5.888 -10.711   7.530  1.00 16.51 LIG 0.00  A 
ATOM     14  CD1 PHE S   8       4.548 -11.078   7.734  1.00 19.44 LIG 0.01  A 
ENDBRANCH 8 9
ENDBRANCH 5 8
ENDBRANCH 3 5
BRANCH 1 15
ATOM     15  CA  ALA S   7      -2.324  -9.521   6.839  1.00 27.73 LIG 0.17  C 
ATOM     16  CB  ALA S   7      -2.435  -8.041   7.310  1.00 27.93 LIG 0.04  C 
BRANCH 15 17
ATOM     17  N   ALA S   7      -2.813 -10.405   7.903  1.00 29.72 LIG-0.35  N 
ATOM     18  C   ALA S   6      -4.034 -10.969   7.933  1.00 32.34 LIG 0.26  C 
ATOM     19 O    ALA S   6      -4.620 -11.358   6.918  1.00 32.82 LIG-0.27  OA
ATOM     20 H    ALA S   7      -2.233 -10.533   8.524  1.00 29.72 LIG 0.16  HD
BRANCH 18 21
ATOM     21  CA  ALA S   6      -4.633 -11.235   9.339  1.00 33.16 LIG 0.40  C 
ATOM     22  CB  ALA S   6      -4.220 -10.136  10.322  1.00 32.96 LIG 0.06  C 
ATOM     23  N   ALA S   6      -4.270 -12.582   9.928  1.00 33.36 LIG 0.61  N 
ENDBRANCH 18 21
ENDBRANCH 15 17
ENDBRANCH 1 15
TORSDOF 7
ENDMDL
MODEL 2
USER: ADFR SOLUTION from run 23
USER: SCORE 8.270695 LL:  -1.019 LR:  -7.533 RR:   0.000 FEB:  -5.445
USER: RMSD 3.309725
USER: SEED 22
USER: STATUS no improvement in best in 29 clusters for 5 generations
USER: GENES 9
USER: genes 0 Translation |==|  0.56760 0.53328 0.43683
USER: genes 1 Rotation |==|  0.35641 0.41648 0.55689 0.96815
USER: genes 2 Torsion [C]-N--CA-[C] |==|  0.60929
USER: genes 3 Torsion [N]-CA--C-[O] |==|  0.74357
USER: genes 4 Torsion [N]-CA--CB-[CG] |==|  0.69297
USER: genes 5 Torsion [CA]-CB--CG-[CD2] |==|  0.43560
USER: genes 6 Torsion [N]-C--CA-[N] |==|  0.27927
USER: genes 7 Torsion [C]-CA--N-[C] |==|  0.76666
USER: genes 8 Torsion [N]-C--CA-[N] |==|  0.17717
ROOT
ATOM      1  C   ALA S   7       2.200 -12.237   6.190  1.00 26.16 LIG 0.24  C 
ATOM      2 O    ALA S   7       3.162 -12.011   5.457  1.00 23.62 LIG-0.27  OA
ATOM      3  N   PHE S   8       2.296 -12.373   7.507  1.00 26.19 LIG-0.35  N 
ATOM      4 H    PHE S   8       1.625 -12.541   8.018  1.00 26.19 LIG 0.16  HD
ENDROOT
BRANCH 3 5
ATOM      5  CA  PHE S   8       3.563 -12.249   8.216  1.00 26.02 LIG 0.17  C 
BRANCH 5 6
ATOM      6  C   PHE S   8       3.659 -13.279   9.325  1.00 27.74 LIG 0.22  C 
ATOM      7 O    PHE S   8       3.284 -12.983  10.477  1.00 30.84 LIG-0.29  OA
ENDBRANCH 5 6
BRANCH 5 8
ATOM      8  CB  PHE S   8       3.701 -10.876   8.851  1.00 24.81 LIG 0.07  C 
BRANCH 8 9
ATOM      9  CG  PHE S   8       4.748 -10.004   8.207  1.00 22.51 LIG-0.06  A 
ATOM     10  CD2 PHE S   8       4.675  -8.637   8.326  1.00 18.27 LIG 0.01  A 
ATOM     11  CE2 PHE S   8       5.637  -7.796   7.698  1.00 17.55 LIG 0.00  A 
ATOM     12  CZ  PHE S   8       6.659  -8.368   6.948  1.00 18.56 LIG 0.00  A 
ATOM     13  CE1 PHE S   8       6.725  -9.741   6.824  1.00 16.51 LIG 0.00  A 
ATOM     14  CD1 PHE S   8       5.772 -10.563   7.448  1.00 19.44 LIG 0.01  A 
ENDBRANCH 8 9
ENDBRANCH 5 8
ENDBRANCH 3 5
BRANCH 1 15
ATOM     15  CA  ALA S   7       0.801 -12.313   5.590  1.00 27.73 LIG 0.17  C 
ATOM     16  CB  ALA S   7       0.882 -13.183   4.302  1.00 27.93 LIG 0.04  C 
BRANCH 15 17
ATOM     17  N   ALA S   7       0.181 -11.023   5.263  1.00 29.72 LIG-0.35  N 
ATOM     18  C   ALA S   6      -0.483 -10.246   6.136  1.00 32.34 LIG 0.26  C 
ATOM     19 O    ALA S   6      -0.158 -10.136   7.323  1.00 32.82 LIG-0.27  OA
ATOM     20 H    ALA S   7       0.284 -10.803   4.438  1.00 29.72 LIG 0.16  HD
BRANCH 18 21
ATOM     21  CA  ALA S   6      -1.623  -9.371   5.549  1.00 33.16 LIG 0.40  C 
ATOM     22  CB  ALA S   6      -2.171  -8.411   6.609  1.00 32.96 LIG 0.06  C 
ATOM     23  N   ALA S   6      -2.774 -10.159   4.959  1.00 33.36 LIG 0.61  N 
ENDBRANCH 18 21
ENDBRANCH 15 17
ENDBRANCH 1 15
TORSDOF 7
ENDMDL
MODEL 3
USER: ADFR SOLUTION from run 45
USER: SCORE 6.930818 LL:  -0.704 LR:  -7.380 RR:   0.000 FEB:  -5.292
USER: RMSD 4.229530
USER: SEED 44
USER: STATUS no improvement in best in 37 clusters for 5 generations
USER: GENES 9
USER: genes 0 Translation |==|  0.50285 0.64286 0.55770
USER: genes 1 Rotation |==|  0.81598 0.39352 0.68519 0.82330
USER: genes 2 Torsion [C]-N--CA-[C] |==|  0.21512
USER: genes 3 Torsion [N]-CA--C-[O] |==|  0.20209
USER: genes 4 Torsion [N]-CA--CB-[CG] |==|  0.66699
USER: genes 5 Torsion [CA]-CB--CG-[CD2] |==|  0.49102
USER: genes 6 Torsion [N]-C--CA-[N] |==|  0.46060
USER: genes 7 Torsion [C]-CA--N-[C] |==|  0.22566
USER: genes 8 Torsion [N]-C--CA-[N] |==|  0.50102
ROOT
ATOM      1  C   ALA S   7       1.083 -10.511   7.640  1.00 26.16 LIG 0.24  C 
ATOM      2 O    ALA S   7       1.047  -9.584   8.448  1.00 23.62 LIG-0.27  OA
ATOM      3  N   PHE S   8       2.155 -11.268   7.439  1.00 26.19 LIG-0.35  N 
ATOM      4 H    PHE S   8       2.183 -11.909   6.867  1.00 26.19 LIG 0.16  HD
ENDROOT
BRANCH 3 5
ATOM      5  CA  PHE S   8       3.397 -11.077   8.177  1.00 26.02 LIG 0.17  C 
BRANCH 5 6
ATOM      6  C   PHE S   8       3.284 -11.657   9.574  1.00 27.74 LIG 0.22  C 
ATOM      7 O    PHE S   8       3.284 -12.894   9.731  1.00 30.84 LIG-0.29  OA
ENDBRANCH 5 6
BRANCH 5 8
ATOM      8  CB  PHE S   8       3.727  -9.600   8.318  1.00 24.81 LIG 0.07  C 
BRANCH 8 9
ATOM      9  CG  PHE S   8       5.042  -9.204   7.701  1.00 22.51 LIG-0.06  A 
ATOM     10  CD2 PHE S   8       5.434  -7.886   7.698  1.00 18.27 LIG 0.01  A 
ATOM     11  CE2 PHE S   8       6.659  -7.488   7.092  1.00 17.55 LIG 0.00  A 
ATOM     12  CZ  PHE S   8       7.465  -8.447   6.488  1.00 18.56 LIG 0.00  A 
ATOM     13  CE1 PHE S   8       7.067  -9.768   6.486  1.00 16.51 LIG 0.00  A 
ATOM     14  CD1 PHE S   8       5.857 -10.151   7.088  1.00 19.44 LIG 0.01  A 
ENDBRANCH 8 9
ENDBRANCH 5 8
ENDBRANCH 3 5
BRANCH 1 15
ATOM     15  CA  ALA S   7      -0.172 -10.873   6.855  1.00 27.73 LIG 0.17  C 
ATOM     16  CB  ALA S   7       0.069 -10.484   5.367  1.00 27.93 LIG 0.04  C 
BRANCH 15 17
ATOM     17  N   ALA S   7      -1.415 -10.246   7.323  1.00 29.72 LIG-0.35  N 
ATOM     18  C   ALA S   6      -1.805  -8.995   7.021  1.00 32.34 LIG 0.26  C 
ATOM     19 O    ALA S   6      -1.591  -8.469   5.924  1.00 32.82 LIG-0.27  OA
ATOM     20 H    ALA S   7      -1.884 -10.766   7.821  1.00 29.72 LIG 0.16  HD
BRANCH 18 21
ATOM     21  CA  ALA S   6      -2.669  -8.269   8.086  1.00 33.16 LIG 0.40  C 
ATOM     22  CB  ALA S   6      -3.918  -9.088   8.422  1.00 32.96 LIG 0.06  C 
ATOM     23  N   ALA S   6      -3.091  -6.868   7.698  1.00 33.36 LIG 0.61  N 
ENDBRANCH 18 21
ENDBRANCH 15 17
ENDBRANCH 1 15
TORSDOF 7
ENDMDL
MODEL 4
USER: ADFR SOLUTION from run 195
USER: SCORE 7.694384 LL:  -0.818 LR:  -7.307 RR:   0.000 FEB:  -5.219
USER: RMSD 3.947499
USER: SEED 194
USER: STATUS no improvement in best in 23 clusters for 5 generations
USER: GENES 9
USER: genes 0 Translation |==|  0.52928 0.59757 0.47009
USER: genes 1 Rotation |==|  0.24296 0.49007 0.50178 0.92875
USER: genes 2 Torsion [C]-N--CA-[C] |==|  0.65307
USER: genes 3 Torsion [N]-CA--C-[O] |==|  0.22367
USER: genes 4 Torsion [N]-CA--CB-[CG] |==|  0.65398
USER: genes 5 Torsion [CA]-CB--CG-[CD2] |==|  0.44558
USER: genes 6 Torsion [N]-C--CA-[N] |==|  0.36751
USER: genes 7 Torsion [C]-CA--N-[C] |==|  0.52223
USER: genes 8 Torsion [N]-C--CA-[N] |==|  0.05067
ROOT
ATOM      1  C   ALA S   7       1.539 -11.224   6.589  1.00 26.16 LIG 0.24  C 
ATOM      2 O    ALA S   7       2.348 -11.696   5.792  1.00 23.62 LIG-0.27  OA
ATOM      3  N   PHE S   8       1.863 -10.816   7.810  1.00 26.19 LIG-0.35  N 
ATOM      4 H    PHE S   8       1.295 -10.496   8.371  1.00 26.19 LIG 0.16  HD
ENDROOT
BRANCH 3 5
ATOM      5  CA  PHE S   8       3.228 -10.876   8.318  1.00 26.02 LIG 0.17  C 
BRANCH 5 6
ATOM      6  C   PHE S   8       3.281 -11.652   9.620  1.00 27.74 LIG 0.22  C 
ATOM      7 O    PHE S   8       3.291 -12.898   9.597  1.00 30.84 LIG-0.29  OA
ENDBRANCH 5 6
BRANCH 5 8
ATOM      8  CB  PHE S   8       3.770  -9.483   8.591  1.00 24.81 LIG 0.07  C 
BRANCH 8 9
ATOM      9  CG  PHE S   8       5.062  -9.177   7.879  1.00 22.51 LIG-0.06  A 
ATOM     10  CD2 PHE S   8       5.457  -7.873   7.698  1.00 18.27 LIG 0.01  A 
ATOM     11  CE2 PHE S   8       6.659  -7.563   7.001  1.00 17.55 LIG 0.00  A 
ATOM     12  CZ  PHE S   8       7.438  -8.596   6.489  1.00 18.56 LIG 0.00  A 
ATOM     13  CE1 PHE S   8       7.034  -9.904   6.666  1.00 16.51 LIG 0.00  A 
ATOM     14  CD1 PHE S   8       5.848 -10.199   7.357  1.00 19.44 LIG 0.01  A 
ENDBRANCH 8 9
ENDBRANCH 5 8
ENDBRANCH 3 5
BRANCH 1 15
ATOM     15  CA  ALA S   7       0.089 -11.031   6.161  1.00 27.73 LIG 0.17  C 
ATOM     16  CB  ALA S   7      -0.608 -12.423   6.199  1.00 27.93 LIG 0.04  C 
BRANCH 15 17
ATOM     17  N   ALA S   7      -0.106 -10.429   4.836  1.00 29.72 LIG-0.35  N 
ATOM     18  C   ALA S   6      -1.291 -10.035   4.338  1.00 32.34 LIG 0.26  C 
ATOM     19 O    ALA S   6      -2.182  -9.537   5.034  1.00 32.82 LIG-0.27  OA
ATOM     20 H    ALA S   7       0.627 -10.349   4.395  1.00 29.72 LIG 0.16  HD
BRANCH 18 21
ATOM     21  CA  ALA S   6      -1.449 -10.113   2.797  1.00 33.16 LIG 0.40  C 
ATOM     22  CB  ALA S   6      -2.859 -10.574   2.418  1.00 32.96 LIG 0.06  C 
ATOM     23  N   ALA S   6      -0.439 -11.009   2.110  1.00 33.36 LIG 0.61  N 
ENDBRANCH 18 21
ENDBRANCH 15 17
ENDBRANCH 1 15
TORSDOF 7
ENDMDL
MODEL 5
USER: ADFR SOLUTION from run 136
USER: SCORE 8.176349 LL:  -1.107 LR:  -7.097 RR:   0.000 FEB:  -5.009
USER: RMSD 2.184648
USER: SEED 135
USER: STATUS no improvement in best in 38 clusters for 5 generations
USER: GENES 9
USER: genes 0 Translation |==|  0.55414 0.53506 0.44288
USER: genes 1 Rotation |==|  0.34424 0.44052 0.55013 0.96871
USER: genes 2 Torsion [C]-N--CA-[C] |==|  0.62710
USER: genes 3 Torsion [N]-CA--C-[O] |==|  0.75991
USER: genes 4 Torsion [N]-CA--CB-[CG] |==|  0.68486
USER: genes 5 Torsion [CA]-CB--CG-[CD2] |==|  0.42521
USER: genes 6 Torsion [N]-C--CA-[N] |==|  0.91849
USER: genes 7 Torsion [C]-CA--N-[C] |==|  0.83874
USER: genes 8 Torsion [N]-C--CA-[N] |==|  0.71117
ROOT
ATOM      1  C   ALA S   7       1.968 -12.209   6.263  1.00 26.16 LIG 0.24  C 
ATOM      2 O    ALA S   7       2.881 -12.080   5.448  1.00 23.62 LIG-0.27  OA
ATOM      3  N   PHE S   8       2.159 -12.286   7.574  1.00 26.19 LIG-0.35  N 
ATOM      4 H    PHE S   8       1.521 -12.386   8.142  1.00 26.19 LIG 0.16  HD
ENDROOT
BRANCH 3 5
ATOM      5  CA  PHE S   8       3.483 -12.208   8.177  1.00 26.02 LIG 0.17  C 
BRANCH 5 6
ATOM      6  C   PHE S   8       3.659 -13.292   9.225  1.00 27.74 LIG 0.22  C 
ATOM      7 O    PHE S   8       3.284 -13.086  10.395  1.00 30.84 LIG-0.29  OA
ENDBRANCH 5 6
BRANCH 5 8
ATOM      8  CB  PHE S   8       3.692 -10.868   8.864  1.00 24.81 LIG 0.07  C 
BRANCH 8 9
ATOM      9  CG  PHE S   8       4.742 -10.004   8.215  1.00 22.51 LIG-0.06  A 
ATOM     10  CD2 PHE S   8       4.676  -8.636   8.330  1.00 18.27 LIG 0.01  A 
ATOM     11  CE2 PHE S   8       5.641  -7.802   7.698  1.00 17.55 LIG 0.00  A 
ATOM     12  CZ  PHE S   8       6.659  -8.382   6.948  1.00 18.56 LIG 0.00  A 
ATOM     13  CE1 PHE S   8       6.718  -9.755   6.828  1.00 16.51 LIG 0.00  A 
ATOM     14  CD1 PHE S   8       5.762 -10.570   7.456  1.00 19.44 LIG 0.01  A 
ENDBRANCH 8 9
ENDBRANCH 5 8
ENDBRANCH 3 5
BRANCH 1 15
ATOM     15  CA  ALA S   7       0.524 -12.225   5.775  1.00 27.73 LIG 0.17  C 
ATOM     16  CB  ALA S   7       0.050 -10.748   5.642  1.00 27.93 LIG 0.04  C 
BRANCH 15 17
ATOM     17  N   ALA S   7      -0.423 -12.961   6.622  1.00 29.72 LIG-0.35  N 
ATOM     18  C   ALA S   6      -0.312 -14.261   6.948  1.00 32.34 LIG 0.26  C 
ATOM     19 O    ALA S   6       0.773 -14.815   7.150  1.00 32.82 LIG-0.27  OA
ATOM     20 H    ALA S   7      -1.073 -12.472   6.899  1.00 29.72 LIG 0.16  HD
BRANCH 18 21
ATOM     21  CA  ALA S   6      -1.641 -15.023   7.192  1.00 33.16 LIG 0.40  C 
ATOM     22  CB  ALA S   6      -2.819 -14.279   6.555  1.00 32.96 LIG 0.06  C 
ATOM     23  N   ALA S   6      -1.955 -15.279   8.651  1.00 33.36 LIG 0.61  N 
ENDBRANCH 18 21
ENDBRANCH 15 17
ENDBRANCH 1 15
TORSDOF 7
ENDMDL
MODEL 6
USER: ADFR SOLUTION from run 151
USER: SCORE 6.972125 LL:  -0.669 LR:  -6.934 RR:   0.000 FEB:  -4.846
USER: RMSD 7.960645
USER: SEED 150
USER: STATUS no improvement in best in 35 clusters for 5 generations
USER: GENES 9
USER: genes 0 Translation |==|  0.74835 0.71493 0.58493
USER: genes 1 Rotation |==|  0.49602 0.05954 0.66836 0.66624
USER: genes 2 Torsion [C]-N--CA-[C] |==|  0.54193
USER: genes 3 Torsion [N]-CA--C-[O] |==|  0.41570
USER: genes 4 Torsion [N]-CA--CB-[CG] |==|  0.18741
USER: genes 5 Torsion [CA]-CB--CG-[CD2] |==|  0.44406
USER: genes 6 Torsion [N]-C--CA-[N] |==|  0.56111
USER: genes 7 Torsion [C]-CA--N-[C] |==|  0.79203
USER: genes 8 Torsion [N]-C--CA-[N] |==|  0.34976
ROOT
ATOM      1  C   ALA S   7       5.318  -9.376   7.967  1.00 26.16 LIG 0.24  C 
ATOM      2 O    ALA S   7       5.099  -8.328   8.575  1.00 23.62 LIG-0.27  OA
ATOM      3  N   PHE S   8       4.668 -10.510   8.201  1.00 26.19 LIG-0.35  N 
ATOM      4 H    PHE S   8       4.828 -11.244   7.783  1.00 26.19 LIG 0.16  HD
ENDROOT
BRANCH 3 5
ATOM      5  CA  PHE S   8       3.612 -10.614   9.198  1.00 26.02 LIG 0.17  C 
BRANCH 5 6
ATOM      6  C   PHE S   8       3.311 -12.068   9.510  1.00 27.74 LIG 0.22  C 
ATOM      7 O    PHE S   8       2.909 -12.386  10.646  1.00 30.84 LIG-0.29  OA
ENDBRANCH 5 6
BRANCH 5 8
ATOM      8  CB  PHE S   8       2.325  -9.976   8.700  1.00 24.81 LIG 0.07  C 
BRANCH 8 9
ATOM      9  CG  PHE S   8       1.684 -10.706   7.549  1.00 22.51 LIG-0.06  A 
ATOM     10  CD2 PHE S   8       0.353 -10.513   7.265  1.00 18.27 LIG 0.01  A 
ATOM     11  CE2 PHE S   8      -0.277 -11.217   6.200  1.00 17.55 LIG 0.00  A 
ATOM     12  CZ  PHE S   8       0.465 -12.117   5.443  1.00 18.56 LIG 0.00  A 
ATOM     13  CE1 PHE S   8       1.799 -12.314   5.734  1.00 16.51 LIG 0.00  A 
ATOM     14  CD1 PHE S   8       2.413 -11.614   6.786  1.00 19.44 LIG 0.01  A 
ENDBRANCH 8 9
ENDBRANCH 5 8
ENDBRANCH 3 5
BRANCH 1 15
ATOM     15  CA  ALA S   7       6.345  -9.390   6.840  1.00 27.73 LIG 0.17  C 
ATOM     16  CB  ALA S   7       7.026 -10.790   6.836  1.00 27.93 LIG 0.04  C 
BRANCH 15 17
ATOM     17  N   ALA S   7       7.378  -8.351   6.911  1.00 29.72 LIG-0.35  N 
ATOM     18  C   ALA S   6       7.184  -7.052   6.620  1.00 32.34 LIG 0.26  C 
ATOM     19 O    ALA S   6       6.132  -6.456   6.873  1.00 32.82 LIG-0.27  OA
ATOM     20 H    ALA S   7       8.142  -8.656   7.163  1.00 29.72 LIG 0.16  HD
BRANCH 18 21
ATOM     21  CA  ALA S   6       8.409  -6.283   6.058  1.00 33.16 LIG 0.40  C 
ATOM     22  CB  ALA S   6       8.921  -5.261   7.077  1.00 32.96 LIG 0.06  C 
ATOM     23  N   ALA S   6       8.154  -5.579   4.743  1.00 33.36 LIG 0.61  N 
ENDBRANCH 18 21
ENDBRANCH 15 17
ENDBRANCH 1 15
TORSDOF 7
ENDMDL
MODEL 7
USER: ADFR SOLUTION from run 95
USER: SCORE 7.543948 LL:  -0.844 LR:  -6.917 RR:   0.000 FEB:  -4.829
USER: RMSD 4.180188
USER: SEED 94
USER: STATUS no improvement in best in 31 clusters for 5 generations
USER: GENES 9
USER: genes 0 Translation |==|  0.38930 0.59631 0.37535
USER: genes 1 Rotation |==|  0.32784 0.54282 0.58492 0.95969
USER: genes 2 Torsion [C]-N--CA-[C] |==|  0.82011
USER: genes 3 Torsion [N]-CA--C-[O] |==|  0.38122
USER: genes 4 Torsion [N]-CA--CB-[CG] |==|  0.54124
USER: genes 5 Torsion [CA]-CB--CG-[CD2] |==|  0.29800
USER: genes 6 Torsion [N]-C--CA-[N] |==|  0.12178
USER: genes 7 Torsion [C]-CA--N-[C] |==|  0.15933
USER: genes 8 Torsion [N]-C--CA-[N] |==|  0.55570
ROOT
ATOM      1  C   ALA S   7      -0.876 -11.244   5.452  1.00 26.16 LIG 0.24  C 
ATOM      2 O    ALA S   7      -0.375 -11.246   4.328  1.00 23.62 LIG-0.27  OA
ATOM      3  N   PHE S   8      -0.166 -11.160   6.571  1.00 26.19 LIG-0.35  N 
ATOM      4 H    PHE S   8      -0.516 -11.169   7.357  1.00 26.19 LIG 0.16  HD
ENDROOT
BRANCH 3 5
ATOM      5  CA  PHE S   8       1.286 -11.043   6.570  1.00 26.02 LIG 0.17  C 
BRANCH 5 6
ATOM      6  C   PHE S   8       1.923 -12.294   5.996  1.00 27.74 LIG 0.22  C 
ATOM      7 O    PHE S   8       2.879 -12.192   5.202  1.00 30.84 LIG-0.29  OA
ENDBRANCH 5 6
BRANCH 5 8
ATOM      8  CB  PHE S   8       1.820 -10.862   7.981  1.00 24.81 LIG 0.07  C 
BRANCH 8 9
ATOM      9  CG  PHE S   8       3.249 -10.386   8.039  1.00 22.51 LIG-0.06  A 
ATOM     10  CD2 PHE S   8       3.531  -9.095   8.417  1.00 18.27 LIG 0.01  A 
ATOM     11  CE2 PHE S   8       4.872  -8.618   8.448  1.00 17.55 LIG 0.00  A 
ATOM     12  CZ  PHE S   8       5.908  -9.471   8.084  1.00 18.56 LIG 0.00  A 
ATOM     13  CE1 PHE S   8       5.622 -10.764   7.698  1.00 16.51 LIG 0.00  A 
ATOM     14  CD1 PHE S   8       4.296 -11.226   7.672  1.00 19.44 LIG 0.01  A 
ENDBRANCH 8 9
ENDBRANCH 5 8
ENDBRANCH 3 5
BRANCH 1 15
ATOM     15  CA  ALA S   7      -2.392 -11.281   5.599  1.00 27.73 LIG 0.17  C 
ATOM     16  CB  ALA S   7      -3.013 -11.026   4.194  1.00 27.93 LIG 0.04  C 
BRANCH 15 17
ATOM     17  N   ALA S   7      -2.960 -10.325   6.558  1.00 29.72 LIG-0.35  N 
ATOM     18  C   ALA S   6      -2.791  -8.992   6.505  1.00 32.34 LIG 0.26  C 
ATOM     19 O    ALA S   6      -2.732  -8.363   5.444  1.00 32.82 LIG-0.27  OA
ATOM     20 H    ALA S   7      -3.423 -10.706   7.175  1.00 29.72 LIG 0.16  HD
BRANCH 18 21
ATOM     21  CA  ALA S   6      -2.804  -8.244   7.864  1.00 33.16 LIG 0.40  C 
ATOM     22  CB  ALA S   6      -3.817  -8.877   8.823  1.00 32.96 LIG 0.06  C 
ATOM     23  N   ALA S   6      -3.091  -6.761   7.758  1.00 33.36 LIG 0.61  N 
ENDBRANCH 18 21
ENDBRANCH 15 17
ENDBRANCH 1 15
TORSDOF 7
ENDMDL
MODEL 8
USER: ADFR SOLUTION from run 50
USER: SCORE 7.140802 LL:  -0.505 LR:  -6.842 RR:   0.000 FEB:  -4.754
USER: RMSD 5.918501
USER: SEED 49
USER: STATUS no improvement in best in 38 clusters for 5 generations
USER: GENES 9
USER: genes 0 Translation |==|  0.67175 0.55602 0.69200
USER: genes 1 Rotation |==|  0.73671 0.74034 0.76797 0.75376
USER: genes 2 Torsion [C]-N--CA-[C] |==|  0.88512
USER: genes 3 Torsion [N]-CA--C-[O] |==|  0.30068
USER: genes 4 Torsion [N]-CA--CB-[CG] |==|  0.57138
USER: genes 5 Torsion [CA]-CB--CG-[CD2] |==|  0.93978
USER: genes 6 Torsion [N]-C--CA-[N] |==|  0.40296
USER: genes 7 Torsion [C]-CA--N-[C] |==|  0.58435
USER: genes 8 Torsion [N]-C--CA-[N] |==|  0.96926
ROOT
ATOM      1  C   ALA S   7       3.997 -11.879   9.252  1.00 26.16 LIG 0.24  C 
ATOM      2 O    ALA S   7       3.107 -11.147   9.683  1.00 23.62 LIG-0.27  OA
ATOM      3  N   PHE S   8       4.979 -11.455   8.466  1.00 26.19 LIG-0.35  N 
ATOM      4 H    PHE S   8       5.595 -11.969   8.156  1.00 26.19 LIG 0.16  HD
ENDROOT
BRANCH 3 5
ATOM      5  CA  PHE S   8       5.104 -10.064   8.051  1.00 26.02 LIG 0.17  C 
BRANCH 5 6
ATOM      6  C   PHE S   8       3.746  -9.487   7.698  1.00 27.74 LIG 0.22  C 
ATOM      7 O    PHE S   8       3.214  -8.652   8.456  1.00 30.84 LIG-0.29  OA
ENDBRANCH 5 6
BRANCH 5 8
ATOM      8  CB  PHE S   8       5.989  -9.938   6.822  1.00 24.81 LIG 0.07  C 
BRANCH 8 9
ATOM      9  CG  PHE S   8       6.660  -8.596   6.684  1.00 22.51 LIG-0.06  A 
ATOM     10  CD2 PHE S   8       6.139  -7.496   7.323  1.00 18.27 LIG 0.01  A 
ATOM     11  CE2 PHE S   8       6.742  -6.214   7.180  1.00 17.55 LIG 0.00  A 
ATOM     12  CZ  PHE S   8       7.868  -6.075   6.377  1.00 18.56 LIG 0.00  A 
ATOM     13  CE1 PHE S   8       8.385  -7.179   5.731  1.00 16.51 LIG 0.00  A 
ATOM     14  CD1 PHE S   8       7.784  -8.440   5.879  1.00 19.44 LIG 0.01  A 
ENDBRANCH 8 9
ENDBRANCH 5 8
ENDBRANCH 3 5
BRANCH 1 15
ATOM     15  CA  ALA S   7       4.034 -13.344   9.672  1.00 27.73 LIG 0.17  C 
ATOM     16  CB  ALA S   7       3.192 -14.154   8.643  1.00 27.93 LIG 0.04  C 
BRANCH 15 17
ATOM     17  N   ALA S   7       3.545 -13.627  11.027  1.00 29.72 LIG-0.35  N 
ATOM     18  C   ALA S   6       3.982 -14.631  11.807  1.00 32.34 LIG 0.26  C 
ATOM     19 O    ALA S   6       5.158 -15.011  11.820  1.00 32.82 LIG-0.27  OA
ATOM     20 H    ALA S   7       2.936 -13.078  11.283  1.00 29.72 LIG 0.16  HD
BRANCH 18 21
ATOM     21  CA  ALA S   6       2.954 -15.222  12.807  1.00 33.16 LIG 0.40  C 
ATOM     22  CB  ALA S   6       2.586 -16.658  12.423  1.00 32.96 LIG 0.06  C 
ATOM     23  N   ALA S   6       1.683 -14.411  12.948  1.00 33.36 LIG 0.61  N 
ENDBRANCH 18 21
ENDBRANCH 15 17
ENDBRANCH 1 15
TORSDOF 7
ENDMDL
MODEL 9
USER: ADFR SOLUTION from run 171
USER: SCORE 7.287379 LL:  -0.928 LR:  -6.818 RR:   0.000 FEB:  -4.730
USER: RMSD 7.292096
USER: SEED 170
USER: STATUS no improvement in best in 28 clusters for 5 generations
USER: GENES 9
USER: genes 0 Translation |==|  0.61023 0.61556 0.59097
USER: genes 1 Rotation |==|  0.63704 0.18382 0.15402 0.60747
USER: genes 2 Torsion [C]-N--CA-[C] |==|  0.84783
USER: genes 3 Torsion [N]-CA--C-[O] |==|  0.89807
USER: genes 4 Torsion [N]-CA--CB-[CG] |==|  0.71600
USER: genes 5 Torsion [CA]-CB--CG-[CD2] |==|  0.57373
USER: genes 6 Torsion [N]-C--CA-[N] |==|  0.85012
USER: genes 7 Torsion [C]-CA--N-[C] |==|  0.71667
USER: genes 8 Torsion [N]-C--CA-[N] |==|  0.67230
ROOT
ATOM      1  C   ALA S   7       2.935 -10.941   8.040  1.00 26.16 LIG 0.24  C 
ATOM      2 O    ALA S   7       2.862 -12.114   8.404  1.00 23.62 LIG-0.27  OA
ATOM      3  N   PHE S   8       2.097 -10.387   7.172  1.00 26.19 LIG-0.35  N 
ATOM      4 H    PHE S   8       2.155  -9.570   6.910  1.00 26.19 LIG 0.16  HD
ENDROOT
BRANCH 3 5
ATOM      5  CA  PHE S   8       0.988 -11.123   6.578  1.00 26.02 LIG 0.17  C 
BRANCH 5 6
ATOM      6  C   PHE S   8       1.484 -12.390   5.907  1.00 27.74 LIG 0.22  C 
ATOM      7 O    PHE S   8       2.581 -12.386   5.314  1.00 30.84 LIG-0.29  OA
ENDBRANCH 5 6
BRANCH 5 8
ATOM      8  CB  PHE S   8       0.284 -10.289   5.520  1.00 24.81 LIG 0.07  C 
BRANCH 8 9
ATOM      9  CG  PHE S   8      -1.015  -9.681   5.983  1.00 22.51 LIG-0.06  A 
ATOM     10  CD2 PHE S   8      -2.001  -9.387   5.072  1.00 18.27 LIG 0.01  A 
ATOM     11  CE2 PHE S   8      -3.223  -8.785   5.487  1.00 17.55 LIG 0.00  A 
ATOM     12  CZ  PHE S   8      -3.414  -8.483   6.831  1.00 18.56 LIG 0.00  A 
ATOM     13  CE1 PHE S   8      -2.419  -8.773   7.742  1.00 16.51 LIG 0.00  A 
ATOM     14  CD1 PHE S   8      -1.218  -9.369   7.324  1.00 19.44 LIG 0.01  A 
ENDBRANCH 8 9
ENDBRANCH 5 8
ENDBRANCH 3 5
BRANCH 1 15
ATOM     15  CA  ALA S   7       4.001 -10.033   8.642  1.00 27.73 LIG 0.17  C 
ATOM     16  CB  ALA S   7       3.284  -9.011   9.573  1.00 27.93 LIG 0.04  C 
BRANCH 15 17
ATOM     17  N   ALA S   7       4.833  -9.305   7.676  1.00 29.72 LIG-0.35  N 
ATOM     18  C   ALA S   6       6.088  -9.645   7.333  1.00 32.34 LIG 0.26  C 
ATOM     19 O    ALA S   6       6.466 -10.817   7.240  1.00 32.82 LIG-0.27  OA
ATOM     20 H    ALA S   7       4.434  -8.621   7.341  1.00 29.72 LIG 0.16  HD
BRANCH 18 21
ATOM     21  CA  ALA S   6       7.028  -8.481   6.922  1.00 33.16 LIG 0.40  C 
ATOM     22  CB  ALA S   6       6.339  -7.129   7.129  1.00 32.96 LIG 0.06  C 
ATOM     23  N   ALA S   6       7.534  -8.559   5.498  1.00 33.36 LIG 0.61  N 
ENDBRANCH 18 21
ENDBRANCH 15 17
ENDBRANCH 1 15
TORSDOF 7
ENDMDL
MODEL 10
USER: ADFR SOLUTION from run 33
USER: SCORE 7.398334 LL:  -1.024 LR:  -6.815 RR:   0.000 FEB:  -4.727
USER: RMSD 3.682996
USER: SEED 32
USER: STATUS no improvement in best in 28 clusters for 5 generations
USER: GENES 9
USER: genes 0 Translation |==|  0.53877 0.64290 0.54744
USER: genes 1 Rotation |==|  0.82136 0.34067 0.71875 0.77108
USER: genes 2 Torsion [C]-N--CA-[C] |==|  0.17867
USER: genes 3 Torsion [N]-CA--C-[O] |==|  0.22949
USER: genes 4 Torsion [N]-CA--CB-[CG] |==|  0.75891
USER: genes 5 Torsion [CA]-CB--CG-[CD2] |==|  0.93279
USER: genes 6 Torsion [N]-C--CA-[N] |==|  0.11825
USER: genes 7 Torsion [C]-CA--N-[C] |==|  0.77163
USER: genes 8 Torsion [N]-C--CA-[N] |==|  0.29000
ROOT
ATOM      1  C   ALA S   7       1.703 -10.510   7.517  1.00 26.16 LIG 0.24  C 
ATOM      2 O    ALA S   7       1.409  -9.761   8.448  1.00 23.62 LIG-0.27  OA
ATOM      3  N   PHE S   8       2.835 -11.202   7.460  1.00 26.19 LIG-0.35  N 
ATOM      4 H    PHE S   8       3.044 -11.718   6.805  1.00 26.19 LIG 0.16  HD
ENDROOT
BRANCH 3 5
ATOM      5  CA  PHE S   8       3.837 -11.149   8.516  1.00 26.02 LIG 0.17  C 
BRANCH 5 6
ATOM      6  C   PHE S   8       3.284 -11.717   9.809  1.00 27.74 LIG 0.22  C 
ATOM      7 O    PHE S   8       3.284 -12.950   9.992  1.00 30.84 LIG-0.29  OA
ENDBRANCH 5 6
BRANCH 5 8
ATOM      8  CB  PHE S   8       4.267  -9.717   8.790  1.00 24.81 LIG 0.07  C 
BRANCH 8 9
ATOM      9  CG  PHE S   8       5.387  -9.233   7.907  1.00 22.51 LIG-0.06  A 
ATOM     10  CD2 PHE S   8       6.249 -10.134   7.330  1.00 18.27 LIG 0.01  A 
ATOM     11  CE2 PHE S   8       7.332  -9.693   6.518  1.00 17.55 LIG 0.00  A 
ATOM     12  CZ  PHE S   8       7.522  -8.331   6.313  1.00 18.56 LIG 0.00  A 
ATOM     13  CE1 PHE S   8       6.659  -7.428   6.899  1.00 16.51 LIG 0.00  A 
ATOM     14  CD1 PHE S   8       5.593  -7.872   7.698  1.00 19.44 LIG 0.01  A 
ENDBRANCH 8 9
ENDBRANCH 5 8
ENDBRANCH 3 5
BRANCH 1 15
ATOM     15  CA  ALA S   7       0.709 -10.722   6.381  1.00 27.73 LIG 0.17  C 
ATOM     16  CB  ALA S   7      -0.661 -10.136   6.833  1.00 27.93 LIG 0.04  C 
BRANCH 15 17
ATOM     17  N   ALA S   7       0.522 -12.114   5.954  1.00 29.72 LIG-0.35  N 
ATOM     18  C   ALA S   6       1.330 -12.772   5.105  1.00 32.34 LIG 0.26  C 
ATOM     19 O    ALA S   6       2.554 -12.604   5.073  1.00 32.82 LIG-0.27  OA
ATOM     20 H    ALA S   7      -0.172 -12.480   6.305  1.00 29.72 LIG 0.16  HD
BRANCH 18 21
ATOM     21  CA  ALA S   6       0.665 -13.871   4.235  1.00 33.16 LIG 0.40  C 
ATOM     22  CB  ALA S   6       1.484 -15.164   4.274  1.00 32.96 LIG 0.06  C 
ATOM     23  N   ALA S   6       0.442 -13.475   2.791  1.00 33.36 LIG 0.61  N 
ENDBRANCH 18 21
ENDBRANCH 15 17
ENDBRANCH 1 15
TORSDOF 7
ENDMDL
MODEL 11
USER: ADFR SOLUTION from run 116
USER: SCORE 6.495090 LL:  -0.939 LR:  -6.710 RR:   0.000 FEB:  -4.622
USER: RMSD 4.586048
USER: SEED 115
USER: STATUS no improvement in best in 36 clusters for 5 generations
USER: GENES 9
USER: genes 0 Translation |==|  0.67837 0.53845 0.62259
USER: genes 1 Rotation |==|  0.84755 0.69258 0.80258 0.52384
USER: genes 2 Torsion [C]-N--CA-[C] |==|  0.88253
USER: genes 3 Torsion [N]-CA--C-[O] |==|  0.81700
USER: genes 4 Torsion [N]-CA--CB-[CG] |==|  0.81241
USER: genes 5 Torsion [CA]-CB--CG-[CD2] |==|  0.60785
USER: genes 6 Torsion [N]-C--CA-[N] |==|  0.72222
USER: genes 7 Torsion [C]-CA--N-[C] |==|  0.14412
USER: genes 8 Torsion [N]-C--CA-[N] |==|  0.04957
ROOT
ATOM      1  C   ALA S   7       4.111 -12.155   8.419  1.00 26.16 LIG 0.24  C 
ATOM      2 O    ALA S   7       3.602 -12.370   9.518  1.00 23.62 LIG-0.27  OA
ATOM      3  N   PHE S   8       4.489 -10.951   8.007  1.00 26.19 LIG-0.35  N 
ATOM      4 H    PHE S   8       4.836 -10.800   7.235  1.00 26.19 LIG 0.16  HD
ENDROOT
BRANCH 3 5
ATOM      5  CA  PHE S   8       4.350  -9.762   8.837  1.00 26.02 LIG 0.17  C 
BRANCH 5 6
ATOM      6  C   PHE S   8       3.009  -9.758   9.546  1.00 27.74 LIG 0.22  C 
ATOM      7 O    PHE S   8       1.959  -9.658   8.882  1.00 30.84 LIG-0.29  OA
ENDBRANCH 5 6
BRANCH 5 8
ATOM      8  CB  PHE S   8       4.428  -8.498   7.997  1.00 24.81 LIG 0.07  C 
BRANCH 8 9
ATOM      9  CG  PHE S   8       5.784  -8.247   7.391  1.00 22.51 LIG-0.06  A 
ATOM     10  CD2 PHE S   8       6.284  -6.969   7.323  1.00 18.27 LIG 0.01  A 
ATOM     11  CE2 PHE S   8       7.550  -6.709   6.726  1.00 17.55 LIG 0.00  A 
ATOM     12  CZ  PHE S   8       8.286  -7.764   6.198  1.00 18.56 LIG 0.00  A 
ATOM     13  CE1 PHE S   8       7.779  -9.046   6.261  1.00 16.51 LIG 0.00  A 
ATOM     14  CD1 PHE S   8       6.529  -9.293   6.853  1.00 19.44 LIG 0.01  A 
ENDBRANCH 8 9
ENDBRANCH 5 8
ENDBRANCH 3 5
BRANCH 1 15
ATOM     15  CA  ALA S   7       4.389 -13.323   7.479  1.00 27.73 LIG 0.17  C 
ATOM     16  CB  ALA S   7       5.544 -12.901   6.525  1.00 27.93 LIG 0.04  C 
BRANCH 15 17
ATOM     17  N   ALA S   7       3.245 -13.779   6.680  1.00 29.72 LIG-0.35  N 
ATOM     18  C   ALA S   6       2.472 -12.982   5.921  1.00 32.34 LIG 0.26  C 
ATOM     19 O    ALA S   6       2.913 -12.011   5.297  1.00 32.82 LIG-0.27  OA
ATOM     20 H    ALA S   7       3.110 -14.626   6.743  1.00 29.72 LIG 0.16  HD
BRANCH 18 21
ATOM     21  CA  ALA S   6       0.992 -13.419   5.752  1.00 33.16 LIG 0.40  C 
ATOM     22  CB  ALA S   6       0.062 -12.203   5.774  1.00 32.96 LIG 0.06  C 
ATOM     23  N   ALA S   6       0.515 -14.421   6.782  1.00 33.36 LIG 0.61  N 
ENDBRANCH 18 21
ENDBRANCH 15 17
ENDBRANCH 1 15
TORSDOF 7
ENDMDL
MODEL 12
USER: ADFR SOLUTION from run 6
USER: SCORE 7.293527 LL:  -1.072 LR:  -6.662 RR:   0.000 FEB:  -4.574
USER: RMSD 3.503653
USER: SEED 734702
USER: STATUS no improvement in best in 42 clusters for 5 generations
USER: GENES 9
USER: genes 0 Translation |==|  0.49025 0.59211 0.45759
USER: genes 1 Rotation |==|  0.62500 0.43026 0.50852 0.97900
USER: genes 2 Torsion [C]-N--CA-[C] |==|  0.55396
USER: genes 3 Torsion [N]-CA--C-[O] |==|  0.89817
USER: genes 4 Torsion [N]-CA--CB-[CG] |==|  0.76520
USER: genes 5 Torsion [CA]-CB--CG-[CD2] |==|  0.82384
USER: genes 6 Torsion [N]-C--CA-[N] |==|  0.32324
USER: genes 7 Torsion [C]-CA--N-[C] |==|  0.56667
USER: genes 8 Torsion [N]-C--CA-[N] |==|  0.15132
ROOT
ATOM      1  C   ALA S   7       0.866 -11.310   6.439  1.00 26.16 LIG 0.24  C 
ATOM      2 O    ALA S   7       1.770 -10.511   6.198  1.00 23.62 LIG-0.27  OA
ATOM      3  N   PHE S   8       1.075 -12.540   6.895  1.00 26.19 LIG-0.35  N 
ATOM      4 H    PHE S   8       0.443 -13.101   7.054  1.00 26.19 LIG 0.16  HD
ENDROOT
BRANCH 3 5
ATOM      5  CA  PHE S   8       2.409 -13.055   7.172  1.00 26.02 LIG 0.17  C 
BRANCH 5 6
ATOM      6  C   PHE S   8       2.400 -14.571   7.213  1.00 27.74 LIG 0.22  C 
ATOM      7 O    PHE S   8       1.420 -15.170   7.697  1.00 30.84 LIG-0.29  OA
ENDBRANCH 5 6
BRANCH 5 8
ATOM      8  CB  PHE S   8       2.917 -12.562   8.516  1.00 24.81 LIG 0.07  C 
BRANCH 8 9
ATOM      9  CG  PHE S   8       3.560 -11.200   8.467  1.00 22.51 LIG-0.06  A 
ATOM     10  CD2 PHE S   8       4.704 -11.003   7.731  1.00 18.27 LIG 0.01  A 
ATOM     11  CE2 PHE S   8       5.342  -9.731   7.698  1.00 17.55 LIG 0.00  A 
ATOM     12  CZ  PHE S   8       4.803  -8.677   8.427  1.00 18.56 LIG 0.00  A 
ATOM     13  CE1 PHE S   8       3.659  -8.879   9.171  1.00 16.51 LIG 0.00  A 
ATOM     14  CD1 PHE S   8       3.035 -10.137   9.197  1.00 19.44 LIG 0.01  A 
ENDBRANCH 8 9
ENDBRANCH 5 8
ENDBRANCH 3 5
BRANCH 1 15
ATOM     15  CA  ALA S   7      -0.586 -10.876   6.270  1.00 27.73 LIG 0.17  C 
ATOM     16  CB  ALA S   7      -0.796 -10.494   4.775  1.00 27.93 LIG 0.04  C 
BRANCH 15 17
ATOM     17  N   ALA S   7      -1.016  -9.758   7.119  1.00 29.72 LIG-0.35  N 
ATOM     18  C   ALA S   6      -2.288  -9.513   7.479  1.00 32.34 LIG 0.26  C 
ATOM     19 O    ALA S   6      -3.106 -10.408   7.714  1.00 32.82 LIG-0.27  OA
ATOM     20 H    ALA S   7      -0.362  -9.261   7.372  1.00 29.72 LIG 0.16  HD
BRANCH 18 21
ATOM     21  CA  ALA S   6      -2.658  -8.025   7.720  1.00 33.16 LIG 0.40  C 
ATOM     22  CB  ALA S   6      -4.142  -7.886   8.073  1.00 32.96 LIG 0.06  C 
ATOM     23  N   ALA S   6      -2.343  -7.107   6.558  1.00 33.36 LIG 0.61  N 
ENDBRANCH 18 21
ENDBRANCH 15 17
ENDBRANCH 1 15
TORSDOF 7
ENDMDL
MODEL 13
USER: ADFR SOLUTION from run 39
USER: SCORE 7.842735 LL:  -1.490 LR:  -6.635 RR:   0.000 FEB:  -4.547
USER: RMSD 6.009447
USER: SEED 38
USER: STATUS no improvement in best in 24 clusters for 5 generations
USER: GENES 9
USER: genes 0 Translation |==|  0.65246 0.44129 0.68458
USER: genes 1 Rotation |==|  0.78277 0.86151 0.69609 0.53005
USER: genes 2 Torsion [C]-N--CA-[C] |==|  0.49609
USER: genes 3 Torsion [N]-CA--C-[O] |==|  0.01256
USER: genes 4 Torsion [N]-CA--CB-[CG] |==|  0.21444
USER: genes 5 Torsion [CA]-CB--CG-[CD2] |==|  0.34251
USER: genes 6 Torsion [N]-C--CA-[N] |==|  0.18335
USER: genes 7 Torsion [C]-CA--N-[C] |==|  0.78101
USER: genes 8 Torsion [N]-C--CA-[N] |==|  0.64243
ROOT
ATOM      1  C   ALA S   7       3.664 -13.686   9.163  1.00 26.16 LIG 0.24  C 
ATOM      2 O    ALA S   7       3.334 -13.402  10.314  1.00 23.62 LIG-0.27  OA
ATOM      3  N   PHE S   8       3.344 -12.950   8.105  1.00 26.19 LIG-0.35  N 
ATOM      4 H    PHE S   8       3.566 -13.154   7.300  1.00 26.19 LIG 0.16  HD
ENDROOT
BRANCH 3 5
ATOM      5  CA  PHE S   8       2.578 -11.716   8.214  1.00 26.02 LIG 0.17  C 
BRANCH 5 6
ATOM      6  C   PHE S   8       2.394 -11.077   6.850  1.00 27.74 LIG 0.22  C 
ATOM      7 O    PHE S   8       2.804 -11.667   5.832  1.00 30.84 LIG-0.29  OA
ENDBRANCH 5 6
BRANCH 5 8
ATOM      8  CB  PHE S   8       3.289 -10.708   9.101  1.00 24.81 LIG 0.07  C 
BRANCH 8 9
ATOM      9  CG  PHE S   8       4.443 -10.008   8.431  1.00 22.51 LIG-0.06  A 
ATOM     10  CD2 PHE S   8       4.468  -8.636   8.354  1.00 18.27 LIG 0.01  A 
ATOM     11  CE2 PHE S   8       5.534  -7.959   7.698  1.00 17.55 LIG 0.00  A 
ATOM     12  CZ  PHE S   8       6.560  -8.699   7.120  1.00 18.56 LIG 0.00  A 
ATOM     13  CE1 PHE S   8       6.530 -10.076   7.192  1.00 16.51 LIG 0.00  A 
ATOM     14  CD1 PHE S   8       5.474 -10.736   7.843  1.00 19.44 LIG 0.01  A 
ENDBRANCH 8 9
ENDBRANCH 5 8
ENDBRANCH 3 5
BRANCH 1 15
ATOM     15  CA  ALA S   7       4.536 -14.910   8.911  1.00 27.73 LIG 0.17  C 
ATOM     16  CB  ALA S   7       4.602 -15.727  10.235  1.00 27.93 LIG 0.04  C 
BRANCH 15 17
ATOM     17  N   ALA S   7       5.901 -14.632   8.448  1.00 29.72 LIG-0.35  N 
ATOM     18  C   ALA S   6       6.233 -14.309   7.185  1.00 32.34 LIG 0.26  C 
ATOM     19 O    ALA S   6       5.515 -13.617   6.456  1.00 32.82 LIG-0.27  OA
ATOM     20 H    ALA S   7       6.486 -14.695   9.075  1.00 29.72 LIG 0.16  HD
BRANCH 18 21
ATOM     21  CA  ALA S   6       7.646 -14.743   6.714  1.00 33.16 LIG 0.40  C 
ATOM     22  CB  ALA S   6       8.438 -15.359   7.871  1.00 32.96 LIG 0.06  C 
ATOM     23  N   ALA S   6       8.467 -13.631   6.096  1.00 33.36 LIG 0.61  N 
ENDBRANCH 18 21
ENDBRANCH 15 17
ENDBRANCH 1 15
TORSDOF 7
ENDMDL
MODEL 14
USER: ADFR SOLUTION from run 104
USER: SCORE 6.893971 LL:  -0.976 LR:  -6.558 RR:   0.000 FEB:  -4.470
USER: RMSD 7.523273
USER: SEED 103
USER: STATUS no improvement in best in 41 clusters for 5 generations
USER: GENES 9
USER: genes 0 Translation |==|  0.88039 0.65252 0.41559
USER: genes 1 Rotation |==|  0.41923 0.45404 0.97163 0.63758
USER: genes 2 Torsion [C]-N--CA-[C] |==|  0.70636
USER: genes 3 Torsion [N]-CA--C-[O] |==|  0.61553
USER: genes 4 Torsion [N]-CA--CB-[CG] |==|  0.81807
USER: genes 5 Torsion [CA]-CB--CG-[CD2] |==|  0.11757
USER: genes 6 Torsion [N]-C--CA-[N] |==|  0.27781
USER: genes 7 Torsion [C]-CA--N-[C] |==|  0.52275
USER: genes 8 Torsion [N]-C--CA-[N] |==|  0.42417
ROOT
ATOM      1  C   ALA S   7       7.596 -10.359   5.935  1.00 26.16 LIG 0.24  C 
ATOM      2 O    ALA S   7       7.032 -10.275   4.845  1.00 23.62 LIG-0.27  OA
ATOM      3  N   PHE S   8       7.403  -9.501   6.930  1.00 26.19 LIG-0.35  N 
ATOM      4 H    PHE S   8       7.804  -9.554   7.688  1.00 26.19 LIG 0.16  HD
ENDROOT
BRANCH 3 5
ATOM      5  CA  PHE S   8       6.481  -8.377   6.825  1.00 26.02 LIG 0.17  C 
BRANCH 5 6
ATOM      6  C   PHE S   8       7.241  -7.074   6.665  1.00 27.74 LIG 0.22  C 
ATOM      7 O    PHE S   8       6.865  -6.060   7.284  1.00 30.84 LIG-0.29  OA
ENDBRANCH 5 6
BRANCH 5 8
ATOM      8  CB  PHE S   8       5.622  -8.257   8.073  1.00 24.81 LIG 0.07  C 
BRANCH 8 9
ATOM      9  CG  PHE S   8       4.681  -9.415   8.283  1.00 22.51 LIG-0.06  A 
ATOM     10  CD2 PHE S   8       5.112 -10.702   8.068  1.00 18.27 LIG 0.01  A 
ATOM     11  CE2 PHE S   8       4.228 -11.806   8.232  1.00 17.55 LIG 0.00  A 
ATOM     12  CZ  PHE S   8       2.909 -11.575   8.608  1.00 18.56 LIG 0.00  A 
ATOM     13  CE1 PHE S   8       2.477 -10.281   8.816  1.00 16.51 LIG 0.00  A 
ATOM     14  CD1 PHE S   8       3.357  -9.198   8.653  1.00 19.44 LIG 0.01  A 
ENDBRANCH 8 9
ENDBRANCH 5 8
ENDBRANCH 3 5
BRANCH 1 15
ATOM     15  CA  ALA S   7       8.528 -11.533   6.210  1.00 27.73 LIG 0.17  C 
ATOM     16  CB  ALA S   7       9.437 -11.722   4.960  1.00 27.93 LIG 0.04  C 
BRANCH 15 17
ATOM     17  N   ALA S   7       7.868 -12.806   6.524  1.00 29.72 LIG-0.35  N 
ATOM     18  C   ALA S   6       8.500 -13.915   6.948  1.00 32.34 LIG 0.26  C 
ATOM     19 O    ALA S   6       9.482 -13.886   7.698  1.00 32.82 LIG-0.27  OA
ATOM     20 H    ALA S   7       7.017 -12.778   6.409  1.00 29.72 LIG 0.16  HD
BRANCH 18 21
ATOM     21  CA  ALA S   6       7.853 -15.268   6.553  1.00 33.16 LIG 0.40  C 
ATOM     22  CB  ALA S   6       6.743 -15.647   7.538  1.00 32.96 LIG 0.06  C 
ATOM     23  N   ALA S   6       8.829 -16.421   6.447  1.00 33.36 LIG 0.61  N 
ENDBRANCH 18 21
ENDBRANCH 15 17
ENDBRANCH 1 15
TORSDOF 7
ENDMDL
MODEL 15
USER: ADFR SOLUTION from run 183
USER: SCORE 7.531486 LL:  -1.051 LR:  -6.548 RR:   0.000 FEB:  -4.460
USER: RMSD 5.730345
USER: SEED 182
USER: STATUS no improvement in best in 22 clusters for 5 generations
USER: GENES 9
USER: genes 0 Translation |==|  0.69552 0.54150 0.60289
USER: genes 1 Rotation |==|  0.14454 0.29758 0.21257 0.50744
USER: genes 2 Torsion [C]-N--CA-[C] |==|  0.86579
USER: genes 3 Torsion [N]-CA--C-[O] |==|  0.78339
USER: genes 4 Torsion [N]-CA--CB-[CG] |==|  0.80567
USER: genes 5 Torsion [CA]-CB--CG-[CD2] |==|  0.60578
USER: genes 6 Torsion [N]-C--CA-[N] |==|  0.97868
USER: genes 7 Torsion [C]-CA--N-[C] |==|  0.75618
USER: genes 8 Torsion [N]-C--CA-[N] |==|  0.44644
ROOT
ATOM      1  C   ALA S   7       4.407 -12.107   8.183  1.00 26.16 LIG 0.24  C 
ATOM      2 O    ALA S   7       4.045 -12.407   9.320  1.00 23.62 LIG-0.27  OA
ATOM      3  N   PHE S   8       4.632 -10.860   7.788  1.00 26.19 LIG-0.35  N 
ATOM      4 H    PHE S   8       4.875 -10.650   6.990  1.00 26.19 LIG 0.16  HD
ENDROOT
BRANCH 3 5
ATOM      5  CA  PHE S   8       4.486  -9.719   8.682  1.00 26.02 LIG 0.17  C 
BRANCH 5 6
ATOM      6  C   PHE S   8       3.166  -9.787   9.426  1.00 27.74 LIG 0.22  C 
ATOM      7 O    PHE S   8       2.112  -9.458   8.846  1.00 30.84 LIG-0.29  OA
ENDBRANCH 5 6
BRANCH 5 8
ATOM      8  CB  PHE S   8       4.509  -8.412   7.907  1.00 24.81 LIG 0.07  C 
BRANCH 8 9
ATOM      9  CG  PHE S   8       5.856  -8.066   7.327  1.00 22.51 LIG-0.06  A 
ATOM     10  CD2 PHE S   8       6.287  -6.761   7.315  1.00 18.27 LIG 0.01  A 
ATOM     11  CE2 PHE S   8       7.543  -6.410   6.744  1.00 17.55 LIG 0.00  A 
ATOM     12  CZ  PHE S   8       8.340  -7.404   6.185  1.00 18.56 LIG 0.00  A 
ATOM     13  CE1 PHE S   8       7.902  -8.712   6.192  1.00 16.51 LIG 0.00  A 
ATOM     14  CD1 PHE S   8       6.661  -9.048   6.759  1.00 19.44 LIG 0.01  A 
ENDBRANCH 8 9
ENDBRANCH 5 8
ENDBRANCH 3 5
BRANCH 1 15
ATOM     15  CA  ALA S   7       4.675 -13.210   7.165  1.00 27.73 LIG 0.17  C 
ATOM     16  CB  ALA S   7       5.857 -14.072   7.699  1.00 27.93 LIG 0.04  C 
BRANCH 15 17
ATOM     17  N   ALA S   7       4.986 -12.755   5.804  1.00 29.72 LIG-0.35  N 
ATOM     18  C   ALA S   6       4.072 -12.503   4.851  1.00 32.34 LIG 0.26  C 
ATOM     19 O    ALA S   6       2.965 -12.011   5.092  1.00 32.82 LIG-0.27  OA
ATOM     20 H    ALA S   7       5.830 -12.662   5.668  1.00 29.72 LIG 0.16  HD
BRANCH 18 21
ATOM     21  CA  ALA S   6       4.525 -12.740   3.386  1.00 33.16 LIG 0.40  C 
ATOM     22  CB  ALA S   6       5.442 -11.609   2.911  1.00 32.96 LIG 0.06  C 
ATOM     23  N   ALA S   6       3.387 -12.896   2.399  1.00 33.36 LIG 0.61  N 
ENDBRANCH 18 21
ENDBRANCH 15 17
ENDBRANCH 1 15
TORSDOF 7
ENDMDL
MODEL 16
USER: ADFR SOLUTION from run 175
USER: SCORE 6.725479 LL:  -0.991 LR:  -6.533 RR:   0.000 FEB:  -4.445
USER: RMSD 3.649643
USER: SEED 174
USER: STATUS no improvement in best in 39 clusters for 5 generations
USER: GENES 9
USER: genes 0 Translation |==|  0.56595 0.53648 0.43782
USER: genes 1 Rotation |==|  0.35465 0.42543 0.54620 0.97030
USER: genes 2 Torsion [C]-N--CA-[C] |==|  0.61742
USER: genes 3 Torsion [N]-CA--C-[O] |==|  0.75109
USER: genes 4 Torsion [N]-CA--CB-[CG] |==|  0.70296
USER: genes 5 Torsion [CA]-CB--CG-[CD2] |==|  0.91617
USER: genes 6 Torsion [N]-C--CA-[N] |==|  0.54267
USER: genes 7 Torsion [C]-CA--N-[C] |==|  0.16751
USER: genes 8 Torsion [N]-C--CA-[N] |==|  0.93393
ROOT
ATOM      1  C   ALA S   7       2.172 -12.186   6.202  1.00 26.16 LIG 0.24  C 
ATOM      2 O    ALA S   7       3.128 -12.012   5.448  1.00 23.62 LIG-0.27  OA
ATOM      3  N   PHE S   8       2.289 -12.327   7.517  1.00 26.19 LIG-0.35  N 
ATOM      4 H    PHE S   8       1.621 -12.459   8.042  1.00 26.19 LIG 0.16  HD
ENDROOT
BRANCH 3 5
ATOM      5  CA  PHE S   8       3.576 -12.269   8.197  1.00 26.02 LIG 0.17  C 
BRANCH 5 6
ATOM      6  C   PHE S   8       3.670 -13.349   9.258  1.00 27.74 LIG 0.22  C 
ATOM      7 O    PHE S   8       3.284 -13.110  10.419  1.00 30.84 LIG-0.29  OA
ENDBRANCH 5 6
BRANCH 5 8
ATOM      8  CB  PHE S   8       3.769 -10.929   8.888  1.00 24.81 LIG 0.07  C 
BRANCH 8 9
ATOM      9  CG  PHE S   8       4.762 -10.025   8.206  1.00 22.51 LIG-0.06  A 
ATOM     10  CD2 PHE S   8       5.816 -10.562   7.505  1.00 18.27 LIG 0.01  A 
ATOM     11  CE2 PHE S   8       6.781  -9.723   6.880  1.00 17.55 LIG 0.00  A 
ATOM     12  CZ  PHE S   8       6.659  -8.342   6.988  1.00 18.56 LIG 0.00  A 
ATOM     13  CE1 PHE S   8       5.604  -7.806   7.698  1.00 16.51 LIG 0.00  A 
ATOM     14  CD1 PHE S   8       4.655  -8.641   8.310  1.00 19.44 LIG 0.01  A 
ENDBRANCH 8 9
ENDBRANCH 5 8
ENDBRANCH 3 5
BRANCH 1 15
ATOM     15  CA  ALA S   7       0.757 -12.189   5.633  1.00 27.73 LIG 0.17  C 
ATOM     16  CB  ALA S   7      -0.044 -13.310   6.357  1.00 27.93 LIG 0.04  C 
BRANCH 15 17
ATOM     17  N   ALA S   7       0.658 -12.386   4.181  1.00 29.72 LIG-0.35  N 
ATOM     18  C   ALA S   6       1.100 -13.471   3.521  1.00 32.34 LIG 0.26  C 
ATOM     19 O    ALA S   6       1.044 -14.613   3.989  1.00 32.82 LIG-0.27  OA
ATOM     20 H    ALA S   7       0.282 -11.725   3.780  1.00 29.72 LIG 0.16  HD
BRANCH 18 21
ATOM     21  CA  ALA S   6       1.574 -13.241   2.062  1.00 33.16 LIG 0.40  C 
ATOM     22  CB  ALA S   6       3.102 -13.145   1.997  1.00 32.96 LIG 0.06  C 
ATOM     23  N   ALA S   6       0.978 -12.019   1.396  1.00 33.36 LIG 0.61  N 
ENDBRANCH 18 21
ENDBRANCH 15 17
ENDBRANCH 1 15
TORSDOF 7
ENDMDL
MODEL 17
USER: ADFR SOLUTION from run 8
USER: SCORE 7.083672 LL:  -1.023 LR:  -6.487 RR:   0.000 FEB:  -4.398
USER: RMSD 5.866096
USER: SEED 255382
USER: STATUS no improvement in best in 34 clusters for 5 generations
USER: GENES 9
USER: genes 0 Translation |==|  0.65240 0.43796 0.74366
USER: genes 1 Rotation |==|  0.78402 0.84088 0.60708 0.70413
USER: genes 2 Torsion [C]-N--CA-[C] |==|  0.64702
USER: genes 3 Torsion [N]-CA--C-[O] |==|  0.59127
USER: genes 4 Torsion [N]-CA--CB-[CG] |==|  0.64087
USER: genes 5 Torsion [CA]-CB--CG-[CD2] |==|  0.50868
USER: genes 6 Torsion [N]-C--CA-[N] |==|  0.11992
USER: genes 7 Torsion [C]-CA--N-[C] |==|  0.74376
USER: genes 8 Torsion [N]-C--CA-[N] |==|  0.52546
ROOT
ATOM      1  C   ALA S   7       3.663 -13.738   9.872  1.00 26.16 LIG 0.24  C 
ATOM      2 O    ALA S   7       3.284 -12.735  10.474  1.00 23.62 LIG-0.27  OA
ATOM      3  N   PHE S   8       3.865 -13.775   8.560  1.00 26.19 LIG-0.35  N 
ATOM      4 H    PHE S   8       4.120 -14.479   8.138  1.00 26.19 LIG 0.16  HD
ENDROOT
BRANCH 3 5
ATOM      5  CA  PHE S   8       3.670 -12.611   7.706  1.00 26.02 LIG 0.17  C 
BRANCH 5 6
ATOM      6  C   PHE S   8       2.744 -12.942   6.551  1.00 27.74 LIG 0.22  C 
ATOM      7 O    PHE S   8       2.909 -12.386   5.448  1.00 30.84 LIG-0.29  OA
ENDBRANCH 5 6
BRANCH 5 8
ATOM      8  CB  PHE S   8       4.989 -12.139   7.116  1.00 24.81 LIG 0.07  C 
BRANCH 8 9
ATOM      9  CG  PHE S   8       5.252 -10.667   7.300  1.00 22.51 LIG-0.06  A 
ATOM     10  CD2 PHE S   8       6.378 -10.095   6.759  1.00 18.27 LIG 0.01  A 
ATOM     11  CE2 PHE S   8       6.659  -8.712   6.948  1.00 17.55 LIG 0.00  A 
ATOM     12  CZ  PHE S   8       5.784  -7.934   7.698  1.00 18.56 LIG 0.00  A 
ATOM     13  CE1 PHE S   8       4.658  -8.512   8.247  1.00 16.51 LIG 0.00  A 
ATOM     14  CD1 PHE S   8       4.388  -9.877   8.053  1.00 19.44 LIG 0.01  A 
ENDBRANCH 8 9
ENDBRANCH 5 8
ENDBRANCH 3 5
BRANCH 1 15
ATOM     15  CA  ALA S   7       3.982 -15.008  10.653  1.00 27.73 LIG 0.17  C 
ATOM     16  CB  ALA S   7       4.030 -14.636  12.165  1.00 27.93 LIG 0.04  C 
BRANCH 15 17
ATOM     17  N   ALA S   7       5.231 -15.683  10.282  1.00 29.72 LIG-0.35  N 
ATOM     18  C   ALA S   6       5.332 -16.665   9.369  1.00 32.34 LIG 0.26  C 
ATOM     19 O    ALA S   6       4.647 -16.702   8.341  1.00 32.82 LIG-0.27  OA
ATOM     20 H    ALA S   7       5.913 -15.386  10.714  1.00 29.72 LIG 0.16  HD
BRANCH 18 21
ATOM     21  CA  ALA S   6       6.459 -17.705   9.600  1.00 33.16 LIG 0.40  C 
ATOM     22  CB  ALA S   6       7.784 -17.007   9.922  1.00 32.96 LIG 0.06  C 
ATOM     23  N   ALA S   6       6.676 -18.659   8.444  1.00 33.36 LIG 0.61  N 
ENDBRANCH 18 21
ENDBRANCH 15 17
ENDBRANCH 1 15
TORSDOF 7
ENDMDL
MODEL 18
USER: ADFR SOLUTION from run 5
USER: SCORE 7.026480 LL:  -0.793 LR:  -6.478 RR:   0.000 FEB:  -4.390
USER: RMSD 5.392480
USER: SEED 560821
USER: STATUS no improvement in best in 37 clusters for 5 generations
USER: GENES 9
USER: genes 0 Translation |==|  0.64672 0.50661 0.63648
USER: genes 1 Rotation |==|  0.51006 0.60563 0.95785 0.67063
USER: genes 2 Torsion [C]-N--CA-[C] |==|  0.87195
USER: genes 3 Torsion [N]-CA--C-[O] |==|  0.27395
USER: genes 4 Torsion [N]-CA--CB-[CG] |==|  0.18663
USER: genes 5 Torsion [CA]-CB--CG-[CD2] |==|  0.88495
USER: genes 6 Torsion [N]-C--CA-[N] |==|  0.31680
USER: genes 7 Torsion [C]-CA--N-[C] |==|  0.82631
USER: genes 8 Torsion [N]-C--CA-[N] |==|  0.65947
ROOT
ATOM      1  C   ALA S   7       3.565 -12.657   8.586  1.00 26.16 LIG 0.24  C 
ATOM      2 O    ALA S   7       2.521 -12.808   7.952  1.00 23.62 LIG-0.27  OA
ATOM      3  N   PHE S   8       3.989 -11.481   9.032  1.00 26.19 LIG-0.35  N 
ATOM      4 H    PHE S   8       4.724 -11.374   9.467  1.00 26.19 LIG 0.16  HD
ENDROOT
BRANCH 3 5
ATOM      5  CA  PHE S   8       3.240 -10.249   8.825  1.00 26.02 LIG 0.17  C 
BRANCH 5 6
ATOM      6  C   PHE S   8       2.767 -10.146   7.387  1.00 27.74 LIG 0.22  C 
ATOM      7 O    PHE S   8       1.598 -10.468   7.096  1.00 30.84 LIG-0.29  OA
ENDBRANCH 5 6
BRANCH 5 8
ATOM      8  CB  PHE S   8       4.101  -9.030   9.113  1.00 24.81 LIG 0.07  C 
BRANCH 8 9
ATOM      9  CG  PHE S   8       5.232  -8.834   8.138  1.00 22.51 LIG-0.06  A 
ATOM     10  CD2 PHE S   8       5.964  -9.914   7.704  1.00 18.27 LIG 0.01  A 
ATOM     11  CE2 PHE S   8       7.056  -9.745   6.807  1.00 17.55 LIG 0.00  A 
ATOM     12  CZ  PHE S   8       7.390  -8.467   6.371  1.00 18.56 LIG 0.00  A 
ATOM     13  CE1 PHE S   8       6.659  -7.384   6.814  1.00 16.51 LIG 0.00  A 
ATOM     14  CD1 PHE S   8       5.582  -7.561   7.698  1.00 19.44 LIG 0.01  A 
ENDBRANCH 8 9
ENDBRANCH 5 8
ENDBRANCH 3 5
BRANCH 1 15
ATOM     15  CA  ALA S   7       4.409 -13.875   8.944  1.00 27.73 LIG 0.17  C 
ATOM     16  CB  ALA S   7       4.810 -14.582   7.615  1.00 27.93 LIG 0.04  C 
BRANCH 15 17
ATOM     17  N   ALA S   7       3.770 -14.849   9.836  1.00 29.72 LIG-0.35  N 
ATOM     18  C   ALA S   6       3.375 -14.594  11.096  1.00 32.34 LIG 0.26  C 
ATOM     19 O    ALA S   6       2.909 -13.505  11.448  1.00 32.82 LIG-0.27  OA
ATOM     20 H    ALA S   7       3.668 -15.620   9.470  1.00 29.72 LIG 0.16  HD
BRANCH 18 21
ATOM     21  CA  ALA S   6       3.408 -15.791  12.082  1.00 33.16 LIG 0.40  C 
ATOM     22  CB  ALA S   6       3.925 -17.053  11.386  1.00 32.96 LIG 0.06  C 
ATOM     23  N   ALA S   6       2.076 -16.100  12.733  1.00 33.36 LIG 0.61  N 
ENDBRANCH 18 21
ENDBRANCH 15 17
ENDBRANCH 1 15
TORSDOF 7
ENDMDL
MODEL 19
USER: ADFR SOLUTION from run 199
USER: SCORE 6.630252 LL:  -0.924 LR:  -6.469 RR:   0.000 FEB:  -4.381
USER: RMSD 7.339763
USER: SEED 198
USER: STATUS no improvement in best in 26 clusters for 5 generations
USER: GENES 9
USER: genes 0 Translation |==|  0.56544 0.60038 0.50091
USER: genes 1 Rotation |==|  0.73193 0.52149 0.07555 0.62485
USER: genes 2 Torsion [C]-N--CA-[C] |==|  0.74632
USER: genes 3 Torsion [N]-CA--C-[O] |==|  0.48912
USER: genes 4 Torsion [N]-CA--CB-[CG] |==|  0.23271
USER: genes 5 Torsion [CA]-CB--CG-[CD2] |==|  0.84727
USER: genes 6 Torsion [N]-C--CA-[N] |==|  0.55556
USER: genes 7 Torsion [C]-CA--N-[C] |==|  0.20324
USER: genes 8 Torsion [N]-C--CA-[N] |==|  0.18937
ROOT
ATOM      1  C   ALA S   7       2.163 -11.180   6.959  1.00 26.16 LIG 0.24  C 
ATOM      2 O    ALA S   7       2.677 -11.655   5.947  1.00 23.62 LIG-0.27  OA
ATOM      3  N   PHE S   8       0.883 -10.837   7.040  1.00 26.19 LIG-0.35  N 
ATOM      4 H    PHE S   8       0.526 -10.496   7.744  1.00 26.19 LIG 0.16  HD
ENDROOT
BRANCH 3 5
ATOM      5  CA  PHE S   8      -0.045 -11.009   5.930  1.00 26.02 LIG 0.17  C 
BRANCH 5 6
ATOM      6  C   PHE S   8      -0.091  -9.760   5.072  1.00 27.74 LIG 0.22  C 
ATOM      7 O    PHE S   8      -0.778  -9.750   4.031  1.00 30.84 LIG-0.29  OA
ENDBRANCH 5 6
BRANCH 5 8
ATOM      8  CB  PHE S   8      -1.455 -11.273   6.433  1.00 24.81 LIG 0.07  C 
BRANCH 8 9
ATOM      9  CG  PHE S   8      -2.226 -10.026   6.777  1.00 22.51 LIG-0.06  A 
ATOM     10  CD2 PHE S   8      -1.709  -9.119   7.671  1.00 18.27 LIG 0.01  A 
ATOM     11  CE2 PHE S   8      -2.437  -7.951   8.032  1.00 17.55 LIG 0.00  A 
ATOM     12  CZ  PHE S   8      -3.693  -7.730   7.477  1.00 18.56 LIG 0.00  A 
ATOM     13  CE1 PHE S   8      -4.214  -8.645   6.586  1.00 16.51 LIG 0.00  A 
ATOM     14  CD1 PHE S   8      -3.487  -9.795   6.235  1.00 19.44 LIG 0.01  A 
ENDBRANCH 8 9
ENDBRANCH 5 8
ENDBRANCH 3 5
BRANCH 1 15
ATOM     15  CA  ALA S   7       3.001 -11.018   8.222  1.00 27.73 LIG 0.17  C 
ATOM     16  CB  ALA S   7       2.529  -9.720   8.942  1.00 27.93 LIG 0.04  C 
BRANCH 15 17
ATOM     17  N   ALA S   7       4.453 -10.956   8.016  1.00 29.72 LIG-0.35  N 
ATOM     18  C   ALA S   6       5.110  -9.904   7.497  1.00 32.34 LIG 0.26  C 
ATOM     19 O    ALA S   6       4.781  -8.732   7.709  1.00 32.82 LIG-0.27  OA
ATOM     20 H    ALA S   7       4.856 -11.673   8.264  1.00 29.72 LIG 0.16  HD
BRANCH 18 21
ATOM     21  CA  ALA S   6       6.408 -10.226   6.709  1.00 33.16 LIG 0.40  C 
ATOM     22  CB  ALA S   6       7.201  -8.947   6.426  1.00 32.96 LIG 0.06  C 
ATOM     23  N   ALA S   6       6.180 -10.961   5.405  1.00 33.36 LIG 0.61  N 
ENDBRANCH 18 21
ENDBRANCH 15 17
ENDBRANCH 1 15
TORSDOF 7
ENDMDL
MODEL 20
USER: ADFR SOLUTION from run 167
USER: SCORE 7.028624 LL:  -0.815 LR:  -6.383 RR:   0.000 FEB:  -4.295
USER: RMSD 7.242411
USER: SEED 166
USER: STATUS no improvement in best in 33 clusters for 5 generations
USER: GENES 9
USER: genes 0 Translation |==|  0.55674 0.60047 0.53004
USER: genes 1 Rotation |==|  0.37134 0.02281 0.44814 0.55516
USER: genes 2 Torsion [C]-N--CA-[C] |==|  0.57716
USER: genes 3 Torsion [N]-CA--C-[O] |==|  0.12902
USER: genes 4 Torsion [N]-CA--CB-[CG] |==|  0.58783
USER: genes 5 Torsion [CA]-CB--CG-[CD2] |==|  0.95686
USER: genes 6 Torsion [N]-C--CA-[N] |==|  0.44075
USER: genes 7 Torsion [C]-CA--N-[C] |==|  0.84650
USER: genes 8 Torsion [N]-C--CA-[N] |==|  0.08252
ROOT
ATOM      1  C   ALA S   7       2.013 -11.179   7.308  1.00 26.16 LIG 0.24  C 
ATOM      2 O    ALA S   7       1.744 -10.610   8.366  1.00 23.62 LIG-0.27  OA
ATOM      3  N   PHE S   8       1.102 -11.514   6.403  1.00 26.19 LIG-0.35  N 
ATOM      4 H    PHE S   8       1.289 -11.920   5.668  1.00 26.19 LIG 0.16  HD
ENDROOT
BRANCH 3 5
ATOM      5  CA  PHE S   8      -0.315 -11.221   6.573  1.00 26.02 LIG 0.17  C 
BRANCH 5 6
ATOM      6  C   PHE S   8      -1.165 -12.232   5.828  1.00 27.74 LIG 0.22  C 
ATOM      7 O    PHE S   8      -0.911 -13.448   5.932  1.00 30.84 LIG-0.29  OA
ENDBRANCH 5 6
BRANCH 5 8
ATOM      8  CB  PHE S   8      -0.657  -9.844   6.028  1.00 24.81 LIG 0.07  C 
BRANCH 8 9
ATOM      9  CG  PHE S   8      -1.777  -9.154   6.762  1.00 22.51 LIG-0.06  A 
ATOM     10  CD2 PHE S   8      -2.598  -9.872   7.599  1.00 18.27 LIG 0.01  A 
ATOM     11  CE2 PHE S   8      -3.680  -9.243   8.277  1.00 17.55 LIG 0.00  A 
ATOM     12  CZ  PHE S   8      -3.912  -7.886   8.083  1.00 18.56 LIG 0.00  A 
ATOM     13  CE1 PHE S   8      -3.091  -7.169   7.237  1.00 16.51 LIG 0.00  A 
ATOM     14  CD1 PHE S   8      -2.025  -7.798   6.573  1.00 19.44 LIG 0.01  A 
ENDBRANCH 8 9
ENDBRANCH 5 8
ENDBRANCH 3 5
BRANCH 1 15
ATOM     15  CA  ALA S   7       3.468 -11.476   6.964  1.00 27.73 LIG 0.17  C 
ATOM     16  CB  ALA S   7       3.716 -12.992   7.217  1.00 27.93 LIG 0.04  C 
BRANCH 15 17
ATOM     17  N   ALA S   7       4.466 -10.693   7.703  1.00 29.72 LIG-0.35  N 
ATOM     18  C   ALA S   6       4.506  -9.350   7.754  1.00 32.34 LIG 0.26  C 
ATOM     19 O    ALA S   6       3.490  -8.647   7.773  1.00 32.82 LIG-0.27  OA
ATOM     20 H    ALA S   7       5.040 -11.185   8.112  1.00 29.72 LIG 0.16  HD
BRANCH 18 21
ATOM     21  CA  ALA S   6       5.909  -8.710   7.921  1.00 33.16 LIG 0.40  C 
ATOM     22  CB  ALA S   6       5.937  -7.300   7.323  1.00 32.96 LIG 0.06  C 
ATOM     23  N   ALA S   6       7.040  -9.519   7.323  1.00 33.36 LIG 0.61  N 
ENDBRANCH 18 21
ENDBRANCH 15 17
ENDBRANCH 1 15
TORSDOF 7
ENDMDL
MODEL 21
USER: ADFR SOLUTION from run 115
USER: SCORE 7.001427 LL:  -1.012 LR:  -6.345 RR:   0.000 FEB:  -4.257
USER: RMSD 6.650165
USER: SEED 114
USER: STATUS no improvement in best in 31 clusters for 5 generations
USER: GENES 9
USER: genes 0 Translation |==|  0.52177 0.62615 0.55513
USER: genes 1 Rotation |==|  0.64060 0.97164 0.45037 0.57297
USER: genes 2 Torsion [C]-N--CA-[C] |==|  0.44904
USER: genes 3 Torsion [N]-CA--C-[O] |==|  0.96340
USER: genes 4 Torsion [N]-CA--CB-[CG] |==|  0.67030
USER: genes 5 Torsion [CA]-CB--CG-[CD2] |==|  0.99063
USER: genes 6 Torsion [N]-C--CA-[N] |==|  0.17847
USER: genes 7 Torsion [C]-CA--N-[C] |==|  0.80556
USER: genes 8 Torsion [N]-C--CA-[N] |==|  0.61326
ROOT
ATOM      1  C   ALA S   7       1.410 -10.774   7.610  1.00 26.16 LIG 0.24  C 
ATOM      2 O    ALA S   7       0.887  -9.761   8.073  1.00 23.62 LIG-0.27  OA
ATOM      3  N   PHE S   8       0.822 -11.559   6.714  1.00 26.19 LIG-0.35  N 
ATOM      4 H    PHE S   8       1.184 -12.273   6.398  1.00 26.19 LIG 0.16  HD
ENDROOT
BRANCH 3 5
ATOM      5  CA  PHE S   8      -0.504 -11.280   6.180  1.00 26.02 LIG 0.17  C 
BRANCH 5 6
ATOM      6  C   PHE S   8      -0.734 -12.047   4.891  1.00 27.74 LIG 0.22  C 
ATOM      7 O    PHE S   8       0.229 -12.587   4.313  1.00 30.84 LIG-0.29  OA
ENDBRANCH 5 6
BRANCH 5 8
ATOM      8  CB  PHE S   8      -0.667  -9.801   5.869  1.00 24.81 LIG 0.07  C 
BRANCH 8 9
ATOM      9  CG  PHE S   8      -1.761  -9.127   6.655  1.00 22.51 LIG-0.06  A 
ATOM     10  CD2 PHE S   8      -2.553  -9.861   7.506  1.00 18.27 LIG 0.01  A 
ATOM     11  CE2 PHE S   8      -3.611  -9.247   8.233  1.00 17.55 LIG 0.00  A 
ATOM     12  CZ  PHE S   8      -3.850  -7.886   8.073  1.00 18.56 LIG 0.00  A 
ATOM     13  CE1 PHE S   8      -3.059  -7.153   7.213  1.00 16.51 LIG 0.00  A 
ATOM     14  CD1 PHE S   8      -2.016  -7.767   6.500  1.00 19.44 LIG 0.01  A 
ENDBRANCH 8 9
ENDBRANCH 5 8
ENDBRANCH 3 5
BRANCH 1 15
ATOM     15  CA  ALA S   7       2.830 -11.143   8.022  1.00 27.73 LIG 0.17  C 
ATOM     16  CB  ALA S   7       3.246 -10.200   9.189  1.00 27.93 LIG 0.04  C 
BRANCH 15 17
ATOM     17  N   ALA S   7       3.839 -11.068   6.959  1.00 29.72 LIG-0.35  N 
ATOM     18  C   ALA S   6       3.915 -11.909   5.912  1.00 32.34 LIG 0.26  C 
ATOM     19 O    ALA S   6       2.920 -12.386   5.357  1.00 32.82 LIG-0.27  OA
ATOM     20 H    ALA S   7       4.392 -10.420   7.068  1.00 29.72 LIG 0.16  HD
BRANCH 18 21
ATOM     21  CA  ALA S   6       5.333 -12.160   5.335  1.00 33.16 LIG 0.40  C 
ATOM     22  CB  ALA S   6       6.317 -11.098   5.832  1.00 32.96 LIG 0.06  C 
ATOM     23  N   ALA S   6       5.392 -12.213   3.823  1.00 33.36 LIG 0.61  N 
ENDBRANCH 18 21
ENDBRANCH 15 17
ENDBRANCH 1 15
TORSDOF 7
ENDMDL
MODEL 22
USER: ADFR SOLUTION from run 53
USER: SCORE 6.775368 LL:  -0.907 LR:  -6.330 RR:   0.000 FEB:  -4.242
USER: RMSD 7.336278
USER: SEED 52
USER: STATUS no improvement in best in 34 clusters for 5 generations
USER: GENES 9
USER: genes 0 Translation |==|  0.80656 0.61199 0.50472
USER: genes 1 Rotation |==|  0.57636 0.48733 0.98211 0.60759
USER: genes 2 Torsion [C]-N--CA-[C] |==|  0.13195
USER: genes 3 Torsion [N]-CA--C-[O] |==|  0.51083
USER: genes 4 Torsion [N]-CA--CB-[CG] |==|  0.86530
USER: genes 5 Torsion [CA]-CB--CG-[CD2] |==|  0.69877
USER: genes 6 Torsion [N]-C--CA-[N] |==|  0.30556
USER: genes 7 Torsion [C]-CA--N-[C] |==|  0.57501
USER: genes 8 Torsion [N]-C--CA-[N] |==|  0.39690
ROOT
ATOM      1  C   ALA S   7       6.322 -10.997   7.005  1.00 26.16 LIG 0.24  C 
ATOM      2 O    ALA S   7       5.217 -11.034   6.466  1.00 23.62 LIG-0.27  OA
ATOM      3  N   PHE S   8       6.635 -10.154   7.981  1.00 26.19 LIG-0.35  N 
ATOM      4 H    PHE S   8       7.411 -10.122   8.351  1.00 26.19 LIG 0.16  HD
ENDROOT
BRANCH 3 5
ATOM      5  CA  PHE S   8       5.681  -9.195   8.523  1.00 26.02 LIG 0.17  C 
BRANCH 5 6
ATOM      6  C   PHE S   8       4.356  -9.870   8.821  1.00 27.74 LIG 0.22  C 
ATOM      7 O    PHE S   8       3.392  -9.188   9.223  1.00 30.84 LIG-0.29  OA
ENDBRANCH 5 6
BRANCH 5 8
ATOM      8  CB  PHE S   8       5.413  -8.074   7.533  1.00 24.81 LIG 0.07  C 
BRANCH 8 9
ATOM      9  CG  PHE S   8       6.659  -7.461   6.948  1.00 22.51 LIG-0.06  A 
ATOM     10  CD2 PHE S   8       7.046  -6.196   7.319  1.00 18.27 LIG 0.01  A 
ATOM     11  CE2 PHE S   8       8.203  -5.589   6.754  1.00 17.55 LIG 0.00  A 
ATOM     12  CZ  PHE S   8       8.946  -6.285   5.807  1.00 18.56 LIG 0.00  A 
ATOM     13  CE1 PHE S   8       8.552  -7.553   5.430  1.00 16.51 LIG 0.00  A 
ATOM     14  CD1 PHE S   8       7.409  -8.144   5.995  1.00 19.44 LIG 0.01  A 
ENDBRANCH 8 9
ENDBRANCH 5 8
ENDBRANCH 3 5
BRANCH 1 15
ATOM     15  CA  ALA S   7       7.394 -11.999   6.590  1.00 27.73 LIG 0.17  C 
ATOM     16  CB  ALA S   7       7.576 -11.889   5.048  1.00 27.93 LIG 0.04  C 
BRANCH 15 17
ATOM     17  N   ALA S   7       7.125 -13.398   6.946  1.00 29.72 LIG-0.35  N 
ATOM     18  C   ALA S   6       8.069 -14.331   7.160  1.00 32.34 LIG 0.26  C 
ATOM     19 O    ALA S   6       9.152 -14.082   7.698  1.00 32.82 LIG-0.27  OA
ATOM     20 H    ALA S   7       6.285 -13.571   7.006  1.00 29.72 LIG 0.16  HD
BRANCH 18 21
ATOM     21  CA  ALA S   6       7.680 -15.793   6.814  1.00 33.16 LIG 0.40  C 
ATOM     22  CB  ALA S   6       7.141 -16.518   8.050  1.00 32.96 LIG 0.06  C 
ATOM     23  N   ALA S   6       8.804 -16.613   6.216  1.00 33.36 LIG 0.61  N 
ENDBRANCH 18 21
ENDBRANCH 15 17
ENDBRANCH 1 15
TORSDOF 7
ENDMDL
MODEL 23
USER: ADFR SOLUTION from run 144
USER: SCORE 7.442496 LL:  -1.434 LR:  -6.333 RR:   0.000 FEB:  -4.245
USER: RMSD 3.346455
USER: SEED 143
USER: STATUS no improvement in best in 32 clusters for 5 generations
USER: GENES 9
USER: genes 0 Translation |==|  0.67445 0.39183 0.51132
USER: genes 1 Rotation |==|  0.25772 0.27971 0.54645 0.87499
USER: genes 2 Torsion [C]-N--CA-[C] |==|  0.66517
USER: genes 3 Torsion [N]-CA--C-[O] |==|  0.68711
USER: genes 4 Torsion [N]-CA--CB-[CG] |==|  0.74634
USER: genes 5 Torsion [CA]-CB--CG-[CD2] |==|  0.01218
USER: genes 6 Torsion [N]-C--CA-[N] |==|  0.13011
USER: genes 7 Torsion [C]-CA--N-[C] |==|  0.11111
USER: genes 8 Torsion [N]-C--CA-[N] |==|  0.07909
ROOT
ATOM      1  C   ALA S   7       4.043 -14.465   7.084  1.00 26.16 LIG 0.24  C 
ATOM      2 O    ALA S   7       5.261 -14.305   7.010  1.00 23.62 LIG-0.27  OA
ATOM      3  N   PHE S   8       3.319 -14.111   8.139  1.00 26.19 LIG-0.35  N 
ATOM      4 H    PHE S   8       2.469 -14.232   8.194  1.00 26.19 LIG 0.16  HD
ENDROOT
BRANCH 3 5
ATOM      5  CA  PHE S   8       3.905 -13.478   9.313  1.00 26.02 LIG 0.17  C 
BRANCH 5 6
ATOM      6  C   PHE S   8       3.659 -14.317  10.553  1.00 27.74 LIG 0.22  C 
ATOM      7 O    PHE S   8       2.908 -13.887  11.450  1.00 30.84 LIG-0.29  OA
ENDBRANCH 5 6
BRANCH 5 8
ATOM      8  CB  PHE S   8       3.294 -12.108   9.557  1.00 24.81 LIG 0.07  C 
BRANCH 8 9
ATOM      9  CG  PHE S   8       4.034 -10.979   8.889  1.00 22.51 LIG-0.06  A 
ATOM     10  CD2 PHE S   8       5.102 -11.245   8.066  1.00 18.27 LIG 0.01  A 
ATOM     11  CE2 PHE S   8       5.833 -10.190   7.450  1.00 17.55 LIG 0.00  A 
ATOM     12  CZ  PHE S   8       5.463  -8.871   7.693  1.00 18.56 LIG 0.00  A 
ATOM     13  CE1 PHE S   8       4.395  -8.606   8.525  1.00 16.51 LIG 0.00  A 
ATOM     14  CD1 PHE S   8       3.679  -9.654   9.127  1.00 19.44 LIG 0.01  A 
ENDBRANCH 8 9
ENDBRANCH 5 8
ENDBRANCH 3 5
BRANCH 1 15
ATOM     15  CA  ALA S   7       3.288 -15.044   5.893  1.00 27.73 LIG 0.17  C 
ATOM     16  CB  ALA S   7       4.279 -15.126   4.695  1.00 27.93 LIG 0.04  C 
BRANCH 15 17
ATOM     17  N   ALA S   7       2.091 -14.302   5.480  1.00 29.72 LIG-0.35  N 
ATOM     18  C   ALA S   6       1.994 -12.961   5.440  1.00 32.34 LIG 0.26  C 
ATOM     19 O    ALA S   6       2.935 -12.227   5.121  1.00 32.82 LIG-0.27  OA
ATOM     20 H    ALA S   7       1.439 -14.816   5.259  1.00 29.72 LIG 0.16  HD
BRANCH 18 21
ATOM     21  CA  ALA S   6       0.583 -12.367   5.692  1.00 33.16 LIG 0.40  C 
ATOM     22  CB  ALA S   6       0.685 -10.964   6.297  1.00 32.96 LIG 0.06  C 
ATOM     23  N   ALA S   6      -0.305 -13.218   6.574  1.00 33.36 LIG 0.61  N 
ENDBRANCH 18 21
ENDBRANCH 15 17
ENDBRANCH 1 15
TORSDOF 7
ENDMDL
MODEL 24
USER: ADFR SOLUTION from run 181
USER: SCORE 6.477476 LL:  -0.855 LR:  -6.332 RR:   0.000 FEB:  -4.244
USER: RMSD 5.164222
USER: SEED 180
USER: STATUS no improvement in best in 33 clusters for 5 generations
USER: GENES 9
USER: genes 0 Translation |==|  0.31933 0.64793 0.49924
USER: genes 1 Rotation |==|  0.15034 0.73347 0.60361 0.74999
USER: genes 2 Torsion [C]-N--CA-[C] |==|  0.13288
USER: genes 3 Torsion [N]-CA--C-[O] |==|  0.16683
USER: genes 4 Torsion [N]-CA--CB-[CG] |==|  0.74759
USER: genes 5 Torsion [CA]-CB--CG-[CD2] |==|  0.17030
USER: genes 6 Torsion [N]-C--CA-[N] |==|  0.68018
USER: genes 7 Torsion [C]-CA--N-[C] |==|  0.57350
USER: genes 8 Torsion [N]-C--CA-[N] |==|  0.53991
ROOT
ATOM      1  C   ALA S   7      -2.083 -10.431   6.939  1.00 26.16 LIG 0.24  C 
ATOM      2 O    ALA S   7      -2.282 -11.541   6.446  1.00 23.62 LIG-0.27  OA
ATOM      3  N   PHE S   8      -0.984  -9.717   6.721  1.00 26.19 LIG-0.35  N 
ATOM      4 H    PHE S   8      -0.841  -8.946   7.073  1.00 26.19 LIG 0.16  HD
ENDROOT
BRANCH 3 5
ATOM      5  CA  PHE S   8       0.090 -10.182   5.853  1.00 26.02 LIG 0.17  C 
BRANCH 5 6
ATOM      6  C   PHE S   8      -0.466 -10.690   4.536  1.00 27.74 LIG 0.22  C 
ATOM      7 O    PHE S   8      -1.116  -9.920   3.802  1.00 30.84 LIG-0.29  OA
ENDBRANCH 5 6
BRANCH 5 8
ATOM      8  CB  PHE S   8       0.858 -11.324   6.498  1.00 24.81 LIG 0.07  C 
BRANCH 8 9
ATOM      9  CG  PHE S   8       2.039 -10.881   7.322  1.00 22.51 LIG-0.06  A 
ATOM     10  CD2 PHE S   8       1.852 -10.069   8.415  1.00 18.27 LIG 0.01  A 
ATOM     11  CE2 PHE S   8       2.959  -9.616   9.187  1.00 17.55 LIG 0.00  A 
ATOM     12  CZ  PHE S   8       4.247  -9.994   8.823  1.00 18.56 LIG 0.00  A 
ATOM     13  CE1 PHE S   8       4.432 -10.804   7.721  1.00 16.51 LIG 0.00  A 
ATOM     14  CD1 PHE S   8       3.334 -11.247   6.966  1.00 19.44 LIG 0.01  A 
ENDBRANCH 8 9
ENDBRANCH 5 8
ENDBRANCH 3 5
BRANCH 1 15
ATOM     15  CA  ALA S   7      -3.160  -9.789   7.805  1.00 27.73 LIG 0.17  C 
ATOM     16  CB  ALA S   7      -2.738  -8.314   8.073  1.00 27.93 LIG 0.04  C 
BRANCH 15 17
ATOM     17  N   ALA S   7      -3.425 -10.456   9.086  1.00 29.72 LIG-0.35  N 
ATOM     18  C   ALA S   6      -4.594 -10.409   9.749  1.00 32.34 LIG 0.26  C 
ATOM     19 O    ALA S   6      -5.690 -10.391   9.181  1.00 32.82 LIG-0.27  OA
ATOM     20 H    ALA S   7      -2.746 -10.891   9.382  1.00 29.72 LIG 0.16  HD
BRANCH 18 21
ATOM     21  CA  ALA S   6      -4.510 -10.511  11.295  1.00 33.16 LIG 0.40  C 
ATOM     22  CB  ALA S   6      -3.496 -11.579  11.714  1.00 32.96 LIG 0.06  C 
ATOM     23  N   ALA S   6      -5.833 -10.797  11.974  1.00 33.36 LIG 0.61  N 
ENDBRANCH 18 21
ENDBRANCH 15 17
ENDBRANCH 1 15
TORSDOF 7
ENDMDL
MODEL 25
USER: ADFR SOLUTION from run 125
USER: SCORE 7.047686 LL:  -0.883 LR:  -6.321 RR:   0.000 FEB:  -4.233
USER: RMSD 7.766311
USER: SEED 124
USER: STATUS no improvement in best in 33 clusters for 5 generations
USER: GENES 9
USER: genes 0 Translation |==|  0.73696 0.66419 0.56308
USER: genes 1 Rotation |==|  0.45559 0.03360 0.51532 0.67397
USER: genes 2 Torsion [C]-N--CA-[C] |==|  0.17464
USER: genes 3 Torsion [N]-CA--C-[O] |==|  0.77802
USER: genes 4 Torsion [N]-CA--CB-[CG] |==|  0.79907
USER: genes 5 Torsion [CA]-CB--CG-[CD2] |==|  0.06784
USER: genes 6 Torsion [N]-C--CA-[N] |==|  0.47221
USER: genes 7 Torsion [C]-CA--N-[C] |==|  0.79715
USER: genes 8 Torsion [N]-C--CA-[N] |==|  0.09757
ROOT
ATOM      1  C   ALA S   7       5.122 -10.175   7.705  1.00 26.16 LIG 0.24  C 
ATOM      2 O    ALA S   7       5.158  -9.551   8.765  1.00 23.62 LIG-0.27  OA
ATOM      3  N   PHE S   8       4.115 -10.966   7.352  1.00 26.19 LIG-0.35  N 
ATOM      4 H    PHE S   8       4.095 -11.409   6.616  1.00 26.19 LIG 0.16  HD
ENDROOT
BRANCH 3 5
ATOM      5  CA  PHE S   8       2.939 -11.155   8.191  1.00 26.02 LIG 0.17  C 
BRANCH 5 6
ATOM      6  C   PHE S   8       2.191  -9.848   8.368  1.00 27.74 LIG 0.22  C 
ATOM      7 O    PHE S   8       2.597  -9.011   9.198  1.00 30.84 LIG-0.29  OA
ENDBRANCH 5 6
BRANCH 5 8
ATOM      8  CB  PHE S   8       3.328 -11.652   9.573  1.00 24.81 LIG 0.07  C 
BRANCH 8 9
ATOM      9  CG  PHE S   8       3.790 -13.086   9.602  1.00 22.51 LIG-0.06  A 
ATOM     10  CD2 PHE S   8       4.308 -13.667   8.469  1.00 18.27 LIG 0.01  A 
ATOM     11  CE2 PHE S   8       4.721 -15.029   8.468  1.00 17.55 LIG 0.00  A 
ATOM     12  CZ  PHE S   8       4.589 -15.783   9.630  1.00 18.56 LIG 0.00  A 
ATOM     13  CE1 PHE S   8       4.062 -15.200  10.764  1.00 16.51 LIG 0.00  A 
ATOM     14  CD1 PHE S   8       3.659 -13.854  10.755  1.00 19.44 LIG 0.01  A 
ENDBRANCH 8 9
ENDBRANCH 5 8
ENDBRANCH 3 5
BRANCH 1 15
ATOM     15  CA  ALA S   7       6.252 -10.007   6.696  1.00 27.73 LIG 0.17  C 
ATOM     16  CB  ALA S   7       6.986 -11.375   6.573  1.00 27.93 LIG 0.04  C 
BRANCH 15 17
ATOM     17  N   ALA S   7       7.231  -8.960   7.009  1.00 29.72 LIG-0.35  N 
ATOM     18  C   ALA S   6       7.001  -7.639   6.910  1.00 32.34 LIG 0.26  C 
ATOM     19 O    ALA S   6       5.909  -7.123   7.169  1.00 32.82 LIG-0.27  OA
ATOM     20 H    ALA S   7       7.987  -9.276   7.270  1.00 29.72 LIG 0.16  HD
BRANCH 18 21
ATOM     21  CA  ALA S   6       8.229  -6.751   6.573  1.00 33.16 LIG 0.40  C 
ATOM     22  CB  ALA S   6       7.784  -5.412   5.978  1.00 32.96 LIG 0.06  C 
ATOM     23  N   ALA S   6       9.228  -7.397   5.635  1.00 33.36 LIG 0.61  N 
ENDBRANCH 18 21
ENDBRANCH 15 17
ENDBRANCH 1 15
TORSDOF 7
ENDMDL
MODEL 26
USER: ADFR SOLUTION from run 114
USER: SCORE 7.058270 LL:  -0.930 LR:  -6.316 RR:   0.000 FEB:  -4.227
USER: RMSD 3.080153
USER: SEED 113
USER: STATUS no improvement in best in 35 clusters for 5 generations
USER: GENES 9
USER: genes 0 Translation |==|  0.54572 0.50813 0.43169
USER: genes 1 Rotation |==|  0.41787 0.51534 0.51665 0.99269
USER: genes 2 Torsion [C]-N--CA-[C] |==|  0.46393
USER: genes 3 Torsion [N]-CA--C-[O] |==|  0.93683
USER: genes 4 Torsion [N]-CA--CB-[CG] |==|  0.17564
USER: genes 5 Torsion [CA]-CB--CG-[CD2] |==|  0.89106
USER: genes 6 Torsion [N]-C--CA-[N] |==|  0.46088
USER: genes 7 Torsion [C]-CA--N-[C] |==|  0.55946
USER: genes 8 Torsion [N]-C--CA-[N] |==|  0.53491
ROOT
ATOM      1  C   ALA S   7       1.823 -12.633   6.128  1.00 26.16 LIG 0.24  C 
ATOM      2 O    ALA S   7       2.513 -12.394   5.139  1.00 23.62 LIG-0.27  OA
ATOM      3  N   PHE S   8       2.305 -13.143   7.255  1.00 26.19 LIG-0.35  N 
ATOM      4 H    PHE S   8       1.820 -13.319   7.943  1.00 26.19 LIG 0.16  HD
ENDROOT
BRANCH 3 5
ATOM      5  CA  PHE S   8       3.718 -13.452   7.431  1.00 26.02 LIG 0.17  C 
BRANCH 5 6
ATOM      6  C   PHE S   8       4.031 -13.714   8.892  1.00 27.74 LIG 0.22  C 
ATOM      7 O    PHE S   8       3.284 -13.252   9.777  1.00 30.84 LIG-0.29  OA
ENDBRANCH 5 6
BRANCH 5 8
ATOM      8  CB  PHE S   8       4.592 -12.296   6.974  1.00 24.81 LIG 0.07  C 
BRANCH 8 9
ATOM      9  CG  PHE S   8       4.401 -11.031   7.771  1.00 22.51 LIG-0.06  A 
ATOM     10  CD2 PHE S   8       3.143 -10.656   8.179  1.00 18.27 LIG 0.01  A 
ATOM     11  CE2 PHE S   8       2.939  -9.449   8.905  1.00 17.55 LIG 0.00  A 
ATOM     12  CZ  PHE S   8       4.029  -8.636   9.198  1.00 18.56 LIG 0.00  A 
ATOM     13  CE1 PHE S   8       5.290  -9.011   8.781  1.00 16.51 LIG 0.00  A 
ATOM     14  CD1 PHE S   8       5.481 -10.205   8.066  1.00 19.44 LIG 0.01  A 
ENDBRANCH 8 9
ENDBRANCH 5 8
ENDBRANCH 3 5
BRANCH 1 15
ATOM     15  CA  ALA S   7       0.339 -12.283   6.111  1.00 27.73 LIG 0.17  C 
ATOM     16  CB  ALA S   7      -0.464 -13.618   6.089  1.00 27.93 LIG 0.04  C 
BRANCH 15 17
ATOM     17  N   ALA S   7      -0.100 -11.438   4.994  1.00 29.72 LIG-0.35  N 
ATOM     18  C   ALA S   6      -1.216 -10.688   4.990  1.00 32.34 LIG 0.26  C 
ATOM     19 O    ALA S   6      -1.644 -10.112   5.996  1.00 32.82 LIG-0.27  OA
ATOM     20 H    ALA S   7       0.437 -11.466   4.323  1.00 29.72 LIG 0.16  HD
BRANCH 18 21
ATOM     21  CA  ALA S   6      -1.888 -10.464   3.610  1.00 33.16 LIG 0.40  C 
ATOM     22  CB  ALA S   6      -0.840 -10.136   2.542  1.00 32.96 LIG 0.06  C 
ATOM     23  N   ALA S   6      -2.951  -9.386   3.600  1.00 33.36 LIG 0.61  N 
ENDBRANCH 18 21
ENDBRANCH 15 17
ENDBRANCH 1 15
TORSDOF 7
ENDMDL
MODEL 27
USER: ADFR SOLUTION from run 158
USER: SCORE 7.197035 LL:  -1.145 LR:  -6.322 RR:   0.000 FEB:  -4.233
USER: RMSD 6.675106
USER: SEED 157
USER: STATUS no improvement in best in 26 clusters for 5 generations
USER: GENES 9
USER: genes 0 Translation |==|  0.70439 0.67881 0.64019
USER: genes 1 Rotation |==|  0.43756 0.95477 0.30977 0.55568
USER: genes 2 Torsion [C]-N--CA-[C] |==|  0.61566
USER: genes 3 Torsion [N]-CA--C-[O] |==|  0.27291
USER: genes 4 Torsion [N]-CA--CB-[CG] |==|  0.69395
USER: genes 5 Torsion [CA]-CB--CG-[CD2] |==|  0.53903
USER: genes 6 Torsion [N]-C--CA-[N] |==|  0.06181
USER: genes 7 Torsion [C]-CA--N-[C] |==|  0.17153
USER: genes 8 Torsion [N]-C--CA-[N] |==|  0.85093
ROOT
ATOM      1  C   ALA S   7       4.560  -9.945   8.630  1.00 26.16 LIG 0.24  C 
ATOM      2 O    ALA S   7       3.516  -9.305   8.757  1.00 23.62 LIG-0.27  OA
ATOM      3  N   PHE S   8       4.608 -11.271   8.592  1.00 26.19 LIG-0.35  N 
ATOM      4 H    PHE S   8       5.339 -11.718   8.513  1.00 26.19 LIG 0.16  HD
ENDROOT
BRANCH 3 5
ATOM      5  CA  PHE S   8       3.413 -12.100   8.679  1.00 26.02 LIG 0.17  C 
BRANCH 5 6
ATOM      6  C   PHE S   8       3.659 -13.301   9.573  1.00 27.74 LIG 0.22  C 
ATOM      7 O    PHE S   8       3.284 -13.274  10.761  1.00 30.84 LIG-0.29  OA
ENDBRANCH 5 6
BRANCH 5 8
ATOM      8  CB  PHE S   8       3.009 -12.622   7.310  1.00 24.81 LIG 0.07  C 
BRANCH 8 9
ATOM      9  CG  PHE S   8       1.740 -12.014   6.773  1.00 22.51 LIG-0.06  A 
ATOM     10  CD2 PHE S   8       1.102 -12.587   5.698  1.00 18.27 LIG 0.01  A 
ATOM     11  CE2 PHE S   8      -0.081 -12.010   5.157  1.00 17.55 LIG 0.00  A 
ATOM     12  CZ  PHE S   8      -0.593 -10.846   5.721  1.00 18.56 LIG 0.00  A 
ATOM     13  CE1 PHE S   8       0.052 -10.269   6.795  1.00 16.51 LIG 0.00  A 
ATOM     14  CD1 PHE S   8       1.219 -10.847   7.323  1.00 19.44 LIG 0.01  A 
ENDBRANCH 8 9
ENDBRANCH 5 8
ENDBRANCH 3 5
BRANCH 1 15
ATOM     15  CA  ALA S   7       5.878  -9.202   8.448  1.00 27.73 LIG 0.17  C 
ATOM     16  CB  ALA S   7       5.582  -7.894   7.657  1.00 27.93 LIG 0.04  C 
BRANCH 15 17
ATOM     17  N   ALA S   7       6.938  -9.951   7.762  1.00 29.72 LIG-0.35  N 
ATOM     18  C   ALA S   6       6.861 -10.411   6.501  1.00 32.34 LIG 0.26  C 
ATOM     19 O    ALA S   6       6.284  -9.800   5.596  1.00 32.82 LIG-0.27  OA
ATOM     20 H    ALA S   7       7.633 -10.074   8.254  1.00 29.72 LIG 0.16  HD
BRANCH 18 21
ATOM     21  CA  ALA S   6       7.657 -11.707   6.192  1.00 33.16 LIG 0.40  C 
ATOM     22  CB  ALA S   6       7.020 -12.913   6.887  1.00 32.96 LIG 0.06  C 
ATOM     23  N   ALA S   6       9.123 -11.643   6.567  1.00 33.36 LIG 0.61  N 
ENDBRANCH 18 21
ENDBRANCH 15 17
ENDBRANCH 1 15
TORSDOF 7
ENDMDL
MODEL 28
USER: ADFR SOLUTION from run 30
USER: SCORE 7.628177 LL:  -1.594 LR:  -6.305 RR:   0.000 FEB:  -4.217
USER: RMSD 6.825335
USER: SEED 29
USER: STATUS no improvement in best in 26 clusters for 5 generations
USER: GENES 9
USER: genes 0 Translation |==|  0.83903 0.47106 0.48628
USER: genes 1 Rotation |==|  0.46072 0.14286 0.22283 0.70997
USER: genes 2 Torsion [C]-N--CA-[C] |==|  0.51872
USER: genes 3 Torsion [N]-CA--C-[O] |==|  0.94323
USER: genes 4 Torsion [N]-CA--CB-[CG] |==|  0.17038
USER: genes 5 Torsion [CA]-CB--CG-[CD2] |==|  0.82645
USER: genes 6 Torsion [N]-C--CA-[N] |==|  0.18540
USER: genes 7 Torsion [C]-CA--N-[C] |==|  0.77218
USER: genes 8 Torsion [N]-C--CA-[N] |==|  0.33969
ROOT
ATOM      1  C   ALA S   7       6.882 -13.217   6.783  1.00 26.16 LIG 0.24  C 
ATOM      2 O    ALA S   7       7.098 -14.011   7.698  1.00 23.62 LIG-0.27  OA
ATOM      3  N   PHE S   8       5.665 -12.886   6.370  1.00 26.19 LIG-0.35  N 
ATOM      4 H    PHE S   8       5.515 -12.338   5.724  1.00 26.19 LIG 0.16  HD
ENDROOT
BRANCH 3 5
ATOM      5  CA  PHE S   8       4.458 -13.426   6.981  1.00 26.02 LIG 0.17  C 
BRANCH 5 6
ATOM      6  C   PHE S   8       3.227 -13.003   6.201  1.00 27.74 LIG 0.22  C 
ATOM      7 O    PHE S   8       3.284 -12.011   5.448  1.00 30.84 LIG-0.29  OA
ENDBRANCH 5 6
BRANCH 5 8
ATOM      8  CB  PHE S   8       4.294 -12.924   8.405  1.00 24.81 LIG 0.07  C 
BRANCH 8 9
ATOM      9  CG  PHE S   8       4.157 -11.427   8.516  1.00 22.51 LIG-0.06  A 
ATOM     10  CD2 PHE S   8       5.183 -10.609   8.109  1.00 18.27 LIG 0.01  A 
ATOM     11  CE2 PHE S   8       5.084  -9.194   8.235  1.00 17.55 LIG 0.00  A 
ATOM     12  CZ  PHE S   8       3.935  -8.636   8.784  1.00 18.56 LIG 0.00  A 
ATOM     13  CE1 PHE S   8       2.909  -9.460   9.198  1.00 16.51 LIG 0.00  A 
ATOM     14  CD1 PHE S   8       3.015 -10.855   9.069  1.00 19.44 LIG 0.01  A 
ENDBRANCH 8 9
ENDBRANCH 5 8
ENDBRANCH 3 5
BRANCH 1 15
ATOM     15  CA  ALA S   7       8.054 -12.514   6.107  1.00 27.73 LIG 0.17  C 
ATOM     16  CB  ALA S   7       9.363 -13.217   6.573  1.00 27.93 LIG 0.04  C 
BRANCH 15 17
ATOM     17  N   ALA S   7       8.162 -11.073   6.363  1.00 29.72 LIG-0.35  N 
ATOM     18  C   ALA S   6       7.468 -10.123   5.713  1.00 32.34 LIG 0.26  C 
ATOM     19 O    ALA S   6       6.303 -10.279   5.335  1.00 32.82 LIG-0.27  OA
ATOM     20 H    ALA S   7       8.726 -10.886   6.985  1.00 29.72 LIG 0.16  HD
BRANCH 18 21
ATOM     21  CA  ALA S   6       8.164  -8.743   5.567  1.00 33.16 LIG 0.40  C 
ATOM     22  CB  ALA S   6       7.409  -7.669   6.355  1.00 32.96 LIG 0.06  C 
ATOM     23  N   ALA S   6       8.329  -8.275   4.136  1.00 33.36 LIG 0.61  N 
ENDBRANCH 18 21
ENDBRANCH 15 17
ENDBRANCH 1 15
TORSDOF 7
ENDMDL
MODEL 29
USER: ADFR SOLUTION from run 63
USER: SCORE 6.905066 LL:  -0.986 LR:  -6.314 RR:   0.000 FEB:  -4.226
USER: RMSD 3.813981
USER: SEED 62
USER: STATUS no improvement in best in 18 clusters for 5 generations
USER: GENES 9
USER: genes 0 Translation |==|  0.68838 0.61775 0.56419
USER: genes 1 Rotation |==|  0.94982 0.32723 0.47940 0.63186
USER: genes 2 Torsion [C]-N--CA-[C] |==|  0.14155
USER: genes 3 Torsion [N]-CA--C-[O] |==|  0.57007
USER: genes 4 Torsion [N]-CA--CB-[CG] |==|  0.88352
USER: genes 5 Torsion [CA]-CB--CG-[CD2] |==|  0.71260
USER: genes 6 Torsion [N]-C--CA-[N] |==|  0.22483
USER: genes 7 Torsion [C]-CA--N-[C] |==|  0.81636
USER: genes 8 Torsion [N]-C--CA-[N] |==|  0.77924
ROOT
ATOM      1  C   ALA S   7       4.283 -10.906   7.718  1.00 26.16 LIG 0.24  C 
ATOM      2 O    ALA S   7       4.784 -11.343   8.754  1.00 23.62 LIG-0.27  OA
ATOM      3  N   PHE S   8       4.857 -11.010   6.525  1.00 26.19 LIG-0.35  N 
ATOM      4 H    PHE S   8       4.511 -10.696   5.803  1.00 26.19 LIG 0.16  HD
ENDROOT
BRANCH 3 5
ATOM      5  CA  PHE S   8       6.139 -11.672   6.329  1.00 26.02 LIG 0.17  C 
BRANCH 5 6
ATOM      6  C   PHE S   8       6.134 -13.049   6.965  1.00 27.74 LIG 0.22  C 
ATOM      7 O    PHE S   8       7.209 -13.569   7.323  1.00 30.84 LIG-0.29  OA
ENDBRANCH 5 6
BRANCH 5 8
ATOM      8  CB  PHE S   8       7.268 -10.878   6.966  1.00 24.81 LIG 0.07  C 
BRANCH 8 9
ATOM      9  CG  PHE S   8       7.168  -9.390   6.749  1.00 22.51 LIG-0.06  A 
ATOM     10  CD2 PHE S   8       7.975  -8.772   5.823  1.00 18.27 LIG 0.01  A 
ATOM     11  CE2 PHE S   8       7.917  -7.364   5.626  1.00 17.55 LIG 0.00  A 
ATOM     12  CZ  PHE S   8       7.036  -6.603   6.389  1.00 18.56 LIG 0.00  A 
ATOM     13  CE1 PHE S   8       6.233  -7.225   7.323  1.00 16.51 LIG 0.00  A 
ATOM     14  CD1 PHE S   8       6.297  -8.616   7.509  1.00 19.44 LIG 0.01  A 
ENDBRANCH 8 9
ENDBRANCH 5 8
ENDBRANCH 3 5
BRANCH 1 15
ATOM     15  CA  ALA S   7       2.904 -10.258   7.765  1.00 27.73 LIG 0.17  C 
ATOM     16  CB  ALA S   7       2.689  -9.704   9.204  1.00 27.93 LIG 0.04  C 
BRANCH 15 17
ATOM     17  N   ALA S   7       1.780 -11.134   7.412  1.00 29.72 LIG-0.35  N 
ATOM     18  C   ALA S   6       1.570 -11.660   6.193  1.00 32.34 LIG 0.26  C 
ATOM     19 O    ALA S   6       2.487 -12.025   5.449  1.00 32.82 LIG-0.27  OA
ATOM     20 H    ALA S   7       1.253 -11.284   8.074  1.00 29.72 LIG 0.16  HD
BRANCH 18 21
ATOM     21  CA  ALA S   6       0.091 -11.917   5.801  1.00 33.16 LIG 0.40  C 
ATOM     22  CB  ALA S   6      -0.789 -10.726   6.192  1.00 32.96 LIG 0.06  C 
ATOM     23  N   ALA S   6      -0.502 -13.179   6.392  1.00 33.36 LIG 0.61  N 
ENDBRANCH 18 21
ENDBRANCH 15 17
ENDBRANCH 1 15
TORSDOF 7
ENDMDL
MODEL 30
USER: ADFR SOLUTION from run 67
USER: SCORE 6.930816 LL:  -0.847 LR:  -6.300 RR:   0.000 FEB:  -4.212
USER: RMSD 5.817951
USER: SEED 66
USER: STATUS no improvement in best in 28 clusters for 5 generations
USER: GENES 9
USER: genes 0 Translation |==|  0.70617 0.60383 0.56554
USER: genes 1 Rotation |==|  0.60687 0.52936 0.93899 0.71213
USER: genes 2 Torsion [C]-N--CA-[C] |==|  0.13994
USER: genes 3 Torsion [N]-CA--C-[O] |==|  0.76035
USER: genes 4 Torsion [N]-CA--CB-[CG] |==|  0.79973
USER: genes 5 Torsion [CA]-CB--CG-[CD2] |==|  0.66825
USER: genes 6 Torsion [N]-C--CA-[N] |==|  0.32778
USER: genes 7 Torsion [C]-CA--N-[C] |==|  0.86611
USER: genes 8 Torsion [N]-C--CA-[N] |==|  0.10123
ROOT
ATOM      1  C   ALA S   7       4.590 -11.126   7.734  1.00 26.16 LIG 0.24  C 
ATOM      2 O    ALA S   7       3.463 -10.778   7.385  1.00 23.62 LIG-0.27  OA
ATOM      3  N   PHE S   8       5.412 -10.354   8.437  1.00 26.19 LIG-0.35  N 
ATOM      4 H    PHE S   8       6.203 -10.594   8.673  1.00 26.19 LIG 0.16  HD
ENDROOT
BRANCH 3 5
ATOM      5  CA  PHE S   8       5.042  -9.016   8.877  1.00 26.02 LIG 0.17  C 
BRANCH 5 6
ATOM      6  C   PHE S   8       3.694  -9.034   9.573  1.00 27.74 LIG 0.22  C 
ATOM      7 O    PHE S   8       2.650  -8.935   8.900  1.00 30.84 LIG-0.29  OA
ENDBRANCH 5 6
BRANCH 5 8
ATOM      8  CB  PHE S   8       4.937  -8.063   7.698  1.00 24.81 LIG 0.07  C 
BRANCH 8 9
ATOM      9  CG  PHE S   8       6.264  -7.687   7.092  1.00 22.51 LIG-0.06  A 
ATOM     10  CD2 PHE S   8       6.664  -6.372   7.070  1.00 18.27 LIG 0.01  A 
ATOM     11  CE2 PHE S   8       7.901  -5.994   6.475  1.00 17.55 LIG 0.00  A 
ATOM     12  CZ  PHE S   8       8.710  -6.969   5.902  1.00 18.56 LIG 0.00  A 
ATOM     13  CE1 PHE S   8       8.303  -8.288   5.920  1.00 16.51 LIG 0.00  A 
ATOM     14  CD1 PHE S   8       7.081  -8.651   6.510  1.00 19.44 LIG 0.01  A 
ENDBRANCH 8 9
ENDBRANCH 5 8
ENDBRANCH 3 5
BRANCH 1 15
ATOM     15  CA  ALA S   7       5.077 -12.533   7.409  1.00 27.73 LIG 0.17  C 
ATOM     16  CB  ALA S   7       5.130 -12.672   5.859  1.00 27.93 LIG 0.04  C 
BRANCH 15 17
ATOM     17  N   ALA S   7       4.271 -13.627   7.965  1.00 29.72 LIG-0.35  N 
ATOM     18  C   ALA S   6       3.858 -13.705   9.242  1.00 32.34 LIG 0.26  C 
ATOM     19 O    ALA S   6       3.531 -12.716   9.906  1.00 32.82 LIG-0.27  OA
ATOM     20 H    ALA S   7       4.081 -14.230   7.382  1.00 29.72 LIG 0.16  HD
BRANCH 18 21
ATOM     21  CA  ALA S   6       3.682 -15.134   9.820  1.00 33.16 LIG 0.40  C 
ATOM     22  CB  ALA S   6       3.703 -15.106  11.351  1.00 32.96 LIG 0.06  C 
ATOM     23  N   ALA S   6       4.708 -16.136   9.334  1.00 33.36 LIG 0.61  N 
ENDBRANCH 18 21
ENDBRANCH 15 17
ENDBRANCH 1 15
TORSDOF 7
ENDMDL
MODEL 31
USER: ADFR SOLUTION from run 174
USER: SCORE 7.133371 LL:  -1.005 LR:  -6.287 RR:   0.000 FEB:  -4.199
USER: RMSD 6.988973
USER: SEED 173
USER: STATUS no improvement in best in 33 clusters for 5 generations
USER: GENES 9
USER: genes 0 Translation |==|  0.47739 0.55398 0.42287
USER: genes 1 Rotation |==|  0.40430 0.11539 0.19563 0.51673
USER: genes 2 Torsion [C]-N--CA-[C] |==|  0.63648
USER: genes 3 Torsion [N]-CA--C-[O] |==|  0.75059
USER: genes 4 Torsion [N]-CA--CB-[CG] |==|  0.67068
USER: genes 5 Torsion [CA]-CB--CG-[CD2] |==|  0.01550
USER: genes 6 Torsion [N]-C--CA-[N] |==|  0.34713
USER: genes 7 Torsion [C]-CA--N-[C] |==|  0.86530
USER: genes 8 Torsion [N]-C--CA-[N] |==|  0.16135
ROOT
ATOM      1  C   ALA S   7       0.644 -11.911   6.022  1.00 26.16 LIG 0.24  C 
ATOM      2 O    ALA S   7      -0.054 -12.404   6.907  1.00 23.62 LIG-0.27  OA
ATOM      3  N   PHE S   8       0.172 -11.104   5.079  1.00 26.19 LIG-0.35  N 
ATOM      4 H    PHE S   8       0.659 -10.768   4.455  1.00 26.19 LIG 0.16  HD
ENDROOT
BRANCH 3 5
ATOM      5  CA  PHE S   8      -1.229 -10.712   5.015  1.00 26.02 LIG 0.17  C 
BRANCH 5 6
ATOM      6  C   PHE S   8      -1.777 -10.908   3.614  1.00 27.74 LIG 0.22  C 
ATOM      7 O    PHE S   8      -1.701  -9.979   2.785  1.00 30.84 LIG-0.29  OA
ENDBRANCH 5 6
BRANCH 5 8
ATOM      8  CB  PHE S   8      -1.402  -9.245   5.374  1.00 24.81 LIG 0.07  C 
BRANCH 8 9
ATOM      9  CG  PHE S   8      -2.258  -9.008   6.590  1.00 22.51 LIG-0.06  A 
ATOM     10  CD2 PHE S   8      -2.709 -10.073   7.334  1.00 18.27 LIG 0.01  A 
ATOM     11  CE2 PHE S   8      -3.544  -9.870   8.469  1.00 17.55 LIG 0.00  A 
ATOM     12  CZ  PHE S   8      -3.915  -8.577   8.823  1.00 18.56 LIG 0.00  A 
ATOM     13  CE1 PHE S   8      -3.467  -7.511   8.070  1.00 16.51 LIG 0.00  A 
ATOM     14  CD1 PHE S   8      -2.642  -7.721   6.953  1.00 19.44 LIG 0.01  A 
ENDBRANCH 8 9
ENDBRANCH 5 8
ENDBRANCH 3 5
BRANCH 1 15
ATOM     15  CA  ALA S   7       2.145 -12.175   6.016  1.00 27.73 LIG 0.17  C 
ATOM     16  CB  ALA S   7       2.363 -13.671   5.645  1.00 27.93 LIG 0.04  C 
BRANCH 15 17
ATOM     17  N   ALA S   7       2.846 -11.881   7.272  1.00 29.72 LIG-0.35  N 
ATOM     18  C   ALA S   6       2.716 -10.743   7.976  1.00 32.34 LIG 0.26  C 
ATOM     19 O    ALA S   6       1.649 -10.127   8.070  1.00 32.82 LIG-0.27  OA
ATOM     20 H    ALA S   7       3.362 -12.521   7.524  1.00 29.72 LIG 0.16  HD
BRANCH 18 21
ATOM     21  CA  ALA S   6       3.957 -10.294   8.792  1.00 33.16 LIG 0.40  C 
ATOM     22  CB  ALA S   6       3.659  -9.011   9.572  1.00 32.96 LIG 0.06  C 
ATOM     23  N   ALA S   6       5.207 -10.084   7.963  1.00 33.36 LIG 0.61  N 
ENDBRANCH 18 21
ENDBRANCH 15 17
ENDBRANCH 1 15
TORSDOF 7
ENDMDL
MODEL 32
USER: ADFR SOLUTION from run 115
USER: SCORE 7.425659 LL:  -1.316 LR:  -6.275 RR:   0.000 FEB:  -4.187
USER: RMSD 7.876323
USER: SEED 114
USER: STATUS no improvement in best in 31 clusters for 5 generations
USER: GENES 9
USER: genes 0 Translation |==|  0.86393 0.65926 0.37405
USER: genes 1 Rotation |==|  0.59780 0.19868 0.31529 0.83989
USER: genes 2 Torsion [C]-N--CA-[C] |==|  0.50580
USER: genes 3 Torsion [N]-CA--C-[O] |==|  0.92496
USER: genes 4 Torsion [N]-CA--CB-[CG] |==|  0.14324
USER: genes 5 Torsion [CA]-CB--CG-[CD2] |==|  0.75109
USER: genes 6 Torsion [N]-C--CA-[N] |==|  0.39694
USER: genes 7 Torsion [C]-CA--N-[C] |==|  0.72778
USER: genes 8 Torsion [N]-C--CA-[N] |==|  0.81376
ROOT
ATOM      1  C   ALA S   7       7.312 -10.253   5.437  1.00 26.16 LIG 0.24  C 
ATOM      2 O    ALA S   7       8.236 -10.650   6.145  1.00 23.62 LIG-0.27  OA
ATOM      3  N   PHE S   8       6.189 -10.934   5.244  1.00 26.19 LIG-0.35  N 
ATOM      4 H    PHE S   8       5.547 -10.661   4.740  1.00 26.19 LIG 0.16  HD
ENDROOT
BRANCH 3 5
ATOM      5  CA  PHE S   8       5.938 -12.223   5.875  1.00 26.02 LIG 0.17  C 
BRANCH 5 6
ATOM      6  C   PHE S   8       4.601 -12.786   5.432  1.00 27.74 LIG 0.22  C 
ATOM      7 O    PHE S   8       3.693 -12.011   5.074  1.00 30.84 LIG-0.29  OA
ENDBRANCH 5 6
BRANCH 5 8
ATOM      8  CB  PHE S   8       5.901 -12.091   7.389  1.00 24.81 LIG 0.07  C 
BRANCH 8 9
ATOM      9  CG  PHE S   8       4.975 -11.013   7.888  1.00 22.51 LIG-0.06  A 
ATOM     10  CD2 PHE S   8       5.439  -9.731   8.062  1.00 18.27 LIG 0.01  A 
ATOM     11  CE2 PHE S   8       4.587  -8.706   8.562  1.00 17.55 LIG 0.00  A 
ATOM     12  CZ  PHE S   8       3.269  -9.011   8.886  1.00 18.56 LIG 0.00  A 
ATOM     13  CE1 PHE S   8       2.807 -10.300   8.717  1.00 16.51 LIG 0.00  A 
ATOM     14  CD1 PHE S   8       3.655 -11.305   8.221  1.00 19.44 LIG 0.01  A 
ENDBRANCH 8 9
ENDBRANCH 5 8
ENDBRANCH 3 5
BRANCH 1 15
ATOM     15  CA  ALA S   7       7.407  -8.882   4.777  1.00 27.73 LIG 0.17  C 
ATOM     16  CB  ALA S   7       8.132  -9.061   3.411  1.00 27.93 LIG 0.04  C 
BRANCH 15 17
ATOM     17  N   ALA S   7       8.098  -7.849   5.558  1.00 29.72 LIG-0.35  N 
ATOM     18  C   ALA S   6       7.487  -6.920   6.314  1.00 32.34 LIG 0.26  C 
ATOM     19 O    ALA S   6       6.452  -7.143   6.951  1.00 32.82 LIG-0.27  OA
ATOM     20 H    ALA S   7       8.954  -7.893   5.487  1.00 29.72 LIG 0.16  HD
BRANCH 18 21
ATOM     21  CA  ALA S   6       8.223  -5.562   6.461  1.00 33.16 LIG 0.40  C 
ATOM     22  CB  ALA S   6       8.499  -4.943   5.088  1.00 32.96 LIG 0.06  C 
ATOM     23  N   ALA S   6       9.522  -5.636   7.236  1.00 33.36 LIG 0.61  N 
ENDBRANCH 18 21
ENDBRANCH 15 17
ENDBRANCH 1 15
TORSDOF 7
ENDMDL
MODEL 33
USER: ADFR SOLUTION from run 172
USER: SCORE 6.786626 LL:  -0.798 LR:  -6.262 RR:   0.000 FEB:  -4.174
USER: RMSD 6.798899
USER: SEED 171
USER: STATUS no improvement in best in 30 clusters for 5 generations
USER: GENES 9
USER: genes 0 Translation |==|  0.70531 0.71501 0.61071
USER: genes 1 Rotation |==|  0.90264 0.58922 0.65648 0.73545
USER: genes 2 Torsion [C]-N--CA-[C] |==|  0.80738
USER: genes 3 Torsion [N]-CA--C-[O] |==|  0.40595
USER: genes 4 Torsion [N]-CA--CB-[CG] |==|  0.39113
USER: genes 5 Torsion [CA]-CB--CG-[CD2] |==|  0.69350
USER: genes 6 Torsion [N]-C--CA-[N] |==|  0.26951
USER: genes 7 Torsion [C]-CA--N-[C] |==|  0.75000
USER: genes 8 Torsion [N]-C--CA-[N] |==|  0.55768
ROOT
ATOM      1  C   ALA S   7       4.576  -9.375   8.277  1.00 26.16 LIG 0.24  C 
ATOM      2 O    ALA S   7       4.591  -8.636   9.260  1.00 23.62 LIG-0.27  OA
ATOM      3  N   PHE S   8       5.477  -9.321   7.303  1.00 26.19 LIG-0.35  N 
ATOM      4 H    PHE S   8       5.460  -9.830   6.611  1.00 26.19 LIG 0.16  HD
ENDROOT
BRANCH 3 5
ATOM      5  CA  PHE S   8       6.591  -8.382   7.321  1.00 26.02 LIG 0.17  C 
BRANCH 5 6
ATOM      6  C   PHE S   8       6.097  -6.961   7.126  1.00 27.74 LIG 0.22  C 
ATOM      7 O    PHE S   8       6.680  -6.020   7.698  1.00 30.84 LIG-0.29  OA
ENDBRANCH 5 6
BRANCH 5 8
ATOM      8  CB  PHE S   8       7.576  -8.682   6.203  1.00 24.81 LIG 0.07  C 
BRANCH 8 9
ATOM      9  CG  PHE S   8       8.141  -7.454   5.537  1.00 22.51 LIG-0.06  A 
ATOM     10  CD2 PHE S   8       7.786  -7.145   4.246  1.00 18.27 LIG 0.01  A 
ATOM     11  CE2 PHE S   8       8.334  -6.006   3.590  1.00 17.55 LIG 0.00  A 
ATOM     12  CZ  PHE S   8       9.246  -5.202   4.265  1.00 18.56 LIG 0.00  A 
ATOM     13  CE1 PHE S   8       9.607  -5.519   5.558  1.00 16.51 LIG 0.00  A 
ATOM     14  CD1 PHE S   8       9.060  -6.644   6.198  1.00 19.44 LIG 0.01  A 
ENDBRANCH 8 9
ENDBRANCH 5 8
ENDBRANCH 3 5
BRANCH 1 15
ATOM     15  CA  ALA S   7       3.510 -10.459   8.168  1.00 27.73 LIG 0.17  C 
ATOM     16  CB  ALA S   7       2.158  -9.845   8.636  1.00 27.93 LIG 0.04  C 
BRANCH 15 17
ATOM     17  N   ALA S   7       3.773 -11.685   8.932  1.00 29.72 LIG-0.35  N 
ATOM     18  C   ALA S   6       4.436 -12.756   8.461  1.00 32.34 LIG 0.26  C 
ATOM     19 O    ALA S   6       5.393 -12.668   7.684  1.00 32.82 LIG-0.27  OA
ATOM     20 H    ALA S   7       3.456 -11.656   9.730  1.00 29.72 LIG 0.16  HD
BRANCH 18 21
ATOM     21  CA  ALA S   6       4.024 -14.132   9.048  1.00 33.16 LIG 0.40  C 
ATOM     22  CB  ALA S   6       3.659 -14.002  10.529  1.00 32.96 LIG 0.06  C 
ATOM     23  N   ALA S   6       5.070 -15.215   8.893  1.00 33.36 LIG 0.61  N 
ENDBRANCH 18 21
ENDBRANCH 15 17
ENDBRANCH 1 15
TORSDOF 7
ENDMDL
MODEL 34
USER: ADFR SOLUTION from run 197
USER: SCORE 6.874080 LL:  -0.887 LR:  -6.248 RR:   0.000 FEB:  -4.160
USER: RMSD 4.251968
USER: SEED 196
USER: STATUS no improvement in best in 38 clusters for 5 generations
USER: GENES 9
USER: genes 0 Translation |==|  0.39126 0.67944 0.43896
USER: genes 1 Rotation |==|  0.90718 0.24253 0.61165 0.57380
USER: genes 2 Torsion [C]-N--CA-[C] |==|  0.20451
USER: genes 3 Torsion [N]-CA--C-[O] |==|  0.56846
USER: genes 4 Torsion [N]-CA--CB-[CG] |==|  0.68786
USER: genes 5 Torsion [CA]-CB--CG-[CD2] |==|  0.39275
USER: genes 6 Torsion [N]-C--CA-[N] |==|  0.22598
USER: genes 7 Torsion [C]-CA--N-[C] |==|  0.77778
USER: genes 8 Torsion [N]-C--CA-[N] |==|  0.73865
ROOT
ATOM      1  C   ALA S   7      -0.842  -9.935   6.216  1.00 26.16 LIG 0.24  C 
ATOM      2 O    ALA S   7      -1.175 -10.354   7.323  1.00 23.62 LIG-0.27  OA
ATOM      3  N   PHE S   8       0.287 -10.281   5.608  1.00 26.19 LIG-0.35  N 
ATOM      4 H    PHE S   8       0.524  -9.980   4.839  1.00 26.19 LIG 0.16  HD
ENDROOT
BRANCH 3 5
ATOM      5  CA  PHE S   8       1.238 -11.214   6.198  1.00 26.02 LIG 0.17  C 
BRANCH 5 6
ATOM      6  C   PHE S   8       0.707 -12.634   6.130  1.00 27.74 LIG 0.22  C 
ATOM      7 O    PHE S   8       1.110 -13.484   6.948  1.00 30.84 LIG-0.29  OA
ENDBRANCH 5 6
BRANCH 5 8
ATOM      8  CB  PHE S   8       1.488 -10.887   7.661  1.00 24.81 LIG 0.07  C 
BRANCH 8 9
ATOM      9  CG  PHE S   8       2.882 -10.393   7.949  1.00 22.51 LIG-0.06  A 
ATOM     10  CD2 PHE S   8       3.081  -9.386   8.863  1.00 18.27 LIG 0.01  A 
ATOM     11  CE2 PHE S   8       4.387  -8.885   9.126  1.00 17.55 LIG 0.00  A 
ATOM     12  CZ  PHE S   8       5.474  -9.418   8.441  1.00 18.56 LIG 0.00  A 
ATOM     13  CE1 PHE S   8       5.270 -10.423   7.518  1.00 16.51 LIG 0.00  A 
ATOM     14  CD1 PHE S   8       3.978 -10.913   7.267  1.00 19.44 LIG 0.01  A 
ENDBRANCH 8 9
ENDBRANCH 5 8
ENDBRANCH 3 5
BRANCH 1 15
ATOM     15  CA  ALA S   7      -1.781  -9.011   5.448  1.00 27.73 LIG 0.17  C 
ATOM     16  CB  ALA S   7      -2.670  -8.267   6.488  1.00 27.93 LIG 0.04  C 
BRANCH 15 17
ATOM     17  N   ALA S   7      -2.643  -9.666   4.456  1.00 29.72 LIG-0.35  N 
ATOM     18  C   ALA S   6      -2.253 -10.032   3.223  1.00 32.34 LIG 0.26  C 
ATOM     19 O    ALA S   6      -1.121 -10.458   2.973  1.00 32.82 LIG-0.27  OA
ATOM     20 H    ALA S   7      -3.442  -9.797   4.744  1.00 29.72 LIG 0.16  HD
BRANCH 18 21
ATOM     21  CA  ALA S   6      -3.349 -10.020   2.124  1.00 33.16 LIG 0.40  C 
ATOM     22  CB  ALA S   6      -4.414  -8.963   2.432  1.00 32.96 LIG 0.06  C 
ATOM     23  N   ALA S   6      -4.031 -11.354   1.908  1.00 33.36 LIG 0.61  N 
ENDBRANCH 18 21
ENDBRANCH 15 17
ENDBRANCH 1 15
TORSDOF 7
ENDMDL
MODEL 35
USER: ADFR SOLUTION from run 192
USER: SCORE 6.426719 LL:  -0.864 LR:  -6.234 RR:   0.000 FEB:  -4.145
USER: RMSD 6.454643
USER: SEED 191
USER: STATUS no improvement in best in 29 clusters for 5 generations
USER: GENES 9
USER: genes 0 Translation |==|  0.54998 0.65342 0.55679
USER: genes 1 Rotation |==|  0.73473 0.65113 0.13557 0.69813
USER: genes 2 Torsion [C]-N--CA-[C] |==|  0.11332
USER: genes 3 Torsion [N]-CA--C-[O] |==|  0.45782
USER: genes 4 Torsion [N]-CA--CB-[CG] |==|  0.80030
USER: genes 5 Torsion [CA]-CB--CG-[CD2] |==|  0.94117
USER: genes 6 Torsion [N]-C--CA-[N] |==|  0.21497
USER: genes 7 Torsion [C]-CA--N-[C] |==|  0.14936
USER: genes 8 Torsion [N]-C--CA-[N] |==|  0.52746
ROOT
ATOM      1  C   ALA S   7       1.896 -10.345   7.630  1.00 26.16 LIG 0.24  C 
ATOM      2 O    ALA S   7       2.496 -10.151   6.573  1.00 23.62 LIG-0.27  OA
ATOM      3  N   PHE S   8       0.637 -10.760   7.693  1.00 26.19 LIG-0.35  N 
ATOM      4 H    PHE S   8       0.215 -10.886   8.432  1.00 26.19 LIG 0.16  HD
ENDROOT
BRANCH 3 5
ATOM      5  CA  PHE S   8      -0.154 -11.045   6.503  1.00 26.02 LIG 0.17  C 
BRANCH 5 6
ATOM      6  C   PHE S   8       0.684 -11.765   5.463  1.00 27.74 LIG 0.22  C 
ATOM      7 O    PHE S   8       0.125 -12.339   4.508  1.00 30.84 LIG-0.29  OA
ENDBRANCH 5 6
BRANCH 5 8
ATOM      8  CB  PHE S   8      -0.669  -9.763   5.870  1.00 24.81 LIG 0.07  C 
BRANCH 8 9
ATOM      9  CG  PHE S   8      -1.764  -9.089   6.655  1.00 22.51 LIG-0.06  A 
ATOM     10  CD2 PHE S   8      -2.507  -9.808   7.560  1.00 18.27 LIG 0.01  A 
ATOM     11  CE2 PHE S   8      -3.566  -9.195   8.288  1.00 17.55 LIG 0.00  A 
ATOM     12  CZ  PHE S   8      -3.855  -7.852   8.073  1.00 18.56 LIG 0.00  A 
ATOM     13  CE1 PHE S   8      -3.112  -7.134   7.158  1.00 16.51 LIG 0.00  A 
ATOM     14  CD1 PHE S   8      -2.069  -7.747   6.445  1.00 19.44 LIG 0.01  A 
ENDBRANCH 8 9
ENDBRANCH 5 8
ENDBRANCH 3 5
BRANCH 1 15
ATOM     15  CA  ALA S   7       2.629 -10.161   8.954  1.00 27.73 LIG 0.17  C 
ATOM     16  CB  ALA S   7       3.844  -9.222   8.699  1.00 27.93 LIG 0.04  C 
BRANCH 15 17
ATOM     17  N   ALA S   7       3.098 -11.396   9.594  1.00 29.72 LIG-0.35  N 
ATOM     18  C   ALA S   6       3.869 -12.324   9.001  1.00 32.34 LIG 0.26  C 
ATOM     19 O    ALA S   6       4.758 -12.043   8.190  1.00 32.82 LIG-0.27  OA
ATOM     20 H    ALA S   7       2.828 -11.475  10.406  1.00 29.72 LIG 0.16  HD
BRANCH 18 21
ATOM     21  CA  ALA S   6       3.680 -13.786   9.485  1.00 33.16 LIG 0.40  C 
ATOM     22  CB  ALA S   6       3.659 -13.853  11.015  1.00 32.96 LIG 0.06  C 
ATOM     23  N   ALA S   6       4.721 -14.755   8.966  1.00 33.36 LIG 0.61  N 
ENDBRANCH 18 21
ENDBRANCH 15 17
ENDBRANCH 1 15
TORSDOF 7
ENDMDL
MODEL 36
USER: ADFR SOLUTION from run 198
USER: SCORE 6.769409 LL:  -0.888 LR:  -6.167 RR:   0.000 FEB:  -4.079
USER: RMSD 4.406610
USER: SEED 197
USER: STATUS no improvement in best in 28 clusters for 5 generations
USER: GENES 9
USER: genes 0 Translation |==|  0.55307 0.57585 0.46254
USER: genes 1 Rotation |==|  0.26739 0.41396 0.55261 0.93096
USER: genes 2 Torsion [C]-N--CA-[C] |==|  0.20746
USER: genes 3 Torsion [N]-CA--C-[O] |==|  0.39711
USER: genes 4 Torsion [N]-CA--CB-[CG] |==|  0.77366
USER: genes 5 Torsion [CA]-CB--CG-[CD2] |==|  0.90862
USER: genes 6 Torsion [N]-C--CA-[N] |==|  0.22758
USER: genes 7 Torsion [C]-CA--N-[C] |==|  0.74802
USER: genes 8 Torsion [N]-C--CA-[N] |==|  0.21001
ROOT
ATOM      1  C   ALA S   7       1.949 -11.566   6.498  1.00 26.16 LIG 0.24  C 
ATOM      2 O    ALA S   7       2.972 -11.664   5.822  1.00 23.62 LIG-0.27  OA
ATOM      3  N   PHE S   8       1.946 -11.213   7.778  1.00 26.19 LIG-0.35  N 
ATOM      4 H    PHE S   8       1.232 -11.154   8.253  1.00 26.19 LIG 0.16  HD
ENDROOT
BRANCH 3 5
ATOM      5  CA  PHE S   8       3.168 -10.888   8.503  1.00 26.02 LIG 0.17  C 
BRANCH 5 6
ATOM      6  C   PHE S   8       3.683  -9.520   8.097  1.00 27.74 LIG 0.22  C 
ATOM      7 O    PHE S   8       4.203  -8.777   8.952  1.00 30.84 LIG-0.29  OA
ENDBRANCH 5 6
BRANCH 5 8
ATOM      8  CB  PHE S   8       4.263 -11.898   8.207  1.00 24.81 LIG 0.07  C 
BRANCH 8 9
ATOM      9  CG  PHE S   8       4.160 -13.168   9.011  1.00 22.51 LIG-0.06  A 
ATOM     10  CD2 PHE S   8       3.662 -13.135  10.291  1.00 18.27 LIG 0.01  A 
ATOM     11  CE2 PHE S   8       3.585 -14.320  11.077  1.00 17.55 LIG 0.00  A 
ATOM     12  CZ  PHE S   8       4.030 -15.524  10.542  1.00 18.56 LIG 0.00  A 
ATOM     13  CE1 PHE S   8       4.537 -15.553   9.259  1.00 16.51 LIG 0.00  A 
ATOM     14  CD1 PHE S   8       4.607 -14.380   8.491  1.00 19.44 LIG 0.01  A 
ENDBRANCH 8 9
ENDBRANCH 5 8
ENDBRANCH 3 5
BRANCH 1 15
ATOM     15  CA  ALA S   7       0.592 -11.801   5.846  1.00 27.73 LIG 0.17  C 
ATOM     16  CB  ALA S   7       0.805 -12.761   4.638  1.00 27.93 LIG 0.04  C 
BRANCH 15 17
ATOM     17  N   ALA S   7      -0.107 -10.595   5.386  1.00 29.72 LIG-0.35  N 
ATOM     18  C   ALA S   6      -0.973  -9.880   6.126  1.00 32.34 LIG 0.26  C 
ATOM     19 O    ALA S   6      -0.841  -9.712   7.342  1.00 32.82 LIG-0.27  OA
ATOM     20 H    ALA S   7       0.092 -10.381   4.578  1.00 29.72 LIG 0.16  HD
BRANCH 18 21
ATOM     21  CA  ALA S   6      -2.101  -9.150   5.349  1.00 33.16 LIG 0.40  C 
ATOM     22  CB  ALA S   6      -2.707  -8.030   6.199  1.00 32.96 LIG 0.06  C 
ATOM     23  N   ALA S   6      -3.213 -10.056   4.865  1.00 33.36 LIG 0.61  N 
ENDBRANCH 18 21
ENDBRANCH 15 17
ENDBRANCH 1 15
TORSDOF 7
ENDMDL
MODEL 37
USER: ADFR SOLUTION from run 95
USER: SCORE 7.016845 LL:  -0.885 LR:  -6.169 RR:   0.000 FEB:  -4.081
USER: RMSD 2.520674
USER: SEED 94
USER: STATUS no improvement in best in 31 clusters for 5 generations
USER: GENES 9
USER: genes 0 Translation |==|  0.43204 0.48424 0.39348
USER: genes 1 Rotation |==|  0.32364 0.52764 0.66987 0.93506
USER: genes 2 Torsion [C]-N--CA-[C] |==|  0.85208
USER: genes 3 Torsion [N]-CA--C-[O] |==|  0.34355
USER: genes 4 Torsion [N]-CA--CB-[CG] |==|  0.56495
USER: genes 5 Torsion [CA]-CB--CG-[CD2] |==|  0.29416
USER: genes 6 Torsion [N]-C--CA-[N] |==|  0.95515
USER: genes 7 Torsion [C]-CA--N-[C] |==|  0.81109
USER: genes 8 Torsion [N]-C--CA-[N] |==|  0.61493
ROOT
ATOM      1  C   ALA S   7      -0.138 -13.009   5.670  1.00 26.16 LIG 0.24  C 
ATOM      2 O    ALA S   7       0.259 -12.862   4.515  1.00 23.62 LIG-0.27  OA
ATOM      3  N   PHE S   8       0.568 -12.661   6.739  1.00 26.19 LIG-0.35  N 
ATOM      4 H    PHE S   8       0.294 -12.773   7.546  1.00 26.19 LIG 0.16  HD
ENDROOT
BRANCH 3 5
ATOM      5  CA  PHE S   8       1.887 -12.050   6.640  1.00 26.02 LIG 0.17  C 
BRANCH 5 6
ATOM      6  C   PHE S   8       2.804 -12.894   5.776  1.00 27.74 LIG 0.22  C 
ATOM      7 O    PHE S   8       3.355 -12.385   4.780  1.00 30.84 LIG-0.29  OA
ENDBRANCH 5 6
BRANCH 5 8
ATOM      8  CB  PHE S   8       2.534 -11.923   8.009  1.00 24.81 LIG 0.07  C 
BRANCH 8 9
ATOM      9  CG  PHE S   8       3.589 -10.851   8.092  1.00 22.51 LIG-0.06  A 
ATOM     10  CD2 PHE S   8       3.325  -9.673   8.749  1.00 18.27 LIG 0.01  A 
ATOM     11  CE2 PHE S   8       4.298  -8.636   8.811  1.00 17.55 LIG 0.00  A 
ATOM     12  CZ  PHE S   8       5.530  -8.817   8.190  1.00 18.56 LIG 0.00  A 
ATOM     13  CE1 PHE S   8       5.789  -9.997   7.524  1.00 16.51 LIG 0.00  A 
ATOM     14  CD1 PHE S   8       4.823 -11.015   7.470  1.00 19.44 LIG 0.01  A 
ENDBRANCH 8 9
ENDBRANCH 5 8
ENDBRANCH 3 5
BRANCH 1 15
ATOM     15  CA  ALA S   7      -1.536 -13.565   5.919  1.00 27.73 LIG 0.17  C 
ATOM     16  CB  ALA S   7      -2.563 -12.468   5.513  1.00 27.93 LIG 0.04  C 
BRANCH 15 17
ATOM     17  N   ALA S   7      -1.810 -13.998   7.295  1.00 29.72 LIG-0.35  N 
ATOM     18  C   ALA S   6      -1.237 -15.055   7.896  1.00 32.34 LIG 0.26  C 
ATOM     19 O    ALA S   6      -0.064 -15.389   7.698  1.00 32.82 LIG-0.27  OA
ATOM     20 H    ALA S   7      -2.386 -13.499   7.693  1.00 29.72 LIG 0.16  HD
BRANCH 18 21
ATOM     21  CA  ALA S   6      -2.090 -15.779   8.971  1.00 33.16 LIG 0.40  C 
ATOM     22  CB  ALA S   6      -3.280 -14.912   9.394  1.00 32.96 LIG 0.06  C 
ATOM     23  N   ALA S   6      -1.319 -16.190  10.208  1.00 33.36 LIG 0.61  N 
ENDBRANCH 18 21
ENDBRANCH 15 17
ENDBRANCH 1 15
TORSDOF 7
ENDMDL
MODEL 38
USER: ADFR SOLUTION from run 136
USER: SCORE 6.890818 LL:  -1.031 LR:  -6.158 RR:   0.000 FEB:  -4.070
USER: RMSD 6.905515
USER: SEED 135
USER: STATUS no improvement in best in 38 clusters for 5 generations
USER: GENES 9
USER: genes 0 Translation |==|  0.68085 0.62163 0.59482
USER: genes 1 Rotation |==|  0.34585 0.93143 0.41935 0.68332
USER: genes 2 Torsion [C]-N--CA-[C] |==|  0.20547
USER: genes 3 Torsion [N]-CA--C-[O] |==|  0.83822
USER: genes 4 Torsion [N]-CA--CB-[CG] |==|  0.78708
USER: genes 5 Torsion [CA]-CB--CG-[CD2] |==|  0.76424
USER: genes 6 Torsion [N]-C--CA-[N] |==|  0.20367
USER: genes 7 Torsion [C]-CA--N-[C] |==|  0.79443
USER: genes 8 Torsion [N]-C--CA-[N] |==|  0.65675
ROOT
ATOM      1  C   ALA S   7       4.154 -10.845   8.086  1.00 26.16 LIG 0.24  C 
ATOM      2 O    ALA S   7       2.931 -10.932   7.984  1.00 23.62 LIG-0.27  OA
ATOM      3  N   PHE S   8       4.992 -11.802   7.705  1.00 26.19 LIG-0.35  N 
ATOM      4 H    PHE S   8       5.846 -11.746   7.786  1.00 26.19 LIG 0.16  HD
ENDROOT
BRANCH 3 5
ATOM      5  CA  PHE S   8       4.534 -13.051   7.109  1.00 26.02 LIG 0.17  C 
BRANCH 5 6
ATOM      6  C   PHE S   8       4.074 -12.825   5.681  1.00 27.74 LIG 0.22  C 
ATOM      7 O    PHE S   8       3.160 -12.011   5.448  1.00 30.84 LIG-0.29  OA
ENDBRANCH 5 6
BRANCH 5 8
ATOM      8  CB  PHE S   8       3.361 -13.628   7.884  1.00 24.81 LIG 0.07  C 
BRANCH 8 9
ATOM      9  CG  PHE S   8       3.749 -14.298   9.176  1.00 22.51 LIG-0.06  A 
ATOM     10  CD2 PHE S   8       4.157 -15.611   9.176  1.00 18.27 LIG 0.01  A 
ATOM     11  CE2 PHE S   8       4.498 -16.270  10.391  1.00 17.55 LIG 0.00  A 
ATOM     12  CZ  PHE S   8       4.409 -15.576  11.593  1.00 18.56 LIG 0.00  A 
ATOM     13  CE1 PHE S   8       3.992 -14.261  11.591  1.00 16.51 LIG 0.00  A 
ATOM     14  CD1 PHE S   8       3.659 -13.618  10.387  1.00 19.44 LIG 0.01  A 
ENDBRANCH 8 9
ENDBRANCH 5 8
ENDBRANCH 3 5
BRANCH 1 15
ATOM     15  CA  ALA S   7       4.774  -9.560   8.620  1.00 27.73 LIG 0.17  C 
ATOM     16  CB  ALA S   7       3.659  -8.768   9.365  1.00 27.93 LIG 0.04  C 
BRANCH 15 17
ATOM     17  N   ALA S   7       5.395  -8.689   7.614  1.00 29.72 LIG-0.35  N 
ATOM     18  C   ALA S   6       6.569  -8.935   7.005  1.00 32.34 LIG 0.26  C 
ATOM     19 O    ALA S   6       6.945 -10.071   6.701  1.00 32.82 LIG-0.27  OA
ATOM     20 H    ALA S   7       4.927  -7.989   7.445  1.00 29.72 LIG 0.16  HD
BRANCH 18 21
ATOM     21  CA  ALA S   6       7.391  -7.692   6.574  1.00 33.16 LIG 0.40  C 
ATOM     22  CB  ALA S   6       6.659  -6.400   6.948  1.00 32.96 LIG 0.06  C 
ATOM     23  N   ALA S   6       7.735  -7.651   5.100  1.00 33.36 LIG 0.61  N 
ENDBRANCH 18 21
ENDBRANCH 15 17
ENDBRANCH 1 15
TORSDOF 7
ENDMDL
MODEL 39
USER: ADFR SOLUTION from run 87
USER: SCORE 7.070549 LL:  -1.002 LR:  -6.147 RR:   0.000 FEB:  -4.059
USER: RMSD 4.467143
USER: SEED 86
USER: STATUS no improvement in best in 35 clusters for 5 generations
USER: GENES 9
USER: genes 0 Translation |==|  0.30597 0.70459 0.52675
USER: genes 1 Rotation |==|  0.68134 0.60264 0.59558 0.94435
USER: genes 2 Torsion [C]-N--CA-[C] |==|  0.77006
USER: genes 3 Torsion [N]-CA--C-[O] |==|  0.17355
USER: genes 4 Torsion [N]-CA--CB-[CG] |==|  0.64075
USER: genes 5 Torsion [CA]-CB--CG-[CD2] |==|  0.65496
USER: genes 6 Torsion [N]-C--CA-[N] |==|  0.99681
USER: genes 7 Torsion [C]-CA--N-[C] |==|  0.77667
USER: genes 8 Torsion [N]-C--CA-[N] |==|  0.45425
ROOT
ATOM      1  C   ALA S   7      -2.313  -9.539   7.269  1.00 26.16 LIG 0.24  C 
ATOM      2 O    ALA S   7      -2.170  -8.369   6.914  1.00 23.62 LIG-0.27  OA
ATOM      3  N   PHE S   8      -1.367 -10.463   7.150  1.00 26.19 LIG-0.35  N 
ATOM      4 H    PHE S   8      -1.471 -11.282   7.390  1.00 26.19 LIG 0.16  HD
ENDROOT
BRANCH 3 5
ATOM      5  CA  PHE S   8      -0.052 -10.169   6.597  1.00 26.02 LIG 0.17  C 
BRANCH 5 6
ATOM      6  C   PHE S   8      -0.088 -10.208   5.081  1.00 27.74 LIG 0.22  C 
ATOM      7 O    PHE S   8      -0.806  -9.401   4.459  1.00 30.84 LIG-0.29  OA
ENDBRANCH 5 6
BRANCH 5 8
ATOM      8  CB  PHE S   8       0.975 -11.191   7.058  1.00 24.81 LIG 0.07  C 
BRANCH 8 9
ATOM      9  CG  PHE S   8       2.227 -10.584   7.635  1.00 22.51 LIG-0.06  A 
ATOM     10  CD2 PHE S   8       3.456 -10.911   7.112  1.00 18.27 LIG 0.01  A 
ATOM     11  CE2 PHE S   8       4.652 -10.371   7.664  1.00 17.55 LIG 0.00  A 
ATOM     12  CZ  PHE S   8       4.574  -9.508   8.751  1.00 18.56 LIG 0.00  A 
ATOM     13  CE1 PHE S   8       3.340  -9.187   9.279  1.00 16.51 LIG 0.00  A 
ATOM     14  CD1 PHE S   8       2.165  -9.723   8.727  1.00 19.44 LIG 0.01  A 
ENDBRANCH 8 9
ENDBRANCH 5 8
ENDBRANCH 3 5
BRANCH 1 15
ATOM     15  CA  ALA S   7      -3.614  -9.967   7.938  1.00 27.73 LIG 0.17  C 
ATOM     16  CB  ALA S   7      -3.832  -9.054   9.181  1.00 27.93 LIG 0.04  C 
BRANCH 15 17
ATOM     17  N   ALA S   7      -3.680 -11.373   8.354  1.00 29.72 LIG-0.35  N 
ATOM     18  C   ALA S   6      -3.955 -12.404   7.536  1.00 32.34 LIG 0.26  C 
ATOM     19 O    ALA S   6      -3.579 -12.450   6.360  1.00 32.82 LIG-0.27  OA
ATOM     20 H    ALA S   7      -3.522 -11.481   9.192  1.00 29.72 LIG 0.16  HD
BRANCH 18 21
ATOM     21  CA  ALA S   6      -4.670 -13.621   8.181  1.00 33.16 LIG 0.40  C 
ATOM     22  CB  ALA S   6      -3.705 -14.408   9.072  1.00 32.96 LIG 0.06  C 
ATOM     23  N   ALA S   6      -5.306 -14.570   7.188  1.00 33.36 LIG 0.61  N 
ENDBRANCH 18 21
ENDBRANCH 15 17
ENDBRANCH 1 15
TORSDOF 7
ENDMDL
MODEL 40
USER: ADFR SOLUTION from run 78
USER: SCORE 6.643124 LL:  -1.320 LR:  -6.075 RR:   0.000 FEB:  -3.987
USER: RMSD 2.900150
USER: SEED 77
USER: STATUS no improvement in best in 43 clusters for 5 generations
USER: GENES 9
USER: genes 0 Translation |==|  0.53434 0.54479 0.40873
USER: genes 1 Rotation |==|  0.45818 0.46802 0.41160 0.98930
USER: genes 2 Torsion [C]-N--CA-[C] |==|  0.63657
USER: genes 3 Torsion [N]-CA--C-[O] |==|  0.97196
USER: genes 4 Torsion [N]-CA--CB-[CG] |==|  0.86180
USER: genes 5 Torsion [CA]-CB--CG-[CD2] |==|  0.28487
USER: genes 6 Torsion [N]-C--CA-[N] |==|  0.63202
USER: genes 7 Torsion [C]-CA--N-[C] |==|  0.16039
USER: genes 8 Torsion [N]-C--CA-[N] |==|  0.56803
ROOT
ATOM      1  C   ALA S   7       1.626 -12.056   5.853  1.00 26.16 LIG 0.24  C 
ATOM      2 O    ALA S   7       2.598 -12.013   5.099  1.00 23.62 LIG-0.27  OA
ATOM      3  N   PHE S   8       1.570 -12.821   6.936  1.00 26.19 LIG-0.35  N 
ATOM      4 H    PHE S   8       0.887 -12.858   7.457  1.00 26.19 LIG 0.16  HD
ENDROOT
BRANCH 3 5
ATOM      5  CA  PHE S   8       2.674 -13.679   7.345  1.00 26.02 LIG 0.17  C 
BRANCH 5 6
ATOM      6  C   PHE S   8       2.181 -15.083   7.639  1.00 27.74 LIG 0.22  C 
ATOM      7 O    PHE S   8       0.956 -15.308   7.698  1.00 30.84 LIG-0.29  OA
ENDBRANCH 5 6
BRANCH 5 8
ATOM      8  CB  PHE S   8       3.336 -13.152   8.608  1.00 24.81 LIG 0.07  C 
BRANCH 8 9
ATOM      9  CG  PHE S   8       3.691 -11.688   8.549  1.00 22.51 LIG-0.06  A 
ATOM     10  CD2 PHE S   8       2.907 -10.762   9.195  1.00 18.27 LIG 0.01  A 
ATOM     11  CE2 PHE S   8       3.209  -9.373   9.125  1.00 17.55 LIG 0.00  A 
ATOM     12  CZ  PHE S   8       4.308  -8.949   8.386  1.00 18.56 LIG 0.00  A 
ATOM     13  CE1 PHE S   8       5.088  -9.880   7.732  1.00 16.51 LIG 0.00  A 
ATOM     14  CD1 PHE S   8       4.784 -11.249   7.807  1.00 19.44 LIG 0.01  A 
ENDBRANCH 8 9
ENDBRANCH 5 8
ENDBRANCH 3 5
BRANCH 1 15
ATOM     15  CA  ALA S   7       0.430 -11.149   5.588  1.00 27.73 LIG 0.17  C 
ATOM     16  CB  ALA S   7      -0.704 -11.558   6.573  1.00 27.93 LIG 0.04  C 
BRANCH 15 17
ATOM     17  N   ALA S   7      -0.091 -11.172   4.215  1.00 29.72 LIG-0.35  N 
ATOM     18  C   ALA S   6      -0.529 -12.273   3.579  1.00 32.34 LIG 0.26  C 
ATOM     19 O    ALA S   6      -1.133 -13.186   4.150  1.00 32.82 LIG-0.27  OA
ATOM     20 H    ALA S   7      -0.090 -10.397   3.845  1.00 29.72 LIG 0.16  HD
BRANCH 18 21
ATOM     21  CA  ALA S   6      -0.356 -12.289   2.037  1.00 33.16 LIG 0.40  C 
ATOM     22  CB  ALA S   6      -0.472 -10.873   1.463  1.00 32.96 LIG 0.06  C 
ATOM     23  N   ALA S   6      -1.327 -13.194   1.309  1.00 33.36 LIG 0.61  N 
ENDBRANCH 18 21
ENDBRANCH 15 17
ENDBRANCH 1 15
TORSDOF 7
ENDMDL
MODEL 41
USER: ADFR SOLUTION from run 46
USER: SCORE 6.641213 LL:  -0.865 LR:  -6.066 RR:   0.000 FEB:  -3.978
USER: RMSD 6.862370
USER: SEED 45
USER: STATUS no improvement in best in 33 clusters for 5 generations
USER: GENES 9
USER: genes 0 Translation |==|  0.69558 0.55488 0.63197
USER: genes 1 Rotation |==|  0.83905 0.70510 0.80333 0.53108
USER: genes 2 Torsion [C]-N--CA-[C] |==|  0.88961
USER: genes 3 Torsion [N]-CA--C-[O] |==|  0.83985
USER: genes 4 Torsion [N]-CA--CB-[CG] |==|  0.81060
USER: genes 5 Torsion [CA]-CB--CG-[CD2] |==|  0.12634
USER: genes 6 Torsion [N]-C--CA-[N] |==|  0.21424
USER: genes 7 Torsion [C]-CA--N-[C] |==|  0.74456
USER: genes 8 Torsion [N]-C--CA-[N] |==|  0.57410
ROOT
ATOM      1  C   ALA S   7       4.408 -11.897   8.532  1.00 26.16 LIG 0.24  C 
ATOM      2 O    ALA S   7       3.870 -12.071   9.624  1.00 23.62 LIG-0.27  OA
ATOM      3  N   PHE S   8       4.763 -10.703   8.070  1.00 26.19 LIG-0.35  N 
ATOM      4 H    PHE S   8       5.130 -10.581   7.302  1.00 26.19 LIG 0.16  HD
ENDROOT
BRANCH 3 5
ATOM      5  CA  PHE S   8       4.562  -9.479   8.833  1.00 26.02 LIG 0.17  C 
BRANCH 5 6
ATOM      6  C   PHE S   8       3.226  -9.508   9.551  1.00 27.74 LIG 0.22  C 
ATOM      7 O    PHE S   8       2.176  -9.658   8.896  1.00 30.84 LIG-0.29  OA
ENDBRANCH 5 6
BRANCH 5 8
ATOM      8  CB  PHE S   8       4.567  -8.262   7.923  1.00 24.81 LIG 0.07  C 
BRANCH 8 9
ATOM      9  CG  PHE S   8       5.909  -7.963   7.307  1.00 22.51 LIG-0.06  A 
ATOM     10  CD2 PHE S   8       6.657  -8.976   6.757  1.00 18.27 LIG 0.01  A 
ATOM     11  CE2 PHE S   8       7.940  -8.718   6.198  1.00 17.55 LIG 0.00  A 
ATOM     12  CZ  PHE S   8       8.445  -7.422   6.216  1.00 18.56 LIG 0.00  A 
ATOM     13  CE1 PHE S   8       7.695  -6.408   6.774  1.00 16.51 LIG 0.00  A 
ATOM     14  CD1 PHE S   8       6.429  -6.672   7.323  1.00 19.44 LIG 0.01  A 
ENDBRANCH 8 9
ENDBRANCH 5 8
ENDBRANCH 3 5
BRANCH 1 15
ATOM     15  CA  ALA S   7       4.750 -13.101   7.662  1.00 27.73 LIG 0.17  C 
ATOM     16  CB  ALA S   7       3.841 -14.283   8.108  1.00 27.93 LIG 0.04  C 
BRANCH 15 17
ATOM     17  N   ALA S   7       6.153 -13.531   7.698  1.00 29.72 LIG-0.35  N 
ATOM     18  C   ALA S   6       7.108 -13.109   6.850  1.00 32.34 LIG 0.26  C 
ATOM     19 O    ALA S   6       7.152 -11.959   6.403  1.00 32.82 LIG-0.27  OA
ATOM     20 H    ALA S   7       6.314 -14.092   8.329  1.00 29.72 LIG 0.16  HD
BRANCH 18 21
ATOM     21  CA  ALA S   6       8.252 -14.114   6.550  1.00 33.16 LIG 0.40  C 
ATOM     22  CB  ALA S   6       8.494 -15.035   7.749  1.00 32.96 LIG 0.06  C 
ATOM     23  N   ALA S   6       9.563 -13.467   6.156  1.00 33.36 LIG 0.61  N 
ENDBRANCH 18 21
ENDBRANCH 15 17
ENDBRANCH 1 15
TORSDOF 7
ENDMDL
MODEL 42
USER: ADFR SOLUTION from run 58
USER: SCORE 6.755495 LL:  -1.040 LR:  -6.056 RR:   0.000 FEB:  -3.968
USER: RMSD 6.978133
USER: SEED 57
USER: STATUS no improvement in best in 23 clusters for 5 generations
USER: GENES 9
USER: genes 0 Translation |==|  0.72746 0.66560 0.60239
USER: genes 1 Rotation |==|  0.43158 0.96819 0.34654 0.55068
USER: genes 2 Torsion [C]-N--CA-[C] |==|  0.14643
USER: genes 3 Torsion [N]-CA--C-[O] |==|  0.20560
USER: genes 4 Torsion [N]-CA--CB-[CG] |==|  0.72352
USER: genes 5 Torsion [CA]-CB--CG-[CD2] |==|  0.98391
USER: genes 6 Torsion [N]-C--CA-[N] |==|  0.04444
USER: genes 7 Torsion [C]-CA--N-[C] |==|  0.16800
USER: genes 8 Torsion [N]-C--CA-[N] |==|  0.84317
ROOT
ATOM      1  C   ALA S   7       4.958 -10.153   8.177  1.00 26.16 LIG 0.24  C 
ATOM      2 O    ALA S   7       3.910  -9.568   8.449  1.00 23.62 LIG-0.27  OA
ATOM      3  N   PHE S   8       5.030 -11.457   7.938  1.00 26.19 LIG-0.35  N 
ATOM      4 H    PHE S   8       5.765 -11.867   7.758  1.00 26.19 LIG 0.16  HD
ENDROOT
BRANCH 3 5
ATOM      5  CA  PHE S   8       3.859 -12.322   7.960  1.00 26.02 LIG 0.17  C 
BRANCH 5 6
ATOM      6  C   PHE S   8       2.769 -11.772   7.059  1.00 27.74 LIG 0.22  C 
ATOM      7 O    PHE S   8       2.888 -11.862   5.822  1.00 30.84 LIG-0.29  OA
ENDBRANCH 5 6
BRANCH 5 8
ATOM      8  CB  PHE S   8       3.284 -12.427   9.363  1.00 24.81 LIG 0.07  C 
BRANCH 8 9
ATOM      9  CG  PHE S   8       3.685 -13.680  10.098  1.00 22.51 LIG-0.06  A 
ATOM     10  CD2 PHE S   8       4.402 -14.659   9.453  1.00 18.27 LIG 0.01  A 
ATOM     11  CE2 PHE S   8       4.763 -15.863  10.121  1.00 17.55 LIG 0.00  A 
ATOM     12  CZ  PHE S   8       4.377 -16.052  11.444  1.00 18.56 LIG 0.00  A 
ATOM     13  CE1 PHE S   8       3.651 -15.071  12.088  1.00 16.51 LIG 0.00  A 
ATOM     14  CD1 PHE S   8       3.300 -13.885  11.420  1.00 19.44 LIG 0.01  A 
ENDBRANCH 8 9
ENDBRANCH 5 8
ENDBRANCH 3 5
BRANCH 1 15
ATOM     15  CA  ALA S   7       6.250  -9.355   8.042  1.00 27.73 LIG 0.17  C 
ATOM     16  CB  ALA S   7       5.909  -8.016   7.323  1.00 27.93 LIG 0.04  C 
BRANCH 15 17
ATOM     17  N   ALA S   7       7.337 -10.027   7.320  1.00 29.72 LIG-0.35  N 
ATOM     18  C   ALA S   6       7.271 -10.440   6.042  1.00 32.34 LIG 0.26  C 
ATOM     19 O    ALA S   6       6.659  -9.822   5.165  1.00 32.82 LIG-0.27  OA
ATOM     20 H    ALA S   7       8.040 -10.137   7.803  1.00 29.72 LIG 0.16  HD
BRANCH 18 21
ATOM     21  CA  ALA S   6       8.123 -11.685   5.678  1.00 33.16 LIG 0.40  C 
ATOM     22  CB  ALA S   6       7.588 -12.934   6.384  1.00 32.96 LIG 0.06  C 
ATOM     23  N   ALA S   6       9.599 -11.543   5.984  1.00 33.36 LIG 0.61  N 
ENDBRANCH 18 21
ENDBRANCH 15 17
ENDBRANCH 1 15
TORSDOF 7
ENDMDL
MODEL 43
USER: ADFR SOLUTION from run 86
USER: SCORE 6.537291 LL:  -0.896 LR:  -6.063 RR:   0.000 FEB:  -3.975
USER: RMSD 5.449445
USER: SEED 85
USER: STATUS no improvement in best in 35 clusters for 5 generations
USER: GENES 9
USER: genes 0 Translation |==|  0.68476 0.67686 0.53839
USER: genes 1 Rotation |==|  0.80617 0.57174 0.58147 0.88010
USER: genes 2 Torsion [C]-N--CA-[C] |==|  0.42069
USER: genes 3 Torsion [N]-CA--C-[O] |==|  0.97252
USER: genes 4 Torsion [N]-CA--CB-[CG] |==|  0.66363
USER: genes 5 Torsion [CA]-CB--CG-[CD2] |==|  0.82378
USER: genes 6 Torsion [N]-C--CA-[N] |==|  0.07547
USER: genes 7 Torsion [C]-CA--N-[C] |==|  0.21667
USER: genes 8 Torsion [N]-C--CA-[N] |==|  0.19867
ROOT
ATOM      1  C   ALA S   7       4.221  -9.975   7.409  1.00 26.16 LIG 0.24  C 
ATOM      2 O    ALA S   7       4.542  -8.825   7.704  1.00 23.62 LIG-0.27  OA
ATOM      3  N   PHE S   8       5.007 -10.807   6.734  1.00 26.19 LIG-0.35  N 
ATOM      4 H    PHE S   8       4.778 -11.607   6.519  1.00 26.19 LIG 0.16  HD
ENDROOT
BRANCH 3 5
ATOM      5  CA  PHE S   8       6.343 -10.433   6.291  1.00 26.02 LIG 0.17  C 
BRANCH 5 6
ATOM      6  C   PHE S   8       7.239 -11.654   6.202  1.00 27.74 LIG 0.22  C 
ATOM      7 O    PHE S   8       6.848 -12.742   6.666  1.00 30.84 LIG-0.29  OA
ENDBRANCH 5 6
BRANCH 5 8
ATOM      8  CB  PHE S   8       6.989  -9.460   7.263  1.00 24.81 LIG 0.07  C 
BRANCH 8 9
ATOM      9  CG  PHE S   8       7.378  -8.142   6.645  1.00 22.51 LIG-0.06  A 
ATOM     10  CD2 PHE S   8       8.328  -8.100   5.652  1.00 18.27 LIG 0.01  A 
ATOM     11  CE2 PHE S   8       8.731  -6.862   5.077  1.00 17.55 LIG 0.00  A 
ATOM     12  CZ  PHE S   8       8.160  -5.679   5.534  1.00 18.56 LIG 0.00  A 
ATOM     13  CE1 PHE S   8       7.212  -5.723   6.536  1.00 16.51 LIG 0.00  A 
ATOM     14  CD1 PHE S   8       6.819  -6.950   7.096  1.00 19.44 LIG 0.01  A 
ENDBRANCH 8 9
ENDBRANCH 5 8
ENDBRANCH 3 5
BRANCH 1 15
ATOM     15  CA  ALA S   7       2.879 -10.525   7.879  1.00 27.73 LIG 0.17  C 
ATOM     16  CB  ALA S   7       2.499  -9.789   9.197  1.00 27.93 LIG 0.04  C 
BRANCH 15 17
ATOM     17  N   ALA S   7       2.833 -11.975   8.105  1.00 29.72 LIG-0.35  N 
ATOM     18  C   ALA S   6       3.327 -12.600   9.189  1.00 32.34 LIG 0.26  C 
ATOM     19 O    ALA S   6       3.290 -12.112  10.323  1.00 32.82 LIG-0.27  OA
ATOM     20 H    ALA S   7       2.450 -12.401   7.464  1.00 29.72 LIG 0.16  HD
BRANCH 18 21
ATOM     21  CA  ALA S   6       3.841 -14.048   8.972  1.00 33.16 LIG 0.40  C 
ATOM     22  CB  ALA S   6       4.024 -14.765  10.313  1.00 32.96 LIG 0.06  C 
ATOM     23  N   ALA S   6       5.132 -14.141   8.186  1.00 33.36 LIG 0.61  N 
ENDBRANCH 18 21
ENDBRANCH 15 17
ENDBRANCH 1 15
TORSDOF 7
ENDMDL
MODEL 44
USER: ADFR SOLUTION from run 107
USER: SCORE 7.200704 LL:  -1.231 LR:  -6.008 RR:   0.000 FEB:  -3.920
USER: RMSD 5.054591
USER: SEED 106
USER: STATUS no improvement in best in 49 clusters for 5 generations
USER: GENES 9
USER: genes 0 Translation |==|  0.71041 0.38297 0.62951
USER: genes 1 Rotation |==|  0.46402 0.77786 0.80162 0.78377
USER: genes 2 Torsion [C]-N--CA-[C] |==|  0.67195
USER: genes 3 Torsion [N]-CA--C-[O] |==|  0.74854
USER: genes 4 Torsion [N]-CA--CB-[CG] |==|  0.79450
USER: genes 5 Torsion [CA]-CB--CG-[CD2] |==|  0.99021
USER: genes 6 Torsion [N]-C--CA-[N] |==|  0.39709
USER: genes 7 Torsion [C]-CA--N-[C] |==|  0.79415
USER: genes 8 Torsion [N]-C--CA-[N] |==|  0.63273
ROOT
ATOM      1  C   ALA S   7       4.664 -14.604   8.502  1.00 26.16 LIG 0.24  C 
ATOM      2 O    ALA S   7       3.574 -14.627   7.932  1.00 23.62 LIG-0.27  OA
ATOM      3  N   PHE S   8       5.710 -13.916   8.060  1.00 26.19 LIG-0.35  N 
ATOM      4 H    PHE S   8       6.474 -13.909   8.454  1.00 26.19 LIG 0.16  HD
ENDROOT
BRANCH 3 5
ATOM      5  CA  PHE S   8       5.656 -13.101   6.854  1.00 26.02 LIG 0.17  C 
BRANCH 5 6
ATOM      6  C   PHE S   8       6.636 -13.615   5.816  1.00 27.74 LIG 0.22  C 
ATOM      7 O    PHE S   8       7.800 -13.169   5.791  1.00 30.84 LIG-0.29  OA
ENDBRANCH 5 6
BRANCH 5 8
ATOM      8  CB  PHE S   8       6.021 -11.657   7.154  1.00 24.81 LIG 0.07  C 
BRANCH 8 9
ATOM      9  CG  PHE S   8       4.946 -10.891   7.880  1.00 22.51 LIG-0.06  A 
ATOM     10  CD2 PHE S   8       3.736 -11.486   8.148  1.00 18.27 LIG 0.01  A 
ATOM     11  CE2 PHE S   8       2.697 -10.769   8.806  1.00 17.55 LIG 0.00  A 
ATOM     12  CZ  PHE S   8       2.910  -9.445   9.176  1.00 18.56 LIG 0.00  A 
ATOM     13  CE1 PHE S   8       4.123  -8.848   8.900  1.00 16.51 LIG 0.00  A 
ATOM     14  CD1 PHE S   8       5.142  -9.564   8.251  1.00 19.44 LIG 0.01  A 
ENDBRANCH 8 9
ENDBRANCH 5 8
ENDBRANCH 3 5
BRANCH 1 15
ATOM     15  CA  ALA S   7       4.837 -15.350   9.820  1.00 27.73 LIG 0.17  C 
ATOM     16  CB  ALA S   7       5.252 -16.814   9.487  1.00 27.93 LIG 0.04  C 
BRANCH 15 17
ATOM     17  N   ALA S   7       3.660 -15.369  10.698  1.00 29.72 LIG-0.35  N 
ATOM     18  C   ALA S   6       3.221 -14.321  11.416  1.00 32.34 LIG 0.26  C 
ATOM     19 O    ALA S   6       3.284 -13.155  11.015  1.00 32.82 LIG-0.27  OA
ATOM     20 H    ALA S   7       3.266 -16.133  10.710  1.00 29.72 LIG 0.16  HD
BRANCH 18 21
ATOM     21  CA  ALA S   6       2.496 -14.656  12.747  1.00 33.16 LIG 0.40  C 
ATOM     22  CB  ALA S   6       2.242 -16.162  12.862  1.00 32.96 LIG 0.06  C 
ATOM     23  N   ALA S   6       1.188 -13.922  12.948  1.00 33.36 LIG 0.61  N 
ENDBRANCH 18 21
ENDBRANCH 15 17
ENDBRANCH 1 15
TORSDOF 7
ENDMDL
MODEL 45
USER: ADFR SOLUTION from run 137
USER: SCORE 6.969311 LL:  -1.039 LR:  -6.014 RR:   0.000 FEB:  -3.926
USER: RMSD 4.289833
USER: SEED 136
USER: STATUS no improvement in best in 33 clusters for 5 generations
USER: GENES 9
USER: genes 0 Translation |==|  0.58669 0.55369 0.53199
USER: genes 1 Rotation |==|  0.04712 0.44706 0.34421 0.63350
USER: genes 2 Torsion [C]-N--CA-[C] |==|  0.75957
USER: genes 3 Torsion [N]-CA--C-[O] |==|  0.61736
USER: genes 4 Torsion [N]-CA--CB-[CG] |==|  0.74195
USER: genes 5 Torsion [CA]-CB--CG-[CD2] |==|  0.01478
USER: genes 6 Torsion [N]-C--CA-[N] |==|  0.90679
USER: genes 7 Torsion [C]-CA--N-[C] |==|  0.85556
USER: genes 8 Torsion [N]-C--CA-[N] |==|  0.22211
ROOT
ATOM      1  C   ALA S   7       2.529 -11.915   7.332  1.00 26.16 LIG 0.24  C 
ATOM      2 O    ALA S   7       2.893 -12.758   8.151  1.00 23.62 LIG-0.27  OA
ATOM      3  N   PHE S   8       2.974 -10.664   7.319  1.00 26.19 LIG-0.35  N 
ATOM      4 H    PHE S   8       2.712 -10.073   6.752  1.00 26.19 LIG 0.16  HD
ENDROOT
BRANCH 3 5
ATOM      5  CA  PHE S   8       3.958 -10.174   8.275  1.00 26.02 LIG 0.17  C 
BRANCH 5 6
ATOM      6  C   PHE S   8       3.279  -9.691   9.542  1.00 27.74 LIG 0.22  C 
ATOM      7 O    PHE S   8       3.660  -8.635  10.084  1.00 30.84 LIG-0.29  OA
ENDBRANCH 5 6
BRANCH 5 8
ATOM      8  CB  PHE S   8       4.742  -9.006   7.701  1.00 24.81 LIG 0.07  C 
BRANCH 8 9
ATOM      9  CG  PHE S   8       6.026  -9.405   7.019  1.00 22.51 LIG-0.06  A 
ATOM     10  CD2 PHE S   8       6.339 -10.734   6.863  1.00 18.27 LIG 0.01  A 
ATOM     11  CE2 PHE S   8       7.561 -11.130   6.249  1.00 17.55 LIG 0.00  A 
ATOM     12  CZ  PHE S   8       8.452 -10.156   5.810  1.00 18.56 LIG 0.00  A 
ATOM     13  CE1 PHE S   8       8.138  -8.823   5.975  1.00 16.51 LIG 0.00  A 
ATOM     14  CD1 PHE S   8       6.929  -8.442   6.580  1.00 19.44 LIG 0.01  A 
ENDBRANCH 8 9
ENDBRANCH 5 8
ENDBRANCH 3 5
BRANCH 1 15
ATOM     15  CA  ALA S   7       1.561 -12.313   6.224  1.00 27.73 LIG 0.17  C 
ATOM     16  CB  ALA S   7       2.402 -12.825   5.018  1.00 27.93 LIG 0.04  C 
BRANCH 15 17
ATOM     17  N   ALA S   7       0.653 -11.254   5.765  1.00 29.72 LIG-0.35  N 
ATOM     18  C   ALA S   6      -0.128 -10.511   6.568  1.00 32.34 LIG 0.26  C 
ATOM     19 O    ALA S   6       0.218 -10.149   7.697  1.00 32.82 LIG-0.27  OA
ATOM     20 H    ALA S   7       0.667 -11.150   4.912  1.00 29.72 LIG 0.16  HD
BRANCH 18 21
ATOM     21  CA  ALA S   6      -1.460 -10.005   5.954  1.00 33.16 LIG 0.40  C 
ATOM     22  CB  ALA S   6      -1.957  -8.757   6.690  1.00 32.96 LIG 0.06  C 
ATOM     23  N   ALA S   6      -2.569 -11.035   5.932  1.00 33.36 LIG 0.61  N 
ENDBRANCH 18 21
ENDBRANCH 15 17
ENDBRANCH 1 15
TORSDOF 7
ENDMDL
MODEL 46
USER: ADFR SOLUTION from run 21
USER: SCORE 7.020620 LL:  -1.036 LR:  -6.005 RR:   0.000 FEB:  -3.917
USER: RMSD 4.284097
USER: SEED 20
USER: STATUS no improvement in best in 27 clusters for 5 generations
USER: GENES 9
USER: genes 0 Translation |==|  0.63377 0.40173 0.74166
USER: genes 1 Rotation |==|  0.85494 0.79556 0.60961 0.65699
USER: genes 2 Torsion [C]-N--CA-[C] |==|  0.63303
USER: genes 3 Torsion [N]-CA--C-[O] |==|  0.64961
USER: genes 4 Torsion [N]-CA--CB-[CG] |==|  0.57127
USER: genes 5 Torsion [CA]-CB--CG-[CD2] |==|  0.53570
USER: genes 6 Torsion [N]-C--CA-[N] |==|  0.93332
USER: genes 7 Torsion [C]-CA--N-[C] |==|  0.82459
USER: genes 8 Torsion [N]-C--CA-[N] |==|  0.48868
ROOT
ATOM      1  C   ALA S   7       3.342 -14.309   9.848  1.00 26.16 LIG 0.24  C 
ATOM      2 O    ALA S   7       3.284 -13.452  10.729  1.00 23.62 LIG-0.27  OA
ATOM      3  N   PHE S   8       3.430 -14.026   8.554  1.00 26.19 LIG-0.35  N 
ATOM      4 H    PHE S   8       3.460 -14.625   7.937  1.00 26.19 LIG 0.16  HD
ENDROOT
BRANCH 3 5
ATOM      5  CA  PHE S   8       3.484 -12.658   8.054  1.00 26.02 LIG 0.17  C 
BRANCH 5 6
ATOM      6  C   PHE S   8       2.506 -12.466   6.911  1.00 27.74 LIG 0.22  C 
ATOM      7 O    PHE S   8       2.909 -12.011   5.823  1.00 30.84 LIG-0.29  OA
ENDBRANCH 5 6
BRANCH 5 8
ATOM      8  CB  PHE S   8       4.872 -12.323   7.532  1.00 24.81 LIG 0.07  C 
BRANCH 8 9
ATOM      9  CG  PHE S   8       5.203 -10.853   7.572  1.00 22.51 LIG-0.06  A 
ATOM     10  CD2 PHE S   8       6.300 -10.375   6.897  1.00 18.27 LIG 0.01  A 
ATOM     11  CE2 PHE S   8       6.646  -8.995   6.948  1.00 17.55 LIG 0.00  A 
ATOM     12  CZ  PHE S   8       5.866  -8.122   7.698  1.00 18.56 LIG 0.00  A 
ATOM     13  CE1 PHE S   8       4.768  -8.606   8.381  1.00 16.51 LIG 0.00  A 
ATOM     14  CD1 PHE S   8       4.434  -9.969   8.323  1.00 19.44 LIG 0.01  A 
ENDBRANCH 8 9
ENDBRANCH 5 8
ENDBRANCH 3 5
BRANCH 1 15
ATOM     15  CA  ALA S   7       3.374 -15.783  10.234  1.00 27.73 LIG 0.17  C 
ATOM     16  CB  ALA S   7       4.826 -16.127  10.677  1.00 27.93 LIG 0.04  C 
BRANCH 15 17
ATOM     17  N   ALA S   7       2.953 -16.722   9.187  1.00 29.72 LIG-0.35  N 
ATOM     18  C   ALA S   6       1.723 -16.768   8.645  1.00 32.34 LIG 0.26  C 
ATOM     19 O    ALA S   6       1.036 -15.761   8.447  1.00 32.82 LIG-0.27  OA
ATOM     20 H    ALA S   7       3.582 -17.255   8.944  1.00 29.72 LIG 0.16  HD
BRANCH 18 21
ATOM     21  CA  ALA S   6       1.243 -18.158   8.149  1.00 33.16 LIG 0.40  C 
ATOM     22  CB  ALA S   6       2.171 -18.693   7.055  1.00 32.96 LIG 0.06  C 
ATOM     23  N   ALA S   6      -0.182 -18.180   7.637  1.00 33.36 LIG 0.61  N 
ENDBRANCH 18 21
ENDBRANCH 15 17
ENDBRANCH 1 15
TORSDOF 7
ENDMDL
MODEL 47
USER: ADFR SOLUTION from run 46
USER: SCORE 6.697618 LL:  -1.009 LR:  -6.005 RR:   0.000 FEB:  -3.917
USER: RMSD 7.615600
USER: SEED 45
USER: STATUS no improvement in best in 33 clusters for 5 generations
USER: GENES 9
USER: genes 0 Translation |==|  0.81207 0.80018 0.51235
USER: genes 1 Rotation |==|  0.49232 0.05751 0.73013 0.53445
USER: genes 2 Torsion [C]-N--CA-[C] |==|  0.80689
USER: genes 3 Torsion [N]-CA--C-[O] |==|  0.50311
USER: genes 4 Torsion [N]-CA--CB-[CG] |==|  0.62266
USER: genes 5 Torsion [CA]-CB--CG-[CD2] |==|  0.89197
USER: genes 6 Torsion [N]-C--CA-[N] |==|  0.05556
USER: genes 7 Torsion [C]-CA--N-[C] |==|  0.14958
USER: genes 8 Torsion [N]-C--CA-[N] |==|  0.82885
ROOT
ATOM      1  C   ALA S   7       6.417  -8.033   7.096  1.00 26.16 LIG 0.24  C 
ATOM      2 O    ALA S   7       5.747  -7.012   7.244  1.00 23.62 LIG-0.27  OA
ATOM      3  N   PHE S   8       5.955  -9.255   7.332  1.00 26.19 LIG-0.35  N 
ATOM      4 H    PHE S   8       6.427  -9.968   7.239  1.00 26.19 LIG 0.16  HD
ENDROOT
BRANCH 3 5
ATOM      5  CA  PHE S   8       4.590  -9.503   7.777  1.00 26.02 LIG 0.17  C 
BRANCH 5 6
ATOM      6  C   PHE S   8       4.392  -9.010   9.198  1.00 27.74 LIG 0.22  C 
ATOM      7 O    PHE S   8       3.286  -9.158   9.754  1.00 30.84 LIG-0.29  OA
ENDBRANCH 5 6
BRANCH 5 8
ATOM      8  CB  PHE S   8       4.270 -10.988   7.757  1.00 24.81 LIG 0.07  C 
BRANCH 8 9
ATOM      9  CG  PHE S   8       2.921 -11.318   7.173  1.00 22.51 LIG-0.06  A 
ATOM     10  CD2 PHE S   8       1.840 -10.511   7.436  1.00 18.27 LIG 0.01  A 
ATOM     11  CE2 PHE S   8       0.552 -10.823   6.917  1.00 17.55 LIG 0.00  A 
ATOM     12  CZ  PHE S   8       0.386 -11.965   6.141  1.00 18.56 LIG 0.00  A 
ATOM     13  CE1 PHE S   8       1.471 -12.777   5.885  1.00 16.51 LIG 0.00  A 
ATOM     14  CD1 PHE S   8       2.739 -12.460   6.399  1.00 19.44 LIG 0.01  A 
ENDBRANCH 8 9
ENDBRANCH 5 8
ENDBRANCH 3 5
BRANCH 1 15
ATOM     15  CA  ALA S   7       7.840  -7.927   6.560  1.00 27.73 LIG 0.17  C 
ATOM     16  CB  ALA S   7       7.871  -6.767   5.521  1.00 27.93 LIG 0.04  C 
BRANCH 15 17
ATOM     17  N   ALA S   7       8.376  -9.145   5.939  1.00 29.72 LIG-0.35  N 
ATOM     18  C   ALA S   6       7.779  -9.828   4.947  1.00 32.34 LIG 0.26  C 
ATOM     19 O    ALA S   6       7.138  -9.281   4.043  1.00 32.82 LIG-0.27  OA
ATOM     20 H    ALA S   7       9.128  -9.388   6.278  1.00 29.72 LIG 0.16  HD
BRANCH 18 21
ATOM     21  CA  ALA S   6       8.044 -11.356   4.910  1.00 33.16 LIG 0.40  C 
ATOM     22  CB  ALA S   6       7.521 -12.029   6.183  1.00 32.96 LIG 0.06  C 
ATOM     23  N   ALA S   6       9.497 -11.734   4.718  1.00 33.36 LIG 0.61  N 
ENDBRANCH 18 21
ENDBRANCH 15 17
ENDBRANCH 1 15
TORSDOF 7
ENDMDL
MODEL 48
USER: ADFR SOLUTION from run 61
USER: SCORE 6.880827 LL:  -1.111 LR:  -5.990 RR:   0.000 FEB:  -3.902
USER: RMSD 6.729885
USER: SEED 60
USER: STATUS no improvement in best in 27 clusters for 5 generations
USER: GENES 9
USER: genes 0 Translation |==|  0.77283 0.32015 0.66415
USER: genes 1 Rotation |==|  0.22199 0.17088 0.27154 0.61046
USER: genes 2 Torsion [C]-N--CA-[C] |==|  0.85039
USER: genes 3 Torsion [N]-CA--C-[O] |==|  0.42846
USER: genes 4 Torsion [N]-CA--CB-[CG] |==|  0.70763
USER: genes 5 Torsion [CA]-CB--CG-[CD2] |==|  0.69680
USER: genes 6 Torsion [N]-C--CA-[N] |==|  0.12775
USER: genes 7 Torsion [C]-CA--N-[C] |==|  0.15019
USER: genes 8 Torsion [N]-C--CA-[N] |==|  0.76309
ROOT
ATOM      1  C   ALA S   7       5.740 -15.594   8.918  1.00 26.16 LIG 0.24  C 
ATOM      2 O    ALA S   7       5.802 -15.898  10.108  1.00 23.62 LIG-0.27  OA
ATOM      3  N   PHE S   8       5.013 -14.584   8.455  1.00 26.19 LIG-0.35  N 
ATOM      4 H    PHE S   8       4.963 -14.377   7.622  1.00 26.19 LIG 0.16  HD
ENDROOT
BRANCH 3 5
ATOM      5  CA  PHE S   8       4.225 -13.723   9.327  1.00 26.02 LIG 0.17  C 
BRANCH 5 6
ATOM      6  C   PHE S   8       3.293 -14.548  10.194  1.00 27.74 LIG 0.22  C 
ATOM      7 O    PHE S   8       2.909 -14.098  11.291  1.00 30.84 LIG-0.29  OA
ENDBRANCH 5 6
BRANCH 5 8
ATOM      8  CB  PHE S   8       3.370 -12.762   8.519  1.00 24.81 LIG 0.07  C 
BRANCH 8 9
ATOM      9  CG  PHE S   8       3.880 -11.344   8.512  1.00 22.51 LIG-0.06  A 
ATOM     10  CD2 PHE S   8       3.201 -10.364   9.197  1.00 18.27 LIG 0.01  A 
ATOM     11  CE2 PHE S   8       3.650  -9.014   9.178  1.00 17.55 LIG 0.00  A 
ATOM     12  CZ  PHE S   8       4.787  -8.682   8.448  1.00 18.56 LIG 0.00  A 
ATOM     13  CE1 PHE S   8       5.462  -9.666   7.755  1.00 16.51 LIG 0.00  A 
ATOM     14  CD1 PHE S   8       5.012 -10.997   7.782  1.00 19.44 LIG 0.01  A 
ENDBRANCH 8 9
ENDBRANCH 5 8
ENDBRANCH 3 5
BRANCH 1 15
ATOM     15  CA  ALA S   7       6.578 -16.362   7.902  1.00 27.73 LIG 0.17  C 
ATOM     16  CB  ALA S   7       7.554 -17.283   8.690  1.00 27.93 LIG 0.04  C 
BRANCH 15 17
ATOM     17  N   ALA S   7       7.346 -15.537   6.961  1.00 29.72 LIG-0.35  N 
ATOM     18  C   ALA S   6       8.206 -14.566   7.315  1.00 32.34 LIG 0.26  C 
ATOM     19 O    ALA S   6       8.925 -14.636   8.317  1.00 32.82 LIG-0.27  OA
ATOM     20 H    ALA S   7       7.191 -15.737   6.139  1.00 29.72 LIG 0.16  HD
BRANCH 18 21
ATOM     21  CA  ALA S   6       8.357 -13.386   6.320  1.00 33.16 LIG 0.40  C 
ATOM     22  CB  ALA S   6       7.005 -13.025   5.696  1.00 32.96 LIG 0.06  C 
ATOM     23  N   ALA S   6       9.360 -13.627   5.211  1.00 33.36 LIG 0.61  N 
ENDBRANCH 18 21
ENDBRANCH 15 17
ENDBRANCH 1 15
TORSDOF 7
ENDMDL
MODEL 49
USER: ADFR SOLUTION from run 104
USER: SCORE 6.971462 LL:  -1.163 LR:  -5.979 RR:   0.000 FEB:  -3.891
USER: RMSD 4.693798
USER: SEED 103
USER: STATUS no improvement in best in 41 clusters for 5 generations
USER: GENES 9
USER: genes 0 Translation |==|  0.71208 0.39871 0.52039
USER: genes 1 Rotation |==|  0.28132 0.22947 0.56183 0.85380
USER: genes 2 Torsion [C]-N--CA-[C] |==|  0.64437
USER: genes 3 Torsion [N]-CA--C-[O] |==|  0.63684
USER: genes 4 Torsion [N]-CA--CB-[CG] |==|  0.75953
USER: genes 5 Torsion [CA]-CB--CG-[CD2] |==|  0.04578
USER: genes 6 Torsion [N]-C--CA-[N] |==|  0.34679
USER: genes 7 Torsion [C]-CA--N-[C] |==|  0.78339
USER: genes 8 Torsion [N]-C--CA-[N] |==|  0.37147
ROOT
ATOM      1  C   ALA S   7       4.692 -14.356   7.193  1.00 26.16 LIG 0.24  C 
ATOM      2 O    ALA S   7       5.854 -13.966   7.304  1.00 23.62 LIG-0.27  OA
ATOM      3  N   PHE S   8       3.767 -14.184   8.129  1.00 26.19 LIG-0.35  N 
ATOM      4 H    PHE S   8       2.958 -14.466   8.055  1.00 26.19 LIG 0.16  HD
ENDROOT
BRANCH 3 5
ATOM      5  CA  PHE S   8       4.042 -13.494   9.382  1.00 26.02 LIG 0.17  C 
BRANCH 5 6
ATOM      6  C   PHE S   8       3.611 -14.340  10.566  1.00 27.74 LIG 0.22  C 
ATOM      7 O    PHE S   8       2.909 -13.834  11.463  1.00 30.84 LIG-0.29  OA
ENDBRANCH 5 6
BRANCH 5 8
ATOM      8  CB  PHE S   8       3.284 -12.179   9.458  1.00 24.81 LIG 0.07  C 
BRANCH 8 9
ATOM      9  CG  PHE S   8       4.007 -11.017   8.827  1.00 22.51 LIG-0.06  A 
ATOM     10  CD2 PHE S   8       5.055 -11.242   7.967  1.00 18.27 LIG 0.01  A 
ATOM     11  CE2 PHE S   8       5.769 -10.157   7.385  1.00 17.55 LIG 0.00  A 
ATOM     12  CZ  PHE S   8       5.404  -8.852   7.698  1.00 18.56 LIG 0.00  A 
ATOM     13  CE1 PHE S   8       4.356  -8.629   8.567  1.00 16.51 LIG 0.00  A 
ATOM     14  CD1 PHE S   8       3.656  -9.706   9.136  1.00 19.44 LIG 0.01  A 
ENDBRANCH 8 9
ENDBRANCH 5 8
ENDBRANCH 3 5
BRANCH 1 15
ATOM     15  CA  ALA S   7       4.246 -15.026   5.898  1.00 27.73 LIG 0.17  C 
ATOM     16  CB  ALA S   7       4.945 -16.415   5.816  1.00 27.93 LIG 0.04  C 
BRANCH 15 17
ATOM     17  N   ALA S   7       4.520 -14.274   4.668  1.00 29.72 LIG-0.35  N 
ATOM     18  C   ALA S   6       3.797 -13.228   4.230  1.00 32.34 LIG 0.26  C 
ATOM     19 O    ALA S   6       3.284 -12.398   4.988  1.00 32.82 LIG-0.27  OA
ATOM     20 H    ALA S   7       5.204 -14.571   4.240  1.00 29.72 LIG 0.16  HD
BRANCH 18 21
ATOM     21  CA  ALA S   6       3.739 -13.029   2.692  1.00 33.16 LIG 0.40  C 
ATOM     22  CB  ALA S   6       4.670 -11.893   2.257  1.00 32.96 LIG 0.06  C 
ATOM     23  N   ALA S   6       2.352 -12.761   2.148  1.00 33.36 LIG 0.61  N 
ENDBRANCH 18 21
ENDBRANCH 15 17
ENDBRANCH 1 15
TORSDOF 7
ENDMDL
MODEL 50
USER: ADFR SOLUTION from run 154
USER: SCORE 6.329497 LL:  -1.083 LR:  -5.981 RR:   0.000 FEB:  -3.892
USER: RMSD 7.633814
USER: SEED 153
USER: STATUS no improvement in best in 37 clusters for 5 generations
USER: GENES 9
USER: genes 0 Translation |==|  0.39450 0.67804 0.36430
USER: genes 1 Rotation |==|  0.29536 0.30140 0.90083 0.58951
USER: genes 2 Torsion [C]-N--CA-[C] |==|  0.72279
USER: genes 3 Torsion [N]-CA--C-[O] |==|  0.65604
USER: genes 4 Torsion [N]-CA--CB-[CG] |==|  0.10394
USER: genes 5 Torsion [CA]-CB--CG-[CD2] |==|  0.23407
USER: genes 6 Torsion [N]-C--CA-[N] |==|  0.78535
USER: genes 7 Torsion [C]-CA--N-[C] |==|  0.60010
USER: genes 8 Torsion [N]-C--CA-[N] |==|  0.46361
ROOT
ATOM      1  C   ALA S   7      -0.786  -9.957   5.320  1.00 26.16 LIG 0.24  C 
ATOM      2 O    ALA S   7      -0.575  -9.386   4.250  1.00 23.62 LIG-0.27  OA
ATOM      3  N   PHE S   8      -1.779  -9.635   6.140  1.00 26.19 LIG-0.35  N 
ATOM      4 H    PHE S   8      -1.920 -10.028   6.892  1.00 26.19 LIG 0.16  HD
ENDROOT
BRANCH 3 5
ATOM      5  CA  PHE S   8      -2.732  -8.576   5.837  1.00 26.02 LIG 0.17  C 
BRANCH 5 6
ATOM      6  C   PHE S   8      -2.367  -7.301   6.573  1.00 27.74 LIG 0.22  C 
ATOM      7 O    PHE S   8      -3.202  -6.761   7.325  1.00 30.84 LIG-0.29  OA
ENDBRANCH 5 6
BRANCH 5 8
ATOM      8  CB  PHE S   8      -4.137  -8.966   6.263  1.00 24.81 LIG 0.07  C 
BRANCH 8 9
ATOM      9  CG  PHE S   8      -4.193  -9.747   7.551  1.00 22.51 LIG-0.06  A 
ATOM     10  CD2 PHE S   8      -4.196  -9.088   8.757  1.00 18.27 LIG 0.01  A 
ATOM     11  CE2 PHE S   8      -4.217  -9.809   9.984  1.00 17.55 LIG 0.00  A 
ATOM     12  CZ  PHE S   8      -4.227 -11.200   9.959  1.00 18.56 LIG 0.00  A 
ATOM     13  CE1 PHE S   8      -4.216 -11.859   8.747  1.00 16.51 LIG 0.00  A 
ATOM     14  CD1 PHE S   8      -4.196 -11.138   7.541  1.00 19.44 LIG 0.01  A 
ENDBRANCH 8 9
ENDBRANCH 5 8
ENDBRANCH 3 5
BRANCH 1 15
ATOM     15  CA  ALA S   7       0.088 -11.138   5.726  1.00 27.73 LIG 0.17  C 
ATOM     16  CB  ALA S   7      -0.854 -12.285   6.198  1.00 27.93 LIG 0.04  C 
BRANCH 15 17
ATOM     17  N   ALA S   7       1.077 -10.864   6.775  1.00 29.72 LIG-0.35  N 
ATOM     18  C   ALA S   6       2.309 -11.401   6.829  1.00 32.34 LIG 0.26  C 
ATOM     19 O    ALA S   6       2.986 -11.636   5.823  1.00 32.82 LIG-0.27  OA
ATOM     20 H    ALA S   7       0.790 -10.312   7.368  1.00 29.72 LIG 0.16  HD
BRANCH 18 21
ATOM     21  CA  ALA S   6       2.910 -11.600   8.246  1.00 33.16 LIG 0.40  C 
ATOM     22  CB  ALA S   6       3.245 -10.250   8.887  1.00 32.96 LIG 0.06  C 
ATOM     23  N   ALA S   6       4.141 -12.480   8.284  1.00 33.36 LIG 0.61  N 
ENDBRANCH 18 21
ENDBRANCH 15 17
ENDBRANCH 1 15
TORSDOF 7
ENDMDL
MODEL 51
USER: ADFR SOLUTION from run 146
USER: SCORE 6.427893 LL:  -1.059 LR:  -5.969 RR:   0.000 FEB:  -3.881
USER: RMSD 5.206915
USER: SEED 145
USER: STATUS no improvement in best in 30 clusters for 5 generations
USER: GENES 9
USER: genes 0 Translation |==|  0.67253 0.71100 0.64483
USER: genes 1 Rotation |==|  0.89791 0.56795 0.63921 0.76013
USER: genes 2 Torsion [C]-N--CA-[C] |==|  0.80077
USER: genes 3 Torsion [N]-CA--C-[O] |==|  0.49005
USER: genes 4 Torsion [N]-CA--CB-[CG] |==|  0.96426
USER: genes 5 Torsion [CA]-CB--CG-[CD2] |==|  0.81312
USER: genes 6 Torsion [N]-C--CA-[N] |==|  0.87472
USER: genes 7 Torsion [C]-CA--N-[C] |==|  0.62851
USER: genes 8 Torsion [N]-C--CA-[N] |==|  0.28647
ROOT
ATOM      1  C   ALA S   7       4.010  -9.438   8.686  1.00 26.16 LIG 0.24  C 
ATOM      2 O    ALA S   7       4.117  -8.636   9.613  1.00 23.62 LIG-0.27  OA
ATOM      3  N   PHE S   8       4.914  -9.572   7.723  1.00 26.19 LIG-0.35  N 
ATOM      4 H    PHE S   8       4.834 -10.126   7.070  1.00 26.19 LIG 0.16  HD
ENDROOT
BRANCH 3 5
ATOM      5  CA  PHE S   8       6.139  -8.785   7.685  1.00 26.02 LIG 0.17  C 
BRANCH 5 6
ATOM      6  C   PHE S   8       5.838  -7.343   7.323  1.00 27.74 LIG 0.22  C 
ATOM      7 O    PHE S   8       6.760  -6.504   7.309  1.00 30.84 LIG-0.29  OA
ENDBRANCH 5 6
BRANCH 5 8
ATOM      8  CB  PHE S   8       7.106  -9.327   6.645  1.00 24.81 LIG 0.07  C 
BRANCH 8 9
ATOM      9  CG  PHE S   8       6.739 -10.691   6.120  1.00 22.51 LIG-0.06  A 
ATOM     10  CD2 PHE S   8       6.797 -11.787   6.948  1.00 18.27 LIG 0.01  A 
ATOM     11  CE2 PHE S   8       6.485 -13.088   6.462  1.00 17.55 LIG 0.00  A 
ATOM     12  CZ  PHE S   8       6.124 -13.250   5.129  1.00 18.56 LIG 0.00  A 
ATOM     13  CE1 PHE S   8       6.074 -12.150   4.298  1.00 16.51 LIG 0.00  A 
ATOM     14  CD1 PHE S   8       6.383 -10.870   4.787  1.00 19.44 LIG 0.01  A 
ENDBRANCH 8 9
ENDBRANCH 5 8
ENDBRANCH 3 5
BRANCH 1 15
ATOM     15  CA  ALA S   7       2.814 -10.382   8.644  1.00 27.73 LIG 0.17  C 
ATOM     16  CB  ALA S   7       3.284 -11.768   9.174  1.00 27.93 LIG 0.04  C 
BRANCH 15 17
ATOM     17  N   ALA S   7       2.190 -10.555   7.327  1.00 29.72 LIG-0.35  N 
ATOM     18  C   ALA S   6       0.866 -10.515   7.092  1.00 32.34 LIG 0.26  C 
ATOM     19 O    ALA S   6       0.098  -9.761   7.698  1.00 32.82 LIG-0.27  OA
ATOM     20 H    ALA S   7       2.763 -10.689   6.700  1.00 29.72 LIG 0.16  HD
BRANCH 18 21
ATOM     21  CA  ALA S   6       0.351 -11.381   5.913  1.00 33.16 LIG 0.40  C 
ATOM     22  CB  ALA S   6      -0.609 -10.578   5.029  1.00 32.96 LIG 0.06  C 
ATOM     23  N   ALA S   6      -0.329 -12.667   6.332  1.00 33.36 LIG 0.61  N 
ENDBRANCH 18 21
ENDBRANCH 15 17
ENDBRANCH 1 15
TORSDOF 7
ENDMDL
MODEL 52
USER: ADFR SOLUTION from run 163
USER: SCORE 6.980367 LL:  -1.239 LR:  -5.963 RR:   0.000 FEB:  -3.875
USER: RMSD 3.757164
USER: SEED 162
USER: STATUS no improvement in best in 35 clusters for 5 generations
USER: GENES 9
USER: genes 0 Translation |==|  0.36904 0.60128 0.40314
USER: genes 1 Rotation |==|  0.52695 0.61108 0.41204 0.97875
USER: genes 2 Torsion [C]-N--CA-[C] |==|  0.48466
USER: genes 3 Torsion [N]-CA--C-[O] |==|  0.09102
USER: genes 4 Torsion [N]-CA--CB-[CG] |==|  0.16986
USER: genes 5 Torsion [CA]-CB--CG-[CD2] |==|  0.76352
USER: genes 6 Torsion [N]-C--CA-[N] |==|  0.98333
USER: genes 7 Torsion [C]-CA--N-[C] |==|  0.69138
USER: genes 8 Torsion [N]-C--CA-[N] |==|  0.76803
ROOT
ATOM      1  C   ALA S   7      -1.225 -11.166   5.786  1.00 26.16 LIG 0.24  C 
ATOM      2 O    ALA S   7      -0.734 -10.800   4.719  1.00 23.62 LIG-0.27  OA
ATOM      3  N   PHE S   8      -0.856 -12.270   6.424  1.00 26.19 LIG-0.35  N 
ATOM      4 H    PHE S   8      -1.206 -12.531   7.165  1.00 26.19 LIG 0.16  HD
ENDROOT
BRANCH 3 5
ATOM      5  CA  PHE S   8       0.191 -13.150   5.922  1.00 26.02 LIG 0.17  C 
BRANCH 5 6
ATOM      6  C   PHE S   8       0.489 -14.252   6.921  1.00 27.74 LIG 0.22  C 
ATOM      7 O    PHE S   8      -0.426 -14.701   7.638  1.00 30.84 LIG-0.29  OA
ENDBRANCH 5 6
BRANCH 5 8
ATOM      8  CB  PHE S   8       1.481 -12.384   5.683  1.00 24.81 LIG 0.07  C 
BRANCH 8 9
ATOM      9  CG  PHE S   8       2.055 -11.749   6.923  1.00 22.51 LIG-0.06  A 
ATOM     10  CD2 PHE S   8       1.618 -10.512   7.330  1.00 18.27 LIG 0.01  A 
ATOM     11  CE2 PHE S   8       2.170  -9.882   8.481  1.00 17.55 LIG 0.00  A 
ATOM     12  CZ  PHE S   8       3.172 -10.528   9.198  1.00 18.56 LIG 0.00  A 
ATOM     13  CE1 PHE S   8       3.615 -11.768   8.783  1.00 16.51 LIG 0.00  A 
ATOM     14  CD1 PHE S   8       3.062 -12.381   7.647  1.00 19.44 LIG 0.01  A 
ENDBRANCH 8 9
ENDBRANCH 5 8
ENDBRANCH 3 5
BRANCH 1 15
ATOM     15  CA  ALA S   7      -2.277 -10.297   6.466  1.00 27.73 LIG 0.17  C 
ATOM     16  CB  ALA S   7      -1.620  -8.923   6.791  1.00 27.93 LIG 0.04  C 
BRANCH 15 17
ATOM     17  N   ALA S   7      -2.863 -10.853   7.691  1.00 29.72 LIG-0.35  N 
ATOM     18  C   ALA S   6      -4.134 -11.275   7.812  1.00 32.34 LIG 0.26  C 
ATOM     19 O    ALA S   6      -4.747 -11.835   6.898  1.00 32.82 LIG-0.27  OA
ATOM     20 H    ALA S   7      -2.304 -10.886   8.344  1.00 29.72 LIG 0.16  HD
BRANCH 18 21
ATOM     21  CA  ALA S   6      -4.770 -11.143   9.221  1.00 33.16 LIG 0.40  C 
ATOM     22  CB  ALA S   6      -4.358  -9.824   9.881  1.00 32.96 LIG 0.06  C 
ATOM     23  N   ALA S   6      -4.447 -12.285  10.162  1.00 33.36 LIG 0.61  N 
ENDBRANCH 18 21
ENDBRANCH 15 17
ENDBRANCH 1 15
TORSDOF 7
ENDMDL
MODEL 53
USER: ADFR SOLUTION from run 149
USER: SCORE 6.422727 LL:  -1.217 LR:  -5.958 RR:   0.000 FEB:  -3.870
USER: RMSD 7.025048
USER: SEED 148
USER: STATUS no improvement in best in 42 clusters for 5 generations
USER: GENES 9
USER: genes 0 Translation |==|  0.78713 0.61360 0.48967
USER: genes 1 Rotation |==|  0.61443 0.48631 0.96945 0.62781
USER: genes 2 Torsion [C]-N--CA-[C] |==|  0.12688
USER: genes 3 Torsion [N]-CA--C-[O] |==|  0.48682
USER: genes 4 Torsion [N]-CA--CB-[CG] |==|  0.85053
USER: genes 5 Torsion [CA]-CB--CG-[CD2] |==|  0.18829
USER: genes 6 Torsion [N]-C--CA-[N] |==|  0.60612
USER: genes 7 Torsion [C]-CA--N-[C] |==|  0.13333
USER: genes 8 Torsion [N]-C--CA-[N] |==|  0.14115
ROOT
ATOM      1  C   ALA S   7       5.987 -10.972   6.824  1.00 26.16 LIG 0.24  C 
ATOM      2 O    ALA S   7       4.813 -10.899   6.464  1.00 23.62 LIG-0.27  OA
ATOM      3  N   PHE S   8       6.519 -10.189   7.755  1.00 26.19 LIG-0.35  N 
ATOM      4 H    PHE S   8       7.343 -10.234   8.000  1.00 26.19 LIG 0.16  HD
ENDROOT
BRANCH 3 5
ATOM      5  CA  PHE S   8       5.747  -9.173   8.457  1.00 26.02 LIG 0.17  C 
BRANCH 5 6
ATOM      6  C   PHE S   8       4.410  -9.731   8.907  1.00 27.74 LIG 0.22  C 
ATOM      7 O    PHE S   8       3.650  -9.029   9.603  1.00 30.84 LIG-0.29  OA
ENDBRANCH 5 6
BRANCH 5 8
ATOM      8  CB  PHE S   8       5.467  -7.981   7.556  1.00 24.81 LIG 0.07  C 
BRANCH 8 9
ATOM      9  CG  PHE S   8       6.700  -7.383   6.930  1.00 22.51 LIG-0.06  A 
ATOM     10  CD2 PHE S   8       7.409  -8.092   5.990  1.00 18.27 LIG 0.01  A 
ATOM     11  CE2 PHE S   8       8.593  -7.557   5.409  1.00 17.55 LIG 0.00  A 
ATOM     12  CZ  PHE S   8       9.041  -6.301   5.806  1.00 18.56 LIG 0.00  A 
ATOM     13  CE1 PHE S   8       8.331  -5.594   6.755  1.00 16.51 LIG 0.00  A 
ATOM     14  CD1 PHE S   8       7.163  -6.131   7.321  1.00 19.44 LIG 0.01  A 
ENDBRANCH 8 9
ENDBRANCH 5 8
ENDBRANCH 3 5
BRANCH 1 15
ATOM     15  CA  ALA S   7       6.890 -12.046   6.228  1.00 27.73 LIG 0.17  C 
ATOM     16  CB  ALA S   7       8.365 -11.640   6.518  1.00 27.93 LIG 0.04  C 
BRANCH 15 17
ATOM     17  N   ALA S   7       6.728 -12.283   4.789  1.00 29.72 LIG-0.35  N 
ATOM     18  C   ALA S   6       6.690 -11.320   3.851  1.00 32.34 LIG 0.26  C 
ATOM     19 O    ALA S   6       7.367 -10.289   3.917  1.00 32.82 LIG-0.27  OA
ATOM     20 H    ALA S   7       6.658 -13.117   4.594  1.00 29.72 LIG 0.16  HD
BRANCH 18 21
ATOM     21  CA  ALA S   6       5.839 -11.623   2.589  1.00 33.16 LIG 0.40  C 
ATOM     22  CB  ALA S   6       5.768 -10.397   1.675  1.00 32.96 LIG 0.06  C 
ATOM     23  N   ALA S   6       4.432 -12.097   2.884  1.00 33.36 LIG 0.61  N 
ENDBRANCH 18 21
ENDBRANCH 15 17
ENDBRANCH 1 15
TORSDOF 7
ENDMDL
MODEL 54
USER: ADFR SOLUTION from run 1
USER: SCORE 7.013121 LL:  -1.201 LR:  -5.953 RR:   0.000 FEB:  -3.865
USER: RMSD 4.184794
USER: SEED 805256
USER: STATUS no improvement in best in 34 clusters for 5 generations
USER: GENES 9
USER: genes 0 Translation |==|  0.36907 0.54388 0.40941
USER: genes 1 Rotation |==|  0.48637 0.62871 0.48454 0.98271
USER: genes 2 Torsion [C]-N--CA-[C] |==|  0.49811
USER: genes 3 Torsion [N]-CA--C-[O] |==|  0.10318
USER: genes 4 Torsion [N]-CA--CB-[CG] |==|  0.18706
USER: genes 5 Torsion [CA]-CB--CG-[CD2] |==|  0.74103
USER: genes 6 Torsion [N]-C--CA-[N] |==|  0.36838
USER: genes 7 Torsion [C]-CA--N-[C] |==|  0.77252
USER: genes 8 Torsion [N]-C--CA-[N] |==|  0.75725
ROOT
ATOM      1  C   ALA S   7      -1.225 -12.070   5.861  1.00 26.16 LIG 0.24  C 
ATOM      2 O    ALA S   7      -0.944 -11.667   4.733  1.00 23.62 LIG-0.27  OA
ATOM      3  N   PHE S   8      -0.483 -12.940   6.535  1.00 26.19 LIG-0.35  N 
ATOM      4 H    PHE S   8      -0.685 -13.229   7.320  1.00 26.19 LIG 0.16  HD
ENDROOT
BRANCH 3 5
ATOM      5  CA  PHE S   8       0.755 -13.491   6.001  1.00 26.02 LIG 0.17  C 
BRANCH 5 6
ATOM      6  C   PHE S   8       1.392 -14.443   6.997  1.00 27.74 LIG 0.22  C 
ATOM      7 O    PHE S   8       0.669 -15.183   7.693  1.00 30.84 LIG-0.29  OA
ENDBRANCH 5 6
BRANCH 5 8
ATOM      8  CB  PHE S   8       1.762 -12.391   5.711  1.00 24.81 LIG 0.07  C 
BRANCH 8 9
ATOM      9  CG  PHE S   8       2.281 -11.693   6.941  1.00 22.51 LIG-0.06  A 
ATOM     10  CD2 PHE S   8       1.672 -10.546   7.391  1.00 18.27 LIG 0.01  A 
ATOM     11  CE2 PHE S   8       2.167  -9.856   8.534  1.00 17.55 LIG 0.00  A 
ATOM     12  CZ  PHE S   8       3.285 -10.347   9.198  1.00 18.56 LIG 0.00  A 
ATOM     13  CE1 PHE S   8       3.899 -11.495   8.740  1.00 16.51 LIG 0.00  A 
ATOM     14  CD1 PHE S   8       3.403 -12.170   7.612  1.00 19.44 LIG 0.01  A 
ENDBRANCH 8 9
ENDBRANCH 5 8
ENDBRANCH 3 5
BRANCH 1 15
ATOM     15  CA  ALA S   7      -2.453 -11.515   6.573  1.00 27.73 LIG 0.17  C 
ATOM     16  CB  ALA S   7      -3.708 -12.208   5.964  1.00 27.93 LIG 0.04  C 
BRANCH 15 17
ATOM     17  N   ALA S   7      -2.623 -10.059   6.501  1.00 29.72 LIG-0.35  N 
ATOM     18  C   ALA S   6      -1.999  -9.172   7.297  1.00 32.34 LIG 0.26  C 
ATOM     19 O    ALA S   6      -0.841  -9.326   7.698  1.00 32.82 LIG-0.27  OA
ATOM     20 H    ALA S   7      -3.174  -9.817   5.887  1.00 29.72 LIG 0.16  HD
BRANCH 18 21
ATOM     21  CA  ALA S   6      -2.766  -7.856   7.593  1.00 33.16 LIG 0.40  C 
ATOM     22  CB  ALA S   6      -4.269  -8.120   7.718  1.00 32.96 LIG 0.06  C 
ATOM     23  N   ALA S   6      -2.544  -6.761   6.571  1.00 33.36 LIG 0.61  N 
ENDBRANCH 18 21
ENDBRANCH 15 17
ENDBRANCH 1 15
TORSDOF 7
ENDMDL
MODEL 55
USER: ADFR SOLUTION from run 156
USER: SCORE 6.177132 LL:  -0.768 LR:  -5.926 RR:   0.000 FEB:  -3.838
USER: RMSD 4.630515
USER: SEED 155
USER: STATUS no improvement in best in 39 clusters for 5 generations
USER: GENES 9
USER: genes 0 Translation |==|  0.48593 0.61633 0.52219
USER: genes 1 Rotation |==|  0.13244 0.53152 0.41089 0.82552
USER: genes 2 Torsion [C]-N--CA-[C] |==|  0.43760
USER: genes 3 Torsion [N]-CA--C-[O] |==|  0.53504
USER: genes 4 Torsion [N]-CA--CB-[CG] |==|  0.68340
USER: genes 5 Torsion [CA]-CB--CG-[CD2] |==|  0.95068
USER: genes 6 Torsion [N]-C--CA-[N] |==|  0.91435
USER: genes 7 Torsion [C]-CA--N-[C] |==|  0.64444
USER: genes 8 Torsion [N]-C--CA-[N] |==|  0.68109
ROOT
ATOM      1  C   ALA S   7       0.791 -10.929   7.214  1.00 26.16 LIG 0.24  C 
ATOM      2 O    ALA S   7       1.294 -12.019   6.944  1.00 23.62 LIG-0.27  OA
ATOM      3  N   PHE S   8       1.331 -10.061   8.061  1.00 26.19 LIG-0.35  N 
ATOM      4 H    PHE S   8       0.975  -9.303   8.257  1.00 26.19 LIG 0.16  HD
ENDROOT
BRANCH 3 5
ATOM      5  CA  PHE S   8       2.593 -10.316   8.744  1.00 26.02 LIG 0.17  C 
BRANCH 5 6
ATOM      6  C   PHE S   8       3.235  -9.015   9.186  1.00 27.74 LIG 0.22  C 
ATOM      7 O    PHE S   8       4.420  -9.011   9.573  1.00 30.84 LIG-0.29  OA
ENDBRANCH 5 6
BRANCH 5 8
ATOM      8  CB  PHE S   8       3.576 -11.025   7.827  1.00 24.81 LIG 0.07  C 
BRANCH 8 9
ATOM      9  CG  PHE S   8       3.916 -12.427   8.260  1.00 22.51 LIG-0.06  A 
ATOM     10  CD2 PHE S   8       3.659 -12.834   9.547  1.00 18.27 LIG 0.01  A 
ATOM     11  CE2 PHE S   8       4.001 -14.145   9.982  1.00 17.55 LIG 0.00  A 
ATOM     12  CZ  PHE S   8       4.611 -15.023   9.092  1.00 18.56 LIG 0.00  A 
ATOM     13  CE1 PHE S   8       4.874 -14.610   7.802  1.00 16.51 LIG 0.00  A 
ATOM     14  CD1 PHE S   8       4.531 -13.315   7.382  1.00 19.44 LIG 0.01  A 
ENDBRANCH 8 9
ENDBRANCH 5 8
ENDBRANCH 3 5
BRANCH 1 15
ATOM     15  CA  ALA S   7      -0.491 -10.498   6.511  1.00 27.73 LIG 0.17  C 
ATOM     16  CB  ALA S   7      -0.091  -9.820   5.168  1.00 27.93 LIG 0.04  C 
BRANCH 15 17
ATOM     17  N   ALA S   7      -1.356  -9.588   7.272  1.00 29.72 LIG-0.35  N 
ATOM     18  C   ALA S   6      -2.667  -9.783   7.496  1.00 32.34 LIG 0.26  C 
ATOM     19 O    ALA S   6      -3.160 -10.901   7.682  1.00 32.82 LIG-0.27  OA
ATOM     20 H    ALA S   7      -0.936  -8.900   7.570  1.00 29.72 LIG 0.16  HD
BRANCH 18 21
ATOM     21  CA  ALA S   6      -3.536  -8.506   7.645  1.00 33.16 LIG 0.40  C 
ATOM     22  CB  ALA S   6      -2.728  -7.255   7.288  1.00 32.96 LIG 0.06  C 
ATOM     23  N   ALA S   6      -4.144  -8.321   9.019  1.00 33.36 LIG 0.61  N 
ENDBRANCH 18 21
ENDBRANCH 15 17
ENDBRANCH 1 15
TORSDOF 7
ENDMDL
MODEL 56
USER: ADFR SOLUTION from run 174
USER: SCORE 6.306248 LL:  -0.825 LR:  -5.926 RR:   0.000 FEB:  -3.838
USER: RMSD 6.173780
USER: SEED 173
USER: STATUS no improvement in best in 33 clusters for 5 generations
USER: GENES 9
USER: genes 0 Translation |==|  0.58884 0.53974 0.47337
USER: genes 1 Rotation |==|  0.71168 0.65537 0.08575 0.59719
USER: genes 2 Torsion [C]-N--CA-[C] |==|  0.14043
USER: genes 3 Torsion [N]-CA--C-[O] |==|  0.11344
USER: genes 4 Torsion [N]-CA--CB-[CG] |==|  0.68263
USER: genes 5 Torsion [CA]-CB--CG-[CD2] |==|  0.68128
USER: genes 6 Torsion [N]-C--CA-[N] |==|  0.15979
USER: genes 7 Torsion [C]-CA--N-[C] |==|  0.62401
USER: genes 8 Torsion [N]-C--CA-[N] |==|  0.14592
ROOT
ATOM      1  C   ALA S   7       2.567 -12.135   6.628  1.00 26.16 LIG 0.24  C 
ATOM      2 O    ALA S   7       2.895 -11.982   5.453  1.00 23.62 LIG-0.27  OA
ATOM      3  N   PHE S   8       1.306 -12.140   7.044  1.00 26.19 LIG-0.35  N 
ATOM      4 H    PHE S   8       1.077 -12.237   7.868  1.00 26.19 LIG 0.16  HD
ENDROOT
BRANCH 3 5
ATOM      5  CA  PHE S   8       0.181 -11.979   6.132  1.00 26.02 LIG 0.17  C 
BRANCH 5 6
ATOM      6  C   PHE S   8       0.298 -12.940   4.964  1.00 27.74 LIG 0.22  C 
ATOM      7 O    PHE S   8       0.681 -14.109   5.161  1.00 30.84 LIG-0.29  OA
ENDBRANCH 5 6
BRANCH 5 8
ATOM      8  CB  PHE S   8       0.135 -10.570   5.565  1.00 24.81 LIG 0.07  C 
BRANCH 8 9
ATOM      9  CG  PHE S   8      -1.070  -9.775   5.996  1.00 22.51 LIG-0.06  A 
ATOM     10  CD2 PHE S   8      -2.008  -9.386   5.069  1.00 18.27 LIG 0.01  A 
ATOM     11  CE2 PHE S   8      -3.137  -8.608   5.453  1.00 17.55 LIG 0.00  A 
ATOM     12  CZ  PHE S   8      -3.287  -8.232   6.783  1.00 18.56 LIG 0.00  A 
ATOM     13  CE1 PHE S   8      -2.341  -8.617   7.711  1.00 16.51 LIG 0.00  A 
ATOM     14  CD1 PHE S   8      -1.231  -9.386   7.323  1.00 19.44 LIG 0.01  A 
ENDBRANCH 8 9
ENDBRANCH 5 8
ENDBRANCH 3 5
BRANCH 1 15
ATOM     15  CA  ALA S   7       3.639 -12.393   7.680  1.00 27.73 LIG 0.17  C 
ATOM     16  CB  ALA S   7       5.024 -12.342   6.970  1.00 27.93 LIG 0.04  C 
BRANCH 15 17
ATOM     17  N   ALA S   7       3.519 -13.661   8.411  1.00 29.72 LIG-0.35  N 
ATOM     18  C   ALA S   6       3.659 -13.797   9.741  1.00 32.34 LIG 0.26  C 
ATOM     19 O    ALA S   6       3.284 -12.941  10.550  1.00 32.82 LIG-0.27  OA
ATOM     20 H    ALA S   7       3.345 -14.327   7.897  1.00 29.72 LIG 0.16  HD
BRANCH 18 21
ATOM     21  CA  ALA S   6       4.206 -15.161  10.238  1.00 33.16 LIG 0.40  C 
ATOM     22  CB  ALA S   6       4.408 -15.145  11.756  1.00 32.96 LIG 0.06  C 
ATOM     23  N   ALA S   6       5.497 -15.595   9.576  1.00 33.36 LIG 0.61  N 
ENDBRANCH 18 21
ENDBRANCH 15 17
ENDBRANCH 1 15
TORSDOF 7
ENDMDL
MODEL 57
USER: ADFR SOLUTION from run 36
USER: SCORE 6.511123 LL:  -0.825 LR:  -5.923 RR:   0.000 FEB:  -3.835
USER: RMSD 4.186168
USER: SEED 35
USER: STATUS no improvement in best in 37 clusters for 5 generations
USER: GENES 9
USER: genes 0 Translation |==|  0.52417 0.59405 0.48974
USER: genes 1 Rotation |==|  0.27241 0.43656 0.60593 0.92773
USER: genes 2 Torsion [C]-N--CA-[C] |==|  0.15233
USER: genes 3 Torsion [N]-CA--C-[O] |==|  0.41312
USER: genes 4 Torsion [N]-CA--CB-[CG] |==|  0.31619
USER: genes 5 Torsion [CA]-CB--CG-[CD2] |==|  0.22035
USER: genes 6 Torsion [N]-C--CA-[N] |==|  0.12583
USER: genes 7 Torsion [C]-CA--N-[C] |==|  0.17222
USER: genes 8 Torsion [N]-C--CA-[N] |==|  0.53547
ROOT
ATOM      1  C   ALA S   7       1.451 -11.280   6.825  1.00 26.16 LIG 0.24  C 
ATOM      2 O    ALA S   7       2.344 -11.263   5.979  1.00 23.62 LIG-0.27  OA
ATOM      3  N   PHE S   8       1.617 -10.870   8.077  1.00 26.19 LIG-0.35  N 
ATOM      4 H    PHE S   8       0.995 -10.891   8.670  1.00 26.19 LIG 0.16  HD
ENDROOT
BRANCH 3 5
ATOM      5  CA  PHE S   8       2.883 -10.340   8.564  1.00 26.02 LIG 0.17  C 
BRANCH 5 6
ATOM      6  C   PHE S   8       3.350  -9.185   7.698  1.00 27.74 LIG 0.22  C 
ATOM      7 O    PHE S   8       4.015  -8.261   8.206  1.00 30.84 LIG-0.29  OA
ENDBRANCH 5 6
BRANCH 5 8
ATOM      8  CB  PHE S   8       3.968 -11.404   8.535  1.00 24.81 LIG 0.07  C 
BRANCH 8 9
ATOM      9  CG  PHE S   8       5.078 -11.121   7.555  1.00 22.51 LIG-0.06  A 
ATOM     10  CD2 PHE S   8       6.072 -10.229   7.878  1.00 18.27 LIG 0.01  A 
ATOM     11  CE2 PHE S   8       7.112  -9.927   6.954  1.00 17.55 LIG 0.00  A 
ATOM     12  CZ  PHE S   8       7.114 -10.537   5.704  1.00 18.56 LIG 0.00  A 
ATOM     13  CE1 PHE S   8       6.110 -11.427   5.380  1.00 16.51 LIG 0.00  A 
ATOM     14  CD1 PHE S   8       5.089 -11.720   6.299  1.00 19.44 LIG 0.01  A 
ENDBRANCH 8 9
ENDBRANCH 5 8
ENDBRANCH 3 5
BRANCH 1 15
ATOM     15  CA  ALA S   7       0.051 -11.737   6.430  1.00 27.73 LIG 0.17  C 
ATOM     16  CB  ALA S   7       0.014 -11.866   4.879  1.00 27.93 LIG 0.04  C 
BRANCH 15 17
ATOM     17  N   ALA S   7      -1.047 -10.866   6.868  1.00 29.72 LIG-0.35  N 
ATOM     18  C   ALA S   6      -1.210  -9.586   6.491  1.00 32.34 LIG 0.26  C 
ATOM     19 O    ALA S   6      -0.928  -9.176   5.360  1.00 32.82 LIG-0.27  OA
ATOM     20 H    ALA S   7      -1.591 -11.260   7.404  1.00 29.72 LIG 0.16  HD
BRANCH 18 21
ATOM     21  CA  ALA S   6      -1.905  -8.651   7.516  1.00 33.16 LIG 0.40  C 
ATOM     22  CB  ALA S   6      -3.118  -9.342   8.145  1.00 32.96 LIG 0.06  C 
ATOM     23  N   ALA S   6      -2.341  -7.317   6.948  1.00 33.36 LIG 0.61  N 
ENDBRANCH 18 21
ENDBRANCH 15 17
ENDBRANCH 1 15
TORSDOF 7
ENDMDL
MODEL 58
USER: ADFR SOLUTION from run 169
USER: SCORE 6.651750 LL:  -0.976 LR:  -5.922 RR:   0.000 FEB:  -3.834
USER: RMSD 4.888034
USER: SEED 168
USER: STATUS no improvement in best in 39 clusters for 5 generations
USER: GENES 9
USER: genes 0 Translation |==|  0.67308 0.37939 0.56897
USER: genes 1 Rotation |==|  0.32536 0.59189 0.95895 0.52043
USER: genes 2 Torsion [C]-N--CA-[C] |==|  0.86138
USER: genes 3 Torsion [N]-CA--C-[O] |==|  0.73262
USER: genes 4 Torsion [N]-CA--CB-[CG] |==|  0.07879
USER: genes 5 Torsion [CA]-CB--CG-[CD2] |==|  0.61514
USER: genes 6 Torsion [N]-C--CA-[N] |==|  0.13434
USER: genes 7 Torsion [C]-CA--N-[C] |==|  0.16261
USER: genes 8 Torsion [N]-C--CA-[N] |==|  0.51903
ROOT
ATOM      1  C   ALA S   7       4.020 -14.661   7.776  1.00 26.16 LIG 0.24  C 
ATOM      2 O    ALA S   7       3.853 -15.460   6.855  1.00 23.62 LIG-0.27  OA
ATOM      3  N   PHE S   8       3.341 -13.525   7.895  1.00 26.19 LIG-0.35  N 
ATOM      4 H    PHE S   8       3.465 -12.962   8.533  1.00 26.19 LIG 0.16  HD
ENDROOT
BRANCH 3 5
ATOM      5  CA  PHE S   8       2.313 -13.126   6.943  1.00 26.02 LIG 0.17  C 
BRANCH 5 6
ATOM      6  C   PHE S   8       2.828 -13.235   5.520  1.00 27.74 LIG 0.22  C 
ATOM      7 O    PHE S   8       3.284 -12.225   4.949  1.00 30.84 LIG-0.29  OA
ENDBRANCH 5 6
BRANCH 5 8
ATOM      8  CB  PHE S   8       1.891 -11.683   7.169  1.00 24.81 LIG 0.07  C 
BRANCH 8 9
ATOM      9  CG  PHE S   8       2.970 -10.814   7.761  1.00 22.51 LIG-0.06  A 
ATOM     10  CD2 PHE S   8       2.661  -9.905   8.744  1.00 18.27 LIG 0.01  A 
ATOM     11  CE2 PHE S   8       3.661  -9.054   9.294  1.00 17.55 LIG 0.00  A 
ATOM     12  CZ  PHE S   8       4.966  -9.140   8.822  1.00 18.56 LIG 0.00  A 
ATOM     13  CE1 PHE S   8       5.272 -10.048   7.829  1.00 16.51 LIG 0.00  A 
ATOM     14  CD1 PHE S   8       4.279 -10.885   7.294  1.00 19.44 LIG 0.01  A 
ENDBRANCH 8 9
ENDBRANCH 5 8
ENDBRANCH 3 5
BRANCH 1 15
ATOM     15  CA  ALA S   7       5.010 -14.990   8.887  1.00 27.73 LIG 0.17  C 
ATOM     16  CB  ALA S   7       5.505 -16.450   8.665  1.00 27.93 LIG 0.04  C 
BRANCH 15 17
ATOM     17  N   ALA S   7       4.495 -14.858  10.255  1.00 29.72 LIG-0.35  N 
ATOM     18  C   ALA S   6       3.434 -15.525  10.744  1.00 32.34 LIG 0.26  C 
ATOM     19 O    ALA S   6       3.165 -16.688  10.427  1.00 32.82 LIG-0.27  OA
ATOM     20 H    ALA S   7       4.945 -14.300  10.729  1.00 29.72 LIG 0.16  HD
BRANCH 18 21
ATOM     21  CA  ALA S   6       2.618 -14.802  11.848  1.00 33.16 LIG 0.40  C 
ATOM     22  CB  ALA S   6       3.542 -14.272  12.948  1.00 32.96 LIG 0.06  C 
ATOM     23  N   ALA S   6       1.536 -15.651  12.482  1.00 33.36 LIG 0.61  N 
ENDBRANCH 18 21
ENDBRANCH 15 17
ENDBRANCH 1 15
TORSDOF 7
ENDMDL
MODEL 59
USER: ADFR SOLUTION from run 132
USER: SCORE 6.626417 LL:  -1.067 LR:  -5.866 RR:   0.000 FEB:  -3.778
USER: RMSD 5.687791
USER: SEED 131
USER: STATUS no improvement in best in 28 clusters for 5 generations
USER: GENES 9
USER: genes 0 Translation |==|  0.38525 0.47802 0.39550
USER: genes 1 Rotation |==|  0.23453 0.47980 0.78626 0.81173
USER: genes 2 Torsion [C]-N--CA-[C] |==|  0.58527
USER: genes 3 Torsion [N]-CA--C-[O] |==|  0.21924
USER: genes 4 Torsion [N]-CA--CB-[CG] |==|  0.19813
USER: genes 5 Torsion [CA]-CB--CG-[CD2] |==|  0.35645
USER: genes 6 Torsion [N]-C--CA-[N] |==|  0.92778
USER: genes 7 Torsion [C]-CA--N-[C] |==|  0.70566
USER: genes 8 Torsion [N]-C--CA-[N] |==|  0.64166
ROOT
ATOM      1  C   ALA S   7      -0.945 -13.107   5.694  1.00 26.16 LIG 0.24  C 
ATOM      2 O    ALA S   7      -0.471 -13.137   4.559  1.00 23.62 LIG-0.27  OA
ATOM      3  N   PHE S   8      -0.835 -12.065   6.509  1.00 26.19 LIG-0.35  N 
ATOM      4 H    PHE S   8      -1.158 -12.048   7.306  1.00 26.19 LIG 0.16  HD
ENDROOT
BRANCH 3 5
ATOM      5  CA  PHE S   8      -0.148 -10.840   6.123  1.00 26.02 LIG 0.17  C 
BRANCH 5 6
ATOM      6  C   PHE S   8       0.481 -10.174   7.332  1.00 27.74 LIG 0.22  C 
ATOM      7 O    PHE S   8       1.558 -10.607   7.785  1.00 30.84 LIG-0.29  OA
ENDBRANCH 5 6
BRANCH 5 8
ATOM      8  CB  PHE S   8      -1.114  -9.844   5.502  1.00 24.81 LIG 0.07  C 
BRANCH 8 9
ATOM      9  CG  PHE S   8      -2.072  -9.224   6.486  1.00 22.51 LIG-0.06  A 
ATOM     10  CD2 PHE S   8      -2.206  -7.858   6.550  1.00 18.27 LIG 0.01  A 
ATOM     11  CE2 PHE S   8      -3.083  -7.252   7.494  1.00 17.55 LIG 0.00  A 
ATOM     12  CZ  PHE S   8      -3.807  -8.057   8.367  1.00 18.56 LIG 0.00  A 
ATOM     13  CE1 PHE S   8      -3.665  -9.428   8.306  1.00 16.51 LIG 0.00  A 
ATOM     14  CD1 PHE S   8      -2.798 -10.016   7.370  1.00 19.44 LIG 0.01  A 
ENDBRANCH 8 9
ENDBRANCH 5 8
ENDBRANCH 3 5
BRANCH 1 15
ATOM     15  CA  ALA S   7      -1.759 -14.293   6.199  1.00 27.73 LIG 0.17  C 
ATOM     16  CB  ALA S   7      -3.202 -14.157   5.630  1.00 27.93 LIG 0.04  C 
BRANCH 15 17
ATOM     17  N   ALA S   7      -1.827 -14.439   7.659  1.00 29.72 LIG-0.35  N 
ATOM     18  C   ALA S   6      -1.165 -15.368   8.370  1.00 32.34 LIG 0.26  C 
ATOM     19 O    ALA S   6      -0.030 -15.759   8.077  1.00 32.82 LIG-0.27  OA
ATOM     20 H    ALA S   7      -2.344 -13.860   8.028  1.00 29.72 LIG 0.16  HD
BRANCH 18 21
ATOM     21  CA  ALA S   6      -1.848 -15.847   9.679  1.00 33.16 LIG 0.40  C 
ATOM     22  CB  ALA S   6      -3.114 -15.033   9.959  1.00 32.96 LIG 0.06  C 
ATOM     23  N   ALA S   6      -0.956 -15.801  10.901  1.00 33.36 LIG 0.61  N 
ENDBRANCH 18 21
ENDBRANCH 15 17
ENDBRANCH 1 15
TORSDOF 7
ENDMDL
MODEL 60
USER: ADFR SOLUTION from run 142
USER: SCORE 6.316504 LL:  -1.110 LR:  -5.872 RR:   0.000 FEB:  -3.784
USER: RMSD 7.383192
USER: SEED 141
USER: STATUS no improvement in best in 23 clusters for 5 generations
USER: GENES 9
USER: genes 0 Translation |==|  0.38034 0.63512 0.31284
USER: genes 1 Rotation |==|  0.76799 0.80926 0.21647 0.54639
USER: genes 2 Torsion [C]-N--CA-[C] |==|  0.15137
USER: genes 3 Torsion [N]-CA--C-[O] |==|  0.53133
USER: genes 4 Torsion [N]-CA--CB-[CG] |==|  0.88301
USER: genes 5 Torsion [CA]-CB--CG-[CD2] |==|  0.84174
USER: genes 6 Torsion [N]-C--CA-[N] |==|  0.63892
USER: genes 7 Torsion [C]-CA--N-[C] |==|  0.60752
USER: genes 8 Torsion [N]-C--CA-[N] |==|  0.39184
ROOT
ATOM      1  C   ALA S   7      -1.030 -10.633   4.702  1.00 26.16 LIG 0.24  C 
ATOM      2 O    ALA S   7      -0.562  -9.651   4.127  1.00 23.62 LIG-0.27  OA
ATOM      3  N   PHE S   8      -2.313 -10.972   4.650  1.00 26.19 LIG-0.35  N 
ATOM      4 H    PHE S   8      -2.641 -11.653   5.060  1.00 26.19 LIG 0.16  HD
ENDROOT
BRANCH 3 5
ATOM      5  CA  PHE S   8      -3.292 -10.213   3.883  1.00 26.02 LIG 0.17  C 
BRANCH 5 6
ATOM      6  C   PHE S   8      -2.848 -10.071   2.440  1.00 27.74 LIG 0.22  C 
ATOM      7 O    PHE S   8      -3.446  -9.279   1.685  1.00 30.84 LIG-0.29  OA
ENDBRANCH 5 6
BRANCH 5 8
ATOM      8  CB  PHE S   8      -3.463  -8.814   4.451  1.00 24.81 LIG 0.07  C 
BRANCH 8 9
ATOM      9  CG  PHE S   8      -3.513  -8.764   5.956  1.00 22.51 LIG-0.06  A 
ATOM     10  CD2 PHE S   8      -4.456  -9.495   6.639  1.00 18.27 LIG 0.01  A 
ATOM     11  CE2 PHE S   8      -4.539  -9.436   8.059  1.00 17.55 LIG 0.00  A 
ATOM     12  CZ  PHE S   8      -3.657  -8.622   8.762  1.00 18.56 LIG 0.00  A 
ATOM     13  CE1 PHE S   8      -2.716  -7.884   8.073  1.00 16.51 LIG 0.00  A 
ATOM     14  CD1 PHE S   8      -2.641  -7.949   6.672  1.00 19.44 LIG 0.01  A 
ENDBRANCH 8 9
ENDBRANCH 5 8
ENDBRANCH 3 5
BRANCH 1 15
ATOM     15  CA  ALA S   7      -0.103 -11.562   5.477  1.00 27.73 LIG 0.17  C 
ATOM     16  CB  ALA S   7      -0.987 -12.625   6.195  1.00 27.93 LIG 0.04  C 
BRANCH 15 17
ATOM     17  N   ALA S   7       0.767 -10.911   6.464  1.00 29.72 LIG-0.35  N 
ATOM     18  C   ALA S   6       2.044 -11.253   6.706  1.00 32.34 LIG 0.26  C 
ATOM     19 O    ALA S   6       2.818 -11.636   5.823  1.00 32.82 LIG-0.27  OA
ATOM     20 H    ALA S   7       0.374 -10.273   6.886  1.00 29.72 LIG 0.16  HD
BRANCH 18 21
ATOM     21  CA  ALA S   6       2.556 -11.016   8.152  1.00 33.16 LIG 0.40  C 
ATOM     22  CB  ALA S   6       3.278  -9.669   8.259  1.00 32.96 LIG 0.06  C 
ATOM     23  N   ALA S   6       3.469 -12.104   8.677  1.00 33.36 LIG 0.61  N 
ENDBRANCH 18 21
ENDBRANCH 15 17
ENDBRANCH 1 15
TORSDOF 7
ENDMDL
MODEL 61
USER: ADFR SOLUTION from run 154
USER: SCORE 6.272768 LL:  -0.899 LR:  -5.845 RR:   0.000 FEB:  -3.757
USER: RMSD 2.118400
USER: SEED 153
USER: STATUS no improvement in best in 37 clusters for 5 generations
USER: GENES 9
USER: genes 0 Translation |==|  0.54419 0.49477 0.50350
USER: genes 1 Rotation |==|  0.09379 0.69651 0.37262 0.67365
USER: genes 2 Torsion [C]-N--CA-[C] |==|  0.82232
USER: genes 3 Torsion [N]-CA--C-[O] |==|  0.90657
USER: genes 4 Torsion [N]-CA--CB-[CG] |==|  0.07769
USER: genes 5 Torsion [CA]-CB--CG-[CD2] |==|  0.10449
USER: genes 6 Torsion [N]-C--CA-[N] |==|  0.52778
USER: genes 7 Torsion [C]-CA--N-[C] |==|  0.58140
USER: genes 8 Torsion [N]-C--CA-[N] |==|  0.85564
ROOT
ATOM      1  C   ALA S   7       1.796 -12.843   6.990  1.00 26.16 LIG 0.24  C 
ATOM      2 O    ALA S   7       1.438 -13.994   7.240  1.00 23.62 LIG-0.27  OA
ATOM      3  N   PHE S   8       3.045 -12.415   7.135  1.00 26.19 LIG-0.35  N 
ATOM      4 H    PHE S   8       3.293 -11.609   6.970  1.00 26.19 LIG 0.16  HD
ENDROOT
BRANCH 3 5
ATOM      5  CA  PHE S   8       4.121 -13.284   7.593  1.00 26.02 LIG 0.17  C 
BRANCH 5 6
ATOM      6  C   PHE S   8       3.863 -13.753   9.012  1.00 27.74 LIG 0.22  C 
ATOM      7 O    PHE S   8       3.284 -12.998   9.818  1.00 30.84 LIG-0.29  OA
ENDBRANCH 5 6
BRANCH 5 8
ATOM      8  CB  PHE S   8       5.453 -12.553   7.586  1.00 24.81 LIG 0.07  C 
BRANCH 8 9
ATOM      9  CG  PHE S   8       5.336 -11.063   7.780  1.00 22.51 LIG-0.06  A 
ATOM     10  CD2 PHE S   8       4.399 -10.551   8.645  1.00 18.27 LIG 0.01  A 
ATOM     11  CE2 PHE S   8       4.253  -9.146   8.817  1.00 17.55 LIG 0.00  A 
ATOM     12  CZ  PHE S   8       5.066  -8.281   8.093  1.00 18.56 LIG 0.00  A 
ATOM     13  CE1 PHE S   8       6.002  -8.797   7.220  1.00 16.51 LIG 0.00  A 
ATOM     14  CD1 PHE S   8       6.139 -10.186   7.057  1.00 19.44 LIG 0.01  A 
ENDBRANCH 8 9
ENDBRANCH 5 8
ENDBRANCH 3 5
BRANCH 1 15
ATOM     15  CA  ALA S   7       0.788 -11.848   6.427  1.00 27.73 LIG 0.17  C 
ATOM     16  CB  ALA S   7       0.960 -10.508   7.202  1.00 27.93 LIG 0.04  C 
BRANCH 15 17
ATOM     17  N   ALA S   7      -0.618 -12.266   6.490  1.00 29.72 LIG-0.35  N 
ATOM     18  C   ALA S   6      -1.572 -11.886   5.622  1.00 32.34 LIG 0.26  C 
ATOM     19 O    ALA S   6      -1.357 -11.714   4.418  1.00 32.82 LIG-0.27  OA
ATOM     20 H    ALA S   7      -0.781 -12.791   7.151  1.00 29.72 LIG 0.16  HD
BRANCH 18 21
ATOM     21  CA  ALA S   6      -3.015 -11.794   6.185  1.00 33.16 LIG 0.40  C 
ATOM     22  CB  ALA S   6      -3.156 -10.593   7.125  1.00 32.96 LIG 0.06  C 
ATOM     23  N   ALA S   6      -3.484 -13.039   6.907  1.00 33.36 LIG 0.61  N 
ENDBRANCH 18 21
ENDBRANCH 15 17
ENDBRANCH 1 15
TORSDOF 7
ENDMDL
MODEL 62
USER: ADFR SOLUTION from run 152
USER: SCORE 7.032926 LL:  -1.276 LR:  -5.838 RR:   0.000 FEB:  -3.750
USER: RMSD 2.028704
USER: SEED 151
USER: STATUS no improvement in best in 32 clusters for 5 generations
USER: GENES 9
USER: genes 0 Translation |==|  0.46433 0.61055 0.44684
USER: genes 1 Rotation |==|  0.60980 0.44752 0.53634 0.98360
USER: genes 2 Torsion [C]-N--CA-[C] |==|  0.54927
USER: genes 3 Torsion [N]-CA--C-[O] |==|  0.98695
USER: genes 4 Torsion [N]-CA--CB-[CG] |==|  0.67759
USER: genes 5 Torsion [CA]-CB--CG-[CD2] |==|  0.85664
USER: genes 6 Torsion [N]-C--CA-[N] |==|  0.98889
USER: genes 7 Torsion [C]-CA--N-[C] |==|  0.79056
USER: genes 8 Torsion [N]-C--CA-[N] |==|  0.50831
ROOT
ATOM      1  C   ALA S   7       0.419 -11.020   6.310  1.00 26.16 LIG 0.24  C 
ATOM      2 O    ALA S   7       1.214 -10.146   5.968  1.00 23.62 LIG-0.27  OA
ATOM      3  N   PHE S   8       0.785 -12.176   6.850  1.00 26.19 LIG-0.35  N 
ATOM      4 H    PHE S   8       0.229 -12.791   7.079  1.00 26.19 LIG 0.16  HD
ENDROOT
BRANCH 3 5
ATOM      5  CA  PHE S   8       2.179 -12.513   7.106  1.00 26.02 LIG 0.17  C 
BRANCH 5 6
ATOM      6  C   PHE S   8       2.341 -14.008   7.306  1.00 27.74 LIG 0.22  C 
ATOM      7 O    PHE S   8       1.334 -14.741   7.325  1.00 30.84 LIG-0.29  OA
ENDBRANCH 5 6
BRANCH 5 8
ATOM      8  CB  PHE S   8       2.686 -11.824   8.362  1.00 24.81 LIG 0.07  C 
BRANCH 8 9
ATOM      9  CG  PHE S   8       3.791 -10.831   8.114  1.00 22.51 LIG-0.06  A 
ATOM     10  CD2 PHE S   8       4.901 -11.200   7.393  1.00 18.27 LIG 0.01  A 
ATOM     11  CE2 PHE S   8       5.969 -10.285   7.175  1.00 17.55 LIG 0.00  A 
ATOM     12  CZ  PHE S   8       5.889  -9.002   7.707  1.00 18.56 LIG 0.00  A 
ATOM     13  CE1 PHE S   8       4.777  -8.636   8.436  1.00 16.51 LIG 0.00  A 
ATOM     14  CD1 PHE S   8       3.727  -9.546   8.645  1.00 19.44 LIG 0.01  A 
ENDBRANCH 8 9
ENDBRANCH 5 8
ENDBRANCH 3 5
BRANCH 1 15
ATOM     15  CA  ALA S   7      -1.078 -10.768   6.172  1.00 27.73 LIG 0.17  C 
ATOM     16  CB  ALA S   7      -1.429  -9.512   7.024  1.00 27.93 LIG 0.04  C 
BRANCH 15 17
ATOM     17  N   ALA S   7      -1.948 -11.881   6.573  1.00 29.72 LIG-0.35  N 
ATOM     18  C   ALA S   6      -2.151 -12.996   5.849  1.00 32.34 LIG 0.26  C 
ATOM     19 O    ALA S   6      -1.268 -13.528   5.168  1.00 32.82 LIG-0.27  OA
ATOM     20 H    ALA S   7      -2.326 -11.752   7.334  1.00 29.72 LIG 0.16  HD
BRANCH 18 21
ATOM     21  CA  ALA S   6      -3.536 -13.677   6.010  1.00 33.16 LIG 0.40  C 
ATOM     22  CB  ALA S   6      -3.838 -13.949   7.487  1.00 32.96 LIG 0.06  C 
ATOM     23  N   ALA S   6      -3.693 -14.966   5.232  1.00 33.36 LIG 0.61  N 
ENDBRANCH 18 21
ENDBRANCH 15 17
ENDBRANCH 1 15
TORSDOF 7
ENDMDL
MODEL 63
USER: ADFR SOLUTION from run 19
USER: SCORE 6.876995 LL:  -1.087 LR:  -5.827 RR:   0.000 FEB:  -3.739
USER: RMSD 8.315365
USER: SEED 18
USER: STATUS no improvement in best in 32 clusters for 5 generations
USER: GENES 9
USER: genes 0 Translation |==|  0.34845 0.71345 0.47292
USER: genes 1 Rotation |==|  0.40519 0.18727 0.82451 0.69469
USER: genes 2 Torsion [C]-N--CA-[C] |==|  0.47185
USER: genes 3 Torsion [N]-CA--C-[O] |==|  0.53330
USER: genes 4 Torsion [N]-CA--CB-[CG] |==|  0.16612
USER: genes 5 Torsion [CA]-CB--CG-[CD2] |==|  0.74034
USER: genes 6 Torsion [N]-C--CA-[N] |==|  0.43757
USER: genes 7 Torsion [C]-CA--N-[C] |==|  0.78889
USER: genes 8 Torsion [N]-C--CA-[N] |==|  0.15832
ROOT
ATOM      1  C   ALA S   7      -1.580  -9.399   6.623  1.00 26.16 LIG 0.24  C 
ATOM      2 O    ALA S   7      -1.592  -8.238   6.217  1.00 23.62 LIG-0.27  OA
ATOM      3  N   PHE S   8      -2.253  -9.811   7.691  1.00 26.19 LIG-0.35  N 
ATOM      4 H    PHE S   8      -2.236 -10.620   7.980  1.00 26.19 LIG 0.16  HD
ENDROOT
BRANCH 3 5
ATOM      5  CA  PHE S   8      -3.090  -8.917   8.480  1.00 26.02 LIG 0.17  C 
BRANCH 5 6
ATOM      6  C   PHE S   8      -3.921  -9.702   9.477  1.00 27.74 LIG 0.22  C 
ATOM      7 O    PHE S   8      -4.856  -9.140  10.081  1.00 30.84 LIG-0.29  OA
ENDBRANCH 5 6
BRANCH 5 8
ATOM      8  CB  PHE S   8      -4.049  -8.141   7.593  1.00 24.81 LIG 0.07  C 
BRANCH 8 9
ATOM      9  CG  PHE S   8      -4.987  -9.011   6.797  1.00 22.51 LIG-0.06  A 
ATOM     10  CD2 PHE S   8      -4.658  -9.390   5.517  1.00 18.27 LIG 0.01  A 
ATOM     11  CE2 PHE S   8      -5.546 -10.186   4.739  1.00 17.55 LIG 0.00  A 
ATOM     12  CZ  PHE S   8      -6.765 -10.578   5.281  1.00 18.56 LIG 0.00  A 
ATOM     13  CE1 PHE S   8      -7.096 -10.190   6.563  1.00 16.51 LIG 0.00  A 
ATOM     14  CD1 PHE S   8      -6.213  -9.405   7.324  1.00 19.44 LIG 0.01  A 
ENDBRANCH 8 9
ENDBRANCH 5 8
ENDBRANCH 3 5
BRANCH 1 15
ATOM     15  CA  ALA S   7      -0.808 -10.459   5.846  1.00 27.73 LIG 0.17  C 
ATOM     16  CB  ALA S   7       0.528 -10.723   6.602  1.00 27.93 LIG 0.04  C 
BRANCH 15 17
ATOM     17  N   ALA S   7      -0.513 -10.128   4.446  1.00 29.72 LIG-0.35  N 
ATOM     18  C   ALA S   6      -1.406 -10.173   3.442  1.00 32.34 LIG 0.26  C 
ATOM     19 O    ALA S   6      -2.595  -9.870   3.583  1.00 32.82 LIG-0.27  OA
ATOM     20 H    ALA S   7       0.306  -9.897   4.323  1.00 29.72 LIG 0.16  HD
BRANCH 18 21
ATOM     21  CA  ALA S   6      -0.841 -10.504   2.035  1.00 33.16 LIG 0.40  C 
ATOM     22  CB  ALA S   6      -1.960 -10.511   0.989  1.00 32.96 LIG 0.06  C 
ATOM     23  N   ALA S   6      -0.089 -11.816   1.957  1.00 33.36 LIG 0.61  N 
ENDBRANCH 18 21
ENDBRANCH 15 17
ENDBRANCH 1 15
TORSDOF 7
ENDMDL
MODEL 64
USER: ADFR SOLUTION from run 195
USER: SCORE 6.842613 LL:  -1.427 LR:  -5.798 RR:   0.000 FEB:  -3.710
USER: RMSD 6.733283
USER: SEED 194
USER: STATUS no improvement in best in 23 clusters for 5 generations
USER: GENES 9
USER: genes 0 Translation |==|  0.76206 0.75294 0.54912
USER: genes 1 Rotation |==|  0.40817 0.06576 0.72963 0.51652
USER: genes 2 Torsion [C]-N--CA-[C] |==|  0.76836
USER: genes 3 Torsion [N]-CA--C-[O] |==|  0.10358
USER: genes 4 Torsion [N]-CA--CB-[CG] |==|  0.12063
USER: genes 5 Torsion [CA]-CB--CG-[CD2] |==|  0.64793
USER: genes 6 Torsion [N]-C--CA-[N] |==|  0.04448
USER: genes 7 Torsion [C]-CA--N-[C] |==|  0.13903
USER: genes 8 Torsion [N]-C--CA-[N] |==|  0.52967
ROOT
ATOM      1  C   ALA S   7       5.555  -8.777   7.537  1.00 26.16 LIG 0.24  C 
ATOM      2 O    ALA S   7       5.164  -7.610   7.527  1.00 23.62 LIG-0.27  OA
ATOM      3  N   PHE S   8       4.746  -9.821   7.678  1.00 26.19 LIG-0.35  N 
ATOM      4 H    PHE S   8       5.021 -10.636   7.695  1.00 26.19 LIG 0.16  HD
ENDROOT
BRANCH 3 5
ATOM      5  CA  PHE S   8       3.303  -9.679   7.816  1.00 26.02 LIG 0.17  C 
BRANCH 5 6
ATOM      6  C   PHE S   8       2.929  -9.386   9.257  1.00 27.74 LIG 0.22  C 
ATOM      7 O    PHE S   8       3.661  -8.650   9.948  1.00 30.84 LIG-0.29  OA
ENDBRANCH 5 6
BRANCH 5 8
ATOM      8  CB  PHE S   8       2.587 -10.955   7.407  1.00 24.81 LIG 0.07  C 
BRANCH 8 9
ATOM      9  CG  PHE S   8       3.231 -12.214   7.926  1.00 22.51 LIG-0.06  A 
ATOM     10  CD2 PHE S   8       3.561 -13.229   7.059  1.00 18.27 LIG 0.01  A 
ATOM     11  CE2 PHE S   8       4.142 -14.437   7.535  1.00 17.55 LIG 0.00  A 
ATOM     12  CZ  PHE S   8       4.372 -14.594   8.898  1.00 18.56 LIG 0.00  A 
ATOM     13  CE1 PHE S   8       4.034 -13.577   9.767  1.00 16.51 LIG 0.00  A 
ATOM     14  CD1 PHE S   8       3.462 -12.387   9.288  1.00 19.44 LIG 0.01  A 
ENDBRANCH 8 9
ENDBRANCH 5 8
ENDBRANCH 3 5
BRANCH 1 15
ATOM     15  CA  ALA S   7       7.034  -9.076   7.323  1.00 27.73 LIG 0.17  C 
ATOM     16  CB  ALA S   7       7.563  -8.100   6.231  1.00 27.93 LIG 0.04  C 
BRANCH 15 17
ATOM     17  N   ALA S   7       7.352 -10.455   6.933  1.00 29.72 LIG-0.35  N 
ATOM     18  C   ALA S   6       6.754 -11.128   5.933  1.00 32.34 LIG 0.26  C 
ATOM     19 O    ALA S   6       6.388 -10.590   4.884  1.00 32.82 LIG-0.27  OA
ATOM     20 H    ALA S   7       7.972 -10.804   7.415  1.00 29.72 LIG 0.16  HD
BRANCH 18 21
ATOM     21  CA  ALA S   6       6.658 -12.667   6.103  1.00 33.16 LIG 0.40  C 
ATOM     22  CB  ALA S   6       7.996 -13.246   6.573  1.00 32.96 LIG 0.06  C 
ATOM     23  N   ALA S   6       6.214 -13.406   4.858  1.00 33.36 LIG 0.61  N 
ENDBRANCH 18 21
ENDBRANCH 15 17
ENDBRANCH 1 15
TORSDOF 7
ENDMDL
MODEL 65
USER: ADFR SOLUTION from run 146
USER: SCORE 6.867484 LL:  -1.566 LR:  -5.797 RR:   0.000 FEB:  -3.709
USER: RMSD 5.751509
USER: SEED 145
USER: STATUS no improvement in best in 30 clusters for 5 generations
USER: GENES 9
USER: genes 0 Translation |==|  0.70703 0.71460 0.62183
USER: genes 1 Rotation |==|  0.95546 0.55866 0.60387 0.66831
USER: genes 2 Torsion [C]-N--CA-[C] |==|  0.72469
USER: genes 3 Torsion [N]-CA--C-[O] |==|  0.39448
USER: genes 4 Torsion [N]-CA--CB-[CG] |==|  0.96610
USER: genes 5 Torsion [CA]-CB--CG-[CD2] |==|  0.30270
USER: genes 6 Torsion [N]-C--CA-[N] |==|  0.19815
USER: genes 7 Torsion [C]-CA--N-[C] |==|  0.65000
USER: genes 8 Torsion [N]-C--CA-[N] |==|  0.57822
ROOT
ATOM      1  C   ALA S   7       4.605  -9.381   8.410  1.00 26.16 LIG 0.24  C 
ATOM      2 O    ALA S   7       4.950  -9.011   9.532  1.00 23.62 LIG-0.27  OA
ATOM      3  N   PHE S   8       5.292  -9.114   7.305  1.00 26.19 LIG-0.35  N 
ATOM      4 H    PHE S   8       5.045  -9.364   6.520  1.00 26.19 LIG 0.16  HD
ENDROOT
BRANCH 3 5
ATOM      5  CA  PHE S   8       6.540  -8.363   7.323  1.00 26.02 LIG 0.17  C 
BRANCH 5 6
ATOM      6  C   PHE S   8       6.298  -6.912   6.950  1.00 27.74 LIG 0.22  C 
ATOM      7 O    PHE S   8       6.934  -6.011   7.531  1.00 30.84 LIG-0.29  OA
ENDBRANCH 5 6
BRANCH 5 8
ATOM      8  CB  PHE S   8       7.534  -8.933   6.325  1.00 24.81 LIG 0.07  C 
BRANCH 8 9
ATOM      9  CG  PHE S   8       7.144 -10.278   5.771  1.00 22.51 LIG-0.06  A 
ATOM     10  CD2 PHE S   8       6.735 -10.393   4.463  1.00 18.27 LIG 0.01  A 
ATOM     11  CE2 PHE S   8       6.333 -11.650   3.930  1.00 17.55 LIG 0.00  A 
ATOM     12  CZ  PHE S   8       6.347 -12.775   4.748  1.00 18.56 LIG 0.00  A 
ATOM     13  CE1 PHE S   8       6.751 -12.656   6.062  1.00 16.51 LIG 0.00  A 
ATOM     14  CD1 PHE S   8       7.147 -11.411   6.579  1.00 19.44 LIG 0.01  A 
ENDBRANCH 8 9
ENDBRANCH 5 8
ENDBRANCH 3 5
BRANCH 1 15
ATOM     15  CA  ALA S   7       3.358 -10.244   8.254  1.00 27.73 LIG 0.17  C 
ATOM     16  CB  ALA S   7       2.537 -10.135   9.572  1.00 27.93 LIG 0.04  C 
BRANCH 15 17
ATOM     17  N   ALA S   7       3.601 -11.660   7.951  1.00 29.72 LIG-0.35  N 
ATOM     18  C   ALA S   6       3.071 -12.325   6.910  1.00 32.34 LIG 0.26  C 
ATOM     19 O    ALA S   6       2.879 -11.805   5.806  1.00 32.82 LIG-0.27  OA
ATOM     20 H    ALA S   7       4.128 -12.036   8.517  1.00 29.72 LIG 0.16  HD
BRANCH 18 21
ATOM     21  CA  ALA S   6       2.825 -13.843   7.118  1.00 33.16 LIG 0.40  C 
ATOM     22  CB  ALA S   6       3.819 -14.420   8.130  1.00 32.96 LIG 0.06  C 
ATOM     23  N   ALA S   6       2.884 -14.665   5.848  1.00 33.36 LIG 0.61  N 
ENDBRANCH 18 21
ENDBRANCH 15 17
ENDBRANCH 1 15
TORSDOF 7
ENDMDL
MODEL 66
USER: ADFR SOLUTION from run 6
USER: SCORE 6.975074 LL:  -1.212 LR:  -5.803 RR:   0.000 FEB:  -3.715
USER: RMSD 4.794998
USER: SEED 734702
USER: STATUS no improvement in best in 42 clusters for 5 generations
USER: GENES 9
USER: genes 0 Translation |==|  0.66644 0.55939 0.50007
USER: genes 1 Rotation |==|  0.41938 0.73643 0.64618 0.90771
USER: genes 2 Torsion [C]-N--CA-[C] |==|  0.71554
USER: genes 3 Torsion [N]-CA--C-[O] |==|  0.88118
USER: genes 4 Torsion [N]-CA--CB-[CG] |==|  0.81493
USER: genes 5 Torsion [CA]-CB--CG-[CD2] |==|  0.12373
USER: genes 6 Torsion [N]-C--CA-[N] |==|  0.91115
USER: genes 7 Torsion [C]-CA--N-[C] |==|  0.84442
USER: genes 8 Torsion [N]-C--CA-[N] |==|  0.64308
ROOT
ATOM      1  C   ALA S   7       3.905 -11.826   6.949  1.00 26.16 LIG 0.24  C 
ATOM      2 O    ALA S   7       3.334 -11.636   5.876  1.00 23.62 LIG-0.27  OA
ATOM      3  N   PHE S   8       5.225 -11.891   7.077  1.00 26.19 LIG-0.35  N 
ATOM      4 H    PHE S   8       5.623 -12.033   7.825  1.00 26.19 LIG 0.16  HD
ENDROOT
BRANCH 3 5
ATOM      5  CA  PHE S   8       6.129 -11.726   5.946  1.00 26.02 LIG 0.17  C 
BRANCH 5 6
ATOM      6  C   PHE S   8       6.655 -13.071   5.481  1.00 27.74 LIG 0.22  C 
ATOM      7 O    PHE S   8       7.014 -13.919   6.321  1.00 30.84 LIG-0.29  OA
ENDBRANCH 5 6
BRANCH 5 8
ATOM      8  CB  PHE S   8       7.327 -10.871   6.326  1.00 24.81 LIG 0.07  C 
BRANCH 8 9
ATOM      9  CG  PHE S   8       6.984  -9.437   6.633  1.00 22.51 LIG-0.06  A 
ATOM     10  CD2 PHE S   8       5.897  -9.141   7.422  1.00 18.27 LIG 0.01  A 
ATOM     11  CE2 PHE S   8       5.540  -7.791   7.698  1.00 17.55 LIG 0.00  A 
ATOM     12  CZ  PHE S   8       6.297  -6.759   7.155  1.00 18.56 LIG 0.00  A 
ATOM     13  CE1 PHE S   8       7.382  -7.058   6.357  1.00 16.51 LIG 0.00  A 
ATOM     14  CD1 PHE S   8       7.729  -8.393   6.091  1.00 19.44 LIG 0.01  A 
ENDBRANCH 8 9
ENDBRANCH 5 8
ENDBRANCH 3 5
BRANCH 1 15
ATOM     15  CA  ALA S   7       3.083 -11.937   8.228  1.00 27.73 LIG 0.17  C 
ATOM     16  CB  ALA S   7       2.875 -10.498   8.786  1.00 27.93 LIG 0.04  C 
BRANCH 15 17
ATOM     17  N   ALA S   7       3.659 -12.784   9.280  1.00 29.72 LIG-0.35  N 
ATOM     18  C   ALA S   6       4.008 -14.073   9.123  1.00 32.34 LIG 0.26  C 
ATOM     19 O    ALA S   6       4.486 -14.519   8.075  1.00 32.82 LIG-0.27  OA
ATOM     20 H    ALA S   7       3.756 -12.369  10.026  1.00 29.72 LIG 0.16  HD
BRANCH 18 21
ATOM     21  CA  ALA S   6       3.902 -14.971  10.384  1.00 33.16 LIG 0.40  C 
ATOM     22  CB  ALA S   6       3.524 -14.138  11.613  1.00 32.96 LIG 0.06  C 
ATOM     23  N   ALA S   6       5.156 -15.761  10.695  1.00 33.36 LIG 0.61  N 
ENDBRANCH 18 21
ENDBRANCH 15 17
ENDBRANCH 1 15
TORSDOF 7
ENDMDL
MODEL 67
USER: ADFR SOLUTION from run 56
USER: SCORE 6.579522 LL:  -0.802 LR:  -5.794 RR:   0.000 FEB:  -3.706
USER: RMSD 7.717039
USER: SEED 55
USER: STATUS no improvement in best in 36 clusters for 5 generations
USER: GENES 9
USER: genes 0 Translation |==|  0.34631 0.69803 0.46852
USER: genes 1 Rotation |==|  0.38334 0.20401 0.86064 0.63681
USER: genes 2 Torsion [C]-N--CA-[C] |==|  0.88032
USER: genes 3 Torsion [N]-CA--C-[O] |==|  0.32270
USER: genes 4 Torsion [N]-CA--CB-[CG] |==|  0.87105
USER: genes 5 Torsion [CA]-CB--CG-[CD2] |==|  0.40544
USER: genes 6 Torsion [N]-C--CA-[N] |==|  0.42208
USER: genes 7 Torsion [C]-CA--N-[C] |==|  0.82778
USER: genes 8 Torsion [N]-C--CA-[N] |==|  0.37056
ROOT
ATOM      1  C   ALA S   7      -1.617  -9.642   6.570  1.00 26.16 LIG 0.24  C 
ATOM      2 O    ALA S   7      -1.705  -8.600   5.921  1.00 23.62 LIG-0.27  OA
ATOM      3  N   PHE S   8      -2.398  -9.931   7.605  1.00 26.19 LIG-0.35  N 
ATOM      4 H    PHE S   8      -2.329 -10.654   8.064  1.00 26.19 LIG 0.16  HD
ENDROOT
BRANCH 3 5
ATOM      5  CA  PHE S   8      -3.454  -9.037   8.061  1.00 26.02 LIG 0.17  C 
BRANCH 5 6
ATOM      6  C   PHE S   8      -2.970  -7.599   8.073  1.00 27.74 LIG 0.22  C 
ATOM      7 O    PHE S   8      -3.504  -6.761   7.320  1.00 30.84 LIG-0.29  OA
ENDBRANCH 5 6
BRANCH 5 8
ATOM      8  CB  PHE S   8      -3.892  -9.385   9.473  1.00 24.81 LIG 0.07  C 
BRANCH 8 9
ATOM      9  CG  PHE S   8      -4.124 -10.857   9.698  1.00 22.51 LIG-0.06  A 
ATOM     10  CD2 PHE S   8      -3.837 -11.422  10.918  1.00 18.27 LIG 0.01  A 
ATOM     11  CE2 PHE S   8      -4.020 -12.816  11.139  1.00 17.55 LIG 0.00  A 
ATOM     12  CZ  PHE S   8      -4.489 -13.617  10.103  1.00 18.56 LIG 0.00  A 
ATOM     13  CE1 PHE S   8      -4.769 -13.048   8.877  1.00 16.51 LIG 0.00  A 
ATOM     14  CD1 PHE S   8      -4.587 -11.671   8.669  1.00 19.44 LIG 0.01  A 
ENDBRANCH 8 9
ENDBRANCH 5 8
ENDBRANCH 3 5
BRANCH 1 15
ATOM     15  CA  ALA S   7      -0.606 -10.704   6.153  1.00 27.73 LIG 0.17  C 
ATOM     16  CB  ALA S   7       0.671 -10.512   7.024  1.00 27.93 LIG 0.04  C 
BRANCH 15 17
ATOM     17  N   ALA S   7      -0.228 -10.697   4.735  1.00 29.72 LIG-0.35  N 
ATOM     18  C   ALA S   6      -1.076 -10.909   3.713  1.00 32.34 LIG 0.26  C 
ATOM     19 O    ALA S   6      -2.249 -10.520   3.719  1.00 32.82 LIG-0.27  OA
ATOM     20 H    ALA S   7       0.608 -10.541   4.613  1.00 29.72 LIG 0.16  HD
BRANCH 18 21
ATOM     21  CA  ALA S   6      -0.471 -11.563   2.443  1.00 33.16 LIG 0.40  C 
ATOM     22  CB  ALA S   6      -0.253 -10.517   1.345  1.00 32.96 LIG 0.06  C 
ATOM     23  N   ALA S   6      -1.291 -12.703   1.877  1.00 33.36 LIG 0.61  N 
ENDBRANCH 18 21
ENDBRANCH 15 17
ENDBRANCH 1 15
TORSDOF 7
ENDMDL
MODEL 68
USER: ADFR SOLUTION from run 68
USER: SCORE 6.764867 LL:  -1.023 LR:  -5.782 RR:   0.000 FEB:  -3.694
USER: RMSD 4.463795
USER: SEED 67
USER: STATUS no improvement in best in 33 clusters for 5 generations
USER: GENES 9
USER: genes 0 Translation |==|  0.68423 0.60101 0.59038
USER: genes 1 Rotation |==|  0.65795 0.37538 0.40574 0.94792
USER: genes 2 Torsion [C]-N--CA-[C] |==|  0.81533
USER: genes 3 Torsion [N]-CA--C-[O] |==|  0.39443
USER: genes 4 Torsion [N]-CA--CB-[CG] |==|  0.74061
USER: genes 5 Torsion [CA]-CB--CG-[CD2] |==|  0.08741
USER: genes 6 Torsion [N]-C--CA-[N] |==|  0.95255
USER: genes 7 Torsion [C]-CA--N-[C] |==|  0.81532
USER: genes 8 Torsion [N]-C--CA-[N] |==|  0.67571
ROOT
ATOM      1  C   ALA S   7       4.212 -11.170   8.033  1.00 26.16 LIG 0.24  C 
ATOM      2 O    ALA S   7       5.387 -10.806   8.054  1.00 23.62 LIG-0.27  OA
ATOM      3  N   PHE S   8       3.831 -12.431   8.197  1.00 26.19 LIG-0.35  N 
ATOM      4 H    PHE S   8       3.010 -12.687   8.172  1.00 26.19 LIG 0.16  HD
ENDROOT
BRANCH 3 5
ATOM      5  CA  PHE S   8       4.780 -13.510   8.438  1.00 26.02 LIG 0.17  C 
BRANCH 5 6
ATOM      6  C   PHE S   8       5.658 -13.733   7.221  1.00 27.74 LIG 0.22  C 
ATOM      7 O    PHE S   8       6.864 -14.010   7.371  1.00 30.84 LIG-0.29  OA
ENDBRANCH 5 6
BRANCH 5 8
ATOM      8  CB  PHE S   8       4.061 -14.816   8.731  1.00 24.81 LIG 0.07  C 
BRANCH 8 9
ATOM      9  CG  PHE S   8       3.842 -15.080  10.198  1.00 22.51 LIG-0.06  A 
ATOM     10  CD2 PHE S   8       3.656 -14.032  11.067  1.00 18.27 LIG 0.01  A 
ATOM     11  CE2 PHE S   8       3.479 -14.261  12.461  1.00 17.55 LIG 0.00  A 
ATOM     12  CZ  PHE S   8       3.502 -15.564  12.948  1.00 18.56 LIG 0.00  A 
ATOM     13  CE1 PHE S   8       3.696 -16.614  12.074  1.00 16.51 LIG 0.00  A 
ATOM     14  CD1 PHE S   8       3.869 -16.378  10.700  1.00 19.44 LIG 0.01  A 
ENDBRANCH 8 9
ENDBRANCH 5 8
ENDBRANCH 3 5
BRANCH 1 15
ATOM     15  CA  ALA S   7       3.107 -10.133   7.867  1.00 27.73 LIG 0.17  C 
ATOM     16  CB  ALA S   7       3.003  -9.333   9.199  1.00 27.93 LIG 0.04  C 
BRANCH 15 17
ATOM     17  N   ALA S   7       1.784 -10.667   7.520  1.00 29.72 LIG-0.35  N 
ATOM     18  C   ALA S   6       1.481 -11.271   6.358  1.00 32.34 LIG 0.26  C 
ATOM     19 O    ALA S   6       2.273 -11.998   5.750  1.00 32.82 LIG-0.27  OA
ATOM     20 H    ALA S   7       1.204 -10.554   8.144  1.00 29.72 LIG 0.16  HD
BRANCH 18 21
ATOM     21  CA  ALA S   6       0.017 -11.120   5.866  1.00 33.16 LIG 0.40  C 
ATOM     22  CB  ALA S   6      -0.757 -10.145   6.759  1.00 32.96 LIG 0.06  C 
ATOM     23  N   ALA S   6      -0.751 -12.421   5.780  1.00 33.36 LIG 0.61  N 
ENDBRANCH 18 21
ENDBRANCH 15 17
ENDBRANCH 1 15
TORSDOF 7
ENDMDL
MODEL 69
USER: ADFR SOLUTION from run 197
USER: SCORE 6.774715 LL:  -1.284 LR:  -5.766 RR:   0.000 FEB:  -3.678
USER: RMSD 6.848751
USER: SEED 196
USER: STATUS no improvement in best in 38 clusters for 5 generations
USER: GENES 9
USER: genes 0 Translation |==|  0.72562 0.73424 0.60254
USER: genes 1 Rotation |==|  0.54891 0.08731 0.77802 0.50121
USER: genes 2 Torsion [C]-N--CA-[C] |==|  0.46981
USER: genes 3 Torsion [N]-CA--C-[O] |==|  0.35809
USER: genes 4 Torsion [N]-CA--CB-[CG] |==|  0.20471
USER: genes 5 Torsion [CA]-CB--CG-[CD2] |==|  0.37300
USER: genes 6 Torsion [N]-C--CA-[N] |==|  0.18890
USER: genes 7 Torsion [C]-CA--N-[C] |==|  0.78333
USER: genes 8 Torsion [N]-C--CA-[N] |==|  0.42778
ROOT
ATOM      1  C   ALA S   7       4.926  -9.072   8.178  1.00 26.16 LIG 0.24  C 
ATOM      2 O    ALA S   7       4.002  -8.261   8.128  1.00 23.62 LIG-0.27  OA
ATOM      3  N   PHE S   8       4.802 -10.296   8.676  1.00 26.19 LIG-0.35  N 
ATOM      4 H    PHE S   8       5.451 -10.859   8.720  1.00 26.19 LIG 0.16  HD
ENDROOT
BRANCH 3 5
ATOM      5  CA  PHE S   8       3.541 -10.804   9.198  1.00 26.02 LIG 0.17  C 
BRANCH 5 6
ATOM      6  C   PHE S   8       3.627 -12.298   9.448  1.00 27.74 LIG 0.22  C 
ATOM      7 O    PHE S   8       3.284 -12.760  10.554  1.00 30.84 LIG-0.29  OA
ENDBRANCH 5 6
BRANCH 5 8
ATOM      8  CB  PHE S   8       2.407 -10.569   8.213  1.00 24.81 LIG 0.07  C 
BRANCH 8 9
ATOM      9  CG  PHE S   8       2.439 -11.479   7.013  1.00 22.51 LIG-0.06  A 
ATOM     10  CD2 PHE S   8       1.288 -12.098   6.586  1.00 18.27 LIG 0.01  A 
ATOM     11  CE2 PHE S   8       1.305 -12.985   5.473  1.00 17.55 LIG 0.00  A 
ATOM     12  CZ  PHE S   8       2.504 -13.234   4.815  1.00 18.56 LIG 0.00  A 
ATOM     13  CE1 PHE S   8       3.660 -12.617   5.250  1.00 16.51 LIG 0.00  A 
ATOM     14  CD1 PHE S   8       3.633 -11.742   6.349  1.00 19.44 LIG 0.01  A 
ENDBRANCH 8 9
ENDBRANCH 5 8
ENDBRANCH 3 5
BRANCH 1 15
ATOM     15  CA  ALA S   7       6.284  -8.700   7.594  1.00 27.73 LIG 0.17  C 
ATOM     16  CB  ALA S   7       6.281  -7.167   7.323  1.00 27.93 LIG 0.04  C 
BRANCH 15 17
ATOM     17  N   ALA S   7       6.659  -9.407   6.363  1.00 29.72 LIG-0.35  N 
ATOM     18  C   ALA S   6       7.123 -10.668   6.313  1.00 32.34 LIG 0.26  C 
ATOM     19 O    ALA S   6       6.730 -11.561   7.071  1.00 32.82 LIG-0.27  OA
ATOM     20 H    ALA S   7       6.553  -8.928   5.658  1.00 29.72 LIG 0.16  HD
BRANCH 18 21
ATOM     21  CA  ALA S   6       8.099 -10.995   5.152  1.00 33.16 LIG 0.40  C 
ATOM     22  CB  ALA S   6       7.328 -11.305   3.866  1.00 32.96 LIG 0.06  C 
ATOM     23  N   ALA S   6       9.051 -12.137   5.440  1.00 33.36 LIG 0.61  N 
ENDBRANCH 18 21
ENDBRANCH 15 17
ENDBRANCH 1 15
TORSDOF 7
ENDMDL
MODEL 70
USER: ADFR SOLUTION from run 153
USER: SCORE 6.604242 LL:  -1.134 LR:  -5.752 RR:   0.000 FEB:  -3.664
USER: RMSD 6.375461
USER: SEED 152
USER: STATUS no improvement in best in 41 clusters for 5 generations
USER: GENES 9
USER: genes 0 Translation |==|  0.37463 0.67849 0.24692
USER: genes 1 Rotation |==|  0.75116 0.29941 0.85535 0.64285
USER: genes 2 Torsion [C]-N--CA-[C] |==|  0.46736
USER: genes 3 Torsion [N]-CA--C-[O] |==|  0.01074
USER: genes 4 Torsion [N]-CA--CB-[CG] |==|  0.70240
USER: genes 5 Torsion [CA]-CB--CG-[CD2] |==|  0.00338
USER: genes 6 Torsion [N]-C--CA-[N] |==|  0.07240
USER: genes 7 Torsion [C]-CA--N-[C] |==|  0.18889
USER: genes 8 Torsion [N]-C--CA-[N] |==|  0.91727
ROOT
ATOM      1  C   ALA S   7      -1.129  -9.950   3.911  1.00 26.16 LIG 0.24  C 
ATOM      2 O    ALA S   7      -2.182  -9.496   4.357  1.00 23.62 LIG-0.27  OA
ATOM      3  N   PHE S   8      -0.093 -10.286   4.671  1.00 26.19 LIG-0.35  N 
ATOM      4 H    PHE S   8       0.646 -10.594   4.358  1.00 26.19 LIG 0.16  HD
ENDROOT
BRANCH 3 5
ATOM      5  CA  PHE S   8      -0.116 -10.163   6.122  1.00 26.02 LIG 0.17  C 
BRANCH 5 6
ATOM      6  C   PHE S   8       1.071 -10.878   6.740  1.00 27.74 LIG 0.22  C 
ATOM      7 O    PHE S   8       1.930 -11.399   6.002  1.00 30.84 LIG-0.29  OA
ENDBRANCH 5 6
BRANCH 5 8
ATOM      8  CB  PHE S   8      -1.377 -10.781   6.703  1.00 24.81 LIG 0.07  C 
BRANCH 8 9
ATOM      9  CG  PHE S   8      -2.380  -9.773   7.203  1.00 22.51 LIG-0.06  A 
ATOM     10  CD2 PHE S   8      -2.122  -8.428   7.087  1.00 18.27 LIG 0.01  A 
ATOM     11  CE2 PHE S   8      -3.044  -7.462   7.581  1.00 17.55 LIG 0.00  A 
ATOM     12  CZ  PHE S   8      -4.216  -7.888   8.196  1.00 18.56 LIG 0.00  A 
ATOM     13  CE1 PHE S   8      -4.469  -9.239   8.317  1.00 16.51 LIG 0.00  A 
ATOM     14  CD1 PHE S   8      -3.554 -10.185   7.826  1.00 19.44 LIG 0.01  A 
ENDBRANCH 8 9
ENDBRANCH 5 8
ENDBRANCH 3 5
BRANCH 1 15
ATOM     15  CA  ALA S   7      -0.996 -10.205   2.414  1.00 27.73 LIG 0.17  C 
ATOM     16  CB  ALA S   7      -2.414 -10.528   1.859  1.00 27.93 LIG 0.04  C 
BRANCH 15 17
ATOM     17  N   ALA S   7      -0.073 -11.282   2.035  1.00 29.72 LIG-0.35  N 
ATOM     18  C   ALA S   6      -0.273 -12.589   2.282  1.00 32.34 LIG 0.26  C 
ATOM     19 O    ALA S   6      -1.390 -13.117   2.249  1.00 32.82 LIG-0.27  OA
ATOM     20 H    ALA S   7       0.628 -10.994   1.628  1.00 29.72 LIG 0.16  HD
BRANCH 18 21
ATOM     21  CA  ALA S   6       0.999 -13.452   2.488  1.00 33.16 LIG 0.40  C 
ATOM     22  CB  ALA S   6       1.350 -13.556   3.975  1.00 32.96 LIG 0.06  C 
ATOM     23  N   ALA S   6       2.216 -12.962   1.731  1.00 33.36 LIG 0.61  N 
ENDBRANCH 18 21
ENDBRANCH 15 17
ENDBRANCH 1 15
TORSDOF 7
ENDMDL
MODEL 71
USER: ADFR SOLUTION from run 80
USER: SCORE 7.188275 LL:  -1.488 LR:  -5.742 RR:   0.000 FEB:  -3.654
USER: RMSD 2.746740
USER: SEED 79
USER: STATUS no improvement in best in 37 clusters for 5 generations
USER: GENES 9
USER: genes 0 Translation |==|  0.59150 0.49632 0.41771
USER: genes 1 Rotation |==|  0.51958 0.55206 0.61296 0.98389
USER: genes 2 Torsion [C]-N--CA-[C] |==|  0.63764
USER: genes 3 Torsion [N]-CA--C-[O] |==|  0.95620
USER: genes 4 Torsion [N]-CA--CB-[CG] |==|  0.86449
USER: genes 5 Torsion [CA]-CB--CG-[CD2] |==|  0.22289
USER: genes 6 Torsion [N]-C--CA-[N] |==|  0.43889
USER: genes 7 Torsion [C]-CA--N-[C] |==|  0.78611
USER: genes 8 Torsion [N]-C--CA-[N] |==|  0.46686
ROOT
ATOM      1  C   ALA S   7       2.612 -12.819   5.960  1.00 26.16 LIG 0.24  C 
ATOM      2 O    ALA S   7       2.897 -12.011   5.077  1.00 23.62 LIG-0.27  OA
ATOM      3  N   PHE S   8       3.518 -13.467   6.683  1.00 26.19 LIG-0.35  N 
ATOM      4 H    PHE S   8       3.318 -14.039   7.294  1.00 26.19 LIG 0.16  HD
ENDROOT
BRANCH 3 5
ATOM      5  CA  PHE S   8       4.950 -13.266   6.506  1.00 26.02 LIG 0.17  C 
BRANCH 5 6
ATOM      6  C   PHE S   8       5.665 -14.597   6.371  1.00 27.74 LIG 0.22  C 
ATOM      7 O    PHE S   8       5.085 -15.647   6.708  1.00 30.84 LIG-0.29  OA
ENDBRANCH 5 6
BRANCH 5 8
ATOM      8  CB  PHE S   8       5.551 -12.541   7.698  1.00 24.81 LIG 0.07  C 
BRANCH 8 9
ATOM      9  CG  PHE S   8       4.792 -11.307   8.112  1.00 22.51 LIG-0.06  A 
ATOM     10  CD2 PHE S   8       3.656 -11.420   8.877  1.00 18.27 LIG 0.01  A 
ATOM     11  CE2 PHE S   8       2.909 -10.268   9.252  1.00 17.55 LIG 0.00  A 
ATOM     12  CZ  PHE S   8       3.332  -9.012   8.830  1.00 18.56 LIG 0.00  A 
ATOM     13  CE1 PHE S   8       4.469  -8.901   8.056  1.00 16.51 LIG 0.00  A 
ATOM     14  CD1 PHE S   8       5.201 -10.044   7.692  1.00 19.44 LIG 0.01  A 
ENDBRANCH 8 9
ENDBRANCH 5 8
ENDBRANCH 3 5
BRANCH 1 15
ATOM     15  CA  ALA S   7       1.149 -13.068   6.307  1.00 27.73 LIG 0.17  C 
ATOM     16  CB  ALA S   7       0.731 -14.422   5.661  1.00 27.93 LIG 0.04  C 
BRANCH 15 17
ATOM     17  N   ALA S   7       0.210 -12.021   5.883  1.00 29.72 LIG-0.35  N 
ATOM     18  C   ALA S   6       0.045 -10.840   6.505  1.00 32.34 LIG 0.26  C 
ATOM     19 O    ALA S   6       0.973 -10.222   7.035  1.00 32.82 LIG-0.27  OA
ATOM     20 H    ALA S   7      -0.236 -12.238   5.181  1.00 29.72 LIG 0.16  HD
BRANCH 18 21
ATOM     21  CA  ALA S   6      -1.370 -10.209   6.414  1.00 33.16 LIG 0.40  C 
ATOM     22  CB  ALA S   6      -1.673  -9.761   4.981  1.00 32.96 LIG 0.06  C 
ATOM     23  N   ALA S   6      -1.594  -9.041   7.351  1.00 33.36 LIG 0.61  N 
ENDBRANCH 18 21
ENDBRANCH 15 17
ENDBRANCH 1 15
TORSDOF 7
ENDMDL
MODEL 72
USER: ADFR SOLUTION from run 45
USER: SCORE 6.694199 LL:  -1.142 LR:  -5.730 RR:   0.000 FEB:  -3.642
USER: RMSD 2.419795
USER: SEED 44
USER: STATUS no improvement in best in 37 clusters for 5 generations
USER: GENES 9
USER: genes 0 Translation |==|  0.63137 0.47844 0.40489
USER: genes 1 Rotation |==|  0.63501 0.57138 0.74669 0.90721
USER: genes 2 Torsion [C]-N--CA-[C] |==|  0.62045
USER: genes 3 Torsion [N]-CA--C-[O] |==|  0.76920
USER: genes 4 Torsion [N]-CA--CB-[CG] |==|  0.78549
USER: genes 5 Torsion [CA]-CB--CG-[CD2] |==|  0.22569
USER: genes 6 Torsion [N]-C--CA-[N] |==|  0.42694
USER: genes 7 Torsion [C]-CA--N-[C] |==|  0.55575
USER: genes 8 Torsion [N]-C--CA-[N] |==|  0.58393
ROOT
ATOM      1  C   ALA S   7       3.300 -13.101   5.807  1.00 26.16 LIG 0.24  C 
ATOM      2 O    ALA S   7       2.897 -11.994   5.450  1.00 23.62 LIG-0.27  OA
ATOM      3  N   PHE S   8       4.575 -13.372   6.058  1.00 26.19 LIG-0.35  N 
ATOM      4 H    PHE S   8       4.858 -14.148   6.298  1.00 26.19 LIG 0.16  HD
ENDROOT
BRANCH 3 5
ATOM      5  CA  PHE S   8       5.624 -12.367   5.950  1.00 26.02 LIG 0.17  C 
BRANCH 5 6
ATOM      6  C   PHE S   8       6.845 -12.940   5.256  1.00 27.74 LIG 0.22  C 
ATOM      7 O    PHE S   8       7.677 -13.598   5.911  1.00 30.84 LIG-0.29  OA
ENDBRANCH 5 6
BRANCH 5 8
ATOM      8  CB  PHE S   8       6.062 -11.884   7.323  1.00 24.81 LIG 0.07  C 
BRANCH 8 9
ATOM      9  CG  PHE S   8       5.107 -10.910   7.963  1.00 22.51 LIG-0.06  A 
ATOM     10  CD2 PHE S   8       3.984 -11.369   8.610  1.00 18.27 LIG 0.01  A 
ATOM     11  CE2 PHE S   8       3.055 -10.463   9.195  1.00 17.55 LIG 0.00  A 
ATOM     12  CZ  PHE S   8       3.284  -9.095   9.102  1.00 18.56 LIG 0.00  A 
ATOM     13  CE1 PHE S   8       4.408  -8.636   8.445  1.00 16.51 LIG 0.00  A 
ATOM     14  CD1 PHE S   8       5.320  -9.538   7.873  1.00 19.44 LIG 0.01  A 
ENDBRANCH 8 9
ENDBRANCH 5 8
ENDBRANCH 3 5
BRANCH 1 15
ATOM     15  CA  ALA S   7       2.298 -14.226   6.037  1.00 27.73 LIG 0.17  C 
ATOM     16  CB  ALA S   7       2.284 -15.118   4.761  1.00 27.93 LIG 0.04  C 
BRANCH 15 17
ATOM     17  N   ALA S   7       0.927 -13.801   6.345  1.00 29.72 LIG-0.35  N 
ATOM     18  C   ALA S   6       0.001 -14.570   6.945  1.00 32.34 LIG 0.26  C 
ATOM     19 O    ALA S   6       0.274 -15.386   7.831  1.00 32.82 LIG-0.27  OA
ATOM     20 H    ALA S   7       0.765 -12.994   6.099  1.00 29.72 LIG 0.16  HD
BRANCH 18 21
ATOM     21  CA  ALA S   6      -1.476 -14.291   6.561  1.00 33.16 LIG 0.40  C 
ATOM     22  CB  ALA S   6      -1.653 -12.840   6.104  1.00 32.96 LIG 0.06  C 
ATOM     23  N   ALA S   6      -2.474 -14.583   7.662  1.00 33.36 LIG 0.61  N 
ENDBRANCH 18 21
ENDBRANCH 15 17
ENDBRANCH 1 15
TORSDOF 7
ENDMDL
MODEL 73
USER: ADFR SOLUTION from run 33
USER: SCORE 6.795699 LL:  -1.186 LR:  -5.726 RR:   0.000 FEB:  -3.638
USER: RMSD 3.620038
USER: SEED 32
USER: STATUS no improvement in best in 28 clusters for 5 generations
USER: GENES 9
USER: genes 0 Translation |==|  0.54769 0.57073 0.46111
USER: genes 1 Rotation |==|  0.27152 0.39983 0.57013 0.92760
USER: genes 2 Torsion [C]-N--CA-[C] |==|  0.20189
USER: genes 3 Torsion [N]-CA--C-[O] |==|  0.41216
USER: genes 4 Torsion [N]-CA--CB-[CG] |==|  0.78929
USER: genes 5 Torsion [CA]-CB--CG-[CD2] |==|  0.87676
USER: genes 6 Torsion [N]-C--CA-[N] |==|  0.87793
USER: genes 7 Torsion [C]-CA--N-[C] |==|  0.81741
USER: genes 8 Torsion [N]-C--CA-[N] |==|  0.76216
ROOT
ATOM      1  C   ALA S   7       1.857 -11.647   6.481  1.00 26.16 LIG 0.24  C 
ATOM      2 O    ALA S   7       2.895 -11.650   5.822  1.00 23.62 LIG-0.27  OA
ATOM      3  N   PHE S   8       1.800 -11.299   7.761  1.00 26.19 LIG-0.35  N 
ATOM      4 H    PHE S   8       1.075 -11.307   8.224  1.00 26.19 LIG 0.16  HD
ENDROOT
BRANCH 3 5
ATOM      5  CA  PHE S   8       2.975 -10.866   8.506  1.00 26.02 LIG 0.17  C 
BRANCH 5 6
ATOM      6  C   PHE S   8       3.400  -9.475   8.075  1.00 27.74 LIG 0.22  C 
ATOM      7 O    PHE S   8       3.935  -8.709   8.900  1.00 30.84 LIG-0.29  OA
ENDBRANCH 5 6
BRANCH 5 8
ATOM      8  CB  PHE S   8       4.149 -11.800   8.266  1.00 24.81 LIG 0.07  C 
BRANCH 8 9
ATOM      9  CG  PHE S   8       4.050 -13.112   9.001  1.00 22.51 LIG-0.06  A 
ATOM     10  CD2 PHE S   8       3.659 -13.136  10.319  1.00 18.27 LIG 0.01  A 
ATOM     11  CE2 PHE S   8       3.589 -14.362  11.038  1.00 17.55 LIG 0.00  A 
ATOM     12  CZ  PHE S   8       3.929 -15.550  10.399  1.00 18.56 LIG 0.00  A 
ATOM     13  CE1 PHE S   8       4.328 -15.522   9.078  1.00 16.51 LIG 0.00  A 
ATOM     14  CD1 PHE S   8       4.393 -14.307   8.376  1.00 19.44 LIG 0.01  A 
ENDBRANCH 8 9
ENDBRANCH 5 8
ENDBRANCH 3 5
BRANCH 1 15
ATOM     15  CA  ALA S   7       0.537 -12.003   5.806  1.00 27.73 LIG 0.17  C 
ATOM     16  CB  ALA S   7      -0.195 -10.672   5.462  1.00 27.93 LIG 0.04  C 
BRANCH 15 17
ATOM     17  N   ALA S   7      -0.363 -12.861   6.585  1.00 29.72 LIG-0.35  N 
ATOM     18  C   ALA S   6      -0.104 -14.136   6.926  1.00 32.34 LIG 0.26  C 
ATOM     19 O    ALA S   6       1.028 -14.541   7.211  1.00 32.82 LIG-0.27  OA
ATOM     20 H    ALA S   7      -1.091 -12.464   6.810  1.00 29.72 LIG 0.16  HD
BRANCH 18 21
ATOM     21  CA  ALA S   6      -1.334 -15.070   7.076  1.00 33.16 LIG 0.40  C 
ATOM     22  CB  ALA S   6      -2.390 -14.752   6.013  1.00 32.96 LIG 0.06  C 
ATOM     23  N   ALA S   6      -1.986 -15.029   8.442  1.00 33.36 LIG 0.61  N 
ENDBRANCH 18 21
ENDBRANCH 15 17
ENDBRANCH 1 15
TORSDOF 7
ENDMDL
MODEL 74
USER: ADFR SOLUTION from run 180
USER: SCORE 6.818257 LL:  -1.130 LR:  -5.716 RR:   0.000 FEB:  -3.628
USER: RMSD 5.414757
USER: SEED 179
USER: STATUS no improvement in best in 32 clusters for 5 generations
USER: GENES 9
USER: genes 0 Translation |==|  0.78109 0.59508 0.47634
USER: genes 1 Rotation |==|  0.15530 0.24827 0.44221 0.75392
USER: genes 2 Torsion [C]-N--CA-[C] |==|  0.67666
USER: genes 3 Torsion [N]-CA--C-[O] |==|  0.62089
USER: genes 4 Torsion [N]-CA--CB-[CG] |==|  0.77931
USER: genes 5 Torsion [CA]-CB--CG-[CD2] |==|  0.55325
USER: genes 6 Torsion [N]-C--CA-[N] |==|  0.92117
USER: genes 7 Torsion [C]-CA--N-[C] |==|  0.83889
USER: genes 8 Torsion [N]-C--CA-[N] |==|  0.67340
ROOT
ATOM      1  C   ALA S   7       5.883 -11.263   6.664  1.00 26.16 LIG 0.24  C 
ATOM      2 O    ALA S   7       6.931 -11.478   7.271  1.00 23.62 LIG-0.27  OA
ATOM      3  N   PHE S   8       5.018 -10.316   7.006  1.00 26.19 LIG-0.35  N 
ATOM      4 H    PHE S   8       4.280 -10.173   6.587  1.00 26.19 LIG 0.16  HD
ENDROOT
BRANCH 3 5
ATOM      5  CA  PHE S   8       5.242  -9.422   8.134  1.00 26.02 LIG 0.17  C 
BRANCH 5 6
ATOM      6  C   PHE S   8       4.181  -9.626   9.198  1.00 27.74 LIG 0.22  C 
ATOM      7 O    PHE S   8       3.659  -8.636   9.748  1.00 30.84 LIG-0.29  OA
ENDBRANCH 5 6
BRANCH 5 8
ATOM      8  CB  PHE S   8       5.182  -7.967   7.698  1.00 24.81 LIG 0.07  C 
BRANCH 8 9
ATOM      9  CG  PHE S   8       6.441  -7.472   7.036  1.00 22.51 LIG-0.06  A 
ATOM     10  CD2 PHE S   8       6.690  -6.123   6.948  1.00 18.27 LIG 0.01  A 
ATOM     11  CE2 PHE S   8       7.860  -5.636   6.299  1.00 17.55 LIG 0.00  A 
ATOM     12  CZ  PHE S   8       8.757  -6.540   5.740  1.00 18.56 LIG 0.00  A 
ATOM     13  CE1 PHE S   8       8.502  -7.893   5.823  1.00 16.51 LIG 0.00  A 
ATOM     14  CD1 PHE S   8       7.345  -8.364   6.467  1.00 19.44 LIG 0.01  A 
ENDBRANCH 8 9
ENDBRANCH 5 8
ENDBRANCH 3 5
BRANCH 1 15
ATOM     15  CA  ALA S   7       5.559 -12.074   5.414  1.00 27.73 LIG 0.17  C 
ATOM     16  CB  ALA S   7       6.288 -11.406   4.212  1.00 27.93 LIG 0.04  C 
BRANCH 15 17
ATOM     17  N   ALA S   7       4.131 -12.208   5.099  1.00 29.72 LIG-0.35  N 
ATOM     18  C   ALA S   6       3.209 -12.739   5.921  1.00 32.34 LIG 0.26  C 
ATOM     19 O    ALA S   6       3.239 -12.596   7.148  1.00 32.82 LIG-0.27  OA
ATOM     20 H    ALA S   7       3.932 -11.908   4.318  1.00 29.72 LIG 0.16  HD
BRANCH 18 21
ATOM     21  CA  ALA S   6       2.006 -13.444   5.240  1.00 33.16 LIG 0.40  C 
ATOM     22  CB  ALA S   6       2.204 -13.511   3.723  1.00 32.96 LIG 0.06  C 
ATOM     23  N   ALA S   6       0.663 -12.810   5.532  1.00 33.36 LIG 0.61  N 
ENDBRANCH 18 21
ENDBRANCH 15 17
ENDBRANCH 1 15
TORSDOF 7
ENDMDL
MODEL 75
USER: ADFR SOLUTION from run 169
USER: SCORE 6.448862 LL:  -0.986 LR:  -5.707 RR:   0.000 FEB:  -3.619
USER: RMSD 4.855158
USER: SEED 168
USER: STATUS no improvement in best in 39 clusters for 5 generations
USER: GENES 9
USER: genes 0 Translation |==|  0.32967 0.55953 0.44020
USER: genes 1 Rotation |==|  0.20809 0.56034 0.67509 0.86123
USER: genes 2 Torsion [C]-N--CA-[C] |==|  0.13522
USER: genes 3 Torsion [N]-CA--C-[O] |==|  0.09962
USER: genes 4 Torsion [N]-CA--CB-[CG] |==|  0.64376
USER: genes 5 Torsion [CA]-CB--CG-[CD2] |==|  0.08794
USER: genes 6 Torsion [N]-C--CA-[N] |==|  0.07917
USER: genes 7 Torsion [C]-CA--N-[C] |==|  0.13889
USER: genes 8 Torsion [N]-C--CA-[N] |==|  0.00585
ROOT
ATOM      1  C   ALA S   7      -1.904 -11.823   6.230  1.00 26.16 LIG 0.24  C 
ATOM      2 O    ALA S   7      -1.470 -12.269   5.169  1.00 23.62 LIG-0.27  OA
ATOM      3  N   PHE S   8      -1.281 -10.896   6.948  1.00 26.19 LIG-0.35  N 
ATOM      4 H    PHE S   8      -1.581 -10.592   7.695  1.00 26.19 LIG 0.16  HD
ENDROOT
BRANCH 3 5
ATOM      5  CA  PHE S   8      -0.019 -10.301   6.530  1.00 26.02 LIG 0.17  C 
BRANCH 5 6
ATOM      6  C   PHE S   8      -0.091  -9.853   5.083  1.00 27.74 LIG 0.22  C 
ATOM      7 O    PHE S   8      -1.156  -9.386   4.633  1.00 30.84 LIG-0.29  OA
ENDBRANCH 5 6
BRANCH 5 8
ATOM      8  CB  PHE S   8       1.120 -11.301   6.645  1.00 24.81 LIG 0.07  C 
BRANCH 8 9
ATOM      9  CG  PHE S   8       2.308 -10.791   7.419  1.00 22.51 LIG-0.06  A 
ATOM     10  CD2 PHE S   8       2.129  -9.899   8.449  1.00 18.27 LIG 0.01  A 
ATOM     11  CE2 PHE S   8       3.241  -9.383   9.171  1.00 17.55 LIG 0.00  A 
ATOM     12  CZ  PHE S   8       4.527  -9.783   8.823  1.00 18.56 LIG 0.00  A 
ATOM     13  CE1 PHE S   8       4.705 -10.673   7.784  1.00 16.51 LIG 0.00  A 
ATOM     14  CD1 PHE S   8       3.601 -11.178   7.077  1.00 19.44 LIG 0.01  A 
ENDBRANCH 8 9
ENDBRANCH 5 8
ENDBRANCH 3 5
BRANCH 1 15
ATOM     15  CA  ALA S   7      -3.257 -12.300   6.747  1.00 27.73 LIG 0.17  C 
ATOM     16  CB  ALA S   7      -4.106 -12.743   5.519  1.00 27.93 LIG 0.04  C 
BRANCH 15 17
ATOM     17  N   ALA S   7      -4.017 -11.320   7.532  1.00 29.72 LIG-0.35  N 
ATOM     18  C   ALA S   6      -4.262 -10.054   7.150  1.00 32.34 LIG 0.26  C 
ATOM     19 O    ALA S   6      -4.470  -9.733   5.975  1.00 32.82 LIG-0.27  OA
ATOM     20 H    ALA S   7      -4.300 -11.637   8.279  1.00 29.72 LIG 0.16  HD
BRANCH 18 21
ATOM     21  CA  ALA S   6      -4.405  -9.009   8.287  1.00 33.16 LIG 0.40  C 
ATOM     22  CB  ALA S   6      -3.441  -7.838   8.073  1.00 32.96 LIG 0.06  C 
ATOM     23  N   ALA S   6      -4.195  -9.567   9.679  1.00 33.36 LIG 0.61  N 
ENDBRANCH 18 21
ENDBRANCH 15 17
ENDBRANCH 1 15
TORSDOF 7
ENDMDL
MODEL 76
USER: ADFR SOLUTION from run 171
USER: SCORE 7.050442 LL:  -1.381 LR:  -5.702 RR:   0.000 FEB:  -3.614
USER: RMSD 6.688944
USER: SEED 170
USER: STATUS no improvement in best in 28 clusters for 5 generations
USER: GENES 9
USER: genes 0 Translation |==|  0.67430 0.59629 0.63876
USER: genes 1 Rotation |==|  0.74265 0.08977 0.37025 0.57744
USER: genes 2 Torsion [C]-N--CA-[C] |==|  0.51053
USER: genes 3 Torsion [N]-CA--C-[O] |==|  0.89628
USER: genes 4 Torsion [N]-CA--CB-[CG] |==|  0.17473
USER: genes 5 Torsion [CA]-CB--CG-[CD2] |==|  0.78524
USER: genes 6 Torsion [N]-C--CA-[N] |==|  0.94985
USER: genes 7 Torsion [C]-CA--N-[C] |==|  0.80993
USER: genes 8 Torsion [N]-C--CA-[N] |==|  0.68955
ROOT
ATOM      1  C   ALA S   7       4.041 -11.244   8.613  1.00 26.16 LIG 0.24  C 
ATOM      2 O    ALA S   7       3.733 -11.954   9.570  1.00 23.62 LIG-0.27  OA
ATOM      3  N   PHE S   8       4.025 -11.664   7.353  1.00 26.19 LIG-0.35  N 
ATOM      4 H    PHE S   8       4.250 -11.170   6.686  1.00 26.19 LIG 0.16  HD
ENDROOT
BRANCH 3 5
ATOM      5  CA  PHE S   8       3.621 -13.013   6.983  1.00 26.02 LIG 0.17  C 
BRANCH 5 6
ATOM      6  C   PHE S   8       3.792 -13.234   5.492  1.00 27.74 LIG 0.22  C 
ATOM      7 O    PHE S   8       3.539 -12.307   4.698  1.00 30.84 LIG-0.29  OA
ENDBRANCH 5 6
BRANCH 5 8
ATOM      8  CB  PHE S   8       2.159 -13.257   7.319  1.00 24.81 LIG 0.07  C 
BRANCH 8 9
ATOM      9  CG  PHE S   8       1.201 -12.370   6.566  1.00 22.51 LIG-0.06  A 
ATOM     10  CD2 PHE S   8       1.027 -11.062   6.949  1.00 18.27 LIG 0.01  A 
ATOM     11  CE2 PHE S   8       0.104 -10.218   6.269  1.00 17.55 LIG 0.00  A 
ATOM     12  CZ  PHE S   8      -0.637 -10.729   5.209  1.00 18.56 LIG 0.00  A 
ATOM     13  CE1 PHE S   8      -0.465 -12.045   4.832  1.00 16.51 LIG 0.00  A 
ATOM     14  CD1 PHE S   8       0.449 -12.870   5.507  1.00 19.44 LIG 0.01  A 
ENDBRANCH 8 9
ENDBRANCH 5 8
ENDBRANCH 3 5
BRANCH 1 15
ATOM     15  CA  ALA S   7       4.409  -9.784   8.848  1.00 27.73 LIG 0.17  C 
ATOM     16  CB  ALA S   7       3.098  -9.011   9.180  1.00 27.93 LIG 0.04  C 
BRANCH 15 17
ATOM     17  N   ALA S   7       5.095  -9.116   7.735  1.00 29.72 LIG-0.35  N 
ATOM     18  C   ALA S   6       6.342  -9.399   7.321  1.00 32.34 LIG 0.26  C 
ATOM     19 O    ALA S   6       6.811 -10.542   7.327  1.00 32.82 LIG-0.27  OA
ATOM     20 H    ALA S   7       4.613  -8.510   7.362  1.00 29.72 LIG 0.16  HD
BRANCH 18 21
ATOM     21  CA  ALA S   6       7.142  -8.225   6.698  1.00 33.16 LIG 0.40  C 
ATOM     22  CB  ALA S   6       6.432  -6.891   6.948  1.00 32.96 LIG 0.06  C 
ATOM     23  N   ALA S   6       7.409  -8.368   5.215  1.00 33.36 LIG 0.61  N 
ENDBRANCH 18 21
ENDBRANCH 15 17
ENDBRANCH 1 15
TORSDOF 7
ENDMDL
MODEL 77
USER: ADFR SOLUTION from run 47
USER: SCORE 6.489584 LL:  -1.015 LR:  -5.675 RR:   0.000 FEB:  -3.587
USER: RMSD 6.138978
USER: SEED 46
USER: STATUS no improvement in best in 36 clusters for 5 generations
USER: GENES 9
USER: genes 0 Translation |==|  0.56688 0.50170 0.43280
USER: genes 1 Rotation |==|  0.21823 0.25820 0.80787 0.63175
USER: genes 2 Torsion [C]-N--CA-[C] |==|  0.71466
USER: genes 3 Torsion [N]-CA--C-[O] |==|  0.11632
USER: genes 4 Torsion [N]-CA--CB-[CG] |==|  0.42402
USER: genes 5 Torsion [CA]-CB--CG-[CD2] |==|  0.69830
USER: genes 6 Torsion [N]-C--CA-[N] |==|  0.85307
USER: genes 7 Torsion [C]-CA--N-[C] |==|  0.84014
USER: genes 8 Torsion [N]-C--CA-[N] |==|  0.26524
ROOT
ATOM      1  C   ALA S   7       2.188 -12.734   6.142  1.00 26.16 LIG 0.24  C 
ATOM      2 O    ALA S   7       2.902 -12.011   5.448  1.00 23.62 LIG-0.27  OA
ATOM      3  N   PHE S   8       1.035 -12.340   6.669  1.00 26.19 LIG-0.35  N 
ATOM      4 H    PHE S   8       0.541 -12.843   7.162  1.00 26.19 LIG 0.16  HD
ENDROOT
BRANCH 3 5
ATOM      5  CA  PHE S   8       0.495 -11.003   6.457  1.00 26.02 LIG 0.17  C 
BRANCH 5 6
ATOM      6  C   PHE S   8       0.717 -10.136   7.682  1.00 27.74 LIG 0.22  C 
ATOM      7 O    PHE S   8       1.807 -10.185   8.284  1.00 30.84 LIG-0.29  OA
ENDBRANCH 5 6
BRANCH 5 8
ATOM      8  CB  PHE S   8      -1.001 -11.054   6.196  1.00 24.81 LIG 0.07  C 
BRANCH 8 9
ATOM      9  CG  PHE S   8      -1.737  -9.803   6.601  1.00 22.51 LIG-0.06  A 
ATOM     10  CD2 PHE S   8      -2.566  -9.815   7.698  1.00 18.27 LIG 0.01  A 
ATOM     11  CE2 PHE S   8      -3.293  -8.652   8.078  1.00 17.55 LIG 0.00  A 
ATOM     12  CZ  PHE S   8      -3.168  -7.491   7.323  1.00 18.56 LIG 0.00  A 
ATOM     13  CE1 PHE S   8      -2.341  -7.484   6.218  1.00 16.51 LIG 0.00  A 
ATOM     14  CD1 PHE S   8      -1.626  -8.636   5.852  1.00 19.44 LIG 0.01  A 
ENDBRANCH 8 9
ENDBRANCH 5 8
ENDBRANCH 3 5
BRANCH 1 15
ATOM     15  CA  ALA S   7       2.593 -14.185   6.379  1.00 27.73 LIG 0.17  C 
ATOM     16  CB  ALA S   7       1.624 -15.089   5.561  1.00 27.93 LIG 0.04  C 
BRANCH 15 17
ATOM     17  N   ALA S   7       2.593 -14.621   7.781  1.00 29.72 LIG-0.35  N 
ATOM     18  C   ALA S   6       3.309 -14.047   8.764  1.00 32.34 LIG 0.26  C 
ATOM     19 O    ALA S   6       3.520 -12.831   8.822  1.00 32.82 LIG-0.27  OA
ATOM     20 H    ALA S   7       2.080 -15.296   7.920  1.00 29.72 LIG 0.16  HD
BRANCH 18 21
ATOM     21  CA  ALA S   6       3.760 -14.980   9.919  1.00 33.16 LIG 0.40  C 
ATOM     22  CB  ALA S   6       3.659 -14.261  11.268  1.00 32.96 LIG 0.06  C 
ATOM     23  N   ALA S   6       5.161 -15.534   9.763  1.00 33.36 LIG 0.61  N 
ENDBRANCH 18 21
ENDBRANCH 15 17
ENDBRANCH 1 15
TORSDOF 7
ENDMDL
MODEL 78
USER: ADFR SOLUTION from run 106
USER: SCORE 7.049329 LL:  -1.391 LR:  -5.679 RR:   0.000 FEB:  -3.591
USER: RMSD 6.435721
USER: SEED 105
USER: STATUS no improvement in best in 31 clusters for 5 generations
USER: GENES 9
USER: genes 0 Translation |==|  0.84552 0.58218 0.40100
USER: genes 1 Rotation |==|  0.54165 0.18920 0.27030 0.81449
USER: genes 2 Torsion [C]-N--CA-[C] |==|  0.51045
USER: genes 3 Torsion [N]-CA--C-[O] |==|  0.99893
USER: genes 4 Torsion [N]-CA--CB-[CG] |==|  0.15120
USER: genes 5 Torsion [CA]-CB--CG-[CD2] |==|  0.28427
USER: genes 6 Torsion [N]-C--CA-[N] |==|  0.93205
USER: genes 7 Torsion [C]-CA--N-[C] |==|  0.82667
USER: genes 8 Torsion [N]-C--CA-[N] |==|  0.71371
ROOT
ATOM      1  C   ALA S   7       6.994 -11.467   5.760  1.00 26.16 LIG 0.24  C 
ATOM      2 O    ALA S   7       7.783 -12.099   6.462  1.00 23.62 LIG-0.27  OA
ATOM      3  N   PHE S   8       5.713 -11.786   5.624  1.00 26.19 LIG-0.35  N 
ATOM      4 H    PHE S   8       5.164 -11.350   5.126  1.00 26.19 LIG 0.16  HD
ENDROOT
BRANCH 3 5
ATOM      5  CA  PHE S   8       5.112 -12.919   6.316  1.00 26.02 LIG 0.17  C 
BRANCH 5 6
ATOM      6  C   PHE S   8       3.664 -13.095   5.899  1.00 27.74 LIG 0.22  C 
ATOM      7 O    PHE S   8       3.159 -12.310   5.073  1.00 30.84 LIG-0.29  OA
ENDBRANCH 5 6
BRANCH 5 8
ATOM      8  CB  PHE S   8       5.135 -12.714   7.822  1.00 24.81 LIG 0.07  C 
BRANCH 8 9
ATOM      9  CG  PHE S   8       4.501 -11.424   8.274  1.00 22.51 LIG-0.06  A 
ATOM     10  CD2 PHE S   8       3.235 -11.428   8.811  1.00 18.27 LIG 0.01  A 
ATOM     11  CE2 PHE S   8       2.608 -10.216   9.216  1.00 17.55 LIG 0.00  A 
ATOM     12  CZ  PHE S   8       3.285  -9.011   9.057  1.00 18.56 LIG 0.00  A 
ATOM     13  CE1 PHE S   8       4.552  -9.008   8.511  1.00 16.51 LIG 0.00  A 
ATOM     14  CD1 PHE S   8       5.163 -10.210   8.116  1.00 19.44 LIG 0.01  A 
ENDBRANCH 8 9
ENDBRANCH 5 8
ENDBRANCH 3 5
BRANCH 1 15
ATOM     15  CA  ALA S   7       7.470 -10.210   5.040  1.00 27.73 LIG 0.17  C 
ATOM     16  CB  ALA S   7       7.482  -9.046   6.074  1.00 27.93 LIG 0.04  C 
BRANCH 15 17
ATOM     17  N   ALA S   7       6.676  -9.810   3.872  1.00 29.72 LIG-0.35  N 
ATOM     18  C   ALA S   6       6.523 -10.547   2.758  1.00 32.34 LIG 0.26  C 
ATOM     19 O    ALA S   6       6.447 -11.780   2.771  1.00 32.82 LIG-0.27  OA
ATOM     20 H    ALA S   7       6.307  -9.039   3.967  1.00 29.72 LIG 0.16  HD
BRANCH 18 21
ATOM     21  CA  ALA S   6       6.310  -9.760   1.438  1.00 33.16 LIG 0.40  C 
ATOM     22  CB  ALA S   6       6.809  -8.319   1.578  1.00 32.96 LIG 0.06  C 
ATOM     23  N   ALA S   6       4.878  -9.737   0.948  1.00 33.36 LIG 0.61  N 
ENDBRANCH 18 21
ENDBRANCH 15 17
ENDBRANCH 1 15
TORSDOF 7
ENDMDL
MODEL 79
USER: ADFR SOLUTION from run 130
USER: SCORE 6.246623 LL:  -0.869 LR:  -5.626 RR:   0.000 FEB:  -3.538
USER: RMSD 7.386194
USER: SEED 129
USER: STATUS no improvement in best in 33 clusters for 5 generations
USER: GENES 9
USER: genes 0 Translation |==|  0.37875 0.66963 0.45494
USER: genes 1 Rotation |==|  0.34082 0.26856 0.90503 0.58397
USER: genes 2 Torsion [C]-N--CA-[C] |==|  0.85813
USER: genes 3 Torsion [N]-CA--C-[O] |==|  0.61942
USER: genes 4 Torsion [N]-CA--CB-[CG] |==|  0.88462
USER: genes 5 Torsion [CA]-CB--CG-[CD2] |==|  0.38102
USER: genes 6 Torsion [N]-C--CA-[N] |==|  0.40000
USER: genes 7 Torsion [C]-CA--N-[C] |==|  0.63720
USER: genes 8 Torsion [N]-C--CA-[N] |==|  0.82092
ROOT
ATOM      1  C   ALA S   7      -1.057 -10.089   6.407  1.00 26.16 LIG 0.24  C 
ATOM      2 O    ALA S   7      -1.067  -9.377   5.404  1.00 23.62 LIG-0.27  OA
ATOM      3  N   PHE S   8      -1.972 -10.018   7.367  1.00 26.19 LIG-0.35  N 
ATOM      4 H    PHE S   8      -1.960 -10.510   8.073  1.00 26.19 LIG 0.16  HD
ENDROOT
BRANCH 3 5
ATOM      5  CA  PHE S   8      -3.093  -9.089   7.312  1.00 26.02 LIG 0.17  C 
BRANCH 5 6
ATOM      6  C   PHE S   8      -2.608  -7.681   7.026  1.00 27.74 LIG 0.22  C 
ATOM      7 O    PHE S   8      -3.091  -6.721   7.658  1.00 30.84 LIG-0.29  OA
ENDBRANCH 5 6
BRANCH 5 8
ATOM      8  CB  PHE S   8      -3.842  -9.057   8.634  1.00 24.81 LIG 0.07  C 
BRANCH 8 9
ATOM      9  CG  PHE S   8      -4.033 -10.413   9.263  1.00 22.51 LIG-0.06  A 
ATOM     10  CD2 PHE S   8      -3.841 -10.579  10.614  1.00 18.27 LIG 0.01  A 
ATOM     11  CE2 PHE S   8      -3.987 -11.858  11.222  1.00 17.55 LIG 0.00  A 
ATOM     12  CZ  PHE S   8      -4.321 -12.955  10.434  1.00 18.56 LIG 0.00  A 
ATOM     13  CE1 PHE S   8      -4.506 -12.786   9.077  1.00 16.51 LIG 0.00  A 
ATOM     14  CD1 PHE S   8      -4.361 -11.520   8.486  1.00 19.44 LIG 0.01  A 
ENDBRANCH 8 9
ENDBRANCH 5 8
ENDBRANCH 3 5
BRANCH 1 15
ATOM     15  CA  ALA S   7       0.016 -11.161   6.557  1.00 27.73 LIG 0.17  C 
ATOM     16  CB  ALA S   7       1.241 -10.511   7.265  1.00 27.93 LIG 0.04  C 
BRANCH 15 17
ATOM     17  N   ALA S   7       0.459 -11.793   5.309  1.00 29.72 LIG-0.35  N 
ATOM     18  C   ALA S   6       0.553 -13.120   5.110  1.00 32.34 LIG 0.26  C 
ATOM     19 O    ALA S   6      -0.239 -13.932   5.600  1.00 32.82 LIG-0.27  OA
ATOM     20 H    ALA S   7       0.659 -11.222   4.698  1.00 29.72 LIG 0.16  HD
BRANCH 18 21
ATOM     21  CA  ALA S   6       1.645 -13.590   4.113  1.00 33.16 LIG 0.40  C 
ATOM     22  CB  ALA S   6       3.033 -13.133   4.573  1.00 32.96 LIG 0.06  C 
ATOM     23  N   ALA S   6       1.427 -13.132   2.686  1.00 33.36 LIG 0.61  N 
ENDBRANCH 18 21
ENDBRANCH 15 17
ENDBRANCH 1 15
TORSDOF 7
ENDMDL
MODEL 80
USER: ADFR SOLUTION from run 131
USER: SCORE 6.293779 LL:  -1.001 LR:  -5.630 RR:   0.000 FEB:  -3.542
USER: RMSD 6.538482
USER: SEED 130
USER: STATUS no improvement in best in 35 clusters for 5 generations
USER: GENES 9
USER: genes 0 Translation |==|  0.65550 0.50614 0.66708
USER: genes 1 Rotation |==|  0.82055 0.80142 0.71468 0.60152
USER: genes 2 Torsion [C]-N--CA-[C] |==|  0.17848
USER: genes 3 Torsion [N]-CA--C-[O] |==|  0.62124
USER: genes 4 Torsion [N]-CA--CB-[CG] |==|  0.80767
USER: genes 5 Torsion [CA]-CB--CG-[CD2] |==|  0.05548
USER: genes 6 Torsion [N]-C--CA-[N] |==|  0.15594
USER: genes 7 Torsion [C]-CA--N-[C] |==|  0.77777
USER: genes 8 Torsion [N]-C--CA-[N] |==|  0.61634
ROOT
ATOM      1  C   ALA S   7       3.716 -12.664   8.953  1.00 26.16 LIG 0.24  C 
ATOM      2 O    ALA S   7       3.283 -12.238  10.023  1.00 23.62 LIG-0.27  OA
ATOM      3  N   PHE S   8       3.887 -11.907   7.876  1.00 26.19 LIG-0.35  N 
ATOM      4 H    PHE S   8       4.181 -12.207   7.125  1.00 26.19 LIG 0.16  HD
ENDROOT
BRANCH 3 5
ATOM      5  CA  PHE S   8       3.590 -10.481   7.868  1.00 26.02 LIG 0.17  C 
BRANCH 5 6
ATOM      6  C   PHE S   8       4.505  -9.738   8.823  1.00 27.74 LIG 0.22  C 
ATOM      7 O    PHE S   8       4.034  -8.860   9.573  1.00 30.84 LIG-0.29  OA
ENDBRANCH 5 6
BRANCH 5 8
ATOM      8  CB  PHE S   8       2.159 -10.219   8.307  1.00 24.81 LIG 0.07  C 
BRANCH 8 9
ATOM      9  CG  PHE S   8       1.120 -10.680   7.318  1.00 22.51 LIG-0.06  A 
ATOM     10  CD2 PHE S   8       1.442 -11.619   6.367  1.00 18.27 LIG 0.01  A 
ATOM     11  CE2 PHE S   8       0.483 -12.045   5.405  1.00 17.55 LIG 0.00  A 
ATOM     12  CZ  PHE S   8      -0.795 -11.496   5.426  1.00 18.56 LIG 0.00  A 
ATOM     13  CE1 PHE S   8      -1.114 -10.549   6.377  1.00 16.51 LIG 0.00  A 
ATOM     14  CD1 PHE S   8      -0.161 -10.136   7.323  1.00 19.44 LIG 0.01  A 
ENDBRANCH 8 9
ENDBRANCH 5 8
ENDBRANCH 3 5
BRANCH 1 15
ATOM     15  CA  ALA S   7       4.143 -14.124   8.843  1.00 27.73 LIG 0.17  C 
ATOM     16  CB  ALA S   7       3.886 -14.799  10.222  1.00 27.93 LIG 0.04  C 
BRANCH 15 17
ATOM     17  N   ALA S   7       5.539 -14.348   8.448  1.00 29.72 LIG-0.35  N 
ATOM     18  C   ALA S   6       6.000 -14.284   7.187  1.00 32.34 LIG 0.26  C 
ATOM     19 O    ALA S   6       5.572 -13.479   6.353  1.00 32.82 LIG-0.27  OA
ATOM     20 H    ALA S   7       6.050 -14.529   9.115  1.00 29.72 LIG 0.16  HD
BRANCH 18 21
ATOM     21  CA  ALA S   6       7.210 -15.195   6.851  1.00 33.16 LIG 0.40  C 
ATOM     22  CB  ALA S   6       7.863 -15.724   8.131  1.00 32.96 LIG 0.06  C 
ATOM     23  N   ALA S   6       8.271 -14.535   5.996  1.00 33.36 LIG 0.61  N 
ENDBRANCH 18 21
ENDBRANCH 15 17
ENDBRANCH 1 15
TORSDOF 7
ENDMDL
MODEL 81
USER: ADFR SOLUTION from run 59
USER: SCORE 6.989565 LL:  -1.403 LR:  -5.616 RR:   0.000 FEB:  -3.528
USER: RMSD 7.338710
USER: SEED 58
USER: STATUS no improvement in best in 33 clusters for 5 generations
USER: GENES 9
USER: genes 0 Translation |==|  0.19146 0.47628 0.56907
USER: genes 1 Rotation |==|  0.64992 0.58264 0.96547 0.56350
USER: genes 2 Torsion [C]-N--CA-[C] |==|  0.84196
USER: genes 3 Torsion [N]-CA--C-[O] |==|  0.61469
USER: genes 4 Torsion [N]-CA--CB-[CG] |==|  0.15369
USER: genes 5 Torsion [CA]-CB--CG-[CD2] |==|  0.32375
USER: genes 6 Torsion [N]-C--CA-[N] |==|  0.92778
USER: genes 7 Torsion [C]-CA--N-[C] |==|  0.80682
USER: genes 8 Torsion [N]-C--CA-[N] |==|  0.46365
ROOT
ATOM      1  C   ALA S   7      -4.288 -13.135   7.777  1.00 26.16 LIG 0.24  C 
ATOM      2 O    ALA S   7      -5.458 -13.515   7.735  1.00 23.62 LIG-0.27  OA
ATOM      3  N   PHE S   8      -3.907 -11.993   8.337  1.00 26.19 LIG-0.35  N 
ATOM      4 H    PHE S   8      -3.091 -11.723   8.357  1.00 26.19 LIG 0.16  HD
ENDROOT
BRANCH 3 5
ATOM      5  CA  PHE S   8      -4.849 -11.083   8.976  1.00 26.02 LIG 0.17  C 
BRANCH 5 6
ATOM      6  C   PHE S   8      -5.937 -10.669   8.005  1.00 27.74 LIG 0.22  C 
ATOM      7 O    PHE S   8      -6.326  -9.485   7.979  1.00 30.84 LIG-0.29  OA
ENDBRANCH 5 6
BRANCH 5 8
ATOM      8  CB  PHE S   8      -4.151  -9.818   9.449  1.00 24.81 LIG 0.07  C 
BRANCH 8 9
ATOM      9  CG  PHE S   8      -3.396  -9.093   8.365  1.00 22.51 LIG-0.06  A 
ATOM     10  CD2 PHE S   8      -3.773  -7.825   7.993  1.00 18.27 LIG 0.01  A 
ATOM     11  CE2 PHE S   8      -3.091  -7.136   6.950  1.00 17.55 LIG 0.00  A 
ATOM     12  CZ  PHE S   8      -2.034  -7.760   6.296  1.00 18.56 LIG 0.00  A 
ATOM     13  CE1 PHE S   8      -1.662  -9.036   6.667  1.00 16.51 LIG 0.00  A 
ATOM     14  CD1 PHE S   8      -2.340  -9.707   7.698  1.00 19.44 LIG 0.01  A 
ENDBRANCH 8 9
ENDBRANCH 5 8
ENDBRANCH 3 5
BRANCH 1 15
ATOM     15  CA  ALA S   7      -3.187 -14.027   7.215  1.00 27.73 LIG 0.17  C 
ATOM     16  CB  ALA S   7      -2.843 -15.094   8.296  1.00 27.93 LIG 0.04  C 
BRANCH 15 17
ATOM     17  N   ALA S   7      -1.957 -13.336   6.809  1.00 29.72 LIG-0.35  N 
ATOM     18  C   ALA S   6      -1.852 -12.513   5.751  1.00 32.34 LIG 0.26  C 
ATOM     19 O    ALA S   6      -2.761 -11.755   5.394  1.00 32.82 LIG-0.27  OA
ATOM     20 H    ALA S   7      -1.291 -13.511   7.323  1.00 29.72 LIG 0.16  HD
BRANCH 18 21
ATOM     21  CA  ALA S   6      -0.465 -12.458   5.059  1.00 33.16 LIG 0.40  C 
ATOM     22  CB  ALA S   6       0.564 -11.769   5.960  1.00 32.96 LIG 0.06  C 
ATOM     23  N   ALA S   6      -0.467 -11.774   3.708  1.00 33.36 LIG 0.61  N 
ENDBRANCH 18 21
ENDBRANCH 15 17
ENDBRANCH 1 15
TORSDOF 7
ENDMDL
MODEL 82
USER: ADFR SOLUTION from run 120
USER: SCORE 6.809000 LL:  -1.197 LR:  -5.616 RR:   0.000 FEB:  -3.528
USER: RMSD 5.836890
USER: SEED 119
USER: STATUS no improvement in best in 31 clusters for 5 generations
USER: GENES 9
USER: genes 0 Translation |==|  0.68391 0.53359 0.45826
USER: genes 1 Rotation |==|  0.18248 0.30998 0.38712 0.81675
USER: genes 2 Torsion [C]-N--CA-[C] |==|  0.68187
USER: genes 3 Torsion [N]-CA--C-[O] |==|  0.29624
USER: genes 4 Torsion [N]-CA--CB-[CG] |==|  0.80775
USER: genes 5 Torsion [CA]-CB--CG-[CD2] |==|  0.96498
USER: genes 6 Torsion [N]-C--CA-[N] |==|  0.38550
USER: genes 7 Torsion [C]-CA--N-[C] |==|  0.82867
USER: genes 8 Torsion [N]-C--CA-[N] |==|  0.11736
ROOT
ATOM      1  C   ALA S   7       4.206 -12.232   6.447  1.00 26.16 LIG 0.24  C 
ATOM      2 O    ALA S   7       5.215 -12.838   6.807  1.00 23.62 LIG-0.27  OA
ATOM      3  N   PHE S   8       3.577 -11.339   7.202  1.00 26.19 LIG-0.35  N 
ATOM      4 H    PHE S   8       2.866 -10.924   6.954  1.00 26.19 LIG 0.16  HD
ENDROOT
BRANCH 3 5
ATOM      5  CA  PHE S   8       4.039 -10.978   8.536  1.00 26.02 LIG 0.17  C 
BRANCH 5 6
ATOM      6  C   PHE S   8       3.033 -11.409   9.586  1.00 27.74 LIG 0.22  C 
ATOM      7 O    PHE S   8       3.284 -12.386  10.318  1.00 30.84 LIG-0.29  OA
ENDBRANCH 5 6
BRANCH 5 8
ATOM      8  CB  PHE S   8       4.220  -9.475   8.663  1.00 24.81 LIG 0.07  C 
BRANCH 8 9
ATOM      9  CG  PHE S   8       5.369  -8.925   7.859  1.00 22.51 LIG-0.06  A 
ATOM     10  CD2 PHE S   8       6.298  -9.778   7.310  1.00 18.27 LIG 0.01  A 
ATOM     11  CE2 PHE S   8       7.407  -9.275   6.574  1.00 17.55 LIG 0.00  A 
ATOM     12  CZ  PHE S   8       7.556  -7.902   6.414  1.00 18.56 LIG 0.00  A 
ATOM     13  CE1 PHE S   8       6.626  -7.047   6.972  1.00 16.51 LIG 0.00  A 
ATOM     14  CD1 PHE S   8       5.534  -7.553   7.696  1.00 19.44 LIG 0.01  A 
ENDBRANCH 8 9
ENDBRANCH 5 8
ENDBRANCH 3 5
BRANCH 1 15
ATOM     15  CA  ALA S   7       3.659 -12.454   5.042  1.00 27.73 LIG 0.17  C 
ATOM     16  CB  ALA S   7       2.768 -13.731   5.076  1.00 27.93 LIG 0.04  C 
BRANCH 15 17
ATOM     17  N   ALA S   7       4.666 -12.596   3.984  1.00 29.72 LIG-0.35  N 
ATOM     18  C   ALA S   6       5.558 -11.650   3.640  1.00 32.34 LIG 0.26  C 
ATOM     19 O    ALA S   6       6.079 -10.886   4.458  1.00 32.82 LIG-0.27  OA
ATOM     20 H    ALA S   7       4.634 -13.361   3.593  1.00 29.72 LIG 0.16  HD
BRANCH 18 21
ATOM     21  CA  ALA S   6       6.012 -11.642   2.156  1.00 33.16 LIG 0.40  C 
ATOM     22  CB  ALA S   6       6.731 -10.333   1.816  1.00 32.96 LIG 0.06  C 
ATOM     23  N   ALA S   6       4.893 -11.859   1.159  1.00 33.36 LIG 0.61  N 
ENDBRANCH 18 21
ENDBRANCH 15 17
ENDBRANCH 1 15
TORSDOF 7
ENDMDL
MODEL 83
USER: ADFR SOLUTION from run 1
USER: SCORE 6.430288 LL:  -1.249 LR:  -5.621 RR:   0.000 FEB:  -3.533
USER: RMSD 6.467089
USER: SEED 805256
USER: STATUS no improvement in best in 34 clusters for 5 generations
USER: GENES 9
USER: genes 0 Translation |==|  0.37083 0.57692 0.24888
USER: genes 1 Rotation |==|  0.11661 0.51907 0.19816 0.60744
USER: genes 2 Torsion [C]-N--CA-[C] |==|  0.19528
USER: genes 3 Torsion [N]-CA--C-[O] |==|  0.21939
USER: genes 4 Torsion [N]-CA--CB-[CG] |==|  0.78018
USER: genes 5 Torsion [CA]-CB--CG-[CD2] |==|  0.02355
USER: genes 6 Torsion [N]-C--CA-[N] |==|  0.81852
USER: genes 7 Torsion [C]-CA--N-[C] |==|  0.84011
USER: genes 8 Torsion [N]-C--CA-[N] |==|  0.30783
ROOT
ATOM      1  C   ALA S   7      -1.194 -11.550   3.935  1.00 26.16 LIG 0.24  C 
ATOM      2 O    ALA S   7      -1.663 -12.473   4.599  1.00 23.62 LIG-0.27  OA
ATOM      3  N   PHE S   8      -0.403 -10.610   4.439  1.00 26.19 LIG-0.35  N 
ATOM      4 H    PHE S   8      -0.083  -9.959   3.976  1.00 26.19 LIG 0.16  HD
ENDROOT
BRANCH 3 5
ATOM      5  CA  PHE S   8       0.002 -10.597   5.838  1.00 26.02 LIG 0.17  C 
BRANCH 5 6
ATOM      6  C   PHE S   8       0.968 -11.731   6.127  1.00 27.74 LIG 0.22  C 
ATOM      7 O    PHE S   8       2.167 -11.618   5.804  1.00 30.84 LIG-0.29  OA
ENDBRANCH 5 6
BRANCH 5 8
ATOM      8  CB  PHE S   8      -1.197 -10.772   6.755  1.00 24.81 LIG 0.07  C 
BRANCH 8 9
ATOM      9  CG  PHE S   8      -2.004  -9.515   6.954  1.00 22.51 LIG-0.06  A 
ATOM     10  CD2 PHE S   8      -1.739  -8.398   6.200  1.00 18.27 LIG 0.01  A 
ATOM     11  CE2 PHE S   8      -2.470  -7.192   6.396  1.00 17.55 LIG 0.00  A 
ATOM     12  CZ  PHE S   8      -3.462  -7.146   7.369  1.00 18.56 LIG 0.00  A 
ATOM     13  CE1 PHE S   8      -3.722  -8.267   8.130  1.00 16.51 LIG 0.00  A 
ATOM     14  CD1 PHE S   8      -2.996  -9.452   7.929  1.00 19.44 LIG 0.01  A 
ENDBRANCH 8 9
ENDBRANCH 5 8
ENDBRANCH 3 5
BRANCH 1 15
ATOM     15  CA  ALA S   7      -1.472 -11.485   2.437  1.00 27.73 LIG 0.17  C 
ATOM     16  CB  ALA S   7      -0.103 -11.529   1.697  1.00 27.93 LIG 0.04  C 
BRANCH 15 17
ATOM     17  N   ALA S   7      -2.229 -10.311   1.983  1.00 29.72 LIG-0.35  N 
ATOM     18  C   ALA S   6      -3.448  -9.963   2.431  1.00 32.34 LIG 0.26  C 
ATOM     19 O    ALA S   6      -3.807 -10.124   3.602  1.00 32.82 LIG-0.27  OA
ATOM     20 H    ALA S   7      -1.810  -9.854   1.388  1.00 29.72 LIG 0.16  HD
BRANCH 18 21
ATOM     21  CA  ALA S   6      -4.361  -9.214   1.424  1.00 33.16 LIG 0.40  C 
ATOM     22  CB  ALA S   6      -4.856  -7.893   2.020  1.00 32.96 LIG 0.06  C 
ATOM     23  N   ALA S   6      -5.554 -10.015   0.948  1.00 33.36 LIG 0.61  N 
ENDBRANCH 18 21
ENDBRANCH 15 17
ENDBRANCH 1 15
TORSDOF 7
ENDMDL
MODEL 84
USER: ADFR SOLUTION from run 7
USER: SCORE 6.543840 LL:  -1.153 LR:  -5.608 RR:   0.000 FEB:  -3.520
USER: RMSD 7.333381
USER: SEED 962264
USER: STATUS no improvement in best in 22 clusters for 5 generations
USER: GENES 9
USER: genes 0 Translation |==|  0.21793 0.64817 0.55330
USER: genes 1 Rotation |==|  0.53796 0.60809 0.83041 0.85735
USER: genes 2 Torsion [C]-N--CA-[C] |==|  0.15412
USER: genes 3 Torsion [N]-CA--C-[O] |==|  0.64994
USER: genes 4 Torsion [N]-CA--CB-[CG] |==|  0.88049
USER: genes 5 Torsion [CA]-CB--CG-[CD2] |==|  0.38614
USER: genes 6 Torsion [N]-C--CA-[N] |==|  0.11271
USER: genes 7 Torsion [C]-CA--N-[C] |==|  0.16518
USER: genes 8 Torsion [N]-C--CA-[N] |==|  0.49985
ROOT
ATOM      1  C   ALA S   7      -3.832 -10.427   7.588  1.00 26.16 LIG 0.24  C 
ATOM      2 O    ALA S   7      -4.591  -9.762   6.885  1.00 23.62 LIG-0.27  OA
ATOM      3  N   PHE S   8      -2.640 -10.002   7.988  1.00 26.19 LIG-0.35  N 
ATOM      4 H    PHE S   8      -2.105 -10.471   8.471  1.00 26.19 LIG 0.16  HD
ENDROOT
BRANCH 3 5
ATOM      5  CA  PHE S   8      -2.123  -8.684   7.642  1.00 26.02 LIG 0.17  C 
BRANCH 5 6
ATOM      6  C   PHE S   8      -3.091  -7.599   8.073  1.00 27.74 LIG 0.22  C 
ATOM      7 O    PHE S   8      -3.490  -6.761   7.241  1.00 30.84 LIG-0.29  OA
ENDBRANCH 5 6
BRANCH 5 8
ATOM      8  CB  PHE S   8      -1.925  -8.553   6.141  1.00 24.81 LIG 0.07  C 
BRANCH 8 9
ATOM      9  CG  PHE S   8      -1.299  -9.762   5.496  1.00 22.51 LIG-0.06  A 
ATOM     10  CD2 PHE S   8      -1.759 -10.212   4.282  1.00 18.27 LIG 0.01  A 
ATOM     11  CE2 PHE S   8      -1.201 -11.371   3.672  1.00 17.55 LIG 0.00  A 
ATOM     12  CZ  PHE S   8      -0.181 -12.060   4.321  1.00 18.56 LIG 0.00  A 
ATOM     13  CE1 PHE S   8       0.274 -11.610   5.543  1.00 16.51 LIG 0.00  A 
ATOM     14  CD1 PHE S   8      -0.282 -10.465   6.136  1.00 19.44 LIG 0.01  A 
ENDBRANCH 8 9
ENDBRANCH 5 8
ENDBRANCH 3 5
BRANCH 1 15
ATOM     15  CA  ALA S   7      -4.279 -11.796   8.090  1.00 27.73 LIG 0.17  C 
ATOM     16  CB  ALA S   7      -5.817 -11.901   7.876  1.00 27.93 LIG 0.04  C 
BRANCH 15 17
ATOM     17  N   ALA S   7      -3.965 -12.089   9.494  1.00 29.72 LIG-0.35  N 
ATOM     18  C   ALA S   6      -4.396 -11.369  10.544  1.00 32.34 LIG 0.26  C 
ATOM     19 O    ALA S   6      -5.511 -10.837  10.584  1.00 32.82 LIG-0.27  OA
ATOM     20 H    ALA S   7      -3.466 -12.783   9.586  1.00 29.72 LIG 0.16  HD
BRANCH 18 21
ATOM     21  CA  ALA S   6      -3.466 -11.340  11.785  1.00 33.16 LIG 0.40  C 
ATOM     22  CB  ALA S   6      -3.177 -12.760  12.280  1.00 32.96 LIG 0.06  C 
ATOM     23  N   ALA S   6      -3.992 -10.516  12.941  1.00 33.36 LIG 0.61  N 
ENDBRANCH 18 21
ENDBRANCH 15 17
ENDBRANCH 1 15
TORSDOF 7
ENDMDL
MODEL 85
USER: ADFR SOLUTION from run 27
USER: SCORE 6.761041 LL:  -1.213 LR:  -5.598 RR:   0.000 FEB:  -3.510
USER: RMSD 6.392374
USER: SEED 26
USER: STATUS no improvement in best in 28 clusters for 5 generations
USER: GENES 9
USER: genes 0 Translation |==|  0.22455 0.68848 0.66003
USER: genes 1 Rotation |==|  0.76556 0.71172 0.67507 0.82250
USER: genes 2 Torsion [C]-N--CA-[C] |==|  0.89049
USER: genes 3 Torsion [N]-CA--C-[O] |==|  0.29660
USER: genes 4 Torsion [N]-CA--CB-[CG] |==|  0.86843
USER: genes 5 Torsion [CA]-CB--CG-[CD2] |==|  0.77220
USER: genes 6 Torsion [N]-C--CA-[N] |==|  0.96609
USER: genes 7 Torsion [C]-CA--N-[C] |==|  0.80544
USER: genes 8 Torsion [N]-C--CA-[N] |==|  0.50823
ROOT
ATOM      1  C   ALA S   7      -3.718  -9.792   8.868  1.00 26.16 LIG 0.24  C 
ATOM      2 O    ALA S   7      -4.167  -8.683   9.153  1.00 23.62 LIG-0.27  OA
ATOM      3  N   PHE S   8      -2.722  -9.983   8.011  1.00 26.19 LIG-0.35  N 
ATOM      4 H    PHE S   8      -2.415 -10.759   7.805  1.00 26.19 LIG 0.16  HD
ENDROOT
BRANCH 3 5
ATOM      5  CA  PHE S   8      -2.052  -8.881   7.334  1.00 26.02 LIG 0.17  C 
BRANCH 5 6
ATOM      6  C   PHE S   8      -3.052  -7.817   6.923  1.00 27.74 LIG 0.22  C 
ATOM      7 O    PHE S   8      -3.093  -6.736   7.543  1.00 30.84 LIG-0.29  OA
ENDBRANCH 5 6
BRANCH 5 8
ATOM      8  CB  PHE S   8      -1.349  -9.361   6.074  1.00 24.81 LIG 0.07  C 
BRANCH 8 9
ATOM      9  CG  PHE S   8      -0.520 -10.603   6.270  1.00 22.51 LIG-0.06  A 
ATOM     10  CD2 PHE S   8       0.750 -10.511   6.787  1.00 18.27 LIG 0.01  A 
ATOM     11  CE2 PHE S   8       1.560 -11.671   6.950  1.00 17.55 LIG 0.00  A 
ATOM     12  CZ  PHE S   8       1.059 -12.912   6.573  1.00 18.56 LIG 0.00  A 
ATOM     13  CE1 PHE S   8      -0.214 -13.001   6.048  1.00 16.51 LIG 0.00  A 
ATOM     14  CD1 PHE S   8      -1.006 -11.851   5.892  1.00 19.44 LIG 0.01  A 
ENDBRANCH 8 9
ENDBRANCH 5 8
ENDBRANCH 3 5
BRANCH 1 15
ATOM     15  CA  ALA S   7      -4.274 -11.030   9.564  1.00 27.73 LIG 0.17  C 
ATOM     16  CB  ALA S   7      -3.863 -10.956  11.064  1.00 27.93 LIG 0.04  C 
BRANCH 15 17
ATOM     17  N   ALA S   7      -3.841 -12.318   9.008  1.00 29.72 LIG-0.35  N 
ATOM     18  C   ALA S   6      -4.223 -12.806   7.815  1.00 32.34 LIG 0.26  C 
ATOM     19 O    ALA S   6      -4.412 -12.093   6.824  1.00 32.82 LIG-0.27  OA
ATOM     20 H    ALA S   7      -3.306 -12.743   9.529  1.00 29.72 LIG 0.16  HD
BRANCH 18 21
ATOM     21  CA  ALA S   6      -4.293 -14.352   7.696  1.00 33.16 LIG 0.40  C 
ATOM     22  CB  ALA S   6      -2.967 -14.989   8.122  1.00 32.96 LIG 0.06  C 
ATOM     23  N   ALA S   6      -4.659 -14.857   6.316  1.00 33.36 LIG 0.61  N 
ENDBRANCH 18 21
ENDBRANCH 15 17
ENDBRANCH 1 15
TORSDOF 7
ENDMDL
MODEL 86
USER: ADFR SOLUTION from run 130
USER: SCORE 6.359574 LL:  -1.130 LR:  -5.604 RR:   0.000 FEB:  -3.516
USER: RMSD 5.821603
USER: SEED 129
USER: STATUS no improvement in best in 33 clusters for 5 generations
USER: GENES 9
USER: genes 0 Translation |==|  0.69991 0.52992 0.54312
USER: genes 1 Rotation |==|  0.33211 0.44703 0.94131 0.65574
USER: genes 2 Torsion [C]-N--CA-[C] |==|  0.63739
USER: genes 3 Torsion [N]-CA--C-[O] |==|  0.92804
USER: genes 4 Torsion [N]-CA--CB-[CG] |==|  0.74835
USER: genes 5 Torsion [CA]-CB--CG-[CD2] |==|  0.11362
USER: genes 6 Torsion [N]-C--CA-[N] |==|  0.18342
USER: genes 7 Torsion [C]-CA--N-[C] |==|  0.80963
USER: genes 8 Torsion [N]-C--CA-[N] |==|  0.11581
ROOT
ATOM      1  C   ALA S   7       4.482 -12.290   7.465  1.00 26.16 LIG 0.24  C 
ATOM      2 O    ALA S   7       4.340 -12.214   6.246  1.00 23.62 LIG-0.27  OA
ATOM      3  N   PHE S   8       4.080 -11.349   8.311  1.00 26.19 LIG-0.35  N 
ATOM      4 H    PHE S   8       4.189 -11.398   9.163  1.00 26.19 LIG 0.16  HD
ENDROOT
BRANCH 3 5
ATOM      5  CA  PHE S   8       3.410 -10.133   7.868  1.00 26.02 LIG 0.17  C 
BRANCH 5 6
ATOM      6  C   PHE S   8       4.058  -8.909   8.487  1.00 27.74 LIG 0.22  C 
ATOM      7 O    PHE S   8       4.661  -9.011   9.573  1.00 30.84 LIG-0.29  OA
ENDBRANCH 5 6
BRANCH 5 8
ATOM      8  CB  PHE S   8       1.947 -10.136   8.279  1.00 24.81 LIG 0.07  C 
BRANCH 8 9
ATOM      9  CG  PHE S   8       1.023 -10.739   7.253  1.00 22.51 LIG-0.06  A 
ATOM     10  CD2 PHE S   8       1.395 -11.874   6.573  1.00 18.27 LIG 0.01  A 
ATOM     11  CE2 PHE S   8       0.548 -12.441   5.579  1.00 17.55 LIG 0.00  A 
ATOM     12  CZ  PHE S   8      -0.667 -11.831   5.288  1.00 18.56 LIG 0.00  A 
ATOM     13  CE1 PHE S   8      -1.035 -10.687   5.967  1.00 16.51 LIG 0.00  A 
ATOM     14  CD1 PHE S   8      -0.193 -10.136   6.948  1.00 19.44 LIG 0.01  A 
ENDBRANCH 8 9
ENDBRANCH 5 8
ENDBRANCH 3 5
BRANCH 1 15
ATOM     15  CA  ALA S   7       5.098 -13.545   8.073  1.00 27.73 LIG 0.17  C 
ATOM     16  CB  ALA S   7       5.685 -14.398   6.910  1.00 27.93 LIG 0.04  C 
BRANCH 15 17
ATOM     17  N   ALA S   7       4.186 -14.376   8.869  1.00 29.72 LIG-0.35  N 
ATOM     18  C   ALA S   6       3.659 -14.021  10.054  1.00 32.34 LIG 0.26  C 
ATOM     19 O    ALA S   6       3.330 -12.862  10.324  1.00 32.82 LIG-0.27  OA
ATOM     20 H    ALA S   7       4.015 -15.133   8.498  1.00 29.72 LIG 0.16  HD
BRANCH 18 21
ATOM     21  CA  ALA S   6       3.354 -15.176  11.044  1.00 33.16 LIG 0.40  C 
ATOM     22  CB  ALA S   6       3.113 -14.632  12.455  1.00 32.96 LIG 0.06  C 
ATOM     23  N   ALA S   6       4.425 -16.245  11.106  1.00 33.36 LIG 0.61  N 
ENDBRANCH 18 21
ENDBRANCH 15 17
ENDBRANCH 1 15
TORSDOF 7
ENDMDL
