MODEL 1
USER: ADFR SOLUTION from run 20
USER: SCORE 18.357908 LL:  -2.211 LR: -17.489 RR:   0.000 FEB: -10.329
USER: RMSD 6.834215
USER: SEED 19
USER: STATUS no improvement in best in 7 clusters for 5 generations
USER: GENES 26
USER: genes 0 Translation |==|  0.51724 0.38592 0.62789
USER: genes 1 Rotation |==|  0.60608 0.83808 0.50513 0.85274
USER: genes 2 Torsion [N]-CA--C-[N] |==|  0.85866
USER: genes 3 Torsion [C]-N--CA-[C] |==|  0.79595
USER: genes 4 Torsion [N]-CA--C-[N] |==|  0.43628
USER: genes 5 Torsion [C]-N--CA-[C] |==|  0.59200
USER: genes 6 Torsion [N]-CA--C-[O] |==|  0.03019
USER: genes 7 Torsion [N]-CA--CB-[CG] |==|  0.49533
USER: genes 8 Torsion [CA]-CB--CG-[CD] |==|  0.53122
USER: genes 9 Torsion [CB]-CG--CD-[OE1] |==|  0.22775
USER: genes 10 Torsion [N]-CA--CB-[CG] |==|  0.19070
USER: genes 11 Torsion [CA]-CB--CG-[CD] |==|  0.54280
USER: genes 12 Torsion [CB]-CG--CD-[CE] |==|  0.67519
USER: genes 13 Torsion [CG]-CD--CE-[NZ] |==|  0.80364
USER: genes 14 Torsion [CD]-CE--NZ-[HZ3] |==|  0.61676
USER: genes 15 Torsion [C]-CA--CB-[CG2] |==|  0.09158
USER: genes 16 Torsion [CA]-CB--OG1-[HG1] |==|  0.76504
USER: genes 17 Torsion [C]-CA--N-[C] |==|  0.66144
USER: genes 18 Torsion [N]-C--CA-[N] |==|  0.52661
USER: genes 19 Torsion [C]-CA--N-[C] |==|  0.17627
USER: genes 20 Torsion [N]-C--CA-[N] |==|  0.16726
USER: genes 21 Torsion [C]-CA--N-[H1] |==|  0.40583
USER: genes 22 Torsion [C]-CA--CB-[CG] |==|  0.53160
USER: genes 23 Torsion [CA]-CB--CG-[CD] |==|  0.68969
USER: genes 24 Torsion [CB]-CG--CD-[NE] |==|  0.01456
USER: genes 25 Torsion [CG]-CD--NE-[HE] |==|  0.11073
ROOT
ATOM      1  CA  THR D   3      19.690 -18.889  19.014  1.00 16.13 LIG 0.20  C 
ENDROOT
BRANCH 1 2
ATOM      2  C   THR D   3      18.223 -18.503  19.254  1.00 16.95 LIG 0.24  C 
ATOM      3 O    THR D   3      17.348 -19.374  19.274  1.00 16.12 LIG-0.27  OA
ATOM      4  N   LYS D   4      17.975 -17.201  19.432  1.00 18.15 LIG-0.35  N 
ATOM      5 H    LYS D   4      18.598 -16.610  19.456  1.00 18.15 LIG 0.16  HD
BRANCH 4 6
ATOM      6  CA  LYS D   4      16.629 -16.633  19.604  1.00 19.65 LIG 0.18  C 
BRANCH 6 7
ATOM      7  C   LYS D   4      15.899 -16.643  18.278  1.00 20.62 LIG 0.24  C 
ATOM      8 O    LYS D   4      16.535 -16.661  17.219  1.00 20.86 LIG-0.27  OA
ATOM      9  N   GLN D   5      14.570 -16.618  18.329  1.00 21.55 LIG-0.35  N 
ATOM     10 H    GLN D   5      14.116 -16.595  19.058  1.00 21.55 LIG 0.16  HD
BRANCH 9 11
ATOM     11  CA  GLN D   5      13.757 -16.628  17.106  1.00 22.83 LIG 0.16  C 
BRANCH 11 12
ATOM     12  C   GLN D   5      12.465 -15.828  17.264  1.00 22.91 LIG 0.22  C 
ATOM     13 O    GLN D   5      12.282 -15.101  18.242  1.00 23.29 LIG-0.29  OA
ENDBRANCH 11 12
BRANCH 11 14
ATOM     14  CB  GLN D   5      13.448 -18.060  16.661  1.00 22.86 LIG 0.04  C 
BRANCH 14 15
ATOM     15  CG  GLN D   5      12.575 -18.162  15.423  1.00 24.40 LIG 0.10  C 
BRANCH 15 16
ATOM     16  CD  GLN D   5      12.066 -19.568  15.166  1.00 24.21 LIG 0.21  C 
ATOM     17  NE2 GLN D   5      12.750 -20.292  14.278  1.00 25.13 LIG-0.37  N 
ATOM     18 22HE GLN D   5      12.505 -21.097  14.100  1.00 25.13 LIG 0.16  HD
ATOM     19 21HE GLN D   5      13.436 -19.954  13.885  1.00 25.13 LIG 0.16  HD
ATOM     20 OE1  GLN D   5      11.073 -20.004  15.761  1.00 25.71 LIG-0.27  OA
ENDBRANCH 15 16
ENDBRANCH 14 15
ENDBRANCH 11 14
ENDBRANCH 9 11
ENDBRANCH 6 7
BRANCH 6 21
ATOM     21  CB  LYS D   4      16.703 -15.177  20.071  1.00 19.73 LIG 0.04  C 
BRANCH 21 22
ATOM     22  CG  LYS D   4      17.235 -14.190  19.068  1.00 20.49 LIG 0.00  C 
BRANCH 22 23
ATOM     23  CD  LYS D   4      17.606 -12.895  19.773  1.00 20.73 LIG 0.03  C 
BRANCH 23 24
ATOM     24  CE  LYS D   4      16.755 -11.753  19.274  1.00 20.46 LIG 0.23  C 
BRANCH 24 25
ATOM     25  NZ  LYS D   4      17.117 -11.378  17.886  1.00 20.02 LIG-0.08  N 
ATOM     26 HZ3  LYS D   4      17.130 -10.492  17.812  1.00 20.02 LIG 0.27  HD
ATOM     27 HZ1  LYS D   4      17.922 -11.704  17.691  1.00 20.02 LIG 0.27  HD
ATOM     28 HZ2  LYS D   4      16.516 -11.713  17.322  1.00 20.02 LIG 0.27  HD
ENDBRANCH 24 25
ENDBRANCH 23 24
ENDBRANCH 22 23
ENDBRANCH 21 22
ENDBRANCH 6 21
ENDBRANCH 4 6
ENDBRANCH 1 2
BRANCH 1 29
ATOM     29  CB  THR D   3      20.476 -18.817  20.337  1.00 15.86 LIG 0.15  C 
ATOM     30  CG2 THR D   3      19.583 -19.195  21.515  1.00 16.15 LIG 0.04  C 
BRANCH 29 31
ATOM     31 OG1  THR D   3      21.587 -19.721  20.286  1.00 16.19 LIG-0.39  OA
ATOM     32 HG1  THR D   3      21.333 -20.491  20.506  1.00 16.19 LIG 0.21  HD
ENDBRANCH 29 31
ENDBRANCH 1 29
BRANCH 1 33
ATOM     33  N   THR D   3      20.352 -18.112  17.954  1.00 15.75 LIG-0.34  N 
ATOM     34  C   ARG D   2      20.897 -18.695  16.885  1.00 15.31 LIG 0.24  C 
ATOM     35 O    ARG D   2      20.838 -19.905  16.677  1.00 15.17 LIG-0.27  OA
ATOM     36 H    THR D   3      20.353 -17.262  18.088  1.00 15.75 LIG 0.16  HD
BRANCH 34 37
ATOM     37  CA  ARG D   2      21.634 -17.778  15.908  1.00 15.15 LIG 0.18  C 
BRANCH 37 38
ATOM     38  N   ARG D   2      22.002 -18.464  14.664  1.00 15.89 LIG-0.35  N 
ATOM     39  C   ALA D   1      21.125 -18.966  13.793  1.00 16.91 LIG 0.25  C 
ATOM     40 O    ALA D   1      19.906 -19.017  14.002  1.00 17.32 LIG-0.27  OA
ATOM     41 H    ARG D   2      22.852 -18.513  14.545  1.00 15.89 LIG 0.16  HD
BRANCH 39 42
ATOM     42  CA  ALA D   1      21.712 -19.507  12.488  1.00 17.08 LIG 0.27  C 
ATOM     43  CB  ALA D   1      20.591 -19.983  11.538  1.00 17.48 LIG 0.05  C 
BRANCH 42 44
ATOM     44  N   ALA D   1      22.674 -20.616  12.754  1.00 17.36 LIG-0.07  N 
ATOM     45 H3   ALA D   1      22.466 -21.012  13.524  1.00 17.36 LIG 0.28  HD
ATOM     46 H2   ALA D   1      23.500 -20.289  12.802  1.00 17.36 LIG 0.28  HD
ATOM     47 H1   ALA D   1      22.630 -21.212  12.093  1.00 17.36 LIG 0.28  HD
ENDBRANCH 42 44
ENDBRANCH 39 42
ENDBRANCH 37 38
BRANCH 37 48
ATOM     48  CB  ARG D   2      20.744 -16.577  15.558  1.00 15.08 LIG 0.04  C 
BRANCH 48 49
ATOM     49  CG  ARG D   2      21.190 -15.694  14.401  1.00 14.63 LIG 0.02  C 
BRANCH 49 50
ATOM     50  CD  ARG D   2      21.615 -14.310  14.909  1.00 13.91 LIG 0.14  C 
BRANCH 50 51
ATOM     51  NE  ARG D   2      21.603 -14.230  16.370  1.00 10.79 LIG-0.23  N 
ATOM     52 HE   ARG D   2      21.887 -14.910  16.812  1.00 10.79 LIG 0.18  HD
ATOM     53  CZ  ARG D   2      21.180 -13.172  17.061  1.00 10.30 LIG 0.67  C 
ATOM     54  NH2 ARG D   2      20.740 -12.082  16.431  1.00  9.50 LIG-0.23  N 
ATOM     55  NH1 ARG D   2      21.194 -13.204  18.387  1.00  9.44 LIG-0.23  N 
ATOM     56 2HH2 ARG D   2      20.468 -11.404  16.884  1.00  9.50 LIG 0.17  HD
ATOM     57 1HH2 ARG D   2      20.727 -12.058  15.572  1.00  9.50 LIG 0.17  HD
ATOM     58 1HH1 ARG D   2      21.476 -13.906  18.796  1.00  9.44 LIG 0.17  HD
ATOM     59 2HH1 ARG D   2      20.923 -12.524  18.836  1.00  9.44 LIG 0.17  HD
ENDBRANCH 50 51
ENDBRANCH 49 50
ENDBRANCH 48 49
ENDBRANCH 37 48
ENDBRANCH 34 37
ENDBRANCH 1 33
TORSDOF 24
ENDMDL
MODEL 2
USER: ADFR SOLUTION from run 158
USER: SCORE 19.381747 LL:  -2.852 LR: -17.052 RR:   0.000 FEB:  -9.892
USER: RMSD 7.978374
USER: SEED 157
USER: STATUS no improvement in best in 3 clusters for 5 generations
USER: GENES 26
USER: genes 0 Translation |==|  0.55003 0.39696 0.49774
USER: genes 1 Rotation |==|  0.70879 0.93729 0.60772 0.55983
USER: genes 2 Torsion [N]-CA--C-[N] |==|  0.01413
USER: genes 3 Torsion [C]-N--CA-[C] |==|  0.65007
USER: genes 4 Torsion [N]-CA--C-[N] |==|  0.92925
USER: genes 5 Torsion [C]-N--CA-[C] |==|  0.13000
USER: genes 6 Torsion [N]-CA--C-[O] |==|  0.19728
USER: genes 7 Torsion [N]-CA--CB-[CG] |==|  0.66352
USER: genes 8 Torsion [CA]-CB--CG-[CD] |==|  0.64921
USER: genes 9 Torsion [CB]-CG--CD-[OE1] |==|  0.84033
USER: genes 10 Torsion [N]-CA--CB-[CG] |==|  0.83938
USER: genes 11 Torsion [CA]-CB--CG-[CD] |==|  0.70542
USER: genes 12 Torsion [CB]-CG--CD-[CE] |==|  0.52723
USER: genes 13 Torsion [CG]-CD--CE-[NZ] |==|  0.23535
USER: genes 14 Torsion [CD]-CE--NZ-[HZ3] |==|  0.79235
USER: genes 15 Torsion [C]-CA--CB-[CG2] |==|  0.25738
USER: genes 16 Torsion [CA]-CB--OG1-[HG1] |==|  0.49627
USER: genes 17 Torsion [C]-CA--N-[C] |==|  0.73114
USER: genes 18 Torsion [N]-C--CA-[N] |==|  0.86919
USER: genes 19 Torsion [C]-CA--N-[C] |==|  0.81821
USER: genes 20 Torsion [N]-C--CA-[N] |==|  0.15837
USER: genes 21 Torsion [C]-CA--N-[H1] |==|  0.98978
USER: genes 22 Torsion [C]-CA--CB-[CG] |==|  0.81055
USER: genes 23 Torsion [CA]-CB--CG-[CD] |==|  0.65015
USER: genes 24 Torsion [CB]-CG--CD-[NE] |==|  0.06234
USER: genes 25 Torsion [CG]-CD--NE-[HE] |==|  0.75629
ROOT
ATOM      1  CA  THR D   3      20.305 -18.665  16.085  1.00 16.13 LIG 0.20  C 
ENDROOT
BRANCH 1 2
ATOM      2  C   THR D   3      19.880 -19.256  17.439  1.00 16.95 LIG 0.24  C 
ATOM      3 O    THR D   3      20.139 -20.433  17.710  1.00 16.12 LIG-0.27  OA
ATOM      4  N   LYS D   4      19.234 -18.431  18.267  1.00 18.15 LIG-0.35  N 
ATOM      5 H    LYS D   4      19.096 -17.603  18.083  1.00 18.15 LIG 0.16  HD
BRANCH 4 6
ATOM      6  CA  LYS D   4      18.688 -18.833  19.574  1.00 19.65 LIG 0.18  C 
BRANCH 6 7
ATOM      7  C   LYS D   4      17.220 -18.470  19.645  1.00 20.62 LIG 0.24  C 
ATOM      8 O    LYS D   4      16.459 -19.102  20.384  1.00 20.86 LIG-0.27  OA
ATOM      9  N   GLN D   5      16.816 -17.466  18.871  1.00 21.55 LIG-0.35  N 
ATOM     10 H    GLN D   5      17.334 -17.025  18.345  1.00 21.55 LIG 0.16  HD
BRANCH 9 11
ATOM     11  CA  GLN D   5      15.416 -17.024  18.860  1.00 22.83 LIG 0.16  C 
BRANCH 11 12
ATOM     12  C   GLN D   5      14.849 -16.861  20.269  1.00 22.91 LIG 0.22  C 
ATOM     13 O    GLN D   5      15.215 -15.938  20.999  1.00 23.29 LIG-0.29  OA
ENDBRANCH 11 12
BRANCH 11 14
ATOM     14  CB  GLN D   5      14.544 -17.978  18.040  1.00 22.86 LIG 0.04  C 
BRANCH 14 15
ATOM     15  CG  GLN D   5      13.821 -17.329  16.873  1.00 24.40 LIG 0.10  C 
BRANCH 15 16
ATOM     16  CD  GLN D   5      12.324 -17.574  16.886  1.00 24.21 LIG 0.21  C 
ATOM     17  NE2 GLN D   5      11.547 -16.490  16.891  1.00 25.13 LIG-0.37  N 
ATOM     18 22HE GLN D   5      10.691 -16.575  16.894  1.00 25.13 LIG 0.16  HD
ATOM     19 21HE GLN D   5      11.902 -15.707  16.891  1.00 25.13 LIG 0.16  HD
ATOM     20 OE1  GLN D   5      11.867 -18.724  16.885  1.00 25.71 LIG-0.27  OA
ENDBRANCH 15 16
ENDBRANCH 14 15
ENDBRANCH 11 14
ENDBRANCH 9 11
ENDBRANCH 6 7
BRANCH 6 21
ATOM     21  CB  LYS D   4      19.395 -18.095  20.715  1.00 19.73 LIG 0.04  C 
BRANCH 21 22
ATOM     22  CG  LYS D   4      20.886 -18.275  20.790  1.00 20.49 LIG 0.00  C 
BRANCH 22 23
ATOM     23  CD  LYS D   4      21.230 -19.196  21.950  1.00 20.73 LIG 0.03  C 
BRANCH 23 24
ATOM     24  CE  LYS D   4      22.718 -19.206  22.201  1.00 20.46 LIG 0.23  C 
BRANCH 24 25
ATOM     25  NZ  LYS D   4      23.126 -18.077  23.071  1.00 20.02 LIG-0.08  N 
ATOM     26 HZ3  LYS D   4      23.111 -17.321  22.602  1.00 20.02 LIG 0.27  HD
ATOM     27 HZ1  LYS D   4      22.562 -18.012  23.757  1.00 20.02 LIG 0.27  HD
ATOM     28 HZ2  LYS D   4      23.950 -18.220  23.376  1.00 20.02 LIG 0.27  HD
ENDBRANCH 24 25
ENDBRANCH 23 24
ENDBRANCH 22 23
ENDBRANCH 21 22
ENDBRANCH 6 21
ENDBRANCH 4 6
ENDBRANCH 1 2
BRANCH 1 29
ATOM     29  CB  THR D   3      21.786 -18.990  15.812  1.00 15.86 LIG 0.15  C 
ATOM     30  CG2 THR D   3      21.915 -20.282  15.009  1.00 16.15 LIG 0.04  C 
BRANCH 29 31
ATOM     31 OG1  THR D   3      22.384 -17.919  15.070  1.00 16.19 LIG-0.39  OA
ATOM     32 HG1  THR D   3      23.196 -18.089  14.937  1.00 16.19 LIG 0.21  HD
ENDBRANCH 29 31
ENDBRANCH 1 29
BRANCH 1 33
ATOM     33  N   THR D   3      20.037 -17.226  15.945  1.00 15.75 LIG-0.34  N 
ATOM     34  C   ARG D   2      18.943 -16.766  15.336  1.00 15.31 LIG 0.24  C 
ATOM     35 O    ARG D   2      18.058 -17.500  14.901  1.00 15.17 LIG-0.27  OA
ATOM     36 H    THR D   3      20.642 -16.719  16.289  1.00 15.75 LIG 0.16  HD
BRANCH 34 37
ATOM     37  CA  ARG D   2      18.835 -15.249  15.178  1.00 15.15 LIG 0.18  C 
BRANCH 37 38
ATOM     38  N   ARG D   2      19.144 -14.532  16.419  1.00 15.89 LIG-0.35  N 
ATOM     39  C   ALA D   1      18.413 -14.604  17.533  1.00 16.91 LIG 0.25  C 
ATOM     40 O    ALA D   1      17.323 -15.187  17.599  1.00 17.32 LIG-0.27  OA
ATOM     41 H    ARG D   2      19.855 -14.051  16.363  1.00 15.89 LIG 0.16  HD
BRANCH 39 42
ATOM     42  CA  ALA D   1      18.992 -13.899  18.761  1.00 17.08 LIG 0.27  C 
ATOM     43  CB  ALA D   1      18.054 -14.057  19.978  1.00 17.48 LIG 0.05  C 
BRANCH 42 44
ATOM     44  N   ALA D   1      19.240 -12.454  18.481  1.00 17.36 LIG-0.07  N 
ATOM     45 H3   ALA D   1      20.095 -12.263  18.642  1.00 17.36 LIG 0.28  HD
ATOM     46 H2   ALA D   1      18.721 -11.956  19.005  1.00 17.36 LIG 0.28  HD
ATOM     47 H1   ALA D   1      19.054 -12.280  17.628  1.00 17.36 LIG 0.28  HD
ENDBRANCH 42 44
ENDBRANCH 39 42
ENDBRANCH 37 38
BRANCH 37 48
ATOM     48  CB  ARG D   2      19.805 -14.774  14.086  1.00 15.08 LIG 0.04  C 
BRANCH 48 49
ATOM     49  CG  ARG D   2      21.295 -14.880  14.385  1.00 14.63 LIG 0.02  C 
BRANCH 49 50
ATOM     50  CD  ARG D   2      21.984 -13.524  14.185  1.00 13.91 LIG 0.14  C 
BRANCH 50 51
ATOM     51  NE  ARG D   2      21.045 -12.406  14.282  1.00 10.79 LIG-0.23  N 
ATOM     52 HE   ARG D   2      20.634 -12.163  13.567  1.00 10.79 LIG 0.18  HD
ATOM     53  CZ  ARG D   2      20.783 -11.739  15.406  1.00 10.30 LIG 0.67  C 
ATOM     54  NH2 ARG D   2      21.379 -12.078  16.550  1.00  9.50 LIG-0.23  N 
ATOM     55  NH1 ARG D   2      19.926 -10.728  15.386  1.00  9.44 LIG-0.23  N 
ATOM     56 2HH2 ARG D   2      21.206 -11.643  17.270  1.00  9.50 LIG 0.17  HD
ATOM     57 1HH2 ARG D   2      21.938 -12.732  16.566  1.00  9.50 LIG 0.17  HD
ATOM     58 1HH1 ARG D   2      19.541 -10.506  14.650  1.00  9.44 LIG 0.17  HD
ATOM     59 2HH1 ARG D   2      19.755 -10.295  16.109  1.00  9.44 LIG 0.17  HD
ENDBRANCH 50 51
ENDBRANCH 49 50
ENDBRANCH 48 49
ENDBRANCH 37 48
ENDBRANCH 34 37
ENDBRANCH 1 33
TORSDOF 24
ENDMDL
MODEL 3
USER: ADFR SOLUTION from run 158
USER: SCORE 20.072349 LL:  -3.731 LR: -16.863 RR:   0.000 FEB:  -9.704
USER: RMSD 7.903520
USER: SEED 157
USER: STATUS no improvement in best in 3 clusters for 5 generations
USER: GENES 26
USER: genes 0 Translation |==|  0.55977 0.39289 0.50717
USER: genes 1 Rotation |==|  0.72496 0.92974 0.59178 0.57933
USER: genes 2 Torsion [N]-CA--C-[N] |==|  0.02277
USER: genes 3 Torsion [C]-N--CA-[C] |==|  0.66209
USER: genes 4 Torsion [N]-CA--C-[N] |==|  0.90488
USER: genes 5 Torsion [C]-N--CA-[C] |==|  0.15645
USER: genes 6 Torsion [N]-CA--C-[O] |==|  0.07406
USER: genes 7 Torsion [N]-CA--CB-[CG] |==|  0.64632
USER: genes 8 Torsion [CA]-CB--CG-[CD] |==|  0.66076
USER: genes 9 Torsion [CB]-CG--CD-[OE1] |==|  0.81910
USER: genes 10 Torsion [N]-CA--CB-[CG] |==|  0.85092
USER: genes 11 Torsion [CA]-CB--CG-[CD] |==|  0.76146
USER: genes 12 Torsion [CB]-CG--CD-[CE] |==|  0.51034
USER: genes 13 Torsion [CG]-CD--CE-[NZ] |==|  0.21189
USER: genes 14 Torsion [CD]-CE--NZ-[HZ3] |==|  0.80585
USER: genes 15 Torsion [C]-CA--CB-[CG2] |==|  0.29573
USER: genes 16 Torsion [CA]-CB--OG1-[HG1] |==|  0.51146
USER: genes 17 Torsion [C]-CA--N-[C] |==|  0.67222
USER: genes 18 Torsion [N]-C--CA-[N] |==|  0.90316
USER: genes 19 Torsion [C]-CA--N-[C] |==|  0.83577
USER: genes 20 Torsion [N]-C--CA-[N] |==|  0.16813
USER: genes 21 Torsion [C]-CA--N-[H1] |==|  0.99373
USER: genes 22 Torsion [C]-CA--CB-[CG] |==|  0.93946
USER: genes 23 Torsion [CA]-CB--CG-[CD] |==|  0.27954
USER: genes 24 Torsion [CB]-CG--CD-[NE] |==|  0.57109
USER: genes 25 Torsion [CG]-CD--NE-[HE] |==|  0.89311
ROOT
ATOM      1  CA  THR D   3      20.488 -18.748  16.297  1.00 16.13 LIG 0.20  C 
ENDROOT
BRANCH 1 2
ATOM      2  C   THR D   3      19.971 -19.193  17.675  1.00 16.95 LIG 0.24  C 
ATOM      3 O    THR D   3      20.161 -20.350  18.063  1.00 16.12 LIG-0.27  OA
ATOM      4  N   LYS D   4      19.326 -18.268  18.392  1.00 18.15 LIG-0.35  N 
ATOM      5 H    LYS D   4      19.237 -17.456  18.127  1.00 18.15 LIG 0.16  HD
BRANCH 4 6
ATOM      6  CA  LYS D   4      18.701 -18.525  19.699  1.00 19.65 LIG 0.18  C 
BRANCH 6 7
ATOM      7  C   LYS D   4      17.225 -18.194  19.629  1.00 20.62 LIG 0.24  C 
ATOM      8 O    LYS D   4      16.408 -18.863  20.270  1.00 20.86 LIG-0.27  OA
ATOM      9  N   GLN D   5      16.879 -17.177  18.846  1.00 21.55 LIG-0.35  N 
ATOM     10 H    GLN D   5      17.436 -16.710  18.387  1.00 21.55 LIG 0.16  HD
BRANCH 9 11
ATOM     11  CA  GLN D   5      15.477 -16.763  18.704  1.00 22.83 LIG 0.16  C 
BRANCH 11 12
ATOM     12  C   GLN D   5      14.833 -16.428  20.048  1.00 22.91 LIG 0.22  C 
ATOM     13 O    GLN D   5      15.513 -16.040  21.000  1.00 23.29 LIG-0.29  OA
ENDBRANCH 11 12
BRANCH 11 14
ATOM     14  CB  GLN D   5      14.659 -17.830  17.972  1.00 22.86 LIG 0.04  C 
BRANCH 14 15
ATOM     15  CG  GLN D   5      13.875 -17.316  16.777  1.00 24.40 LIG 0.10  C 
BRANCH 15 16
ATOM     16  CD  GLN D   5      12.384 -17.572  16.886  1.00 24.21 LIG 0.21  C 
ATOM     17  NE2 GLN D   5      11.603 -16.493  16.971  1.00 25.13 LIG-0.37  N 
ATOM     18 22HE GLN D   5      10.750 -16.584  17.030  1.00 25.13 LIG 0.16  HD
ATOM     19 21HE GLN D   5      11.953 -15.708  16.966  1.00 25.13 LIG 0.16  HD
ATOM     20 OE1  GLN D   5      11.934 -18.724  16.888  1.00 25.71 LIG-0.27  OA
ENDBRANCH 15 16
ENDBRANCH 14 15
ENDBRANCH 11 14
ENDBRANCH 9 11
ENDBRANCH 6 7
BRANCH 6 21
ATOM     21  CB  LYS D   4      19.315 -17.638  20.785  1.00 19.73 LIG 0.04  C 
BRANCH 21 22
ATOM     22  CG  LYS D   4      20.813 -17.696  20.914  1.00 20.49 LIG 0.00  C 
BRANCH 22 23
ATOM     23  CD  LYS D   4      21.201 -18.853  21.822  1.00 20.73 LIG 0.03  C 
BRANCH 23 24
ATOM     24  CE  LYS D   4      22.694 -18.880  22.042  1.00 20.46 LIG 0.23  C 
BRANCH 24 25
ATOM     25  NZ  LYS D   4      23.117 -17.833  23.001  1.00 20.02 LIG-0.08  N 
ATOM     26 HZ3  LYS D   4      23.025 -17.031  22.626  1.00 20.02 LIG 0.27  HD
ATOM     27 HZ1  LYS D   4      22.611 -17.877  23.732  1.00 20.02 LIG 0.27  HD
ATOM     28 HZ2  LYS D   4      23.970 -17.959  23.223  1.00 20.02 LIG 0.27  HD
ENDBRANCH 24 25
ENDBRANCH 23 24
ENDBRANCH 22 23
ENDBRANCH 21 22
ENDBRANCH 6 21
ENDBRANCH 4 6
ENDBRANCH 1 2
BRANCH 1 29
ATOM     29  CB  THR D   3      21.939 -19.227  16.100  1.00 15.86 LIG 0.15  C 
ATOM     30  CG2 THR D   3      21.992 -20.391  15.114  1.00 16.15 LIG 0.04  C 
BRANCH 29 31
ATOM     31 OG1  THR D   3      22.736 -18.150  15.592  1.00 16.19 LIG-0.39  OA
ATOM     32 HG1  THR D   3      23.512 -18.427  15.431  1.00 16.19 LIG 0.21  HD
ENDBRANCH 29 31
ENDBRANCH 1 29
BRANCH 1 33
ATOM     33  N   THR D   3      20.361 -17.304  16.044  1.00 15.75 LIG-0.34  N 
ATOM     34  C   ARG D   2      19.608 -16.823  15.054  1.00 15.31 LIG 0.24  C 
ATOM     35 O    ARG D   2      18.925 -17.537  14.323  1.00 15.17 LIG-0.27  OA
ATOM     36 H    THR D   3      20.810 -16.810  16.587  1.00 15.75 LIG 0.16  HD
BRANCH 34 37
ATOM     37  CA  ARG D   2      19.639 -15.309  14.845  1.00 15.15 LIG 0.18  C 
BRANCH 37 38
ATOM     38  N   ARG D   2      19.769 -14.571  16.106  1.00 15.89 LIG-0.35  N 
ATOM     39  C   ALA D   1      18.903 -14.649  17.118  1.00 16.91 LIG 0.25  C 
ATOM     40 O    ALA D   1      17.828 -15.259  17.052  1.00 17.32 LIG-0.27  OA
ATOM     41 H    ARG D   2      20.470 -14.072  16.134  1.00 15.89 LIG 0.16  HD
BRANCH 39 42
ATOM     42  CA  ALA D   1      19.303 -13.916  18.400  1.00 17.08 LIG 0.27  C 
ATOM     43  CB  ALA D   1      18.264 -14.157  19.517  1.00 17.48 LIG 0.05  C 
BRANCH 42 44
ATOM     44  N   ALA D   1      19.468 -12.454  18.151  1.00 17.36 LIG-0.07  N 
ATOM     45 H3   ALA D   1      20.292 -12.205  18.377  1.00 17.36 LIG 0.28  HD
ATOM     46 H2   ALA D   1      18.877 -12.001  18.638  1.00 17.36 LIG 0.28  HD
ATOM     47 H1   ALA D   1      19.334 -12.282  17.288  1.00 17.36 LIG 0.28  HD
ENDBRANCH 42 44
ENDBRANCH 39 42
ENDBRANCH 37 38
BRANCH 37 48
ATOM     48  CB  ARG D   2      20.822 -14.939  13.939  1.00 15.08 LIG 0.04  C 
BRANCH 48 49
ATOM     49  CG  ARG D   2      21.970 -15.935  13.852  1.00 14.63 LIG 0.02  C 
BRANCH 49 50
ATOM     50  CD  ARG D   2      21.870 -16.764  12.564  1.00 13.91 LIG 0.14  C 
BRANCH 50 51
ATOM     51  NE  ARG D   2      22.523 -18.067  12.693  1.00 10.79 LIG-0.23  N 
ATOM     52 HE   ARG D   2      23.260 -18.105  13.136  1.00 10.79 LIG 0.18  HD
ATOM     53  CZ  ARG D   2      22.055 -19.199  12.169  1.00 10.30 LIG 0.67  C 
ATOM     54  NH2 ARG D   2      20.911 -19.205  11.483  1.00  9.50 LIG-0.23  N 
ATOM     55  NH1 ARG D   2      22.732 -20.327  12.329  1.00  9.44 LIG-0.23  N 
ATOM     56 2HH2 ARG D   2      20.616 -19.939  11.147  1.00  9.50 LIG 0.17  HD
ATOM     57 1HH2 ARG D   2      20.470 -18.475  11.375  1.00  9.50 LIG 0.17  HD
ATOM     58 1HH1 ARG D   2      23.470 -20.326  12.769  1.00  9.44 LIG 0.17  HD
ATOM     59 2HH1 ARG D   2      22.432 -21.059  11.992  1.00  9.44 LIG 0.17  HD
ENDBRANCH 50 51
ENDBRANCH 49 50
ENDBRANCH 48 49
ENDBRANCH 37 48
ENDBRANCH 34 37
ENDBRANCH 1 33
TORSDOF 24
ENDMDL
MODEL 4
USER: ADFR SOLUTION from run 113
USER: SCORE 19.099106 LL:  -2.656 LR: -16.795 RR:   0.000 FEB:  -9.635
USER: RMSD 8.246269
USER: SEED 112
USER: STATUS no improvement in best in 9 clusters for 5 generations
USER: GENES 26
USER: genes 0 Translation |==|  0.50333 0.39563 0.52523
USER: genes 1 Rotation |==|  0.74444 0.92349 0.44740 0.59021
USER: genes 2 Torsion [N]-CA--C-[N] |==|  0.90061
USER: genes 3 Torsion [C]-N--CA-[C] |==|  0.16690
USER: genes 4 Torsion [N]-CA--C-[N] |==|  0.08763
USER: genes 5 Torsion [C]-N--CA-[C] |==|  0.13005
USER: genes 6 Torsion [N]-CA--C-[O] |==|  0.05473
USER: genes 7 Torsion [N]-CA--CB-[CG] |==|  0.60041
USER: genes 8 Torsion [CA]-CB--CG-[CD] |==|  0.98669
USER: genes 9 Torsion [CB]-CG--CD-[OE1] |==|  0.79839
USER: genes 10 Torsion [N]-CA--CB-[CG] |==|  0.62311
USER: genes 11 Torsion [CA]-CB--CG-[CD] |==|  0.28924
USER: genes 12 Torsion [CB]-CG--CD-[CE] |==|  0.64008
USER: genes 13 Torsion [CG]-CD--CE-[NZ] |==|  0.22057
USER: genes 14 Torsion [CD]-CE--NZ-[HZ3] |==|  0.52347
USER: genes 15 Torsion [C]-CA--CB-[CG2] |==|  0.70028
USER: genes 16 Torsion [CA]-CB--OG1-[HG1] |==|  0.10911
USER: genes 17 Torsion [C]-CA--N-[C] |==|  0.80758
USER: genes 18 Torsion [N]-C--CA-[N] |==|  0.85556
USER: genes 19 Torsion [C]-CA--N-[C] |==|  0.82835
USER: genes 20 Torsion [N]-C--CA-[N] |==|  0.43070
USER: genes 21 Torsion [C]-CA--N-[H1] |==|  0.23987
USER: genes 22 Torsion [C]-CA--CB-[CG] |==|  0.94526
USER: genes 23 Torsion [CA]-CB--CG-[CD] |==|  0.59367
USER: genes 24 Torsion [CB]-CG--CD-[NE] |==|  0.45139
USER: genes 25 Torsion [CG]-CD--NE-[HE] |==|  0.24209
ROOT
ATOM      1  CA  THR D   3      19.429 -18.693  16.704  1.00 16.13 LIG 0.20  C 
ENDROOT
BRANCH 1 2
ATOM      2  C   THR D   3      19.253 -18.328  18.186  1.00 16.95 LIG 0.24  C 
ATOM      3 O    THR D   3      18.625 -19.079  18.939  1.00 16.12 LIG-0.27  OA
ATOM      4  N   LYS D   4      19.810 -17.180  18.583  1.00 18.15 LIG-0.35  N 
ATOM      5 H    LYS D   4      20.279 -16.686  18.059  1.00 18.15 LIG 0.16  HD
BRANCH 4 6
ATOM      6  CA  LYS D   4      19.689 -16.630  19.943  1.00 19.65 LIG 0.18  C 
BRANCH 6 7
ATOM      7  C   LYS D   4      20.269 -17.610  20.940  1.00 20.62 LIG 0.24  C 
ATOM      8 O    LYS D   4      19.812 -17.674  22.086  1.00 20.86 LIG-0.27  OA
ATOM      9  N   GLN D   5      21.282 -18.361  20.517  1.00 21.55 LIG-0.35  N 
ATOM     10 H    GLN D   5      21.617 -18.318  19.726  1.00 21.55 LIG 0.16  HD
BRANCH 9 11
ATOM     11  CA  GLN D   5      21.922 -19.348  21.397  1.00 22.83 LIG 0.16  C 
BRANCH 11 12
ATOM     12  C   GLN D   5      20.902 -20.211  22.136  1.00 22.91 LIG 0.22  C 
ATOM     13 O    GLN D   5      19.743 -20.315  21.731  1.00 23.29 LIG-0.29  OA
ENDBRANCH 11 12
BRANCH 11 14
ATOM     14  CB  GLN D   5      22.868 -18.669  22.391  1.00 22.86 LIG 0.04  C 
BRANCH 14 15
ATOM     15  CG  GLN D   5      24.126 -19.458  22.706  1.00 24.40 LIG 0.10  C 
BRANCH 15 16
ATOM     16  CD  GLN D   5      24.149 -20.830  22.057  1.00 24.21 LIG 0.21  C 
ATOM     17  NE2 GLN D   5      24.992 -20.987  21.035  1.00 25.13 LIG-0.37  N 
ATOM     18 22HE GLN D   5      25.046 -21.747  20.636  1.00 25.13 LIG 0.16  HD
ATOM     19 21HE GLN D   5      25.481 -20.329  20.776  1.00 25.13 LIG 0.16  HD
ATOM     20 OE1  GLN D   5      23.423 -21.742  22.471  1.00 25.71 LIG-0.27  OA
ENDBRANCH 15 16
ENDBRANCH 14 15
ENDBRANCH 11 14
ENDBRANCH 9 11
ENDBRANCH 6 7
BRANCH 6 21
ATOM     21  CB  LYS D   4      18.220 -16.414  20.319  1.00 19.73 LIG 0.04  C 
BRANCH 21 22
ATOM     22  CG  LYS D   4      17.899 -15.110  20.997  1.00 20.49 LIG 0.00  C 
BRANCH 22 23
ATOM     23  CD  LYS D   4      17.222 -14.175  20.007  1.00 20.73 LIG 0.03  C 
BRANCH 23 24
ATOM     24  CE  LYS D   4      17.895 -12.824  20.004  1.00 20.46 LIG 0.23  C 
BRANCH 24 25
ATOM     25  NZ  LYS D   4      19.142 -12.845  19.203  1.00 20.02 LIG-0.08  N 
ATOM     26 HZ3  LYS D   4      19.581 -12.079  19.315  1.00 20.02 LIG 0.27  HD
ATOM     27 HZ1  LYS D   4      19.655 -13.522  19.469  1.00 20.02 LIG 0.27  HD
ATOM     28 HZ2  LYS D   4      18.941 -12.946  18.342  1.00 20.02 LIG 0.27  HD
ENDBRANCH 24 25
ENDBRANCH 23 24
ENDBRANCH 22 23
ENDBRANCH 21 22
ENDBRANCH 6 21
ENDBRANCH 4 6
ENDBRANCH 1 2
BRANCH 1 29
ATOM     29  CB  THR D   3      20.712 -19.526  16.516  1.00 15.86 LIG 0.15  C 
ATOM     30  CG2 THR D   3      21.793 -18.702  15.824  1.00 16.15 LIG 0.04  C 
BRANCH 29 31
ATOM     31 OG1  THR D   3      21.198 -19.954  17.794  1.00 16.19 LIG-0.39  OA
ATOM     32 HG1  THR D   3      20.550 -20.167  18.284  1.00 16.19 LIG 0.21  HD
ENDBRANCH 29 31
ENDBRANCH 1 29
BRANCH 1 33
ATOM     33  N   THR D   3      19.402 -17.538  15.792  1.00 15.75 LIG-0.34  N 
ATOM     34  C   ARG D   2      18.288 -16.841  15.567  1.00 15.31 LIG 0.24  C 
ATOM     35 O    ARG D   2      17.225 -17.070  16.141  1.00 15.17 LIG-0.27  OA
ATOM     36 H    THR D   3      20.160 -17.360  15.426  1.00 15.75 LIG 0.16  HD
BRANCH 34 37
ATOM     37  CA  ARG D   2      18.378 -15.724  14.526  1.00 15.15 LIG 0.18  C 
BRANCH 37 38
ATOM     38  N   ARG D   2      19.493 -14.806  14.784  1.00 15.89 LIG-0.35  N 
ATOM     39  C   ALA D   1      19.614 -14.057  15.881  1.00 16.91 LIG 0.25  C 
ATOM     40 O    ALA D   1      18.733 -13.963  16.746  1.00 17.32 LIG-0.27  OA
ATOM     41 H    ARG D   2      20.074 -14.795  14.150  1.00 15.89 LIG 0.16  HD
BRANCH 39 42
ATOM     42  CA  ALA D   1      20.926 -13.283  16.022  1.00 17.08 LIG 0.27  C 
ATOM     43  CB  ALA D   1      22.040 -14.190  16.589  1.00 17.48 LIG 0.05  C 
BRANCH 42 44
ATOM     44  N   ALA D   1      20.747 -12.079  16.886  1.00 17.36 LIG-0.07  N 
ATOM     45 H3   ALA D   1      19.928 -11.749  16.770  1.00 17.36 LIG 0.28  HD
ATOM     46 H2   ALA D   1      21.349 -11.463  16.665  1.00 17.36 LIG 0.28  HD
ATOM     47 H1   ALA D   1      20.856 -12.307  17.740  1.00 17.36 LIG 0.28  HD
ENDBRANCH 42 44
ENDBRANCH 39 42
ENDBRANCH 37 38
BRANCH 37 48
ATOM     48  CB  ARG D   2      18.563 -16.336  13.129  1.00 15.08 LIG 0.04  C 
BRANCH 48 49
ATOM     49  CG  ARG D   2      19.074 -17.768  13.059  1.00 14.63 LIG 0.02  C 
BRANCH 49 50
ATOM     50  CD  ARG D   2      19.962 -17.966  11.824  1.00 13.91 LIG 0.14  C 
BRANCH 50 51
ATOM     51  NE  ARG D   2      20.791 -19.167  11.924  1.00 10.79 LIG-0.23  N 
ATOM     52 HE   ARG D   2      20.454 -19.911  11.656  1.00 10.79 LIG 0.18  HD
ATOM     53  CZ  ARG D   2      22.034 -19.184  12.404  1.00 10.30 LIG 0.67  C 
ATOM     54  NH2 ARG D   2      22.615 -18.060  12.822  1.00  9.50 LIG-0.23  N 
ATOM     55  NH1 ARG D   2      22.697 -20.330  12.468  1.00  9.44 LIG-0.23  N 
ATOM     56 2HH2 ARG D   2      23.417 -18.079  13.131  1.00  9.50 LIG 0.17  HD
ATOM     57 1HH2 ARG D   2      22.187 -17.315  12.784  1.00  9.50 LIG 0.17  HD
ATOM     58 1HH1 ARG D   2      22.326 -21.058  12.200  1.00  9.44 LIG 0.17  HD
ATOM     59 2HH1 ARG D   2      23.500 -20.346  12.777  1.00  9.44 LIG 0.17  HD
ENDBRANCH 50 51
ENDBRANCH 49 50
ENDBRANCH 48 49
ENDBRANCH 37 48
ENDBRANCH 34 37
ENDBRANCH 1 33
TORSDOF 24
ENDMDL
MODEL 5
USER: ADFR SOLUTION from run 115
USER: SCORE 18.820722 LL:  -3.147 LR: -16.787 RR:   0.000 FEB:  -9.627
USER: RMSD 7.651136
USER: SEED 114
USER: STATUS searching
USER: GENES 26
USER: genes 0 Translation |==|  0.37892 0.49884 0.67748
USER: genes 1 Rotation |==|  0.19226 0.44410 0.74727 0.80172
USER: genes 2 Torsion [N]-CA--C-[N] |==|  0.17997
USER: genes 3 Torsion [C]-N--CA-[C] |==|  0.15844
USER: genes 4 Torsion [N]-CA--C-[N] |==|  0.12678
USER: genes 5 Torsion [C]-N--CA-[C] |==|  0.87916
USER: genes 6 Torsion [N]-CA--C-[O] |==|  0.87554
USER: genes 7 Torsion [N]-CA--CB-[CG] |==|  0.09214
USER: genes 8 Torsion [CA]-CB--CG-[CD] |==|  0.32489
USER: genes 9 Torsion [CB]-CG--CD-[OE1] |==|  0.30522
USER: genes 10 Torsion [N]-CA--CB-[CG] |==|  0.72209
USER: genes 11 Torsion [CA]-CB--CG-[CD] |==|  0.77877
USER: genes 12 Torsion [CB]-CG--CD-[CE] |==|  0.46624
USER: genes 13 Torsion [CG]-CD--CE-[NZ] |==|  0.91300
USER: genes 14 Torsion [CD]-CE--NZ-[HZ3] |==|  0.86489
USER: genes 15 Torsion [C]-CA--CB-[CG2] |==|  0.43609
USER: genes 16 Torsion [CA]-CB--OG1-[HG1] |==|  0.20780
USER: genes 17 Torsion [C]-CA--N-[C] |==|  0.71718
USER: genes 18 Torsion [N]-C--CA-[N] |==|  0.65539
USER: genes 19 Torsion [C]-CA--N-[C] |==|  0.15177
USER: genes 20 Torsion [N]-C--CA-[N] |==|  0.93682
USER: genes 21 Torsion [C]-CA--N-[H1] |==|  0.99734
USER: genes 22 Torsion [C]-CA--CB-[CG] |==|  0.27599
USER: genes 23 Torsion [CA]-CB--CG-[CD] |==|  0.19681
USER: genes 24 Torsion [CB]-CG--CD-[NE] |==|  0.70099
USER: genes 25 Torsion [CG]-CD--NE-[HE] |==|  0.81646
ROOT
ATOM      1  CA  THR D   3      17.097 -16.603  20.129  1.00 16.13 LIG 0.20  C 
ENDROOT
BRANCH 1 2
ATOM      2  C   THR D   3      18.098 -17.743  19.889  1.00 16.95 LIG 0.24  C 
ATOM      3 O    THR D   3      17.692 -18.878  19.621  1.00 16.12 LIG-0.27  OA
ATOM      4  N   LYS D   4      19.392 -17.425  19.988  1.00 18.15 LIG-0.35  N 
ATOM      5 H    LYS D   4      19.662 -16.622  20.134  1.00 18.15 LIG 0.16  HD
BRANCH 4 6
ATOM      6  CA  LYS D   4      20.493 -18.393  19.861  1.00 19.65 LIG 0.18  C 
BRANCH 6 7
ATOM      7  C   LYS D   4      20.399 -19.096  18.523  1.00 20.62 LIG 0.24  C 
ATOM      8 O    LYS D   4      20.544 -20.320  18.453  1.00 20.86 LIG-0.27  OA
ATOM      9  N   GLN D   5      20.173 -18.328  17.461  1.00 21.55 LIG-0.35  N 
ATOM     10 H    GLN D   5      20.081 -17.473  17.495  1.00 21.55 LIG 0.16  HD
BRANCH 9 11
ATOM     11  CA  GLN D   5      20.060 -18.899  16.113  1.00 22.83 LIG 0.16  C 
BRANCH 11 12
ATOM     12  C   GLN D   5      21.131 -19.954  15.840  1.00 22.91 LIG 0.22  C 
ATOM     13 O    GLN D   5      22.307 -19.763  16.152  1.00 23.29 LIG-0.29  OA
ENDBRANCH 11 12
BRANCH 11 14
ATOM     14  CB  GLN D   5      20.105 -17.804  15.044  1.00 22.86 LIG 0.04  C 
BRANCH 14 15
ATOM     15  CG  GLN D   5      20.984 -16.616  15.394  1.00 24.40 LIG 0.10  C 
BRANCH 15 16
ATOM     16  CD  GLN D   5      22.154 -16.439  14.445  1.00 24.21 LIG 0.21  C 
ATOM     17  NE2 GLN D   5      23.117 -17.360  14.515  1.00 25.13 LIG-0.37  N 
ATOM     18 22HE GLN D   5      23.800 -17.308  13.995  1.00 25.13 LIG 0.16  HD
ATOM     19 21HE GLN D   5      23.054 -18.006  15.079  1.00 25.13 LIG 0.16  HD
ATOM     20 OE1  GLN D   5      22.193 -15.490  13.652  1.00 25.71 LIG-0.27  OA
ENDBRANCH 15 16
ENDBRANCH 14 15
ENDBRANCH 11 14
ENDBRANCH 9 11
ENDBRANCH 6 7
BRANCH 6 21
ATOM     21  CB  LYS D   4      20.406 -19.469  20.946  1.00 19.73 LIG 0.04  C 
BRANCH 21 22
ATOM     22  CG  LYS D   4      21.315 -19.285  22.130  1.00 20.49 LIG 0.00  C 
BRANCH 22 23
ATOM     23  CD  LYS D   4      22.718 -19.747  21.772  1.00 20.73 LIG 0.03  C 
BRANCH 23 24
ATOM     24  CE  LYS D   4      23.710 -19.307  22.821  1.00 20.46 LIG 0.23  C 
BRANCH 24 25
ATOM     25  NZ  LYS D   4      23.302 -18.024  23.443  1.00 20.02 LIG-0.08  N 
ATOM     26 HZ3  LYS D   4      23.094 -17.439  22.806  1.00 20.02 LIG 0.27  HD
ATOM     27 HZ1  LYS D   4      22.594 -18.159  23.965  1.00 20.02 LIG 0.27  HD
ATOM     28 HZ2  LYS D   4      23.974 -17.704  23.931  1.00 20.02 LIG 0.27  HD
ENDBRANCH 24 25
ENDBRANCH 23 24
ENDBRANCH 22 23
ENDBRANCH 21 22
ENDBRANCH 6 21
ENDBRANCH 4 6
ENDBRANCH 1 2
BRANCH 1 29
ATOM     29  CB  THR D   3      15.670 -17.172  20.248  1.00 15.86 LIG 0.15  C 
ATOM     30  CG2 THR D   3      14.770 -16.213  21.023  1.00 16.15 LIG 0.04  C 
BRANCH 29 31
ATOM     31 OG1  THR D   3      15.121 -17.371  18.940  1.00 16.19 LIG-0.39  OA
ATOM     32 HG1  THR D   3      15.472 -18.048  18.589  1.00 16.19 LIG 0.21  HD
ENDBRANCH 29 31
ENDBRANCH 1 29
BRANCH 1 33
ATOM     33  N   THR D   3      17.162 -15.523  19.132  1.00 15.75 LIG-0.34  N 
ATOM     34  C   ARG D   2      17.773 -14.365  19.382  1.00 15.31 LIG 0.24  C 
ATOM     35 O    ARG D   2      18.372 -14.135  20.430  1.00 15.17 LIG-0.27  OA
ATOM     36 H    THR D   3      16.775 -15.708  18.386  1.00 15.75 LIG 0.16  HD
BRANCH 34 37
ATOM     37  CA  ARG D   2      17.686 -13.295  18.292  1.00 15.15 LIG 0.18  C 
BRANCH 37 38
ATOM     38  N   ARG D   2      19.006 -12.828  17.857  1.00 15.89 LIG-0.35  N 
ATOM     39  C   ALA D   1      19.981 -13.626  17.418  1.00 16.91 LIG 0.25  C 
ATOM     40 O    ALA D   1      19.919 -14.862  17.448  1.00 17.32 LIG-0.27  OA
ATOM     41 H    ARG D   2      19.097 -11.975  17.912  1.00 15.89 LIG 0.16  HD
BRANCH 39 42
ATOM     42  CA  ALA D   1      21.226 -12.925  16.872  1.00 17.08 LIG 0.27  C 
ATOM     43  CB  ALA D   1      22.356 -12.913  17.926  1.00 17.48 LIG 0.05  C 
BRANCH 42 44
ATOM     44  N   ALA D   1      20.908 -11.533  16.436  1.00 17.36 LIG-0.07  N 
ATOM     45 H3   ALA D   1      21.103 -11.441  15.572  1.00 17.36 LIG 0.28  HD
ATOM     46 H2   ALA D   1      21.389 -10.956  16.912  1.00 17.36 LIG 0.28  HD
ATOM     47 H1   ALA D   1      20.042 -11.372  16.562  1.00 17.36 LIG 0.28  HD
ENDBRANCH 42 44
ENDBRANCH 39 42
ENDBRANCH 37 38
BRANCH 37 48
ATOM     48  CB  ARG D   2      16.943 -13.863  17.073  1.00 15.08 LIG 0.04  C 
BRANCH 48 49
ATOM     49  CG  ARG D   2      15.471 -13.504  16.926  1.00 14.63 LIG 0.02  C 
BRANCH 49 50
ATOM     50  CD  ARG D   2      15.310 -12.024  16.551  1.00 13.91 LIG 0.14  C 
BRANCH 50 51
ATOM     51  NE  ARG D   2      14.795 -11.225  17.663  1.00 10.79 LIG-0.23  N 
ATOM     52 HE   ARG D   2      13.994 -11.383  17.933  1.00 10.79 LIG 0.18  HD
ATOM     53  CZ  ARG D   2      15.484 -10.269  18.285  1.00 10.30 LIG 0.67  C 
ATOM     54  NH2 ARG D   2      16.735  -9.989  17.919  1.00  9.50 LIG-0.23  N 
ATOM     55  NH1 ARG D   2      14.920  -9.590  19.273  1.00  9.44 LIG-0.23  N 
ATOM     56 2HH2 ARG D   2      17.173  -9.370  18.325  1.00  9.50 LIG 0.17  HD
ATOM     57 1HH2 ARG D   2      17.104 -10.426  17.277  1.00  9.50 LIG 0.17  HD
ATOM     58 1HH1 ARG D   2      14.113  -9.767  19.511  1.00  9.44 LIG 0.17  HD
ATOM     59 2HH1 ARG D   2      15.362  -8.972  19.677  1.00  9.44 LIG 0.17  HD
ENDBRANCH 50 51
ENDBRANCH 49 50
ENDBRANCH 48 49
ENDBRANCH 37 48
ENDBRANCH 34 37
ENDBRANCH 1 33
TORSDOF 24
ENDMDL
MODEL 6
USER: ADFR SOLUTION from run 75
USER: SCORE 19.653009 LL:  -3.674 LR: -16.710 RR:   0.000 FEB:  -9.551
USER: RMSD 8.608434
USER: SEED 74
USER: STATUS no improvement in best in 6 clusters for 5 generations
USER: GENES 26
USER: genes 0 Translation |==|  0.55078 0.39374 0.48784
USER: genes 1 Rotation |==|  0.70086 0.94210 0.61374 0.53567
USER: genes 2 Torsion [N]-CA--C-[N] |==|  0.93470
USER: genes 3 Torsion [C]-N--CA-[C] |==|  0.73004
USER: genes 4 Torsion [N]-CA--C-[N] |==|  0.01229
USER: genes 5 Torsion [C]-N--CA-[C] |==|  0.48926
USER: genes 6 Torsion [N]-CA--C-[O] |==|  0.87868
USER: genes 7 Torsion [N]-CA--CB-[CG] |==|  0.20918
USER: genes 8 Torsion [CA]-CB--CG-[CD] |==|  0.80228
USER: genes 9 Torsion [CB]-CG--CD-[OE1] |==|  0.20364
USER: genes 10 Torsion [N]-CA--CB-[CG] |==|  0.61881
USER: genes 11 Torsion [CA]-CB--CG-[CD] |==|  0.25030
USER: genes 12 Torsion [CB]-CG--CD-[CE] |==|  0.35955
USER: genes 13 Torsion [CG]-CD--CE-[NZ] |==|  0.88208
USER: genes 14 Torsion [CD]-CE--NZ-[HZ3] |==|  0.52436
USER: genes 15 Torsion [C]-CA--CB-[CG2] |==|  0.22434
USER: genes 16 Torsion [CA]-CB--OG1-[HG1] |==|  0.58242
USER: genes 17 Torsion [C]-CA--N-[C] |==|  0.76862
USER: genes 18 Torsion [N]-C--CA-[N] |==|  0.85491
USER: genes 19 Torsion [C]-CA--N-[C] |==|  0.19914
USER: genes 20 Torsion [N]-C--CA-[N] |==|  0.65718
USER: genes 21 Torsion [C]-CA--N-[H1] |==|  0.57349
USER: genes 22 Torsion [C]-CA--CB-[CG] |==|  0.48101
USER: genes 23 Torsion [CA]-CB--CG-[CD] |==|  0.24855
USER: genes 24 Torsion [CB]-CG--CD-[NE] |==|  0.63724
USER: genes 25 Torsion [CG]-CD--NE-[HE] |==|  0.22987
ROOT
ATOM      1  CA  THR D   3      20.319 -18.731  15.862  1.00 16.13 LIG 0.20  C 
ENDROOT
BRANCH 1 2
ATOM      2  C   THR D   3      20.027 -19.415  17.207  1.00 16.95 LIG 0.24  C 
ATOM      3 O    THR D   3      19.865 -20.638  17.257  1.00 16.12 LIG-0.27  OA
ATOM      4  N   LYS D   4      19.963 -18.616  18.276  1.00 18.15 LIG-0.35  N 
ATOM      5 H    LYS D   4      20.118 -17.772  18.233  1.00 18.15 LIG 0.16  HD
BRANCH 4 6
ATOM      6  CA  LYS D   4      19.625 -19.076  19.632  1.00 19.65 LIG 0.18  C 
BRANCH 6 7
ATOM      7  C   LYS D   4      18.156 -18.829  19.901  1.00 20.62 LIG 0.24  C 
ATOM      8 O    LYS D   4      17.677 -19.080  21.011  1.00 20.86 LIG-0.27  OA
ATOM      9  N   GLN D   5      17.437 -18.353  18.889  1.00 21.55 LIG-0.35  N 
ATOM     10 H    GLN D   5      17.756 -18.184  18.109  1.00 21.55 LIG 0.16  HD
BRANCH 9 11
ATOM     11  CA  GLN D   5      16.002 -18.072  19.035  1.00 22.83 LIG 0.16  C 
BRANCH 11 12
ATOM     12  C   GLN D   5      15.405 -17.445  17.776  1.00 22.91 LIG 0.22  C 
ATOM     13 O    GLN D   5      15.995 -16.549  17.169  1.00 23.29 LIG-0.29  OA
ENDBRANCH 11 12
BRANCH 11 14
ATOM     14  CB  GLN D   5      15.736 -17.183  20.252  1.00 22.86 LIG 0.04  C 
BRANCH 14 15
ATOM     15  CG  GLN D   5      16.105 -15.722  20.061  1.00 24.40 LIG 0.10  C 
BRANCH 15 16
ATOM     16  CD  GLN D   5      17.603 -15.486  20.014  1.00 24.21 LIG 0.21  C 
ATOM     17  NE2 GLN D   5      18.146 -14.918  21.092  1.00 25.13 LIG-0.37  N 
ATOM     18 22HE GLN D   5      18.992 -14.767  21.118  1.00 25.13 LIG 0.16  HD
ATOM     19 21HE GLN D   5      17.650 -14.704  21.762  1.00 25.13 LIG 0.16  HD
ATOM     20 OE1  GLN D   5      18.268 -15.814  19.024  1.00 25.71 LIG-0.27  OA
ENDBRANCH 15 16
ENDBRANCH 14 15
ENDBRANCH 11 14
ENDBRANCH 9 11
ENDBRANCH 6 7
BRANCH 6 21
ATOM     21  CB  LYS D   4      20.417 -18.300  20.689  1.00 19.73 LIG 0.04  C 
BRANCH 21 22
ATOM     22  CG  LYS D   4      20.988 -19.118  21.815  1.00 20.49 LIG 0.00  C 
BRANCH 22 23
ATOM     23  CD  LYS D   4      22.383 -19.593  21.444  1.00 20.73 LIG 0.03  C 
BRANCH 23 24
ATOM     24  CE  LYS D   4      23.366 -19.275  22.545  1.00 20.46 LIG 0.23  C 
BRANCH 24 25
ATOM     25  NZ  LYS D   4      23.144 -17.915  23.089  1.00 20.02 LIG-0.08  N 
ATOM     26 HZ3  LYS D   4      23.808 -17.704  23.642  1.00 20.02 LIG 0.27  HD
ATOM     27 HZ1  LYS D   4      23.117 -17.328  22.421  1.00 20.02 LIG 0.27  HD
ATOM     28 HZ2  LYS D   4      22.372 -17.895  23.533  1.00 20.02 LIG 0.27  HD
ENDBRANCH 24 25
ENDBRANCH 23 24
ENDBRANCH 22 23
ENDBRANCH 21 22
ENDBRANCH 6 21
ENDBRANCH 4 6
ENDBRANCH 1 2
BRANCH 1 29
ATOM     29  CB  THR D   3      21.793 -18.950  15.471  1.00 15.86 LIG 0.15  C 
ATOM     30  CG2 THR D   3      21.986 -20.329  14.847  1.00 16.15 LIG 0.04  C 
BRANCH 29 31
ATOM     31 OG1  THR D   3      22.192 -17.950  14.524  1.00 16.19 LIG-0.39  OA
ATOM     32 HG1  THR D   3      22.788 -18.263  14.021  1.00 16.19 LIG 0.21  HD
ENDBRANCH 29 31
ENDBRANCH 1 29
BRANCH 1 33
ATOM     33  N   THR D   3      19.959 -17.305  15.821  1.00 15.75 LIG-0.34  N 
ATOM     34  C   ARG D   2      18.716 -16.896  15.565  1.00 15.31 LIG 0.24  C 
ATOM     35 O    ARG D   2      17.775 -17.671  15.404  1.00 15.17 LIG-0.27  OA
ATOM     36 H    THR D   3      20.616 -16.771  15.975  1.00 15.75 LIG 0.16  HD
BRANCH 34 37
ATOM     37  CA  ARG D   2      18.500 -15.386  15.460  1.00 15.15 LIG 0.18  C 
BRANCH 37 38
ATOM     38  N   ARG D   2      19.025 -14.662  16.623  1.00 15.89 LIG-0.35  N 
ATOM     39  C   ALA D   1      20.323 -14.491  16.880  1.00 16.91 LIG 0.25  C 
ATOM     40 O    ALA D   1      21.227 -15.032  16.230  1.00 17.32 LIG-0.27  OA
ATOM     41 H    ARG D   2      18.407 -14.352  17.134  1.00 15.89 LIG 0.16  HD
BRANCH 39 42
ATOM     42  CA  ALA D   1      20.657 -13.578  18.061  1.00 17.08 LIG 0.27  C 
ATOM     43  CB  ALA D   1      19.367 -13.029  18.711  1.00 17.48 LIG 0.05  C 
BRANCH 42 44
ATOM     44  N   ALA D   1      21.542 -12.454  17.636  1.00 17.36 LIG-0.07  N 
ATOM     45 H3   ALA D   1      21.044 -11.781  17.332  1.00 17.36 LIG 0.28  HD
ATOM     46 H2   ALA D   1      22.088 -12.734  16.991  1.00 17.36 LIG 0.28  HD
ATOM     47 H1   ALA D   1      22.024 -12.175  18.331  1.00 17.36 LIG 0.28  HD
ENDBRANCH 42 44
ENDBRANCH 39 42
ENDBRANCH 37 38
BRANCH 37 48
ATOM     48  CB  ARG D   2      19.195 -14.853  14.199  1.00 15.08 LIG 0.04  C 
BRANCH 48 49
ATOM     49  CG  ARG D   2      18.957 -13.394  13.837  1.00 14.63 LIG 0.02  C 
BRANCH 49 50
ATOM     50  CD  ARG D   2      20.003 -12.493  14.507  1.00 13.91 LIG 0.14  C 
BRANCH 50 51
ATOM     51  NE  ARG D   2      19.393 -11.358  15.199  1.00 10.79 LIG-0.23  N 
ATOM     52 HE   ARG D   2      19.089 -11.487  15.994  1.00 10.79 LIG 0.18  HD
ATOM     53  CZ  ARG D   2      19.278 -10.135  14.682  1.00 10.30 LIG 0.67  C 
ATOM     54  NH2 ARG D   2      19.742  -9.870  13.460  1.00  9.50 LIG-0.23  N 
ATOM     55  NH1 ARG D   2      18.693  -9.176  15.386  1.00  9.44 LIG-0.23  N 
ATOM     56 2HH2 ARG D   2      19.663  -9.079  13.133  1.00  9.50 LIG 0.17  HD
ATOM     57 1HH2 ARG D   2      20.120 -10.490  13.000  1.00  9.50 LIG 0.17  HD
ATOM     58 1HH1 ARG D   2      18.392  -9.344  16.173  1.00  9.44 LIG 0.17  HD
ATOM     59 2HH1 ARG D   2      18.617  -8.385  15.055  1.00  9.44 LIG 0.17  HD
ENDBRANCH 50 51
ENDBRANCH 49 50
ENDBRANCH 48 49
ENDBRANCH 37 48
ENDBRANCH 34 37
ENDBRANCH 1 33
TORSDOF 24
ENDMDL
MODEL 7
USER: ADFR SOLUTION from run 173
USER: SCORE 19.940356 LL:  -3.683 LR: -16.653 RR:   0.000 FEB:  -9.493
USER: RMSD 8.197021
USER: SEED 172
USER: STATUS no improvement in best in 4 clusters for 5 generations
USER: GENES 26
USER: genes 0 Translation |==|  0.55843 0.37648 0.50593
USER: genes 1 Rotation |==|  0.72475 0.92972 0.58641 0.58580
USER: genes 2 Torsion [N]-CA--C-[N] |==|  0.98631
USER: genes 3 Torsion [C]-N--CA-[C] |==|  0.73019
USER: genes 4 Torsion [N]-CA--C-[N] |==|  0.96756
USER: genes 5 Torsion [C]-N--CA-[C] |==|  0.54774
USER: genes 6 Torsion [N]-CA--C-[O] |==|  0.93779
USER: genes 7 Torsion [N]-CA--CB-[CG] |==|  0.02605
USER: genes 8 Torsion [CA]-CB--CG-[CD] |==|  0.63151
USER: genes 9 Torsion [CB]-CG--CD-[OE1] |==|  0.02128
USER: genes 10 Torsion [N]-CA--CB-[CG] |==|  0.81927
USER: genes 11 Torsion [CA]-CB--CG-[CD] |==|  0.84603
USER: genes 12 Torsion [CB]-CG--CD-[CE] |==|  0.50058
USER: genes 13 Torsion [CG]-CD--CE-[NZ] |==|  0.14879
USER: genes 14 Torsion [CD]-CE--NZ-[HZ3] |==|  0.83113
USER: genes 15 Torsion [C]-CA--CB-[CG2] |==|  0.31787
USER: genes 16 Torsion [CA]-CB--OG1-[HG1] |==|  0.73390
USER: genes 17 Torsion [C]-CA--N-[C] |==|  0.66111
USER: genes 18 Torsion [N]-C--CA-[N] |==|  0.93058
USER: genes 19 Torsion [C]-CA--N-[C] |==|  0.76989
USER: genes 20 Torsion [N]-C--CA-[N] |==|  0.23997
USER: genes 21 Torsion [C]-CA--N-[H1] |==|  0.98521
USER: genes 22 Torsion [C]-CA--CB-[CG] |==|  0.92557
USER: genes 23 Torsion [CA]-CB--CG-[CD] |==|  0.27950
USER: genes 24 Torsion [CB]-CG--CD-[NE] |==|  0.55175
USER: genes 25 Torsion [CG]-CD--NE-[HE] |==|  0.87819
ROOT
ATOM      1  CA  THR D   3      20.463 -19.080  16.269  1.00 16.13 LIG 0.20  C 
ENDROOT
BRANCH 1 2
ATOM      2  C   THR D   3      19.926 -19.480  17.653  1.00 16.95 LIG 0.24  C 
ATOM      3 O    THR D   3      19.882 -20.670  17.980  1.00 16.12 LIG-0.27  OA
ATOM      4  N   LYS D   4      19.525 -18.479  18.443  1.00 18.15 LIG-0.35  N 
ATOM      5 H    LYS D   4      19.598 -17.653  18.218  1.00 18.15 LIG 0.16  HD
BRANCH 4 6
ATOM      6  CA  LYS D   4      18.918 -18.668  19.770  1.00 19.65 LIG 0.18  C 
BRANCH 6 7
ATOM      7  C   LYS D   4      17.410 -18.604  19.654  1.00 20.62 LIG 0.24  C 
ATOM      8 O    LYS D   4      16.698 -18.961  20.597  1.00 20.86 LIG-0.27  OA
ATOM      9  N   GLN D   5      16.920 -18.165  18.498  1.00 21.55 LIG-0.35  N 
ATOM     10 H    GLN D   5      17.404 -17.923  17.830  1.00 21.55 LIG 0.16  HD
BRANCH 9 11
ATOM     11  CA  GLN D   5      15.473 -18.057  18.272  1.00 22.83 LIG 0.16  C 
BRANCH 11 12
ATOM     12  C   GLN D   5      15.126 -17.944  16.788  1.00 22.91 LIG 0.22  C 
ATOM     13 O    GLN D   5      15.955 -17.544  15.969  1.00 23.29 LIG-0.29  OA
ENDBRANCH 11 12
BRANCH 11 14
ATOM     14  CB  GLN D   5      14.880 -16.880  19.050  1.00 22.86 LIG 0.04  C 
BRANCH 14 15
ATOM     15  CG  GLN D   5      15.908 -15.962  19.687  1.00 24.40 LIG 0.10  C 
BRANCH 15 16
ATOM     16  CD  GLN D   5      15.600 -15.635  21.137  1.00 24.21 LIG 0.21  C 
ATOM     17  NE2 GLN D   5      16.367 -14.705  21.710  1.00 25.13 LIG-0.37  N 
ATOM     18 22HE GLN D   5      16.230 -14.480  22.528  1.00 25.13 LIG 0.16  HD
ATOM     19 21HE GLN D   5      16.997 -14.331  21.260  1.00 25.13 LIG 0.16  HD
ATOM     20 OE1  GLN D   5      14.680 -16.204  21.736  1.00 25.71 LIG-0.27  OA
ENDBRANCH 15 16
ENDBRANCH 14 15
ENDBRANCH 11 14
ENDBRANCH 9 11
ENDBRANCH 6 7
BRANCH 6 21
ATOM     21  CB  LYS D   4      19.347 -17.557  20.733  1.00 19.73 LIG 0.04  C 
BRANCH 21 22
ATOM     22  CG  LYS D   4      20.810 -17.516  21.079  1.00 20.49 LIG 0.00  C 
BRANCH 22 23
ATOM     23  CD  LYS D   4      21.242 -18.864  21.634  1.00 20.73 LIG 0.03  C 
BRANCH 23 24
ATOM     24  CE  LYS D   4      22.707 -18.849  21.995  1.00 20.46 LIG 0.23  C 
BRANCH 24 25
ATOM     25  NZ  LYS D   4      23.026 -17.723  22.904  1.00 20.02 LIG-0.08  N 
ATOM     26 HZ3  LYS D   4      22.836 -16.953  22.501  1.00 20.02 LIG 0.27  HD
ATOM     27 HZ1  LYS D   4      22.543 -17.795  23.648  1.00 20.02 LIG 0.27  HD
ATOM     28 HZ2  LYS D   4      23.892 -17.743  23.110  1.00 20.02 LIG 0.27  HD
ENDBRANCH 24 25
ENDBRANCH 23 24
ENDBRANCH 22 23
ENDBRANCH 21 22
ENDBRANCH 6 21
ENDBRANCH 4 6
ENDBRANCH 1 2
BRANCH 1 29
ATOM     29  CB  THR D   3      21.912 -19.576  16.105  1.00 15.86 LIG 0.15  C 
ATOM     30  CG2 THR D   3      21.998 -20.637  15.011  1.00 16.15 LIG 0.04  C 
BRANCH 29 31
ATOM     31 OG1  THR D   3      22.760 -18.475  15.753  1.00 16.19 LIG-0.39  OA
ATOM     32 HG1  THR D   3      22.854 -18.449  14.919  1.00 16.19 LIG 0.21  HD
ENDBRANCH 29 31
ENDBRANCH 1 29
BRANCH 1 33
ATOM     33  N   THR D   3      20.350 -17.644  15.971  1.00 15.75 LIG-0.34  N 
ATOM     34  C   ARG D   2      19.678 -17.192  14.912  1.00 15.31 LIG 0.24  C 
ATOM     35 O    ARG D   2      19.059 -17.928  14.146  1.00 15.17 LIG-0.27  OA
ATOM     36 H    THR D   3      20.752 -17.134  16.536  1.00 15.75 LIG 0.16  HD
BRANCH 34 37
ATOM     37  CA  ARG D   2      19.719 -15.683  14.669  1.00 15.15 LIG 0.18  C 
BRANCH 37 38
ATOM     38  N   ARG D   2      19.975 -14.923  15.897  1.00 15.89 LIG-0.35  N 
ATOM     39  C   ALA D   1      19.038 -14.591  16.787  1.00 16.91 LIG 0.25  C 
ATOM     40 O    ALA D   1      17.828 -14.780  16.609  1.00 17.32 LIG-0.27  OA
ATOM     41 H    ARG D   2      20.802 -14.708  15.994  1.00 15.89 LIG 0.16  HD
BRANCH 39 42
ATOM     42  CA  ALA D   1      19.540 -13.930  18.072  1.00 17.08 LIG 0.27  C 
ATOM     43  CB  ALA D   1      18.598 -14.246  19.255  1.00 17.48 LIG 0.05  C 
BRANCH 42 44
ATOM     44  N   ALA D   1      19.676 -12.454  17.897  1.00 17.36 LIG-0.07  N 
ATOM     45 H3   ALA D   1      20.503 -12.205  18.112  1.00 17.36 LIG 0.28  HD
ATOM     46 H2   ALA D   1      19.094 -12.037  18.426  1.00 17.36 LIG 0.28  HD
ATOM     47 H1   ALA D   1      19.513 -12.238  17.049  1.00 17.36 LIG 0.28  HD
ENDBRANCH 42 44
ENDBRANCH 39 42
ENDBRANCH 37 38
BRANCH 37 48
ATOM     48  CB  ARG D   2      20.823 -15.355  13.653  1.00 15.08 LIG 0.04  C 
BRANCH 48 49
ATOM     49  CG  ARG D   2      21.999 -16.319  13.569  1.00 14.63 LIG 0.02  C 
BRANCH 49 50
ATOM     50  CD  ARG D   2      21.843 -17.259  12.367  1.00 13.91 LIG 0.14  C 
BRANCH 50 51
ATOM     51  NE  ARG D   2      22.681 -18.452  12.485  1.00 10.79 LIG-0.23  N 
ATOM     52 HE   ARG D   2      23.492 -18.348  12.752  1.00 10.79 LIG 0.18  HD
ATOM     53  CZ  ARG D   2      22.272 -19.690  12.205  1.00 10.30 LIG 0.67  C 
ATOM     54  NH2 ARG D   2      21.023 -19.915  11.798  1.00  9.50 LIG-0.23  N 
ATOM     55  NH1 ARG D   2      23.116 -20.704  12.329  1.00  9.44 LIG-0.23  N 
ATOM     56 2HH2 ARG D   2      20.767 -20.715  11.619  1.00  9.50 LIG 0.17  HD
ATOM     57 1HH2 ARG D   2      20.473 -19.258  11.714  1.00  9.50 LIG 0.17  HD
ATOM     58 1HH1 ARG D   2      23.923 -20.562  12.590  1.00  9.44 LIG 0.17  HD
ATOM     59 2HH1 ARG D   2      22.856 -21.504  12.150  1.00  9.44 LIG 0.17  HD
ENDBRANCH 50 51
ENDBRANCH 49 50
ENDBRANCH 48 49
ENDBRANCH 37 48
ENDBRANCH 34 37
ENDBRANCH 1 33
TORSDOF 24
ENDMDL
MODEL 8
USER: ADFR SOLUTION from run 74
USER: SCORE 20.286093 LL:  -4.269 LR: -16.620 RR:   0.000 FEB:  -9.461
USER: RMSD 8.959807
USER: SEED 73
USER: STATUS searching
USER: GENES 26
USER: genes 0 Translation |==|  0.54502 0.38497 0.49791
USER: genes 1 Rotation |==|  0.65663 0.97068 0.54299 0.54557
USER: genes 2 Torsion [N]-CA--C-[N] |==|  0.94956
USER: genes 3 Torsion [C]-N--CA-[C] |==|  0.57827
USER: genes 4 Torsion [N]-CA--C-[N] |==|  0.17985
USER: genes 5 Torsion [C]-N--CA-[C] |==|  0.64891
USER: genes 6 Torsion [N]-CA--C-[O] |==|  0.38656
USER: genes 7 Torsion [N]-CA--CB-[CG] |==|  0.67591
USER: genes 8 Torsion [CA]-CB--CG-[CD] |==|  0.02448
USER: genes 9 Torsion [CB]-CG--CD-[OE1] |==|  0.70708
USER: genes 10 Torsion [N]-CA--CB-[CG] |==|  0.58607
USER: genes 11 Torsion [CA]-CB--CG-[CD] |==|  0.34109
USER: genes 12 Torsion [CB]-CG--CD-[CE] |==|  0.22630
USER: genes 13 Torsion [CG]-CD--CE-[NZ] |==|  0.09548
USER: genes 14 Torsion [CD]-CE--NZ-[HZ3] |==|  0.08600
USER: genes 15 Torsion [C]-CA--CB-[CG2] |==|  0.27950
USER: genes 16 Torsion [CA]-CB--OG1-[HG1] |==|  0.53103
USER: genes 17 Torsion [C]-CA--N-[C] |==|  0.82076
USER: genes 18 Torsion [N]-C--CA-[N] |==|  0.90960
USER: genes 19 Torsion [C]-CA--N-[C] |==|  0.83515
USER: genes 20 Torsion [N]-C--CA-[N] |==|  0.37847
USER: genes 21 Torsion [C]-CA--N-[H1] |==|  0.65415
USER: genes 22 Torsion [C]-CA--CB-[CG] |==|  0.06830
USER: genes 23 Torsion [CA]-CB--CG-[CD] |==|  0.33470
USER: genes 24 Torsion [CB]-CG--CD-[NE] |==|  0.64889
USER: genes 25 Torsion [CG]-CD--NE-[HE] |==|  0.75971
ROOT
ATOM      1  CA  THR D   3      20.211 -18.908  16.089  1.00 16.13 LIG 0.20  C 
ENDROOT
BRANCH 1 2
ATOM      2  C   THR D   3      20.071 -19.190  17.593  1.00 16.95 LIG 0.24  C 
ATOM      3 O    THR D   3      20.228 -20.335  18.027  1.00 16.12 LIG-0.27  OA
ATOM      4  N   LYS D   4      19.777 -18.140  18.366  1.00 18.15 LIG-0.35  N 
ATOM      5 H    LYS D   4      19.711 -17.341  18.057  1.00 18.15 LIG 0.16  HD
BRANCH 4 6
ATOM      6  CA  LYS D   4      19.535 -18.224  19.815  1.00 19.65 LIG 0.18  C 
BRANCH 6 7
ATOM      7  C   LYS D   4      18.602 -17.110  20.240  1.00 20.62 LIG 0.24  C 
ATOM      8 O    LYS D   4      18.994 -16.232  21.015  1.00 20.86 LIG-0.27  OA
ATOM      9  N   GLN D   5      17.366 -17.148  19.749  1.00 21.55 LIG-0.35  N 
ATOM     10 H    GLN D   5      17.078 -17.760  19.218  1.00 21.55 LIG 0.16  HD
BRANCH 9 11
ATOM     11  CA  GLN D   5      16.375 -16.119  20.089  1.00 22.83 LIG 0.16  C 
BRANCH 11 12
ATOM     12  C   GLN D   5      15.082 -16.720  20.636  1.00 22.91 LIG 0.22  C 
ATOM     13 O    GLN D   5      14.492 -16.204  21.587  1.00 23.29 LIG-0.29  OA
ENDBRANCH 11 12
BRANCH 11 14
ATOM     14  CB  GLN D   5      16.080 -15.220  18.886  1.00 22.86 LIG 0.04  C 
BRANCH 14 15
ATOM     15  CG  GLN D   5      16.464 -13.763  19.076  1.00 24.40 LIG 0.10  C 
BRANCH 15 16
ATOM     16  CD  GLN D   5      17.262 -13.517  20.343  1.00 24.21 LIG 0.21  C 
ATOM     17  NE2 GLN D   5      18.538 -13.907  20.324  1.00 25.13 LIG-0.37  N 
ATOM     18 22HE GLN D   5      19.034 -13.786  21.016  1.00 25.13 LIG 0.16  HD
ATOM     19 21HE GLN D   5      18.863 -14.279  19.621  1.00 25.13 LIG 0.16  HD
ATOM     20 OE1  GLN D   5      16.743 -12.977  21.327  1.00 25.71 LIG-0.27  OA
ENDBRANCH 15 16
ENDBRANCH 14 15
ENDBRANCH 11 14
ENDBRANCH 9 11
ENDBRANCH 6 7
BRANCH 6 21
ATOM     21  CB  LYS D   4      20.838 -18.049  20.601  1.00 19.73 LIG 0.04  C 
BRANCH 21 22
ATOM     22  CG  LYS D   4      20.920 -18.784  21.911  1.00 20.49 LIG 0.00  C 
BRANCH 22 23
ATOM     23  CD  LYS D   4      22.130 -19.705  21.904  1.00 20.73 LIG 0.03  C 
BRANCH 23 24
ATOM     24  CE  LYS D   4      23.387 -18.938  22.235  1.00 20.46 LIG 0.23  C 
BRANCH 24 25
ATOM     25  NZ  LYS D   4      23.117 -17.855  23.210  1.00 20.02 LIG-0.08  N 
ATOM     26 HZ3  LYS D   4      22.449 -18.098  23.746  1.00 20.02 LIG 0.27  HD
ATOM     27 HZ1  LYS D   4      23.847 -17.704  23.696  1.00 20.02 LIG 0.27  HD
ATOM     28 HZ2  LYS D   4      22.892 -17.112  22.774  1.00 20.02 LIG 0.27  HD
ENDBRANCH 24 25
ENDBRANCH 23 24
ENDBRANCH 22 23
ENDBRANCH 21 22
ENDBRANCH 6 21
ENDBRANCH 4 6
ENDBRANCH 1 2
BRANCH 1 29
ATOM     29  CB  THR D   3      21.693 -18.992  15.674  1.00 15.86 LIG 0.15  C 
ATOM     30  CG2 THR D   3      21.992 -20.333  15.011  1.00 16.15 LIG 0.04  C 
BRANCH 29 31
ATOM     31 OG1  THR D   3      21.993 -17.938  14.751  1.00 16.19 LIG-0.39  OA
ATOM     32 HG1  THR D   3      22.749 -18.072  14.409  1.00 16.19 LIG 0.21  HD
ENDBRANCH 29 31
ENDBRANCH 1 29
BRANCH 1 33
ATOM     33  N   THR D   3      19.603 -17.642  15.654  1.00 15.75 LIG-0.34  N 
ATOM     34  C   ARG D   2      18.289 -17.425  15.729  1.00 15.31 LIG 0.24  C 
ATOM     35 O    ARG D   2      17.503 -18.234  16.217  1.00 15.17 LIG-0.27  OA
ATOM     36 H    THR D   3      20.166 -17.065  15.352  1.00 15.75 LIG 0.16  HD
BRANCH 34 37
ATOM     37  CA  ARG D   2      17.780 -16.101  15.156  1.00 15.15 LIG 0.18  C 
BRANCH 37 38
ATOM     38  N   ARG D   2      18.751 -15.013  15.311  1.00 15.89 LIG-0.35  N 
ATOM     39  C   ALA D   1      19.228 -14.589  16.483  1.00 16.91 LIG 0.25  C 
ATOM     40 O    ALA D   1      18.806 -14.986  17.577  1.00 17.32 LIG-0.27  OA
ATOM     41 H    ARG D   2      18.991 -14.666  14.561  1.00 15.89 LIG 0.16  HD
BRANCH 39 42
ATOM     42  CA  ALA D   1      20.343 -13.545  16.414  1.00 17.08 LIG 0.27  C 
ATOM     43  CB  ALA D   1      21.724 -14.201  16.639  1.00 17.48 LIG 0.05  C 
BRANCH 42 44
ATOM     44  N   ALA D   1      20.119 -12.454  17.407  1.00 17.36 LIG-0.07  N 
ATOM     45 H3   ALA D   1      20.773 -12.463  18.011  1.00 17.36 LIG 0.28  HD
ATOM     46 H2   ALA D   1      19.337 -12.579  17.814  1.00 17.36 LIG 0.28  HD
ATOM     47 H1   ALA D   1      20.112 -11.668  16.989  1.00 17.36 LIG 0.28  HD
ENDBRANCH 42 44
ENDBRANCH 39 42
ENDBRANCH 37 38
BRANCH 37 48
ATOM     48  CB  ARG D   2      17.472 -16.272  13.662  1.00 15.08 LIG 0.04  C 
BRANCH 48 49
ATOM     49  CG  ARG D   2      17.152 -17.678  13.174  1.00 14.63 LIG 0.02  C 
BRANCH 49 50
ATOM     50  CD  ARG D   2      15.752 -17.728  12.548  1.00 13.91 LIG 0.14  C 
BRANCH 50 51
ATOM     51  NE  ARG D   2      14.916 -18.769  13.144  1.00 10.79 LIG-0.23  N 
ATOM     52 HE   ARG D   2      14.970 -19.564  12.818  1.00 10.79 LIG 0.18  HD
ATOM     53  CZ  ARG D   2      14.074 -18.570  14.159  1.00 10.30 LIG 0.67  C 
ATOM     54  NH2 ARG D   2      13.957 -17.363  14.714  1.00  9.50 LIG-0.23  N 
ATOM     55  NH1 ARG D   2      13.347 -19.579  14.618  1.00  9.44 LIG-0.23  N 
ATOM     56 2HH2 ARG D   2      13.412 -17.243  15.368  1.00  9.50 LIG 0.17  HD
ATOM     57 1HH2 ARG D   2      14.426 -16.706  14.417  1.00  9.50 LIG 0.17  HD
ATOM     58 1HH1 ARG D   2      13.420 -20.358  14.261  1.00  9.44 LIG 0.17  HD
ATOM     59 2HH1 ARG D   2      12.804 -19.454  15.272  1.00  9.44 LIG 0.17  HD
ENDBRANCH 50 51
ENDBRANCH 49 50
ENDBRANCH 48 49
ENDBRANCH 37 48
ENDBRANCH 34 37
ENDBRANCH 1 33
TORSDOF 24
ENDMDL
MODEL 9
USER: ADFR SOLUTION from run 177
USER: SCORE 19.431577 LL:  -2.972 LR: -16.620 RR:   0.000 FEB:  -9.461
USER: RMSD 6.639375
USER: SEED 176
USER: STATUS no improvement in best in 4 clusters for 5 generations
USER: GENES 26
USER: genes 0 Translation |==|  0.49307 0.39368 0.67578
USER: genes 1 Rotation |==|  0.59149 0.82441 0.52619 0.86838
USER: genes 2 Torsion [N]-CA--C-[N] |==|  0.90505
USER: genes 3 Torsion [C]-N--CA-[C] |==|  0.79146
USER: genes 4 Torsion [N]-CA--C-[N] |==|  0.88993
USER: genes 5 Torsion [C]-N--CA-[C] |==|  0.50532
USER: genes 6 Torsion [N]-CA--C-[O] |==|  0.16535
USER: genes 7 Torsion [N]-CA--CB-[CG] |==|  0.62498
USER: genes 8 Torsion [CA]-CB--CG-[CD] |==|  0.30534
USER: genes 9 Torsion [CB]-CG--CD-[OE1] |==|  0.64611
USER: genes 10 Torsion [N]-CA--CB-[CG] |==|  0.08594
USER: genes 11 Torsion [CA]-CB--CG-[CD] |==|  0.70846
USER: genes 12 Torsion [CB]-CG--CD-[CE] |==|  0.61729
USER: genes 13 Torsion [CG]-CD--CE-[NZ] |==|  0.77710
USER: genes 14 Torsion [CD]-CE--NZ-[HZ3] |==|  0.31983
USER: genes 15 Torsion [C]-CA--CB-[CG2] |==|  0.33791
USER: genes 16 Torsion [CA]-CB--OG1-[HG1] |==|  0.46342
USER: genes 17 Torsion [C]-CA--N-[C] |==|  0.83166
USER: genes 18 Torsion [N]-C--CA-[N] |==|  0.39125
USER: genes 19 Torsion [C]-CA--N-[C] |==|  0.85000
USER: genes 20 Torsion [N]-C--CA-[N] |==|  0.45713
USER: genes 21 Torsion [C]-CA--N-[H1] |==|  0.85417
USER: genes 22 Torsion [C]-CA--CB-[CG] |==|  0.60219
USER: genes 23 Torsion [CA]-CB--CG-[CD] |==|  0.77831
USER: genes 24 Torsion [CB]-CG--CD-[NE] |==|  0.95146
USER: genes 25 Torsion [CG]-CD--NE-[HE] |==|  0.25290
ROOT
ATOM      1  CA  THR D   3      19.237 -18.732  20.091  1.00 16.13 LIG 0.20  C 
ENDROOT
BRANCH 1 2
ATOM      2  C   THR D   3      17.725 -18.475  20.184  1.00 16.95 LIG 0.24  C 
ATOM      3 O    THR D   3      16.952 -19.407  20.428  1.00 16.12 LIG-0.27  OA
ATOM      4  N   LYS D   4      17.325 -17.215  19.988  1.00 18.15 LIG-0.35  N 
ATOM      5 H    LYS D   4      17.877 -16.569  19.859  1.00 18.15 LIG 0.16  HD
BRANCH 4 6
ATOM      6  CA  LYS D   4      15.917 -16.789  19.968  1.00 19.65 LIG 0.18  C 
BRANCH 6 7
ATOM      7  C   LYS D   4      15.276 -17.215  18.664  1.00 20.62 LIG 0.24  C 
ATOM      8 O    LYS D   4      14.123 -17.658  18.655  1.00 20.86 LIG-0.27  OA
ATOM      9  N   GLN D   5      16.019 -17.098  17.568  1.00 21.55 LIG-0.35  N 
ATOM     10 H    GLN D   5      16.826 -16.801  17.562  1.00 21.55 LIG 0.16  HD
BRANCH 9 11
ATOM     11  CA  GLN D   5      15.501 -17.477  16.247  1.00 22.83 LIG 0.16  C 
BRANCH 11 12
ATOM     12  C   GLN D   5      16.544 -17.302  15.144  1.00 22.91 LIG 0.22  C 
ATOM     13 O    GLN D   5      17.616 -17.907  15.180  1.00 23.29 LIG-0.29  OA
ENDBRANCH 11 12
BRANCH 11 14
ATOM     14  CB  GLN D   5      14.229 -16.696  15.909  1.00 22.86 LIG 0.04  C 
BRANCH 14 15
ATOM     15  CG  GLN D   5      13.107 -17.537  15.325  1.00 24.40 LIG 0.10  C 
BRANCH 15 16
ATOM     16  CD  GLN D   5      11.933 -17.706  16.271  1.00 24.21 LIG 0.21  C 
ATOM     17  NE2 GLN D   5      11.413 -16.585  16.774  1.00 25.13 LIG-0.37  N 
ATOM     18 22HE GLN D   5      10.743 -16.627  17.312  1.00 25.13 LIG 0.16  HD
ATOM     19 21HE GLN D   5      11.747 -15.822  16.561  1.00 25.13 LIG 0.16  HD
ATOM     20 OE1  GLN D   5      11.492 -18.829  16.543  1.00 25.71 LIG-0.27  OA
ENDBRANCH 15 16
ENDBRANCH 14 15
ENDBRANCH 11 14
ENDBRANCH 9 11
ENDBRANCH 6 7
BRANCH 6 21
ATOM     21  CB  LYS D   4      15.804 -15.264  20.053  1.00 19.73 LIG 0.04  C 
BRANCH 21 22
ATOM     22  CG  LYS D   4      16.933 -14.485  19.437  1.00 20.49 LIG 0.00  C 
BRANCH 22 23
ATOM     23  CD  LYS D   4      17.822 -13.922  20.535  1.00 20.73 LIG 0.03  C 
BRANCH 23 24
ATOM     24  CE  LYS D   4      18.221 -12.500  20.223  1.00 20.46 LIG 0.23  C 
BRANCH 24 25
ATOM     25  NZ  LYS D   4      19.341 -12.455  19.254  1.00 20.02 LIG-0.08  N 
ATOM     26 HZ3  LYS D   4      19.065 -12.076  18.498  1.00 20.02 LIG 0.27  HD
ATOM     27 HZ1  LYS D   4      20.011 -11.979  19.596  1.00 20.02 LIG 0.27  HD
ATOM     28 HZ2  LYS D   4      19.621 -13.283  19.085  1.00 20.02 LIG 0.27  HD
ENDBRANCH 24 25
ENDBRANCH 23 24
ENDBRANCH 22 23
ENDBRANCH 21 22
ENDBRANCH 6 21
ENDBRANCH 4 6
ENDBRANCH 1 2
BRANCH 1 29
ATOM     29  CB  THR D   3      19.879 -18.602  21.486  1.00 15.86 LIG 0.15  C 
ATOM     30  CG2 THR D   3      20.585 -19.898  21.876  1.00 16.15 LIG 0.04  C 
BRANCH 29 31
ATOM     31 OG1  THR D   3      20.835 -17.535  21.478  1.00 16.19 LIG-0.39  OA
ATOM     32 HG1  THR D   3      21.050 -17.345  22.267  1.00 16.19 LIG 0.21  HD
ENDBRANCH 29 31
ENDBRANCH 1 29
BRANCH 1 33
ATOM     33  N   THR D   3      19.931 -17.893  19.101  1.00 15.75 LIG-0.34  N 
ATOM     34  C   ARG D   2      19.625 -17.930  17.804  1.00 15.31 LIG 0.24  C 
ATOM     35 O    ARG D   2      18.711 -18.616  17.349  1.00 15.17 LIG-0.27  OA
ATOM     36 H    THR D   3      20.541 -17.386  19.434  1.00 15.75 LIG 0.16  HD
BRANCH 34 37
ATOM     37  CA  ARG D   2      20.486 -17.076  16.873  1.00 15.15 LIG 0.18  C 
BRANCH 37 38
ATOM     38  N   ARG D   2      20.772 -17.747  15.601  1.00 15.89 LIG-0.35  N 
ATOM     39  C   ALA D   1      21.312 -18.963  15.495  1.00 16.91 LIG 0.25  C 
ATOM     40 O    ALA D   1      21.747 -19.605  16.460  1.00 17.32 LIG-0.27  OA
ATOM     41 H    ARG D   2      20.555 -17.276  14.914  1.00 15.89 LIG 0.16  HD
BRANCH 39 42
ATOM     42  CA  ALA D   1      21.388 -19.541  14.080  1.00 17.08 LIG 0.27  C 
ATOM     43  CB  ALA D   1      19.986 -19.954  13.581  1.00 17.48 LIG 0.05  C 
BRANCH 42 44
ATOM     44  N   ALA D   1      22.322 -20.704  14.027  1.00 17.36 LIG-0.07  N 
ATOM     45 H3   ALA D   1      22.435 -20.955  13.180  1.00 17.36 LIG 0.28  HD
ATOM     46 H2   ALA D   1      21.981 -21.380  14.494  1.00 17.36 LIG 0.28  HD
ATOM     47 H1   ALA D   1      23.108 -20.471  14.374  1.00 17.36 LIG 0.28  HD
ENDBRANCH 42 44
ENDBRANCH 39 42
ENDBRANCH 37 38
BRANCH 37 48
ATOM     48  CB  ARG D   2      19.766 -15.753  16.575  1.00 15.08 LIG 0.04  C 
BRANCH 48 49
ATOM     49  CG  ARG D   2      19.911 -15.183  15.171  1.00 14.63 LIG 0.02  C 
BRANCH 49 50
ATOM     50  CD  ARG D   2      21.256 -14.461  15.016  1.00 13.91 LIG 0.14  C 
BRANCH 50 51
ATOM     51  NE  ARG D   2      21.865 -14.142  16.308  1.00 10.79 LIG-0.23  N 
ATOM     52 HE   ARG D   2      22.402 -14.718  16.653  1.00 10.79 LIG 0.18  HD
ATOM     53  CZ  ARG D   2      21.642 -13.016  16.987  1.00 10.30 LIG 0.67  C 
ATOM     54  NH2 ARG D   2      20.830 -12.079  16.497  1.00  9.50 LIG-0.23  N 
ATOM     55  NH1 ARG D   2      22.231 -12.829  18.159  1.00  9.44 LIG-0.23  N 
ATOM     56 2HH2 ARG D   2      20.691 -11.357  16.941  1.00  9.50 LIG 0.17  HD
ATOM     57 1HH2 ARG D   2      20.444 -12.199  15.738  1.00  9.50 LIG 0.17  HD
ATOM     58 1HH1 ARG D   2      22.755 -13.432  18.478  1.00  9.44 LIG 0.17  HD
ATOM     59 2HH1 ARG D   2      22.090 -12.104  18.600  1.00  9.44 LIG 0.17  HD
ENDBRANCH 50 51
ENDBRANCH 49 50
ENDBRANCH 48 49
ENDBRANCH 37 48
ENDBRANCH 34 37
ENDBRANCH 1 33
TORSDOF 24
ENDMDL
MODEL 10
USER: ADFR SOLUTION from run 124
USER: SCORE 19.783658 LL:  -3.557 LR: -16.492 RR:   0.000 FEB:  -9.333
USER: RMSD 8.807921
USER: SEED 123
USER: STATUS no improvement in best in 4 clusters for 5 generations
USER: GENES 26
USER: genes 0 Translation |==|  0.55870 0.39815 0.51188
USER: genes 1 Rotation |==|  0.68090 0.96112 0.46578 0.55895
USER: genes 2 Torsion [N]-CA--C-[N] |==|  0.42164
USER: genes 3 Torsion [C]-N--CA-[C] |==|  0.14482
USER: genes 4 Torsion [N]-CA--C-[N] |==|  0.08333
USER: genes 5 Torsion [C]-N--CA-[C] |==|  0.52261
USER: genes 6 Torsion [N]-CA--C-[O] |==|  0.97946
USER: genes 7 Torsion [N]-CA--CB-[CG] |==|  0.43141
USER: genes 8 Torsion [CA]-CB--CG-[CD] |==|  0.49115
USER: genes 9 Torsion [CB]-CG--CD-[OE1] |==|  0.53472
USER: genes 10 Torsion [N]-CA--CB-[CG] |==|  0.56966
USER: genes 11 Torsion [CA]-CB--CG-[CD] |==|  0.39178
USER: genes 12 Torsion [CB]-CG--CD-[CE] |==|  0.34271
USER: genes 13 Torsion [CG]-CD--CE-[NZ] |==|  0.90878
USER: genes 14 Torsion [CD]-CE--NZ-[HZ3] |==|  0.52677
USER: genes 15 Torsion [C]-CA--CB-[CG2] |==|  0.34893
USER: genes 16 Torsion [CA]-CB--OG1-[HG1] |==|  0.48461
USER: genes 17 Torsion [C]-CA--N-[C] |==|  0.78942
USER: genes 18 Torsion [N]-C--CA-[N] |==|  0.88637
USER: genes 19 Torsion [C]-CA--N-[C] |==|  0.83330
USER: genes 20 Torsion [N]-C--CA-[N] |==|  0.41763
USER: genes 21 Torsion [C]-CA--N-[H1] |==|  0.61570
USER: genes 22 Torsion [C]-CA--CB-[CG] |==|  0.98611
USER: genes 23 Torsion [CA]-CB--CG-[CD] |==|  0.65754
USER: genes 24 Torsion [CB]-CG--CD-[NE] |==|  0.44348
USER: genes 25 Torsion [CG]-CD--NE-[HE] |==|  0.17155
ROOT
ATOM      1  CA  THR D   3      20.468 -18.641  16.403  1.00 16.13 LIG 0.20  C 
ENDROOT
BRANCH 1 2
ATOM      2  C   THR D   3      20.399 -18.455  17.927  1.00 16.95 LIG 0.24  C 
ATOM      3 O    THR D   3      20.491 -17.325  18.418  1.00 16.12 LIG-0.27  OA
ATOM      4  N   LYS D   4      20.240 -19.566  18.652  1.00 18.15 LIG-0.35  N 
ATOM      5 H    LYS D   4      20.137 -20.341  18.296  1.00 18.15 LIG 0.16  HD
BRANCH 4 6
ATOM      6  CA  LYS D   4      20.223 -19.596  20.123  1.00 19.65 LIG 0.18  C 
BRANCH 6 7
ATOM      7  C   LYS D   4      19.221 -18.586  20.641  1.00 20.62 LIG 0.24  C 
ATOM      8 O    LYS D   4      19.392 -18.049  21.740  1.00 20.86 LIG-0.27  OA
ATOM      9  N   GLN D   5      18.171 -18.337  19.864  1.00 21.55 LIG-0.35  N 
ATOM     10 H    GLN D   5      18.035 -18.712  19.102  1.00 21.55 LIG 0.16  HD
BRANCH 9 11
ATOM     11  CA  GLN D   5      17.136 -17.373  20.261  1.00 22.83 LIG 0.16  C 
BRANCH 11 12
ATOM     12  C   GLN D   5      15.934 -17.394  19.318  1.00 22.91 LIG 0.22  C 
ATOM     13 O    GLN D   5      15.952 -18.054  18.278  1.00 23.29 LIG-0.29  OA
ENDBRANCH 11 12
BRANCH 11 14
ATOM     14  CB  GLN D   5      17.711 -15.958  20.363  1.00 22.86 LIG 0.04  C 
BRANCH 14 15
ATOM     15  CG  GLN D   5      16.692 -14.848  20.182  1.00 24.40 LIG 0.10  C 
BRANCH 15 16
ATOM     16  CD  GLN D   5      17.280 -13.461  20.366  1.00 24.21 LIG 0.21  C 
ATOM     17  NE2 GLN D   5      18.612 -13.382  20.390  1.00 25.13 LIG-0.37  N 
ATOM     18 22HE GLN D   5      18.995 -12.619  20.487  1.00 25.13 LIG 0.16  HD
ATOM     19 21HE GLN D   5      19.086 -14.095  20.307  1.00 25.13 LIG 0.16  HD
ATOM     20 OE1  GLN D   5      16.550 -12.469  20.479  1.00 25.71 LIG-0.27  OA
ENDBRANCH 15 16
ENDBRANCH 14 15
ENDBRANCH 11 14
ENDBRANCH 9 11
ENDBRANCH 6 7
BRANCH 6 21
ATOM     21  CB  LYS D   4      21.591 -19.214  20.697  1.00 19.73 LIG 0.04  C 
BRANCH 21 22
ATOM     22  CG  LYS D   4      21.901 -19.746  22.069  1.00 20.49 LIG 0.00  C 
BRANCH 22 23
ATOM     23  CD  LYS D   4      23.361 -20.164  22.136  1.00 20.73 LIG 0.03  C 
BRANCH 23 24
ATOM     24  CE  LYS D   4      24.073 -19.441  23.253  1.00 20.46 LIG 0.23  C 
BRANCH 24 25
ATOM     25  NZ  LYS D   4      23.523 -18.079  23.450  1.00 20.02 LIG-0.08  N 
ATOM     26 HZ3  LYS D   4      24.045 -17.627  24.011  1.00 20.02 LIG 0.27  HD
ATOM     27 HZ1  LYS D   4      23.492 -17.655  22.668  1.00 20.02 LIG 0.27  HD
ATOM     28 HZ2  LYS D   4      22.703 -18.136  23.790  1.00 20.02 LIG 0.27  HD
ENDBRANCH 24 25
ENDBRANCH 23 24
ENDBRANCH 22 23
ENDBRANCH 21 22
ENDBRANCH 6 21
ENDBRANCH 4 6
ENDBRANCH 1 2
BRANCH 1 29
ATOM     29  CB  THR D   3      21.894 -19.050  15.987  1.00 15.86 LIG 0.15  C 
ATOM     30  CG2 THR D   3      21.868 -20.339  15.170  1.00 16.15 LIG 0.04  C 
BRANCH 29 31
ATOM     31 OG1  THR D   3      22.480 -18.009  15.196  1.00 16.19 LIG-0.39  OA
ATOM     32 HG1  THR D   3      23.282 -18.198  15.033  1.00 16.19 LIG 0.21  HD
ENDBRANCH 29 31
ENDBRANCH 1 29
BRANCH 1 33
ATOM     33  N   THR D   3      19.996 -17.481  15.633  1.00 15.75 LIG-0.34  N 
ATOM     34  C   ARG D   2      18.699 -17.197  15.503  1.00 15.31 LIG 0.24  C 
ATOM     35 O    ARG D   2      17.812 -17.842  16.059  1.00 15.17 LIG-0.27  OA
ATOM     36 H    THR D   3      20.625 -17.011  15.281  1.00 15.75 LIG 0.16  HD
BRANCH 34 37
ATOM     37  CA  ARG D   2      18.343 -16.016  14.598  1.00 15.15 LIG 0.18  C 
BRANCH 37 38
ATOM     38  N   ARG D   2      19.258 -14.883  14.771  1.00 15.89 LIG-0.35  N 
ATOM     39  C   ALA D   1      19.442 -14.232  15.921  1.00 16.91 LIG 0.25  C 
ATOM     40 O    ALA D   1      18.767 -14.435  16.938  1.00 17.32 LIG-0.27  OA
ATOM     41 H    ARG D   2      19.674 -14.671  14.048  1.00 15.89 LIG 0.16  HD
BRANCH 39 42
ATOM     42  CA  ALA D   1      20.551 -13.177  15.923  1.00 17.08 LIG 0.27  C 
ATOM     43  CB  ALA D   1      21.917 -13.818  16.258  1.00 17.48 LIG 0.05  C 
BRANCH 42 44
ATOM     44  N   ALA D   1      20.243 -12.079  16.886  1.00 17.36 LIG-0.07  N 
ATOM     45 H3   ALA D   1      20.718 -12.195  17.630  1.00 17.36 LIG 0.28  HD
ATOM     46 H2   ALA D   1      19.375 -12.090  17.082  1.00 17.36 LIG 0.28  HD
ATOM     47 H1   ALA D   1      20.454 -11.295  16.519  1.00 17.36 LIG 0.28  HD
ENDBRANCH 42 44
ENDBRANCH 39 42
ENDBRANCH 37 38
BRANCH 37 48
ATOM     48  CB  ARG D   2      18.390 -16.461  13.129  1.00 15.08 LIG 0.04  C 
BRANCH 48 49
ATOM     49  CG  ARG D   2      18.872 -17.878  12.847  1.00 14.63 LIG 0.02  C 
BRANCH 49 50
ATOM     50  CD  ARG D   2      20.070 -17.860  11.888  1.00 13.91 LIG 0.14  C 
BRANCH 50 51
ATOM     51  NE  ARG D   2      20.852 -19.094  11.956  1.00 10.79 LIG-0.23  N 
ATOM     52 HE   ARG D   2      20.460 -19.830  11.743  1.00 10.79 LIG 0.18  HD
ATOM     53  CZ  ARG D   2      22.131 -19.155  12.327  1.00 10.30 LIG 0.67  C 
ATOM     54  NH2 ARG D   2      22.795 -18.047  12.656  1.00  9.50 LIG-0.23  N 
ATOM     55  NH1 ARG D   2      22.747 -20.328  12.371  1.00  9.44 LIG-0.23  N 
ATOM     56 2HH2 ARG D   2      23.619 -18.094  12.894  1.00  9.50 LIG 0.17  HD
ATOM     57 1HH2 ARG D   2      22.397 -17.284  12.630  1.00  9.50 LIG 0.17  HD
ATOM     58 1HH1 ARG D   2      22.321 -21.045  12.161  1.00  9.44 LIG 0.17  HD
ATOM     59 2HH1 ARG D   2      23.572 -20.372  12.609  1.00  9.44 LIG 0.17  HD
ENDBRANCH 50 51
ENDBRANCH 49 50
ENDBRANCH 48 49
ENDBRANCH 37 48
ENDBRANCH 34 37
ENDBRANCH 1 33
TORSDOF 24
ENDMDL
MODEL 11
USER: ADFR SOLUTION from run 148
USER: SCORE 18.627634 LL:  -2.814 LR: -16.422 RR:   0.000 FEB:  -9.263
USER: RMSD 7.549210
USER: SEED 147
USER: STATUS no improvement in best in 8 clusters for 5 generations
USER: GENES 26
USER: genes 0 Translation |==|  0.37979 0.57384 0.68292
USER: genes 1 Rotation |==|  0.15588 0.48628 0.72245 0.78619
USER: genes 2 Torsion [N]-CA--C-[N] |==|  0.14475
USER: genes 3 Torsion [C]-N--CA-[C] |==|  0.17044
USER: genes 4 Torsion [N]-CA--C-[N] |==|  0.13281
USER: genes 5 Torsion [C]-N--CA-[C] |==|  0.85438
USER: genes 6 Torsion [N]-CA--C-[O] |==|  0.93550
USER: genes 7 Torsion [N]-CA--CB-[CG] |==|  0.27335
USER: genes 8 Torsion [CA]-CB--CG-[CD] |==|  0.24401
USER: genes 9 Torsion [CB]-CG--CD-[OE1] |==|  0.13385
USER: genes 10 Torsion [N]-CA--CB-[CG] |==|  0.52289
USER: genes 11 Torsion [CA]-CB--CG-[CD] |==|  0.16344
USER: genes 12 Torsion [CB]-CG--CD-[CE] |==|  0.39228
USER: genes 13 Torsion [CG]-CD--CE-[NZ] |==|  0.71908
USER: genes 14 Torsion [CD]-CE--NZ-[HZ3] |==|  0.17854
USER: genes 15 Torsion [C]-CA--CB-[CG2] |==|  0.85739
USER: genes 16 Torsion [CA]-CB--OG1-[HG1] |==|  0.17489
USER: genes 17 Torsion [C]-CA--N-[C] |==|  0.12290
USER: genes 18 Torsion [N]-C--CA-[N] |==|  0.15556
USER: genes 19 Torsion [C]-CA--N-[C] |==|  0.13908
USER: genes 20 Torsion [N]-C--CA-[N] |==|  0.34469
USER: genes 21 Torsion [C]-CA--N-[H1] |==|  0.05588
USER: genes 22 Torsion [C]-CA--CB-[CG] |==|  0.46301
USER: genes 23 Torsion [CA]-CB--CG-[CD] |==|  0.94777
USER: genes 24 Torsion [CB]-CG--CD-[NE] |==|  0.40242
USER: genes 25 Torsion [CG]-CD--NE-[HE] |==|  0.15737
ROOT
ATOM      1  CA  THR D   3      17.113 -15.084  20.252  1.00 16.13 LIG 0.20  C 
ENDROOT
BRANCH 1 2
ATOM      2  C   THR D   3      17.935 -16.382  20.290  1.00 16.95 LIG 0.24  C 
ATOM      3 O    THR D   3      17.371 -17.467  20.462  1.00 16.12 LIG-0.27  OA
ATOM      4  N   LYS D   4      19.255 -16.251  20.129  1.00 18.15 LIG-0.35  N 
ATOM      5 H    LYS D   4      19.630 -15.494  19.969  1.00 18.15 LIG 0.16  HD
BRANCH 4 6
ATOM      6  CA  LYS D   4      20.211 -17.367  20.205  1.00 19.65 LIG 0.18  C 
BRANCH 6 7
ATOM      7  C   LYS D   4      19.896 -18.380  19.125  1.00 20.62 LIG 0.24  C 
ATOM      8 O    LYS D   4      19.843 -19.584  19.399  1.00 20.86 LIG-0.27  OA
ATOM      9  N   GLN D   5      19.700 -17.903  17.899  1.00 21.55 LIG-0.35  N 
ATOM     10 H    GLN D   5      19.745 -17.069  17.694  1.00 21.55 LIG 0.16  HD
BRANCH 9 11
ATOM     11  CA  GLN D   5      19.385 -18.792  16.774  1.00 22.83 LIG 0.16  C 
BRANCH 11 12
ATOM     12  C   GLN D   5      20.390 -19.935  16.640  1.00 22.91 LIG 0.22  C 
ATOM     13 O    GLN D   5      21.528 -19.839  17.102  1.00 23.29 LIG-0.29  OA
ENDBRANCH 11 12
BRANCH 11 14
ATOM     14  CB  GLN D   5      19.291 -18.007  15.462  1.00 22.86 LIG 0.04  C 
BRANCH 14 15
ATOM     15  CG  GLN D   5      20.544 -18.055  14.606  1.00 24.40 LIG 0.10  C 
BRANCH 15 16
ATOM     16  CD  GLN D   5      20.577 -19.240  13.660  1.00 24.21 LIG 0.21  C 
ATOM     17  NE2 GLN D   5      21.705 -19.954  13.645  1.00 25.13 LIG-0.37  N 
ATOM     18 22HE GLN D   5      21.772 -20.639  13.130  1.00 25.13 LIG 0.16  HD
ATOM     19 21HE GLN D   5      22.362 -19.730  14.152  1.00 25.13 LIG 0.16  HD
ATOM     20 OE1  GLN D   5      19.601 -19.519  12.954  1.00 25.71 LIG-0.27  OA
ENDBRANCH 15 16
ENDBRANCH 14 15
ENDBRANCH 11 14
ENDBRANCH 9 11
ENDBRANCH 6 7
BRANCH 6 21
ATOM     21  CB  LYS D   4      20.105 -18.090  21.551  1.00 19.73 LIG 0.04  C 
BRANCH 21 22
ATOM     22  CG  LYS D   4      21.160 -19.126  21.826  1.00 20.49 LIG 0.00  C 
BRANCH 22 23
ATOM     23  CD  LYS D   4      22.535 -18.479  21.777  1.00 20.73 LIG 0.03  C 
BRANCH 23 24
ATOM     24  CE  LYS D   4      23.432 -19.047  22.850  1.00 20.46 LIG 0.23  C 
BRANCH 24 25
ATOM     25  NZ  LYS D   4      23.529 -18.130  24.011  1.00 20.02 LIG-0.08  N 
ATOM     26 HZ3  LYS D   4      22.730 -18.051  24.395  1.00 20.02 LIG 0.27  HD
ATOM     27 HZ1  LYS D   4      24.110 -18.458  24.601  1.00 20.02 LIG 0.27  HD
ATOM     28 HZ2  LYS D   4      23.805 -17.330  23.736  1.00 20.02 LIG 0.27  HD
ENDBRANCH 24 25
ENDBRANCH 23 24
ENDBRANCH 22 23
ENDBRANCH 21 22
ENDBRANCH 6 21
ENDBRANCH 4 6
ENDBRANCH 1 2
BRANCH 1 29
ATOM     29  CB  THR D   3      15.614 -15.406  20.404  1.00 15.86 LIG 0.15  C 
ATOM     30  CG2 THR D   3      15.190 -16.479  19.405  1.00 16.15 LIG 0.04  C 
BRANCH 29 31
ATOM     31 OG1  THR D   3      15.356 -15.878  21.732  1.00 16.19 LIG-0.39  OA
ATOM     32 HG1  THR D   3      15.534 -15.271  22.285  1.00 16.19 LIG 0.21  HD
ENDBRANCH 29 31
ENDBRANCH 1 29
BRANCH 1 33
ATOM     33  N   THR D   3      17.365 -14.246  19.069  1.00 15.75 LIG-0.34  N 
ATOM     34  C   ARG D   2      17.447 -14.762  17.842  1.00 15.31 LIG 0.24  C 
ATOM     35 O    ARG D   2      17.263 -15.953  17.600  1.00 15.17 LIG-0.27  OA
ATOM     36 H    THR D   3      17.451 -13.408  19.242  1.00 15.75 LIG 0.16  HD
BRANCH 34 37
ATOM     37  CA  ARG D   2      17.805 -13.792  16.715  1.00 15.15 LIG 0.18  C 
BRANCH 37 38
ATOM     38  N   ARG D   2      19.063 -13.081  16.965  1.00 15.89 LIG-0.35  N 
ATOM     39  C   ALA D   1      20.207 -13.674  17.313  1.00 16.91 LIG 0.25  C 
ATOM     40 O    ALA D   1      20.298 -14.878  17.585  1.00 17.32 LIG-0.27  OA
ATOM     41 H    ARG D   2      18.996 -12.230  16.864  1.00 15.89 LIG 0.16  HD
BRANCH 39 42
ATOM     42  CA  ALA D   1      21.438 -12.767  17.379  1.00 17.08 LIG 0.27  C 
ATOM     43  CB  ALA D   1      22.452 -13.139  16.274  1.00 17.48 LIG 0.05  C 
BRANCH 42 44
ATOM     44  N   ALA D   1      22.084 -12.838  18.722  1.00 17.36 LIG-0.07  N 
ATOM     45 H3   ALA D   1      21.839 -12.134  19.207  1.00 17.36 LIG 0.28  HD
ATOM     46 H2   ALA D   1      22.969 -12.839  18.626  1.00 17.36 LIG 0.28  HD
ATOM     47 H1   ALA D   1      21.831 -13.585  19.135  1.00 17.36 LIG 0.28  HD
ENDBRANCH 42 44
ENDBRANCH 39 42
ENDBRANCH 37 38
BRANCH 37 48
ATOM     48  CB  ARG D   2      17.935 -14.564  15.393  1.00 15.08 LIG 0.04  C 
BRANCH 48 49
ATOM     49  CG  ARG D   2      17.978 -13.745  14.111  1.00 14.63 LIG 0.02  C 
BRANCH 49 50
ATOM     50  CD  ARG D   2      17.423 -12.335  14.350  1.00 13.91 LIG 0.14  C 
BRANCH 50 51
ATOM     51  NE  ARG D   2      18.122 -11.323  13.558  1.00 10.79 LIG-0.23  N 
ATOM     52 HE   ARG D   2      18.143 -11.425  12.704  1.00 10.79 LIG 0.18  HD
ATOM     53  CZ  ARG D   2      18.729 -10.253  14.071  1.00 10.30 LIG 0.67  C 
ATOM     54  NH2 ARG D   2      18.718 -10.033  15.386  1.00  9.50 LIG-0.23  N 
ATOM     55  NH1 ARG D   2      19.349  -9.401  13.267  1.00  9.44 LIG-0.23  N 
ATOM     56 2HH2 ARG D   2      19.112  -9.341  15.709  1.00  9.50 LIG 0.17  HD
ATOM     57 1HH2 ARG D   2      18.318 -10.585  15.911  1.00  9.50 LIG 0.17  HD
ATOM     58 1HH1 ARG D   2      19.359  -9.540  12.419  1.00  9.44 LIG 0.17  HD
ATOM     59 2HH1 ARG D   2      19.742  -8.709  13.594  1.00  9.44 LIG 0.17  HD
ENDBRANCH 50 51
ENDBRANCH 49 50
ENDBRANCH 48 49
ENDBRANCH 37 48
ENDBRANCH 34 37
ENDBRANCH 1 33
TORSDOF 24
ENDMDL
MODEL 12
USER: ADFR SOLUTION from run 187
USER: SCORE 19.258143 LL:  -3.554 LR: -16.380 RR:   0.000 FEB:  -9.221
USER: RMSD 9.021530
USER: SEED 186
USER: STATUS searching
USER: GENES 26
USER: genes 0 Translation |==|  0.53186 0.39379 0.49530
USER: genes 1 Rotation |==|  0.68866 0.95995 0.55243 0.51022
USER: genes 2 Torsion [N]-CA--C-[N] |==|  0.96101
USER: genes 3 Torsion [C]-N--CA-[C] |==|  0.58334
USER: genes 4 Torsion [N]-CA--C-[N] |==|  0.15661
USER: genes 5 Torsion [C]-N--CA-[C] |==|  0.60187
USER: genes 6 Torsion [N]-CA--C-[O] |==|  0.42015
USER: genes 7 Torsion [N]-CA--CB-[CG] |==|  0.64741
USER: genes 8 Torsion [CA]-CB--CG-[CD] |==|  0.39632
USER: genes 9 Torsion [CB]-CG--CD-[OE1] |==|  0.64926
USER: genes 10 Torsion [N]-CA--CB-[CG] |==|  0.58357
USER: genes 11 Torsion [CA]-CB--CG-[CD] |==|  0.37213
USER: genes 12 Torsion [CB]-CG--CD-[CE] |==|  0.31416
USER: genes 13 Torsion [CG]-CD--CE-[NZ] |==|  0.94676
USER: genes 14 Torsion [CD]-CE--NZ-[HZ3] |==|  0.18147
USER: genes 15 Torsion [C]-CA--CB-[CG2] |==|  0.73732
USER: genes 16 Torsion [CA]-CB--OG1-[HG1] |==|  0.35013
USER: genes 17 Torsion [C]-CA--N-[C] |==|  0.82603
USER: genes 18 Torsion [N]-C--CA-[N] |==|  0.89183
USER: genes 19 Torsion [C]-CA--N-[C] |==|  0.85556
USER: genes 20 Torsion [N]-C--CA-[N] |==|  0.42989
USER: genes 21 Torsion [C]-CA--N-[H1] |==|  0.48493
USER: genes 22 Torsion [C]-CA--CB-[CG] |==|  0.44601
USER: genes 23 Torsion [CA]-CB--CG-[CD] |==|  0.20641
USER: genes 24 Torsion [CB]-CG--CD-[NE] |==|  0.66294
USER: genes 25 Torsion [CG]-CD--NE-[HE] |==|  0.85638
ROOT
ATOM      1  CA  THR D   3      19.964 -18.730  16.030  1.00 16.13 LIG 0.20  C 
ENDROOT
BRANCH 1 2
ATOM      2  C   THR D   3      19.975 -19.146  17.509  1.00 16.95 LIG 0.24  C 
ATOM      3 O    THR D   3      20.117 -20.333  17.818  1.00 16.12 LIG-0.27  OA
ATOM      4  N   LYS D   4      19.825 -18.163  18.402  1.00 18.15 LIG-0.35  N 
ATOM      5 H    LYS D   4      19.768 -17.336  18.175  1.00 18.15 LIG 0.16  HD
BRANCH 4 6
ATOM      6  CA  LYS D   4      19.739 -18.373  19.856  1.00 19.65 LIG 0.18  C 
BRANCH 6 7
ATOM      7  C   LYS D   4      18.881 -17.290  20.476  1.00 20.62 LIG 0.24  C 
ATOM      8 O    LYS D   4      19.330 -16.589  21.389  1.00 20.86 LIG-0.27  OA
ATOM      9  N   GLN D   5      17.648 -17.160  19.997  1.00 21.55 LIG-0.35  N 
ATOM     10 H    GLN D   5      17.320 -17.648  19.370  1.00 21.55 LIG 0.16  HD
BRANCH 9 11
ATOM     11  CA  GLN D   5      16.727 -16.142  20.520  1.00 22.83 LIG 0.16  C 
BRANCH 11 12
ATOM     12  C   GLN D   5      15.285 -16.641  20.576  1.00 22.91 LIG 0.22  C 
ATOM     13 O    GLN D   5      14.492 -16.204  21.412  1.00 23.29 LIG-0.29  OA
ENDBRANCH 11 12
BRANCH 11 14
ATOM     14  CB  GLN D   5      16.815 -14.849  19.704  1.00 22.86 LIG 0.04  C 
BRANCH 14 15
ATOM     15  CG  GLN D   5      17.068 -13.598  20.527  1.00 24.40 LIG 0.10  C 
BRANCH 15 16
ATOM     16  CD  GLN D   5      17.986 -12.606  19.838  1.00 24.21 LIG 0.21  C 
ATOM     17  NE2 GLN D   5      17.631 -12.227  18.609  1.00 25.13 LIG-0.37  N 
ATOM     18 22HE GLN D   5      18.115 -11.662  18.177  1.00 25.13 LIG 0.16  HD
ATOM     19 21HE GLN D   5      16.918 -12.546  18.249  1.00 25.13 LIG 0.16  HD
ATOM     20 OE1  GLN D   5      19.000 -12.179  20.403  1.00 25.71 LIG-0.27  OA
ENDBRANCH 15 16
ENDBRANCH 14 15
ENDBRANCH 11 14
ENDBRANCH 9 11
ENDBRANCH 6 7
BRANCH 6 21
ATOM     21  CB  LYS D   4      21.123 -18.285  20.506  1.00 19.73 LIG 0.04  C 
BRANCH 21 22
ATOM     22  CG  LYS D   4      21.323 -19.119  21.742  1.00 20.49 LIG 0.00  C 
BRANCH 22 23
ATOM     23  CD  LYS D   4      22.649 -19.857  21.650  1.00 20.73 LIG 0.03  C 
BRANCH 23 24
ATOM     24  CE  LYS D   4      23.617 -19.347  22.690  1.00 20.46 LIG 0.23  C 
BRANCH 24 25
ATOM     25  NZ  LYS D   4      23.214 -18.012  23.192  1.00 20.02 LIG-0.08  N 
ATOM     26 HZ3  LYS D   4      22.441 -18.079  23.627  1.00 20.02 LIG 0.27  HD
ATOM     27 HZ1  LYS D   4      23.839 -17.701  23.744  1.00 20.02 LIG 0.27  HD
ATOM     28 HZ2  LYS D   4      23.120 -17.453  22.506  1.00 20.02 LIG 0.27  HD
ENDBRANCH 24 25
ENDBRANCH 23 24
ENDBRANCH 22 23
ENDBRANCH 21 22
ENDBRANCH 6 21
ENDBRANCH 4 6
ENDBRANCH 1 2
BRANCH 1 29
ATOM     29  CB  THR D   3      21.363 -18.936  15.416  1.00 15.86 LIG 0.15  C 
ATOM     30  CG2 THR D   3      22.171 -17.642  15.472  1.00 16.15 LIG 0.04  C 
BRANCH 29 31
ATOM     31 OG1  THR D   3      22.062 -19.954  16.143  1.00 16.19 LIG-0.39  OA
ATOM     32 HG1  THR D   3      22.328 -20.546  15.610  1.00 16.19 LIG 0.21  HD
ENDBRANCH 29 31
ENDBRANCH 1 29
BRANCH 1 33
ATOM     33  N   THR D   3      19.469 -17.365  15.792  1.00 15.75 LIG-0.34  N 
ATOM     34  C   ARG D   2      18.223 -17.002  16.095  1.00 15.31 LIG 0.24  C 
ATOM     35 O    ARG D   2      17.419 -17.753  16.644  1.00 15.17 LIG-0.27  OA
ATOM     36 H    THR D   3      20.051 -16.834  15.445  1.00 15.75 LIG 0.16  HD
BRANCH 34 37
ATOM     37  CA  ARG D   2      17.811 -15.580  15.710  1.00 15.15 LIG 0.18  C 
BRANCH 37 38
ATOM     38  N   ARG D   2      18.887 -14.607  15.926  1.00 15.89 LIG-0.35  N 
ATOM     39  C   ALA D   1      19.557 -14.466  17.071  1.00 16.91 LIG 0.25  C 
ATOM     40 O    ALA D   1      19.258 -15.059  18.116  1.00 17.32 LIG-0.27  OA
ATOM     41 H    ARG D   2      19.050 -14.125  15.232  1.00 15.89 LIG 0.16  HD
BRANCH 39 42
ATOM     42  CA  ALA D   1      20.741 -13.498  17.039  1.00 17.08 LIG 0.27  C 
ATOM     43  CB  ALA D   1      21.998 -14.187  16.463  1.00 17.48 LIG 0.05  C 
BRANCH 42 44
ATOM     44  N   ALA D   1      21.024 -12.954  18.399  1.00 17.36 LIG-0.07  N 
ATOM     45 H3   ALA D   1      21.142 -13.627  18.970  1.00 17.36 LIG 0.28  HD
ATOM     46 H2   ALA D   1      20.339 -12.453  18.668  1.00 17.36 LIG 0.28  HD
ATOM     47 H1   ALA D   1      21.762 -12.456  18.373  1.00 17.36 LIG 0.28  HD
ENDBRANCH 42 44
ENDBRANCH 39 42
ENDBRANCH 37 38
BRANCH 37 48
ATOM     48  CB  ARG D   2      17.411 -15.545  14.227  1.00 15.08 LIG 0.04  C 
BRANCH 48 49
ATOM     49  CG  ARG D   2      16.557 -14.372  13.765  1.00 14.63 LIG 0.02  C 
BRANCH 49 50
ATOM     50  CD  ARG D   2      17.400 -13.093  13.671  1.00 13.91 LIG 0.14  C 
BRANCH 50 51
ATOM     51  NE  ARG D   2      16.882 -12.025  14.525  1.00 10.79 LIG-0.23  N 
ATOM     52 HE   ARG D   2      16.049 -11.822  14.455  1.00 10.79 LIG 0.18  HD
ATOM     53  CZ  ARG D   2      17.615 -11.343  15.405  1.00 10.30 LIG 0.67  C 
ATOM     54  NH2 ARG D   2      18.909 -11.621  15.568  1.00  9.50 LIG-0.23  N 
ATOM     55  NH1 ARG D   2      17.054 -10.380  16.122  1.00  9.44 LIG-0.23  N 
ATOM     56 2HH2 ARG D   2      19.375 -11.177  16.138  1.00  9.50 LIG 0.17  HD
ATOM     57 1HH2 ARG D   2      19.277 -12.244  15.103  1.00  9.50 LIG 0.17  HD
ATOM     58 1HH1 ARG D   2      16.220 -10.198  16.019  1.00  9.44 LIG 0.17  HD
ATOM     59 2HH1 ARG D   2      17.523  -9.939  16.692  1.00  9.44 LIG 0.17  HD
ENDBRANCH 50 51
ENDBRANCH 49 50
ENDBRANCH 48 49
ENDBRANCH 37 48
ENDBRANCH 34 37
ENDBRANCH 1 33
TORSDOF 24
ENDMDL
MODEL 13
USER: ADFR SOLUTION from run 111
USER: SCORE 18.491425 LL:  -2.722 LR: -16.284 RR:   0.000 FEB:  -9.125
USER: RMSD 8.924043
USER: SEED 110
USER: STATUS 1 or 2 clusters left
USER: GENES 26
USER: genes 0 Translation |==|  0.55012 0.44940 0.50649
USER: genes 1 Rotation |==|  0.77060 0.90141 0.43276 0.60549
USER: genes 2 Torsion [N]-CA--C-[N] |==|  0.50000
USER: genes 3 Torsion [C]-N--CA-[C] |==|  0.61709
USER: genes 4 Torsion [N]-CA--C-[N] |==|  0.35558
USER: genes 5 Torsion [C]-N--CA-[C] |==|  0.47176
USER: genes 6 Torsion [N]-CA--C-[O] |==|  0.50192
USER: genes 7 Torsion [N]-CA--CB-[CG] |==|  0.54979
USER: genes 8 Torsion [CA]-CB--CG-[CD] |==|  0.69697
USER: genes 9 Torsion [CB]-CG--CD-[OE1] |==|  0.30689
USER: genes 10 Torsion [N]-CA--CB-[CG] |==|  0.79064
USER: genes 11 Torsion [CA]-CB--CG-[CD] |==|  0.85177
USER: genes 12 Torsion [CB]-CG--CD-[CE] |==|  0.38602
USER: genes 13 Torsion [CG]-CD--CE-[NZ] |==|  0.56472
USER: genes 14 Torsion [CD]-CE--NZ-[HZ3] |==|  0.55733
USER: genes 15 Torsion [C]-CA--CB-[CG2] |==|  0.36852
USER: genes 16 Torsion [CA]-CB--OG1-[HG1] |==|  0.65742
USER: genes 17 Torsion [C]-CA--N-[C] |==|  0.59119
USER: genes 18 Torsion [N]-C--CA-[N] |==|  0.95752
USER: genes 19 Torsion [C]-CA--N-[C] |==|  0.80422
USER: genes 20 Torsion [N]-C--CA-[N] |==|  0.44776
USER: genes 21 Torsion [C]-CA--N-[H1] |==|  0.91734
USER: genes 22 Torsion [C]-CA--CB-[CG] |==|  0.12262
USER: genes 23 Torsion [CA]-CB--CG-[CD] |==|  0.57082
USER: genes 24 Torsion [CB]-CG--CD-[NE] |==|  0.30077
USER: genes 25 Torsion [CG]-CD--NE-[HE] |==|  0.69058
ROOT
ATOM      1  CA  THR D   3      20.307 -17.604  16.282  1.00 16.13 LIG 0.20  C 
ENDROOT
BRANCH 1 2
ATOM      2  C   THR D   3      20.115 -17.111  17.725  1.00 16.95 LIG 0.24  C 
ATOM      3 O    THR D   3      20.116 -15.902  17.972  1.00 16.12 LIG-0.27  OA
ATOM      4  N   LYS D   4      19.955 -18.057  18.656  1.00 18.15 LIG-0.35  N 
ATOM      5 H    LYS D   4      19.915 -18.894  18.465  1.00 18.15 LIG 0.16  HD
BRANCH 4 6
ATOM      6  CA  LYS D   4      19.828 -17.784  20.096  1.00 19.65 LIG 0.18  C 
BRANCH 6 7
ATOM      7  C   LYS D   4      20.643 -18.793  20.878  1.00 20.62 LIG 0.24  C 
ATOM      8 O    LYS D   4      20.485 -20.003  20.684  1.00 20.86 LIG-0.27  OA
ATOM      9  N   GLN D   5      21.500 -18.305  21.769  1.00 21.55 LIG-0.35  N 
ATOM     10 H    GLN D   5      21.611 -17.466  21.922  1.00 21.55 LIG 0.16  HD
BRANCH 9 11
ATOM     11  CA  GLN D   5      22.345 -19.189  22.583  1.00 22.83 LIG 0.16  C 
BRANCH 11 12
ATOM     12  C   GLN D   5      23.418 -18.418  23.350  1.00 22.91 LIG 0.22  C 
ATOM     13 O    GLN D   5      24.226 -19.001  24.075  1.00 23.29 LIG-0.29  OA
ENDBRANCH 11 12
BRANCH 11 14
ATOM     14  CB  GLN D   5      22.985 -20.283  21.724  1.00 22.86 LIG 0.04  C 
BRANCH 14 15
ATOM     15  CG  GLN D   5      23.513 -21.472  22.507  1.00 24.40 LIG 0.10  C 
BRANCH 15 16
ATOM     16  CD  GLN D   5      25.028 -21.540  22.540  1.00 24.21 LIG 0.21  C 
ATOM     17  NE2 GLN D   5      25.633 -21.829  21.386  1.00 25.13 LIG-0.37  N 
ATOM     18 22HE GLN D   5      26.490 -21.875  21.350  1.00 25.13 LIG 0.16  HD
ATOM     19 21HE GLN D   5      25.164 -21.969  20.679  1.00 25.13 LIG 0.16  HD
ATOM     20 OE1  GLN D   5      25.653 -21.329  23.587  1.00 25.71 LIG-0.27  OA
ENDBRANCH 15 16
ENDBRANCH 14 15
ENDBRANCH 11 14
ENDBRANCH 9 11
ENDBRANCH 6 7
BRANCH 6 21
ATOM     21  CB  LYS D   4      18.374 -17.920  20.556  1.00 19.73 LIG 0.04  C 
BRANCH 21 22
ATOM     22  CG  LYS D   4      17.456 -16.790  20.177  1.00 20.49 LIG 0.00  C 
BRANCH 22 23
ATOM     23  CD  LYS D   4      18.054 -15.470  20.639  1.00 20.73 LIG 0.03  C 
BRANCH 23 24
ATOM     24  CE  LYS D   4      17.865 -14.402  19.591  1.00 20.46 LIG 0.23  C 
BRANCH 24 25
ATOM     25  NZ  LYS D   4      18.868 -13.321  19.736  1.00 20.02 LIG-0.08  N 
ATOM     26 HZ3  LYS D   4      18.573 -12.585  19.331  1.00 20.02 LIG 0.27  HD
ATOM     27 HZ1  LYS D   4      18.999 -13.150  20.600  1.00 20.02 LIG 0.27  HD
ATOM     28 HZ2  LYS D   4      19.636 -13.576  19.365  1.00 20.02 LIG 0.27  HD
ENDBRANCH 24 25
ENDBRANCH 23 24
ENDBRANCH 22 23
ENDBRANCH 21 22
ENDBRANCH 6 21
ENDBRANCH 4 6
ENDBRANCH 1 2
BRANCH 1 29
ATOM     29  CB  THR D   3      21.469 -18.613  16.220  1.00 15.86 LIG 0.15  C 
ATOM     30  CG2 THR D   3      21.066 -19.851  15.425  1.00 16.15 LIG 0.04  C 
BRANCH 29 31
ATOM     31 OG1  THR D   3      22.602 -18.003  15.589  1.00 16.19 LIG-0.39  OA
ATOM     32 HG1  THR D   3      22.836 -18.463  14.927  1.00 16.19 LIG 0.21  HD
ENDBRANCH 29 31
ENDBRANCH 1 29
BRANCH 1 33
ATOM     33  N   THR D   3      20.479 -16.526  15.296  1.00 15.75 LIG-0.34  N 
ATOM     34  C   ARG D   2      20.035 -16.635  14.043  1.00 15.31 LIG 0.24  C 
ATOM     35 O    ARG D   2      19.404 -17.608  13.638  1.00 15.17 LIG-0.27  OA
ATOM     36 H    THR D   3      20.886 -15.831  15.600  1.00 15.75 LIG 0.16  HD
BRANCH 34 37
ATOM     37  CA  ARG D   2      20.364 -15.479  13.097  1.00 15.15 LIG 0.18  C 
BRANCH 37 38
ATOM     38  N   ARG D   2      20.807 -14.278  13.813  1.00 15.89 LIG-0.35  N 
ATOM     39  C   ALA D   1      20.012 -13.509  14.560  1.00 16.91 LIG 0.25  C 
ATOM     40 O    ALA D   1      18.785 -13.658  14.629  1.00 17.32 LIG-0.27  OA
ATOM     41 H    ARG D   2      21.644 -14.110  13.705  1.00 15.89 LIG 0.16  HD
BRANCH 39 42
ATOM     42  CA  ALA D   1      20.704 -12.391  15.342  1.00 17.08 LIG 0.27  C 
ATOM     43  CB  ALA D   1      21.444 -12.959  16.573  1.00 17.48 LIG 0.05  C 
BRANCH 42 44
ATOM     44  N   ALA D   1      19.725 -11.346  15.761  1.00 17.36 LIG-0.07  N 
ATOM     45 H3   ALA D   1      20.133 -10.555  15.802  1.00 17.36 LIG 0.28  HD
ATOM     46 H2   ALA D   1      19.395 -11.551  16.562  1.00 17.36 LIG 0.28  HD
ATOM     47 H1   ALA D   1      19.061 -11.305  15.169  1.00 17.36 LIG 0.28  HD
ENDBRANCH 42 44
ENDBRANCH 39 42
ENDBRANCH 37 38
BRANCH 37 48
ATOM     48  CB  ARG D   2      21.475 -15.907  12.128  1.00 15.08 LIG 0.04  C 
BRANCH 48 49
ATOM     49  CG  ARG D   2      21.356 -17.289  11.501  1.00 14.63 LIG 0.02  C 
BRANCH 49 50
ATOM     50  CD  ARG D   2      22.739 -17.823  11.103  1.00 13.91 LIG 0.14  C 
BRANCH 50 51
ATOM     51  NE  ARG D   2      23.184 -18.910  11.976  1.00 10.79 LIG-0.23  N 
ATOM     52 HE   ARG D   2      23.847 -18.757  12.502  1.00 10.79 LIG 0.18  HD
ATOM     53  CZ  ARG D   2      22.629 -20.122  12.011  1.00 10.30 LIG 0.67  C 
ATOM     54  NH2 ARG D   2      21.590 -20.414  11.229  1.00  9.50 LIG-0.23  N 
ATOM     55  NH1 ARG D   2      23.118 -21.044  12.828  1.00  9.44 LIG-0.23  N 
ATOM     56 2HH2 ARG D   2      21.238 -21.197  11.257  1.00  9.50 LIG 0.17  HD
ATOM     57 1HH2 ARG D   2      21.271 -19.818  10.697  1.00  9.50 LIG 0.17  HD
ATOM     58 1HH1 ARG D   2      23.789 -20.859  13.332  1.00  9.44 LIG 0.17  HD
ATOM     59 2HH1 ARG D   2      22.763 -21.827  12.854  1.00  9.44 LIG 0.17  HD
ENDBRANCH 50 51
ENDBRANCH 49 50
ENDBRANCH 48 49
ENDBRANCH 37 48
ENDBRANCH 34 37
ENDBRANCH 1 33
TORSDOF 24
ENDMDL
MODEL 14
USER: ADFR SOLUTION from run 115
USER: SCORE 18.998488 LL:  -3.555 LR: -16.163 RR:   0.000 FEB:  -9.003
USER: RMSD 7.337503
USER: SEED 114
USER: STATUS searching
USER: GENES 26
USER: genes 0 Translation |==|  0.38163 0.50469 0.67153
USER: genes 1 Rotation |==|  0.18200 0.48167 0.75703 0.78719
USER: genes 2 Torsion [N]-CA--C-[N] |==|  0.19593
USER: genes 3 Torsion [C]-N--CA-[C] |==|  0.17778
USER: genes 4 Torsion [N]-CA--C-[N] |==|  0.10962
USER: genes 5 Torsion [C]-N--CA-[C] |==|  0.87887
USER: genes 6 Torsion [N]-CA--C-[O] |==|  0.87726
USER: genes 7 Torsion [N]-CA--CB-[CG] |==|  0.09709
USER: genes 8 Torsion [CA]-CB--CG-[CD] |==|  0.32770
USER: genes 9 Torsion [CB]-CG--CD-[OE1] |==|  0.30690
USER: genes 10 Torsion [N]-CA--CB-[CG] |==|  0.69390
USER: genes 11 Torsion [CA]-CB--CG-[CD] |==|  0.85219
USER: genes 12 Torsion [CB]-CG--CD-[CE] |==|  0.44676
USER: genes 13 Torsion [CG]-CD--CE-[NZ] |==|  0.86374
USER: genes 14 Torsion [CD]-CE--NZ-[HZ3] |==|  0.84238
USER: genes 15 Torsion [C]-CA--CB-[CG2] |==|  0.42894
USER: genes 16 Torsion [CA]-CB--OG1-[HG1] |==|  0.19637
USER: genes 17 Torsion [C]-CA--N-[C] |==|  0.65251
USER: genes 18 Torsion [N]-C--CA-[N] |==|  0.45406
USER: genes 19 Torsion [C]-CA--N-[C] |==|  0.74302
USER: genes 20 Torsion [N]-C--CA-[N] |==|  0.15426
USER: genes 21 Torsion [C]-CA--N-[H1] |==|  0.63875
USER: genes 22 Torsion [C]-CA--CB-[CG] |==|  0.93143
USER: genes 23 Torsion [CA]-CB--CG-[CD] |==|  0.63339
USER: genes 24 Torsion [CB]-CG--CD-[NE] |==|  0.85049
USER: genes 25 Torsion [CG]-CD--NE-[HE] |==|  0.76941
ROOT
ATOM      1  CA  THR D   3      17.147 -16.484  19.995  1.00 16.13 LIG 0.20  C 
ENDROOT
BRANCH 1 2
ATOM      2  C   THR D   3      18.078 -17.696  19.834  1.00 16.95 LIG 0.24  C 
ATOM      3 O    THR D   3      17.604 -18.822  19.657  1.00 16.12 LIG-0.27  OA
ATOM      4  N   LYS D   4      19.390 -17.447  19.897  1.00 18.15 LIG-0.35  N 
ATOM      5 H    LYS D   4      19.707 -16.653  19.979  1.00 18.15 LIG 0.16  HD
BRANCH 4 6
ATOM      6  CA  LYS D   4      20.431 -18.485  19.834  1.00 19.65 LIG 0.18  C 
BRANCH 6 7
ATOM      7  C   LYS D   4      20.389 -19.167  18.483  1.00 20.62 LIG 0.24  C 
ATOM      8 O    LYS D   4      20.571 -20.385  18.396  1.00 20.86 LIG-0.27  OA
ATOM      9  N   GLN D   5      20.163 -18.387  17.429  1.00 21.55 LIG-0.35  N 
ATOM     10 H    GLN D   5      20.044 -17.537  17.476  1.00 21.55 LIG 0.16  HD
BRANCH 9 11
ATOM     11  CA  GLN D   5      20.097 -18.939  16.070  1.00 22.83 LIG 0.16  C 
BRANCH 11 12
ATOM     12  C   GLN D   5      21.206 -19.955  15.803  1.00 22.91 LIG 0.22  C 
ATOM     13 O    GLN D   5      22.367 -19.737  16.154  1.00 23.29 LIG-0.29  OA
ENDBRANCH 11 12
BRANCH 11 14
ATOM     14  CB  GLN D   5      20.130 -17.824  15.021  1.00 22.86 LIG 0.04  C 
BRANCH 14 15
ATOM     15  CG  GLN D   5      20.997 -16.634  15.392  1.00 24.40 LIG 0.10  C 
BRANCH 15 16
ATOM     16  CD  GLN D   5      22.151 -16.413  14.431  1.00 24.21 LIG 0.21  C 
ATOM     17  NE2 GLN D   5      23.121 -17.329  14.452  1.00 25.13 LIG-0.37  N 
ATOM     18 22HE GLN D   5      23.795 -17.252  13.924  1.00 25.13 LIG 0.16  HD
ATOM     19 21HE GLN D   5      23.072 -17.995  14.994  1.00 25.13 LIG 0.16  HD
ATOM     20 OE1  GLN D   5      22.170 -15.436  13.673  1.00 25.71 LIG-0.27  OA
ENDBRANCH 15 16
ENDBRANCH 14 15
ENDBRANCH 11 14
ENDBRANCH 9 11
ENDBRANCH 6 7
BRANCH 6 21
ATOM     21  CB  LYS D   4      20.196 -19.564  20.895  1.00 19.73 LIG 0.04  C 
BRANCH 21 22
ATOM     22  CG  LYS D   4      21.181 -19.596  22.031  1.00 20.49 LIG 0.00  C 
BRANCH 22 23
ATOM     23  CD  LYS D   4      22.595 -19.671  21.477  1.00 20.73 LIG 0.03  C 
BRANCH 23 24
ATOM     24  CE  LYS D   4      23.600 -19.241  22.518  1.00 20.46 LIG 0.23  C 
BRANCH 24 25
ATOM     25  NZ  LYS D   4      23.210 -17.957  23.146  1.00 20.02 LIG-0.08  N 
ATOM     26 HZ3  LYS D   4      23.114 -17.335  22.516  1.00 20.02 LIG 0.27  HD
ATOM     27 HZ1  LYS D   4      22.439 -18.060  23.579  1.00 20.02 LIG 0.27  HD
ATOM     28 HZ2  LYS D   4      23.841 -17.702  23.719  1.00 20.02 LIG 0.27  HD
ENDBRANCH 24 25
ENDBRANCH 23 24
ENDBRANCH 22 23
ENDBRANCH 21 22
ENDBRANCH 6 21
ENDBRANCH 4 6
ENDBRANCH 1 2
BRANCH 1 29
ATOM     29  CB  THR D   3      15.716 -16.959  20.314  1.00 15.86 LIG 0.15  C 
ATOM     30  CG2 THR D   3      14.949 -15.882  21.075  1.00 16.15 LIG 0.04  C 
BRANCH 29 31
ATOM     31 OG1  THR D   3      15.024 -17.249  19.093  1.00 16.19 LIG-0.39  OA
ATOM     32 HG1  THR D   3      15.343 -17.946  18.749  1.00 16.19 LIG 0.21  HD
ENDBRANCH 29 31
ENDBRANCH 1 29
BRANCH 1 33
ATOM     33  N   THR D   3      17.163 -15.556  18.854  1.00 15.75 LIG-0.34  N 
ATOM     34  C   ARG D   2      17.424 -14.257  19.002  1.00 15.31 LIG 0.24  C 
ATOM     35 O    ARG D   2      17.725 -13.752  20.082  1.00 15.17 LIG-0.27  OA
ATOM     36 H    THR D   3      16.992 -15.926  18.096  1.00 15.75 LIG 0.16  HD
BRANCH 34 37
ATOM     37  CA  ARG D   2      17.316 -13.389  17.747  1.00 15.15 LIG 0.18  C 
BRANCH 37 38
ATOM     38  N   ARG D   2      17.234 -11.959  18.059  1.00 15.89 LIG-0.35  N 
ATOM     39  C   ALA D   1      16.092 -11.286  18.217  1.00 16.91 LIG 0.25  C 
ATOM     40 O    ALA D   1      14.976 -11.771  17.993  1.00 17.32 LIG-0.27  OA
ATOM     41 H    ARG D   2      18.005 -11.585  18.134  1.00 15.89 LIG 0.16  HD
BRANCH 39 42
ATOM     42  CA  ALA D   1      16.229  -9.837  18.687  1.00 17.08 LIG 0.27  C 
ATOM     43  CB  ALA D   1      14.843  -9.162  18.794  1.00 17.48 LIG 0.05  C 
BRANCH 42 44
ATOM     44  N   ALA D   1      17.116  -9.059  17.774  1.00 17.36 LIG-0.07  N 
ATOM     45 H3   ALA D   1      16.629  -8.470  17.317  1.00 17.36 LIG 0.28  HD
ATOM     46 H2   ALA D   1      17.519  -9.614  17.207  1.00 17.36 LIG 0.28  HD
ATOM     47 H1   ALA D   1      17.731  -8.627  18.252  1.00 17.36 LIG 0.28  HD
ENDBRANCH 42 44
ENDBRANCH 39 42
ENDBRANCH 37 38
BRANCH 37 48
ATOM     48  CB  ARG D   2      18.542 -13.624  16.853  1.00 15.08 LIG 0.04  C 
BRANCH 48 49
ATOM     49  CG  ARG D   2      19.812 -14.120  17.530  1.00 14.63 LIG 0.02  C 
BRANCH 49 50
ATOM     50  CD  ARG D   2      21.023 -13.291  17.081  1.00 13.91 LIG 0.14  C 
BRANCH 50 51
ATOM     51  NE  ARG D   2      21.154 -13.247  15.625  1.00 10.79 LIG-0.23  N 
ATOM     52 HE   ARG D   2      21.546 -13.907  15.236  1.00 10.79 LIG 0.18  HD
ATOM     53  CZ  ARG D   2      20.707 -12.251  14.859  1.00 10.30 LIG 0.67  C 
ATOM     54  NH2 ARG D   2      20.080 -11.207  15.403  1.00  9.50 LIG-0.23  N 
ATOM     55  NH1 ARG D   2      20.890 -12.298  13.547  1.00  9.44 LIG-0.23  N 
ATOM     56 2HH2 ARG D   2      19.796 -10.569  14.903  1.00  9.50 LIG 0.17  HD
ATOM     57 1HH2 ARG D   2      19.962 -11.173  16.254  1.00  9.50 LIG 0.17  HD
ATOM     58 1HH1 ARG D   2      21.295 -12.969  13.193  1.00  9.44 LIG 0.17  HD
ATOM     59 2HH1 ARG D   2      20.603 -11.658  13.050  1.00  9.44 LIG 0.17  HD
ENDBRANCH 50 51
ENDBRANCH 49 50
ENDBRANCH 48 49
ENDBRANCH 37 48
ENDBRANCH 34 37
ENDBRANCH 1 33
TORSDOF 24
ENDMDL
MODEL 15
USER: ADFR SOLUTION from run 115
USER: SCORE 18.744477 LL:  -3.727 LR: -16.133 RR:   0.000 FEB:  -8.974
USER: RMSD 7.547828
USER: SEED 114
USER: STATUS searching
USER: GENES 26
USER: genes 0 Translation |==|  0.37362 0.49500 0.68222
USER: genes 1 Rotation |==|  0.18450 0.43635 0.74440 0.79441
USER: genes 2 Torsion [N]-CA--C-[N] |==|  0.16824
USER: genes 3 Torsion [C]-N--CA-[C] |==|  0.16408
USER: genes 4 Torsion [N]-CA--C-[N] |==|  0.10663
USER: genes 5 Torsion [C]-N--CA-[C] |==|  0.78274
USER: genes 6 Torsion [N]-CA--C-[O] |==|  0.26479
USER: genes 7 Torsion [N]-CA--CB-[CG] |==|  0.94386
USER: genes 8 Torsion [CA]-CB--CG-[CD] |==|  0.76455
USER: genes 9 Torsion [CB]-CG--CD-[OE1] |==|  0.13692
USER: genes 10 Torsion [N]-CA--CB-[CG] |==|  0.70840
USER: genes 11 Torsion [CA]-CB--CG-[CD] |==|  0.78935
USER: genes 12 Torsion [CB]-CG--CD-[CE] |==|  0.46839
USER: genes 13 Torsion [CG]-CD--CE-[NZ] |==|  0.91353
USER: genes 14 Torsion [CD]-CE--NZ-[HZ3] |==|  0.86465
USER: genes 15 Torsion [C]-CA--CB-[CG2] |==|  0.43751
USER: genes 16 Torsion [CA]-CB--OG1-[HG1] |==|  0.20800
USER: genes 17 Torsion [C]-CA--N-[C] |==|  0.72047
USER: genes 18 Torsion [N]-C--CA-[N] |==|  0.65958
USER: genes 19 Torsion [C]-CA--N-[C] |==|  0.15407
USER: genes 20 Torsion [N]-C--CA-[N] |==|  0.93743
USER: genes 21 Torsion [C]-CA--N-[H1] |==|  0.99714
USER: genes 22 Torsion [C]-CA--CB-[CG] |==|  0.27611
USER: genes 23 Torsion [CA]-CB--CG-[CD] |==|  0.19508
USER: genes 24 Torsion [CB]-CG--CD-[NE] |==|  0.70405
USER: genes 25 Torsion [CG]-CD--NE-[HE] |==|  0.81764
ROOT
ATOM      1  CA  THR D   3      16.997 -16.680  20.236  1.00 16.13 LIG 0.20  C 
ENDROOT
BRANCH 1 2
ATOM      2  C   THR D   3      18.034 -17.801  20.063  1.00 16.95 LIG 0.24  C 
ATOM      3 O    THR D   3      17.664 -18.965  19.879  1.00 16.12 LIG-0.27  OA
ATOM      4  N   LYS D   4      19.318 -17.435  20.126  1.00 18.15 LIG-0.35  N 
ATOM      5 H    LYS D   4      19.562 -16.616  20.214  1.00 18.15 LIG 0.16  HD
BRANCH 4 6
ATOM      6  CA  LYS D   4      20.449 -18.373  20.054  1.00 19.65 LIG 0.18  C 
BRANCH 6 7
ATOM      7  C   LYS D   4      20.395 -19.134  18.746  1.00 20.62 LIG 0.24  C 
ATOM      8 O    LYS D   4      20.709 -20.328  18.708  1.00 20.86 LIG-0.27  OA
ATOM      9  N   GLN D   5      20.014 -18.447  17.672  1.00 21.55 LIG-0.35  N 
ATOM     10 H    GLN D   5      19.804 -17.613  17.683  1.00 21.55 LIG 0.16  HD
BRANCH 9 11
ATOM     11  CA  GLN D   5      19.922 -19.081  16.351  1.00 22.83 LIG 0.16  C 
BRANCH 11 12
ATOM     12  C   GLN D   5      21.291 -19.246  15.692  1.00 22.91 LIG 0.22  C 
ATOM     13 O    GLN D   5      21.920 -20.301  15.786  1.00 23.29 LIG-0.29  OA
ENDBRANCH 11 12
BRANCH 11 14
ATOM     14  CB  GLN D   5      18.977 -18.304  15.432  1.00 22.86 LIG 0.04  C 
BRANCH 14 15
ATOM     15  CG  GLN D   5      17.999 -17.395  16.155  1.00 24.40 LIG 0.10  C 
BRANCH 15 16
ATOM     16  CD  GLN D   5      16.745 -18.113  16.616  1.00 24.21 LIG 0.21  C 
ATOM     17  NE2 GLN D   5      15.583 -17.536  16.304  1.00 25.13 LIG-0.37  N 
ATOM     18 22HE GLN D   5      14.843 -17.906  16.538  1.00 25.13 LIG 0.16  HD
ATOM     19 21HE GLN D   5      15.575 -16.795  15.867  1.00 25.13 LIG 0.16  HD
ATOM     20 OE1  GLN D   5      16.815 -19.178  17.241  1.00 25.71 LIG-0.27  OA
ENDBRANCH 15 16
ENDBRANCH 14 15
ENDBRANCH 11 14
ENDBRANCH 9 11
ENDBRANCH 6 7
BRANCH 6 21
ATOM     21  CB  LYS D   4      20.379 -19.405  21.183  1.00 19.73 LIG 0.04  C 
BRANCH 21 22
ATOM     22  CG  LYS D   4      21.348 -19.207  22.317  1.00 20.49 LIG 0.00  C 
BRANCH 22 23
ATOM     23  CD  LYS D   4      22.739 -19.640  21.881  1.00 20.73 LIG 0.03  C 
BRANCH 23 24
ATOM     24  CE  LYS D   4      23.775 -19.200  22.886  1.00 20.46 LIG 0.23  C 
BRANCH 24 25
ATOM     25  NZ  LYS D   4      23.377 -17.937  23.551  1.00 20.02 LIG-0.08  N 
ATOM     26 HZ3  LYS D   4      23.127 -17.344  22.937  1.00 20.02 LIG 0.27  HD
ATOM     27 HZ1  LYS D   4      22.699 -18.094  24.105  1.00 20.02 LIG 0.27  HD
ATOM     28 HZ2  LYS D   4      24.067 -17.613  24.011  1.00 20.02 LIG 0.27  HD
ENDBRANCH 24 25
ENDBRANCH 23 24
ENDBRANCH 22 23
ENDBRANCH 21 22
ENDBRANCH 6 21
ENDBRANCH 4 6
ENDBRANCH 1 2
BRANCH 1 29
ATOM     29  CB  THR D   3      15.580 -17.281  20.304  1.00 15.86 LIG 0.15  C 
ATOM     30  CG2 THR D   3      14.622 -16.323  21.007  1.00 16.15 LIG 0.04  C 
BRANCH 29 31
ATOM     31 OG1  THR D   3      15.099 -17.529  18.977  1.00 16.19 LIG-0.39  OA
ATOM     32 HG1  THR D   3      15.481 -18.208  18.663  1.00 16.19 LIG 0.21  HD
ENDBRANCH 29 31
ENDBRANCH 1 29
BRANCH 1 33
ATOM     33  N   THR D   3      17.083 -15.620  19.220  1.00 15.75 LIG-0.34  N 
ATOM     34  C   ARG D   2      17.676 -14.451  19.466  1.00 15.31 LIG 0.24  C 
ATOM     35 O    ARG D   2      18.242 -14.195  20.527  1.00 15.17 LIG-0.27  OA
ATOM     36 H    THR D   3      16.719 -15.822  18.467  1.00 15.75 LIG 0.16  HD
BRANCH 34 37
ATOM     37  CA  ARG D   2      17.611 -13.403  18.353  1.00 15.15 LIG 0.18  C 
BRANCH 37 38
ATOM     38  N   ARG D   2      18.941 -12.958  17.924  1.00 15.89 LIG-0.35  N 
ATOM     39  C   ALA D   1      19.907 -13.773  17.497  1.00 16.91 LIG 0.25  C 
ATOM     40 O    ALA D   1      19.827 -15.008  17.536  1.00 17.32 LIG-0.27  OA
ATOM     41 H    ARG D   2      19.044 -12.105  17.973  1.00 15.89 LIG 0.16  HD
BRANCH 39 42
ATOM     42  CA  ALA D   1      21.166 -13.093  16.955  1.00 17.08 LIG 0.27  C 
ATOM     43  CB  ALA D   1      22.290 -13.094  18.014  1.00 17.48 LIG 0.05  C 
BRANCH 42 44
ATOM     44  N   ALA D   1      20.872 -11.699  16.511  1.00 17.36 LIG-0.07  N 
ATOM     45 H3   ALA D   1      21.074 -11.613  15.648  1.00 17.36 LIG 0.28  HD
ATOM     46 H2   ALA D   1      21.359 -11.127  16.988  1.00 17.36 LIG 0.28  HD
ATOM     47 H1   ALA D   1      20.007 -11.524  16.632  1.00 17.36 LIG 0.28  HD
ENDBRANCH 42 44
ENDBRANCH 39 42
ENDBRANCH 37 38
BRANCH 37 48
ATOM     48  CB  ARG D   2      16.877 -13.988  17.138  1.00 15.08 LIG 0.04  C 
BRANCH 48 49
ATOM     49  CG  ARG D   2      15.410 -13.617  16.966  1.00 14.63 LIG 0.02  C 
BRANCH 49 50
ATOM     50  CD  ARG D   2      15.269 -12.140  16.575  1.00 13.91 LIG 0.14  C 
BRANCH 50 51
ATOM     51  NE  ARG D   2      14.770 -11.320  17.679  1.00 10.79 LIG-0.23  N 
ATOM     52 HE   ARG D   2      13.970 -11.466  17.958  1.00 10.79 LIG 0.18  HD
ATOM     53  CZ  ARG D   2      15.473 -10.361  18.281  1.00 10.30 LIG 0.67  C 
ATOM     54  NH2 ARG D   2      16.723 -10.097  17.900  1.00  9.50 LIG-0.23  N 
ATOM     55  NH1 ARG D   2      14.923  -9.662  19.264  1.00  9.44 LIG-0.23  N 
ATOM     56 2HH2 ARG D   2      17.170  -9.476  18.293  1.00  9.50 LIG 0.17  HD
ATOM     57 1HH2 ARG D   2      17.082 -10.547  17.261  1.00  9.50 LIG 0.17  HD
ATOM     58 1HH1 ARG D   2      14.117  -9.829  19.511  1.00  9.44 LIG 0.17  HD
ATOM     59 2HH1 ARG D   2      15.374  -9.042  19.655  1.00  9.44 LIG 0.17  HD
ENDBRANCH 50 51
ENDBRANCH 49 50
ENDBRANCH 48 49
ENDBRANCH 37 48
ENDBRANCH 34 37
ENDBRANCH 1 33
TORSDOF 24
ENDMDL
MODEL 16
USER: ADFR SOLUTION from run 115
USER: SCORE 18.473375 LL:  -3.448 LR: -16.111 RR:   0.000 FEB:  -8.952
USER: RMSD 7.676989
USER: SEED 114
USER: STATUS searching
USER: GENES 26
USER: genes 0 Translation |==|  0.37420 0.49648 0.68134
USER: genes 1 Rotation |==|  0.19893 0.44634 0.75229 0.80467
USER: genes 2 Torsion [N]-CA--C-[N] |==|  0.18096
USER: genes 3 Torsion [C]-N--CA-[C] |==|  0.16316
USER: genes 4 Torsion [N]-CA--C-[N] |==|  0.14260
USER: genes 5 Torsion [C]-N--CA-[C] |==|  0.86322
USER: genes 6 Torsion [N]-CA--C-[O] |==|  0.89916
USER: genes 7 Torsion [N]-CA--CB-[CG] |==|  0.10625
USER: genes 8 Torsion [CA]-CB--CG-[CD] |==|  0.31681
USER: genes 9 Torsion [CB]-CG--CD-[OE1] |==|  0.29344
USER: genes 10 Torsion [N]-CA--CB-[CG] |==|  0.71353
USER: genes 11 Torsion [CA]-CB--CG-[CD] |==|  0.82206
USER: genes 12 Torsion [CB]-CG--CD-[CE] |==|  0.46542
USER: genes 13 Torsion [CG]-CD--CE-[NZ] |==|  0.88328
USER: genes 14 Torsion [CD]-CE--NZ-[HZ3] |==|  0.85340
USER: genes 15 Torsion [C]-CA--CB-[CG2] |==|  0.40956
USER: genes 16 Torsion [CA]-CB--OG1-[HG1] |==|  0.19779
USER: genes 17 Torsion [C]-CA--N-[C] |==|  0.74448
USER: genes 18 Torsion [N]-C--CA-[N] |==|  0.63465
USER: genes 19 Torsion [C]-CA--N-[C] |==|  0.14103
USER: genes 20 Torsion [N]-C--CA-[N] |==|  0.95699
USER: genes 21 Torsion [C]-CA--N-[H1] |==|  0.69896
USER: genes 22 Torsion [C]-CA--CB-[CG] |==|  0.25485
USER: genes 23 Torsion [CA]-CB--CG-[CD] |==|  0.55613
USER: genes 24 Torsion [CB]-CG--CD-[NE] |==|  0.39559
USER: genes 25 Torsion [CG]-CD--NE-[HE] |==|  0.89070
ROOT
ATOM      1  CA  THR D   3      17.008 -16.650  20.216  1.00 16.13 LIG 0.20  C 
ENDROOT
BRANCH 1 2
ATOM      2  C   THR D   3      18.005 -17.783  19.924  1.00 16.95 LIG 0.24  C 
ATOM      3 O    THR D   3      17.594 -18.913  19.644  1.00 16.12 LIG-0.27  OA
ATOM      4  N   LYS D   4      19.301 -17.463  19.994  1.00 18.15 LIG-0.35  N 
ATOM      5 H    LYS D   4      19.573 -16.662  20.150  1.00 18.15 LIG 0.16  HD
BRANCH 4 6
ATOM      6  CA  LYS D   4      20.400 -18.425  19.817  1.00 19.65 LIG 0.18  C 
BRANCH 6 7
ATOM      7  C   LYS D   4      20.295 -19.070  18.450  1.00 20.62 LIG 0.24  C 
ATOM      8 O    LYS D   4      20.334 -20.299  18.339  1.00 20.86 LIG-0.27  OA
ATOM      9  N   GLN D   5      20.178 -18.248  17.411  1.00 21.55 LIG-0.35  N 
ATOM     10 H    GLN D   5      20.160 -17.390  17.475  1.00 21.55 LIG 0.16  HD
BRANCH 9 11
ATOM     11  CA  GLN D   5      20.065 -18.760  16.040  1.00 22.83 LIG 0.16  C 
BRANCH 11 12
ATOM     12  C   GLN D   5      21.139 -19.798  15.720  1.00 22.91 LIG 0.22  C 
ATOM     13 O    GLN D   5      22.281 -19.692  16.171  1.00 23.29 LIG-0.29  OA
ENDBRANCH 11 12
BRANCH 11 14
ATOM     14  CB  GLN D   5      20.105 -17.618  15.021  1.00 22.86 LIG 0.04  C 
BRANCH 14 15
ATOM     15  CG  GLN D   5      21.073 -16.499  15.363  1.00 24.40 LIG 0.10  C 
BRANCH 15 16
ATOM     16  CD  GLN D   5      22.227 -16.386  14.385  1.00 24.21 LIG 0.21  C 
ATOM     17  NE2 GLN D   5      23.171 -17.325  14.474  1.00 25.13 LIG-0.37  N 
ATOM     18 22HE GLN D   5      23.844 -17.309  13.939  1.00 25.13 LIG 0.16  HD
ATOM     19 21HE GLN D   5      23.106 -17.945  15.066  1.00 25.13 LIG 0.16  HD
ATOM     20 OE1  GLN D   5      22.269 -15.472  13.553  1.00 25.71 LIG-0.27  OA
ENDBRANCH 15 16
ENDBRANCH 14 15
ENDBRANCH 11 14
ENDBRANCH 9 11
ENDBRANCH 6 7
BRANCH 6 21
ATOM     21  CB  LYS D   4      20.321 -19.547  20.856  1.00 19.73 LIG 0.04  C 
BRANCH 21 22
ATOM     22  CG  LYS D   4      21.290 -19.451  22.002  1.00 20.49 LIG 0.00  C 
BRANCH 22 23
ATOM     23  CD  LYS D   4      22.712 -19.571  21.479  1.00 20.73 LIG 0.03  C 
BRANCH 23 24
ATOM     24  CE  LYS D   4      23.708 -19.180  22.543  1.00 20.46 LIG 0.23  C 
BRANCH 24 25
ATOM     25  NZ  LYS D   4      23.260 -17.976  23.283  1.00 20.02 LIG-0.08  N 
ATOM     26 HZ3  LYS D   4      23.069 -17.327  22.706  1.00 20.02 LIG 0.27  HD
ATOM     27 HZ1  LYS D   4      22.534 -18.173  23.759  1.00 20.02 LIG 0.27  HD
ATOM     28 HZ2  LYS D   4      23.909 -17.705  23.829  1.00 20.02 LIG 0.27  HD
ENDBRANCH 24 25
ENDBRANCH 23 24
ENDBRANCH 22 23
ENDBRANCH 21 22
ENDBRANCH 6 21
ENDBRANCH 4 6
ENDBRANCH 1 2
BRANCH 1 29
ATOM     29  CB  THR D   3      15.588 -17.227  20.372  1.00 15.86 LIG 0.15  C 
ATOM     30  CG2 THR D   3      14.783 -16.412  21.379  1.00 16.15 LIG 0.04  C 
BRANCH 29 31
ATOM     31 OG1  THR D   3      14.916 -17.199  19.106  1.00 16.19 LIG-0.39  OA
ATOM     32 HG1  THR D   3      15.253 -17.775  18.597  1.00 16.19 LIG 0.21  HD
ENDBRANCH 29 31
ENDBRANCH 1 29
BRANCH 1 33
ATOM     33  N   THR D   3      17.037 -15.554  19.235  1.00 15.75 LIG-0.34  N 
ATOM     34  C   ARG D   2      17.807 -14.478  19.400  1.00 15.31 LIG 0.24  C 
ATOM     35 O    ARG D   2      18.585 -14.347  20.342  1.00 15.17 LIG-0.27  OA
ATOM     36 H    THR D   3      16.520 -15.673  18.558  1.00 15.75 LIG 0.16  HD
BRANCH 34 37
ATOM     37  CA  ARG D   2      17.671 -13.372  18.352  1.00 15.15 LIG 0.18  C 
BRANCH 37 38
ATOM     38  N   ARG D   2      18.969 -12.917  17.845  1.00 15.89 LIG-0.35  N 
ATOM     39  C   ALA D   1      19.925 -13.727  17.385  1.00 16.91 LIG 0.25  C 
ATOM     40 O    ALA D   1      19.866 -14.961  17.453  1.00 17.32 LIG-0.27  OA
ATOM     41 H    ARG D   2      19.061 -12.062  17.871  1.00 15.89 LIG 0.16  HD
BRANCH 39 42
ATOM     42  CA  ALA D   1      21.142 -13.040  16.763  1.00 17.08 LIG 0.27  C 
ATOM     43  CB  ALA D   1      22.372 -13.157  17.692  1.00 17.48 LIG 0.05  C 
BRANCH 42 44
ATOM     44  N   ALA D   1      20.854 -11.607  16.462  1.00 17.36 LIG-0.07  N 
ATOM     45 H3   ALA D   1      21.514 -11.099  16.775  1.00 17.36 LIG 0.28  HD
ATOM     46 H2   ALA D   1      20.088 -11.371  16.850  1.00 17.36 LIG 0.28  HD
ATOM     47 H1   ALA D   1      20.786 -11.496  15.582  1.00 17.36 LIG 0.28  HD
ENDBRANCH 42 44
ENDBRANCH 39 42
ENDBRANCH 37 38
BRANCH 37 48
ATOM     48  CB  ARG D   2      16.837 -13.885  17.168  1.00 15.08 LIG 0.04  C 
BRANCH 48 49
ATOM     49  CG  ARG D   2      15.335 -13.646  17.220  1.00 14.63 LIG 0.02  C 
BRANCH 49 50
ATOM     50  CD  ARG D   2      14.601 -14.610  16.278  1.00 13.91 LIG 0.14  C 
BRANCH 50 51
ATOM     51  NE  ARG D   2      13.332 -15.072  16.840  1.00 10.79 LIG-0.23  N 
ATOM     52 HE   ARG D   2      13.305 -15.248  17.681  1.00 10.79 LIG 0.18  HD
ATOM     53  CZ  ARG D   2      12.213 -15.238  16.134  1.00 10.30 LIG 0.67  C 
ATOM     54  NH2 ARG D   2      12.189 -14.969  14.828  1.00  9.50 LIG-0.23  N 
ATOM     55  NH1 ARG D   2      11.116 -15.678  16.735  1.00  9.44 LIG-0.23  N 
ATOM     56 2HH2 ARG D   2      11.465 -15.079  14.380  1.00  9.50 LIG 0.17  HD
ATOM     57 1HH2 ARG D   2      12.900 -14.686  14.435  1.00  9.50 LIG 0.17  HD
ATOM     58 1HH1 ARG D   2      11.128 -15.854  17.576  1.00  9.44 LIG 0.17  HD
ATOM     59 2HH1 ARG D   2      10.393 -15.786  16.283  1.00  9.44 LIG 0.17  HD
ENDBRANCH 50 51
ENDBRANCH 49 50
ENDBRANCH 48 49
ENDBRANCH 37 48
ENDBRANCH 34 37
ENDBRANCH 1 33
TORSDOF 24
ENDMDL
MODEL 17
USER: ADFR SOLUTION from run 148
USER: SCORE 18.546953 LL:  -3.623 LR: -16.067 RR:   0.000 FEB:  -8.907
USER: RMSD 7.501479
USER: SEED 147
USER: STATUS no improvement in best in 8 clusters for 5 generations
USER: GENES 26
USER: genes 0 Translation |==|  0.43967 0.58492 0.68969
USER: genes 1 Rotation |==|  0.15277 0.50788 0.65262 0.82569
USER: genes 2 Torsion [N]-CA--C-[N] |==|  0.11460
USER: genes 3 Torsion [C]-N--CA-[C] |==|  0.20485
USER: genes 4 Torsion [N]-CA--C-[N] |==|  0.08565
USER: genes 5 Torsion [C]-N--CA-[C] |==|  0.86324
USER: genes 6 Torsion [N]-CA--C-[O] |==|  0.87537
USER: genes 7 Torsion [N]-CA--CB-[CG] |==|  0.09106
USER: genes 8 Torsion [CA]-CB--CG-[CD] |==|  0.29123
USER: genes 9 Torsion [CB]-CG--CD-[OE1] |==|  0.27053
USER: genes 10 Torsion [N]-CA--CB-[CG] |==|  0.66140
USER: genes 11 Torsion [CA]-CB--CG-[CD] |==|  0.94137
USER: genes 12 Torsion [CB]-CG--CD-[CE] |==|  0.42949
USER: genes 13 Torsion [CG]-CD--CE-[NZ] |==|  0.85177
USER: genes 14 Torsion [CD]-CE--NZ-[HZ3] |==|  0.21486
USER: genes 15 Torsion [C]-CA--CB-[CG2] |==|  0.87026
USER: genes 16 Torsion [CA]-CB--OG1-[HG1] |==|  0.16772
USER: genes 17 Torsion [C]-CA--N-[C] |==|  0.12782
USER: genes 18 Torsion [N]-C--CA-[N] |==|  0.78995
USER: genes 19 Torsion [C]-CA--N-[C] |==|  0.71521
USER: genes 20 Torsion [N]-C--CA-[N] |==|  0.93480
USER: genes 21 Torsion [C]-CA--N-[H1] |==|  0.99198
USER: genes 22 Torsion [C]-CA--CB-[CG] |==|  0.38329
USER: genes 23 Torsion [CA]-CB--CG-[CD] |==|  0.01447
USER: genes 24 Torsion [CB]-CG--CD-[NE] |==|  0.22081
USER: genes 25 Torsion [CG]-CD--NE-[HE] |==|  0.96873
ROOT
ATOM      1  CA  THR D   3      18.236 -14.859  20.404  1.00 16.13 LIG 0.20  C 
ENDROOT
BRANCH 1 2
ATOM      2  C   THR D   3      18.644 -16.341  20.432  1.00 16.95 LIG 0.24  C 
ATOM      3 O    THR D   3      17.794 -17.214  20.631  1.00 16.12 LIG-0.27  OA
ATOM      4  N   LYS D   4      19.940 -16.601  20.234  1.00 18.15 LIG-0.35  N 
ATOM      5 H    LYS D   4      20.514 -15.987  20.056  1.00 18.15 LIG 0.16  HD
BRANCH 4 6
ATOM      6  CA  LYS D   4      20.530 -17.947  20.294  1.00 19.65 LIG 0.18  C 
BRANCH 6 7
ATOM      7  C   LYS D   4      20.137 -18.731  19.059  1.00 20.62 LIG 0.24  C 
ATOM      8 O    LYS D   4      20.018 -19.959  19.115  1.00 20.86 LIG-0.27  OA
ATOM      9  N   GLN D   5      19.949 -18.031  17.945  1.00 21.55 LIG-0.35  N 
ATOM     10 H    GLN D   5      20.039 -17.177  17.890  1.00 21.55 LIG 0.16  HD
BRANCH 9 11
ATOM     11  CA  GLN D   5      19.562 -18.683  16.687  1.00 22.83 LIG 0.16  C 
BRANCH 11 12
ATOM     12  C   GLN D   5      20.447 -19.886  16.364  1.00 22.91 LIG 0.22  C 
ATOM     13 O    GLN D   5      21.672 -19.825  16.482  1.00 23.29 LIG-0.29  OA
ENDBRANCH 11 12
BRANCH 11 14
ATOM     14  CB  GLN D   5      19.569 -17.687  15.525  1.00 22.86 LIG 0.04  C 
BRANCH 14 15
ATOM     15  CG  GLN D   5      20.618 -16.595  15.635  1.00 24.40 LIG 0.10  C 
BRANCH 15 16
ATOM     16  CD  GLN D   5      21.799 -16.805  14.705  1.00 24.21 LIG 0.21  C 
ATOM     17  NE2 GLN D   5      22.747 -17.641  15.134  1.00 25.13 LIG-0.37  N 
ATOM     18 22HE GLN D   5      23.435 -17.798  14.643  1.00 25.13 LIG 0.16  HD
ATOM     19 21HE GLN D   5      22.669 -18.022  15.901  1.00 25.13 LIG 0.16  HD
ATOM     20 OE1  GLN D   5      21.859 -16.230  13.612  1.00 25.71 LIG-0.27  OA
ENDBRANCH 15 16
ENDBRANCH 14 15
ENDBRANCH 11 14
ENDBRANCH 9 11
ENDBRANCH 6 7
BRANCH 6 21
ATOM     21  CB  LYS D   4      20.010 -18.721  21.509  1.00 19.73 LIG 0.04  C 
BRANCH 21 22
ATOM     22  CG  LYS D   4      21.054 -19.207  22.476  1.00 20.49 LIG 0.00  C 
BRANCH 22 23
ATOM     23  CD  LYS D   4      22.404 -19.271  21.780  1.00 20.73 LIG 0.03  C 
BRANCH 23 24
ATOM     24  CE  LYS D   4      23.527 -19.141  22.779  1.00 20.46 LIG 0.23  C 
BRANCH 24 25
ATOM     25  NZ  LYS D   4      23.364 -17.929  23.617  1.00 20.02 LIG-0.08  N 
ATOM     26 HZ3  LYS D   4      22.745 -18.079  24.238  1.00 20.02 LIG 0.27  HD
ATOM     27 HZ1  LYS D   4      24.138 -17.734  24.012  1.00 20.02 LIG 0.27  HD
ATOM     28 HZ2  LYS D   4      23.112 -17.246  23.106  1.00 20.02 LIG 0.27  HD
ENDBRANCH 24 25
ENDBRANCH 23 24
ENDBRANCH 22 23
ENDBRANCH 21 22
ENDBRANCH 6 21
ENDBRANCH 4 6
ENDBRANCH 1 2
BRANCH 1 29
ATOM     29  CB  THR D   3      16.702 -14.738  20.327  1.00 15.86 LIG 0.15  C 
ATOM     30  CG2 THR D   3      16.140 -15.678  19.264  1.00 16.15 LIG 0.04  C 
BRANCH 29 31
ATOM     31 OG1  THR D   3      16.129 -15.076  21.597  1.00 16.19 LIG-0.39  OA
ATOM     32 HG1  THR D   3      16.417 -14.549  22.184  1.00 16.19 LIG 0.21  HD
ENDBRANCH 29 31
ENDBRANCH 1 29
BRANCH 1 33
ATOM     33  N   THR D   3      18.889 -14.075  19.345  1.00 15.75 LIG-0.34  N 
ATOM     34  C   ARG D   2      18.979 -14.516  18.090  1.00 15.31 LIG 0.24  C 
ATOM     35 O    ARG D   2      18.477 -15.573  17.713  1.00 15.17 LIG-0.27  OA
ATOM     36 H    THR D   3      19.202 -13.318  19.609  1.00 15.75 LIG 0.16  HD
BRANCH 34 37
ATOM     37  CA  ARG D   2      19.766 -13.642  17.112  1.00 15.15 LIG 0.18  C 
BRANCH 37 38
ATOM     38  N   ARG D   2      19.015 -12.454  16.693  1.00 15.89 LIG-0.35  N 
ATOM     39  C   ALA D   1      18.399 -12.327  15.516  1.00 16.91 LIG 0.25  C 
ATOM     40 O    ALA D   1      18.501 -13.152  14.599  1.00 17.32 LIG-0.27  OA
ATOM     41 H    ARG D   2      19.007 -11.833  17.288  1.00 15.89 LIG 0.16  HD
BRANCH 39 42
ATOM     42  CA  ALA D   1      17.547 -11.070  15.338  1.00 17.08 LIG 0.27  C 
ATOM     43  CB  ALA D   1      18.315  -9.995  14.536  1.00 17.48 LIG 0.05  C 
BRANCH 42 44
ATOM     44  N   ALA D   1      17.117 -10.523  16.659  1.00 17.36 LIG-0.07  N 
ATOM     45 H3   ALA D   1      16.228 -10.475  16.685  1.00 17.36 LIG 0.28  HD
ATOM     46 H2   ALA D   1      17.462  -9.710  16.770  1.00 17.36 LIG 0.28  HD
ATOM     47 H1   ALA D   1      17.404 -11.058  17.310  1.00 17.36 LIG 0.28  HD
ENDBRANCH 42 44
ENDBRANCH 39 42
ENDBRANCH 37 38
BRANCH 37 48
ATOM     48  CB  ARG D   2      21.076 -13.185  17.769  1.00 15.08 LIG 0.04  C 
BRANCH 48 49
ATOM     49  CG  ARG D   2      22.332 -13.212  16.909  1.00 14.63 LIG 0.02  C 
BRANCH 49 50
ATOM     50  CD  ARG D   2      21.989 -13.590  15.462  1.00 13.91 LIG 0.14  C 
BRANCH 50 51
ATOM     51  NE  ARG D   2      21.451 -12.458  14.707  1.00 10.79 LIG-0.23  N 
ATOM     52 HE   ARG D   2      21.235 -11.749  15.145  1.00 10.79 LIG 0.18  HD
ATOM     53  CZ  ARG D   2      21.275 -12.451  13.386  1.00 10.30 LIG 0.67  C 
ATOM     54  NH2 ARG D   2      21.604 -13.514  12.653  1.00  9.50 LIG-0.23  N 
ATOM     55  NH1 ARG D   2      20.764 -11.378  12.797  1.00  9.44 LIG-0.23  N 
ATOM     56 2HH2 ARG D   2      21.487 -13.502  11.801  1.00  9.50 LIG 0.17  HD
ATOM     57 1HH2 ARG D   2      21.933 -14.212  13.032  1.00  9.50 LIG 0.17  HD
ATOM     58 1HH1 ARG D   2      20.550 -10.691  13.267  1.00  9.44 LIG 0.17  HD
ATOM     59 2HH1 ARG D   2      20.649 -11.369  11.945  1.00  9.44 LIG 0.17  HD
ENDBRANCH 50 51
ENDBRANCH 49 50
ENDBRANCH 48 49
ENDBRANCH 37 48
ENDBRANCH 34 37
ENDBRANCH 1 33
TORSDOF 24
ENDMDL
MODEL 18
USER: ADFR SOLUTION from run 113
USER: SCORE 18.436100 LL:  -2.769 LR: -16.054 RR:   0.000 FEB:  -8.894
USER: RMSD 8.555907
USER: SEED 112
USER: STATUS no improvement in best in 9 clusters for 5 generations
USER: GENES 26
USER: genes 0 Translation |==|  0.49849 0.39345 0.52580
USER: genes 1 Rotation |==|  0.74149 0.92510 0.44343 0.58813
USER: genes 2 Torsion [N]-CA--C-[N] |==|  0.89955
USER: genes 3 Torsion [C]-N--CA-[C] |==|  0.16700
USER: genes 4 Torsion [N]-CA--C-[N] |==|  0.08798
USER: genes 5 Torsion [C]-N--CA-[C] |==|  0.13077
USER: genes 6 Torsion [N]-CA--C-[O] |==|  0.05470
USER: genes 7 Torsion [N]-CA--CB-[CG] |==|  0.59821
USER: genes 8 Torsion [CA]-CB--CG-[CD] |==|  0.98689
USER: genes 9 Torsion [CB]-CG--CD-[OE1] |==|  0.79892
USER: genes 10 Torsion [N]-CA--CB-[CG] |==|  0.62123
USER: genes 11 Torsion [CA]-CB--CG-[CD] |==|  0.28708
USER: genes 12 Torsion [CB]-CG--CD-[CE] |==|  0.63866
USER: genes 13 Torsion [CG]-CD--CE-[NZ] |==|  0.21978
USER: genes 14 Torsion [CD]-CE--NZ-[HZ3] |==|  0.52314
USER: genes 15 Torsion [C]-CA--CB-[CG2] |==|  0.69811
USER: genes 16 Torsion [CA]-CB--OG1-[HG1] |==|  0.10790
USER: genes 17 Torsion [C]-CA--N-[C] |==|  0.80473
USER: genes 18 Torsion [N]-C--CA-[N] |==|  0.85628
USER: genes 19 Torsion [C]-CA--N-[C] |==|  0.81586
USER: genes 20 Torsion [N]-C--CA-[N] |==|  0.44699
USER: genes 21 Torsion [C]-CA--N-[H1] |==|  0.34976
USER: genes 22 Torsion [C]-CA--CB-[CG] |==|  0.22992
USER: genes 23 Torsion [CA]-CB--CG-[CD] |==|  0.05077
USER: genes 24 Torsion [CB]-CG--CD-[NE] |==|  0.71858
USER: genes 25 Torsion [CG]-CD--NE-[HE] |==|  0.32908
ROOT
ATOM      1  CA  THR D   3      19.339 -18.737  16.717  1.00 16.13 LIG 0.20  C 
ENDROOT
BRANCH 1 2
ATOM      2  C   THR D   3      19.185 -18.358  18.198  1.00 16.95 LIG 0.24  C 
ATOM      3 O    THR D   3      18.571 -19.103  18.967  1.00 16.12 LIG-0.27  OA
ATOM      4  N   LYS D   4      19.744 -17.204  18.574  1.00 18.15 LIG-0.35  N 
ATOM      5 H    LYS D   4      20.203 -16.714  18.038  1.00 18.15 LIG 0.16  HD
BRANCH 4 6
ATOM      6  CA  LYS D   4      19.642 -16.641  19.930  1.00 19.65 LIG 0.18  C 
BRANCH 6 7
ATOM      7  C   LYS D   4      20.242 -17.608  20.928  1.00 20.62 LIG 0.24  C 
ATOM      8 O    LYS D   4      19.802 -17.664  22.081  1.00 20.86 LIG-0.27  OA
ATOM      9  N   GLN D   5      21.252 -18.358  20.498  1.00 21.55 LIG-0.35  N 
ATOM     10 H    GLN D   5      21.575 -18.321  19.702  1.00 21.55 LIG 0.16  HD
BRANCH 9 11
ATOM     11  CA  GLN D   5      21.910 -19.334  21.377  1.00 22.83 LIG 0.16  C 
BRANCH 11 12
ATOM     12  C   GLN D   5      20.905 -20.200  22.134  1.00 22.91 LIG 0.22  C 
ATOM     13 O    GLN D   5      19.742 -20.315  21.744  1.00 23.29 LIG-0.29  OA
ENDBRANCH 11 12
BRANCH 11 14
ATOM     14  CB  GLN D   5      22.862 -18.640  22.355  1.00 22.86 LIG 0.04  C 
BRANCH 14 15
ATOM     15  CG  GLN D   5      24.121 -19.426  22.676  1.00 24.40 LIG 0.10  C 
BRANCH 15 16
ATOM     16  CD  GLN D   5      24.139 -20.807  22.048  1.00 24.21 LIG 0.21  C 
ATOM     17  NE2 GLN D   5      24.980 -20.982  21.027  1.00 25.13 LIG-0.37  N 
ATOM     18 22HE GLN D   5      25.032 -21.747  20.639  1.00 25.13 LIG 0.16  HD
ATOM     19 21HE GLN D   5      25.470 -20.329  20.757  1.00 25.13 LIG 0.16  HD
ATOM     20 OE1  GLN D   5      23.412 -21.711  22.476  1.00 25.71 LIG-0.27  OA
ENDBRANCH 15 16
ENDBRANCH 14 15
ENDBRANCH 11 14
ENDBRANCH 9 11
ENDBRANCH 6 7
BRANCH 6 21
ATOM     21  CB  LYS D   4      18.179 -16.426  20.328  1.00 19.73 LIG 0.04  C 
BRANCH 21 22
ATOM     22  CG  LYS D   4      17.867 -15.123  21.011  1.00 20.49 LIG 0.00  C 
BRANCH 22 23
ATOM     23  CD  LYS D   4      17.193 -14.180  20.027  1.00 20.73 LIG 0.03  C 
BRANCH 23 24
ATOM     24  CE  LYS D   4      17.866 -12.829  20.036  1.00 20.46 LIG 0.23  C 
BRANCH 24 25
ATOM     25  NZ  LYS D   4      19.119 -12.845  19.245  1.00 20.02 LIG-0.08  N 
ATOM     26 HZ3  LYS D   4      19.555 -12.079  19.364  1.00 20.02 LIG 0.27  HD
ATOM     27 HZ1  LYS D   4      19.631 -13.522  19.512  1.00 20.02 LIG 0.27  HD
ATOM     28 HZ2  LYS D   4      18.924 -12.943  18.382  1.00 20.02 LIG 0.27  HD
ENDBRANCH 24 25
ENDBRANCH 23 24
ENDBRANCH 22 23
ENDBRANCH 21 22
ENDBRANCH 6 21
ENDBRANCH 4 6
ENDBRANCH 1 2
BRANCH 1 29
ATOM     29  CB  THR D   3      20.625 -19.560  16.516  1.00 15.86 LIG 0.15  C 
ATOM     30  CG2 THR D   3      21.680 -18.740  15.779  1.00 16.15 LIG 0.04  C 
BRANCH 29 31
ATOM     31 OG1  THR D   3      21.148 -19.954  17.791  1.00 16.19 LIG-0.39  OA
ATOM     32 HG1  THR D   3      20.514 -20.158  18.303  1.00 16.19 LIG 0.21  HD
ENDBRANCH 29 31
ENDBRANCH 1 29
BRANCH 1 33
ATOM     33  N   THR D   3      19.285 -17.593  15.793  1.00 15.75 LIG-0.34  N 
ATOM     34  C   ARG D   2      18.156 -16.921  15.564  1.00 15.31 LIG 0.24  C 
ATOM     35 O    ARG D   2      17.100 -17.166  16.144  1.00 15.17 LIG-0.27  OA
ATOM     36 H    THR D   3      20.038 -17.402  15.423  1.00 15.75 LIG 0.16  HD
BRANCH 34 37
ATOM     37  CA  ARG D   2      18.220 -15.813  14.512  1.00 15.15 LIG 0.18  C 
BRANCH 37 38
ATOM     38  N   ARG D   2      19.320 -14.874  14.753  1.00 15.89 LIG-0.35  N 
ATOM     39  C   ALA D   1      19.391 -14.050  15.800  1.00 16.91 LIG 0.25  C 
ATOM     40 O    ALA D   1      18.473 -13.901  16.617  1.00 17.32 LIG-0.27  OA
ATOM     41 H    ARG D   2      19.928 -14.903  14.145  1.00 15.89 LIG 0.16  HD
BRANCH 39 42
ATOM     42  CA  ALA D   1      20.694 -13.260  15.943  1.00 17.08 LIG 0.27  C 
ATOM     43  CB  ALA D   1      21.826 -14.162  16.484  1.00 17.48 LIG 0.05  C 
BRANCH 42 44
ATOM     44  N   ALA D   1      20.506 -12.075  16.830  1.00 17.36 LIG-0.07  N 
ATOM     45 H3   ALA D   1      19.689 -12.093  17.183  1.00 17.36 LIG 0.28  HD
ATOM     46 H2   ALA D   1      20.608 -11.329  16.355  1.00 17.36 LIG 0.28  HD
ATOM     47 H1   ALA D   1      21.111 -12.093  17.484  1.00 17.36 LIG 0.28  HD
ENDBRANCH 42 44
ENDBRANCH 39 42
ENDBRANCH 37 38
BRANCH 37 48
ATOM     48  CB  ARG D   2      18.406 -16.436  13.120  1.00 15.08 LIG 0.04  C 
BRANCH 48 49
ATOM     49  CG  ARG D   2      17.157 -16.938  12.410  1.00 14.63 LIG 0.02  C 
BRANCH 49 50
ATOM     50  CD  ARG D   2      15.897 -16.321  13.031  1.00 13.91 LIG 0.14  C 
BRANCH 50 51
ATOM     51  NE  ARG D   2      15.215 -17.247  13.935  1.00 10.79 LIG-0.23  N 
ATOM     52 HE   ARG D   2      15.140 -17.020  14.761  1.00 10.79 LIG 0.18  HD
ATOM     53  CZ  ARG D   2      14.703 -18.421  13.564  1.00 10.30 LIG 0.67  C 
ATOM     54  NH2 ARG D   2      14.777 -18.821  12.294  1.00  9.50 LIG-0.23  N 
ATOM     55  NH1 ARG D   2      14.117 -19.197  14.465  1.00  9.44 LIG-0.23  N 
ATOM     56 2HH2 ARG D   2      14.445 -19.579  12.063  1.00  9.50 LIG 0.17  HD
ATOM     57 1HH2 ARG D   2      15.158 -18.321  11.707  1.00  9.50 LIG 0.17  HD
ATOM     58 1HH1 ARG D   2      14.068 -18.942  15.285  1.00  9.44 LIG 0.17  HD
ATOM     59 2HH1 ARG D   2      13.785 -19.954  14.229  1.00  9.44 LIG 0.17  HD
ENDBRANCH 50 51
ENDBRANCH 49 50
ENDBRANCH 48 49
ENDBRANCH 37 48
ENDBRANCH 34 37
ENDBRANCH 1 33
TORSDOF 24
ENDMDL
MODEL 19
USER: ADFR SOLUTION from run 158
USER: SCORE 19.336507 LL:  -3.928 LR: -16.041 RR:   0.000 FEB:  -8.881
USER: RMSD 8.312162
USER: SEED 157
USER: STATUS no improvement in best in 3 clusters for 5 generations
USER: GENES 26
USER: genes 0 Translation |==|  0.53918 0.38195 0.49421
USER: genes 1 Rotation |==|  0.65407 0.96667 0.56208 0.56803
USER: genes 2 Torsion [N]-CA--C-[N] |==|  0.98742
USER: genes 3 Torsion [C]-N--CA-[C] |==|  0.65067
USER: genes 4 Torsion [N]-CA--C-[N] |==|  0.87880
USER: genes 5 Torsion [C]-N--CA-[C] |==|  0.12981
USER: genes 6 Torsion [N]-CA--C-[O] |==|  0.27048
USER: genes 7 Torsion [N]-CA--CB-[CG] |==|  0.66904
USER: genes 8 Torsion [CA]-CB--CG-[CD] |==|  0.63428
USER: genes 9 Torsion [CB]-CG--CD-[OE1] |==|  0.84466
USER: genes 10 Torsion [N]-CA--CB-[CG] |==|  0.82035
USER: genes 11 Torsion [CA]-CB--CG-[CD] |==|  0.75092
USER: genes 12 Torsion [CB]-CG--CD-[CE] |==|  0.52149
USER: genes 13 Torsion [CG]-CD--CE-[NZ] |==|  0.24704
USER: genes 14 Torsion [CD]-CE--NZ-[HZ3] |==|  0.80952
USER: genes 15 Torsion [C]-CA--CB-[CG2] |==|  0.28578
USER: genes 16 Torsion [CA]-CB--OG1-[HG1] |==|  0.49086
USER: genes 17 Torsion [C]-CA--N-[C] |==|  0.81650
USER: genes 18 Torsion [N]-C--CA-[N] |==|  0.92333
USER: genes 19 Torsion [C]-CA--N-[C] |==|  0.81126
USER: genes 20 Torsion [N]-C--CA-[N] |==|  0.38843
USER: genes 21 Torsion [C]-CA--N-[H1] |==|  0.98994
USER: genes 22 Torsion [C]-CA--CB-[CG] |==|  0.05998
USER: genes 23 Torsion [CA]-CB--CG-[CD] |==|  0.32333
USER: genes 24 Torsion [CB]-CG--CD-[NE] |==|  0.66991
USER: genes 25 Torsion [CG]-CD--NE-[HE] |==|  0.79632
ROOT
ATOM      1  CA  THR D   3      20.102 -18.970  16.006  1.00 16.13 LIG 0.20  C 
ENDROOT
BRANCH 1 2
ATOM      2  C   THR D   3      19.798 -19.317  17.471  1.00 16.95 LIG 0.24  C 
ATOM      3 O    THR D   3      20.147 -20.408  17.934  1.00 16.12 LIG-0.27  OA
ATOM      4  N   LYS D   4      19.152 -18.386  18.179  1.00 18.15 LIG-0.35  N 
ATOM      5 H    LYS D   4      18.951 -17.615  17.856  1.00 18.15 LIG 0.16  HD
BRANCH 4 6
ATOM      6  CA  LYS D   4      18.713 -18.563  19.572  1.00 19.65 LIG 0.18  C 
BRANCH 6 7
ATOM      7  C   LYS D   4      17.231 -18.274  19.679  1.00 20.62 LIG 0.24  C 
ATOM      8 O    LYS D   4      16.497 -19.022  20.332  1.00 20.86 LIG-0.27  OA
ATOM      9  N   GLN D   5      16.785 -17.202  19.030  1.00 21.55 LIG-0.35  N 
ATOM     10 H    GLN D   5      17.283 -16.679  18.564  1.00 21.55 LIG 0.16  HD
BRANCH 9 11
ATOM     11  CA  GLN D   5      15.367 -16.821  19.065  1.00 22.83 LIG 0.16  C 
BRANCH 11 12
ATOM     12  C   GLN D   5      14.794 -16.855  20.480  1.00 22.91 LIG 0.22  C 
ATOM     13 O    GLN D   5      14.706 -15.829  21.157  1.00 23.29 LIG-0.29  OA
ENDBRANCH 11 12
BRANCH 11 14
ATOM     14  CB  GLN D   5      14.536 -17.704  18.130  1.00 22.86 LIG 0.04  C 
BRANCH 14 15
ATOM     15  CG  GLN D   5      13.825 -16.953  17.018  1.00 24.40 LIG 0.10  C 
BRANCH 15 16
ATOM     16  CD  GLN D   5      12.361 -17.328  16.886  1.00 24.21 LIG 0.21  C 
ATOM     17  NE2 GLN D   5      11.485 -16.324  16.958  1.00 25.13 LIG-0.37  N 
ATOM     18 22HE GLN D   5      10.643 -16.483  16.884  1.00 25.13 LIG 0.16  HD
ATOM     19 21HE GLN D   5      11.762 -15.519  17.077  1.00 25.13 LIG 0.16  HD
ATOM     20 OE1  GLN D   5      12.018 -18.504  16.716  1.00 25.71 LIG-0.27  OA
ENDBRANCH 15 16
ENDBRANCH 14 15
ENDBRANCH 11 14
ENDBRANCH 9 11
ENDBRANCH 6 7
BRANCH 6 21
ATOM     21  CB  LYS D   4      19.436 -17.586  20.504  1.00 19.73 LIG 0.04  C 
BRANCH 21 22
ATOM     22  CG  LYS D   4      20.923 -17.773  20.628  1.00 20.49 LIG 0.00  C 
BRANCH 22 23
ATOM     23  CD  LYS D   4      21.223 -18.740  21.762  1.00 20.73 LIG 0.03  C 
BRANCH 23 24
ATOM     24  CE  LYS D   4      22.707 -18.801  22.033  1.00 20.46 LIG 0.23  C 
BRANCH 24 25
ATOM     25  NZ  LYS D   4      23.117 -17.776  23.022  1.00 20.02 LIG-0.08  N 
ATOM     26 HZ3  LYS D   4      23.036 -16.967  22.661  1.00 20.02 LIG 0.27  HD
ATOM     27 HZ1  LYS D   4      22.597 -17.833  23.742  1.00 20.02 LIG 0.27  HD
ATOM     28 HZ2  LYS D   4      23.965 -17.911  23.256  1.00 20.02 LIG 0.27  HD
ENDBRANCH 24 25
ENDBRANCH 23 24
ENDBRANCH 22 23
ENDBRANCH 21 22
ENDBRANCH 6 21
ENDBRANCH 4 6
ENDBRANCH 1 2
BRANCH 1 29
ATOM     29  CB  THR D   3      21.621 -19.032  15.754  1.00 15.86 LIG 0.15  C 
ATOM     30  CG2 THR D   3      21.992 -20.318  15.020  1.00 16.15 LIG 0.04  C 
BRANCH 29 31
ATOM     31 OG1  THR D   3      22.023 -17.909  14.960  1.00 16.19 LIG-0.39  OA
ATOM     32 HG1  THR D   3      22.857 -17.920  14.862  1.00 16.19 LIG 0.21  HD
ENDBRANCH 29 31
ENDBRANCH 1 29
BRANCH 1 33
ATOM     33  N   THR D   3      19.537 -17.685  15.562  1.00 15.75 LIG-0.34  N 
ATOM     34  C   ARG D   2      18.222 -17.484  15.472  1.00 15.31 LIG 0.24  C 
ATOM     35 O    ARG D   2      17.390 -18.325  15.805  1.00 15.17 LIG-0.27  OA
ATOM     36 H    THR D   3      20.127 -17.089  15.370  1.00 15.75 LIG 0.16  HD
BRANCH 34 37
ATOM     37  CA  ARG D   2      17.773 -16.135  14.909  1.00 15.15 LIG 0.18  C 
BRANCH 37 38
ATOM     38  N   ARG D   2      18.754 -15.072  15.150  1.00 15.89 LIG-0.35  N 
ATOM     39  C   ALA D   1      19.048 -14.577  16.354  1.00 16.91 LIG 0.25  C 
ATOM     40 O    ALA D   1      18.433 -14.877  17.386  1.00 17.32 LIG-0.27  OA
ATOM     41 H    ARG D   2      19.131 -14.790  14.430  1.00 15.89 LIG 0.16  HD
BRANCH 39 42
ATOM     42  CA  ALA D   1      20.207 -13.580  16.404  1.00 17.08 LIG 0.27  C 
ATOM     43  CB  ALA D   1      21.519 -14.283  16.818  1.00 17.48 LIG 0.05  C 
BRANCH 42 44
ATOM     44  N   ALA D   1      19.906 -12.454  17.335  1.00 17.36 LIG-0.07  N 
ATOM     45 H3   ALA D   1      19.972 -11.681  16.899  1.00 17.36 LIG 0.28  HD
ATOM     46 H2   ALA D   1      20.485 -12.464  18.011  1.00 17.36 LIG 0.28  HD
ATOM     47 H1   ALA D   1      19.079 -12.544  17.653  1.00 17.36 LIG 0.28  HD
ENDBRANCH 42 44
ENDBRANCH 39 42
ENDBRANCH 37 38
BRANCH 37 48
ATOM     48  CB  ARG D   2      17.551 -16.258  13.394  1.00 15.08 LIG 0.04  C 
BRANCH 48 49
ATOM     49  CG  ARG D   2      17.302 -17.654  12.839  1.00 14.63 LIG 0.02  C 
BRANCH 49 50
ATOM     50  CD  ARG D   2      15.898 -17.750  12.227  1.00 13.91 LIG 0.14  C 
BRANCH 50 51
ATOM     51  NE  ARG D   2      15.068 -18.749  12.900  1.00 10.79 LIG-0.23  N 
ATOM     52 HE   ARG D   2      15.242 -19.579  12.756  1.00 10.79 LIG 0.18  HD
ATOM     53  CZ  ARG D   2      14.059 -18.459  13.721  1.00 10.30 LIG 0.67  C 
ATOM     54  NH2 ARG D   2      13.750 -17.190  13.992  1.00  9.50 LIG-0.23  N 
ATOM     55  NH1 ARG D   2      13.356 -19.439  14.269  1.00  9.44 LIG-0.23  N 
ATOM     56 2HH2 ARG D   2      13.097 -17.011  14.522  1.00  9.50 LIG 0.17  HD
ATOM     57 1HH2 ARG D   2      14.203 -16.552  13.636  1.00  9.50 LIG 0.17  HD
ATOM     58 1HH1 ARG D   2      13.552 -20.258  14.096  1.00  9.44 LIG 0.17  HD
ATOM     59 2HH1 ARG D   2      12.704 -19.256  14.800  1.00  9.44 LIG 0.17  HD
ENDBRANCH 50 51
ENDBRANCH 49 50
ENDBRANCH 48 49
ENDBRANCH 37 48
ENDBRANCH 34 37
ENDBRANCH 1 33
TORSDOF 24
ENDMDL
MODEL 20
USER: ADFR SOLUTION from run 66
USER: SCORE 18.304004 LL:  -2.740 LR: -16.036 RR:   0.000 FEB:  -8.877
USER: RMSD 6.447565
USER: SEED 65
USER: STATUS no improvement in best in 6 clusters for 5 generations
USER: GENES 26
USER: genes 0 Translation |==|  0.50610 0.39659 0.63733
USER: genes 1 Rotation |==|  0.60694 0.88694 0.50795 0.79795
USER: genes 2 Torsion [N]-CA--C-[N] |==|  0.95556
USER: genes 3 Torsion [C]-N--CA-[C] |==|  0.68029
USER: genes 4 Torsion [N]-CA--C-[N] |==|  0.04956
USER: genes 5 Torsion [C]-N--CA-[C] |==|  0.16434
USER: genes 6 Torsion [N]-CA--C-[O] |==|  0.19766
USER: genes 7 Torsion [N]-CA--CB-[CG] |==|  0.52223
USER: genes 8 Torsion [CA]-CB--CG-[CD] |==|  0.35249
USER: genes 9 Torsion [CB]-CG--CD-[OE1] |==|  0.25144
USER: genes 10 Torsion [N]-CA--CB-[CG] |==|  0.08771
USER: genes 11 Torsion [CA]-CB--CG-[CD] |==|  0.43360
USER: genes 12 Torsion [CB]-CG--CD-[CE] |==|  0.51748
USER: genes 13 Torsion [CG]-CD--CE-[NZ] |==|  0.80391
USER: genes 14 Torsion [CD]-CE--NZ-[HZ3] |==|  0.08185
USER: genes 15 Torsion [C]-CA--CB-[CG2] |==|  0.92340
USER: genes 16 Torsion [CA]-CB--OG1-[HG1] |==|  0.22030
USER: genes 17 Torsion [C]-CA--N-[C] |==|  0.82132
USER: genes 18 Torsion [N]-C--CA-[N] |==|  0.91571
USER: genes 19 Torsion [C]-CA--N-[C] |==|  0.66390
USER: genes 20 Torsion [N]-C--CA-[N] |==|  0.52994
USER: genes 21 Torsion [C]-CA--N-[H1] |==|  0.51291
USER: genes 22 Torsion [C]-CA--CB-[CG] |==|  0.34505
USER: genes 23 Torsion [CA]-CB--CG-[CD] |==|  0.37705
USER: genes 24 Torsion [CB]-CG--CD-[NE] |==|  0.18750
USER: genes 25 Torsion [CG]-CD--NE-[HE] |==|  0.69553
ROOT
ATOM      1  CA  THR D   3      19.481 -18.673  19.226  1.00 16.13 LIG 0.20  C 
ENDROOT
BRANCH 1 2
ATOM      2  C   THR D   3      18.126 -18.382  19.890  1.00 16.95 LIG 0.24  C 
ATOM      3 O    THR D   3      17.624 -19.206  20.661  1.00 16.12 LIG-0.27  OA
ATOM      4  N   LYS D   4      17.555 -17.214  19.580  1.00 18.15 LIG-0.35  N 
ATOM      5 H    LYS D   4      17.934 -16.632  19.074  1.00 18.15 LIG 0.16  HD
BRANCH 4 6
ATOM      6  CA  LYS D   4      16.230 -16.791  20.059  1.00 19.65 LIG 0.18  C 
BRANCH 6 7
ATOM      7  C   LYS D   4      15.280 -16.667  18.886  1.00 20.62 LIG 0.24  C 
ATOM      8 O    LYS D   4      14.227 -16.033  19.003  1.00 20.86 LIG-0.27  OA
ATOM      9  N   GLN D   5      15.640 -17.280  17.762  1.00 21.55 LIG-0.35  N 
ATOM     10 H    GLN D   5      16.365 -17.733  17.671  1.00 21.55 LIG 0.16  HD
BRANCH 9 11
ATOM     11  CA  GLN D   5      14.800 -17.226  16.558  1.00 22.83 LIG 0.16  C 
BRANCH 11 12
ATOM     12  C   GLN D   5      14.568 -15.794  16.079  1.00 22.91 LIG 0.22  C 
ATOM     13 O    GLN D   5      15.476 -15.140  15.565  1.00 23.29 LIG-0.29  OA
ENDBRANCH 11 12
BRANCH 11 14
ATOM     14  CB  GLN D   5      13.463 -17.936  16.787  1.00 22.86 LIG 0.04  C 
BRANCH 14 15
ATOM     15  CG  GLN D   5      12.611 -18.095  15.541  1.00 24.40 LIG 0.10  C 
BRANCH 15 16
ATOM     16  CD  GLN D   5      12.173 -19.527  15.296  1.00 24.21 LIG 0.21  C 
ATOM     17  NE2 GLN D   5      12.997 -20.281  14.565  1.00 25.13 LIG-0.37  N 
ATOM     18 22HE GLN D   5      12.797 -21.101  14.402  1.00 25.13 LIG 0.16  HD
ATOM     19 21HE GLN D   5      13.727 -19.947  14.259  1.00 25.13 LIG 0.16  HD
ATOM     20 OE1  GLN D   5      11.110 -19.956  15.761  1.00 25.71 LIG-0.27  OA
ENDBRANCH 15 16
ENDBRANCH 14 15
ENDBRANCH 11 14
ENDBRANCH 9 11
ENDBRANCH 6 7
BRANCH 6 21
ATOM     21  CB  LYS D   4      16.302 -15.417  20.732  1.00 19.73 LIG 0.04  C 
BRANCH 21 22
ATOM     22  CG  LYS D   4      17.340 -14.473  20.191  1.00 20.49 LIG 0.00  C 
BRANCH 22 23
ATOM     23  CD  LYS D   4      16.934 -13.040  20.496  1.00 20.73 LIG 0.03  C 
BRANCH 23 24
ATOM     24  CE  LYS D   4      17.877 -12.065  19.833  1.00 20.46 LIG 0.23  C 
BRANCH 24 25
ATOM     25  NZ  LYS D   4      19.210 -12.079  20.480  1.00 20.02 LIG-0.08  N 
ATOM     26 HZ3  LYS D   4      19.367 -12.886  20.819  1.00 20.02 LIG 0.27  HD
ATOM     27 HZ1  LYS D   4      19.835 -11.884  19.877  1.00 20.02 LIG 0.27  HD
ATOM     28 HZ2  LYS D   4      19.229 -11.475  21.134  1.00 20.02 LIG 0.27  HD
ENDBRANCH 24 25
ENDBRANCH 23 24
ENDBRANCH 22 23
ENDBRANCH 21 22
ENDBRANCH 6 21
ENDBRANCH 4 6
ENDBRANCH 1 2
BRANCH 1 29
ATOM     29  CB  THR D   3      20.605 -18.619  20.279  1.00 15.86 LIG 0.15  C 
ATOM     30  CG2 THR D   3      20.226 -17.684  21.424  1.00 16.15 LIG 0.04  C 
BRANCH 29 31
ATOM     31 OG1  THR D   3      20.833 -19.932  20.806  1.00 16.19 LIG-0.39  OA
ATOM     32 HG1  THR D   3      21.300 -20.374  20.266  1.00 16.19 LIG 0.21  HD
ENDBRANCH 29 31
ENDBRANCH 1 29
BRANCH 1 33
ATOM     33  N   THR D   3      19.785 -17.811  18.073  1.00 15.75 LIG-0.34  N 
ATOM     34  C   ARG D   2      19.054 -17.838  16.957  1.00 15.31 LIG 0.24  C 
ATOM     35 O    ARG D   2      18.049 -18.534  16.831  1.00 15.17 LIG-0.27  OA
ATOM     36 H    THR D   3      20.466 -17.298  18.186  1.00 15.75 LIG 0.16  HD
BRANCH 34 37
ATOM     37  CA  ARG D   2      19.536 -16.959  15.803  1.00 15.15 LIG 0.18  C 
BRANCH 37 38
ATOM     38  N   ARG D   2      20.233 -15.755  16.267  1.00 15.89 LIG-0.35  N 
ATOM     39  C   ALA D   1      19.854 -14.508  15.983  1.00 16.91 LIG 0.25  C 
ATOM     40 O    ALA D   1      18.942 -14.234  15.192  1.00 17.32 LIG-0.27  OA
ATOM     41 H    ARG D   2      20.923 -15.930  16.750  1.00 15.89 LIG 0.16  HD
BRANCH 39 42
ATOM     42  CA  ALA D   1      20.629 -13.395  16.690  1.00 17.08 LIG 0.27  C 
ATOM     43  CB  ALA D   1      20.790 -13.708  18.194  1.00 17.48 LIG 0.05  C 
BRANCH 42 44
ATOM     44  N   ALA D   1      19.960 -12.074  16.503  1.00 17.36 LIG-0.07  N 
ATOM     45 H3   ALA D   1      19.164 -12.085  16.901  1.00 17.36 LIG 0.28  HD
ATOM     46 H2   ALA D   1      19.856 -11.914  15.634  1.00 17.36 LIG 0.28  HD
ATOM     47 H1   ALA D   1      20.462 -11.433  16.863  1.00 17.36 LIG 0.28  HD
ENDBRANCH 42 44
ENDBRANCH 39 42
ENDBRANCH 37 38
BRANCH 37 48
ATOM     48  CB  ARG D   2      20.492 -17.762  14.908  1.00 15.08 LIG 0.04  C 
BRANCH 48 49
ATOM     49  CG  ARG D   2      20.143 -17.861  13.430  1.00 14.63 LIG 0.02  C 
BRANCH 49 50
ATOM     50  CD  ARG D   2      21.390 -17.635  12.564  1.00 13.91 LIG 0.14  C 
BRANCH 50 51
ATOM     51  NE  ARG D   2      22.365 -18.716  12.705  1.00 10.79 LIG-0.23  N 
ATOM     52 HE   ARG D   2      23.099 -18.544  13.119  1.00 10.79 LIG 0.18  HD
ATOM     53  CZ  ARG D   2      22.192 -19.951  12.234  1.00 10.30 LIG 0.67  C 
ATOM     54  NH2 ARG D   2      21.069 -20.281  11.595  1.00  9.50 LIG-0.23  N 
ATOM     55  NH1 ARG D   2      23.145 -20.857  12.400  1.00  9.44 LIG-0.23  N 
ATOM     56 2HH2 ARG D   2      20.965 -21.080  11.294  1.00  9.50 LIG 0.17  HD
ATOM     57 1HH2 ARG D   2      20.449 -19.695  11.484  1.00  9.50 LIG 0.17  HD
ATOM     58 1HH1 ARG D   2      23.871 -20.647  12.811  1.00  9.44 LIG 0.17  HD
ATOM     59 2HH1 ARG D   2      23.037 -21.655  12.098  1.00  9.44 LIG 0.17  HD
ENDBRANCH 50 51
ENDBRANCH 49 50
ENDBRANCH 48 49
ENDBRANCH 37 48
ENDBRANCH 34 37
ENDBRANCH 1 33
TORSDOF 24
ENDMDL
MODEL 21
USER: ADFR SOLUTION from run 140
USER: SCORE 19.063723 LL:  -3.582 LR: -16.034 RR:   0.000 FEB:  -8.875
USER: RMSD 3.280415
USER: SEED 139
USER: STATUS no improvement in best in 3 clusters for 5 generations
USER: GENES 26
USER: genes 0 Translation |==|  0.33101 0.43761 0.57944
USER: genes 1 Rotation |==|  0.56853 0.47501 0.51650 0.99438
USER: genes 2 Torsion [N]-CA--C-[N] |==|  0.41075
USER: genes 3 Torsion [C]-N--CA-[C] |==|  0.18064
USER: genes 4 Torsion [N]-CA--C-[N] |==|  0.01272
USER: genes 5 Torsion [C]-N--CA-[C] |==|  0.76451
USER: genes 6 Torsion [N]-CA--C-[O] |==|  0.08201
USER: genes 7 Torsion [N]-CA--CB-[CG] |==|  0.40066
USER: genes 8 Torsion [CA]-CB--CG-[CD] |==|  0.75816
USER: genes 9 Torsion [CB]-CG--CD-[OE1] |==|  0.85976
USER: genes 10 Torsion [N]-CA--CB-[CG] |==|  0.90169
USER: genes 11 Torsion [CA]-CB--CG-[CD] |==|  0.84041
USER: genes 12 Torsion [CB]-CG--CD-[CE] |==|  0.42451
USER: genes 13 Torsion [CG]-CD--CE-[NZ] |==|  0.17861
USER: genes 14 Torsion [CD]-CE--NZ-[HZ3] |==|  0.55408
USER: genes 15 Torsion [C]-CA--CB-[CG2] |==|  0.58237
USER: genes 16 Torsion [CA]-CB--OG1-[HG1] |==|  0.86765
USER: genes 17 Torsion [C]-CA--N-[C] |==|  0.80415
USER: genes 18 Torsion [N]-C--CA-[N] |==|  0.87322
USER: genes 19 Torsion [C]-CA--N-[C] |==|  0.86111
USER: genes 20 Torsion [N]-C--CA-[N] |==|  0.42014
USER: genes 21 Torsion [C]-CA--N-[H1] |==|  0.04990
USER: genes 22 Torsion [C]-CA--CB-[CG] |==|  0.20815
USER: genes 23 Torsion [CA]-CB--CG-[CD] |==|  0.39728
USER: genes 24 Torsion [CB]-CG--CD-[NE] |==|  0.68125
USER: genes 25 Torsion [CG]-CD--NE-[HE] |==|  0.83032
ROOT
ATOM      1  CA  THR D   3      16.198 -17.842  17.923  1.00 16.13 LIG 0.20  C 
ENDROOT
BRANCH 1 2
ATOM      2  C   THR D   3      16.097 -17.412  16.452  1.00 16.95 LIG 0.24  C 
ATOM      3 O    THR D   3      16.564 -16.328  16.090  1.00 16.12 LIG-0.27  OA
ATOM      4  N   LYS D   4      15.488 -18.268  15.626  1.00 18.15 LIG-0.35  N 
ATOM      5 H    LYS D   4      15.204 -19.038  15.883  1.00 18.15 LIG 0.16  HD
BRANCH 4 6
ATOM      6  CA  LYS D   4      15.235 -18.002  14.201  1.00 19.65 LIG 0.18  C 
BRANCH 6 7
ATOM      7  C   LYS D   4      16.552 -17.893  13.462  1.00 20.62 LIG 0.24  C 
ATOM      8 O    LYS D   4      16.568 -17.600  12.262  1.00 20.86 LIG-0.27  OA
ATOM      9  N   GLN D   5      17.652 -18.141  14.166  1.00 21.55 LIG-0.35  N 
ATOM     10 H    GLN D   5      17.653 -18.356  14.999  1.00 21.55 LIG 0.16  HD
BRANCH 9 11
ATOM     11  CA  GLN D   5      18.986 -18.062  13.556  1.00 22.83 LIG 0.16  C 
BRANCH 11 12
ATOM     12  C   GLN D   5      19.376 -19.360  12.850  1.00 22.91 LIG 0.22  C 
ATOM     13 O    GLN D   5      18.522 -20.097  12.355  1.00 23.29 LIG-0.29  OA
ENDBRANCH 11 12
BRANCH 11 14
ATOM     14  CB  GLN D   5      20.044 -17.678  14.592  1.00 22.86 LIG 0.04  C 
BRANCH 14 15
ATOM     15  CG  GLN D   5      21.395 -18.344  14.393  1.00 24.40 LIG 0.10  C 
BRANCH 15 16
ATOM     16  CD  GLN D   5      21.496 -19.701  15.064  1.00 24.21 LIG 0.21  C 
ATOM     17  NE2 GLN D   5      21.943 -20.704  14.306  1.00 25.13 LIG-0.37  N 
ATOM     18 22HE GLN D   5      22.023 -21.492  14.640  1.00 25.13 LIG 0.16  HD
ATOM     19 21HE GLN D   5      22.152 -20.562  13.484  1.00 25.13 LIG 0.16  HD
ATOM     20 OE1  GLN D   5      21.182 -19.849  16.251  1.00 25.71 LIG-0.27  OA
ENDBRANCH 15 16
ENDBRANCH 14 15
ENDBRANCH 11 14
ENDBRANCH 9 11
ENDBRANCH 6 7
BRANCH 6 21
ATOM     21  CB  LYS D   4      14.497 -16.673  14.013  1.00 19.73 LIG 0.04  C 
BRANCH 21 22
ATOM     22  CG  LYS D   4      13.493 -16.322  15.077  1.00 20.49 LIG 0.00  C 
BRANCH 22 23
ATOM     23  CD  LYS D   4      12.453 -17.427  15.181  1.00 20.73 LIG 0.03  C 
BRANCH 23 24
ATOM     24  CE  LYS D   4      11.866 -17.479  16.571  1.00 20.46 LIG 0.23  C 
BRANCH 24 25
ATOM     25  NZ  LYS D   4      11.120 -16.238  16.887  1.00 20.02 LIG-0.08  N 
ATOM     26 HZ3  LYS D   4      11.029 -16.163  17.769  1.00 20.02 LIG 0.27  HD
ATOM     27 HZ1  LYS D   4      11.566 -15.534  16.574  1.00 20.02 LIG 0.27  HD
ATOM     28 HZ2  LYS D   4      10.315 -16.271  16.508  1.00 20.02 LIG 0.27  HD
ENDBRANCH 24 25
ENDBRANCH 23 24
ENDBRANCH 22 23
ENDBRANCH 21 22
ENDBRANCH 6 21
ENDBRANCH 4 6
ENDBRANCH 1 2
BRANCH 1 29
ATOM     29  CB  THR D   3      14.919 -17.436  18.679  1.00 15.86 LIG 0.15  C 
ATOM     30  CG2 THR D   3      15.226 -17.160  20.149  1.00 16.15 LIG 0.04  C 
BRANCH 29 31
ATOM     31 OG1  THR D   3      14.367 -16.252  18.089  1.00 16.19 LIG-0.39  OA
ATOM     32 HG1  THR D   3      14.976 -15.683  17.980  1.00 16.19 LIG 0.21  HD
ENDBRANCH 29 31
ENDBRANCH 1 29
BRANCH 1 33
ATOM     33  N   THR D   3      17.405 -17.357  18.611  1.00 15.75 LIG-0.34  N 
ATOM     34  C   ARG D   2      18.619 -17.833  18.332  1.00 15.31 LIG 0.24  C 
ATOM     35 O    ARG D   2      18.827 -18.662  17.448  1.00 15.17 LIG-0.27  OA
ATOM     36 H    THR D   3      17.254 -16.748  19.200  1.00 15.75 LIG 0.16  HD
BRANCH 34 37
ATOM     37  CA  ARG D   2      19.773 -17.308  19.186  1.00 15.15 LIG 0.18  C 
BRANCH 37 38
ATOM     38  N   ARG D   2      19.729 -15.852  19.355  1.00 15.89 LIG-0.35  N 
ATOM     39  C   ALA D   1      19.589 -14.981  18.355  1.00 16.91 LIG 0.25  C 
ATOM     40 O    ALA D   1      19.607 -15.303  17.160  1.00 17.32 LIG-0.27  OA
ATOM     41 H    ARG D   2      19.802 -15.606  20.176  1.00 15.89 LIG 0.16  HD
BRANCH 39 42
ATOM     42  CA  ALA D   1      19.414 -13.517  18.761  1.00 17.08 LIG 0.27  C 
ATOM     43  CB  ALA D   1      17.930 -13.201  19.052  1.00 17.48 LIG 0.05  C 
BRANCH 42 44
ATOM     44  N   ALA D   1      19.943 -12.602  17.707  1.00 17.36 LIG-0.07  N 
ATOM     45 H3   ALA D   1      20.741 -12.293  17.954  1.00 17.36 LIG 0.28  HD
ATOM     46 H2   ALA D   1      19.382 -11.919  17.597  1.00 17.36 LIG 0.28  HD
ATOM     47 H1   ALA D   1      20.022 -13.046  16.939  1.00 17.36 LIG 0.28  HD
ENDBRANCH 42 44
ENDBRANCH 39 42
ENDBRANCH 37 38
BRANCH 37 48
ATOM     48  CB  ARG D   2      19.725 -17.963  20.574  1.00 15.08 LIG 0.04  C 
BRANCH 48 49
ATOM     49  CG  ARG D   2      20.178 -19.413  20.676  1.00 14.63 LIG 0.02  C 
BRANCH 49 50
ATOM     50  CD  ARG D   2      20.932 -19.653  21.991  1.00 13.91 LIG 0.14  C 
BRANCH 50 51
ATOM     51  NE  ARG D   2      22.338 -19.991  21.769  1.00 10.79 LIG-0.23  N 
ATOM     52 HE   ARG D   2      22.514 -20.702  21.318  1.00 10.79 LIG 0.18  HD
ATOM     53  CZ  ARG D   2      23.365 -19.270  22.220  1.00 10.30 LIG 0.67  C 
ATOM     54  NH2 ARG D   2      23.155 -18.151  22.913  1.00  9.50 LIG-0.23  N 
ATOM     55  NH1 ARG D   2      24.605 -19.672  21.978  1.00  9.44 LIG-0.23  N 
ATOM     56 2HH2 ARG D   2      23.822 -17.692  23.200  1.00  9.50 LIG 0.17  HD
ATOM     57 1HH2 ARG D   2      22.351 -17.889  23.073  1.00  9.50 LIG 0.17  HD
ATOM     58 1HH1 ARG D   2      24.744 -20.394  21.532  1.00  9.44 LIG 0.17  HD
ATOM     59 2HH1 ARG D   2      25.270 -19.209  22.267  1.00  9.44 LIG 0.17  HD
ENDBRANCH 50 51
ENDBRANCH 49 50
ENDBRANCH 48 49
ENDBRANCH 37 48
ENDBRANCH 34 37
ENDBRANCH 1 33
TORSDOF 24
ENDMDL
MODEL 22
USER: ADFR SOLUTION from run 165
USER: SCORE 19.578962 LL:  -3.821 LR: -16.008 RR:   0.000 FEB:  -8.848
USER: RMSD 8.882927
USER: SEED 164
USER: STATUS no improvement in best in 4 clusters for 5 generations
USER: GENES 26
USER: genes 0 Translation |==|  0.54736 0.36783 0.51366
USER: genes 1 Rotation |==|  0.62595 0.97522 0.42317 0.54902
USER: genes 2 Torsion [N]-CA--C-[N] |==|  0.37943
USER: genes 3 Torsion [C]-N--CA-[C] |==|  0.15946
USER: genes 4 Torsion [N]-CA--C-[N] |==|  0.07778
USER: genes 5 Torsion [C]-N--CA-[C] |==|  0.54113
USER: genes 6 Torsion [N]-CA--C-[O] |==|  0.48775
USER: genes 7 Torsion [N]-CA--CB-[CG] |==|  0.55902
USER: genes 8 Torsion [CA]-CB--CG-[CD] |==|  0.50749
USER: genes 9 Torsion [CB]-CG--CD-[OE1] |==|  0.37498
USER: genes 10 Torsion [N]-CA--CB-[CG] |==|  0.56899
USER: genes 11 Torsion [CA]-CB--CG-[CD] |==|  0.39554
USER: genes 12 Torsion [CB]-CG--CD-[CE] |==|  0.38268
USER: genes 13 Torsion [CG]-CD--CE-[NZ] |==|  0.93315
USER: genes 14 Torsion [CD]-CE--NZ-[HZ3] |==|  0.20836
USER: genes 15 Torsion [C]-CA--CB-[CG2] |==|  0.44498
USER: genes 16 Torsion [CA]-CB--OG1-[HG1] |==|  0.56948
USER: genes 17 Torsion [C]-CA--N-[C] |==|  0.84355
USER: genes 18 Torsion [N]-C--CA-[N] |==|  0.42486
USER: genes 19 Torsion [C]-CA--N-[C] |==|  0.70281
USER: genes 20 Torsion [N]-C--CA-[N] |==|  0.53675
USER: genes 21 Torsion [C]-CA--N-[H1] |==|  0.66337
USER: genes 22 Torsion [C]-CA--CB-[CG] |==|  0.98872
USER: genes 23 Torsion [CA]-CB--CG-[CD] |==|  0.26622
USER: genes 24 Torsion [CB]-CG--CD-[NE] |==|  0.48582
USER: genes 25 Torsion [CG]-CD--NE-[HE] |==|  0.25275
ROOT
ATOM      1  CA  THR D   3      20.255 -19.255  16.443  1.00 16.13 LIG 0.20  C 
ENDROOT
BRANCH 1 2
ATOM      2  C   THR D   3      20.306 -18.821  17.916  1.00 16.95 LIG 0.24  C 
ATOM      3 O    THR D   3      20.492 -17.635  18.207  1.00 16.12 LIG-0.27  OA
ATOM      4  N   LYS D   4      20.140 -19.788  18.824  1.00 18.15 LIG-0.35  N 
ATOM      5 H    LYS D   4      19.970 -20.602  18.608  1.00 18.15 LIG 0.16  HD
BRANCH 4 6
ATOM      6  CA  LYS D   4      20.226 -19.579  20.278  1.00 19.65 LIG 0.18  C 
BRANCH 6 7
ATOM      7  C   LYS D   4      19.224 -18.525  20.700  1.00 20.62 LIG 0.24  C 
ATOM      8 O    LYS D   4      19.432 -17.836  21.704  1.00 20.86 LIG-0.27  OA
ATOM      9  N   GLN D   5      18.133 -18.406  19.949  1.00 21.55 LIG-0.35  N 
ATOM     10 H    GLN D   5      17.971 -18.886  19.255  1.00 21.55 LIG 0.16  HD
BRANCH 9 11
ATOM     11  CA  GLN D   5      17.094 -17.416  20.261  1.00 22.83 LIG 0.16  C 
BRANCH 11 12
ATOM     12  C   GLN D   5      15.792 -17.688  19.510  1.00 22.91 LIG 0.22  C 
ATOM     13 O    GLN D   5      14.786 -17.005  19.710  1.00 23.29 LIG-0.29  OA
ENDBRANCH 11 12
BRANCH 11 14
ATOM     14  CB  GLN D   5      17.586 -15.994  19.980  1.00 22.86 LIG 0.04  C 
BRANCH 14 15
ATOM     15  CG  GLN D   5      16.825 -14.905  20.716  1.00 24.40 LIG 0.10  C 
BRANCH 15 16
ATOM     16  CD  GLN D   5      17.296 -13.506  20.365  1.00 24.21 LIG 0.21  C 
ATOM     17  NE2 GLN D   5      18.617 -13.320  20.321  1.00 25.13 LIG-0.37  N 
ATOM     18 22HE GLN D   5      18.935 -12.546  20.122  1.00 25.13 LIG 0.16  HD
ATOM     19 21HE GLN D   5      19.149 -13.973  20.491  1.00 25.13 LIG 0.16  HD
ATOM     20 OE1  GLN D   5      16.486 -12.602  20.130  1.00 25.71 LIG-0.27  OA
ENDBRANCH 15 16
ENDBRANCH 14 15
ENDBRANCH 11 14
ENDBRANCH 9 11
ENDBRANCH 6 7
BRANCH 6 21
ATOM     21  CB  LYS D   4      21.614 -19.072  20.679  1.00 19.73 LIG 0.04  C 
BRANCH 21 22
ATOM     22  CG  LYS D   4      22.037 -19.359  22.094  1.00 20.49 LIG 0.00  C 
BRANCH 22 23
ATOM     23  CD  LYS D   4      23.520 -19.691  22.125  1.00 20.73 LIG 0.03  C 
BRANCH 23 24
ATOM     24  CE  LYS D   4      24.193 -19.020  23.298  1.00 20.46 LIG 0.23  C 
BRANCH 24 25
ATOM     25  NZ  LYS D   4      23.438 -17.824  23.740  1.00 20.02 LIG-0.08  N 
ATOM     26 HZ3  LYS D   4      22.709 -18.079  24.182  1.00 20.02 LIG 0.27  HD
ATOM     27 HZ1  LYS D   4      23.950 -17.329  24.274  1.00 20.02 LIG 0.27  HD
ATOM     28 HZ2  LYS D   4      23.199 -17.344  23.029  1.00 20.02 LIG 0.27  HD
ENDBRANCH 24 25
ENDBRANCH 23 24
ENDBRANCH 22 23
ENDBRANCH 21 22
ENDBRANCH 6 21
ENDBRANCH 4 6
ENDBRANCH 1 2
BRANCH 1 29
ATOM     29  CB  THR D   3      21.685 -19.455  15.904  1.00 15.86 LIG 0.15  C 
ATOM     30  CG2 THR D   3      21.672 -20.329  14.654  1.00 16.15 LIG 0.04  C 
BRANCH 29 31
ATOM     31 OG1  THR D   3      22.257 -18.182  15.577  1.00 16.19 LIG-0.39  OA
ATOM     32 HG1  THR D   3      22.852 -18.284  14.994  1.00 16.19 LIG 0.21  HD
ENDBRANCH 29 31
ENDBRANCH 1 29
BRANCH 1 33
ATOM     33  N   THR D   3      19.475 -18.358  15.577  1.00 15.75 LIG-0.34  N 
ATOM     34  C   ARG D   2      18.199 -18.063  15.829  1.00 15.31 LIG 0.24  C 
ATOM     35 O    ARG D   2      17.601 -18.468  16.824  1.00 15.17 LIG-0.27  OA
ATOM     36 H    THR D   3      19.914 -18.047  14.906  1.00 15.75 LIG 0.16  HD
BRANCH 34 37
ATOM     37  CA  ARG D   2      17.481 -17.193  14.797  1.00 15.15 LIG 0.18  C 
BRANCH 37 38
ATOM     38  N   ARG D   2      16.034 -17.426  14.777  1.00 15.89 LIG-0.35  N 
ATOM     39  C   ALA D   1      15.389 -18.078  13.807  1.00 16.91 LIG 0.25  C 
ATOM     40 O    ALA D   1      15.928 -18.448  12.756  1.00 17.32 LIG-0.27  OA
ATOM     41 H    ARG D   2      15.629 -17.097  15.461  1.00 15.89 LIG 0.16  HD
BRANCH 39 42
ATOM     42  CA  ALA D   1      13.902 -18.342  14.052  1.00 17.08 LIG 0.27  C 
ATOM     43  CB  ALA D   1      13.663 -18.829  15.499  1.00 17.48 LIG 0.05  C 
BRANCH 42 44
ATOM     44  N   ALA D   1      13.367 -19.336  13.075  1.00 17.36 LIG-0.07  N 
ATOM     45 H3   ALA D   1      13.068 -20.051  13.513  1.00 17.36 LIG 0.28  HD
ATOM     46 H2   ALA D   1      14.014 -19.579  12.515  1.00 17.36 LIG 0.28  HD
ATOM     47 H1   ALA D   1      12.698 -18.969  12.615  1.00 17.36 LIG 0.28  HD
ENDBRANCH 42 44
ENDBRANCH 39 42
ENDBRANCH 37 38
BRANCH 37 48
ATOM     48  CB  ARG D   2      17.733 -15.710  15.111  1.00 15.08 LIG 0.04  C 
BRANCH 48 49
ATOM     49  CG  ARG D   2      18.520 -15.391  16.374  1.00 14.63 LIG 0.02  C 
BRANCH 49 50
ATOM     50  CD  ARG D   2      20.005 -15.183  16.048  1.00 13.91 LIG 0.14  C 
BRANCH 50 51
ATOM     51  NE  ARG D   2      20.773 -14.756  17.217  1.00 10.79 LIG-0.23  N 
ATOM     52 HE   ARG D   2      21.135 -15.366  17.704  1.00 10.79 LIG 0.18  HD
ATOM     53  CZ  ARG D   2      20.950 -13.486  17.579  1.00 10.30 LIG 0.67  C 
ATOM     54  NH2 ARG D   2      20.425 -12.496  16.856  1.00  9.50 LIG-0.23  N 
ATOM     55  NH1 ARG D   2      21.653 -13.204  18.667  1.00  9.44 LIG-0.23  N 
ATOM     56 2HH2 ARG D   2      20.543 -11.679  17.096  1.00  9.50 LIG 0.17  HD
ATOM     57 1HH2 ARG D   2      19.967 -12.675  16.151  1.00  9.50 LIG 0.17  HD
ATOM     58 1HH1 ARG D   2      21.992 -13.840  19.136  1.00  9.44 LIG 0.17  HD
ATOM     59 2HH1 ARG D   2      21.769 -12.385  18.904  1.00  9.44 LIG 0.17  HD
ENDBRANCH 50 51
ENDBRANCH 49 50
ENDBRANCH 48 49
ENDBRANCH 37 48
ENDBRANCH 34 37
ENDBRANCH 1 33
TORSDOF 24
ENDMDL
MODEL 23
USER: ADFR SOLUTION from run 20
USER: SCORE 18.593611 LL:  -4.078 LR: -15.996 RR:   0.000 FEB:  -8.837
USER: RMSD 7.015780
USER: SEED 19
USER: STATUS no improvement in best in 7 clusters for 5 generations
USER: GENES 26
USER: genes 0 Translation |==|  0.51646 0.38092 0.62592
USER: genes 1 Rotation |==|  0.58091 0.83198 0.52153 0.86439
USER: genes 2 Torsion [N]-CA--C-[N] |==|  0.79126
USER: genes 3 Torsion [C]-N--CA-[C] |==|  0.82861
USER: genes 4 Torsion [N]-CA--C-[N] |==|  0.90611
USER: genes 5 Torsion [C]-N--CA-[C] |==|  0.68669
USER: genes 6 Torsion [N]-CA--C-[O] |==|  0.96410
USER: genes 7 Torsion [N]-CA--CB-[CG] |==|  0.18652
USER: genes 8 Torsion [CA]-CB--CG-[CD] |==|  0.72420
USER: genes 9 Torsion [CB]-CG--CD-[OE1] |==|  0.23333
USER: genes 10 Torsion [N]-CA--CB-[CG] |==|  0.09886
USER: genes 11 Torsion [CA]-CB--CG-[CD] |==|  0.45702
USER: genes 12 Torsion [CB]-CG--CD-[CE] |==|  0.58537
USER: genes 13 Torsion [CG]-CD--CE-[NZ] |==|  0.83922
USER: genes 14 Torsion [CD]-CE--NZ-[HZ3] |==|  0.91741
USER: genes 15 Torsion [C]-CA--CB-[CG2] |==|  0.09083
USER: genes 16 Torsion [CA]-CB--OG1-[HG1] |==|  0.78266
USER: genes 17 Torsion [C]-CA--N-[C] |==|  0.67503
USER: genes 18 Torsion [N]-C--CA-[N] |==|  0.52816
USER: genes 19 Torsion [C]-CA--N-[C] |==|  0.16667
USER: genes 20 Torsion [N]-C--CA-[N] |==|  0.18719
USER: genes 21 Torsion [C]-CA--N-[H1] |==|  0.40272
USER: genes 22 Torsion [C]-CA--CB-[CG] |==|  0.53501
USER: genes 23 Torsion [CA]-CB--CG-[CD] |==|  0.70727
USER: genes 24 Torsion [CB]-CG--CD-[NE] |==|  0.00763
USER: genes 25 Torsion [CG]-CD--NE-[HE] |==|  0.08196
ROOT
ATOM      1  CA  THR D   3      19.676 -18.990  18.969  1.00 16.13 LIG 0.20  C 
ENDROOT
BRANCH 1 2
ATOM      2  C   THR D   3      18.162 -18.759  19.103  1.00 16.95 LIG 0.24  C 
ATOM      3 O    THR D   3      17.367 -19.600  18.672  1.00 16.12 LIG-0.27  OA
ATOM      4  N   LYS D   4      17.788 -17.623  19.698  1.00 18.15 LIG-0.35  N 
ATOM      5 H    LYS D   4      18.352 -17.066  20.030  1.00 18.15 LIG 0.16  HD
BRANCH 4 6
ATOM      6  CA  LYS D   4      16.389 -17.195  19.855  1.00 19.65 LIG 0.18  C 
BRANCH 6 7
ATOM      7  C   LYS D   4      15.758 -17.011  18.490  1.00 20.62 LIG 0.24  C 
ATOM      8 O    LYS D   4      14.566 -17.280  18.316  1.00 20.86 LIG-0.27  OA
ATOM      9  N   GLN D   5      16.554 -16.568  17.521  1.00 21.55 LIG-0.35  N 
ATOM     10 H    GLN D   5      17.388 -16.388  17.627  1.00 21.55 LIG 0.16  HD
BRANCH 9 11
ATOM     11  CA  GLN D   5      16.052 -16.349  16.159  1.00 22.83 LIG 0.16  C 
BRANCH 11 12
ATOM     12  C   GLN D   5      16.658 -17.328  15.154  1.00 22.91 LIG 0.22  C 
ATOM     13 O    GLN D   5      17.634 -18.020  15.449  1.00 23.29 LIG-0.29  OA
ENDBRANCH 11 12
BRANCH 11 14
ATOM     14  CB  GLN D   5      16.291 -14.906  15.709  1.00 22.86 LIG 0.04  C 
BRANCH 14 15
ATOM     15  CG  GLN D   5      17.752 -14.535  15.524  1.00 24.40 LIG 0.10  C 
BRANCH 15 16
ATOM     16  CD  GLN D   5      18.331 -13.782  16.707  1.00 24.21 LIG 0.21  C 
ATOM     17  NE2 GLN D   5      18.337 -12.451  16.616  1.00 25.13 LIG-0.37  N 
ATOM     18 22HE GLN D   5      18.650 -11.978  17.261  1.00 25.13 LIG 0.16  HD
ATOM     19 21HE GLN D   5      18.027 -12.067  15.911  1.00 25.13 LIG 0.16  HD
ATOM     20 OE1  GLN D   5      18.764 -14.386  17.696  1.00 25.71 LIG-0.27  OA
ENDBRANCH 15 16
ENDBRANCH 14 15
ENDBRANCH 11 14
ENDBRANCH 9 11
ENDBRANCH 6 7
BRANCH 6 21
ATOM     21  CB  LYS D   4      16.304 -15.849  20.580  1.00 19.73 LIG 0.04  C 
BRANCH 21 22
ATOM     22  CG  LYS D   4      17.402 -14.867  20.275  1.00 20.49 LIG 0.00  C 
BRANCH 22 23
ATOM     23  CD  LYS D   4      16.991 -13.481  20.747  1.00 20.73 LIG 0.03  C 
BRANCH 23 24
ATOM     24  CE  LYS D   4      17.607 -12.415  19.874  1.00 20.46 LIG 0.23  C 
BRANCH 24 25
ATOM     25  NZ  LYS D   4      19.086 -12.517  19.861  1.00 20.02 LIG-0.08  N 
ATOM     26 HZ3  LYS D   4      19.367 -12.853  20.636  1.00 20.02 LIG 0.27  HD
ATOM     27 HZ1  LYS D   4      19.342 -13.052  19.197  1.00 20.02 LIG 0.27  HD
ATOM     28 HZ2  LYS D   4      19.439 -11.709  19.744  1.00 20.02 LIG 0.27  HD
ENDBRANCH 24 25
ENDBRANCH 23 24
ENDBRANCH 22 23
ENDBRANCH 21 22
ENDBRANCH 6 21
ENDBRANCH 4 6
ENDBRANCH 1 2
BRANCH 1 29
ATOM     29  CB  THR D   3      20.361 -18.789  20.335  1.00 15.86 LIG 0.15  C 
ATOM     30  CG2 THR D   3      19.436 -19.218  21.470  1.00 16.15 LIG 0.04  C 
BRANCH 29 31
ATOM     31 OG1  THR D   3      21.560 -19.572  20.390  1.00 16.19 LIG-0.39  OA
ATOM     32 HG1  THR D   3      21.364 -20.375  20.541  1.00 16.19 LIG 0.21  HD
ENDBRANCH 29 31
ENDBRANCH 1 29
BRANCH 1 33
ATOM     33  N   THR D   3      20.318 -18.181  17.922  1.00 15.75 LIG-0.34  N 
ATOM     34  C   ARG D   2      20.909 -18.734  16.863  1.00 15.31 LIG 0.24  C 
ATOM     35 O    ARG D   2      20.911 -19.945  16.652  1.00 15.17 LIG-0.27  OA
ATOM     36 H    THR D   3      20.276 -17.332  18.057  1.00 15.75 LIG 0.16  HD
BRANCH 34 37
ATOM     37  CA  ARG D   2      21.619 -17.782  15.899  1.00 15.15 LIG 0.18  C 
BRANCH 37 38
ATOM     38  N   ARG D   2      22.029 -18.444  14.657  1.00 15.89 LIG-0.35  N 
ATOM     39  C   ALA D   1      21.188 -19.034  13.804  1.00 16.91 LIG 0.25  C 
ATOM     40 O    ALA D   1      19.983 -19.195  14.034  1.00 17.32 LIG-0.27  OA
ATOM     41 H    ARG D   2      22.878 -18.416  14.524  1.00 15.89 LIG 0.16  HD
BRANCH 39 42
ATOM     42  CA  ALA D   1      21.803 -19.532  12.495  1.00 17.08 LIG 0.27  C 
ATOM     43  CB  ALA D   1      20.701 -19.954  11.497  1.00 17.48 LIG 0.05  C 
BRANCH 42 44
ATOM     44  N   ALA D   1      22.742 -20.665  12.741  1.00 17.36 LIG-0.07  N 
ATOM     45 H3   ALA D   1      22.518 -21.078  13.498  1.00 17.36 LIG 0.28  HD
ATOM     46 H2   ALA D   1      23.573 -20.354  12.808  1.00 17.36 LIG 0.28  HD
ATOM     47 H1   ALA D   1      22.695 -21.243  12.065  1.00 17.36 LIG 0.28  HD
ENDBRANCH 42 44
ENDBRANCH 39 42
ENDBRANCH 37 38
BRANCH 37 48
ATOM     48  CB  ARG D   2      20.683 -16.616  15.546  1.00 15.08 LIG 0.04  C 
BRANCH 48 49
ATOM     49  CG  ARG D   2      21.091 -15.725  14.381  1.00 14.63 LIG 0.02  C 
BRANCH 49 50
ATOM     50  CD  ARG D   2      21.617 -14.377  14.890  1.00 13.91 LIG 0.14  C 
BRANCH 50 51
ATOM     51  NE  ARG D   2      21.654 -14.313  16.351  1.00 10.79 LIG-0.23  N 
ATOM     52 HE   ARG D   2      21.775 -15.047  16.783  1.00 10.79 LIG 0.18  HD
ATOM     53  CZ  ARG D   2      21.511 -13.193  17.059  1.00 10.30 LIG 0.67  C 
ATOM     54  NH2 ARG D   2      21.334 -12.022  16.446  1.00  9.50 LIG-0.23  N 
ATOM     55  NH1 ARG D   2      21.544 -13.244  18.383  1.00  9.44 LIG-0.23  N 
ATOM     56 2HH2 ARG D   2      21.242 -11.304  16.910  1.00  9.50 LIG 0.17  HD
ATOM     57 1HH2 ARG D   2      21.310 -11.986  15.587  1.00  9.50 LIG 0.17  HD
ATOM     58 1HH1 ARG D   2      21.657 -13.997  18.782  1.00  9.44 LIG 0.17  HD
ATOM     59 2HH1 ARG D   2      21.453 -12.523  18.844  1.00  9.44 LIG 0.17  HD
ENDBRANCH 50 51
ENDBRANCH 49 50
ENDBRANCH 48 49
ENDBRANCH 37 48
ENDBRANCH 34 37
ENDBRANCH 1 33
TORSDOF 24
ENDMDL
MODEL 24
USER: ADFR SOLUTION from run 105
USER: SCORE 18.644847 LL:  -3.943 LR: -15.959 RR:   0.000 FEB:  -8.800
USER: RMSD 6.101432
USER: SEED 104
USER: STATUS 1 or 2 clusters left
USER: GENES 26
USER: genes 0 Translation |==|  0.63195 0.40989 0.44253
USER: genes 1 Rotation |==|  0.56201 0.41980 0.84694 0.84548
USER: genes 2 Torsion [N]-CA--C-[N] |==|  0.46645
USER: genes 3 Torsion [C]-N--CA-[C] |==|  0.76763
USER: genes 4 Torsion [N]-CA--C-[N] |==|  0.91174
USER: genes 5 Torsion [C]-N--CA-[C] |==|  0.17223
USER: genes 6 Torsion [N]-CA--C-[O] |==|  0.24155
USER: genes 7 Torsion [N]-CA--CB-[CG] |==|  0.63932
USER: genes 8 Torsion [CA]-CB--CG-[CD] |==|  0.74408
USER: genes 9 Torsion [CB]-CG--CD-[OE1] |==|  0.07685
USER: genes 10 Torsion [N]-CA--CB-[CG] |==|  0.16751
USER: genes 11 Torsion [CA]-CB--CG-[CD] |==|  0.28955
USER: genes 12 Torsion [CB]-CG--CD-[CE] |==|  0.50982
USER: genes 13 Torsion [CG]-CD--CE-[NZ] |==|  0.20689
USER: genes 14 Torsion [CD]-CE--NZ-[HZ3] |==|  0.94998
USER: genes 15 Torsion [C]-CA--CB-[CG2] |==|  0.90399
USER: genes 16 Torsion [CA]-CB--OG1-[HG1] |==|  0.64880
USER: genes 17 Torsion [C]-CA--N-[C] |==|  0.44881
USER: genes 18 Torsion [N]-C--CA-[N] |==|  0.01951
USER: genes 19 Torsion [C]-CA--N-[C] |==|  0.69685
USER: genes 20 Torsion [N]-C--CA-[N] |==|  0.41035
USER: genes 21 Torsion [C]-CA--N-[H1] |==|  0.70150
USER: genes 22 Torsion [C]-CA--CB-[CG] |==|  0.31998
USER: genes 23 Torsion [CA]-CB--CG-[CD] |==|  0.92154
USER: genes 24 Torsion [CB]-CG--CD-[NE] |==|  0.64112
USER: genes 25 Torsion [CG]-CD--NE-[HE] |==|  0.79557
ROOT
ATOM      1  CA  THR D   3      21.841 -18.404  14.843  1.00 16.13 LIG 0.20  C 
ENDROOT
BRANCH 1 2
ATOM      2  C   THR D   3      21.893 -18.023  13.355  1.00 16.95 LIG 0.24  C 
ATOM      3 O    THR D   3      21.265 -17.042  12.944  1.00 16.12 LIG-0.27  OA
ATOM      4  N   LYS D   4      22.640 -18.805  12.570  1.00 18.15 LIG-0.35  N 
ATOM      5 H    LYS D   4      23.104 -19.461  12.876  1.00 18.15 LIG 0.16  HD
BRANCH 4 6
ATOM      6  CA  LYS D   4      22.755 -18.643  11.112  1.00 19.65 LIG 0.18  C 
BRANCH 6 7
ATOM      7  C   LYS D   4      21.593 -19.332  10.430  1.00 20.62 LIG 0.24  C 
ATOM      8 O    LYS D   4      21.133 -18.879   9.377  1.00 20.86 LIG-0.27  OA
ATOM      9  N   GLN D   5      21.108 -20.416  11.030  1.00 21.55 LIG-0.35  N 
ATOM     10 H    GLN D   5      21.412 -20.735  11.768  1.00 21.55 LIG 0.16  HD
BRANCH 9 11
ATOM     11  CA  GLN D   5      19.984 -21.168  10.458  1.00 22.83 LIG 0.16  C 
BRANCH 11 12
ATOM     12  C   GLN D   5      20.316 -21.751   9.086  1.00 22.91 LIG 0.22  C 
ATOM     13 O    GLN D   5      20.861 -22.851   8.977  1.00 23.29 LIG-0.29  OA
ENDBRANCH 11 12
BRANCH 11 14
ATOM     14  CB  GLN D   5      18.724 -20.302  10.380  1.00 22.86 LIG 0.04  C 
BRANCH 14 15
ATOM     15  CG  GLN D   5      17.479 -20.943  10.967  1.00 24.40 LIG 0.10  C 
BRANCH 15 16
ATOM     16  CD  GLN D   5      16.659 -21.705   9.943  1.00 24.21 LIG 0.21  C 
ATOM     17  NE2 GLN D   5      15.349 -21.794  10.181  1.00 25.13 LIG-0.37  N 
ATOM     18 22HE GLN D   5      14.840 -22.211   9.628  1.00 25.13 LIG 0.16  HD
ATOM     19 21HE GLN D   5      15.015 -21.433  10.886  1.00 25.13 LIG 0.16  HD
ATOM     20 OE1  GLN D   5      17.193 -22.204   8.945  1.00 25.71 LIG-0.27  OA
ENDBRANCH 15 16
ENDBRANCH 14 15
ENDBRANCH 11 14
ENDBRANCH 9 11
ENDBRANCH 6 7
BRANCH 6 21
ATOM     21  CB  LYS D   4      24.040 -19.290  10.587  1.00 19.73 LIG 0.04  C 
BRANCH 21 22
ATOM     22  CG  LYS D   4      24.176 -20.769  10.826  1.00 20.49 LIG 0.00  C 
BRANCH 22 23
ATOM     23  CD  LYS D   4      23.912 -21.521   9.532  1.00 20.73 LIG 0.03  C 
BRANCH 23 24
ATOM     24  CE  LYS D   4      23.957 -23.012   9.761  1.00 20.46 LIG 0.23  C 
BRANCH 24 25
ATOM     25  NZ  LYS D   4      22.742 -23.486  10.466  1.00 20.02 LIG-0.08  N 
ATOM     26 HZ3  LYS D   4      22.335 -22.796  10.853  1.00 20.02 LIG 0.27  HD
ATOM     27 HZ1  LYS D   4      22.189 -23.866   9.882  1.00 20.02 LIG 0.27  HD
ATOM     28 HZ2  LYS D   4      22.972 -24.080  11.088  1.00 20.02 LIG 0.27  HD
ENDBRANCH 24 25
ENDBRANCH 23 24
ENDBRANCH 22 23
ENDBRANCH 21 22
ENDBRANCH 6 21
ENDBRANCH 4 6
ENDBRANCH 1 2
BRANCH 1 29
ATOM     29  CB  THR D   3      21.129 -19.759  15.015  1.00 15.86 LIG 0.15  C 
ATOM     30  CG2 THR D   3      20.014 -19.916  13.984  1.00 16.15 LIG 0.04  C 
BRANCH 29 31
ATOM     31 OG1  THR D   3      22.074 -20.823  14.845  1.00 16.19 LIG-0.39  OA
ATOM     32 HG1  THR D   3      21.791 -21.359  14.263  1.00 16.19 LIG 0.21  HD
ENDBRANCH 29 31
ENDBRANCH 1 29
BRANCH 1 33
ATOM     33  N   THR D   3      21.247 -17.372  15.708  1.00 15.75 LIG-0.34  N 
ATOM     34  C   ARG D   2      20.794 -17.650  16.931  1.00 15.31 LIG 0.24  C 
ATOM     35 O    ARG D   2      20.889 -18.762  17.446  1.00 15.17 LIG-0.27  OA
ATOM     36 H    THR D   3      21.222 -16.588  15.355  1.00 15.75 LIG 0.16  HD
BRANCH 34 37
ATOM     37  CA  ARG D   2      20.117 -16.505  17.686  1.00 15.15 LIG 0.18  C 
BRANCH 37 38
ATOM     38  N   ARG D   2      19.936 -15.313  16.851  1.00 15.89 LIG-0.35  N 
ATOM     39  C   ALA D   1      20.620 -14.177  17.002  1.00 16.91 LIG 0.25  C 
ATOM     40 O    ALA D   1      21.394 -13.964  17.944  1.00 17.32 LIG-0.27  OA
ATOM     41 H    ARG D   2      19.336 -15.414  16.243  1.00 15.89 LIG 0.16  HD
BRANCH 39 42
ATOM     42  CA  ALA D   1      20.385 -13.108  15.933  1.00 17.08 LIG 0.27  C 
ATOM     43  CB  ALA D   1      21.372 -13.283  14.757  1.00 17.48 LIG 0.05  C 
BRANCH 42 44
ATOM     44  N   ALA D   1      20.505 -11.737  16.511  1.00 17.36 LIG-0.07  N 
ATOM     45 H3   ALA D   1      21.023 -11.238  15.986  1.00 17.36 LIG 0.28  HD
ATOM     46 H2   ALA D   1      20.866 -11.788  17.323  1.00 17.36 LIG 0.28  HD
ATOM     47 H1   ALA D   1      19.698 -11.367  16.569  1.00 17.36 LIG 0.28  HD
ENDBRANCH 42 44
ENDBRANCH 39 42
ENDBRANCH 37 38
BRANCH 37 48
ATOM     48  CB  ARG D   2      18.739 -16.963  18.187  1.00 15.08 LIG 0.04  C 
BRANCH 48 49
ATOM     49  CG  ARG D   2      18.538 -17.039  19.694  1.00 14.63 LIG 0.02  C 
BRANCH 49 50
ATOM     50  CD  ARG D   2      19.868 -17.320  20.405  1.00 13.91 LIG 0.14  C 
BRANCH 50 51
ATOM     51  NE  ARG D   2      19.771 -18.439  21.341  1.00 10.79 LIG-0.23  N 
ATOM     52 HE   ARG D   2      19.350 -18.310  22.080  1.00 10.79 LIG 0.18  HD
ATOM     53  CZ  ARG D   2      20.291 -19.648  21.126  1.00 10.30 LIG 0.67  C 
ATOM     54  NH2 ARG D   2      20.943 -19.913  19.994  1.00  9.50 LIG-0.23  N 
ATOM     55  NH1 ARG D   2      20.161 -20.592  22.047  1.00  9.44 LIG-0.23  N 
ATOM     56 2HH2 ARG D   2      21.276 -20.694  19.863  1.00  9.50 LIG 0.17  HD
ATOM     57 1HH2 ARG D   2      21.031 -19.302  19.395  1.00  9.50 LIG 0.17  HD
ATOM     58 1HH1 ARG D   2      19.742 -20.424  22.779  1.00  9.44 LIG 0.17  HD
ATOM     59 2HH1 ARG D   2      20.495 -21.373  21.912  1.00  9.44 LIG 0.17  HD
ENDBRANCH 50 51
ENDBRANCH 49 50
ENDBRANCH 48 49
ENDBRANCH 37 48
ENDBRANCH 34 37
ENDBRANCH 1 33
TORSDOF 24
ENDMDL
MODEL 25
USER: ADFR SOLUTION from run 189
USER: SCORE 18.675796 LL:  -3.824 LR: -15.852 RR:   0.000 FEB:  -8.693
USER: RMSD 8.540835
USER: SEED 188
USER: STATUS 1 or 2 clusters left
USER: GENES 26
USER: genes 0 Translation |==|  0.53239 0.43061 0.49607
USER: genes 1 Rotation |==|  0.82205 0.87886 0.47648 0.54688
USER: genes 2 Torsion [N]-CA--C-[N] |==|  0.46551
USER: genes 3 Torsion [C]-N--CA-[C] |==|  0.16580
USER: genes 4 Torsion [N]-CA--C-[N] |==|  0.14444
USER: genes 5 Torsion [C]-N--CA-[C] |==|  0.69650
USER: genes 6 Torsion [N]-CA--C-[O] |==|  0.48156
USER: genes 7 Torsion [N]-CA--CB-[CG] |==|  0.73203
USER: genes 8 Torsion [CA]-CB--CG-[CD] |==|  0.18934
USER: genes 9 Torsion [CB]-CG--CD-[OE1] |==|  0.23836
USER: genes 10 Torsion [N]-CA--CB-[CG] |==|  0.53131
USER: genes 11 Torsion [CA]-CB--CG-[CD] |==|  0.40946
USER: genes 12 Torsion [CB]-CG--CD-[CE] |==|  0.21635
USER: genes 13 Torsion [CG]-CD--CE-[NZ] |==|  0.11943
USER: genes 14 Torsion [CD]-CE--NZ-[HZ3] |==|  0.82067
USER: genes 15 Torsion [C]-CA--CB-[CG2] |==|  0.78729
USER: genes 16 Torsion [CA]-CB--OG1-[HG1] |==|  0.20601
USER: genes 17 Torsion [C]-CA--N-[C] |==|  0.60767
USER: genes 18 Torsion [N]-C--CA-[N] |==|  0.87068
USER: genes 19 Torsion [C]-CA--N-[C] |==|  0.19373
USER: genes 20 Torsion [N]-C--CA-[N] |==|  0.18202
USER: genes 21 Torsion [C]-CA--N-[H1] |==|  0.68206
USER: genes 22 Torsion [C]-CA--CB-[CG] |==|  0.19877
USER: genes 23 Torsion [CA]-CB--CG-[CD] |==|  0.57697
USER: genes 24 Torsion [CB]-CG--CD-[NE] |==|  0.22597
USER: genes 25 Torsion [CG]-CD--NE-[HE] |==|  0.69884
ROOT
ATOM      1  CA  THR D   3      19.974 -17.984  16.048  1.00 16.13 LIG 0.20  C 
ENDROOT
BRANCH 1 2
ATOM      2  C   THR D   3      19.913 -17.917  17.582  1.00 16.95 LIG 0.24  C 
ATOM      3 O    THR D   3      20.389 -16.947  18.179  1.00 16.12 LIG-0.27  OA
ATOM      4  N   LYS D   4      19.329 -18.950  18.196  1.00 18.15 LIG-0.35  N 
ATOM      5 H    LYS D   4      18.966 -19.600  17.766  1.00 18.15 LIG 0.16  HD
BRANCH 4 6
ATOM      6  CA  LYS D   4      19.239 -19.099  19.657  1.00 19.65 LIG 0.18  C 
BRANCH 6 7
ATOM      7  C   LYS D   4      18.485 -17.923  20.242  1.00 20.62 LIG 0.24  C 
ATOM      8 O    LYS D   4      18.967 -17.280  21.179  1.00 20.86 LIG-0.27  OA
ATOM      9  N   GLN D   5      17.300 -17.648  19.703  1.00 21.55 LIG-0.35  N 
ATOM     10 H    GLN D   5      16.949 -18.094  19.057  1.00 21.55 LIG 0.16  HD
BRANCH 9 11
ATOM     11  CA  GLN D   5      16.482 -16.528  20.187  1.00 22.83 LIG 0.16  C 
BRANCH 11 12
ATOM     12  C   GLN D   5      15.242 -17.003  20.943  1.00 22.91 LIG 0.22  C 
ATOM     13 O    GLN D   5      14.505 -16.204  21.523  1.00 23.29 LIG-0.29  OA
ENDBRANCH 11 12
BRANCH 11 14
ATOM     14  CB  GLN D   5      16.082 -15.601  19.036  1.00 22.86 LIG 0.04  C 
BRANCH 14 15
ATOM     15  CG  GLN D   5      16.976 -14.385  18.866  1.00 24.40 LIG 0.10  C 
BRANCH 15 16
ATOM     16  CD  GLN D   5      18.376 -14.733  18.397  1.00 24.21 LIG 0.21  C 
ATOM     17  NE2 GLN D   5      19.297 -14.894  19.349  1.00 25.13 LIG-0.37  N 
ATOM     18 22HE GLN D   5      20.104 -15.097  19.136  1.00 25.13 LIG 0.16  HD
ATOM     19 21HE GLN D   5      19.082 -14.795  20.176  1.00 25.13 LIG 0.16  HD
ATOM     20 OE1  GLN D   5      18.630 -14.864  17.193  1.00 25.71 LIG-0.27  OA
ENDBRANCH 15 16
ENDBRANCH 14 15
ENDBRANCH 11 14
ENDBRANCH 9 11
ENDBRANCH 6 7
BRANCH 6 21
ATOM     21  CB  LYS D   4      20.631 -19.109  20.295  1.00 19.73 LIG 0.04  C 
BRANCH 21 22
ATOM     22  CG  LYS D   4      20.689 -19.516  21.742  1.00 20.49 LIG 0.00  C 
BRANCH 22 23
ATOM     23  CD  LYS D   4      21.997 -20.240  22.016  1.00 20.73 LIG 0.03  C 
BRANCH 23 24
ATOM     24  CE  LYS D   4      23.135 -19.257  22.143  1.00 20.46 LIG 0.23  C 
BRANCH 24 25
ATOM     25  NZ  LYS D   4      22.742 -18.079  22.952  1.00 20.02 LIG-0.08  N 
ATOM     26 HZ3  LYS D   4      22.100 -17.630  22.531  1.00 20.02 LIG 0.27  HD
ATOM     27 HZ1  LYS D   4      22.443 -18.349  23.746  1.00 20.02 LIG 0.27  HD
ATOM     28 HZ2  LYS D   4      23.447 -17.548  23.067  1.00 20.02 LIG 0.27  HD
ENDBRANCH 24 25
ENDBRANCH 23 24
ENDBRANCH 22 23
ENDBRANCH 21 22
ENDBRANCH 6 21
ENDBRANCH 4 6
ENDBRANCH 1 2
BRANCH 1 29
ATOM     29  CB  THR D   3      20.895 -19.139  15.608  1.00 15.86 LIG 0.15  C 
ATOM     30  CG2 THR D   3      22.362 -18.752  15.777  1.00 16.15 LIG 0.04  C 
BRANCH 29 31
ATOM     31 OG1  THR D   3      20.625 -20.299  16.404  1.00 16.19 LIG-0.39  OA
ATOM     32 HG1  THR D   3      19.897 -20.641  16.162  1.00 16.19 LIG 0.21  HD
ENDBRANCH 29 31
ENDBRANCH 1 29
BRANCH 1 33
ATOM     33  N   THR D   3      20.357 -16.718  15.404  1.00 15.75 LIG-0.34  N 
ATOM     34  C   ARG D   2      19.795 -16.303  14.268  1.00 15.31 LIG 0.24  C 
ATOM     35 O    ARG D   2      18.884 -16.911  13.710  1.00 15.17 LIG-0.27  OA
ATOM     36 H    THR D   3      20.967 -16.279  15.824  1.00 15.75 LIG 0.16  HD
BRANCH 34 37
ATOM     37  CA  ARG D   2      20.352 -15.015  13.659  1.00 15.15 LIG 0.18  C 
BRANCH 37 38
ATOM     38  N   ARG D   2      20.512 -13.949  14.653  1.00 15.89 LIG-0.35  N 
ATOM     39  C   ALA D   1      21.423 -13.958  15.628  1.00 16.91 LIG 0.25  C 
ATOM     40 O    ALA D   1      22.150 -14.928  15.876  1.00 17.32 LIG-0.27  OA
ATOM     41 H    ARG D   2      19.953 -13.303  14.548  1.00 15.89 LIG 0.16  HD
BRANCH 39 42
ATOM     42  CA  ALA D   1      21.521 -12.680  16.464  1.00 17.08 LIG 0.27  C 
ATOM     43  CB  ALA D   1      22.742 -12.736  17.409  1.00 17.48 LIG 0.05  C 
BRANCH 42 44
ATOM     44  N   ALA D   1      20.270 -12.454  17.246  1.00 17.36 LIG-0.07  N 
ATOM     45 H3   ALA D   1      20.471 -12.361  18.108  1.00 17.36 LIG 0.28  HD
ATOM     46 H2   ALA D   1      19.725 -13.150  17.142  1.00 17.36 LIG 0.28  HD
ATOM     47 H1   ALA D   1      19.866 -11.716  16.954  1.00 17.36 LIG 0.28  HD
ENDBRANCH 42 44
ENDBRANCH 39 42
ENDBRANCH 37 38
BRANCH 37 48
ATOM     48  CB  ARG D   2      21.720 -15.297  13.022  1.00 15.08 LIG 0.04  C 
BRANCH 48 49
ATOM     49  CG  ARG D   2      21.734 -16.114  11.737  1.00 14.63 LIG 0.02  C 
BRANCH 49 50
ATOM     50  CD  ARG D   2      23.056 -16.878  11.595  1.00 13.91 LIG 0.14  C 
BRANCH 50 51
ATOM     51  NE  ARG D   2      23.067 -18.115  12.376  1.00 10.79 LIG-0.23  N 
ATOM     52 HE   ARG D   2      23.561 -18.142  13.079  1.00 10.79 LIG 0.18  HD
ATOM     53  CZ  ARG D   2      22.362 -19.204  12.069  1.00 10.30 LIG 0.67  C 
ATOM     54  NH2 ARG D   2      21.569 -19.218  10.998  1.00  9.50 LIG-0.23  N 
ATOM     55  NH1 ARG D   2      22.454 -20.283  12.834  1.00  9.44 LIG-0.23  N 
ATOM     56 2HH2 ARG D   2      21.118 -19.924  10.806  1.00  9.50 LIG 0.17  HD
ATOM     57 1HH2 ARG D   2      21.509 -18.521  10.498  1.00  9.50 LIG 0.17  HD
ATOM     58 1HH1 ARG D   2      22.966 -20.277  13.525  1.00  9.44 LIG 0.17  HD
ATOM     59 2HH1 ARG D   2      22.001 -20.987  12.640  1.00  9.44 LIG 0.17  HD
ENDBRANCH 50 51
ENDBRANCH 49 50
ENDBRANCH 48 49
ENDBRANCH 37 48
ENDBRANCH 34 37
ENDBRANCH 1 33
TORSDOF 24
ENDMDL
MODEL 26
USER: ADFR SOLUTION from run 63
USER: SCORE 18.353468 LL:  -3.818 LR: -15.834 RR:   0.000 FEB:  -8.675
USER: RMSD 7.952891
USER: SEED 62
USER: STATUS no improvement in best in 6 clusters for 5 generations
USER: GENES 26
USER: genes 0 Translation |==|  0.54383 0.36753 0.48727
USER: genes 1 Rotation |==|  0.63311 0.97914 0.52095 0.54761
USER: genes 2 Torsion [N]-CA--C-[N] |==|  0.06405
USER: genes 3 Torsion [C]-N--CA-[C] |==|  0.55612
USER: genes 4 Torsion [N]-CA--C-[N] |==|  0.92420
USER: genes 5 Torsion [C]-N--CA-[C] |==|  0.63666
USER: genes 6 Torsion [N]-CA--C-[O] |==|  0.07515
USER: genes 7 Torsion [N]-CA--CB-[CG] |==|  0.86194
USER: genes 8 Torsion [CA]-CB--CG-[CD] |==|  0.23105
USER: genes 9 Torsion [CB]-CG--CD-[OE1] |==|  0.97218
USER: genes 10 Torsion [N]-CA--CB-[CG] |==|  0.58063
USER: genes 11 Torsion [CA]-CB--CG-[CD] |==|  0.18990
USER: genes 12 Torsion [CB]-CG--CD-[CE] |==|  0.25044
USER: genes 13 Torsion [CG]-CD--CE-[NZ] |==|  0.11342
USER: genes 14 Torsion [CD]-CE--NZ-[HZ3] |==|  0.54872
USER: genes 15 Torsion [C]-CA--CB-[CG2] |==|  0.27294
USER: genes 16 Torsion [CA]-CB--OG1-[HG1] |==|  0.45342
USER: genes 17 Torsion [C]-CA--N-[C] |==|  0.15000
USER: genes 18 Torsion [N]-C--CA-[N] |==|  0.40656
USER: genes 19 Torsion [C]-CA--N-[C] |==|  0.63532
USER: genes 20 Torsion [N]-C--CA-[N] |==|  0.15731
USER: genes 21 Torsion [C]-CA--N-[H1] |==|  0.33963
USER: genes 22 Torsion [C]-CA--CB-[CG] |==|  0.73469
USER: genes 23 Torsion [CA]-CB--CG-[CD] |==|  0.21481
USER: genes 24 Torsion [CB]-CG--CD-[NE] |==|  0.74997
USER: genes 25 Torsion [CG]-CD--NE-[HE] |==|  0.29951
ROOT
ATOM      1  CA  THR D   3      20.189 -19.262  15.850  1.00 16.13 LIG 0.20  C 
ENDROOT
BRANCH 1 2
ATOM      2  C   THR D   3      20.091 -19.406  17.376  1.00 16.95 LIG 0.24  C 
ATOM      3 O    THR D   3      20.953 -20.036  17.996  1.00 16.12 LIG-0.27  OA
ATOM      4  N   LYS D   4      19.040 -18.821  17.960  1.00 18.15 LIG-0.35  N 
ATOM      5 H    LYS D   4      18.470 -18.351  17.522  1.00 18.15 LIG 0.16  HD
BRANCH 4 6
ATOM      6  CA  LYS D   4      18.739 -18.909  19.397  1.00 19.65 LIG 0.18  C 
BRANCH 6 7
ATOM      7  C   LYS D   4      17.280 -18.580  19.632  1.00 20.62 LIG 0.24  C 
ATOM      8 O    LYS D   4      16.682 -19.062  20.599  1.00 20.86 LIG-0.27  OA
ATOM      9  N   GLN D   5      16.701 -17.775  18.745  1.00 21.55 LIG-0.35  N 
ATOM     10 H    GLN D   5      17.102 -17.442  18.062  1.00 21.55 LIG 0.16  HD
BRANCH 9 11
ATOM     11  CA  GLN D   5      15.290 -17.385  18.873  1.00 22.83 LIG 0.16  C 
BRANCH 11 12
ATOM     12  C   GLN D   5      14.517 -17.576  17.569  1.00 22.91 LIG 0.22  C 
ATOM     13 O    GLN D   5      14.864 -18.421  16.742  1.00 23.29 LIG-0.29  OA
ENDBRANCH 11 12
BRANCH 11 14
ATOM     14  CB  GLN D   5      15.161 -15.941  19.364  1.00 22.86 LIG 0.04  C 
BRANCH 14 15
ATOM     15  CG  GLN D   5      15.993 -15.614  20.592  1.00 24.40 LIG 0.10  C 
BRANCH 15 16
ATOM     16  CD  GLN D   5      17.433 -15.269  20.261  1.00 24.21 LIG 0.21  C 
ATOM     17  NE2 GLN D   5      18.168 -14.779  21.262  1.00 25.13 LIG-0.37  N 
ATOM     18 22HE GLN D   5      18.992 -14.572  21.128  1.00 25.13 LIG 0.16  HD
ATOM     19 21HE GLN D   5      17.818 -14.672  22.040  1.00 25.13 LIG 0.16  HD
ATOM     20 OE1  GLN D   5      17.885 -15.445  19.124  1.00 25.71 LIG-0.27  OA
ENDBRANCH 15 16
ENDBRANCH 14 15
ENDBRANCH 11 14
ENDBRANCH 9 11
ENDBRANCH 6 7
BRANCH 6 21
ATOM     21  CB  LYS D   4      19.567 -17.897  20.195  1.00 19.73 LIG 0.04  C 
BRANCH 21 22
ATOM     22  CG  LYS D   4      19.893 -18.285  21.611  1.00 20.49 LIG 0.00  C 
BRANCH 22 23
ATOM     23  CD  LYS D   4      20.862 -19.456  21.608  1.00 20.73 LIG 0.03  C 
BRANCH 23 24
ATOM     24  CE  LYS D   4      22.290 -18.968  21.607  1.00 20.46 LIG 0.23  C 
BRANCH 24 25
ATOM     25  NZ  LYS D   4      22.464 -17.807  22.511  1.00 20.02 LIG-0.08  N 
ATOM     26 HZ3  LYS D   4      23.221 -17.384  22.310  1.00 20.02 LIG 0.27  HD
ATOM     27 HZ1  LYS D   4      21.778 -17.248  22.412  1.00 20.02 LIG 0.27  HD
ATOM     28 HZ2  LYS D   4      22.498 -18.089  23.354  1.00 20.02 LIG 0.27  HD
ENDBRANCH 24 25
ENDBRANCH 23 24
ENDBRANCH 22 23
ENDBRANCH 21 22
ENDBRANCH 6 21
ENDBRANCH 4 6
ENDBRANCH 1 2
BRANCH 1 29
ATOM     29  CB  THR D   3      21.667 -19.252  15.416  1.00 15.86 LIG 0.15  C 
ATOM     30  CG2 THR D   3      22.096 -20.635  14.934  1.00 16.15 LIG 0.04  C 
BRANCH 29 31
ATOM     31 OG1  THR D   3      21.850 -18.310  14.352  1.00 16.19 LIG-0.39  OA
ATOM     32 HG1  THR D   3      22.667 -18.134  14.271  1.00 16.19 LIG 0.21  HD
ENDBRANCH 29 31
ENDBRANCH 1 29
BRANCH 1 33
ATOM     33  N   THR D   3      19.463 -18.103  15.307  1.00 15.75 LIG-0.34  N 
ATOM     34  C   ARG D   2      19.670 -16.864  15.756  1.00 15.31 LIG 0.24  C 
ATOM     35 O    ARG D   2      20.515 -16.592  16.606  1.00 15.17 LIG-0.27  OA
ATOM     36 H    THR D   3      18.903 -18.298  14.683  1.00 15.75 LIG 0.16  HD
BRANCH 34 37
ATOM     37  CA  ARG D   2      18.782 -15.766  15.169  1.00 15.15 LIG 0.18  C 
BRANCH 37 38
ATOM     38  N   ARG D   2      18.478 -14.711  16.142  1.00 15.89 LIG-0.35  N 
ATOM     39  C   ALA D   1      17.254 -14.237  16.382  1.00 16.91 LIG 0.25  C 
ATOM     40 O    ALA D   1      16.258 -14.550  15.717  1.00 17.32 LIG-0.27  OA
ATOM     41 H    ARG D   2      19.176 -14.420  16.553  1.00 15.89 LIG 0.16  HD
BRANCH 39 42
ATOM     42  CA  ALA D   1      17.135 -13.246  17.541  1.00 17.08 LIG 0.27  C 
ATOM     43  CB  ALA D   1      15.675 -12.768  17.707  1.00 17.48 LIG 0.05  C 
BRANCH 42 44
ATOM     44  N   ALA D   1      18.044 -12.079  17.343  1.00 17.36 LIG-0.07  N 
ATOM     45 H3   ALA D   1      18.467 -12.161  16.564  1.00 17.36 LIG 0.28  HD
ATOM     46 H2   ALA D   1      18.641 -12.052  18.004  1.00 17.36 LIG 0.28  HD
ATOM     47 H1   ALA D   1      17.568 -11.327  17.344  1.00 17.36 LIG 0.28  HD
ENDBRANCH 42 44
ENDBRANCH 39 42
ENDBRANCH 37 38
BRANCH 37 48
ATOM     48  CB  ARG D   2      19.483 -15.128  13.961  1.00 15.08 LIG 0.04  C 
BRANCH 48 49
ATOM     49  CG  ARG D   2      20.280 -13.855  14.211  1.00 14.63 LIG 0.02  C 
BRANCH 49 50
ATOM     50  CD  ARG D   2      21.630 -14.181  14.864  1.00 13.91 LIG 0.14  C 
BRANCH 50 51
ATOM     51  NE  ARG D   2      21.551 -14.186  16.325  1.00 10.79 LIG-0.23  N 
ATOM     52 HE   ARG D   2      21.591 -14.945  16.727  1.00 10.79 LIG 0.18  HD
ATOM     53  CZ  ARG D   2      21.422 -13.091  17.075  1.00 10.30 LIG 0.67  C 
ATOM     54  NH2 ARG D   2      21.368 -11.885  16.509  1.00  9.50 LIG-0.23  N 
ATOM     55  NH1 ARG D   2      21.343 -13.204  18.393  1.00  9.44 LIG-0.23  N 
ATOM     56 2HH2 ARG D   2      21.283 -11.184  17.000  1.00  9.50 LIG 0.17  HD
ATOM     57 1HH2 ARG D   2      21.416 -11.809  15.654  1.00  9.50 LIG 0.17  HD
ATOM     58 1HH1 ARG D   2      21.376 -13.980  18.761  1.00  9.44 LIG 0.17  HD
ATOM     59 2HH1 ARG D   2      21.260 -12.500  18.880  1.00  9.44 LIG 0.17  HD
ENDBRANCH 50 51
ENDBRANCH 49 50
ENDBRANCH 48 49
ENDBRANCH 37 48
ENDBRANCH 34 37
ENDBRANCH 1 33
TORSDOF 24
ENDMDL
MODEL 27
USER: ADFR SOLUTION from run 113
USER: SCORE 18.310676 LL:  -2.711 LR: -15.819 RR:   0.000 FEB:  -8.660
USER: RMSD 8.864021
USER: SEED 112
USER: STATUS no improvement in best in 9 clusters for 5 generations
USER: GENES 26
USER: genes 0 Translation |==|  0.49080 0.40200 0.53046
USER: genes 1 Rotation |==|  0.81710 0.87421 0.44398 0.57923
USER: genes 2 Torsion [N]-CA--C-[N] |==|  0.94406
USER: genes 3 Torsion [C]-N--CA-[C] |==|  0.16770
USER: genes 4 Torsion [N]-CA--C-[N] |==|  0.11108
USER: genes 5 Torsion [C]-N--CA-[C] |==|  0.12512
USER: genes 6 Torsion [N]-CA--C-[O] |==|  0.04409
USER: genes 7 Torsion [N]-CA--CB-[CG] |==|  0.62681
USER: genes 8 Torsion [CA]-CB--CG-[CD] |==|  0.94841
USER: genes 9 Torsion [CB]-CG--CD-[OE1] |==|  0.81662
USER: genes 10 Torsion [N]-CA--CB-[CG] |==|  0.70583
USER: genes 11 Torsion [CA]-CB--CG-[CD] |==|  0.21674
USER: genes 12 Torsion [CB]-CG--CD-[CE] |==|  0.76651
USER: genes 13 Torsion [CG]-CD--CE-[NZ] |==|  0.77163
USER: genes 14 Torsion [CD]-CE--NZ-[HZ3] |==|  0.18898
USER: genes 15 Torsion [C]-CA--CB-[CG2] |==|  0.59837
USER: genes 16 Torsion [CA]-CB--OG1-[HG1] |==|  0.14935
USER: genes 17 Torsion [C]-CA--N-[C] |==|  0.83546
USER: genes 18 Torsion [N]-C--CA-[N] |==|  0.04906
USER: genes 19 Torsion [C]-CA--N-[C] |==|  0.73818
USER: genes 20 Torsion [N]-C--CA-[N] |==|  0.67364
USER: genes 21 Torsion [C]-CA--N-[H1] |==|  0.97865
USER: genes 22 Torsion [C]-CA--CB-[CG] |==|  0.37024
USER: genes 23 Torsion [CA]-CB--CG-[CD] |==|  0.00330
USER: genes 24 Torsion [CB]-CG--CD-[NE] |==|  0.59591
USER: genes 25 Torsion [CG]-CD--NE-[HE] |==|  0.23931
ROOT
ATOM      1  CA  THR D   3      19.195 -18.563  16.821  1.00 16.13 LIG 0.20  C 
ENDROOT
BRANCH 1 2
ATOM      2  C   THR D   3      19.111 -18.216  18.316  1.00 16.95 LIG 0.24  C 
ATOM      3 O    THR D   3      18.451 -18.925  19.081  1.00 16.12 LIG-0.27  OA
ATOM      4  N   LYS D   4      19.782 -17.128  18.708  1.00 18.15 LIG-0.35  N 
ATOM      5 H    LYS D   4      20.270 -16.667  18.173  1.00 18.15 LIG 0.16  HD
BRANCH 4 6
ATOM      6  CA  LYS D   4      19.764 -16.599  20.081  1.00 19.65 LIG 0.18  C 
BRANCH 6 7
ATOM      7  C   LYS D   4      20.304 -17.643  21.036  1.00 20.62 LIG 0.24  C 
ATOM      8 O    LYS D   4      19.786 -17.796  22.146  1.00 20.86 LIG-0.27  OA
ATOM      9  N   GLN D   5      21.349 -18.350  20.616  1.00 21.55 LIG-0.35  N 
ATOM     10 H    GLN D   5      21.726 -18.245  19.850  1.00 21.55 LIG 0.16  HD
BRANCH 9 11
ATOM     11  CA  GLN D   5      21.955 -19.392  21.455  1.00 22.83 LIG 0.16  C 
BRANCH 11 12
ATOM     12  C   GLN D   5      20.906 -20.292  22.107  1.00 22.91 LIG 0.22  C 
ATOM     13 O    GLN D   5      19.743 -20.310  21.701  1.00 23.29 LIG-0.29  OA
ENDBRANCH 11 12
BRANCH 11 14
ATOM     14  CB  GLN D   5      22.869 -18.780  22.520  1.00 22.86 LIG 0.04  C 
BRANCH 14 15
ATOM     15  CG  GLN D   5      24.215 -19.468  22.668  1.00 24.40 LIG 0.10  C 
BRANCH 15 16
ATOM     16  CD  GLN D   5      24.238 -20.866  22.080  1.00 24.21 LIG 0.21  C 
ATOM     17  NE2 GLN D   5      25.034 -21.051  21.025  1.00 25.13 LIG-0.37  N 
ATOM     18 22HE GLN D   5      25.087 -21.827  20.657  1.00 25.13 LIG 0.16  HD
ATOM     19 21HE GLN D   5      25.494 -20.395  20.713  1.00 25.13 LIG 0.16  HD
ATOM     20 OE1  GLN D   5      23.555 -21.774  22.569  1.00 25.71 LIG-0.27  OA
ENDBRANCH 15 16
ENDBRANCH 14 15
ENDBRANCH 11 14
ENDBRANCH 9 11
ENDBRANCH 6 7
BRANCH 6 21
ATOM     21  CB  LYS D   4      18.336 -16.271  20.526  1.00 19.73 LIG 0.04  C 
BRANCH 21 22
ATOM     22  CG  LYS D   4      17.983 -14.810  20.581  1.00 20.49 LIG 0.00  C 
BRANCH 22 23
ATOM     23  CD  LYS D   4      17.710 -14.298  19.176  1.00 20.73 LIG 0.03  C 
BRANCH 23 24
ATOM     24  CE  LYS D   4      18.998 -13.918  18.487  1.00 20.46 LIG 0.23  C 
BRANCH 24 25
ATOM     25  NZ  LYS D   4      19.438 -12.558  18.880  1.00 20.02 LIG-0.08  N 
ATOM     26 HZ3  LYS D   4      19.681 -12.561  19.736  1.00 20.02 LIG 0.27  HD
ATOM     27 HZ1  LYS D   4      20.130 -12.313  18.377  1.00 20.02 LIG 0.27  HD
ATOM     28 HZ2  LYS D   4      18.768 -11.984  18.764  1.00 20.02 LIG 0.27  HD
ENDBRANCH 24 25
ENDBRANCH 23 24
ENDBRANCH 22 23
ENDBRANCH 21 22
ENDBRANCH 6 21
ENDBRANCH 4 6
ENDBRANCH 1 2
BRANCH 1 29
ATOM     29  CB  THR D   3      20.117 -19.781  16.615  1.00 15.86 LIG 0.15  C 
ATOM     30  CG2 THR D   3      20.903 -19.646  15.314  1.00 16.15 LIG 0.04  C 
BRANCH 29 31
ATOM     31 OG1  THR D   3      21.039 -19.876  17.709  1.00 16.19 LIG-0.39  OA
ATOM     32 HG1  THR D   3      20.614 -19.881  18.433  1.00 16.19 LIG 0.21  HD
ENDBRANCH 29 31
ENDBRANCH 1 29
BRANCH 1 33
ATOM     33  N   THR D   3      19.592 -17.437  15.962  1.00 15.75 LIG-0.34  N 
ATOM     34  C   ARG D   2      18.886 -16.308  15.905  1.00 15.31 LIG 0.24  C 
ATOM     35 O    ARG D   2      17.894 -16.100  16.600  1.00 15.17 LIG-0.27  OA
ATOM     36 H    THR D   3      20.311 -17.576  15.509  1.00 15.75 LIG 0.16  HD
BRANCH 34 37
ATOM     37  CA  ARG D   2      19.359 -15.255  14.901  1.00 15.15 LIG 0.18  C 
BRANCH 37 38
ATOM     38  N   ARG D   2      20.256 -15.814  13.884  1.00 15.89 LIG-0.35  N 
ATOM     39  C   ALA D   1      21.588 -15.806  13.966  1.00 16.91 LIG 0.25  C 
ATOM     40 O    ALA D   1      22.214 -15.213  14.854  1.00 17.32 LIG-0.27  OA
ATOM     41 H    ARG D   2      19.836 -16.155  13.215  1.00 15.89 LIG 0.16  HD
BRANCH 39 42
ATOM     42  CA  ALA D   1      22.331 -16.573  12.871  1.00 17.08 LIG 0.27  C 
ATOM     43  CB  ALA D   1      21.346 -17.095  11.801  1.00 17.48 LIG 0.05  C 
BRANCH 42 44
ATOM     44  N   ALA D   1      23.116 -17.703  13.449  1.00 17.36 LIG-0.07  N 
ATOM     45 H3   ALA D   1      23.960 -17.653  13.168  1.00 17.36 LIG 0.28  HD
ATOM     46 H2   ALA D   1      22.761 -18.476  13.186  1.00 17.36 LIG 0.28  HD
ATOM     47 H1   ALA D   1      23.096 -17.656  14.337  1.00 17.36 LIG 0.28  HD
ENDBRANCH 42 44
ENDBRANCH 39 42
ENDBRANCH 37 38
BRANCH 37 48
ATOM     48  CB  ARG D   2      18.145 -14.635  14.195  1.00 15.08 LIG 0.04  C 
BRANCH 48 49
ATOM     49  CG  ARG D   2      18.107 -13.117  14.080  1.00 14.63 LIG 0.02  C 
BRANCH 49 50
ATOM     50  CD  ARG D   2      19.365 -12.496  14.700  1.00 13.91 LIG 0.14  C 
BRANCH 50 51
ATOM     51  NE  ARG D   2      19.089 -11.212  15.343  1.00 10.79 LIG-0.23  N 
ATOM     52 HE   ARG D   2      18.819 -11.221  16.160  1.00 10.79 LIG 0.18  HD
ATOM     53  CZ  ARG D   2      19.228 -10.027  14.748  1.00 10.30 LIG 0.67  C 
ATOM     54  NH2 ARG D   2      19.656  -9.948  13.488  1.00  9.50 LIG-0.23  N 
ATOM     55  NH1 ARG D   2      18.935  -8.919  15.414  1.00  9.44 LIG-0.23  N 
ATOM     56 2HH2 ARG D   2      19.742  -9.181  13.111  1.00  9.50 LIG 0.17  HD
ATOM     57 1HH2 ARG D   2      19.844 -10.666  13.052  1.00  9.50 LIG 0.17  HD
ATOM     58 1HH1 ARG D   2      18.658  -8.967  16.227  1.00  9.44 LIG 0.17  HD
ATOM     59 2HH1 ARG D   2      19.024  -8.153  15.034  1.00  9.44 LIG 0.17  HD
ENDBRANCH 50 51
ENDBRANCH 49 50
ENDBRANCH 48 49
ENDBRANCH 37 48
ENDBRANCH 34 37
ENDBRANCH 1 33
TORSDOF 24
ENDMDL
MODEL 28
USER: ADFR SOLUTION from run 68
USER: SCORE 18.690523 LL:  -3.069 LR: -15.807 RR:   0.000 FEB:  -8.648
USER: RMSD 9.596573
USER: SEED 67
USER: STATUS searching
USER: GENES 26
USER: genes 0 Translation |==|  0.55709 0.45586 0.54351
USER: genes 1 Rotation |==|  0.23500 0.84028 0.55724 0.74639
USER: genes 2 Torsion [N]-CA--C-[N] |==|  0.46056
USER: genes 3 Torsion [C]-N--CA-[C] |==|  0.82265
USER: genes 4 Torsion [N]-CA--C-[N] |==|  0.91530
USER: genes 5 Torsion [C]-N--CA-[C] |==|  0.74721
USER: genes 6 Torsion [N]-CA--C-[O] |==|  0.19041
USER: genes 7 Torsion [N]-CA--CB-[CG] |==|  0.04942
USER: genes 8 Torsion [CA]-CB--CG-[CD] |==|  0.37031
USER: genes 9 Torsion [CB]-CG--CD-[OE1] |==|  0.09306
USER: genes 10 Torsion [N]-CA--CB-[CG] |==|  0.94979
USER: genes 11 Torsion [CA]-CB--CG-[CD] |==|  0.69820
USER: genes 12 Torsion [CB]-CG--CD-[CE] |==|  0.55592
USER: genes 13 Torsion [CG]-CD--CE-[NZ] |==|  0.12016
USER: genes 14 Torsion [CD]-CE--NZ-[HZ3] |==|  0.13014
USER: genes 15 Torsion [C]-CA--CB-[CG2] |==|  0.78023
USER: genes 16 Torsion [CA]-CB--OG1-[HG1] |==|  0.36681
USER: genes 17 Torsion [C]-CA--N-[C] |==|  0.81101
USER: genes 18 Torsion [N]-C--CA-[N] |==|  0.42337
USER: genes 19 Torsion [C]-CA--N-[C] |==|  0.63952
USER: genes 20 Torsion [N]-C--CA-[N] |==|  0.92373
USER: genes 21 Torsion [C]-CA--N-[H1] |==|  0.59344
USER: genes 22 Torsion [C]-CA--CB-[CG] |==|  0.61400
USER: genes 23 Torsion [CA]-CB--CG-[CD] |==|  0.65490
USER: genes 24 Torsion [CB]-CG--CD-[NE] |==|  0.81779
USER: genes 25 Torsion [CG]-CD--NE-[HE] |==|  0.80378
ROOT
ATOM      1  CA  THR D   3      20.437 -17.473  17.115  1.00 16.13 LIG 0.20  C 
ENDROOT
BRANCH 1 2
ATOM      2  C   THR D   3      19.570 -18.347  18.034  1.00 16.95 LIG 0.24  C 
ATOM      3 O    THR D   3      18.632 -18.999  17.564  1.00 16.12 LIG-0.27  OA
ATOM      4  N   LYS D   4      19.894 -18.346  19.330  1.00 18.15 LIG-0.35  N 
ATOM      5 H    LYS D   4      20.574 -17.920  19.638  1.00 18.15 LIG 0.16  HD
BRANCH 4 6
ATOM      6  CA  LYS D   4      19.140 -19.063  20.371  1.00 19.65 LIG 0.18  C 
BRANCH 6 7
ATOM      7  C   LYS D   4      17.745 -18.484  20.477  1.00 20.62 LIG 0.24  C 
ATOM      8 O    LYS D   4      16.797 -19.204  20.805  1.00 20.86 LIG-0.27  OA
ATOM      9  N   GLN D   5      17.613 -17.192  20.189  1.00 21.55 LIG-0.35  N 
ATOM     10 H    GLN D   5      18.263 -16.683  19.949  1.00 21.55 LIG 0.16  HD
BRANCH 9 11
ATOM     11  CA  GLN D   5      16.308 -16.522  20.261  1.00 22.83 LIG 0.16  C 
BRANCH 11 12
ATOM     12  C   GLN D   5      15.562 -16.564  18.928  1.00 22.91 LIG 0.22  C 
ATOM     13 O    GLN D   5      15.123 -17.623  18.477  1.00 23.29 LIG-0.29  OA
ENDBRANCH 11 12
BRANCH 11 14
ATOM     14  CB  GLN D   5      16.457 -15.077  20.745  1.00 22.86 LIG 0.04  C 
BRANCH 14 15
ATOM     15  CG  GLN D   5      17.864 -14.517  20.636  1.00 24.40 LIG 0.10  C 
BRANCH 15 16
ATOM     16  CD  GLN D   5      17.909 -13.130  20.021  1.00 24.21 LIG 0.21  C 
ATOM     17  NE2 GLN D   5      18.976 -12.850  19.271  1.00 25.13 LIG-0.37  N 
ATOM     18 22HE GLN D   5      19.047 -12.079  18.896  1.00 25.13 LIG 0.16  HD
ATOM     19 21HE GLN D   5      19.592 -13.440  19.162  1.00 25.13 LIG 0.16  HD
ATOM     20 OE1  GLN D   5      16.994 -12.320  20.211  1.00 25.71 LIG-0.27  OA
ENDBRANCH 15 16
ENDBRANCH 14 15
ENDBRANCH 11 14
ENDBRANCH 9 11
ENDBRANCH 6 7
BRANCH 6 21
ATOM     21  CB  LYS D   4      19.805 -18.902  21.741  1.00 19.73 LIG 0.04  C 
BRANCH 21 22
ATOM     22  CG  LYS D   4      21.241 -18.454  21.727  1.00 20.49 LIG 0.00  C 
BRANCH 22 23
ATOM     23  CD  LYS D   4      22.140 -19.610  22.136  1.00 20.73 LIG 0.03  C 
BRANCH 23 24
ATOM     24  CE  LYS D   4      23.482 -19.103  22.605  1.00 20.46 LIG 0.23  C 
BRANCH 24 25
ATOM     25  NZ  LYS D   4      23.333 -17.920  23.486  1.00 20.02 LIG-0.08  N 
ATOM     26 HZ3  LYS D   4      22.702 -18.079  24.092  1.00 20.02 LIG 0.27  HD
ATOM     27 HZ1  LYS D   4      24.105 -17.757  23.898  1.00 20.02 LIG 0.27  HD
ATOM     28 HZ2  LYS D   4      23.102 -17.213  22.997  1.00 20.02 LIG 0.27  HD
ENDBRANCH 24 25
ENDBRANCH 23 24
ENDBRANCH 22 23
ENDBRANCH 21 22
ENDBRANCH 6 21
ENDBRANCH 4 6
ENDBRANCH 1 2
BRANCH 1 29
ATOM     29  CB  THR D   3      20.203 -15.983  17.431  1.00 15.86 LIG 0.15  C 
ATOM     30  CG2 THR D   3      18.907 -15.494  16.789  1.00 16.15 LIG 0.04  C 
BRANCH 29 31
ATOM     31 OG1  THR D   3      20.117 -15.800  18.850  1.00 16.19 LIG-0.39  OA
ATOM     32 HG1  THR D   3      20.607 -15.158  19.080  1.00 16.19 LIG 0.21  HD
ENDBRANCH 29 31
ENDBRANCH 1 29
BRANCH 1 33
ATOM     33  N   THR D   3      20.265 -17.751  15.681  1.00 15.75 LIG-0.34  N 
ATOM     34  C   ARG D   2      20.665 -18.897  15.129  1.00 15.31 LIG 0.24  C 
ATOM     35 O    ARG D   2      21.149 -19.821  15.779  1.00 15.17 LIG-0.27  OA
ATOM     36 H    THR D   3      19.888 -17.114  15.241  1.00 15.75 LIG 0.16  HD
BRANCH 34 37
ATOM     37  CA  ARG D   2      20.511 -19.017  13.612  1.00 15.15 LIG 0.18  C 
BRANCH 37 38
ATOM     38  N   ARG D   2      21.493 -19.930  13.019  1.00 15.89 LIG-0.35  N 
ATOM     39  C   ALA D   1      22.262 -19.632  11.970  1.00 16.91 LIG 0.25  C 
ATOM     40 O    ALA D   1      22.140 -18.594  11.306  1.00 17.32 LIG-0.27  OA
ATOM     41 H    ARG D   2      21.530 -20.691  13.417  1.00 15.89 LIG 0.16  HD
BRANCH 39 42
ATOM     42  CA  ALA D   1      23.326 -20.668  11.603  1.00 17.08 LIG 0.27  C 
ATOM     43  CB  ALA D   1      22.812 -21.612  10.493  1.00 17.48 LIG 0.05  C 
BRANCH 42 44
ATOM     44  N   ALA D   1      23.743 -21.454  12.801  1.00 17.36 LIG-0.07  N 
ATOM     45 H3   ALA D   1      23.259 -22.200  12.851  1.00 17.36 LIG 0.28  HD
ATOM     46 H2   ALA D   1      23.615 -20.967  13.535  1.00 17.36 LIG 0.28  HD
ATOM     47 H1   ALA D   1      24.605 -21.665  12.733  1.00 17.36 LIG 0.28  HD
ENDBRANCH 42 44
ENDBRANCH 39 42
ENDBRANCH 37 38
BRANCH 37 48
ATOM     48  CB  ARG D   2      19.103 -19.531  13.278  1.00 15.08 LIG 0.04  C 
BRANCH 48 49
ATOM     49  CG  ARG D   2      18.985 -20.565  12.166  1.00 14.63 LIG 0.02  C 
BRANCH 49 50
ATOM     50  CD  ARG D   2      18.014 -20.083  11.080  1.00 13.91 LIG 0.14  C 
BRANCH 50 51
ATOM     51  NE  ARG D   2      16.642 -19.975  11.574  1.00 10.79 LIG-0.23  N 
ATOM     52 HE   ARG D   2      16.218 -20.703  11.745  1.00 10.79 LIG 0.18  HD
ATOM     53  CZ  ARG D   2      16.004 -18.822  11.776  1.00 10.30 LIG 0.67  C 
ATOM     54  NH2 ARG D   2      16.614 -17.660  11.540  1.00  9.50 LIG-0.23  N 
ATOM     55  NH1 ARG D   2      14.752 -18.831  12.211  1.00  9.44 LIG-0.23  N 
ATOM     56 2HH2 ARG D   2      16.195 -16.921  11.672  1.00  9.50 LIG 0.17  HD
ATOM     57 1HH2 ARG D   2      17.425 -17.650  11.256  1.00  9.50 LIG 0.17  HD
ATOM     58 1HH1 ARG D   2      14.355 -19.579  12.363  1.00  9.44 LIG 0.17  HD
ATOM     59 2HH1 ARG D   2      14.337 -18.090  12.343  1.00  9.44 LIG 0.17  HD
ENDBRANCH 50 51
ENDBRANCH 49 50
ENDBRANCH 48 49
ENDBRANCH 37 48
ENDBRANCH 34 37
ENDBRANCH 1 33
TORSDOF 24
ENDMDL
MODEL 29
USER: ADFR SOLUTION from run 99
USER: SCORE 17.814979 LL:  -3.006 LR: -15.781 RR:   0.000 FEB:  -8.621
USER: RMSD 7.791371
USER: SEED 98
USER: STATUS 1 or 2 clusters left
USER: GENES 26
USER: genes 0 Translation |==|  0.47843 0.64351 0.61460
USER: genes 1 Rotation |==|  0.28142 0.56652 0.84991 0.77452
USER: genes 2 Torsion [N]-CA--C-[N] |==|  0.83722
USER: genes 3 Torsion [C]-N--CA-[C] |==|  0.15072
USER: genes 4 Torsion [N]-CA--C-[N] |==|  0.10837
USER: genes 5 Torsion [C]-N--CA-[C] |==|  0.82751
USER: genes 6 Torsion [N]-CA--C-[O] |==|  0.02321
USER: genes 7 Torsion [N]-CA--CB-[CG] |==|  0.53715
USER: genes 8 Torsion [CA]-CB--CG-[CD] |==|  0.12850
USER: genes 9 Torsion [CB]-CG--CD-[OE1] |==|  0.67695
USER: genes 10 Torsion [N]-CA--CB-[CG] |==|  0.60959
USER: genes 11 Torsion [CA]-CB--CG-[CD] |==|  0.82142
USER: genes 12 Torsion [CB]-CG--CD-[CE] |==|  0.61587
USER: genes 13 Torsion [CG]-CD--CE-[NZ] |==|  0.45875
USER: genes 14 Torsion [CD]-CE--NZ-[HZ3] |==|  0.73384
USER: genes 15 Torsion [C]-CA--CB-[CG2] |==|  0.04650
USER: genes 16 Torsion [CA]-CB--OG1-[HG1] |==|  0.88360
USER: genes 17 Torsion [C]-CA--N-[C] |==|  0.18627
USER: genes 18 Torsion [N]-C--CA-[N] |==|  0.89889
USER: genes 19 Torsion [C]-CA--N-[C] |==|  0.73133
USER: genes 20 Torsion [N]-C--CA-[N] |==|  0.01058
USER: genes 21 Torsion [C]-CA--N-[H1] |==|  0.03021
USER: genes 22 Torsion [C]-CA--CB-[CG] |==|  0.95196
USER: genes 23 Torsion [CA]-CB--CG-[CD] |==|  0.72789
USER: genes 24 Torsion [CB]-CG--CD-[NE] |==|  0.30276
USER: genes 25 Torsion [CG]-CD--NE-[HE] |==|  0.77816
ROOT
ATOM      1  CA  THR D   3      18.963 -13.673  18.714  1.00 16.13 LIG 0.20  C 
ENDROOT
BRANCH 1 2
ATOM      2  C   THR D   3      19.649 -14.849  18.002  1.00 16.95 LIG 0.24  C 
ATOM      3 O    THR D   3      20.867 -15.018  18.119  1.00 16.12 LIG-0.27  OA
ATOM      4  N   LYS D   4      18.858 -15.643  17.274  1.00 18.15 LIG-0.35  N 
ATOM      5 H    LYS D   4      18.006 -15.538  17.235  1.00 18.15 LIG 0.16  HD
BRANCH 4 6
ATOM      6  CA  LYS D   4      19.342 -16.774  16.467  1.00 19.65 LIG 0.18  C 
BRANCH 6 7
ATOM      7  C   LYS D   4      20.161 -17.705  17.335  1.00 20.62 LIG 0.24  C 
ATOM      8 O    LYS D   4      21.175 -18.245  16.882  1.00 20.86 LIG-0.27  OA
ATOM      9  N   GLN D   5      19.721 -17.906  18.574  1.00 21.55 LIG-0.35  N 
ATOM     10 H    GLN D   5      19.011 -17.544  18.898  1.00 21.55 LIG 0.16  HD
BRANCH 9 11
ATOM     11  CA  GLN D   5      20.436 -18.786  19.507  1.00 22.83 LIG 0.16  C 
BRANCH 11 12
ATOM     12  C   GLN D   5      20.494 -20.230  19.011  1.00 22.91 LIG 0.22  C 
ATOM     13 O    GLN D   5      20.117 -20.529  17.876  1.00 23.29 LIG-0.29  OA
ENDBRANCH 11 12
BRANCH 11 14
ATOM     14  CB  GLN D   5      19.816 -18.726  20.905  1.00 22.86 LIG 0.04  C 
BRANCH 14 15
ATOM     15  CG  GLN D   5      20.667 -19.345  22.001  1.00 24.40 LIG 0.10  C 
BRANCH 15 16
ATOM     16  CD  GLN D   5      22.122 -18.918  21.939  1.00 24.21 LIG 0.21  C 
ATOM     17  NE2 GLN D   5      22.367 -17.621  22.136  1.00 25.13 LIG-0.37  N 
ATOM     18 22HE GLN D   5      23.175 -17.329  22.116  1.00 25.13 LIG 0.16  HD
ATOM     19 21HE GLN D   5      21.717 -17.078  22.284  1.00 25.13 LIG 0.16  HD
ATOM     20 OE1  GLN D   5      23.019 -19.742  21.723  1.00 25.71 LIG-0.27  OA
ENDBRANCH 15 16
ENDBRANCH 14 15
ENDBRANCH 11 14
ENDBRANCH 9 11
ENDBRANCH 6 7
BRANCH 6 21
ATOM     21  CB  LYS D   4      20.252 -16.290  15.334  1.00 19.73 LIG 0.04  C 
BRANCH 21 22
ATOM     22  CG  LYS D   4      20.089 -16.993  14.014  1.00 20.49 LIG 0.00  C 
BRANCH 22 23
ATOM     23  CD  LYS D   4      20.484 -18.453  14.162  1.00 20.73 LIG 0.03  C 
BRANCH 23 24
ATOM     24  CE  LYS D   4      21.290 -18.912  12.971  1.00 20.46 LIG 0.23  C 
BRANCH 24 25
ATOM     25  NZ  LYS D   4      21.977 -20.196  13.247  1.00 20.02 LIG-0.08  N 
ATOM     26 HZ3  LYS D   4      22.811 -20.036  13.513  1.00 20.02 LIG 0.27  HD
ATOM     27 HZ1  LYS D   4      21.541 -20.634  13.887  1.00 20.02 LIG 0.27  HD
ATOM     28 HZ2  LYS D   4      21.992 -20.690  12.507  1.00 20.02 LIG 0.27  HD
ENDBRANCH 24 25
ENDBRANCH 23 24
ENDBRANCH 22 23
ENDBRANCH 21 22
ENDBRANCH 6 21
ENDBRANCH 4 6
ENDBRANCH 1 2
BRANCH 1 29
ATOM     29  CB  THR D   3      18.027 -14.201  19.819  1.00 15.86 LIG 0.15  C 
ATOM     30  CG2 THR D   3      18.359 -15.652  20.157  1.00 16.15 LIG 0.04  C 
BRANCH 29 31
ATOM     31 OG1  THR D   3      18.178 -13.402  20.999  1.00 16.19 LIG-0.39  OA
ATOM     32 HG1  THR D   3      18.992 -13.237  21.124  1.00 16.19 LIG 0.21  HD
ENDBRANCH 29 31
ENDBRANCH 1 29
BRANCH 1 33
ATOM     33  N   THR D   3      18.258 -12.750  17.811  1.00 15.75 LIG-0.34  N 
ATOM     34  C   ARG D   2      17.172 -13.118  17.130  1.00 15.31 LIG 0.24  C 
ATOM     35 O    ARG D   2      16.649 -14.224  17.247  1.00 15.17 LIG-0.27  OA
ATOM     36 H    THR D   3      18.607 -11.965  17.766  1.00 15.75 LIG 0.16  HD
BRANCH 34 37
ATOM     37  CA  ARG D   2      16.594 -12.090  16.156  1.00 15.15 LIG 0.18  C 
BRANCH 37 38
ATOM     38  N   ARG D   2      16.702 -10.717  16.661  1.00 15.89 LIG-0.35  N 
ATOM     39  C   ALA D   1      15.722 -10.066  17.291  1.00 16.91 LIG 0.25  C 
ATOM     40 O    ALA D   1      14.571 -10.509  17.406  1.00 17.32 LIG-0.27  OA
ATOM     41 H    ARG D   2      17.471 -10.362  16.512  1.00 15.89 LIG 0.16  HD
BRANCH 39 42
ATOM     42  CA  ALA D   1      16.089  -8.699  17.869  1.00 17.08 LIG 0.27  C 
ATOM     43  CB  ALA D   1      15.108  -7.612  17.376  1.00 17.48 LIG 0.05  C 
BRANCH 42 44
ATOM     44  N   ALA D   1      17.492  -8.329  17.519  1.00 17.36 LIG-0.07  N 
ATOM     45 H3   ALA D   1      18.001  -8.368  18.248  1.00 17.36 LIG 0.28  HD
ATOM     46 H2   ALA D   1      17.508  -7.502  17.190  1.00 17.36 LIG 0.28  HD
ATOM     47 H1   ALA D   1      17.806  -8.896  16.908  1.00 17.36 LIG 0.28  HD
ENDBRANCH 42 44
ENDBRANCH 39 42
ENDBRANCH 37 38
BRANCH 37 48
ATOM     48  CB  ARG D   2      17.338 -12.176  14.815  1.00 15.08 LIG 0.04  C 
BRANCH 48 49
ATOM     49  CG  ARG D   2      18.682 -12.891  14.810  1.00 14.63 LIG 0.02  C 
BRANCH 49 50
ATOM     50  CD  ARG D   2      19.833 -11.880  14.897  1.00 13.91 LIG 0.14  C 
BRANCH 50 51
ATOM     51  NE  ARG D   2      20.505 -11.918  16.195  1.00 10.79 LIG-0.23  N 
ATOM     52 HE   ARG D   2      20.133 -11.508  16.853  1.00 10.79 LIG 0.18  HD
ATOM     53  CZ  ARG D   2      21.658 -12.546  16.427  1.00 10.30 LIG 0.67  C 
ATOM     54  NH2 ARG D   2      22.277 -13.209  15.450  1.00  9.50 LIG-0.23  N 
ATOM     55  NH1 ARG D   2      22.195 -12.507  17.638  1.00  9.44 LIG-0.23  N 
ATOM     56 2HH2 ARG D   2      23.020 -13.611  15.607  1.00  9.50 LIG 0.17  HD
ATOM     57 1HH2 ARG D   2      21.932 -13.235  14.662  1.00  9.50 LIG 0.17  HD
ATOM     58 1HH1 ARG D   2      21.800 -12.079  18.270  1.00  9.44 LIG 0.17  HD
ATOM     59 2HH1 ARG D   2      22.939 -12.911  17.792  1.00  9.44 LIG 0.17  HD
ENDBRANCH 50 51
ENDBRANCH 49 50
ENDBRANCH 48 49
ENDBRANCH 37 48
ENDBRANCH 34 37
ENDBRANCH 1 33
TORSDOF 24
ENDMDL
MODEL 30
USER: ADFR SOLUTION from run 115
USER: SCORE 18.390862 LL:  -3.335 LR: -15.737 RR:   0.000 FEB:  -8.578
USER: RMSD 7.226595
USER: SEED 114
USER: STATUS searching
USER: GENES 26
USER: genes 0 Translation |==|  0.37642 0.50552 0.67583
USER: genes 1 Rotation |==|  0.16589 0.46152 0.74369 0.77840
USER: genes 2 Torsion [N]-CA--C-[N] |==|  0.17989
USER: genes 3 Torsion [C]-N--CA-[C] |==|  0.17532
USER: genes 4 Torsion [N]-CA--C-[N] |==|  0.07996
USER: genes 5 Torsion [C]-N--CA-[C] |==|  0.78062
USER: genes 6 Torsion [N]-CA--C-[O] |==|  0.29908
USER: genes 7 Torsion [N]-CA--CB-[CG] |==|  0.99909
USER: genes 8 Torsion [CA]-CB--CG-[CD] |==|  0.69964
USER: genes 9 Torsion [CB]-CG--CD-[OE1] |==|  0.17418
USER: genes 10 Torsion [N]-CA--CB-[CG] |==|  0.67895
USER: genes 11 Torsion [CA]-CB--CG-[CD] |==|  0.82808
USER: genes 12 Torsion [CB]-CG--CD-[CE] |==|  0.44823
USER: genes 13 Torsion [CG]-CD--CE-[NZ] |==|  0.90863
USER: genes 14 Torsion [CD]-CE--NZ-[HZ3] |==|  0.84452
USER: genes 15 Torsion [C]-CA--CB-[CG2] |==|  0.36954
USER: genes 16 Torsion [CA]-CB--OG1-[HG1] |==|  0.20517
USER: genes 17 Torsion [C]-CA--N-[C] |==|  0.64603
USER: genes 18 Torsion [N]-C--CA-[N] |==|  0.46541
USER: genes 19 Torsion [C]-CA--N-[C] |==|  0.77751
USER: genes 20 Torsion [N]-C--CA-[N] |==|  0.12511
USER: genes 21 Torsion [C]-CA--N-[H1] |==|  0.68068
USER: genes 22 Torsion [C]-CA--CB-[CG] |==|  0.94780
USER: genes 23 Torsion [CA]-CB--CG-[CD] |==|  0.64178
USER: genes 24 Torsion [CB]-CG--CD-[NE] |==|  0.82654
USER: genes 25 Torsion [CG]-CD--NE-[HE] |==|  0.76600
ROOT
ATOM      1  CA  THR D   3      17.050 -16.467  20.092  1.00 16.13 LIG 0.20  C 
ENDROOT
BRANCH 1 2
ATOM      2  C   THR D   3      18.035 -17.646  20.060  1.00 16.95 LIG 0.24  C 
ATOM      3 O    THR D   3      17.615 -18.802  19.957  1.00 16.12 LIG-0.27  OA
ATOM      4  N   LYS D   4      19.332 -17.335  20.148  1.00 18.15 LIG-0.35  N 
ATOM      5 H    LYS D   4      19.613 -16.524  20.178  1.00 18.15 LIG 0.16  HD
BRANCH 4 6
ATOM      6  CA  LYS D   4      20.417 -18.328  20.204  1.00 19.65 LIG 0.18  C 
BRANCH 6 7
ATOM      7  C   LYS D   4      20.440 -19.129  18.920  1.00 20.62 LIG 0.24  C 
ATOM      8 O    LYS D   4      20.865 -20.289  18.918  1.00 20.86 LIG-0.27  OA
ATOM      9  N   GLN D   5      19.999 -18.514  17.826  1.00 21.55 LIG-0.35  N 
ATOM     10 H    GLN D   5      19.711 -17.704  17.812  1.00 21.55 LIG 0.16  HD
BRANCH 9 11
ATOM     11  CA  GLN D   5      19.972 -19.193  16.524  1.00 22.83 LIG 0.16  C 
BRANCH 11 12
ATOM     12  C   GLN D   5      21.348 -19.231  15.863  1.00 22.91 LIG 0.22  C 
ATOM     13 O    GLN D   5      21.991 -20.279  15.790  1.00 23.29 LIG-0.29  OA
ENDBRANCH 11 12
BRANCH 11 14
ATOM     14  CB  GLN D   5      18.947 -18.549  15.588  1.00 22.86 LIG 0.04  C 
BRANCH 14 15
ATOM     15  CG  GLN D   5      18.188 -17.379  16.191  1.00 24.40 LIG 0.10  C 
BRANCH 15 16
ATOM     16  CD  GLN D   5      16.740 -17.704  16.503  1.00 24.21 LIG 0.21  C 
ATOM     17  NE2 GLN D   5      15.820 -17.006  15.834  1.00 25.13 LIG-0.37  N 
ATOM     18 22HE GLN D   5      14.984 -17.155  15.971  1.00 25.13 LIG 0.16  HD
ATOM     19 21HE GLN D   5      16.063 -16.408  15.266  1.00 25.13 LIG 0.16  HD
ATOM     20 OE1  GLN D   5      16.446 -18.575  17.330  1.00 25.71 LIG-0.27  OA
ENDBRANCH 15 16
ENDBRANCH 14 15
ENDBRANCH 11 14
ENDBRANCH 9 11
ENDBRANCH 6 7
BRANCH 6 21
ATOM     21  CB  LYS D   4      20.197 -19.317  21.353  1.00 19.73 LIG 0.04  C 
BRANCH 21 22
ATOM     22  CG  LYS D   4      21.225 -19.289  22.451  1.00 20.49 LIG 0.00  C 
BRANCH 22 23
ATOM     23  CD  LYS D   4      22.587 -19.656  21.883  1.00 20.73 LIG 0.03  C 
BRANCH 23 24
ATOM     24  CE  LYS D   4      23.691 -19.208  22.811  1.00 20.46 LIG 0.23  C 
BRANCH 24 25
ATOM     25  NZ  LYS D   4      23.325 -17.959  23.520  1.00 20.02 LIG-0.08  N 
ATOM     26 HZ3  LYS D   4      23.119 -17.330  22.925  1.00 20.02 LIG 0.27  HD
ATOM     27 HZ1  LYS D   4      22.624 -18.111  24.046  1.00 20.02 LIG 0.27  HD
ATOM     28 HZ2  LYS D   4      24.013 -17.686  24.013  1.00 20.02 LIG 0.27  HD
ENDBRANCH 24 25
ENDBRANCH 23 24
ENDBRANCH 22 23
ENDBRANCH 21 22
ENDBRANCH 6 21
ENDBRANCH 4 6
ENDBRANCH 1 2
BRANCH 1 29
ATOM     29  CB  THR D   3      15.609 -16.990  20.254  1.00 15.86 LIG 0.15  C 
ATOM     30  CG2 THR D   3      14.869 -16.205  21.333  1.00 16.15 LIG 0.04  C 
BRANCH 29 31
ATOM     31 OG1  THR D   3      14.906 -16.853  19.012  1.00 16.19 LIG-0.39  OA
ATOM     32 HG1  THR D   3      15.178 -17.434  18.470  1.00 16.19 LIG 0.21  HD
ENDBRANCH 29 31
ENDBRANCH 1 29
BRANCH 1 33
ATOM     33  N   THR D   3      17.164 -15.555  18.944  1.00 15.75 LIG-0.34  N 
ATOM     34  C   ARG D   2      17.314 -14.239  19.097  1.00 15.31 LIG 0.24  C 
ATOM     35 O    ARG D   2      17.427 -13.700  20.196  1.00 15.17 LIG-0.27  OA
ATOM     36 H    THR D   3      17.125 -15.946  18.178  1.00 15.75 LIG 0.16  HD
BRANCH 34 37
ATOM     37  CA  ARG D   2      17.326 -13.398  17.820  1.00 15.15 LIG 0.18  C 
BRANCH 37 38
ATOM     38  N   ARG D   2      17.202 -11.962  18.093  1.00 15.89 LIG-0.35  N 
ATOM     39  C   ALA D   1      16.050 -11.342  18.356  1.00 16.91 LIG 0.25  C 
ATOM     40 O    ALA D   1      14.943 -11.891  18.274  1.00 17.32 LIG-0.27  OA
ATOM     41 H    ARG D   2      17.955 -11.548  18.069  1.00 15.89 LIG 0.16  HD
BRANCH 39 42
ATOM     42  CA  ALA D   1      16.159  -9.871  18.761  1.00 17.08 LIG 0.27  C 
ATOM     43  CB  ALA D   1      14.770  -9.193  18.746  1.00 17.48 LIG 0.05  C 
BRANCH 42 44
ATOM     44  N   ALA D   1      17.104  -9.138  17.868  1.00 17.36 LIG-0.07  N 
ATOM     45 H3   ALA D   1      16.692  -8.432  17.515  1.00 17.36 LIG 0.28  HD
ATOM     46 H2   ALA D   1      17.376  -9.679  17.216  1.00 17.36 LIG 0.28  HD
ATOM     47 H1   ALA D   1      17.808  -8.865  18.339  1.00 17.36 LIG 0.28  HD
ENDBRANCH 42 44
ENDBRANCH 39 42
ENDBRANCH 37 38
BRANCH 37 48
ATOM     48  CB  ARG D   2      18.637 -13.638  17.058  1.00 15.08 LIG 0.04  C 
BRANCH 48 49
ATOM     49  CG  ARG D   2      19.797 -14.238  17.841  1.00 14.63 LIG 0.02  C 
BRANCH 49 50
ATOM     50  CD  ARG D   2      21.069 -13.401  17.649  1.00 13.91 LIG 0.14  C 
BRANCH 50 51
ATOM     51  NE  ARG D   2      21.510 -13.376  16.255  1.00 10.79 LIG-0.23  N 
ATOM     52 HE   ARG D   2      21.995 -14.029  15.975  1.00 10.79 LIG 0.18  HD
ATOM     53  CZ  ARG D   2      21.210 -12.408  15.389  1.00 10.30 LIG 0.67  C 
ATOM     54  NH2 ARG D   2      20.451 -11.377  15.761  1.00  9.50 LIG-0.23  N 
ATOM     55  NH1 ARG D   2      21.673 -12.470  14.148  1.00  9.44 LIG-0.23  N 
ATOM     56 2HH2 ARG D   2      20.262 -10.757  15.197  1.00  9.50 LIG 0.17  HD
ATOM     57 1HH2 ARG D   2      20.150 -11.333  16.565  1.00  9.50 LIG 0.17  HD
ATOM     58 1HH1 ARG D   2      22.164 -13.133  13.906  1.00  9.44 LIG 0.17  HD
ATOM     59 2HH1 ARG D   2      21.482 -11.848  13.586  1.00  9.44 LIG 0.17  HD
ENDBRANCH 50 51
ENDBRANCH 49 50
ENDBRANCH 48 49
ENDBRANCH 37 48
ENDBRANCH 34 37
ENDBRANCH 1 33
TORSDOF 24
ENDMDL
MODEL 31
USER: ADFR SOLUTION from run 115
USER: SCORE 19.238398 LL:  -4.570 LR: -15.729 RR:   0.000 FEB:  -8.569
USER: RMSD 7.387316
USER: SEED 114
USER: STATUS searching
USER: GENES 26
USER: genes 0 Translation |==|  0.37211 0.49422 0.68249
USER: genes 1 Rotation |==|  0.19150 0.42912 0.74820 0.79699
USER: genes 2 Torsion [N]-CA--C-[N] |==|  0.16437
USER: genes 3 Torsion [C]-N--CA-[C] |==|  0.16463
USER: genes 4 Torsion [N]-CA--C-[N] |==|  0.09216
USER: genes 5 Torsion [C]-N--CA-[C] |==|  0.81461
USER: genes 6 Torsion [N]-CA--C-[O] |==|  0.25729
USER: genes 7 Torsion [N]-CA--CB-[CG] |==|  0.92111
USER: genes 8 Torsion [CA]-CB--CG-[CD] |==|  0.69917
USER: genes 9 Torsion [CB]-CG--CD-[OE1] |==|  0.30502
USER: genes 10 Torsion [N]-CA--CB-[CG] |==|  0.71882
USER: genes 11 Torsion [CA]-CB--CG-[CD] |==|  0.73290
USER: genes 12 Torsion [CB]-CG--CD-[CE] |==|  0.43203
USER: genes 13 Torsion [CG]-CD--CE-[NZ] |==|  0.99806
USER: genes 14 Torsion [CD]-CE--NZ-[HZ3] |==|  0.81149
USER: genes 15 Torsion [C]-CA--CB-[CG2] |==|  0.44255
USER: genes 16 Torsion [CA]-CB--OG1-[HG1] |==|  0.20335
USER: genes 17 Torsion [C]-CA--N-[C] |==|  0.73594
USER: genes 18 Torsion [N]-C--CA-[N] |==|  0.65709
USER: genes 19 Torsion [C]-CA--N-[C] |==|  0.14018
USER: genes 20 Torsion [N]-C--CA-[N] |==|  0.95132
USER: genes 21 Torsion [C]-CA--N-[H1] |==|  0.00639
USER: genes 22 Torsion [C]-CA--CB-[CG] |==|  0.21730
USER: genes 23 Torsion [CA]-CB--CG-[CD] |==|  0.63669
USER: genes 24 Torsion [CB]-CG--CD-[NE] |==|  0.52545
USER: genes 25 Torsion [CG]-CD--NE-[HE] |==|  0.04019
ROOT
ATOM      1  CA  THR D   3      16.969 -16.696  20.242  1.00 16.13 LIG 0.20  C 
ENDROOT
BRANCH 1 2
ATOM      2  C   THR D   3      18.033 -17.783  20.022  1.00 16.95 LIG 0.24  C 
ATOM      3 O    THR D   3      17.691 -18.953  19.825  1.00 16.12 LIG-0.27  OA
ATOM      4  N   LYS D   4      19.306 -17.381  20.061  1.00 18.15 LIG-0.35  N 
ATOM      5 H    LYS D   4      19.529 -16.557  20.158  1.00 18.15 LIG 0.16  HD
BRANCH 4 6
ATOM      6  CA  LYS D   4      20.462 -18.284  19.942  1.00 19.65 LIG 0.18  C 
BRANCH 6 7
ATOM      7  C   LYS D   4      20.399 -19.019  18.620  1.00 20.62 LIG 0.24  C 
ATOM      8 O    LYS D   4      20.835 -20.171  18.528  1.00 20.86 LIG-0.27  OA
ATOM      9  N   GLN D   5      19.875 -18.355  17.594  1.00 21.55 LIG-0.35  N 
ATOM     10 H    GLN D   5      19.578 -17.549  17.642  1.00 21.55 LIG 0.16  HD
BRANCH 9 11
ATOM     11  CA  GLN D   5      19.760 -18.967  16.264  1.00 22.83 LIG 0.16  C 
BRANCH 11 12
ATOM     12  C   GLN D   5      21.124 -19.225  15.626  1.00 22.91 LIG 0.22  C 
ATOM     13 O    GLN D   5      21.695 -20.308  15.761  1.00 23.29 LIG-0.29  OA
ENDBRANCH 11 12
BRANCH 11 14
ATOM     14  CB  GLN D   5      18.890 -18.114  15.338  1.00 22.86 LIG 0.04  C 
BRANCH 14 15
ATOM     15  CG  GLN D   5      17.833 -17.286  16.049  1.00 24.40 LIG 0.10  C 
BRANCH 15 16
ATOM     16  CD  GLN D   5      16.423 -17.802  15.829  1.00 24.21 LIG 0.21  C 
ATOM     17  NE2 GLN D   5      15.923 -17.653  14.601  1.00 25.13 LIG-0.37  N 
ATOM     18 22HE GLN D   5      15.130 -17.933  14.423  1.00 25.13 LIG 0.16  HD
ATOM     19 21HE GLN D   5      16.395 -17.278  13.987  1.00 25.13 LIG 0.16  HD
ATOM     20 OE1  GLN D   5      15.790 -18.335  16.748  1.00 25.71 LIG-0.27  OA
ENDBRANCH 15 16
ENDBRANCH 14 15
ENDBRANCH 11 14
ENDBRANCH 9 11
ENDBRANCH 6 7
BRANCH 6 21
ATOM     21  CB  LYS D   4      20.448 -19.341  21.050  1.00 19.73 LIG 0.04  C 
BRANCH 21 22
ATOM     22  CG  LYS D   4      21.374 -19.093  22.209  1.00 20.49 LIG 0.00  C 
BRANCH 22 23
ATOM     23  CD  LYS D   4      22.672 -19.856  21.996  1.00 20.73 LIG 0.03  C 
BRANCH 23 24
ATOM     24  CE  LYS D   4      23.804 -19.207  22.757  1.00 20.46 LIG 0.23  C 
BRANCH 24 25
ATOM     25  NZ  LYS D   4      23.342 -18.001  23.484  1.00 20.02 LIG-0.08  N 
ATOM     26 HZ3  LYS D   4      23.123 -17.367  22.899  1.00 20.02 LIG 0.27  HD
ATOM     27 HZ1  LYS D   4      22.631 -18.206  23.979  1.00 20.02 LIG 0.27  HD
ATOM     28 HZ2  LYS D   4      23.995 -17.704  24.011  1.00 20.02 LIG 0.27  HD
ENDBRANCH 24 25
ENDBRANCH 23 24
ENDBRANCH 22 23
ENDBRANCH 21 22
ENDBRANCH 6 21
ENDBRANCH 4 6
ENDBRANCH 1 2
BRANCH 1 29
ATOM     29  CB  THR D   3      15.568 -17.335  20.299  1.00 15.86 LIG 0.15  C 
ATOM     30  CG2 THR D   3      14.581 -16.408  21.003  1.00 16.15 LIG 0.04  C 
BRANCH 29 31
ATOM     31 OG1  THR D   3      15.101 -17.588  18.968  1.00 16.19 LIG-0.39  OA
ATOM     32 HG1  THR D   3      15.519 -18.240  18.643  1.00 16.19 LIG 0.21  HD
ENDBRANCH 29 31
ENDBRANCH 1 29
BRANCH 1 33
ATOM     33  N   THR D   3      17.019 -15.598  19.264  1.00 15.75 LIG-0.34  N 
ATOM     34  C   ARG D   2      17.678 -14.464  19.506  1.00 15.31 LIG 0.24  C 
ATOM     35 O    ARG D   2      18.335 -14.275  20.527  1.00 15.17 LIG-0.27  OA
ATOM     36 H    THR D   3      16.590 -15.756  18.535  1.00 15.75 LIG 0.16  HD
BRANCH 34 37
ATOM     37  CA  ARG D   2      17.570 -13.370  18.442  1.00 15.15 LIG 0.18  C 
BRANCH 37 38
ATOM     38  N   ARG D   2      18.881 -12.945  17.941  1.00 15.89 LIG-0.35  N 
ATOM     39  C   ALA D   1      19.828 -13.778  17.506  1.00 16.91 LIG 0.25  C 
ATOM     40 O    ALA D   1      19.749 -15.010  17.594  1.00 17.32 LIG-0.27  OA
ATOM     41 H    ARG D   2      18.986 -12.091  17.954  1.00 15.89 LIG 0.16  HD
BRANCH 39 42
ATOM     42  CA  ALA D   1      21.063 -13.122  16.885  1.00 17.08 LIG 0.27  C 
ATOM     43  CB  ALA D   1      22.268 -13.196  17.850  1.00 17.48 LIG 0.05  C 
BRANCH 42 44
ATOM     44  N   ALA D   1      20.785 -11.704  16.511  1.00 17.36 LIG-0.07  N 
ATOM     45 H3   ALA D   1      20.874 -11.606  15.631  1.00 17.36 LIG 0.28  HD
ATOM     46 H2   ALA D   1      21.360 -11.168  16.929  1.00 17.36 LIG 0.28  HD
ATOM     47 H1   ALA D   1      19.955 -11.490  16.751  1.00 17.36 LIG 0.28  HD
ENDBRANCH 42 44
ENDBRANCH 39 42
ENDBRANCH 37 38
BRANCH 37 48
ATOM     48  CB  ARG D   2      16.738 -13.884  17.258  1.00 15.08 LIG 0.04  C 
BRANCH 48 49
ATOM     49  CG  ARG D   2      15.226 -13.906  17.428  1.00 14.63 LIG 0.02  C 
BRANCH 49 50
ATOM     50  CD  ARG D   2      14.655 -15.269  17.018  1.00 13.91 LIG 0.14  C 
BRANCH 50 51
ATOM     51  NE  ARG D   2      13.193 -15.263  16.962  1.00 10.79 LIG-0.23  N 
ATOM     52 HE   ARG D   2      12.794 -14.501  16.965  1.00 10.79 LIG 0.18  HD
ATOM     53  CZ  ARG D   2      12.437 -16.360  16.907  1.00 10.30 LIG 0.67  C 
ATOM     54  NH2 ARG D   2      12.999 -17.569  16.886  1.00  9.50 LIG-0.23  N 
ATOM     55  NH1 ARG D   2      11.117 -16.247  16.875  1.00  9.44 LIG-0.23  N 
ATOM     56 2HH2 ARG D   2      12.505 -18.271  16.851  1.00  9.50 LIG 0.17  HD
ATOM     57 1HH2 ARG D   2      13.855 -17.646  16.909  1.00  9.50 LIG 0.17  HD
ATOM     58 1HH1 ARG D   2      10.752 -15.469  16.890  1.00  9.44 LIG 0.17  HD
ATOM     59 2HH1 ARG D   2      10.626 -16.952  16.839  1.00  9.44 LIG 0.17  HD
ENDBRANCH 50 51
ENDBRANCH 49 50
ENDBRANCH 48 49
ENDBRANCH 37 48
ENDBRANCH 34 37
ENDBRANCH 1 33
TORSDOF 24
ENDMDL
MODEL 32
USER: ADFR SOLUTION from run 137
USER: SCORE 19.116496 LL:  -3.758 LR: -15.670 RR:   0.000 FEB:  -8.510
USER: RMSD 6.811162
USER: SEED 136
USER: STATUS no improvement in best in 3 clusters for 5 generations
USER: GENES 26
USER: genes 0 Translation |==|  0.45554 0.62465 0.62318
USER: genes 1 Rotation |==|  0.18414 0.73352 0.61397 0.78760
USER: genes 2 Torsion [N]-CA--C-[N] |==|  0.92140
USER: genes 3 Torsion [C]-N--CA-[C] |==|  0.75532
USER: genes 4 Torsion [N]-CA--C-[N] |==|  0.03887
USER: genes 5 Torsion [C]-N--CA-[C] |==|  0.16629
USER: genes 6 Torsion [N]-CA--C-[O] |==|  0.45319
USER: genes 7 Torsion [N]-CA--CB-[CG] |==|  0.80412
USER: genes 8 Torsion [CA]-CB--CG-[CD] |==|  0.32501
USER: genes 9 Torsion [CB]-CG--CD-[OE1] |==|  0.69723
USER: genes 10 Torsion [N]-CA--CB-[CG] |==|  0.98069
USER: genes 11 Torsion [CA]-CB--CG-[CD] |==|  0.68011
USER: genes 12 Torsion [CB]-CG--CD-[CE] |==|  0.69910
USER: genes 13 Torsion [CG]-CD--CE-[NZ] |==|  0.53407
USER: genes 14 Torsion [CD]-CE--NZ-[HZ3] |==|  0.55099
USER: genes 15 Torsion [C]-CA--CB-[CG2] |==|  0.29324
USER: genes 16 Torsion [CA]-CB--OG1-[HG1] |==|  0.83251
USER: genes 17 Torsion [C]-CA--N-[C] |==|  0.83603
USER: genes 18 Torsion [N]-C--CA-[N] |==|  0.05199
USER: genes 19 Torsion [C]-CA--N-[C] |==|  0.17778
USER: genes 20 Torsion [N]-C--CA-[N] |==|  0.44054
USER: genes 21 Torsion [C]-CA--N-[H1] |==|  0.37943
USER: genes 22 Torsion [C]-CA--CB-[CG] |==|  0.34953
USER: genes 23 Torsion [CA]-CB--CG-[CD] |==|  0.80836
USER: genes 24 Torsion [CB]-CG--CD-[NE] |==|  0.57610
USER: genes 25 Torsion [CG]-CD--NE-[HE] |==|  0.11317
ROOT
ATOM      1  CA  THR D   3      18.533 -14.055  18.908  1.00 16.13 LIG 0.20  C 
ENDROOT
BRANCH 1 2
ATOM      2  C   THR D   3      18.023 -15.401  19.445  1.00 16.95 LIG 0.24  C 
ATOM      3 O    THR D   3      18.276 -15.741  20.605  1.00 16.12 LIG-0.27  OA
ATOM      4  N   LYS D   4      17.312 -16.147  18.594  1.00 18.15 LIG-0.35  N 
ATOM      5 H    LYS D   4      17.109 -15.880  17.803  1.00 18.15 LIG 0.16  HD
BRANCH 4 6
ATOM      6  CA  LYS D   4      16.801 -17.491  18.903  1.00 19.65 LIG 0.18  C 
BRANCH 6 7
ATOM      7  C   LYS D   4      17.848 -18.527  18.549  1.00 20.62 LIG 0.24  C 
ATOM      8 O    LYS D   4      17.546 -19.723  18.496  1.00 20.86 LIG-0.27  OA
ATOM      9  N   GLN D   5      19.079 -18.076  18.323  1.00 21.55 LIG-0.35  N 
ATOM     10 H    GLN D   5      19.304 -17.247  18.368  1.00 21.55 LIG 0.16  HD
BRANCH 9 11
ATOM     11  CA  GLN D   5      20.175 -18.987  17.970  1.00 22.83 LIG 0.16  C 
BRANCH 11 12
ATOM     12  C   GLN D   5      19.892 -19.760  16.683  1.00 22.91 LIG 0.22  C 
ATOM     13 O    GLN D   5      20.797 -20.328  16.069  1.00 23.29 LIG-0.29  OA
ENDBRANCH 11 12
BRANCH 11 14
ATOM     14  CB  GLN D   5      20.479 -19.954  19.117  1.00 22.86 LIG 0.04  C 
BRANCH 14 15
ATOM     15  CG  GLN D   5      21.133 -19.311  20.328  1.00 24.40 LIG 0.10  C 
BRANCH 15 16
ATOM     16  CD  GLN D   5      20.282 -19.396  21.581  1.00 24.21 LIG 0.21  C 
ATOM     17  NE2 GLN D   5      20.166 -20.604  22.136  1.00 25.13 LIG-0.37  N 
ATOM     18 22HE GLN D   5      19.699 -20.705  22.851  1.00 25.13 LIG 0.16  HD
ATOM     19 21HE GLN D   5      20.559 -21.281  21.779  1.00 25.13 LIG 0.16  HD
ATOM     20 OE1  GLN D   5      19.740 -18.390  22.052  1.00 25.71 LIG-0.27  OA
ENDBRANCH 15 16
ENDBRANCH 14 15
ENDBRANCH 11 14
ENDBRANCH 9 11
ENDBRANCH 6 7
BRANCH 6 21
ATOM     21  CB  LYS D   4      15.552 -17.808  18.075  1.00 19.73 LIG 0.04  C 
BRANCH 21 22
ATOM     22  CG  LYS D   4      15.000 -16.673  17.257  1.00 20.49 LIG 0.00  C 
BRANCH 22 23
ATOM     23  CD  LYS D   4      13.619 -16.298  17.771  1.00 20.73 LIG 0.03  C 
BRANCH 23 24
ATOM     24  CE  LYS D   4      12.551 -16.729  16.796  1.00 20.46 LIG 0.23  C 
BRANCH 24 25
ATOM     25  NZ  LYS D   4      11.240 -16.122  17.130  1.00 20.02 LIG-0.08  N 
ATOM     26 HZ3  LYS D   4      10.591 -16.579  16.729  1.00 20.02 LIG 0.27  HD
ATOM     27 HZ1  LYS D   4      11.118 -16.145  18.011  1.00 20.02 LIG 0.27  HD
ATOM     28 HZ2  LYS D   4      11.224 -15.277  16.850  1.00 20.02 LIG 0.27  HD
ENDBRANCH 24 25
ENDBRANCH 23 24
ENDBRANCH 22 23
ENDBRANCH 21 22
ENDBRANCH 6 21
ENDBRANCH 4 6
ENDBRANCH 1 2
BRANCH 1 29
ATOM     29  CB  THR D   3      17.586 -12.921  19.345  1.00 15.86 LIG 0.15  C 
ATOM     30  CG2 THR D   3      18.216 -12.093  20.461  1.00 16.15 LIG 0.04  C 
BRANCH 29 31
ATOM     31 OG1  THR D   3      17.313 -12.065  18.228  1.00 16.19 LIG-0.39  OA
ATOM     32 HG1  THR D   3      18.031 -11.732  17.948  1.00 16.19 LIG 0.21  HD
ENDBRANCH 29 31
ENDBRANCH 1 29
BRANCH 1 33
ATOM     33  N   THR D   3      18.761 -14.034  17.454  1.00 15.75 LIG-0.34  N 
ATOM     34  C   ARG D   2      19.613 -14.870  16.859  1.00 15.31 LIG 0.24  C 
ATOM     35 O    ARG D   2      20.221 -15.750  17.464  1.00 15.17 LIG-0.27  OA
ATOM     36 H    THR D   3      18.300 -13.441  17.034  1.00 15.75 LIG 0.16  HD
BRANCH 34 37
ATOM     37  CA  ARG D   2      19.823 -14.678  15.357  1.00 15.15 LIG 0.18  C 
BRANCH 37 38
ATOM     38  N   ARG D   2      19.398 -13.352  14.896  1.00 15.89 LIG-0.35  N 
ATOM     39  C   ALA D   1      19.959 -12.204  15.282  1.00 16.91 LIG 0.25  C 
ATOM     40 O    ALA D   1      20.820 -12.128  16.168  1.00 17.32 LIG-0.27  OA
ATOM     41 H    ARG D   2      18.740 -13.381  14.342  1.00 15.89 LIG 0.16  HD
BRANCH 39 42
ATOM     42  CA  ALA D   1      19.466 -10.944  14.568  1.00 17.08 LIG 0.27  C 
ATOM     43  CB  ALA D   1      20.114 -10.816  13.171  1.00 17.48 LIG 0.05  C 
BRANCH 42 44
ATOM     44  N   ALA D   1      19.742  -9.725  15.383  1.00 17.36 LIG-0.07  N 
ATOM     45 H3   ALA D   1      20.346  -9.916  16.009  1.00 17.36 LIG 0.28  HD
ATOM     46 H2   ALA D   1      18.990  -9.449  15.770  1.00 17.36 LIG 0.28  HD
ATOM     47 H1   ALA D   1      20.056  -9.080  14.855  1.00 17.36 LIG 0.28  HD
ENDBRANCH 42 44
ENDBRANCH 39 42
ENDBRANCH 37 38
BRANCH 37 48
ATOM     48  CB  ARG D   2      21.310 -14.859  15.018  1.00 15.08 LIG 0.04  C 
BRANCH 48 49
ATOM     49  CG  ARG D   2      21.659 -15.875  13.939  1.00 14.63 LIG 0.02  C 
BRANCH 49 50
ATOM     50  CD  ARG D   2      21.379 -17.302  14.430  1.00 13.91 LIG 0.14  C 
BRANCH 50 51
ATOM     51  NE  ARG D   2      22.236 -18.290  13.775  1.00 10.79 LIG-0.23  N 
ATOM     52 HE   ARG D   2      23.062 -18.085  13.648  1.00 10.79 LIG 0.18  HD
ATOM     53  CZ  ARG D   2      21.822 -19.487  13.360  1.00 10.30 LIG 0.67  C 
ATOM     54  NH2 ARG D   2      20.557 -19.866  13.539  1.00  9.50 LIG-0.23  N 
ATOM     55  NH1 ARG D   2      22.676 -20.306  12.761  1.00  9.44 LIG-0.23  N 
ATOM     56 2HH2 ARG D   2      20.297 -20.640  13.269  1.00  9.50 LIG 0.17  HD
ATOM     57 1HH2 ARG D   2      20.000 -19.337  13.926  1.00  9.50 LIG 0.17  HD
ATOM     58 1HH1 ARG D   2      23.492 -20.064  12.643  1.00  9.44 LIG 0.17  HD
ATOM     59 2HH1 ARG D   2      22.413 -21.079  12.492  1.00  9.44 LIG 0.17  HD
ENDBRANCH 50 51
ENDBRANCH 49 50
ENDBRANCH 48 49
ENDBRANCH 37 48
ENDBRANCH 34 37
ENDBRANCH 1 33
TORSDOF 24
ENDMDL
MODEL 33
USER: ADFR SOLUTION from run 58
USER: SCORE 17.843636 LL:  -3.537 LR: -15.628 RR:   0.000 FEB:  -8.469
USER: RMSD 9.010791
USER: SEED 57
USER: STATUS no improvement in best in 11 clusters for 5 generations
USER: GENES 26
USER: genes 0 Translation |==|  0.52730 0.60917 0.57951
USER: genes 1 Rotation |==|  0.15169 0.62474 0.64448 0.80372
USER: genes 2 Torsion [N]-CA--C-[N] |==|  0.44862
USER: genes 3 Torsion [C]-N--CA-[C] |==|  0.80440
USER: genes 4 Torsion [N]-CA--C-[N] |==|  0.98172
USER: genes 5 Torsion [C]-N--CA-[C] |==|  0.78605
USER: genes 6 Torsion [N]-CA--C-[O] |==|  0.93327
USER: genes 7 Torsion [N]-CA--CB-[CG] |==|  0.94346
USER: genes 8 Torsion [CA]-CB--CG-[CD] |==|  0.80265
USER: genes 9 Torsion [CB]-CG--CD-[OE1] |==|  0.93833
USER: genes 10 Torsion [N]-CA--CB-[CG] |==|  0.60132
USER: genes 11 Torsion [CA]-CB--CG-[CD] |==|  0.17690
USER: genes 12 Torsion [CB]-CG--CD-[CE] |==|  0.37761
USER: genes 13 Torsion [CG]-CD--CE-[NZ] |==|  0.77259
USER: genes 14 Torsion [CD]-CE--NZ-[HZ3] |==|  0.26818
USER: genes 15 Torsion [C]-CA--CB-[CG2] |==|  0.25612
USER: genes 16 Torsion [CA]-CB--OG1-[HG1] |==|  0.82720
USER: genes 17 Torsion [C]-CA--N-[C] |==|  0.70410
USER: genes 18 Torsion [N]-C--CA-[N] |==|  0.82222
USER: genes 19 Torsion [C]-CA--N-[C] |==|  0.94417
USER: genes 20 Torsion [N]-C--CA-[N] |==|  0.39605
USER: genes 21 Torsion [C]-CA--N-[H1] |==|  0.18615
USER: genes 22 Torsion [C]-CA--CB-[CG] |==|  0.81070
USER: genes 23 Torsion [CA]-CB--CG-[CD] |==|  0.45788
USER: genes 24 Torsion [CB]-CG--CD-[NE] |==|  0.87295
USER: genes 25 Torsion [CG]-CD--NE-[HE] |==|  0.82951
ROOT
ATOM      1  CA  THR D   3      19.879 -14.368  17.925  1.00 16.13 LIG 0.20  C 
ENDROOT
BRANCH 1 2
ATOM      2  C   THR D   3      19.843 -15.876  18.218  1.00 16.95 LIG 0.24  C 
ATOM      3 O    THR D   3      19.871 -16.689  17.288  1.00 16.12 LIG-0.27  OA
ATOM      4  N   LYS D   4      19.782 -16.228  19.505  1.00 18.15 LIG-0.35  N 
ATOM      5 H    LYS D   4      19.805 -15.653  20.144  1.00 18.15 LIG 0.16  HD
BRANCH 4 6
ATOM      6  CA  LYS D   4      19.670 -17.617  19.978  1.00 19.65 LIG 0.18  C 
BRANCH 6 7
ATOM      7  C   LYS D   4      18.293 -18.155  19.651  1.00 20.62 LIG 0.24  C 
ATOM      8 O    LYS D   4      18.031 -19.347  19.840  1.00 20.86 LIG-0.27  OA
ATOM      9  N   GLN D   5      17.418 -17.288  19.149  1.00 21.55 LIG-0.35  N 
ATOM     10 H    GLN D   5      17.591 -16.459  19.003  1.00 21.55 LIG 0.16  HD
BRANCH 9 11
ATOM     11  CA  GLN D   5      16.052 -17.697  18.797  1.00 22.83 LIG 0.16  C 
BRANCH 11 12
ATOM     12  C   GLN D   5      16.000 -18.467  17.479  1.00 22.91 LIG 0.22  C 
ATOM     13 O    GLN D   5      16.877 -18.328  16.625  1.00 23.29 LIG-0.29  OA
ENDBRANCH 11 12
BRANCH 11 14
ATOM     14  CB  GLN D   5      15.111 -16.490  18.749  1.00 22.86 LIG 0.04  C 
BRANCH 14 15
ATOM     15  CG  GLN D   5      15.606 -15.273  19.511  1.00 24.40 LIG 0.10  C 
BRANCH 15 16
ATOM     16  CD  GLN D   5      15.563 -15.454  21.017  1.00 24.21 LIG 0.21  C 
ATOM     17  NE2 GLN D   5      16.368 -14.663  21.731  1.00 25.13 LIG-0.37  N 
ATOM     18 22HE GLN D   5      16.377 -14.723  22.588  1.00 25.13 LIG 0.16  HD
ATOM     19 21HE GLN D   5      16.875 -14.094  21.333  1.00 25.13 LIG 0.16  HD
ATOM     20 OE1  GLN D   5      14.813 -16.288  21.537  1.00 25.71 LIG-0.27  OA
ENDBRANCH 15 16
ENDBRANCH 14 15
ENDBRANCH 11 14
ENDBRANCH 9 11
ENDBRANCH 6 7
BRANCH 6 21
ATOM     21  CB  LYS D   4      19.839 -17.696  21.498  1.00 19.73 LIG 0.04  C 
BRANCH 21 22
ATOM     22  CG  LYS D   4      20.570 -18.904  22.017  1.00 20.49 LIG 0.00  C 
BRANCH 22 23
ATOM     23  CD  LYS D   4      22.003 -18.891  21.507  1.00 20.73 LIG 0.03  C 
BRANCH 23 24
ATOM     24  CE  LYS D   4      22.966 -19.246  22.613  1.00 20.46 LIG 0.23  C 
BRANCH 24 25
ATOM     25  NZ  LYS D   4      23.267 -18.070  23.463  1.00 20.02 LIG-0.08  N 
ATOM     26 HZ3  LYS D   4      22.745 -18.083  24.183  1.00 20.02 LIG 0.27  HD
ATOM     27 HZ1  LYS D   4      24.120 -18.096  23.716  1.00 20.02 LIG 0.27  HD
ATOM     28 HZ2  LYS D   4      23.117 -17.324  23.002  1.00 20.02 LIG 0.27  HD
ENDBRANCH 24 25
ENDBRANCH 23 24
ENDBRANCH 22 23
ENDBRANCH 21 22
ENDBRANCH 6 21
ENDBRANCH 4 6
ENDBRANCH 1 2
BRANCH 1 29
ATOM     29  CB  THR D   3      18.494 -13.748  18.193  1.00 15.86 LIG 0.15  C 
ATOM     30  CG2 THR D   3      18.405 -13.228  19.625  1.00 16.15 LIG 0.04  C 
BRANCH 29 31
ATOM     31 OG1  THR D   3      18.272 -12.659  17.287  1.00 16.19 LIG-0.39  OA
ATOM     32 HG1  THR D   3      18.848 -12.062  17.420  1.00 16.19 LIG 0.21  HD
ENDBRANCH 29 31
ENDBRANCH 1 29
BRANCH 1 33
ATOM     33  N   THR D   3      20.369 -14.027  16.580  1.00 15.75 LIG-0.34  N 
ATOM     34  C   ARG D   2      21.577 -13.501  16.380  1.00 15.31 LIG 0.24  C 
ATOM     35 O    ARG D   2      22.388 -13.317  17.286  1.00 15.17 LIG-0.27  OA
ATOM     36 H    THR D   3      19.810 -14.197  15.948  1.00 15.75 LIG 0.16  HD
BRANCH 34 37
ATOM     37  CA  ARG D   2      21.923 -13.107  14.943  1.00 15.15 LIG 0.18  C 
BRANCH 37 38
ATOM     38  N   ARG D   2      21.967 -14.263  14.041  1.00 15.89 LIG-0.35  N 
ATOM     39  C   ALA D   1      22.118 -15.527  14.441  1.00 16.91 LIG 0.25  C 
ATOM     40 O    ALA D   1      22.363 -15.849  15.611  1.00 17.32 LIG-0.27  OA
ATOM     41 H    ARG D   2      21.885 -14.047  13.212  1.00 15.89 LIG 0.16  HD
BRANCH 39 42
ATOM     42  CA  ALA D   1      21.987 -16.594  13.354  1.00 17.08 LIG 0.27  C 
ATOM     43  CB  ALA D   1      20.544 -17.144  13.296  1.00 17.48 LIG 0.05  C 
BRANCH 42 44
ATOM     44  N   ALA D   1      22.957 -17.706  13.574  1.00 17.36 LIG-0.07  N 
ATOM     45 H3   ALA D   1      23.778 -17.371  13.660  1.00 17.36 LIG 0.28  HD
ATOM     46 H2   ALA D   1      22.935 -18.262  12.880  1.00 17.36 LIG 0.28  HD
ATOM     47 H1   ALA D   1      22.739 -18.149  14.315  1.00 17.36 LIG 0.28  HD
ENDBRANCH 42 44
ENDBRANCH 39 42
ENDBRANCH 37 38
BRANCH 37 48
ATOM     48  CB  ARG D   2      20.876 -12.116  14.415  1.00 15.08 LIG 0.04  C 
BRANCH 48 49
ATOM     49  CG  ARG D   2      19.467 -12.647  14.188  1.00 14.63 LIG 0.02  C 
BRANCH 49 50
ATOM     50  CD  ARG D   2      18.472 -11.490  14.031  1.00 13.91 LIG 0.14  C 
BRANCH 50 51
ATOM     51  NE  ARG D   2      18.663 -10.454  15.045  1.00 10.79 LIG-0.23  N 
ATOM     52 HE   ARG D   2      18.561 -10.675  15.870  1.00 10.79 LIG 0.18  HD
ATOM     53  CZ  ARG D   2      18.985  -9.188  14.777  1.00 10.30 LIG 0.67  C 
ATOM     54  NH2 ARG D   2      19.170  -8.789  13.519  1.00  9.50 LIG-0.23  N 
ATOM     55  NH1 ARG D   2      19.120  -8.320  15.770  1.00  9.44 LIG-0.23  N 
ATOM     56 2HH2 ARG D   2      19.377  -7.971  13.353  1.00  9.50 LIG 0.17  HD
ATOM     57 1HH2 ARG D   2      19.081  -9.349  12.872  1.00  9.50 LIG 0.17  HD
ATOM     58 1HH1 ARG D   2      19.000  -8.574  16.582  1.00  9.44 LIG 0.17  HD
ATOM     59 2HH1 ARG D   2      19.328  -7.503  15.600  1.00  9.44 LIG 0.17  HD
ENDBRANCH 50 51
ENDBRANCH 49 50
ENDBRANCH 48 49
ENDBRANCH 37 48
ENDBRANCH 34 37
ENDBRANCH 1 33
TORSDOF 24
ENDMDL
MODEL 34
USER: ADFR SOLUTION from run 20
USER: SCORE 17.653929 LL:  -3.398 LR: -15.617 RR:   0.000 FEB:  -8.458
USER: RMSD 7.239202
USER: SEED 19
USER: STATUS no improvement in best in 7 clusters for 5 generations
USER: GENES 26
USER: genes 0 Translation |==|  0.51515 0.38157 0.62410
USER: genes 1 Rotation |==|  0.60564 0.84285 0.50863 0.84817
USER: genes 2 Torsion [N]-CA--C-[N] |==|  0.86176
USER: genes 3 Torsion [C]-N--CA-[C] |==|  0.78961
USER: genes 4 Torsion [N]-CA--C-[N] |==|  0.43728
USER: genes 5 Torsion [C]-N--CA-[C] |==|  0.60590
USER: genes 6 Torsion [N]-CA--C-[O] |==|  0.08435
USER: genes 7 Torsion [N]-CA--CB-[CG] |==|  0.50814
USER: genes 8 Torsion [CA]-CB--CG-[CD] |==|  0.51544
USER: genes 9 Torsion [CB]-CG--CD-[OE1] |==|  0.22379
USER: genes 10 Torsion [N]-CA--CB-[CG] |==|  0.97818
USER: genes 11 Torsion [CA]-CB--CG-[CD] |==|  0.35981
USER: genes 12 Torsion [CB]-CG--CD-[CE] |==|  0.74587
USER: genes 13 Torsion [CG]-CD--CE-[NZ] |==|  0.56301
USER: genes 14 Torsion [CD]-CE--NZ-[HZ3] |==|  0.44939
USER: genes 15 Torsion [C]-CA--CB-[CG2] |==|  0.07033
USER: genes 16 Torsion [CA]-CB--OG1-[HG1] |==|  0.85674
USER: genes 17 Torsion [C]-CA--N-[C] |==|  0.65523
USER: genes 18 Torsion [N]-C--CA-[N] |==|  0.52034
USER: genes 19 Torsion [C]-CA--N-[C] |==|  0.18045
USER: genes 20 Torsion [N]-C--CA-[N] |==|  0.17910
USER: genes 21 Torsion [C]-CA--N-[H1] |==|  0.39647
USER: genes 22 Torsion [C]-CA--CB-[CG] |==|  0.92936
USER: genes 23 Torsion [CA]-CB--CG-[CD] |==|  0.60267
USER: genes 24 Torsion [CB]-CG--CD-[NE] |==|  0.30009
USER: genes 25 Torsion [CG]-CD--NE-[HE] |==|  0.72653
ROOT
ATOM      1  CA  THR D   3      19.651 -18.977  18.928  1.00 16.13 LIG 0.20  C 
ENDROOT
BRANCH 1 2
ATOM      2  C   THR D   3      18.184 -18.616  19.206  1.00 16.95 LIG 0.24  C 
ATOM      3 O    THR D   3      17.326 -19.503  19.257  1.00 16.12 LIG-0.27  OA
ATOM      4  N   LYS D   4      17.917 -17.319  19.383  1.00 18.15 LIG-0.35  N 
ATOM      5 H    LYS D   4      18.529 -16.716  19.386  1.00 18.15 LIG 0.16  HD
BRANCH 4 6
ATOM      6  CA  LYS D   4      16.565 -16.774  19.589  1.00 19.65 LIG 0.18  C 
BRANCH 6 7
ATOM      7  C   LYS D   4      15.819 -16.755  18.271  1.00 20.62 LIG 0.24  C 
ATOM      8 O    LYS D   4      16.441 -16.739  17.205  1.00 20.86 LIG-0.27  OA
ATOM      9  N   GLN D   5      14.491 -16.741  18.339  1.00 21.55 LIG-0.35  N 
ATOM     10 H    GLN D   5      14.046 -16.742  19.075  1.00 21.55 LIG 0.16  HD
BRANCH 9 11
ATOM     11  CA  GLN D   5      13.662 -16.725  17.127  1.00 22.83 LIG 0.16  C 
BRANCH 11 12
ATOM     12  C   GLN D   5      12.427 -15.841  17.282  1.00 22.91 LIG 0.22  C 
ATOM     13 O    GLN D   5      12.441 -14.849  18.014  1.00 23.29 LIG-0.29  OA
ENDBRANCH 11 12
BRANCH 11 14
ATOM     14  CB  GLN D   5      13.256 -18.144  16.718  1.00 22.86 LIG 0.04  C 
BRANCH 14 15
ATOM     15  CG  GLN D   5      12.454 -18.225  15.431  1.00 24.40 LIG 0.10  C 
BRANCH 15 16
ATOM     16  CD  GLN D   5      11.954 -19.625  15.127  1.00 24.21 LIG 0.21  C 
ATOM     17  NE2 GLN D   5      12.668 -20.329  14.246  1.00 25.13 LIG-0.37  N 
ATOM     18 22HE GLN D   5      12.430 -21.130  14.043  1.00 25.13 LIG 0.16  HD
ATOM     19 21HE GLN D   5      13.367 -19.983  13.884  1.00 25.13 LIG 0.16  HD
ATOM     20 OE1  GLN D   5      10.943 -20.074  15.679  1.00 25.71 LIG-0.27  OA
ENDBRANCH 15 16
ENDBRANCH 14 15
ENDBRANCH 11 14
ENDBRANCH 9 11
ENDBRANCH 6 7
BRANCH 6 21
ATOM     21  CB  LYS D   4      16.626 -15.331  20.098  1.00 19.73 LIG 0.04  C 
BRANCH 21 22
ATOM     22  CG  LYS D   4      17.993 -14.819  20.461  1.00 20.49 LIG 0.00  C 
BRANCH 22 23
ATOM     23  CD  LYS D   4      18.234 -13.482  19.780  1.00 20.73 LIG 0.03  C 
BRANCH 23 24
ATOM     24  CE  LYS D   4      18.899 -13.678  18.439  1.00 20.46 LIG 0.23  C 
BRANCH 24 25
ATOM     25  NZ  LYS D   4      19.618 -12.455  18.010  1.00 20.02 LIG-0.08  N 
ATOM     26 HZ3  LYS D   4      20.205 -12.663  17.375  1.00 20.02 LIG 0.27  HD
ATOM     27 HZ1  LYS D   4      19.034 -11.863  17.692  1.00 20.02 LIG 0.27  HD
ATOM     28 HZ2  LYS D   4      20.047 -12.103  18.706  1.00 20.02 LIG 0.27  HD
ENDBRANCH 24 25
ENDBRANCH 23 24
ENDBRANCH 22 23
ENDBRANCH 21 22
ENDBRANCH 6 21
ENDBRANCH 4 6
ENDBRANCH 1 2
BRANCH 1 29
ATOM     29  CB  THR D   3      20.466 -18.909  20.234  1.00 15.86 LIG 0.15  C 
ATOM     30  CG2 THR D   3      19.563 -19.130  21.444  1.00 16.15 LIG 0.04  C 
BRANCH 29 31
ATOM     31 OG1  THR D   3      21.482 -19.920  20.220  1.00 16.19 LIG-0.39  OA
ATOM     32 HG1  THR D   3      21.135 -20.663  20.039  1.00 16.19 LIG 0.21  HD
ENDBRANCH 29 31
ENDBRANCH 1 29
BRANCH 1 33
ATOM     33  N   THR D   3      20.276 -18.178  17.863  1.00 15.75 LIG-0.34  N 
ATOM     34  C   ARG D   2      20.845 -18.742  16.796  1.00 15.31 LIG 0.24  C 
ATOM     35 O    ARG D   2      20.838 -19.954  16.594  1.00 15.17 LIG-0.27  OA
ATOM     36 H    THR D   3      20.241 -17.328  17.993  1.00 15.75 LIG 0.16  HD
BRANCH 34 37
ATOM     37  CA  ARG D   2      21.539 -17.799  15.813  1.00 15.15 LIG 0.18  C 
BRANCH 37 38
ATOM     38  N   ARG D   2      21.981 -18.486  14.595  1.00 15.89 LIG-0.35  N 
ATOM     39  C   ALA D   1      21.159 -19.042  13.703  1.00 16.91 LIG 0.25  C 
ATOM     40 O    ALA D   1      19.937 -19.147  13.871  1.00 17.32 LIG-0.27  OA
ATOM     41 H    ARG D   2      22.836 -18.497  14.505  1.00 15.89 LIG 0.16  HD
BRANCH 39 42
ATOM     42  CA  ALA D   1      21.816 -19.575  12.428  1.00 17.08 LIG 0.27  C 
ATOM     43  CB  ALA D   1      20.747 -20.020  11.405  1.00 17.48 LIG 0.05  C 
BRANCH 42 44
ATOM     44  N   ALA D   1      22.742 -20.704  12.735  1.00 17.36 LIG-0.07  N 
ATOM     45 H3   ALA D   1      22.511 -21.075  13.510  1.00 17.36 LIG 0.28  HD
ATOM     46 H2   ALA D   1      23.576 -20.398  12.789  1.00 17.36 LIG 0.28  HD
ATOM     47 H1   ALA D   1      22.692 -21.314  12.088  1.00 17.36 LIG 0.28  HD
ENDBRANCH 42 44
ENDBRANCH 39 42
ENDBRANCH 37 38
BRANCH 37 48
ATOM     48  CB  ARG D   2      20.577 -16.670  15.415  1.00 15.08 LIG 0.04  C 
BRANCH 48 49
ATOM     49  CG  ARG D   2      19.085 -16.961  15.512  1.00 14.63 LIG 0.02  C 
BRANCH 49 50
ATOM     50  CD  ARG D   2      18.327 -16.290  14.360  1.00 13.91 LIG 0.14  C 
BRANCH 50 51
ATOM     51  NE  ARG D   2      17.851 -17.258  13.372  1.00 10.79 LIG-0.23  N 
ATOM     52 HE   ARG D   2      18.320 -17.368  12.659  1.00 10.79 LIG 0.18  HD
ATOM     53  CZ  ARG D   2      16.740 -17.982  13.502  1.00 10.30 LIG 0.67  C 
ATOM     54  NH2 ARG D   2      15.979 -17.865  14.590  1.00  9.50 LIG-0.23  N 
ATOM     55  NH1 ARG D   2      16.387 -18.822  12.540  1.00  9.44 LIG-0.23  N 
ATOM     56 2HH2 ARG D   2      15.263 -18.334  14.667  1.00  9.50 LIG 0.17  HD
ATOM     57 1HH2 ARG D   2      16.204 -17.319  15.216  1.00  9.50 LIG 0.17  HD
ATOM     58 1HH1 ARG D   2      16.874 -18.899  11.836  1.00  9.44 LIG 0.17  HD
ATOM     59 2HH1 ARG D   2      15.670 -19.291  12.620  1.00  9.44 LIG 0.17  HD
ENDBRANCH 50 51
ENDBRANCH 49 50
ENDBRANCH 48 49
ENDBRANCH 37 48
ENDBRANCH 34 37
ENDBRANCH 1 33
TORSDOF 24
ENDMDL
MODEL 35
USER: ADFR SOLUTION from run 72
USER: SCORE 18.108192 LL:  -3.574 LR: -15.623 RR:   0.000 FEB:  -8.464
USER: RMSD 6.699789
USER: SEED 71
USER: STATUS no improvement in best in 2 clusters for 5 generations
USER: GENES 26
USER: genes 0 Translation |==|  0.34321 0.57007 0.67736
USER: genes 1 Rotation |==|  0.18745 0.40860 0.81149 0.71664
USER: genes 2 Torsion [N]-CA--C-[N] |==|  0.89568
USER: genes 3 Torsion [C]-N--CA-[C] |==|  0.56165
USER: genes 4 Torsion [N]-CA--C-[N] |==|  0.85066
USER: genes 5 Torsion [C]-N--CA-[C] |==|  0.54472
USER: genes 6 Torsion [N]-CA--C-[O] |==|  0.02546
USER: genes 7 Torsion [N]-CA--CB-[CG] |==|  0.10647
USER: genes 8 Torsion [CA]-CB--CG-[CD] |==|  0.64045
USER: genes 9 Torsion [CB]-CG--CD-[OE1] |==|  0.25576
USER: genes 10 Torsion [N]-CA--CB-[CG] |==|  0.77621
USER: genes 11 Torsion [CA]-CB--CG-[CD] |==|  0.67499
USER: genes 12 Torsion [CB]-CG--CD-[CE] |==|  0.45005
USER: genes 13 Torsion [CG]-CD--CE-[NZ] |==|  0.02637
USER: genes 14 Torsion [CD]-CE--NZ-[HZ3] |==|  0.84127
USER: genes 15 Torsion [C]-CA--CB-[CG2] |==|  0.96919
USER: genes 16 Torsion [CA]-CB--OG1-[HG1] |==|  0.32301
USER: genes 17 Torsion [C]-CA--N-[C] |==|  0.78859
USER: genes 18 Torsion [N]-C--CA-[N] |==|  0.45804
USER: genes 19 Torsion [C]-CA--N-[C] |==|  0.73945
USER: genes 20 Torsion [N]-C--CA-[N] |==|  0.04584
USER: genes 21 Torsion [C]-CA--N-[H1] |==|  0.34191
USER: genes 22 Torsion [C]-CA--CB-[CG] |==|  0.92739
USER: genes 23 Torsion [CA]-CB--CG-[CD] |==|  0.72241
USER: genes 24 Torsion [CB]-CG--CD-[NE] |==|  0.32853
USER: genes 25 Torsion [CG]-CD--NE-[HE] |==|  0.78276
ROOT
ATOM      1  CA  THR D   3      16.427 -15.160  20.127  1.00 16.13 LIG 0.20  C 
ENDROOT
BRANCH 1 2
ATOM      2  C   THR D   3      17.804 -15.834  20.023  1.00 16.95 LIG 0.24  C 
ATOM      3 O    THR D   3      18.522 -15.935  21.023  1.00 16.12 LIG-0.27  OA
ATOM      4  N   LYS D   4      18.153 -16.284  18.814  1.00 18.15 LIG-0.35  N 
ATOM      5 H    LYS D   4      17.627 -16.244  18.135  1.00 18.15 LIG 0.16  HD
BRANCH 4 6
ATOM      6  CA  LYS D   4      19.456 -16.892  18.503  1.00 19.65 LIG 0.18  C 
BRANCH 6 7
ATOM      7  C   LYS D   4      19.726 -16.784  17.017  1.00 20.62 LIG 0.24  C 
ATOM      8 O    LYS D   4      20.769 -16.261  16.612  1.00 20.86 LIG-0.27  OA
ATOM      9  N   GLN D   5      18.788 -17.262  16.205  1.00 21.55 LIG-0.35  N 
ATOM     10 H    GLN D   5      18.054 -17.619  16.474  1.00 21.55 LIG 0.16  HD
BRANCH 9 11
ATOM     11  CA  GLN D   5      18.943 -17.215  14.745  1.00 22.83 LIG 0.16  C 
BRANCH 11 12
ATOM     12  C   GLN D   5      17.620 -17.443  14.016  1.00 22.91 LIG 0.22  C 
ATOM     13 O    GLN D   5      16.552 -17.473  14.629  1.00 23.29 LIG-0.29  OA
ENDBRANCH 11 12
BRANCH 11 14
ATOM     14  CB  GLN D   5      19.996 -18.219  14.270  1.00 22.86 LIG 0.04  C 
BRANCH 14 15
ATOM     15  CG  GLN D   5      19.987 -19.543  15.014  1.00 24.40 LIG 0.10  C 
BRANCH 15 16
ATOM     16  CD  GLN D   5      21.358 -19.952  15.520  1.00 24.21 LIG 0.21  C 
ATOM     17  NE2 GLN D   5      22.118 -20.648  14.672  1.00 25.13 LIG-0.37  N 
ATOM     18 22HE GLN D   5      22.905 -20.900  14.909  1.00 25.13 LIG 0.16  HD
ATOM     19 21HE GLN D   5      21.821 -20.843  13.889  1.00 25.13 LIG 0.16  HD
ATOM     20 OE1  GLN D   5      21.735 -19.643  16.657  1.00 25.71 LIG-0.27  OA
ENDBRANCH 15 16
ENDBRANCH 14 15
ENDBRANCH 11 14
ENDBRANCH 9 11
ENDBRANCH 6 7
BRANCH 6 21
ATOM     21  CB  LYS D   4      19.466 -18.382  18.860  1.00 19.73 LIG 0.04  C 
BRANCH 21 22
ATOM     22  CG  LYS D   4      19.692 -18.709  20.311  1.00 20.49 LIG 0.00  C 
BRANCH 22 23
ATOM     23  CD  LYS D   4      20.985 -19.495  20.461  1.00 20.73 LIG 0.03  C 
BRANCH 23 24
ATOM     24  CE  LYS D   4      21.467 -19.462  21.891  1.00 20.46 LIG 0.23  C 
BRANCH 24 25
ATOM     25  NZ  LYS D   4      20.446 -18.875  22.790  1.00 20.02 LIG-0.08  N 
ATOM     26 HZ3  LYS D   4      20.237 -18.057  22.508  1.00 20.02 LIG 0.27  HD
ATOM     27 HZ1  LYS D   4      19.717 -19.385  22.786  1.00 20.02 LIG 0.27  HD
ATOM     28 HZ2  LYS D   4      20.770 -18.828  23.618  1.00 20.02 LIG 0.27  HD
ENDBRANCH 24 25
ENDBRANCH 23 24
ENDBRANCH 22 23
ENDBRANCH 21 22
ENDBRANCH 6 21
ENDBRANCH 4 6
ENDBRANCH 1 2
BRANCH 1 29
ATOM     29  CB  THR D   3      15.346 -16.216  20.428  1.00 15.86 LIG 0.15  C 
ATOM     30  CG2 THR D   3      15.909 -17.625  20.262  1.00 16.15 LIG 0.04  C 
BRANCH 29 31
ATOM     31 OG1  THR D   3      14.880 -16.057  21.773  1.00 16.19 LIG-0.39  OA
ATOM     32 HG1  THR D   3      14.067 -15.846  21.765  1.00 16.19 LIG 0.21  HD
ENDBRANCH 29 31
ENDBRANCH 1 29
BRANCH 1 33
ATOM     33  N   THR D   3      16.067 -14.342  18.958  1.00 15.75 LIG-0.34  N 
ATOM     34  C   ARG D   2      16.595 -13.135  18.749  1.00 15.31 LIG 0.24  C 
ATOM     35 O    ARG D   2      17.456 -12.645  19.477  1.00 15.17 LIG-0.27  OA
ATOM     36 H    THR D   3      15.494 -14.711  18.433  1.00 15.75 LIG 0.16  HD
BRANCH 34 37
ATOM     37  CA  ARG D   2      16.063 -12.354  17.547  1.00 15.15 LIG 0.18  C 
BRANCH 37 38
ATOM     38  N   ARG D   2      16.425 -10.934  17.596  1.00 15.89 LIG-0.35  N 
ATOM     39  C   ALA D   1      15.650  -9.976  18.108  1.00 16.91 LIG 0.25  C 
ATOM     40 O    ALA D   1      14.487 -10.166  18.485  1.00 17.32 LIG-0.27  OA
ATOM     41 H    ARG D   2      17.199 -10.771  17.257  1.00 15.89 LIG 0.16  HD
BRANCH 39 42
ATOM     42  CA  ALA D   1      16.278  -8.584  18.198  1.00 17.08 LIG 0.27  C 
ATOM     43  CB  ALA D   1      15.254  -7.494  17.809  1.00 17.48 LIG 0.05  C 
BRANCH 42 44
ATOM     44  N   ALA D   1      17.492  -8.487  17.336  1.00 17.36 LIG-0.07  N 
ATOM     45 H3   ALA D   1      17.601  -9.250  16.890  1.00 17.36 LIG 0.28  HD
ATOM     46 H2   ALA D   1      18.206  -8.335  17.844  1.00 17.36 LIG 0.28  HD
ATOM     47 H1   ALA D   1      17.393  -7.818  16.757  1.00 17.36 LIG 0.28  HD
ENDBRANCH 42 44
ENDBRANCH 39 42
ENDBRANCH 37 38
BRANCH 37 48
ATOM     48  CB  ARG D   2      16.627 -12.957  16.252  1.00 15.08 LIG 0.04  C 
BRANCH 48 49
ATOM     49  CG  ARG D   2      17.958 -13.690  16.348  1.00 14.63 LIG 0.02  C 
BRANCH 49 50
ATOM     50  CD  ARG D   2      19.107 -12.790  15.875  1.00 13.91 LIG 0.14  C 
BRANCH 50 51
ATOM     51  NE  ARG D   2      20.081 -12.534  16.935  1.00 10.79 LIG-0.23  N 
ATOM     52 HE   ARG D   2      19.880 -11.949  17.533  1.00 10.79 LIG 0.18  HD
ATOM     53  CZ  ARG D   2      21.261 -13.145  17.037  1.00 10.30 LIG 0.67  C 
ATOM     54  NH2 ARG D   2      21.624 -14.070  16.148  1.00  9.50 LIG-0.23  N 
ATOM     55  NH1 ARG D   2      22.082 -12.829  18.029  1.00  9.44 LIG-0.23  N 
ATOM     56 2HH2 ARG D   2      22.386 -14.460  16.220  1.00  9.50 LIG 0.17  HD
ATOM     57 1HH2 ARG D   2      21.094 -14.276  15.502  1.00  9.50 LIG 0.17  HD
ATOM     58 1HH1 ARG D   2      21.852 -12.232  18.603  1.00  9.44 LIG 0.17  HD
ATOM     59 2HH1 ARG D   2      22.844 -13.222  18.098  1.00  9.44 LIG 0.17  HD
ENDBRANCH 50 51
ENDBRANCH 49 50
ENDBRANCH 48 49
ENDBRANCH 37 48
ENDBRANCH 34 37
ENDBRANCH 1 33
TORSDOF 24
ENDMDL
MODEL 36
USER: ADFR SOLUTION from run 50
USER: SCORE 18.583337 LL:  -3.243 LR: -15.604 RR:   0.000 FEB:  -8.445
USER: RMSD 6.824755
USER: SEED 49
USER: STATUS no improvement in best in 5 clusters for 5 generations
USER: GENES 26
USER: genes 0 Translation |==|  0.47699 0.38874 0.67285
USER: genes 1 Rotation |==|  0.63830 0.81471 0.51292 0.86286
USER: genes 2 Torsion [N]-CA--C-[N] |==|  0.95198
USER: genes 3 Torsion [C]-N--CA-[C] |==|  0.71809
USER: genes 4 Torsion [N]-CA--C-[N] |==|  0.29204
USER: genes 5 Torsion [C]-N--CA-[C] |==|  0.60568
USER: genes 6 Torsion [N]-CA--C-[O] |==|  0.72278
USER: genes 7 Torsion [N]-CA--CB-[CG] |==|  0.67367
USER: genes 8 Torsion [CA]-CB--CG-[CD] |==|  0.22635
USER: genes 9 Torsion [CB]-CG--CD-[OE1] |==|  0.25950
USER: genes 10 Torsion [N]-CA--CB-[CG] |==|  0.94662
USER: genes 11 Torsion [CA]-CB--CG-[CD] |==|  0.30755
USER: genes 12 Torsion [CB]-CG--CD-[CE] |==|  0.12633
USER: genes 13 Torsion [CG]-CD--CE-[NZ] |==|  0.56837
USER: genes 14 Torsion [CD]-CE--NZ-[HZ3] |==|  0.96803
USER: genes 15 Torsion [C]-CA--CB-[CG2] |==|  0.43466
USER: genes 16 Torsion [CA]-CB--OG1-[HG1] |==|  0.48258
USER: genes 17 Torsion [C]-CA--N-[C] |==|  0.81812
USER: genes 18 Torsion [N]-C--CA-[N] |==|  0.40944
USER: genes 19 Torsion [C]-CA--N-[C] |==|  0.83774
USER: genes 20 Torsion [N]-C--CA-[N] |==|  0.41944
USER: genes 21 Torsion [C]-CA--N-[H1] |==|  0.13961
USER: genes 22 Torsion [C]-CA--CB-[CG] |==|  0.52700
USER: genes 23 Torsion [CA]-CB--CG-[CD] |==|  0.66312
USER: genes 24 Torsion [CB]-CG--CD-[NE] |==|  0.72657
USER: genes 25 Torsion [CG]-CD--NE-[HE] |==|  0.30933
ROOT
ATOM      1  CA  THR D   3      18.936 -18.832  20.025  1.00 16.13 LIG 0.20  C 
ENDROOT
BRANCH 1 2
ATOM      2  C   THR D   3      17.487 -18.341  20.167  1.00 16.95 LIG 0.24  C 
ATOM      3 O    THR D   3      16.619 -19.092  20.623  1.00 16.12 LIG-0.27  OA
ATOM      4  N   LYS D   4      17.246 -17.086  19.774  1.00 18.15 LIG-0.35  N 
ATOM      5 H    LYS D   4      17.867 -16.560  19.496  1.00 18.15 LIG 0.16  HD
BRANCH 4 6
ATOM      6  CA  LYS D   4      15.913 -16.464  19.768  1.00 19.65 LIG 0.18  C 
BRANCH 6 7
ATOM      7  C   LYS D   4      15.362 -16.457  18.357  1.00 20.62 LIG 0.24  C 
ATOM      8 O    LYS D   4      15.789 -15.649  17.527  1.00 20.86 LIG-0.27  OA
ATOM      9  N   GLN D   5      14.406 -17.342  18.087  1.00 21.55 LIG-0.35  N 
ATOM     10 H    GLN D   5      14.093 -17.903  18.659  1.00 21.55 LIG 0.16  HD
BRANCH 9 11
ATOM     11  CA  GLN D   5      13.800 -17.430  16.752  1.00 22.83 LIG 0.16  C 
BRANCH 11 12
ATOM     12  C   GLN D   5      12.299 -17.712  16.817  1.00 22.91 LIG 0.22  C 
ATOM     13 O    GLN D   5      11.857 -18.848  16.644  1.00 23.29 LIG-0.29  OA
ENDBRANCH 11 12
BRANCH 11 14
ATOM     14  CB  GLN D   5      14.505 -18.484  15.895  1.00 22.86 LIG 0.04  C 
BRANCH 14 15
ATOM     15  CG  GLN D   5      15.178 -17.936  14.648  1.00 24.40 LIG 0.10  C 
BRANCH 15 16
ATOM     16  CD  GLN D   5      16.543 -17.334  14.923  1.00 24.21 LIG 0.21  C 
ATOM     17  NE2 GLN D   5      16.560 -16.053  15.298  1.00 25.13 LIG-0.37  N 
ATOM     18 22HE GLN D   5      17.308 -15.666  15.470  1.00 25.13 LIG 0.16  HD
ATOM     19 21HE GLN D   5      15.823 -15.616  15.369  1.00 25.13 LIG 0.16  HD
ATOM     20 OE1  GLN D   5      17.573 -18.009  14.806  1.00 25.71 LIG-0.27  OA
ENDBRANCH 15 16
ENDBRANCH 14 15
ENDBRANCH 11 14
ENDBRANCH 9 11
ENDBRANCH 6 7
BRANCH 6 21
ATOM     21  CB  LYS D   4      15.984 -15.007  20.234  1.00 19.73 LIG 0.04  C 
BRANCH 21 22
ATOM     22  CG  LYS D   4      17.214 -14.625  21.011  1.00 20.49 LIG 0.00  C 
BRANCH 22 23
ATOM     23  CD  LYS D   4      18.072 -13.686  20.177  1.00 20.73 LIG 0.03  C 
BRANCH 23 24
ATOM     24  CE  LYS D   4      17.223 -12.616  19.535  1.00 20.46 LIG 0.23  C 
BRANCH 24 25
ATOM     25  NZ  LYS D   4      17.867 -12.079  18.313  1.00 20.02 LIG-0.08  N 
ATOM     26 HZ3  LYS D   4      18.709 -12.364  18.271  1.00 20.02 LIG 0.27  HD
ATOM     27 HZ1  LYS D   4      17.423 -12.360  17.595  1.00 20.02 LIG 0.27  HD
ATOM     28 HZ2  LYS D   4      17.857 -11.189  18.338  1.00 20.02 LIG 0.27  HD
ENDBRANCH 24 25
ENDBRANCH 23 24
ENDBRANCH 22 23
ENDBRANCH 21 22
ENDBRANCH 6 21
ENDBRANCH 4 6
ENDBRANCH 1 2
BRANCH 1 29
ATOM     29  CB  THR D   3      19.585 -18.964  21.416  1.00 15.86 LIG 0.15  C 
ATOM     30  CG2 THR D   3      20.745 -19.954  21.377  1.00 16.15 LIG 0.04  C 
BRANCH 29 31
ATOM     31 OG1  THR D   3      20.077 -17.686  21.840  1.00 16.19 LIG-0.39  OA
ATOM     32 HG1  THR D   3      20.353 -17.740  22.631  1.00 16.19 LIG 0.21  HD
ENDBRANCH 29 31
ENDBRANCH 1 29
BRANCH 1 33
ATOM     33  N   THR D   3      19.763 -18.016  19.122  1.00 15.75 LIG-0.34  N 
ATOM     34  C   ARG D   2      19.515 -17.936  17.814  1.00 15.31 LIG 0.24  C 
ATOM     35 O    ARG D   2      18.554 -18.484  17.279  1.00 15.17 LIG-0.27  OA
ATOM     36 H    THR D   3      20.409 -17.604  19.513  1.00 15.75 LIG 0.16  HD
BRANCH 34 37
ATOM     37  CA  ARG D   2      20.508 -17.128  16.978  1.00 15.15 LIG 0.18  C 
BRANCH 37 38
ATOM     38  N   ARG D   2      20.660 -17.660  15.620  1.00 15.89 LIG-0.35  N 
ATOM     39  C   ALA D   1      21.056 -18.903  15.337  1.00 16.91 LIG 0.25  C 
ATOM     40 O    ALA D   1      21.459 -19.703  16.191  1.00 17.32 LIG-0.27  OA
ATOM     41 H    ARG D   2      20.467 -17.086  15.009  1.00 15.89 LIG 0.16  HD
BRANCH 39 42
ATOM     42  CA  ALA D   1      21.004 -19.303  13.862  1.00 17.08 LIG 0.27  C 
ATOM     43  CB  ALA D   1      19.600 -19.825  13.484  1.00 17.48 LIG 0.05  C 
BRANCH 42 44
ATOM     44  N   ALA D   1      22.041 -20.329  13.548  1.00 17.36 LIG-0.07  N 
ATOM     45 H3   ALA D   1      22.849 -19.957  13.590  1.00 17.36 LIG 0.28  HD
ATOM     46 H2   ALA D   1      21.904 -20.650  12.729  1.00 17.36 LIG 0.28  HD
ATOM     47 H1   ALA D   1      21.991 -20.994  14.138  1.00 17.36 LIG 0.28  HD
ENDBRANCH 42 44
ENDBRANCH 39 42
ENDBRANCH 37 38
BRANCH 37 48
ATOM     48  CB  ARG D   2      20.033 -15.671  16.881  1.00 15.08 LIG 0.04  C 
BRANCH 48 49
ATOM     49  CG  ARG D   2      20.766 -14.764  15.903  1.00 14.63 LIG 0.02  C 
BRANCH 49 50
ATOM     50  CD  ARG D   2      21.372 -13.558  16.633  1.00 13.91 LIG 0.14  C 
BRANCH 50 51
ATOM     51  NE  ARG D   2      20.534 -12.365  16.519  1.00 10.79 LIG-0.23  N 
ATOM     52 HE   ARG D   2      20.143 -12.079  17.230  1.00 10.79 LIG 0.18  HD
ATOM     53  CZ  ARG D   2      20.336 -11.689  15.387  1.00 10.30 LIG 0.67  C 
ATOM     54  NH2 ARG D   2      20.926 -12.076  14.256  1.00  9.50 LIG-0.23  N 
ATOM     55  NH1 ARG D   2      19.544 -10.627  15.386  1.00  9.44 LIG-0.23  N 
ATOM     56 2HH2 ARG D   2      20.793 -11.636  13.530  1.00  9.50 LIG 0.17  HD
ATOM     57 1HH2 ARG D   2      21.439 -12.767  14.253  1.00  9.50 LIG 0.17  HD
ATOM     58 1HH1 ARG D   2      19.161 -10.375  16.113  1.00  9.44 LIG 0.17  HD
ATOM     59 2HH1 ARG D   2      19.414 -10.188  14.657  1.00  9.44 LIG 0.17  HD
ENDBRANCH 50 51
ENDBRANCH 49 50
ENDBRANCH 48 49
ENDBRANCH 37 48
ENDBRANCH 34 37
ENDBRANCH 1 33
TORSDOF 24
ENDMDL
MODEL 37
USER: ADFR SOLUTION from run 83
USER: SCORE 18.127686 LL:  -2.992 LR: -15.534 RR:   0.000 FEB:  -8.375
USER: RMSD 4.802409
USER: SEED 82
USER: STATUS no improvement in best in 8 clusters for 5 generations
USER: GENES 26
USER: genes 0 Translation |==|  0.35966 0.41689 0.62238
USER: genes 1 Rotation |==|  0.52954 0.56942 0.41881 0.98756
USER: genes 2 Torsion [N]-CA--C-[N] |==|  0.95194
USER: genes 3 Torsion [C]-N--CA-[C] |==|  0.67563
USER: genes 4 Torsion [N]-CA--C-[N] |==|  0.40512
USER: genes 5 Torsion [C]-N--CA-[C] |==|  0.76226
USER: genes 6 Torsion [N]-CA--C-[O] |==|  0.09673
USER: genes 7 Torsion [N]-CA--CB-[CG] |==|  0.55901
USER: genes 8 Torsion [CA]-CB--CG-[CD] |==|  0.50890
USER: genes 9 Torsion [CB]-CG--CD-[OE1] |==|  0.41024
USER: genes 10 Torsion [N]-CA--CB-[CG] |==|  0.14703
USER: genes 11 Torsion [CA]-CB--CG-[CD] |==|  0.71145
USER: genes 12 Torsion [CB]-CG--CD-[CE] |==|  0.44985
USER: genes 13 Torsion [CG]-CD--CE-[NZ] |==|  0.36823
USER: genes 14 Torsion [CD]-CE--NZ-[HZ3] |==|  0.42204
USER: genes 15 Torsion [C]-CA--CB-[CG2] |==|  0.92803
USER: genes 16 Torsion [CA]-CB--OG1-[HG1] |==|  0.19078
USER: genes 17 Torsion [C]-CA--N-[C] |==|  0.81228
USER: genes 18 Torsion [N]-C--CA-[N] |==|  0.22456
USER: genes 19 Torsion [C]-CA--N-[C] |==|  0.74520
USER: genes 20 Torsion [N]-C--CA-[N] |==|  0.86962
USER: genes 21 Torsion [C]-CA--N-[H1] |==|  0.39709
USER: genes 22 Torsion [C]-CA--CB-[CG] |==|  0.13319
USER: genes 23 Torsion [CA]-CB--CG-[CD] |==|  0.41429
USER: genes 24 Torsion [CB]-CG--CD-[NE] |==|  0.37021
USER: genes 25 Torsion [CG]-CD--NE-[HE] |==|  0.89967
ROOT
ATOM      1  CA  THR D   3      16.736 -18.262  18.889  1.00 16.13 LIG 0.20  C 
ENDROOT
BRANCH 1 2
ATOM      2  C   THR D   3      16.147 -17.922  17.511  1.00 16.95 LIG 0.24  C 
ATOM      3 O    THR D   3      14.987 -18.243  17.237  1.00 16.12 LIG-0.27  OA
ATOM      4  N   LYS D   4      16.957 -17.278  16.665  1.00 18.15 LIG-0.35  N 
ATOM      5 H    LYS D   4      17.749 -17.025  16.883  1.00 18.15 LIG 0.16  HD
BRANCH 4 6
ATOM      6  CA  LYS D   4      16.597 -16.931  15.281  1.00 19.65 LIG 0.18  C 
BRANCH 6 7
ATOM      7  C   LYS D   4      17.517 -17.655  14.320  1.00 20.62 LIG 0.24  C 
ATOM      8 O    LYS D   4      18.699 -17.850  14.620  1.00 20.86 LIG-0.27  OA
ATOM      9  N   GLN D   5      16.986 -18.041  13.164  1.00 21.55 LIG-0.35  N 
ATOM     10 H    GLN D   5      16.168 -17.902  12.939  1.00 21.55 LIG 0.16  HD
BRANCH 9 11
ATOM     11  CA  GLN D   5      17.782 -18.753  12.156  1.00 22.83 LIG 0.16  C 
BRANCH 11 12
ATOM     12  C   GLN D   5      18.551 -17.798  11.245  1.00 22.91 LIG 0.22  C 
ATOM     13 O    GLN D   5      19.010 -16.739  11.675  1.00 23.29 LIG-0.29  OA
ENDBRANCH 11 12
BRANCH 11 14
ATOM     14  CB  GLN D   5      16.905 -19.694  11.326  1.00 22.86 LIG 0.04  C 
BRANCH 14 15
ATOM     15  CG  GLN D   5      17.660 -20.815  10.633  1.00 24.40 LIG 0.10  C 
BRANCH 15 16
ATOM     16  CD  GLN D   5      16.773 -21.681   9.758  1.00 24.21 LIG 0.21  C 
ATOM     17  NE2 GLN D   5      15.511 -21.833  10.163  1.00 25.13 LIG-0.37  N 
ATOM     18 22HE GLN D   5      14.966 -22.311   9.700  1.00 25.13 LIG 0.16  HD
ATOM     19 21HE GLN D   5      15.242 -21.453  10.886  1.00 25.13 LIG 0.16  HD
ATOM     20 OE1  GLN D   5      17.212 -22.204   8.727  1.00 25.71 LIG-0.27  OA
ENDBRANCH 15 16
ENDBRANCH 14 15
ENDBRANCH 11 14
ENDBRANCH 9 11
ENDBRANCH 6 7
BRANCH 6 21
ATOM     21  CB  LYS D   4      16.767 -15.430  15.029  1.00 19.73 LIG 0.04  C 
BRANCH 21 22
ATOM     22  CG  LYS D   4      18.109 -14.851  15.384  1.00 20.49 LIG 0.00  C 
BRANCH 22 23
ATOM     23  CD  LYS D   4      18.001 -14.077  16.688  1.00 20.73 LIG 0.03  C 
BRANCH 23 24
ATOM     24  CE  LYS D   4      19.366 -13.863  17.296  1.00 20.46 LIG 0.23  C 
BRANCH 24 25
ATOM     25  NZ  LYS D   4      19.554 -12.454  17.716  1.00 20.02 LIG-0.08  N 
ATOM     26 HZ3  LYS D   4      20.128 -12.421  18.395  1.00 20.02 LIG 0.27  HD
ATOM     27 HZ1  LYS D   4      19.874 -11.980  17.034  1.00 20.02 LIG 0.27  HD
ATOM     28 HZ2  LYS D   4      18.772 -12.114  17.973  1.00 20.02 LIG 0.27  HD
ENDBRANCH 24 25
ENDBRANCH 23 24
ENDBRANCH 22 23
ENDBRANCH 21 22
ENDBRANCH 6 21
ENDBRANCH 4 6
ENDBRANCH 1 2
BRANCH 1 29
ATOM     29  CB  THR D   3      16.088 -17.375  19.971  1.00 15.86 LIG 0.15  C 
ATOM     30  CG2 THR D   3      15.589 -16.066  19.366  1.00 16.15 LIG 0.04  C 
BRANCH 29 31
ATOM     31 OG1  THR D   3      14.981 -18.068  20.561  1.00 16.19 LIG-0.39  OA
ATOM     32 HG1  THR D   3      15.265 -18.718  21.011  1.00 16.19 LIG 0.21  HD
ENDBRANCH 29 31
ENDBRANCH 1 29
BRANCH 1 33
ATOM     33  N   THR D   3      18.204 -18.196  18.950  1.00 15.75 LIG-0.34  N 
ATOM     34  C   ARG D   2      18.979 -19.059  18.291  1.00 15.31 LIG 0.24  C 
ATOM     35 O    ARG D   2      18.532 -19.927  17.545  1.00 15.17 LIG-0.27  OA
ATOM     36 H    THR D   3      18.509 -17.560  19.443  1.00 15.75 LIG 0.16  HD
BRANCH 34 37
ATOM     37  CA  ARG D   2      20.486 -18.935  18.517  1.00 15.15 LIG 0.18  C 
BRANCH 37 38
ATOM     38  N   ARG D   2      20.923 -19.582  19.759  1.00 15.89 LIG-0.35  N 
ATOM     39  C   ALA D   1      21.019 -18.963  20.937  1.00 16.91 LIG 0.25  C 
ATOM     40 O    ALA D   1      20.870 -17.743  21.083  1.00 17.32 LIG-0.27  OA
ATOM     41 H    ARG D   2      21.114 -20.414  19.656  1.00 15.89 LIG 0.16  HD
BRANCH 39 42
ATOM     42  CA  ALA D   1      21.348 -19.854  22.136  1.00 17.08 LIG 0.27  C 
ATOM     43  CB  ALA D   1      22.843 -20.245  22.136  1.00 17.48 LIG 0.05  C 
BRANCH 42 44
ATOM     44  N   ALA D   1      20.492 -21.077  22.145  1.00 17.36 LIG-0.07  N 
ATOM     45 H3   ALA D   1      20.198 -21.240  21.321  1.00 17.36 LIG 0.28  HD
ATOM     46 H2   ALA D   1      19.799 -20.950  22.689  1.00 17.36 LIG 0.28  HD
ATOM     47 H1   ALA D   1      20.970 -21.772  22.432  1.00 17.36 LIG 0.28  HD
ENDBRANCH 42 44
ENDBRANCH 39 42
ENDBRANCH 37 38
BRANCH 37 48
ATOM     48  CB  ARG D   2      21.237 -19.579  17.342  1.00 15.08 LIG 0.04  C 
BRANCH 48 49
ATOM     49  CG  ARG D   2      20.785 -19.202  15.938  1.00 14.63 LIG 0.02  C 
BRANCH 49 50
ATOM     50  CD  ARG D   2      21.966 -19.245  14.960  1.00 13.91 LIG 0.14  C 
BRANCH 50 51
ATOM     51  NE  ARG D   2      21.636 -19.952  13.723  1.00 10.79 LIG-0.23  N 
ATOM     52 HE   ARG D   2      21.115 -20.634  13.777  1.00 10.79 LIG 0.18  HD
ATOM     53  CZ  ARG D   2      22.088 -19.610  12.516  1.00 10.30 LIG 0.67  C 
ATOM     54  NH2 ARG D   2      22.888 -18.554  12.367  1.00  9.50 LIG-0.23  N 
ATOM     55  NH1 ARG D   2      21.741 -20.327  11.457  1.00  9.44 LIG-0.23  N 
ATOM     56 2HH2 ARG D   2      23.176 -18.340  11.586  1.00  9.50 LIG 0.17  HD
ATOM     57 1HH2 ARG D   2      23.116 -18.087  13.053  1.00  9.50 LIG 0.17  HD
ATOM     58 1HH1 ARG D   2      21.226 -21.010  11.550  1.00  9.44 LIG 0.17  HD
ATOM     59 2HH1 ARG D   2      22.030 -20.110  10.677  1.00  9.44 LIG 0.17  HD
ENDBRANCH 50 51
ENDBRANCH 49 50
ENDBRANCH 48 49
ENDBRANCH 37 48
ENDBRANCH 34 37
ENDBRANCH 1 33
TORSDOF 24
ENDMDL
MODEL 38
USER: ADFR SOLUTION from run 61
USER: SCORE 17.704685 LL:  -3.301 LR: -15.507 RR:   0.000 FEB:  -8.348
USER: RMSD 8.032709
USER: SEED 60
USER: STATUS no improvement in best in 9 clusters for 5 generations
USER: GENES 26
USER: genes 0 Translation |==|  0.55070 0.39352 0.49452
USER: genes 1 Rotation |==|  0.72625 0.91363 0.63720 0.59434
USER: genes 2 Torsion [N]-CA--C-[N] |==|  0.01971
USER: genes 3 Torsion [C]-N--CA-[C] |==|  0.65206
USER: genes 4 Torsion [N]-CA--C-[N] |==|  0.07733
USER: genes 5 Torsion [C]-N--CA-[C] |==|  0.54849
USER: genes 6 Torsion [N]-CA--C-[O] |==|  0.41555
USER: genes 7 Torsion [N]-CA--CB-[CG] |==|  0.37913
USER: genes 8 Torsion [CA]-CB--CG-[CD] |==|  0.28809
USER: genes 9 Torsion [CB]-CG--CD-[OE1] |==|  0.26540
USER: genes 10 Torsion [N]-CA--CB-[CG] |==|  0.93079
USER: genes 11 Torsion [CA]-CB--CG-[CD] |==|  0.79441
USER: genes 12 Torsion [CB]-CG--CD-[CE] |==|  0.71897
USER: genes 13 Torsion [CG]-CD--CE-[NZ] |==|  0.09598
USER: genes 14 Torsion [CD]-CE--NZ-[HZ3] |==|  0.20078
USER: genes 15 Torsion [C]-CA--CB-[CG2] |==|  0.30022
USER: genes 16 Torsion [CA]-CB--OG1-[HG1] |==|  0.64330
USER: genes 17 Torsion [C]-CA--N-[C] |==|  0.70434
USER: genes 18 Torsion [N]-C--CA-[N] |==|  0.79555
USER: genes 19 Torsion [C]-CA--N-[C] |==|  0.18299
USER: genes 20 Torsion [N]-C--CA-[N] |==|  0.75563
USER: genes 21 Torsion [C]-CA--N-[H1] |==|  0.54216
USER: genes 22 Torsion [C]-CA--CB-[CG] |==|  0.55727
USER: genes 23 Torsion [CA]-CB--CG-[CD] |==|  0.81733
USER: genes 24 Torsion [CB]-CG--CD-[NE] |==|  0.37071
USER: genes 25 Torsion [CG]-CD--NE-[HE] |==|  0.97411
ROOT
ATOM      1  CA  THR D   3      20.318 -18.735  16.013  1.00 16.13 LIG 0.20  C 
ENDROOT
BRANCH 1 2
ATOM      2  C   THR D   3      19.607 -19.355  17.226  1.00 16.95 LIG 0.24  C 
ATOM      3 O    THR D   3      19.716 -20.563  17.457  1.00 16.12 LIG-0.27  OA
ATOM      4  N   LYS D   4      18.890 -18.519  17.982  1.00 18.15 LIG-0.35  N 
ATOM      5 H    LYS D   4      18.855 -17.673  17.834  1.00 18.15 LIG 0.16  HD
BRANCH 4 6
ATOM      6  CA  LYS D   4      18.085 -18.938  19.141  1.00 19.65 LIG 0.18  C 
BRANCH 6 7
ATOM      7  C   LYS D   4      16.658 -18.461  18.968  1.00 20.62 LIG 0.24  C 
ATOM      8 O    LYS D   4      15.952 -18.243  19.958  1.00 20.86 LIG-0.27  OA
ATOM      9  N   GLN D   5      16.227 -18.312  17.719  1.00 21.55 LIG-0.35  N 
ATOM     10 H    GLN D   5      16.705 -18.470  17.022  1.00 21.55 LIG 0.16  HD
BRANCH 9 11
ATOM     11  CA  GLN D   5      14.863 -17.851  17.430  1.00 22.83 LIG 0.16  C 
BRANCH 11 12
ATOM     12  C   GLN D   5      14.443 -18.153  15.992  1.00 22.91 LIG 0.22  C 
ATOM     13 O    GLN D   5      13.265 -18.370  15.705  1.00 23.29 LIG-0.29  OA
ENDBRANCH 11 12
BRANCH 11 14
ATOM     14  CB  GLN D   5      14.711 -16.358  17.729  1.00 22.86 LIG 0.04  C 
BRANCH 14 15
ATOM     15  CG  GLN D   5      13.947 -15.577  16.674  1.00 24.40 LIG 0.10  C 
BRANCH 15 16
ATOM     16  CD  GLN D   5      12.527 -15.243  17.090  1.00 24.21 LIG 0.21  C 
ATOM     17  NE2 GLN D   5      11.610 -16.189  16.879  1.00 25.13 LIG-0.37  N 
ATOM     18 22HE GLN D   5      10.791 -16.051  17.102  1.00 25.13 LIG 0.16  HD
ATOM     19 21HE GLN D   5      11.839 -16.938  16.522  1.00 25.13 LIG 0.16  HD
ATOM     20 OE1  GLN D   5      12.253 -14.150  17.600  1.00 25.71 LIG-0.27  OA
ENDBRANCH 15 16
ENDBRANCH 14 15
ENDBRANCH 11 14
ENDBRANCH 9 11
ENDBRANCH 6 7
BRANCH 6 21
ATOM     21  CB  LYS D   4      18.619 -18.316  20.434  1.00 19.73 LIG 0.04  C 
BRANCH 21 22
ATOM     22  CG  LYS D   4      20.073 -17.932  20.429  1.00 20.49 LIG 0.00  C 
BRANCH 22 23
ATOM     23  CD  LYS D   4      20.931 -19.184  20.521  1.00 20.73 LIG 0.03  C 
BRANCH 23 24
ATOM     24  CE  LYS D   4      21.440 -19.381  21.928  1.00 20.46 LIG 0.23  C 
BRANCH 24 25
ATOM     25  NZ  LYS D   4      20.445 -18.928  22.929  1.00 20.02 LIG-0.08  N 
ATOM     26 HZ3  LYS D   4      19.767 -19.504  22.955  1.00 20.02 LIG 0.27  HD
ATOM     27 HZ1  LYS D   4      20.828 -18.886  23.731  1.00 20.02 LIG 0.27  HD
ATOM     28 HZ2  LYS D   4      20.140 -18.123  22.703  1.00 20.02 LIG 0.27  HD
ENDBRANCH 24 25
ENDBRANCH 23 24
ENDBRANCH 22 23
ENDBRANCH 21 22
ENDBRANCH 6 21
ENDBRANCH 4 6
ENDBRANCH 1 2
BRANCH 1 29
ATOM     29  CB  THR D   3      21.779 -19.219  15.955  1.00 15.86 LIG 0.15  C 
ATOM     30  CG2 THR D   3      21.975 -20.204  14.806  1.00 16.15 LIG 0.04  C 
BRANCH 29 31
ATOM     31 OG1  THR D   3      22.650 -18.098  15.761  1.00 16.19 LIG-0.39  OA
ATOM     32 HG1  THR D   3      23.162 -18.249  15.112  1.00 16.19 LIG 0.21  HD
ENDBRANCH 29 31
ENDBRANCH 1 29
BRANCH 1 33
ATOM     33  N   THR D   3      20.236 -17.268  15.952  1.00 15.75 LIG-0.34  N 
ATOM     34  C   ARG D   2      19.450 -16.638  15.078  1.00 15.31 LIG 0.24  C 
ATOM     35 O    ARG D   2      18.699 -17.229  14.304  1.00 15.17 LIG-0.27  OA
ATOM     36 H    THR D   3      20.734 -16.863  16.525  1.00 15.75 LIG 0.16  HD
BRANCH 34 37
ATOM     37  CA  ARG D   2      19.532 -15.111  15.060  1.00 15.15 LIG 0.18  C 
BRANCH 37 38
ATOM     38  N   ARG D   2      18.880 -14.501  16.223  1.00 15.89 LIG-0.35  N 
ATOM     39  C   ALA D   1      19.303 -14.637  17.482  1.00 16.91 LIG 0.25  C 
ATOM     40 O    ALA D   1      20.221 -15.397  17.816  1.00 17.32 LIG-0.27  OA
ATOM     41 H    ARG D   2      18.185 -14.038  16.017  1.00 15.89 LIG 0.16  HD
BRANCH 39 42
ATOM     42  CA  ALA D   1      18.569 -13.797  18.529  1.00 17.08 LIG 0.27  C 
ATOM     43  CB  ALA D   1      17.072 -13.662  18.174  1.00 17.48 LIG 0.05  C 
BRANCH 42 44
ATOM     44  N   ALA D   1      19.193 -12.448  18.666  1.00 17.36 LIG-0.07  N 
ATOM     45 H3   ALA D   1      18.968 -11.944  17.968  1.00 17.36 LIG 0.28  HD
ATOM     46 H2   ALA D   1      20.079 -12.533  18.699  1.00 17.36 LIG 0.28  HD
ATOM     47 H1   ALA D   1      18.905 -12.062  19.415  1.00 17.36 LIG 0.28  HD
ENDBRANCH 42 44
ENDBRANCH 39 42
ENDBRANCH 37 38
BRANCH 37 48
ATOM     48  CB  ARG D   2      21.004 -14.675  15.041  1.00 15.08 LIG 0.04  C 
BRANCH 48 49
ATOM     49  CG  ARG D   2      21.315 -13.256  15.499  1.00 14.63 LIG 0.02  C 
BRANCH 49 50
ATOM     50  CD  ARG D   2      20.709 -12.231  14.533  1.00 13.91 LIG 0.14  C 
BRANCH 50 51
ATOM     51  NE  ARG D   2      20.004 -11.158  15.234  1.00 10.79 LIG-0.23  N 
ATOM     52 HE   ARG D   2      19.879 -11.246  16.081  1.00 10.79 LIG 0.18  HD
ATOM     53  CZ  ARG D   2      19.543 -10.052  14.649  1.00 10.30 LIG 0.67  C 
ATOM     54  NH2 ARG D   2      19.719  -9.853  13.343  1.00  9.50 LIG-0.23  N 
ATOM     55  NH1 ARG D   2      18.902  -9.145  15.373  1.00  9.44 LIG-0.23  N 
ATOM     56 2HH2 ARG D   2      19.418  -9.138  12.973  1.00  9.50 LIG 0.17  HD
ATOM     57 1HH2 ARG D   2      20.132 -10.441  12.870  1.00  9.50 LIG 0.17  HD
ATOM     58 1HH1 ARG D   2      18.786  -9.271  16.215  1.00  9.44 LIG 0.17  HD
ATOM     59 2HH1 ARG D   2      18.603  -8.430  14.999  1.00  9.44 LIG 0.17  HD
ENDBRANCH 50 51
ENDBRANCH 49 50
ENDBRANCH 48 49
ENDBRANCH 37 48
ENDBRANCH 34 37
ENDBRANCH 1 33
TORSDOF 24
ENDMDL
MODEL 39
USER: ADFR SOLUTION from run 47
USER: SCORE 17.130008 LL:  -2.255 LR: -15.491 RR:   0.000 FEB:  -8.332
USER: RMSD 6.343718
USER: SEED 46
USER: STATUS no improvement in best in 25 clusters for 5 generations
USER: GENES 26
USER: genes 0 Translation |==|  0.56930 0.38526 0.49531
USER: genes 1 Rotation |==|  0.70199 0.29449 0.85231 0.70699
USER: genes 2 Torsion [N]-CA--C-[N] |==|  0.36380
USER: genes 3 Torsion [C]-N--CA-[C] |==|  0.67682
USER: genes 4 Torsion [N]-CA--C-[N] |==|  0.95000
USER: genes 5 Torsion [C]-N--CA-[C] |==|  0.15867
USER: genes 6 Torsion [N]-CA--C-[O] |==|  0.35111
USER: genes 7 Torsion [N]-CA--CB-[CG] |==|  0.86650
USER: genes 8 Torsion [CA]-CB--CG-[CD] |==|  0.81601
USER: genes 9 Torsion [CB]-CG--CD-[OE1] |==|  0.71771
USER: genes 10 Torsion [N]-CA--CB-[CG] |==|  0.61315
USER: genes 11 Torsion [CA]-CB--CG-[CD] |==|  0.38285
USER: genes 12 Torsion [CB]-CG--CD-[CE] |==|  0.05416
USER: genes 13 Torsion [CG]-CD--CE-[NZ] |==|  0.55567
USER: genes 14 Torsion [CD]-CE--NZ-[HZ3] |==|  0.34889
USER: genes 15 Torsion [C]-CA--CB-[CG2] |==|  0.98888
USER: genes 16 Torsion [CA]-CB--OG1-[HG1] |==|  0.54840
USER: genes 17 Torsion [C]-CA--N-[C] |==|  0.84538
USER: genes 18 Torsion [N]-C--CA-[N] |==|  0.33417
USER: genes 19 Torsion [C]-CA--N-[C] |==|  0.87077
USER: genes 20 Torsion [N]-C--CA-[N] |==|  0.11560
USER: genes 21 Torsion [C]-CA--N-[H1] |==|  0.13437
USER: genes 22 Torsion [C]-CA--CB-[CG] |==|  0.00252
USER: genes 23 Torsion [CA]-CB--CG-[CD] |==|  0.63928
USER: genes 24 Torsion [CB]-CG--CD-[NE] |==|  0.51843
USER: genes 25 Torsion [CG]-CD--NE-[HE] |==|  0.16772
ROOT
ATOM      1  CA  THR D   3      20.666 -18.903  16.031  1.00 16.13 LIG 0.20  C 
ENDROOT
BRANCH 1 2
ATOM      2  C   THR D   3      20.372 -17.584  15.299  1.00 16.95 LIG 0.24  C 
ATOM      3 O    THR D   3      19.210 -17.281  15.011  1.00 16.12 LIG-0.27  OA
ATOM      4  N   LYS D   4      21.430 -16.820  15.009  1.00 18.15 LIG-0.35  N 
ATOM      5 H    LYS D   4      22.229 -17.023  15.251  1.00 18.15 LIG 0.16  HD
BRANCH 4 6
ATOM      6  CA  LYS D   4      21.356 -15.560  14.252  1.00 19.65 LIG 0.18  C 
BRANCH 6 7
ATOM      7  C   LYS D   4      22.124 -15.700  12.955  1.00 20.62 LIG 0.24  C 
ATOM      8 O    LYS D   4      21.918 -14.916  12.023  1.00 20.86 LIG-0.27  OA
ATOM      9  N   GLN D   5      22.996 -16.702  12.884  1.00 21.55 LIG-0.35  N 
ATOM     10 H    GLN D   5      23.140 -17.261  13.521  1.00 21.55 LIG 0.16  HD
BRANCH 9 11
ATOM     11  CA  GLN D   5      23.799 -16.933  11.677  1.00 22.83 LIG 0.16  C 
BRANCH 11 12
ATOM     12  C   GLN D   5      24.633 -15.711  11.294  1.00 22.91 LIG 0.22  C 
ATOM     13 O    GLN D   5      25.850 -15.799  11.123  1.00 23.29 LIG-0.29  OA
ENDBRANCH 11 12
BRANCH 11 14
ATOM     14  CB  GLN D   5      22.918 -17.368  10.503  1.00 22.86 LIG 0.04  C 
BRANCH 14 15
ATOM     15  CG  GLN D   5      21.932 -18.476  10.830  1.00 24.40 LIG 0.10  C 
BRANCH 15 16
ATOM     16  CD  GLN D   5      22.604 -19.796  11.157  1.00 24.21 LIG 0.21  C 
ATOM     17  NE2 GLN D   5      23.115 -19.912  12.385  1.00 25.13 LIG-0.37  N 
ATOM     18 22HE GLN D   5      23.502 -20.642  12.622  1.00 25.13 LIG 0.16  HD
ATOM     19 21HE GLN D   5      23.055 -19.257  12.939  1.00 25.13 LIG 0.16  HD
ATOM     20 OE1  GLN D   5      22.661 -20.706  10.321  1.00 25.71 LIG-0.27  OA
ENDBRANCH 15 16
ENDBRANCH 14 15
ENDBRANCH 11 14
ENDBRANCH 9 11
ENDBRANCH 6 7
BRANCH 6 21
ATOM     21  CB  LYS D   4      21.994 -14.410  15.036  1.00 19.73 LIG 0.04  C 
BRANCH 21 22
ATOM     22  CG  LYS D   4      21.269 -13.093  14.980  1.00 20.49 LIG 0.00  C 
BRANCH 22 23
ATOM     23  CD  LYS D   4      21.255 -12.459  16.362  1.00 20.73 LIG 0.03  C 
BRANCH 23 24
ATOM     24  CE  LYS D   4      22.332 -13.057  17.235  1.00 20.46 LIG 0.23  C 
BRANCH 24 25
ATOM     25  NZ  LYS D   4      22.049 -12.829  18.672  1.00 20.02 LIG-0.08  N 
ATOM     26 HZ3  LYS D   4      22.057 -13.607  19.103  1.00 20.02 LIG 0.27  HD
ATOM     27 HZ1  LYS D   4      22.671 -12.294  19.016  1.00 20.02 LIG 0.27  HD
ATOM     28 HZ2  LYS D   4      21.249 -12.450  18.761  1.00 20.02 LIG 0.27  HD
ENDBRANCH 24 25
ENDBRANCH 23 24
ENDBRANCH 22 23
ENDBRANCH 21 22
ENDBRANCH 6 21
ENDBRANCH 4 6
ENDBRANCH 1 2
BRANCH 1 29
ATOM     29  CB  THR D   3      20.584 -20.082  15.042  1.00 15.86 LIG 0.15  C 
ATOM     30  CG2 THR D   3      20.140 -19.600  13.664  1.00 16.15 LIG 0.04  C 
BRANCH 29 31
ATOM     31 OG1  THR D   3      21.870 -20.703  14.927  1.00 16.19 LIG-0.39  OA
ATOM     32 HG1  THR D   3      21.892 -21.176  14.233  1.00 16.19 LIG 0.21  HD
ENDBRANCH 29 31
ENDBRANCH 1 29
BRANCH 1 33
ATOM     33  N   THR D   3      19.825 -19.135  17.214  1.00 15.75 LIG-0.34  N 
ATOM     34  C   ARG D   2      19.752 -18.256  18.215  1.00 15.31 LIG 0.24  C 
ATOM     35 O    ARG D   2      20.330 -17.171  18.197  1.00 15.17 LIG-0.27  OA
ATOM     36 H    THR D   3      19.392 -19.878  17.199  1.00 15.75 LIG 0.16  HD
BRANCH 34 37
ATOM     37  CA  ARG D   2      18.913 -18.665  19.426  1.00 15.15 LIG 0.18  C 
BRANCH 37 38
ATOM     38  N   ARG D   2      19.697 -18.701  20.665  1.00 15.89 LIG-0.35  N 
ATOM     39  C   ALA D   1      20.896 -19.276  20.781  1.00 16.91 LIG 0.25  C 
ATOM     40 O    ALA D   1      21.421 -19.950  19.886  1.00 17.32 LIG-0.27  OA
ATOM     41 H    ARG D   2      19.305 -18.310  21.323  1.00 15.89 LIG 0.16  HD
BRANCH 39 42
ATOM     42  CA  ALA D   1      21.609 -19.071  22.119  1.00 17.08 LIG 0.27  C 
ATOM     43  CB  ALA D   1      22.775 -20.072  22.278  1.00 17.48 LIG 0.05  C 
BRANCH 42 44
ATOM     44  N   ALA D   1      20.655 -19.199  23.260  1.00 17.36 LIG-0.07  N 
ATOM     45 H3   ALA D   1      20.117 -18.490  23.278  1.00 17.36 LIG 0.28  HD
ATOM     46 H2   ALA D   1      21.110 -19.245  24.023  1.00 17.36 LIG 0.28  HD
ATOM     47 H1   ALA D   1      20.169 -19.938  23.159  1.00 17.36 LIG 0.28  HD
ENDBRANCH 42 44
ENDBRANCH 39 42
ENDBRANCH 37 38
BRANCH 37 48
ATOM     48  CB  ARG D   2      17.756 -17.671  19.609  1.00 15.08 LIG 0.04  C 
BRANCH 48 49
ATOM     49  CG  ARG D   2      17.646 -16.538  18.599  1.00 14.63 LIG 0.02  C 
BRANCH 49 50
ATOM     50  CD  ARG D   2      17.504 -15.188  19.315  1.00 13.91 LIG 0.14  C 
BRANCH 50 51
ATOM     51  NE  ARG D   2      17.240 -14.092  18.382  1.00 10.79 LIG-0.23  N 
ATOM     52 HE   ARG D   2      16.527 -14.136  17.902  1.00 10.79 LIG 0.18  HD
ATOM     53  CZ  ARG D   2      18.031 -13.031  18.225  1.00 10.30 LIG 0.67  C 
ATOM     54  NH2 ARG D   2      19.142 -12.901  18.949  1.00  9.50 LIG-0.23  N 
ATOM     55  NH1 ARG D   2      17.710 -12.098  17.339  1.00  9.44 LIG-0.23  N 
ATOM     56 2HH2 ARG D   2      19.647 -12.214  18.842  1.00  9.50 LIG 0.17  HD
ATOM     57 1HH2 ARG D   2      19.355 -13.505  19.523  1.00  9.50 LIG 0.17  HD
ATOM     58 1HH1 ARG D   2      16.995 -12.179  16.870  1.00  9.44 LIG 0.17  HD
ATOM     59 2HH1 ARG D   2      18.218 -11.411  17.235  1.00  9.44 LIG 0.17  HD
ENDBRANCH 50 51
ENDBRANCH 49 50
ENDBRANCH 48 49
ENDBRANCH 37 48
ENDBRANCH 34 37
ENDBRANCH 1 33
TORSDOF 24
ENDMDL
