MODEL 1
USER: ADFR SOLUTION from run 148
USER: SCORE 17.180143 LL:  -2.869 LR: -17.143 RR:   0.000 FEB: -11.774
USER: RMSD 4.194680
USER: SEED 147
USER: STATUS no improvement in best in 3 clusters for 5 generations
USER: GENES 20
USER: genes 0 Translation |==|  0.44696 0.46295 0.37843
USER: genes 1 Rotation |==|  0.31364 0.66631 0.61886 0.91651
USER: genes 2 Torsion [CB]-CA--N-[C] |==|  0.77771
USER: genes 3 Torsion [N]-C--CA-[N] |==|  0.48068
USER: genes 4 Torsion [C]-CA--CB-[CG] |==|  0.40786
USER: genes 5 Torsion [CA]-CB--CG-[OD1] |==|  0.58299
USER: genes 6 Torsion [C]-CA--N-[C] |==|  0.67429
USER: genes 7 Torsion [N]-C--CA-[N] |==|  0.42798
USER: genes 8 Torsion [C]-CA--CB-[CG] |==|  0.76366
USER: genes 9 Torsion [CA]-CB--CG-[OD1] |==|  0.97282
USER: genes 10 Torsion [N]-CA--CB-[CG] |==|  0.69598
USER: genes 11 Torsion [CA]-CB--CG-[CD2] |==|  0.00995
USER: genes 12 Torsion [N]-CA--C-[N] |==|  0.68356
USER: genes 13 Torsion [C]-N--CA-[CB] |==|  0.45556
USER: genes 14 Torsion [N]-CA--CB-[CG] |==|  0.78828
USER: genes 15 Torsion [CA]-CB--CG-[CD2] |==|  0.30686
USER: genes 16 Torsion [CE2]-CZ--OH-[HH] |==|  0.40664
USER: genes 17 Torsion [N]-CA--C-[N] |==|  0.78346
USER: genes 18 Torsion [C]-N--CA-[C] |==|  0.78579
USER: genes 19 Torsion [N]-CA--C-[O] |==|  0.29326
ROOT
ATOM      1  CA  LEU B 804      48.813  52.758  19.625  1.00 31.72 LIG 0.18  C 
ENDROOT
BRANCH 1 2
ATOM      2  N   LEU B 804      50.194  53.236  19.481  1.00 32.47 LIG-0.35  N 
ATOM      3 H    LEU B 804      50.480  53.221  18.671  1.00 32.47 LIG 0.16  HD
ATOM      4  C   ASP B 803      50.937  53.654  20.503  1.00 36.20 LIG 0.24  C 
ATOM      5 O    ASP B 803      50.579  53.622  21.695  1.00 34.88 LIG-0.27  OA
BRANCH 4 6
ATOM      6  CA  ASP B 803      52.315  54.207  20.106  1.00 38.58 LIG 0.19  C 
BRANCH 6 7
ATOM      7  CB  ASP B 803      53.140  53.143  19.396  1.00 39.00 LIG 0.15  C 
BRANCH 7 8
ATOM      8  CG  ASP B 803      54.053  53.755  18.329  1.00 41.67 LIG 0.17  C 
ATOM      9 OD1  ASP B 803      54.340  53.049  17.318  1.00 44.54 LIG-0.65  OA
ATOM     10 OD2  ASP B 803      54.513  54.909  18.527  1.00 44.60 LIG-0.65  OA
ENDBRANCH 7 8
ENDBRANCH 6 7
BRANCH 6 11
ATOM     11  N   ASP B 803      52.986  54.787  21.259  1.00 40.89 LIG-0.34  N 
ATOM     12  C   ASP B 802      53.274  56.089  21.257  1.00 43.36 LIG 0.26  C 
ATOM     13 O    ASP B 802      52.975  56.831  20.308  1.00 44.71 LIG-0.27  OA
ATOM     14 H    ASP B 803      53.165  54.240  21.900  1.00 40.89 LIG 0.16  HD
BRANCH 12 15
ATOM     15  CA  ASP B 802      54.029  56.651  22.463  1.00 44.06 LIG 0.41  C 
ATOM     16  N   ASP B 802      54.787  57.859  22.052  1.00 45.51 LIG 0.61  N 
BRANCH 15 17
ATOM     17  CB  ASP B 802      53.057  57.014  23.591  1.00 45.52 LIG 0.16  C 
BRANCH 17 18
ATOM     18  CG  ASP B 802      52.463  58.410  23.435  1.00 48.04 LIG 0.17  C 
ATOM     19 OD1  ASP B 802      52.918  59.202  22.565  1.00 55.65 LIG-0.65  OA
ATOM     20 OD2  ASP B 802      51.522  58.713  24.197  1.00 54.24 LIG-0.65  OA
ENDBRANCH 17 18
ENDBRANCH 15 17
ENDBRANCH 12 15
ENDBRANCH 6 11
ENDBRANCH 4 6
ENDBRANCH 1 2
BRANCH 1 21
ATOM     21  CB  LEU B 804      48.843  51.305  20.116  1.00 30.53 LIG 0.04  C 
BRANCH 21 22
ATOM     22  CG  LEU B 804      48.407  50.262  19.072  1.00 30.66 LIG-0.02  C 
ATOM     23  CD1 LEU B 804      47.188  49.499  19.568  1.00 31.81 LIG 0.01  C 
ATOM     24  CD2 LEU B 804      48.121  50.916  17.736  1.00 30.59 LIG 0.01  C 
ENDBRANCH 21 22
ENDBRANCH 1 21
BRANCH 1 25
ATOM     25  C   LEU B 804      47.953  53.593  20.584  1.00 30.12 LIG 0.24  C 
ATOM     26 O    LEU B 804      47.694  54.747  20.319  1.00 28.94 LIG-0.27  OA
ATOM     27  N   TYR B 805      47.540  53.008  21.705  1.00 29.37 LIG-0.35  N 
ATOM     28 H    TYR B 805      47.856  52.265  22.000  1.00 29.37 LIG 0.16  HD
BRANCH 27 29
ATOM     29  CA  TYR B 805      46.490  53.593  22.545  1.00 29.00 LIG 0.18  C 
BRANCH 29 30
ATOM     30  CB  TYR B 805      45.957  52.528  23.519  1.00 27.91 LIG 0.07  C 
BRANCH 30 31
ATOM     31  CG  TYR B 805      45.050  51.595  22.747  1.00 26.10 LIG-0.06  A 
ATOM     32  CD2 TYR B 805      45.432  50.296  22.501  1.00 24.65 LIG 0.01  A 
ATOM     33  CE2 TYR B 805      44.567  49.405  21.877  1.00 24.72 LIG 0.04  A 
ATOM     34  CZ  TYR B 805      43.290  49.818  21.530  1.00 22.85 LIG 0.07  A 
ATOM     35  CE1 TYR B 805      42.904  51.106  21.754  1.00 24.79 LIG 0.04  A 
ATOM     36  CD1 TYR B 805      43.770  51.976  22.388  1.00 25.09 LIG 0.01  A 
BRANCH 34 37
ATOM     37 OH   TYR B 805      42.456  48.960  20.850  1.00 25.16 LIG-0.36  OA
ATOM     38 HH   TYR B 805      41.661  49.094  21.090  1.00 25.16 LIG 0.22  HD
ENDBRANCH 34 37
ENDBRANCH 30 31
ENDBRANCH 29 30
BRANCH 29 39
ATOM     39  C   TYR B 805      46.899  54.862  23.293  1.00 29.85 LIG 0.24  C 
ATOM     40 O    TYR B 805      46.537  55.999  22.876  1.00 30.08 LIG-0.27  OA
ATOM     41  N   GLY B 806      47.639  54.662  24.371  1.00 28.51 LIG-0.35  N 
ATOM     42 H    GLY B 806      48.005  53.909  24.567  1.00 28.51 LIG 0.16  HD
BRANCH 41 43
ATOM     43  CA  GLY B 806      47.897  55.715  25.322  1.00 29.14 LIG 0.23  C 
BRANCH 43 44
ATOM     44  C   GLY B 806      48.932  56.683  24.840  1.00 28.84 LIG 0.19  C 
ATOM     45 O    GLY B 806      48.645  57.821  24.439  1.00 28.96 LIG-0.65  OA
ATOM     46 OXT  GLY B 806      50.088  56.291  24.831  1.00 29.15 LIG-0.65  OA
ENDBRANCH 43 44
ENDBRANCH 41 43
ENDBRANCH 29 39
ENDBRANCH 27 29
ENDBRANCH 1 25
TORSDOF 18
ENDMDL
