MODEL 1
USER: ADFR SOLUTION from run 66
USER: SCORE 16.631443 LL:  -2.826 LR: -13.916 RR:   0.000 FEB: -10.933
USER: RMSD 0.792645
USER: SEED 65
USER: STATUS no improvement in best in 6 clusters for 5 generations
USER: GENES 12
USER: genes 0 Translation |==|  0.54678 0.49700 0.39448
USER: genes 1 Rotation |==|  0.50608 0.51555 0.48785 0.99957
USER: genes 2 Torsion [N]-CA--C-[O] |==|  0.95669
USER: genes 3 Torsion [C]-N--CA-[C] |==|  0.59059
USER: genes 4 Torsion [N]-CA--C-[O] |==|  0.93599
USER: genes 5 Torsion [N]-CA--CB-[CG] |==|  0.19038
USER: genes 6 Torsion [CA]-CB--CG-[CD2] |==|  0.27801
USER: genes 7 Torsion [N]-C--CA-[N] |==|  0.41934
USER: genes 8 Torsion [C]-CA--CB-[CG1] |==|  0.46872
USER: genes 9 Torsion [C]-CA--N-[C] |==|  0.65950
USER: genes 10 Torsion [N]-C--CA-[N] |==|  0.47506
USER: genes 11 Torsion [C]-CA--N-[H3] |==|  0.70889
ROOT
ATOM      1  C   VAL C   2      80.987  62.345  14.635  1.00 19.81 LIG 0.24  C 
ATOM      2 O    VAL C   2      80.684  62.025  15.780  1.00 19.32 LIG-0.27  OA
ATOM      3  N   PRO C   3      80.389  63.356  14.003  1.00 21.82 LIG-0.34  N 
ATOM      4  CA  PRO C   3      79.324  64.129  14.659  1.00 23.90 LIG 0.18  C 
ATOM      5  CB  PRO C   3      79.060  65.283  13.674  1.00 24.45 LIG 0.04  C 
ATOM      6  CG  PRO C   3      80.202  65.273  12.722  1.00 24.10 LIG 0.02  C 
ATOM      7  CD  PRO C   3      80.672  63.855  12.645  1.00 23.24 LIG 0.13  C 
ENDROOT
BRANCH 4 8
ATOM      8  C   PRO C   3      78.035  63.332  14.905  1.00 26.32 LIG 0.24  C 
ATOM      9  N   TRP C   4      77.158  63.849  15.767  1.00 29.14 LIG-0.34  N 
ATOM     10 H    TRP C   4      77.314  64.543  16.250  1.00 29.14 LIG 0.16  HD
ATOM     11 O    PRO C   3      77.854  62.267  14.317  1.00 26.12 LIG-0.27  OA
BRANCH 9 12
ATOM     12  CA  TRP C   4      75.822  63.260  15.966  1.00 31.86 LIG 0.19  C 
BRANCH 12 13
ATOM     13  C   TRP C   4      74.742  64.294  16.301  1.00 33.47 LIG 0.20  C 
ATOM     14 O    TRP C   4      75.000  65.396  16.794  1.00 35.20 LIG-0.65  OA
ATOM     15 OXT  TRP C   4      73.550  64.097  16.088  1.00 33.15 LIG-0.65  OA
ENDBRANCH 12 13
BRANCH 12 16
ATOM     16  CB  TRP C   4      75.868  62.199  17.063  1.00 32.27 LIG 0.08  C 
BRANCH 16 17
ATOM     17  CG  TRP C   4      76.111  62.757  18.417  1.00 32.30 LIG-0.03  A 
ATOM     18  CD2 TRP C   4      75.133  63.004  19.428  1.00 33.19 LIG-0.00  A 
ATOM     19  CE3 TRP C   4      73.746  62.828  19.505  1.00 34.05 LIG 0.01  A 
ATOM     20  CE2 TRP C   4      75.810  63.535  20.546  1.00 33.34 LIG 0.04  A 
ATOM     21  CZ3 TRP C   4      73.094  63.182  20.674  1.00 34.92 LIG 0.00  A 
ATOM     22  CH2 TRP C   4      73.801  63.703  21.765  1.00 35.06 LIG 0.00  A 
ATOM     23  CZ2 TRP C   4      75.153  63.891  21.719  1.00 34.21 LIG 0.03  A 
ATOM     24  NE1 TRP C   4      77.139  63.601  20.226  1.00 32.63 LIG-0.36  N 
ATOM     25  CD1 TRP C   4      77.309  63.134  18.944  1.00 32.29 LIG 0.10  A 
ATOM     26 HE1  TRP C   4      77.765  63.888  20.741  1.00 32.63 LIG 0.17  HD
ENDBRANCH 16 17
ENDBRANCH 12 16
ENDBRANCH 9 12
ENDBRANCH 4 8
BRANCH 1 27
ATOM     27  CA  VAL C   2      82.068  61.568  13.883  1.00 19.23 LIG 0.18  C 
BRANCH 27 28
ATOM     28  CB  VAL C   2      81.377  60.461  13.046  1.00 20.17 LIG 0.01  C 
ATOM     29  CG1 VAL C   2      82.360  59.830  12.064  1.00 20.92 LIG 0.01  C 
ATOM     30  CG2 VAL C   2      80.740  59.397  13.945  1.00 19.95 LIG 0.01  C 
ENDBRANCH 27 28
BRANCH 27 31
ATOM     31  N   VAL C   2      83.056  61.016  14.810  1.00 18.74 LIG-0.35  N 
ATOM     32  C   ALA C   1      84.352  61.295  14.719  1.00 18.58 LIG 0.25  C 
ATOM     33 O    ALA C   1      84.824  62.010  13.840  1.00 20.40 LIG-0.27  OA
ATOM     34 H    VAL C   2      82.721  60.500  15.411  1.00 18.74 LIG 0.16  HD
BRANCH 32 35
ATOM     35  CA  ALA C   1      85.254  60.663  15.767  1.00 18.17 LIG 0.27  C 
ATOM     36  CB  ALA C   1      84.952  61.240  17.153  1.00 17.10 LIG 0.05  C 
BRANCH 35 37
ATOM     37  N   ALA C   1      86.684  60.888  15.409  1.00 16.54 LIG-0.07  N 
ATOM     38 H2   ALA C   1      87.135  61.142  16.133  1.00 16.54 LIG 0.28  HD
ATOM     39 H3   ALA C   1      87.034  60.134  15.092  1.00 16.54 LIG 0.28  HD
ATOM     40 H1   ALA C   1      86.738  61.523  14.788  1.00 16.54 LIG 0.28  HD
ENDBRANCH 35 37
ENDBRANCH 32 35
ENDBRANCH 27 31
ENDBRANCH 1 27
TORSDOF 10
ENDMDL
MODEL 2
USER: ADFR SOLUTION from run 182
USER: SCORE 16.853633 LL:  -3.238 LR: -13.753 RR:   0.000 FEB: -10.770
USER: RMSD 2.200407
USER: SEED 181
USER: STATUS no improvement in best in 6 clusters for 5 generations
USER: GENES 12
USER: genes 0 Translation |==|  0.49043 0.54124 0.39697
USER: genes 1 Rotation |==|  0.44364 0.49030 0.38038 0.98210
USER: genes 2 Torsion [N]-CA--C-[O] |==|  0.89358
USER: genes 3 Torsion [C]-N--CA-[C] |==|  0.52092
USER: genes 4 Torsion [N]-CA--C-[O] |==|  0.10120
USER: genes 5 Torsion [N]-CA--CB-[CG] |==|  0.11128
USER: genes 6 Torsion [CA]-CB--CG-[CD2] |==|  0.22479
USER: genes 7 Torsion [N]-C--CA-[N] |==|  0.31719
USER: genes 8 Torsion [C]-CA--CB-[CG1] |==|  0.15653
USER: genes 9 Torsion [C]-CA--N-[C] |==|  0.74823
USER: genes 10 Torsion [N]-C--CA-[N] |==|  0.53555
USER: genes 11 Torsion [C]-CA--N-[H3] |==|  0.44453
ROOT
ATOM      1  C   VAL C   2      79.719  62.976  14.679  1.00 19.81 LIG 0.24  C 
ATOM      2 O    VAL C   2      79.277  63.130  15.814  1.00 19.32 LIG-0.27  OA
ATOM      3  N   PRO C   3      79.622  63.925  13.749  1.00 21.82 LIG-0.34  N 
ATOM      4  CA  PRO C   3      78.965  65.207  14.046  1.00 23.90 LIG 0.18  C 
ATOM      5  CB  PRO C   3      79.241  66.051  12.788  1.00 24.45 LIG 0.04  C 
ATOM      6  CG  PRO C   3      80.299  65.325  12.036  1.00 24.10 LIG 0.02  C 
ATOM      7  CD  PRO C   3      80.128  63.877  12.365  1.00 23.24 LIG 0.13  C 
ENDROOT
BRANCH 4 8
ATOM      8  C   PRO C   3      77.453  65.092  14.290  1.00 26.32 LIG 0.24  C 
ATOM      9  N   TRP C   4      76.934  65.862  15.247  1.00 29.14 LIG-0.34  N 
ATOM     10 H    TRP C   4      77.405  66.341  15.784  1.00 29.14 LIG 0.16  HD
ATOM     11 O    PRO C   3      76.784  64.311  13.615  1.00 26.12 LIG-0.27  OA
BRANCH 9 12
ATOM     12  CA  TRP C   4      75.480  65.956  15.466  1.00 31.86 LIG 0.19  C 
BRANCH 12 13
ATOM     13  C   TRP C   4      75.084  67.028  16.487  1.00 33.47 LIG 0.20  C 
ATOM     14 O    TRP C   4      75.673  68.108  16.587  1.00 35.20 LIG-0.65  OA
ATOM     15 OXT  TRP C   4      74.144  66.887  17.263  1.00 33.15 LIG-0.65  OA
ENDBRANCH 12 13
BRANCH 12 16
ATOM     16  CB  TRP C   4      74.922  64.605  15.907  1.00 32.27 LIG 0.08  C 
BRANCH 16 17
ATOM     17  CG  TRP C   4      75.800  63.883  16.861  1.00 32.30 LIG-0.03  A 
ATOM     18  CD2 TRP C   4      75.896  64.104  18.269  1.00 33.19 LIG-0.00  A 
ATOM     19  CE3 TRP C   4      75.266  64.978  19.163  1.00 34.05 LIG 0.01  A 
ATOM     20  CE2 TRP C   4      76.852  63.196  18.772  1.00 33.34 LIG 0.04  A 
ATOM     21  CZ3 TRP C   4      75.607  64.918  20.504  1.00 34.92 LIG 0.00  A 
ATOM     22  CH2 TRP C   4      76.559  64.001  20.967  1.00 35.06 LIG 0.00  A 
ATOM     23  CZ2 TRP C   4      77.193  63.138  20.119  1.00 34.21 LIG 0.03  A 
ATOM     24  NE1 TRP C   4      77.310  62.457  17.715  1.00 32.63 LIG-0.36  N 
ATOM     25  CD1 TRP C   4      76.673  62.879  16.572  1.00 32.29 LIG 0.10  A 
ATOM     26 HE1  TRP C   4      77.899  61.832  17.758  1.00 32.63 LIG 0.17  HD
ENDBRANCH 16 17
ENDBRANCH 12 16
ENDBRANCH 9 12
ENDBRANCH 4 8
BRANCH 1 27
ATOM     27  CA  VAL C   2      80.391  61.658  14.294  1.00 19.23 LIG 0.18  C 
BRANCH 27 28
ATOM     28  CB  VAL C   2      79.387  60.505  14.552  1.00 20.17 LIG 0.01  C 
ATOM     29  CG1 VAL C   2      78.086  60.737  13.789  1.00 20.92 LIG 0.01  C 
ATOM     30  CG2 VAL C   2      79.997  59.145  14.198  1.00 19.95 LIG 0.01  C 
ENDBRANCH 27 28
BRANCH 27 31
ATOM     31  N   VAL C   2      81.639  61.471  15.033  1.00 18.74 LIG-0.35  N 
ATOM     32  C   ALA C   1      82.812  61.895  14.572  1.00 18.58 LIG 0.25  C 
ATOM     33 O    ALA C   1      82.944  62.447  13.484  1.00 20.40 LIG-0.27  OA
ATOM     34 H    VAL C   2      81.543  61.065  15.786  1.00 18.74 LIG 0.16  HD
BRANCH 32 35
ATOM     35  CA  ALA C   1      84.018  61.646  15.463  1.00 18.17 LIG 0.27  C 
ATOM     36  CB  ALA C   1      83.697  62.013  16.915  1.00 17.10 LIG 0.05  C 
BRANCH 35 37
ATOM     37  N   ALA C   1      85.184  62.435  14.971  1.00 16.54 LIG-0.07  N 
ATOM     38 H2   ALA C   1      84.909  63.240  14.710  1.00 16.54 LIG 0.28  HD
ATOM     39 H3   ALA C   1      85.781  62.524  15.625  1.00 16.54 LIG 0.28  HD
ATOM     40 H1   ALA C   1      85.559  62.013  14.284  1.00 16.54 LIG 0.28  HD
ENDBRANCH 35 37
ENDBRANCH 32 35
ENDBRANCH 27 31
ENDBRANCH 1 27
TORSDOF 10
ENDMDL
MODEL 3
USER: ADFR SOLUTION from run 148
USER: SCORE 16.228567 LL:  -2.630 LR: -13.688 RR:   0.000 FEB: -10.705
USER: RMSD 2.015376
USER: SEED 147
USER: STATUS no improvement in best in 6 clusters for 5 generations
USER: GENES 12
USER: genes 0 Translation |==|  0.53912 0.52321 0.38267
USER: genes 1 Rotation |==|  0.51018 0.48727 0.48321 0.99945
USER: genes 2 Torsion [N]-CA--C-[O] |==|  0.74409
USER: genes 3 Torsion [C]-N--CA-[C] |==|  0.18410
USER: genes 4 Torsion [N]-CA--C-[O] |==|  0.59043
USER: genes 5 Torsion [N]-CA--CB-[CG] |==|  0.74339
USER: genes 6 Torsion [CA]-CB--CG-[CD2] |==|  0.02074
USER: genes 7 Torsion [N]-C--CA-[N] |==|  0.42321
USER: genes 8 Torsion [C]-CA--CB-[CG1] |==|  0.44540
USER: genes 9 Torsion [C]-CA--N-[C] |==|  0.63615
USER: genes 10 Torsion [N]-C--CA-[N] |==|  0.49407
USER: genes 11 Torsion [C]-CA--N-[H3] |==|  0.38930
ROOT
ATOM      1  C   VAL C   2      80.814  62.719  14.422  1.00 19.81 LIG 0.24  C 
ATOM      2 O    VAL C   2      80.378  62.391  15.522  1.00 19.32 LIG-0.27  OA
ATOM      3  N   PRO C   3      80.312  63.749  13.742  1.00 21.82 LIG-0.34  N 
ATOM      4  CA  PRO C   3      79.195  64.537  14.284  1.00 23.90 LIG 0.18  C 
ATOM      5  CB  PRO C   3      79.066  65.707  13.292  1.00 24.45 LIG 0.04  C 
ATOM      6  CG  PRO C   3      80.309  65.685  12.475  1.00 24.10 LIG 0.02  C 
ATOM      7  CD  PRO C   3      80.756  64.259  12.432  1.00 23.24 LIG 0.13  C 
ENDROOT
BRANCH 4 8
ATOM      8  C   PRO C   3      77.870  63.764  14.372  1.00 26.32 LIG 0.24  C 
ATOM      9  N   TRP C   4      77.650  63.065  15.486  1.00 29.14 LIG-0.34  N 
ATOM     10 H    TRP C   4      78.237  62.952  16.104  1.00 29.14 LIG 0.16  HD
ATOM     11 O    PRO C   3      77.074  63.811  13.436  1.00 26.12 LIG-0.27  OA
BRANCH 9 12
ATOM     12  CA  TRP C   4      76.355  62.415  15.752  1.00 31.86 LIG 0.19  C 
BRANCH 12 13
ATOM     13  C   TRP C   4      76.034  61.273  14.784  1.00 33.47 LIG 0.20  C 
ATOM     14 O    TRP C   4      74.884  60.997  14.431  1.00 35.20 LIG-0.65  OA
ATOM     15 OXT  TRP C   4      76.903  60.565  14.284  1.00 33.15 LIG-0.65  OA
ENDBRANCH 12 13
BRANCH 12 16
ATOM     16  CB  TRP C   4      75.227  63.443  15.716  1.00 32.27 LIG 0.08  C 
BRANCH 16 17
ATOM     17  CG  TRP C   4      74.913  64.026  17.045  1.00 32.30 LIG-0.03  A 
ATOM     18  CD2 TRP C   4      75.642  63.830  18.258  1.00 33.19 LIG-0.00  A 
ATOM     19  CE3 TRP C   4      76.789  63.104  18.599  1.00 34.05 LIG 0.01  A 
ATOM     20  CE2 TRP C   4      74.986  64.570  19.265  1.00 33.34 LIG 0.04  A 
ATOM     21  CZ3 TRP C   4      77.234  63.139  19.909  1.00 34.92 LIG 0.00  A 
ATOM     22  CH2 TRP C   4      76.559  63.888  20.881  1.00 35.06 LIG 0.00  A 
ATOM     23  CZ2 TRP C   4      75.435  64.604  20.581  1.00 34.21 LIG 0.03  A 
ATOM     24  NE1 TRP C   4      73.912  65.189  18.684  1.00 32.63 LIG-0.36  N 
ATOM     25  CD1 TRP C   4      73.876  64.853  17.351  1.00 32.29 LIG 0.10  A 
ATOM     26 HE1  TRP C   4      73.351  65.702  19.087  1.00 32.63 LIG 0.17  HD
ENDBRANCH 16 17
ENDBRANCH 12 16
ENDBRANCH 9 12
ENDBRANCH 4 8
BRANCH 1 27
ATOM     27  CA  VAL C   2      81.958  61.928  13.787  1.00 19.23 LIG 0.18  C 
BRANCH 27 28
ATOM     28  CB  VAL C   2      81.346  60.869  12.834  1.00 20.17 LIG 0.01  C 
ATOM     29  CG1 VAL C   2      82.382  60.384  11.824  1.00 20.92 LIG 0.01  C 
ATOM     30  CG2 VAL C   2      80.749  59.694  13.616  1.00 19.95 LIG 0.01  C 
ENDBRANCH 27 28
BRANCH 27 31
ATOM     31  N   VAL C   2      82.805  61.317  14.811  1.00 18.74 LIG-0.35  N 
ATOM     32  C   ALA C   1      84.130  61.423  14.796  1.00 18.58 LIG 0.25  C 
ATOM     33 O    ALA C   1      84.746  62.012  13.914  1.00 20.40 LIG-0.27  OA
ATOM     34 H    VAL C   2      82.368  60.888  15.415  1.00 18.74 LIG 0.16  HD
BRANCH 32 35
ATOM     35  CA  ALA C   1      84.873  60.751  15.940  1.00 18.17 LIG 0.27  C 
ATOM     36  CB  ALA C   1      84.435  61.340  17.284  1.00 17.10 LIG 0.05  C 
BRANCH 35 37
ATOM     37  N   ALA C   1      86.344  60.914  15.754  1.00 16.54 LIG-0.07  N 
ATOM     38 H2   ALA C   1      86.500  61.595  15.202  1.00 16.54 LIG 0.28  HD
ATOM     39 H3   ALA C   1      86.727  61.078  16.541  1.00 16.54 LIG 0.28  HD
ATOM     40 H1   ALA C   1      86.684  60.168  15.409  1.00 16.54 LIG 0.28  HD
ENDBRANCH 35 37
ENDBRANCH 32 35
ENDBRANCH 27 31
ENDBRANCH 1 27
TORSDOF 10
ENDMDL
MODEL 4
USER: ADFR SOLUTION from run 143
USER: SCORE 15.280873 LL:  -2.320 LR: -13.304 RR:   0.000 FEB: -10.321
USER: RMSD 4.120574
USER: SEED 142
USER: STATUS no improvement in best in 7 clusters for 5 generations
USER: GENES 12
USER: genes 0 Translation |==|  0.65858 0.42545 0.39924
USER: genes 1 Rotation |==|  0.08428 0.54850 0.51309 0.77323
USER: genes 2 Torsion [N]-CA--C-[O] |==|  0.06432
USER: genes 3 Torsion [C]-N--CA-[C] |==|  0.56385
USER: genes 4 Torsion [N]-CA--C-[O] |==|  0.08428
USER: genes 5 Torsion [N]-CA--CB-[CG] |==|  0.52471
USER: genes 6 Torsion [CA]-CB--CG-[CD2] |==|  0.11155
USER: genes 7 Torsion [N]-C--CA-[N] |==|  0.27443
USER: genes 8 Torsion [C]-CA--CB-[CG1] |==|  0.82188
USER: genes 9 Torsion [C]-CA--N-[C] |==|  0.68019
USER: genes 10 Torsion [N]-C--CA-[N] |==|  0.21046
USER: genes 11 Torsion [C]-CA--N-[H3] |==|  0.37551
ROOT
ATOM      1  C   VAL C   2      83.502  61.326  14.720  1.00 19.81 LIG 0.24  C 
ATOM      2 O    VAL C   2      83.281  62.527  14.598  1.00 19.32 LIG-0.27  OA
ATOM      3  N   PRO C   3      82.684  60.402  14.217  1.00 21.82 LIG-0.34  N 
ATOM      4  CA  PRO C   3      81.463  60.791  13.495  1.00 23.90 LIG 0.18  C 
ATOM      5  CB  PRO C   3      80.935  59.456  12.938  1.00 24.45 LIG 0.04  C 
ATOM      6  CG  PRO C   3      82.050  58.484  13.089  1.00 24.10 LIG 0.02  C 
ATOM      7  CD  PRO C   3      82.844  58.938  14.272  1.00 23.24 LIG 0.13  C 
ENDROOT
BRANCH 4 8
ATOM      8  C   PRO C   3      80.399  61.457  14.380  1.00 26.32 LIG 0.24  C 
ATOM      9  N   TRP C   4      79.137  61.409  13.952  1.00 29.14 LIG-0.34  N 
ATOM     10 H    TRP C   4      78.905  61.112  13.178  1.00 29.14 LIG 0.16  HD
ATOM     11 O    PRO C   3      80.734  62.003  15.430  1.00 26.12 LIG-0.27  OA
BRANCH 9 12
ATOM     12  CA  TRP C   4      78.014  61.872  14.785  1.00 31.86 LIG 0.19  C 
BRANCH 12 13
ATOM     13  C   TRP C   4      76.668  61.252  14.396  1.00 33.47 LIG 0.20  C 
ATOM     14 O    TRP C   4      76.567  60.123  13.909  1.00 35.20 LIG-0.65  OA
ATOM     15 OXT  TRP C   4      75.600  61.835  14.559  1.00 33.15 LIG-0.65  OA
ENDBRANCH 12 13
BRANCH 12 16
ATOM     16  CB  TRP C   4      77.906  63.394  14.733  1.00 32.27 LIG 0.08  C 
BRANCH 16 17
ATOM     17  CG  TRP C   4      76.935  63.954  15.706  1.00 32.30 LIG-0.03  A 
ATOM     18  CD2 TRP C   4      76.732  63.523  17.054  1.00 33.19 LIG-0.00  A 
ATOM     19  CE3 TRP C   4      77.309  62.534  17.858  1.00 34.05 LIG 0.01  A 
ATOM     20  CE2 TRP C   4      75.715  64.333  17.603  1.00 33.34 LIG 0.04  A 
ATOM     21  CZ3 TRP C   4      76.860  62.388  19.160  1.00 34.92 LIG 0.00  A 
ATOM     22  CH2 TRP C   4      75.850  63.213  19.671  1.00 35.06 LIG 0.00  A 
ATOM     23  CZ2 TRP C   4      75.264  64.184  18.910  1.00 34.21 LIG 0.03  A 
ATOM     24  NE1 TRP C   4      75.325  65.215  16.632  1.00 32.63 LIG-0.36  N 
ATOM     25  CD1 TRP C   4      76.062  64.977  15.496  1.00 32.29 LIG 0.10  A 
ATOM     26 HE1  TRP C   4      74.718  65.819  16.718  1.00 32.63 LIG 0.17  HD
ENDBRANCH 16 17
ENDBRANCH 12 16
ENDBRANCH 9 12
ENDBRANCH 4 8
BRANCH 1 27
ATOM     27  CA  VAL C   2      84.740  60.850  15.481  1.00 19.23 LIG 0.18  C 
BRANCH 27 28
ATOM     28  CB  VAL C   2      84.907  61.737  16.742  1.00 20.17 LIG 0.01  C 
ATOM     29  CG1 VAL C   2      85.184  63.186  16.353  1.00 20.92 LIG 0.01  C 
ATOM     30  CG2 VAL C   2      83.684  61.638  17.659  1.00 19.95 LIG 0.01  C 
ENDBRANCH 27 28
BRANCH 27 31
ATOM     31  N   VAL C   2      85.926  60.885  14.627  1.00 18.74 LIG-0.35  N 
ATOM     32  C   ALA C   1      86.584  59.785  14.275  1.00 18.58 LIG 0.25  C 
ATOM     33 O    ALA C   1      86.269  58.663  14.659  1.00 20.40 LIG-0.27  OA
ATOM     34 H    VAL C   2      86.154  61.676  14.377  1.00 18.74 LIG 0.16  HD
BRANCH 32 35
ATOM     35  CA  ALA C   1      87.787  59.980  13.365  1.00 18.17 LIG 0.27  C 
ATOM     36  CB  ALA C   1      88.170  58.659  12.691  1.00 17.10 LIG 0.05  C 
BRANCH 35 37
ATOM     37  N   ALA C   1      88.935  60.517  14.150  1.00 16.54 LIG-0.07  N 
ATOM     38 H2   ALA C   1      88.775  60.415  15.019  1.00 16.54 LIG 0.28  HD
ATOM     39 H3   ALA C   1      89.677  60.077  13.931  1.00 16.54 LIG 0.28  HD
ATOM     40 H1   ALA C   1      89.041  61.382  13.968  1.00 16.54 LIG 0.28  HD
ENDBRANCH 35 37
ENDBRANCH 32 35
ENDBRANCH 27 31
ENDBRANCH 1 27
TORSDOF 10
ENDMDL
MODEL 5
USER: ADFR SOLUTION from run 60
USER: SCORE 15.071026 LL:  -2.373 LR: -12.993 RR:   0.000 FEB: -10.010
USER: RMSD 6.072880
USER: SEED 59
USER: STATUS no improvement in best in 3 clusters for 5 generations
USER: GENES 12
USER: genes 0 Translation |==|  0.66241 0.43245 0.39707
USER: genes 1 Rotation |==|  0.08173 0.55629 0.50108 0.76811
USER: genes 2 Torsion [N]-CA--C-[O] |==|  0.00289
USER: genes 3 Torsion [C]-N--CA-[C] |==|  0.72528
USER: genes 4 Torsion [N]-CA--C-[O] |==|  0.50074
USER: genes 5 Torsion [N]-CA--CB-[CG] |==|  0.84494
USER: genes 6 Torsion [CA]-CB--CG-[CD2] |==|  0.45724
USER: genes 7 Torsion [N]-C--CA-[N] |==|  0.28349
USER: genes 8 Torsion [C]-CA--CB-[CG1] |==|  0.82858
USER: genes 9 Torsion [C]-CA--N-[C] |==|  0.68737
USER: genes 10 Torsion [N]-C--CA-[N] |==|  0.18124
USER: genes 11 Torsion [C]-CA--N-[H3] |==|  0.34295
ROOT
ATOM      1  C   VAL C   2      83.588  61.425  14.681  1.00 19.81 LIG 0.24  C 
ATOM      2 O    VAL C   2      83.431  62.632  14.521  1.00 19.32 LIG-0.27  OA
ATOM      3  N   PRO C   3      82.734  60.530  14.186  1.00 21.82 LIG-0.34  N 
ATOM      4  CA  PRO C   3      81.550  60.959  13.427  1.00 23.90 LIG 0.18  C 
ATOM      5  CB  PRO C   3      80.966  59.637  12.895  1.00 24.45 LIG 0.04  C 
ATOM      6  CG  PRO C   3      82.027  58.615  13.097  1.00 24.10 LIG 0.02  C 
ATOM      7  CD  PRO C   3      82.819  59.062  14.284  1.00 23.24 LIG 0.13  C 
ENDROOT
BRANCH 4 8
ATOM      8  C   PRO C   3      80.503  61.703  14.270  1.00 26.32 LIG 0.24  C 
ATOM      9  N   TRP C   4      79.395  62.103  13.645  1.00 29.14 LIG-0.34  N 
ATOM     10 H    TRP C   4      79.279  62.049  12.795  1.00 29.14 LIG 0.16  HD
ATOM     11 O    PRO C   3      80.715  61.905  15.465  1.00 26.12 LIG-0.27  OA
BRANCH 9 12
ATOM     12  CA  TRP C   4      78.256  62.684  14.377  1.00 31.86 LIG 0.19  C 
BRANCH 12 13
ATOM     13  C   TRP C   4      77.130  61.682  14.650  1.00 33.47 LIG 0.20  C 
ATOM     14 O    TRP C   4      76.093  61.985  15.246  1.00 35.20 LIG-0.65  OA
ATOM     15 OXT  TRP C   4      77.181  60.513  14.279  1.00 33.15 LIG-0.65  OA
ENDBRANCH 12 13
BRANCH 12 16
ATOM     16  CB  TRP C   4      77.694  63.884  13.619  1.00 32.27 LIG 0.08  C 
BRANCH 16 17
ATOM     17  CG  TRP C   4      78.706  64.933  13.334  1.00 32.30 LIG-0.03  A 
ATOM     18  CD2 TRP C   4      78.584  66.007  12.401  1.00 33.19 LIG-0.00  A 
ATOM     19  CE3 TRP C   4      77.580  66.421  11.518  1.00 34.05 LIG 0.01  A 
ATOM     20  CE2 TRP C   4      79.781  66.753  12.461  1.00 33.34 LIG 0.04  A 
ATOM     21  CZ3 TRP C   4      77.801  67.544  10.738  1.00 34.92 LIG 0.00  A 
ATOM     22  CH2 TRP C   4      79.000  68.260  10.827  1.00 35.06 LIG 0.00  A 
ATOM     23  CZ2 TRP C   4      80.001  67.879  11.676  1.00 34.21 LIG 0.03  A 
ATOM     24  NE1 TRP C   4      80.588  66.156  13.392  1.00 32.63 LIG-0.36  N 
ATOM     25  CD1 TRP C   4      79.934  65.063  13.909  1.00 32.29 LIG 0.10  A 
ATOM     26 HE1  TRP C   4      81.374  66.422  13.617  1.00 32.63 LIG 0.17  HD
ENDBRANCH 16 17
ENDBRANCH 12 16
ENDBRANCH 9 12
ENDBRANCH 4 8
BRANCH 1 27
ATOM     27  CA  VAL C   2      84.784  60.910  15.482  1.00 19.23 LIG 0.18  C 
BRANCH 27 28
ATOM     28  CB  VAL C   2      84.920  61.772  16.763  1.00 20.17 LIG 0.01  C 
ATOM     29  CG1 VAL C   2      85.184  63.232  16.410  1.00 20.92 LIG 0.01  C 
ATOM     30  CG2 VAL C   2      83.684  61.638  17.659  1.00 19.95 LIG 0.01  C 
ENDBRANCH 27 28
BRANCH 27 31
ATOM     31  N   VAL C   2      86.004  60.934  14.676  1.00 18.74 LIG-0.35  N 
ATOM     32  C   ALA C   1      86.625  59.824  14.288  1.00 18.58 LIG 0.25  C 
ATOM     33 O    ALA C   1      86.243  58.699  14.598  1.00 20.40 LIG-0.27  OA
ATOM     34 H    VAL C   2      86.278  61.725  14.479  1.00 18.74 LIG 0.16  HD
BRANCH 32 35
ATOM     35  CA  ALA C   1      87.870  60.009  13.436  1.00 18.17 LIG 0.27  C 
ATOM     36  CB  ALA C   1      88.369  58.658  12.915  1.00 17.10 LIG 0.05  C 
BRANCH 35 37
ATOM     37  N   ALA C   1      88.934  60.685  14.233  1.00 16.54 LIG-0.07  N 
ATOM     38 H2   ALA C   1      88.650  60.804  15.068  1.00 16.54 LIG 0.28  HD
ATOM     39 H3   ALA C   1      89.667  60.181  14.239  1.00 16.54 LIG 0.28  HD
ATOM     40 H1   ALA C   1      89.121  61.475  13.868  1.00 16.54 LIG 0.28  HD
ENDBRANCH 35 37
ENDBRANCH 32 35
ENDBRANCH 27 31
ENDBRANCH 1 27
TORSDOF 10
ENDMDL
MODEL 6
USER: ADFR SOLUTION from run 27
USER: SCORE 14.558630 LL:  -2.285 LR: -12.533 RR:   0.000 FEB:  -9.550
USER: RMSD 4.878505
USER: SEED 26
USER: STATUS no improvement in best in 7 clusters for 5 generations
USER: GENES 12
USER: genes 0 Translation |==|  0.65642 0.43663 0.39740
USER: genes 1 Rotation |==|  0.10500 0.58738 0.48698 0.79355
USER: genes 2 Torsion [N]-CA--C-[O] |==|  0.02496
USER: genes 3 Torsion [C]-N--CA-[C] |==|  0.81681
USER: genes 4 Torsion [N]-CA--C-[O] |==|  0.38005
USER: genes 5 Torsion [N]-CA--CB-[CG] |==|  0.69484
USER: genes 6 Torsion [CA]-CB--CG-[CD2] |==|  0.74737
USER: genes 7 Torsion [N]-C--CA-[N] |==|  0.30000
USER: genes 8 Torsion [C]-CA--CB-[CG1] |==|  0.71418
USER: genes 9 Torsion [C]-CA--N-[C] |==|  0.67889
USER: genes 10 Torsion [N]-C--CA-[N] |==|  0.16759
USER: genes 11 Torsion [C]-CA--N-[H3] |==|  0.66009
ROOT
ATOM      1  C   VAL C   2      83.453  61.485  14.687  1.00 19.81 LIG 0.24  C 
ATOM      2 O    VAL C   2      83.473  62.713  14.685  1.00 19.32 LIG-0.27  OA
ATOM      3  N   PRO C   3      82.480  60.793  14.097  1.00 21.82 LIG-0.34  N 
ATOM      4  CA  PRO C   3      81.370  61.482  13.419  1.00 23.90 LIG 0.18  C 
ATOM      5  CB  PRO C   3      80.602  60.337  12.734  1.00 24.45 LIG 0.04  C 
ATOM      6  CG  PRO C   3      81.503  59.156  12.786  1.00 24.10 LIG 0.02  C 
ATOM      7  CD  PRO C   3      82.350  59.327  14.007  1.00 23.24 LIG 0.13  C 
ENDROOT
BRANCH 4 8
ATOM      8  C   PRO C   3      80.442  62.254  14.369  1.00 26.32 LIG 0.24  C 
ATOM      9  N   TRP C   4      79.319  62.748  13.848  1.00 29.14 LIG-0.34  N 
ATOM     10 H    TRP C   4      79.135  62.737  13.007  1.00 29.14 LIG 0.16  HD
ATOM     11 O    PRO C   3      80.756  62.392  15.550  1.00 26.12 LIG-0.27  OA
BRANCH 9 12
ATOM     12  CA  TRP C   4      78.278  63.368  14.687  1.00 31.86 LIG 0.19  C 
BRANCH 12 13
ATOM     13  C   TRP C   4      77.596  62.383  15.642  1.00 33.47 LIG 0.20  C 
ATOM     14 O    TRP C   4      77.349  62.655  16.820  1.00 35.20 LIG-0.65  OA
ATOM     15 OXT  TRP C   4      77.238  61.263  15.291  1.00 33.15 LIG-0.65  OA
ENDBRANCH 12 13
BRANCH 12 16
ATOM     16  CB  TRP C   4      77.223  64.042  13.813  1.00 32.27 LIG 0.08  C 
BRANCH 16 17
ATOM     17  CG  TRP C   4      77.255  65.524  13.881  1.00 32.30 LIG-0.03  A 
ATOM     18  CD2 TRP C   4      76.520  66.354  14.782  1.00 33.19 LIG-0.00  A 
ATOM     19  CE3 TRP C   4      75.609  66.104  15.815  1.00 34.05 LIG 0.01  A 
ATOM     20  CE2 TRP C   4      76.857  67.693  14.488  1.00 33.34 LIG 0.04  A 
ATOM     21  CZ3 TRP C   4      75.074  67.178  16.506  1.00 34.92 LIG 0.00  A 
ATOM     22  CH2 TRP C   4      75.435  68.493  16.188  1.00 35.06 LIG 0.00  A 
ATOM     23  CZ2 TRP C   4      76.318  68.770  15.183  1.00 34.21 LIG 0.03  A 
ATOM     24  NE1 TRP C   4      77.758  67.671  13.458  1.00 32.63 LIG-0.36  N 
ATOM     25  CD1 TRP C   4      77.988  66.364  13.099  1.00 32.29 LIG 0.10  A 
ATOM     26 HE1  TRP C   4      78.121  68.361  13.095  1.00 32.63 LIG 0.17  HD
ENDBRANCH 16 17
ENDBRANCH 12 16
ENDBRANCH 9 12
ENDBRANCH 4 8
BRANCH 1 27
ATOM     27  CA  VAL C   2      84.561  60.704  15.395  1.00 19.23 LIG 0.18  C 
BRANCH 27 28
ATOM     28  CB  VAL C   2      84.715  61.271  16.830  1.00 20.17 LIG 0.01  C 
ATOM     29  CG1 VAL C   2      85.940  62.174  16.929  1.00 20.92 LIG 0.01  C 
ATOM     30  CG2 VAL C   2      83.449  62.010  17.276  1.00 19.95 LIG 0.01  C 
ENDBRANCH 27 28
BRANCH 27 31
ATOM     31  N   VAL C   2      85.814  60.774  14.643  1.00 18.74 LIG-0.35  N 
ATOM     32  C   ALA C   1      86.381  59.701  14.101  1.00 18.58 LIG 0.25  C 
ATOM     33 O    ALA C   1      85.918  58.570  14.211  1.00 20.40 LIG-0.27  OA
ATOM     34 H    VAL C   2      86.144  61.567  14.586  1.00 18.74 LIG 0.16  HD
BRANCH 32 35
ATOM     35  CA  ALA C   1      87.671  59.935  13.331  1.00 18.17 LIG 0.27  C 
ATOM     36  CB  ALA C   1      88.173  58.626  12.714  1.00 17.10 LIG 0.05  C 
BRANCH 35 37
ATOM     37  N   ALA C   1      88.704  60.514  14.236  1.00 16.54 LIG-0.07  N 
ATOM     38 H2   ALA C   1      89.393  59.955  14.298  1.00 16.54 LIG 0.28  HD
ATOM     39 H3   ALA C   1      88.984  61.293  13.908  1.00 16.54 LIG 0.28  HD
ATOM     40 H1   ALA C   1      88.353  60.643  15.044  1.00 16.54 LIG 0.28  HD
ENDBRANCH 35 37
ENDBRANCH 32 35
ENDBRANCH 27 31
ENDBRANCH 1 27
TORSDOF 10
ENDMDL
MODEL 7
USER: ADFR SOLUTION from run 158
USER: SCORE 15.156878 LL:  -2.749 LR: -12.523 RR:   0.000 FEB:  -9.540
USER: RMSD 3.366545
USER: SEED 157
USER: STATUS no improvement in best in 6 clusters for 5 generations
USER: GENES 12
USER: genes 0 Translation |==|  0.56690 0.48645 0.39108
USER: genes 1 Rotation |==|  0.41791 0.57353 0.48820 0.98756
USER: genes 2 Torsion [N]-CA--C-[O] |==|  0.13964
USER: genes 3 Torsion [C]-N--CA-[C] |==|  0.81498
USER: genes 4 Torsion [N]-CA--C-[O] |==|  0.08347
USER: genes 5 Torsion [N]-CA--CB-[CG] |==|  0.79208
USER: genes 6 Torsion [CA]-CB--CG-[CD2] |==|  0.24103
USER: genes 7 Torsion [N]-C--CA-[N] |==|  0.44350
USER: genes 8 Torsion [C]-CA--CB-[CG1] |==|  0.58885
USER: genes 9 Torsion [C]-CA--N-[C] |==|  0.71166
USER: genes 10 Torsion [N]-C--CA-[N] |==|  0.43313
USER: genes 11 Torsion [C]-CA--N-[H3] |==|  0.01289
ROOT
ATOM      1  C   VAL C   2      81.439  62.195  14.573  1.00 19.81 LIG 0.24  C 
ATOM      2 O    VAL C   2      81.432  62.292  15.797  1.00 19.32 LIG-0.27  OA
ATOM      3  N   PRO C   3      80.656  62.947  13.801  1.00 21.82 LIG-0.34  N 
ATOM      4  CA  PRO C   3      79.732  63.927  14.392  1.00 23.90 LIG 0.18  C 
ATOM      5  CB  PRO C   3      79.181  64.683  13.170  1.00 24.45 LIG 0.04  C 
ATOM      6  CG  PRO C   3      80.068  64.319  12.033  1.00 24.10 LIG 0.02  C 
ATOM      7  CD  PRO C   3      80.585  62.947  12.328  1.00 23.24 LIG 0.13  C 
ENDROOT
BRANCH 4 8
ATOM      8  C   PRO C   3      78.582  63.298  15.193  1.00 26.32 LIG 0.24  C 
ATOM      9  N   TRP C   4      77.348  63.717  14.912  1.00 29.14 LIG-0.34  N 
ATOM     10 H    TRP C   4      77.174  64.373  14.383  1.00 29.14 LIG 0.16  HD
ATOM     11 O    PRO C   3      78.828  62.449  16.048  1.00 26.12 LIG-0.27  OA
BRANCH 9 12
ATOM     12  CA  TRP C   4      76.157  63.079  15.498  1.00 31.86 LIG 0.19  C 
BRANCH 12 13
ATOM     13  C   TRP C   4      75.939  61.639  15.022  1.00 33.47 LIG 0.20  C 
ATOM     14 O    TRP C   4      76.866  60.893  14.698  1.00 35.20 LIG-0.65  OA
ATOM     15 OXT  TRP C   4      74.824  61.130  14.946  1.00 33.15 LIG-0.65  OA
ENDBRANCH 12 13
BRANCH 12 16
ATOM     16  CB  TRP C   4      74.909  63.907  15.199  1.00 32.27 LIG 0.08  C 
BRANCH 16 17
ATOM     17  CG  TRP C   4      74.807  65.142  16.017  1.00 32.30 LIG-0.03  A 
ATOM     18  CD2 TRP C   4      75.379  66.415  15.715  1.00 33.19 LIG-0.00  A 
ATOM     19  CE3 TRP C   4      76.153  66.911  14.660  1.00 34.05 LIG 0.01  A 
ATOM     20  CE2 TRP C   4      75.030  67.291  16.766  1.00 33.34 LIG 0.04  A 
ATOM     21  CZ3 TRP C   4      76.546  68.239  14.687  1.00 34.92 LIG 0.00  A 
ATOM     22  CH2 TRP C   4      76.177  69.078  15.745  1.00 35.06 LIG 0.00  A 
ATOM     23  CZ2 TRP C   4      75.426  68.624  16.792  1.00 34.21 LIG 0.03  A 
ATOM     24  NE1 TRP C   4      74.276  66.578  17.659  1.00 32.63 LIG-0.36  N 
ATOM     25  CD1 TRP C   4      74.151  65.288  17.201  1.00 32.29 LIG 0.10  A 
ATOM     26 HE1  TRP C   4      73.937  66.886  18.387  1.00 32.63 LIG 0.17  HD
ENDBRANCH 16 17
ENDBRANCH 12 16
ENDBRANCH 9 12
ENDBRANCH 4 8
BRANCH 1 27
ATOM     27  CA  VAL C   2      82.356  61.178  13.893  1.00 19.23 LIG 0.18  C 
BRANCH 27 28
ATOM     28  CB  VAL C   2      81.499  59.958  13.468  1.00 20.17 LIG 0.01  C 
ATOM     29  CG1 VAL C   2      82.317  58.672  13.529  1.00 20.92 LIG 0.01  C 
ATOM     30  CG2 VAL C   2      80.231  59.844  14.320  1.00 19.95 LIG 0.01  C 
ENDBRANCH 27 28
BRANCH 27 31
ATOM     31  N   VAL C   2      83.457  60.792  14.775  1.00 18.74 LIG-0.35  N 
ATOM     32  C   ALA C   1      84.694  61.254  14.616  1.00 18.58 LIG 0.25  C 
ATOM     33 O    ALA C   1      85.014  62.013  13.706  1.00 20.40 LIG-0.27  OA
ATOM     34 H    VAL C   2      83.230  60.245  15.398  1.00 18.74 LIG 0.16  HD
BRANCH 32 35
ATOM     35  CA  ALA C   1      85.727  60.778  15.625  1.00 18.17 LIG 0.27  C 
ATOM     36  CB  ALA C   1      85.643  61.608  16.910  1.00 17.10 LIG 0.05  C 
BRANCH 35 37
ATOM     37  N   ALA C   1      87.093  60.868  15.034  1.00 16.54 LIG-0.07  N 
ATOM     38 H2   ALA C   1      87.438  60.052  14.957  1.00 16.54 LIG 0.28  HD
ATOM     39 H3   ALA C   1      87.044  61.246  14.230  1.00 16.54 LIG 0.28  HD
ATOM     40 H1   ALA C   1      87.612  61.361  15.562  1.00 16.54 LIG 0.28  HD
ENDBRANCH 35 37
ENDBRANCH 32 35
ENDBRANCH 27 31
ENDBRANCH 1 27
TORSDOF 10
ENDMDL
MODEL 8
USER: ADFR SOLUTION from run 185
USER: SCORE 14.677959 LL:  -2.854 LR: -12.138 RR:   0.000 FEB:  -9.155
USER: RMSD 6.560370
USER: SEED 184
USER: STATUS no improvement in best in 7 clusters for 5 generations
USER: GENES 12
USER: genes 0 Translation |==|  0.67566 0.35358 0.36680
USER: genes 1 Rotation |==|  0.08951 0.38483 0.49287 0.76112
USER: genes 2 Torsion [N]-CA--C-[O] |==|  0.50408
USER: genes 3 Torsion [C]-N--CA-[C] |==|  0.19783
USER: genes 4 Torsion [N]-CA--C-[O] |==|  0.52393
USER: genes 5 Torsion [N]-CA--CB-[CG] |==|  0.76157
USER: genes 6 Torsion [CA]-CB--CG-[CD2] |==|  0.39278
USER: genes 7 Torsion [N]-C--CA-[N] |==|  0.15525
USER: genes 8 Torsion [C]-CA--CB-[CG1] |==|  0.20369
USER: genes 9 Torsion [C]-CA--N-[C] |==|  0.11701
USER: genes 10 Torsion [N]-C--CA-[N] |==|  0.09866
USER: genes 11 Torsion [C]-CA--N-[H3] |==|  0.89268
ROOT
ATOM      1  C   VAL C   2      83.886  60.302  14.136  1.00 19.81 LIG 0.24  C 
ATOM      2 O    VAL C   2      83.199  61.258  13.790  1.00 19.32 LIG-0.27  OA
ATOM      3  N   PRO C   3      83.876  59.147  13.470  1.00 21.82 LIG-0.34  N 
ATOM      4  CA  PRO C   3      83.023  58.968  12.286  1.00 23.90 LIG 0.18  C 
ATOM      5  CB  PRO C   3      83.456  57.597  11.735  1.00 24.45 LIG 0.04  C 
ATOM      6  CG  PRO C   3      84.728  57.265  12.430  1.00 24.10 LIG 0.02  C 
ATOM      7  CD  PRO C   3      84.666  57.937  13.764  1.00 23.24 LIG 0.13  C 
ENDROOT
BRANCH 4 8
ATOM      8  C   PRO C   3      81.519  58.969  12.594  1.00 26.32 LIG 0.24  C 
ATOM      9  N   TRP C   4      81.161  59.154  13.865  1.00 29.14 LIG-0.34  N 
ATOM     10 H    TRP C   4      81.717  59.181  14.520  1.00 29.14 LIG 0.16  HD
ATOM     11 O    PRO C   3      80.709  58.800  11.683  1.00 26.12 LIG-0.27  OA
BRANCH 9 12
ATOM     12  CA  TRP C   4      79.752  59.331  14.259  1.00 31.86 LIG 0.19  C 
BRANCH 12 13
ATOM     13  C   TRP C   4      78.921  58.050  14.148  1.00 33.47 LIG 0.20  C 
ATOM     14 O    TRP C   4      77.694  58.033  14.284  1.00 35.20 LIG-0.65  OA
ATOM     15 OXT  TRP C   4      79.421  56.956  13.902  1.00 33.15 LIG-0.65  OA
ENDBRANCH 12 13
BRANCH 12 16
ATOM     16  CB  TRP C   4      79.102  60.432  13.424  1.00 32.27 LIG 0.08  C 
BRANCH 16 17
ATOM     17  CG  TRP C   4      79.308  61.795  13.974  1.00 32.30 LIG-0.03  A 
ATOM     18  CD2 TRP C   4      79.557  62.989  13.230  1.00 33.19 LIG-0.00  A 
ATOM     19  CE3 TRP C   4      79.679  63.279  11.866  1.00 34.05 LIG 0.01  A 
ATOM     20  CE2 TRP C   4      79.690  64.042  14.159  1.00 33.34 LIG 0.04  A 
ATOM     21  CZ3 TRP C   4      79.925  64.586  11.482  1.00 34.92 LIG 0.00  A 
ATOM     22  CH2 TRP C   4      80.048  65.606  12.434  1.00 35.06 LIG 0.00  A 
ATOM     23  CZ2 TRP C   4      79.939  65.355  13.772  1.00 34.21 LIG 0.03  A 
ATOM     24  NE1 TRP C   4      79.525  63.508  15.409  1.00 32.63 LIG-0.36  N 
ATOM     25  CD1 TRP C   4      79.299  62.158  15.287  1.00 32.29 LIG 0.10  A 
ATOM     26 HE1  TRP C   4      79.558  63.946  16.149  1.00 32.63 LIG 0.17  HD
ENDBRANCH 16 17
ENDBRANCH 12 16
ENDBRANCH 9 12
ENDBRANCH 4 8
BRANCH 1 27
ATOM     27  CA  VAL C   2      84.778  60.409  15.374  1.00 19.23 LIG 0.18  C 
BRANCH 27 28
ATOM     28  CB  VAL C   2      84.634  61.839  15.954  1.00 20.17 LIG 0.01  C 
ATOM     29  CG1 VAL C   2      83.284  62.013  16.643  1.00 20.92 LIG 0.01  C 
ATOM     30  CG2 VAL C   2      85.785  62.171  16.910  1.00 19.95 LIG 0.01  C 
ENDBRANCH 27 28
BRANCH 27 31
ATOM     31  N   VAL C   2      86.167  60.088  15.048  1.00 18.74 LIG-0.35  N 
ATOM     32  C   ALA C   1      86.758  60.524  13.940  1.00 18.58 LIG 0.25  C 
ATOM     33 O    ALA C   1      86.182  61.201  13.094  1.00 20.40 LIG-0.27  OA
ATOM     34 H    VAL C   2      86.559  59.596  15.635  1.00 18.74 LIG 0.16  HD
BRANCH 32 35
ATOM     35  CA  ALA C   1      88.213  60.125  13.749  1.00 18.17 LIG 0.27  C 
ATOM     36  CB  ALA C   1      88.598  60.191  12.268  1.00 17.10 LIG 0.05  C 
BRANCH 35 37
ATOM     37  N   ALA C   1      88.437  58.752  14.285  1.00 16.54 LIG-0.07  N 
ATOM     38 H2   ALA C   1      89.302  58.638  14.460  1.00 16.54 LIG 0.28  HD
ATOM     39 H3   ALA C   1      87.968  58.644  15.033  1.00 16.54 LIG 0.28  HD
ATOM     40 H1   ALA C   1      88.175  58.152  13.683  1.00 16.54 LIG 0.28  HD
ENDBRANCH 35 37
ENDBRANCH 32 35
ENDBRANCH 27 31
ENDBRANCH 1 27
TORSDOF 10
ENDMDL
MODEL 9
USER: ADFR SOLUTION from run 27
USER: SCORE 13.551190 LL:  -2.126 LR: -12.069 RR:   0.000 FEB:  -9.086
USER: RMSD 2.543533
USER: SEED 26
USER: STATUS no improvement in best in 7 clusters for 5 generations
USER: GENES 12
USER: genes 0 Translation |==|  0.54987 0.45514 0.33115
USER: genes 1 Rotation |==|  0.06851 0.61308 0.65144 0.66762
USER: genes 2 Torsion [N]-CA--C-[O] |==|  0.00742
USER: genes 3 Torsion [C]-N--CA-[C] |==|  0.23083
USER: genes 4 Torsion [N]-CA--C-[O] |==|  0.50658
USER: genes 5 Torsion [N]-CA--CB-[CG] |==|  0.52800
USER: genes 6 Torsion [CA]-CB--CG-[CD2] |==|  0.11180
USER: genes 7 Torsion [N]-C--CA-[N] |==|  0.83480
USER: genes 8 Torsion [C]-CA--CB-[CG1] |==|  0.11554
USER: genes 9 Torsion [C]-CA--N-[C] |==|  0.60001
USER: genes 10 Torsion [N]-C--CA-[N] |==|  0.26455
USER: genes 11 Torsion [C]-CA--N-[H3] |==|  0.46680
ROOT
ATOM      1  C   VAL C   2      81.056  61.749  13.495  1.00 19.81 LIG 0.24  C 
ATOM      2 O    VAL C   2      80.563  62.834  13.202  1.00 19.32 LIG-0.27  OA
ATOM      3  N   PRO C   3      80.309  60.717  13.886  1.00 21.82 LIG-0.34  N 
ATOM      4  CA  PRO C   3      78.848  60.843  13.993  1.00 23.90 LIG 0.18  C 
ATOM      5  CB  PRO C   3      78.384  59.403  14.283  1.00 24.45 LIG 0.04  C 
ATOM      6  CG  PRO C   3      79.551  58.533  13.983  1.00 24.10 LIG 0.02  C 
ATOM      7  CD  PRO C   3      80.769  59.362  14.241  1.00 23.24 LIG 0.13  C 
ENDROOT
BRANCH 4 8
ATOM      8  C   PRO C   3      78.383  61.788  15.112  1.00 26.32 LIG 0.24  C 
ATOM      9  N   TRP C   4      77.068  61.906  15.297  1.00 29.14 LIG-0.34  N 
ATOM     10 H    TRP C   4      76.478  61.560  14.775  1.00 29.14 LIG 0.16  HD
ATOM     11 O    PRO C   3      79.216  62.393  15.784  1.00 26.12 LIG-0.27  OA
BRANCH 9 12
ATOM     12  CA  TRP C   4      76.507  62.656  16.434  1.00 31.86 LIG 0.19  C 
BRANCH 12 13
ATOM     13  C   TRP C   4      76.426  64.166  16.191  1.00 33.47 LIG 0.20  C 
ATOM     14 O    TRP C   4      76.024  64.961  17.045  1.00 35.20 LIG-0.65  OA
ATOM     15 OXT  TRP C   4      76.771  64.685  15.134  1.00 33.15 LIG-0.65  OA
ENDBRANCH 12 13
BRANCH 12 16
ATOM     16  CB  TRP C   4      77.319  62.388  17.699  1.00 32.27 LIG 0.08  C 
BRANCH 16 17
ATOM     17  CG  TRP C   4      76.685  62.914  18.934  1.00 32.30 LIG-0.03  A 
ATOM     18  CD2 TRP C   4      75.296  62.875  19.264  1.00 33.19 LIG-0.00  A 
ATOM     19  CE3 TRP C   4      74.155  62.382  18.620  1.00 34.05 LIG 0.01  A 
ATOM     20  CE2 TRP C   4      75.147  63.488  20.527  1.00 33.34 LIG 0.04  A 
ATOM     21  CZ3 TRP C   4      72.927  62.514  19.247  1.00 34.92 LIG 0.00  A 
ATOM     22  CH2 TRP C   4      72.820  63.125  20.502  1.00 35.06 LIG 0.00  A 
ATOM     23  CZ2 TRP C   4      73.914  63.620  21.154  1.00 34.21 LIG 0.03  A 
ATOM     24  NE1 TRP C   4      76.393  63.874  20.942  1.00 32.63 LIG-0.36  N 
ATOM     25  CD1 TRP C   4      77.309  63.527  19.977  1.00 32.29 LIG 0.10  A 
ATOM     26 HE1  TRP C   4      76.573  64.270  21.685  1.00 32.63 LIG 0.17  HD
ENDBRANCH 16 17
ENDBRANCH 12 16
ENDBRANCH 9 12
ENDBRANCH 4 8
BRANCH 1 27
ATOM     27  CA  VAL C   2      82.571  61.555  13.430  1.00 19.23 LIG 0.18  C 
BRANCH 27 28
ATOM     28  CB  VAL C   2      82.879  60.478  12.357  1.00 20.17 LIG 0.01  C 
ATOM     29  CG1 VAL C   2      82.002  60.675  11.125  1.00 20.92 LIG 0.01  C 
ATOM     30  CG2 VAL C   2      84.364  60.475  11.981  1.00 19.95 LIG 0.01  C 
ENDBRANCH 27 28
BRANCH 27 31
ATOM     31  N   VAL C   2      83.109  61.189  14.740  1.00 18.74 LIG-0.35  N 
ATOM     32  C   ALA C   1      84.294  61.613  15.168  1.00 18.58 LIG 0.25  C 
ATOM     33 O    ALA C   1      85.039  62.315  14.492  1.00 20.40 LIG-0.27  OA
ATOM     34 H    VAL C   2      82.591  60.680  15.201  1.00 18.74 LIG 0.16  HD
BRANCH 32 35
ATOM     35  CA  ALA C   1      84.708  61.166  16.561  1.00 18.17 LIG 0.27  C 
ATOM     36  CB  ALA C   1      85.459  62.288  17.284  1.00 17.10 LIG 0.05  C 
BRANCH 35 37
ATOM     37  N   ALA C   1      85.559  59.944  16.470  1.00 16.54 LIG-0.07  N 
ATOM     38 H2   ALA C   1      86.192  60.068  15.857  1.00 16.54 LIG 0.28  HD
ATOM     39 H3   ALA C   1      85.939  59.787  17.259  1.00 16.54 LIG 0.28  HD
ATOM     40 H1   ALA C   1      85.055  59.248  16.240  1.00 16.54 LIG 0.28  HD
ENDBRANCH 35 37
ENDBRANCH 32 35
ENDBRANCH 27 31
ENDBRANCH 1 27
TORSDOF 10
ENDMDL
MODEL 10
USER: ADFR SOLUTION from run 27
USER: SCORE 13.715486 LL:  -2.386 LR: -11.928 RR:   0.000 FEB:  -8.945
USER: RMSD 3.010289
USER: SEED 26
USER: STATUS no improvement in best in 7 clusters for 5 generations
USER: GENES 12
USER: genes 0 Translation |==|  0.55880 0.43567 0.31909
USER: genes 1 Rotation |==|  0.06788 0.59163 0.64778 0.68177
USER: genes 2 Torsion [N]-CA--C-[O] |==|  0.98547
USER: genes 3 Torsion [C]-N--CA-[C] |==|  0.58355
USER: genes 4 Torsion [N]-CA--C-[O] |==|  0.35900
USER: genes 5 Torsion [N]-CA--CB-[CG] |==|  0.51444
USER: genes 6 Torsion [CA]-CB--CG-[CD2] |==|  0.11590
USER: genes 7 Torsion [N]-C--CA-[N] |==|  0.82389
USER: genes 8 Torsion [C]-CA--CB-[CG1] |==|  0.12522
USER: genes 9 Torsion [C]-CA--N-[C] |==|  0.61112
USER: genes 10 Torsion [N]-C--CA-[N] |==|  0.24604
USER: genes 11 Torsion [C]-CA--N-[H3] |==|  0.46608
ROOT
ATOM      1  C   VAL C   2      81.257  61.471  13.278  1.00 19.81 LIG 0.24  C 
ATOM      2 O    VAL C   2      80.722  62.549  13.033  1.00 19.32 LIG-0.27  OA
ATOM      3  N   PRO C   3      80.548  60.377  13.554  1.00 21.82 LIG-0.34  N 
ATOM      4  CA  PRO C   3      79.078  60.421  13.586  1.00 23.90 LIG 0.18  C 
ATOM      5  CB  PRO C   3      78.678  58.943  13.749  1.00 24.45 LIG 0.04  C 
ATOM      6  CG  PRO C   3      79.906  58.157  13.457  1.00 24.10 LIG 0.02  C 
ATOM      7  CD  PRO C   3      81.061  59.025  13.839  1.00 23.24 LIG 0.13  C 
ENDROOT
BRANCH 4 8
ATOM      8  C   PRO C   3      78.504  61.258  14.739  1.00 26.32 LIG 0.24  C 
ATOM      9  N   TRP C   4      77.182  61.430  14.763  1.00 29.14 LIG-0.34  N 
ATOM     10 H    TRP C   4      76.655  61.180  14.131  1.00 29.14 LIG 0.16  HD
ATOM     11 O    PRO C   3      79.261  61.735  15.583  1.00 26.12 LIG-0.27  OA
BRANCH 9 12
ATOM     12  CA  TRP C   4      76.501  62.077  15.898  1.00 31.86 LIG 0.19  C 
BRANCH 12 13
ATOM     13  C   TRP C   4      75.073  61.572  16.124  1.00 33.47 LIG 0.20  C 
ATOM     14 O    TRP C   4      74.664  61.189  17.224  1.00 35.20 LIG-0.65  OA
ATOM     15 OXT  TRP C   4      74.238  61.528  15.226  1.00 33.15 LIG-0.65  OA
ENDBRANCH 12 13
BRANCH 12 16
ATOM     16  CB  TRP C   4      76.479  63.592  15.710  1.00 32.27 LIG 0.08  C 
BRANCH 16 17
ATOM     17  CG  TRP C   4      75.918  64.326  16.873  1.00 32.30 LIG-0.03  A 
ATOM     18  CD2 TRP C   4      76.165  64.056  18.254  1.00 33.19 LIG-0.00  A 
ATOM     19  CE3 TRP C   4      76.939  63.112  18.938  1.00 34.05 LIG 0.01  A 
ATOM     20  CE2 TRP C   4      75.427  64.997  19.003  1.00 33.34 LIG 0.04  A 
ATOM     21  CZ3 TRP C   4      76.950  63.138  20.323  1.00 34.92 LIG 0.00  A 
ATOM     22  CH2 TRP C   4      76.207  64.090  21.033  1.00 35.06 LIG 0.00  A 
ATOM     23  CZ2 TRP C   4      75.439  65.021  20.393  1.00 34.21 LIG 0.03  A 
ATOM     24  NE1 TRP C   4      74.769  65.802  18.113  1.00 32.63 LIG-0.36  N 
ATOM     25  CD1 TRP C   4      75.069  65.389  16.837  1.00 32.29 LIG 0.10  A 
ATOM     26 HE1  TRP C   4      74.252  66.459  18.319  1.00 32.63 LIG 0.17  HD
ENDBRANCH 16 17
ENDBRANCH 12 16
ENDBRANCH 9 12
ENDBRANCH 4 8
BRANCH 1 27
ATOM     27  CA  VAL C   2      82.782  61.359  13.286  1.00 19.23 LIG 0.18  C 
BRANCH 27 28
ATOM     28  CB  VAL C   2      83.198  60.305  12.228  1.00 20.17 LIG 0.01  C 
ATOM     29  CG1 VAL C   2      82.433  60.513  10.925  1.00 20.92 LIG 0.01  C 
ATOM     30  CG2 VAL C   2      84.711  60.325  11.986  1.00 19.95 LIG 0.01  C 
ENDBRANCH 27 28
BRANCH 27 31
ATOM     31  N   VAL C   2      83.275  61.018  14.620  1.00 18.74 LIG-0.35  N 
ATOM     32  C   ALA C   1      84.373  61.563  15.135  1.00 18.58 LIG 0.25  C 
ATOM     33 O    ALA C   1      85.071  62.367  14.526  1.00 20.40 LIG-0.27  OA
ATOM     34 H    VAL C   2      82.792  60.438  15.034  1.00 18.74 LIG 0.16  HD
BRANCH 32 35
ATOM     35  CA  ALA C   1      84.748  61.124  16.542  1.00 18.17 LIG 0.27  C 
ATOM     36  CB  ALA C   1      85.464  62.256  17.284  1.00 17.10 LIG 0.05  C 
BRANCH 35 37
ATOM     37  N   ALA C   1      85.613  59.911  16.481  1.00 16.54 LIG-0.07  N 
ATOM     38 H2   ALA C   1      86.261  60.037  15.885  1.00 16.54 LIG 0.28  HD
ATOM     39 H3   ALA C   1      85.973  59.762  17.281  1.00 16.54 LIG 0.28  HD
ATOM     40 H1   ALA C   1      85.122  59.208  16.242  1.00 16.54 LIG 0.28  HD
ENDBRANCH 35 37
ENDBRANCH 32 35
ENDBRANCH 27 31
ENDBRANCH 1 27
TORSDOF 10
ENDMDL
