MODEL 1
USER: ADFR SOLUTION from run 36
USER: SCORE 19.846171 LL:  -4.860 LR: -17.801 RR:   0.000 FEB:  -9.448
USER: RMSD 8.408497
USER: SEED 35
USER: STATUS 1 or 2 clusters left
USER: GENES 30
USER: genes 0 Translation |==|  0.56148 0.41083 0.58757
USER: genes 1 Rotation |==|  0.34327 0.95145 0.35418 0.51903
USER: genes 2 Torsion [CB]-CA--N-[C] |==|  0.84961
USER: genes 3 Torsion [N]-C--CA-[N] |==|  0.92807
USER: genes 4 Torsion [C]-CA--N-[C] |==|  0.78461
USER: genes 5 Torsion [N]-C--CA-[N] |==|  0.25844
USER: genes 6 Torsion [C]-CA--CB-[CG] |==|  0.54792
USER: genes 7 Torsion [CA]-CB--CG-[CD] |==|  0.57327
USER: genes 8 Torsion [CB]-CG--CD-[OE1] |==|  0.01271
USER: genes 9 Torsion [C]-CA--N-[C] |==|  0.61716
USER: genes 10 Torsion [N]-C--CA-[N] |==|  0.39973
USER: genes 11 Torsion [C]-CA--CB-[CG] |==|  0.54391
USER: genes 12 Torsion [CA]-CB--CG-[CD2] |==|  0.94039
USER: genes 13 Torsion [N]-CA--C-[N] |==|  0.46661
USER: genes 14 Torsion [C]-N--CA-[CB] |==|  0.56578
USER: genes 15 Torsion [N]-CA--CB-[CG] |==|  0.73470
USER: genes 16 Torsion [CA]-CB--CG-[CD2] |==|  0.89026
USER: genes 17 Torsion [N]-CA--C-[N] |==|  0.30779
USER: genes 18 Torsion [C]-N--CA-[CB] |==|  0.45264
USER: genes 19 Torsion [N]-CA--C-[N] |==|  0.92078
USER: genes 20 Torsion [C]-N--CA-[CB] |==|  0.37573
USER: genes 21 Torsion [N]-CA--CB-[OG] |==|  0.01199
USER: genes 22 Torsion [CA]-CB--OG-[HG] |==|  0.19734
USER: genes 23 Torsion [N]-CA--C-[OXT] |==|  0.42868
USER: genes 24 Torsion [N]-CA--CB-[CG] |==|  0.93956
USER: genes 25 Torsion [CA]-CB--CG-[OD2] |==|  0.71866
USER: genes 26 Torsion [N]-CA--CB-[CG] |==|  0.85200
USER: genes 27 Torsion [CA]-CB--CG-[CD] |==|  0.91752
USER: genes 28 Torsion [CB]-CG--CD-[NE] |==|  0.67354
USER: genes 29 Torsion [CG]-CD--NE-[HE] |==|  0.74051
ROOT
ATOM      1  CA  ARG P   5      33.115  26.875  -4.893  1.00 16.30 LIG 0.18  C 
ENDROOT
BRANCH 1 2
ATOM      2  N   ARG P   5      33.923  27.697  -5.805  1.00 16.36 LIG-0.35  N 
ATOM      3  C   PHE P   4      34.075  27.359  -7.073  1.00 16.61 LIG 0.24  C 
ATOM      4 O    PHE P   4      33.489  26.408  -7.595  1.00 17.57 LIG-0.27  OA
ATOM      5 H    ARG P   5      34.274  28.394  -5.445  1.00 16.36 LIG 0.16  HD
BRANCH 3 6
ATOM      6  CA  PHE P   4      35.033  28.227  -7.889  1.00 17.34 LIG 0.18  C 
BRANCH 6 7
ATOM      7  N   PHE P   4      35.068  29.537  -7.266  1.00 18.03 LIG-0.35  N 
ATOM      8  C   GLU P   3      34.082  30.419  -7.439  1.00 20.04 LIG 0.24  C 
ATOM      9 O    GLU P   3      33.190  30.264  -8.258  1.00 20.03 LIG-0.27  OA
ATOM     10 H    PHE P   4      35.768  29.685  -6.788  1.00 18.03 LIG 0.16  HD
BRANCH 8 11
ATOM     11  CA  GLU P   3      34.129  31.677  -6.570  1.00 21.92 LIG 0.18  C 
BRANCH 11 12
ATOM     12  CB  GLU P   3      32.710  32.111  -6.198  1.00 22.70 LIG 0.04  C 
BRANCH 12 13
ATOM     13  CG  GLU P   3      32.655  33.546  -5.708  1.00 23.46 LIG 0.12  C 
BRANCH 13 14
ATOM     14  CD  GLU P   3      31.504  33.840  -4.772  1.00 23.38 LIG 0.17  C 
ATOM     15 OE1  GLU P   3      30.781  32.874  -4.431  1.00 24.20 LIG-0.65  OA
ATOM     16 OE2  GLU P   3      31.311  35.017  -4.402  1.00 25.77 LIG-0.65  OA
ENDBRANCH 13 14
ENDBRANCH 12 13
ENDBRANCH 11 12
BRANCH 11 17
ATOM     17  N   GLU P   3      34.828  32.731  -7.312  1.00 23.31 LIG-0.35  N 
ATOM     18 H    GLU P   3      34.618  32.786  -8.144  1.00 23.31 LIG 0.16  HD
ATOM     19  C   ALA P   2      35.711  33.519  -6.711  1.00 24.65 LIG 0.26  C 
ATOM     20 O    ALA P   2      35.806  33.584  -5.473  1.00 25.69 LIG-0.27  OA
BRANCH 19 21
ATOM     21  CA  ALA P   2      36.584  34.418  -7.606  1.00 24.82 LIG 0.40  C 
ATOM     22  N   ALA P   2      36.826  35.726  -6.949  1.00 26.06 LIG 0.61  N 
ATOM     23  CB  ALA P   2      37.931  33.747  -7.937  1.00 25.99 LIG 0.06  C 
ENDBRANCH 19 21
ENDBRANCH 11 17
ENDBRANCH 8 11
ENDBRANCH 6 7
BRANCH 6 24
ATOM     24  CB  PHE P   4      36.440  27.592  -7.929  1.00 16.70 LIG 0.07  C 
BRANCH 24 25
ATOM     25  CG  PHE P   4      37.534  28.540  -8.379  1.00 15.87 LIG-0.06  A 
ATOM     26  CD2 PHE P   4      37.224  29.674  -9.121  1.00 14.31 LIG 0.01  A 
ATOM     27  CE2 PHE P   4      38.228  30.536  -9.563  1.00 14.76 LIG 0.00  A 
ATOM     28  CZ  PHE P   4      39.571  30.260  -9.276  1.00 16.46 LIG 0.00  A 
ATOM     29  CE1 PHE P   4      39.893  29.131  -8.530  1.00 16.70 LIG 0.00  A 
ATOM     30  CD1 PHE P   4      38.869  28.278  -8.104  1.00 16.73 LIG 0.01  A 
ENDBRANCH 24 25
ENDBRANCH 6 24
ENDBRANCH 3 6
ENDBRANCH 1 2
BRANCH 1 31
ATOM     31  C   ARG P   5      33.764  25.508  -4.620  1.00 16.50 LIG 0.24  C 
ATOM     32  N   HIS P   6      33.248  24.790  -3.625  1.00 17.02 LIG-0.35  N 
ATOM     33 H    HIS P   6      32.630  25.066  -3.095  1.00 17.02 LIG 0.16  HD
ATOM     34 O    ARG P   5      34.708  25.106  -5.310  1.00 15.68 LIG-0.27  OA
BRANCH 32 35
ATOM     35  CA  HIS P   6      33.728  23.425  -3.364  1.00 18.55 LIG 0.18  C 
BRANCH 35 36
ATOM     36  CB  HIS P   6      32.674  22.608  -2.629  1.00 17.94 LIG 0.10  C 
BRANCH 36 37
ATOM     37  CG  HIS P   6      32.832  22.575  -1.144  1.00 17.06 LIG 0.06  A 
ATOM     38 ND1  HIS P   6      31.767  22.696  -0.280  1.00 15.40 LIG-0.24  NA
ATOM     39  CE1 HIS P   6      32.205  22.679   0.966  1.00 15.09 LIG 0.23  A 
ATOM     40 NE2  HIS P   6      33.518  22.545   0.943  1.00 16.22 LIG-0.25  NA
ATOM     41  CD2 HIS P   6      33.935  22.485  -0.369  1.00 16.02 LIG 0.14  A 
ENDBRANCH 36 37
ENDBRANCH 35 36
BRANCH 35 42
ATOM     42  C   HIS P   6      33.942  22.770  -4.706  1.00 20.42 LIG 0.24  C 
ATOM     43 O    HIS P   6      32.968  22.483  -5.395  1.00 21.09 LIG-0.27  OA
ATOM     44  N   ASP P   7      35.174  22.504  -5.098  1.00 22.91 LIG-0.34  N 
ATOM     45 H    ASP P   7      35.890  22.634  -4.640  1.00 22.91 LIG 0.16  HD
BRANCH 44 46
ATOM     46  CA  ASP P   7      35.356  21.931  -6.449  1.00 24.36 LIG 0.19  C 
BRANCH 46 47
ATOM     47  C   ASP P   7      34.865  20.494  -6.578  1.00 26.16 LIG 0.24  C 
ATOM     48  N   SER P   8      34.901  19.752  -5.469  1.00 27.90 LIG-0.34  N 
ATOM     49 H    SER P   8      35.241  20.009  -4.722  1.00 27.90 LIG 0.16  HD
ATOM     50 O    ASP P   7      34.472  20.049  -7.650  1.00 26.07 LIG-0.27  OA
BRANCH 48 51
ATOM     51  CA  SER P   8      34.340  18.397  -5.453  1.00 28.60 LIG 0.21  C 
BRANCH 51 52
ATOM     52  CB  SER P   8      35.301  17.443  -4.747  1.00 29.65 LIG 0.20  C 
BRANCH 52 53
ATOM     53 OG   SER P   8      36.412  18.149  -4.222  1.00 30.91 LIG-0.40  OA
ATOM     54 HG   SER P   8      36.166  18.612  -3.566  1.00 30.91 LIG 0.21  HD
ENDBRANCH 52 53
ENDBRANCH 51 52
BRANCH 51 55
ATOM     55  C   SER P   8      32.911  18.346  -4.826  1.00 29.85 LIG 0.20  C 
ATOM     56 OXT  SER P   8      32.098  17.460  -5.121  1.00 30.94 LIG-0.65  OA
ATOM     57 O    SER P   8      32.463  19.188  -4.031  1.00 30.51 LIG-0.65  OA
ENDBRANCH 51 55
ENDBRANCH 48 51
ENDBRANCH 46 47
BRANCH 46 58
ATOM     58  CB  ASP P   7      36.792  22.072  -6.905  1.00 24.61 LIG 0.15  C 
BRANCH 58 59
ATOM     59  CG  ASP P   7      37.506  23.170  -6.161  1.00 26.42 LIG 0.17  C 
ATOM     60 OD2  ASP P   7      37.661  24.263  -6.720  1.00 29.83 LIG-0.65  OA
ATOM     61 OD1  ASP P   7      37.893  22.936  -4.989  1.00 30.09 LIG-0.65  OA
ENDBRANCH 58 59
ENDBRANCH 46 58
ENDBRANCH 44 46
ENDBRANCH 35 42
ENDBRANCH 32 35
ENDBRANCH 1 31
BRANCH 1 62
ATOM     62  CB  ARG P   5      31.727  26.673  -5.478  1.00 16.24 LIG 0.04  C 
BRANCH 62 63
ATOM     63  CG  ARG P   5      31.000  27.945  -5.869  1.00 15.73 LIG 0.02  C 
BRANCH 63 64
ATOM     64  CD  ARG P   5      31.441  29.079  -4.985  1.00 15.69 LIG 0.14  C 
BRANCH 64 65
ATOM     65  NE  ARG P   5      30.367  29.656  -4.166  1.00 15.25 LIG-0.23  N 
ATOM     66 HE   ARG P   5      29.937  30.336  -4.467  1.00 15.25 LIG 0.18  HD
ATOM     67  CZ  ARG P   5      30.031  29.164  -2.971  1.00 16.06 LIG 0.67  C 
ATOM     68  NH2 ARG P   5      29.062  29.729  -2.250  1.00 16.00 LIG-0.23  N 
ATOM     69  NH1 ARG P   5      30.690  28.124  -2.478  1.00 17.19 LIG-0.23  N 
ATOM     70 1HH2 ARG P   5      28.645  30.416  -2.554  1.00 16.00 LIG 0.17  HD
ATOM     71 2HH2 ARG P   5      28.853  29.405  -1.481  1.00 16.00 LIG 0.17  HD
ATOM     72 1HH1 ARG P   5      31.331  27.769  -2.928  1.00 17.19 LIG 0.17  HD
ATOM     73 2HH1 ARG P   5      30.476  27.805  -1.708  1.00 17.19 LIG 0.17  HD
ENDBRANCH 64 65
ENDBRANCH 63 64
ENDBRANCH 62 63
ENDBRANCH 1 62
TORSDOF 28
ENDMDL
MODEL 2
USER: ADFR SOLUTION from run 150
USER: SCORE 19.643436 LL:  -6.103 LR: -17.795 RR:   0.000 FEB:  -9.442
USER: RMSD 6.151156
USER: SEED 149
USER: STATUS no improvement in best in 6 clusters for 5 generations
USER: GENES 30
USER: genes 0 Translation |==|  0.54321 0.52073 0.56116
USER: genes 1 Rotation |==|  0.80707 0.13045 0.36284 0.51801
USER: genes 2 Torsion [CB]-CA--N-[C] |==|  0.23064
USER: genes 3 Torsion [N]-C--CA-[N] |==|  0.01598
USER: genes 4 Torsion [C]-CA--N-[C] |==|  0.59384
USER: genes 5 Torsion [N]-C--CA-[N] |==|  0.49632
USER: genes 6 Torsion [C]-CA--CB-[CG] |==|  0.25963
USER: genes 7 Torsion [CA]-CB--CG-[CD] |==|  0.99427
USER: genes 8 Torsion [CB]-CG--CD-[OE1] |==|  0.67561
USER: genes 9 Torsion [C]-CA--N-[C] |==|  0.77312
USER: genes 10 Torsion [N]-C--CA-[N] |==|  0.17744
USER: genes 11 Torsion [C]-CA--CB-[CG] |==|  0.28696
USER: genes 12 Torsion [CA]-CB--CG-[CD2] |==|  0.78556
USER: genes 13 Torsion [N]-CA--C-[N] |==|  0.45009
USER: genes 14 Torsion [C]-N--CA-[CB] |==|  0.22640
USER: genes 15 Torsion [N]-CA--CB-[CG] |==|  0.35101
USER: genes 16 Torsion [CA]-CB--CG-[CD2] |==|  0.71403
USER: genes 17 Torsion [N]-CA--C-[N] |==|  0.89093
USER: genes 18 Torsion [C]-N--CA-[CB] |==|  0.40684
USER: genes 19 Torsion [N]-CA--C-[N] |==|  0.68281
USER: genes 20 Torsion [C]-N--CA-[CB] |==|  0.27935
USER: genes 21 Torsion [N]-CA--CB-[OG] |==|  0.46321
USER: genes 22 Torsion [CA]-CB--OG-[HG] |==|  0.88415
USER: genes 23 Torsion [N]-CA--C-[OXT] |==|  0.10694
USER: genes 24 Torsion [N]-CA--CB-[CG] |==|  0.55008
USER: genes 25 Torsion [CA]-CB--CG-[OD2] |==|  0.12586
USER: genes 26 Torsion [N]-CA--CB-[CG] |==|  0.78508
USER: genes 27 Torsion [CA]-CB--CG-[CD] |==|  0.41080
USER: genes 28 Torsion [CB]-CG--CD-[NE] |==|  0.70767
USER: genes 29 Torsion [CG]-CD--NE-[HE] |==|  0.74587
ROOT
ATOM      1  CA  ARG P   5      32.691  29.513  -5.408  1.00 16.30 LIG 0.18  C 
ENDROOT
BRANCH 1 2
ATOM      2  N   ARG P   5      32.261  30.909  -5.257  1.00 16.36 LIG-0.35  N 
ATOM      3  C   PHE P   4      31.926  31.395  -4.075  1.00 16.61 LIG 0.24  C 
ATOM      4 O    PHE P   4      32.038  30.758  -3.026  1.00 17.57 LIG-0.27  OA
ATOM      5 H    ARG P   5      32.249  31.363  -5.987  1.00 16.36 LIG 0.16  HD
BRANCH 3 6
ATOM      6  CA  PHE P   4      31.383  32.824  -4.065  1.00 17.34 LIG 0.18  C 
BRANCH 6 7
ATOM      7  N   PHE P   4      31.249  33.246  -5.447  1.00 18.03 LIG-0.35  N 
ATOM      8  C   GLU P   3      31.451  34.513  -5.813  1.00 20.04 LIG 0.24  C 
ATOM      9 O    GLU P   3      31.579  35.423  -5.009  1.00 20.03 LIG-0.27  OA
ATOM     10 H    PHE P   4      31.033  32.617  -5.992  1.00 18.03 LIG 0.16  HD
BRANCH 8 11
ATOM     11  CA  GLU P   3      31.486  34.794  -7.316  1.00 21.92 LIG 0.18  C 
BRANCH 11 12
ATOM     12  CB  GLU P   3      32.604  33.984  -7.975  1.00 22.70 LIG 0.04  C 
BRANCH 12 13
ATOM     13  CG  GLU P   3      32.111  32.655  -8.518  1.00 23.46 LIG 0.12  C 
BRANCH 13 14
ATOM     14  CD  GLU P   3      30.646  32.383  -8.257  1.00 23.38 LIG 0.17  C 
ATOM     15 OE1  GLU P   3      30.366  31.399  -7.532  1.00 24.20 LIG-0.65  OA
ATOM     16 OE2  GLU P   3      29.790  33.124  -8.783  1.00 25.77 LIG-0.65  OA
ENDBRANCH 13 14
ENDBRANCH 12 13
ENDBRANCH 11 12
BRANCH 11 17
ATOM     17  N   GLU P   3      31.685  36.233  -7.518  1.00 23.31 LIG-0.35  N 
ATOM     18 H    GLU P   3      32.497  36.465  -7.681  1.00 23.31 LIG 0.16  HD
ATOM     19  C   ALA P   2      30.665  37.080  -7.446  1.00 24.65 LIG 0.26  C 
ATOM     20 O    ALA P   2      29.483  36.696  -7.461  1.00 25.69 LIG-0.27  OA
BRANCH 19 21
ATOM     21  CA  ALA P   2      30.995  38.584  -7.411  1.00 24.82 LIG 0.40  C 
ATOM     22  N   ALA P   2      31.649  39.001  -8.675  1.00 26.06 LIG 0.61  N 
ATOM     23  CB  ALA P   2      29.731  39.434  -7.177  1.00 25.99 LIG 0.06  C 
ENDBRANCH 19 21
ENDBRANCH 11 17
ENDBRANCH 8 11
ENDBRANCH 6 7
BRANCH 6 24
ATOM     24  CB  PHE P   4      30.026  32.883  -3.331  1.00 16.70 LIG 0.07  C 
BRANCH 24 25
ATOM     25  CG  PHE P   4      30.105  33.455  -1.930  1.00 15.87 LIG-0.06  A 
ATOM     26  CD2 PHE P   4      30.587  32.684  -0.879  1.00 14.31 LIG 0.01  A 
ATOM     27  CE2 PHE P   4      30.636  33.193   0.419  1.00 14.76 LIG 0.00  A 
ATOM     28  CZ  PHE P   4      30.184  34.492   0.684  1.00 16.46 LIG 0.00  A 
ATOM     29  CE1 PHE P   4      29.704  35.275  -0.360  1.00 16.70 LIG 0.00  A 
ATOM     30  CD1 PHE P   4      29.657  34.740  -1.652  1.00 16.73 LIG 0.01  A 
ENDBRANCH 24 25
ENDBRANCH 6 24
ENDBRANCH 3 6
ENDBRANCH 1 2
BRANCH 1 31
ATOM     31  C   ARG P   5      33.586  29.315  -6.642  1.00 16.50 LIG 0.24  C 
ATOM     32  N   HIS P   6      34.321  28.206  -6.676  1.00 17.02 LIG-0.35  N 
ATOM     33 H    HIS P   6      34.375  27.637  -6.033  1.00 17.02 LIG 0.16  HD
ATOM     34 O    ARG P   5      33.599  30.148  -7.556  1.00 15.68 LIG-0.27  OA
BRANCH 32 35
ATOM     35  CA  HIS P   6      35.120  27.876  -7.865  1.00 18.55 LIG 0.18  C 
BRANCH 35 36
ATOM     36  CB  HIS P   6      36.440  28.636  -7.865  1.00 17.94 LIG 0.10  C 
BRANCH 36 37
ATOM     37  CG  HIS P   6      37.654  27.779  -8.017  1.00 17.06 LIG 0.06  A 
ATOM     38 ND1  HIS P   6      38.013  27.205  -9.215  1.00 15.40 LIG-0.24  NA
ATOM     39  CE1 HIS P   6      39.096  26.468  -9.045  1.00 15.09 LIG 0.23  A 
ATOM     40 NE2  HIS P   6      39.458  26.547  -7.777  1.00 16.22 LIG-0.25  NA
ATOM     41  CD2 HIS P   6      38.564  27.358  -7.111  1.00 16.02 LIG 0.14  A 
ENDBRANCH 36 37
ENDBRANCH 35 36
BRANCH 35 42
ATOM     42  C   HIS P   6      35.452  26.407  -7.778  1.00 20.42 LIG 0.24  C 
ATOM     43 O    HIS P   6      35.416  25.723  -8.795  1.00 21.09 LIG-0.27  OA
ATOM     44  N   ASP P   7      35.757  25.889  -6.602  1.00 22.91 LIG-0.34  N 
ATOM     45 H    ASP P   7      35.749  26.304  -5.849  1.00 22.91 LIG 0.16  HD
BRANCH 44 46
ATOM     46  CA  ASP P   7      36.151  24.464  -6.561  1.00 24.36 LIG 0.19  C 
BRANCH 46 47
ATOM     47  C   ASP P   7      34.974  23.505  -6.435  1.00 26.16 LIG 0.24  C 
ATOM     48  N   SER P   8      34.898  22.803  -5.302  1.00 27.90 LIG-0.34  N 
ATOM     49 H    SER P   8      35.498  22.808  -4.686  1.00 27.90 LIG 0.16  HD
ATOM     50 O    ASP P   7      34.152  23.383  -7.336  1.00 26.07 LIG-0.27  OA
BRANCH 48 51
ATOM     51  CA  SER P   8      33.743  21.944  -5.027  1.00 28.60 LIG 0.21  C 
BRANCH 51 52
ATOM     52  CB  SER P   8      34.092  20.487  -5.325  1.00 29.65 LIG 0.20  C 
BRANCH 52 53
ATOM     53 OG   SER P   8      33.111  19.617  -4.787  1.00 30.91 LIG-0.40  OA
ATOM     54 HG   SER P   8      32.890  19.883  -4.021  1.00 30.91 LIG 0.21  HD
ENDBRANCH 52 53
ENDBRANCH 51 52
BRANCH 51 55
ATOM     55  C   SER P   8      33.195  22.120  -3.575  1.00 29.85 LIG 0.20  C 
ATOM     56 OXT  SER P   8      33.147  23.228  -3.024  1.00 30.94 LIG-0.65  OA
ATOM     57 O    SER P   8      32.811  21.187  -2.852  1.00 30.51 LIG-0.65  OA
ENDBRANCH 51 55
ENDBRANCH 48 51
ENDBRANCH 46 47
BRANCH 46 58
ATOM     58  CB  ASP P   7      37.184  24.222  -5.483  1.00 24.61 LIG 0.15  C 
BRANCH 58 59
ATOM     59  CG  ASP P   7      37.914  22.921  -5.694  1.00 26.42 LIG 0.17  C 
ATOM     60 OD2  ASP P   7      38.317  22.643  -6.830  1.00 29.83 LIG-0.65  OA
ATOM     61 OD1  ASP P   7      38.105  22.182  -4.696  1.00 30.09 LIG-0.65  OA
ENDBRANCH 58 59
ENDBRANCH 46 58
ENDBRANCH 44 46
ENDBRANCH 35 42
ENDBRANCH 32 35
ENDBRANCH 1 31
BRANCH 1 62
ATOM     62  CB  ARG P   5      31.473  28.609  -5.511  1.00 16.24 LIG 0.04  C 
BRANCH 62 63
ATOM     63  CG  ARG P   5      30.772  28.318  -4.199  1.00 15.73 LIG 0.02  C 
BRANCH 63 64
ATOM     64  CD  ARG P   5      29.296  28.144  -4.435  1.00 15.69 LIG 0.14  C 
BRANCH 64 65
ATOM     65  NE  ARG P   5      28.478  29.284  -4.000  1.00 15.25 LIG-0.23  N 
ATOM     66 HE   ARG P   5      28.160  29.283  -3.202  1.00 15.25 LIG 0.18  HD
ATOM     67  CZ  ARG P   5      28.210  30.321  -4.796  1.00 16.06 LIG 0.67  C 
ATOM     68  NH2 ARG P   5      27.447  31.328  -4.369  1.00 16.00 LIG-0.23  N 
ATOM     69  NH1 ARG P   5      28.677  30.337  -6.037  1.00 17.19 LIG-0.23  N 
ATOM     70 1HH2 ARG P   5      27.123  31.314  -3.572  1.00 16.00 LIG 0.17  HD
ATOM     71 2HH2 ARG P   5      27.279  31.992  -4.889  1.00 16.00 LIG 0.17  HD
ATOM     72 1HH1 ARG P   5      29.151  29.681  -6.327  1.00 17.19 LIG 0.17  HD
ATOM     73 2HH1 ARG P   5      28.505  31.005  -6.553  1.00 17.19 LIG 0.17  HD
ENDBRANCH 64 65
ENDBRANCH 63 64
ENDBRANCH 62 63
ENDBRANCH 1 62
TORSDOF 28
ENDMDL
MODEL 3
USER: ADFR SOLUTION from run 82
USER: SCORE 20.713164 LL:  -6.150 LR: -17.780 RR:   0.000 FEB:  -9.428
USER: RMSD 7.341788
USER: SEED 81
USER: STATUS no improvement in best in 4 clusters for 5 generations
USER: GENES 30
USER: genes 0 Translation |==|  0.53269 0.46864 0.53343
USER: genes 1 Rotation |==|  0.74696 0.07049 0.44672 0.54118
USER: genes 2 Torsion [CB]-CA--N-[C] |==|  0.50091
USER: genes 3 Torsion [N]-C--CA-[N] |==|  0.03370
USER: genes 4 Torsion [C]-CA--N-[C] |==|  0.20475
USER: genes 5 Torsion [N]-C--CA-[N] |==|  0.87421
USER: genes 6 Torsion [C]-CA--CB-[CG] |==|  0.38155
USER: genes 7 Torsion [CA]-CB--CG-[CD] |==|  0.94296
USER: genes 8 Torsion [CB]-CG--CD-[OE1] |==|  0.27097
USER: genes 9 Torsion [C]-CA--N-[C] |==|  0.81744
USER: genes 10 Torsion [N]-C--CA-[N] |==|  0.50696
USER: genes 11 Torsion [C]-CA--CB-[CG] |==|  0.28099
USER: genes 12 Torsion [CA]-CB--CG-[CD2] |==|  0.93128
USER: genes 13 Torsion [N]-CA--C-[N] |==|  0.25189
USER: genes 14 Torsion [C]-N--CA-[CB] |==|  0.43392
USER: genes 15 Torsion [N]-CA--CB-[CG] |==|  0.42718
USER: genes 16 Torsion [CA]-CB--CG-[CD2] |==|  0.65111
USER: genes 17 Torsion [N]-CA--C-[N] |==|  0.88209
USER: genes 18 Torsion [C]-N--CA-[CB] |==|  0.80347
USER: genes 19 Torsion [N]-CA--C-[N] |==|  0.20420
USER: genes 20 Torsion [C]-N--CA-[CB] |==|  0.48543
USER: genes 21 Torsion [N]-CA--CB-[OG] |==|  0.19178
USER: genes 22 Torsion [CA]-CB--OG-[HG] |==|  0.10622
USER: genes 23 Torsion [N]-CA--C-[OXT] |==|  0.72916
USER: genes 24 Torsion [N]-CA--CB-[CG] |==|  0.65336
USER: genes 25 Torsion [CA]-CB--CG-[OD2] |==|  0.19102
USER: genes 26 Torsion [N]-CA--CB-[CG] |==|  0.90863
USER: genes 27 Torsion [CA]-CB--CG-[CD] |==|  0.61611
USER: genes 28 Torsion [CB]-CG--CD-[NE] |==|  0.37533
USER: genes 29 Torsion [CG]-CD--NE-[HE] |==|  0.26567
ROOT
ATOM      1  CA  ARG P   5      32.446  28.262  -5.949  1.00 16.30 LIG 0.18  C 
ENDROOT
BRANCH 1 2
ATOM      2  N   ARG P   5      32.442  29.672  -6.364  1.00 16.36 LIG-0.35  N 
ATOM      3  C   PHE P   4      33.571  30.346  -6.500  1.00 16.61 LIG 0.24  C 
ATOM      4 O    PHE P   4      34.684  29.829  -6.385  1.00 17.57 LIG-0.27  OA
ATOM      5 H    ARG P   5      31.661  30.003  -6.505  1.00 16.36 LIG 0.16  HD
BRANCH 3 6
ATOM      6  CA  PHE P   4      33.431  31.834  -6.820  1.00 17.34 LIG 0.18  C 
BRANCH 6 7
ATOM      7  N   PHE P   4      32.040  32.193  -6.609  1.00 18.03 LIG-0.35  N 
ATOM      8  C   GLU P   3      31.528  32.309  -5.383  1.00 20.04 LIG 0.24  C 
ATOM      9 O    GLU P   3      32.123  31.953  -4.378  1.00 20.03 LIG-0.27  OA
ATOM     10 H    PHE P   4      31.592  32.320  -7.332  1.00 18.03 LIG 0.16  HD
BRANCH 8 11
ATOM     11  CA  GLU P   3      30.117  32.893  -5.284  1.00 21.92 LIG 0.18  C 
BRANCH 11 12
ATOM     12  CB  GLU P   3      29.084  31.838  -5.683  1.00 22.70 LIG 0.04  C 
BRANCH 12 13
ATOM     13  CG  GLU P   3      27.879  31.831  -4.760  1.00 23.46 LIG 0.12  C 
BRANCH 13 14
ATOM     14  CD  GLU P   3      28.128  32.465  -3.410  1.00 23.38 LIG 0.17  C 
ATOM     15 OE1  GLU P   3      27.770  33.657  -3.262  1.00 24.20 LIG-0.65  OA
ATOM     16 OE2  GLU P   3      28.690  31.793  -2.521  1.00 25.77 LIG-0.65  OA
ENDBRANCH 13 14
ENDBRANCH 12 13
ENDBRANCH 11 12
BRANCH 11 17
ATOM     17  N   GLU P   3      30.036  34.071  -6.154  1.00 23.31 LIG-0.35  N 
ATOM     18 H    GLU P   3      29.501  33.988  -6.823  1.00 23.31 LIG 0.16  HD
ATOM     19  C   ALA P   2      30.750  35.160  -5.898  1.00 24.65 LIG 0.26  C 
ATOM     20 O    ALA P   2      31.311  35.342  -4.804  1.00 25.69 LIG-0.27  OA
BRANCH 19 21
ATOM     21  CA  ALA P   2      30.807  36.243  -6.991  1.00 24.82 LIG 0.40  C 
ATOM     22  N   ALA P   2      31.689  37.359  -6.570  1.00 26.06 LIG 0.61  N 
ATOM     23  CB  ALA P   2      31.304  35.667  -8.331  1.00 25.99 LIG 0.06  C 
ENDBRANCH 19 21
ENDBRANCH 11 17
ENDBRANCH 8 11
ENDBRANCH 6 7
BRANCH 6 24
ATOM     24  CB  PHE P   4      34.364  32.672  -5.921  1.00 16.70 LIG 0.07  C 
BRANCH 24 25
ATOM     25  CG  PHE P   4      35.638  33.126  -6.604  1.00 15.87 LIG-0.06  A 
ATOM     26  CD2 PHE P   4      36.150  32.417  -7.685  1.00 14.31 LIG 0.01  A 
ATOM     27  CE2 PHE P   4      37.338  32.811  -8.302  1.00 14.76 LIG 0.00  A 
ATOM     28  CZ  PHE P   4      38.042  33.926  -7.828  1.00 16.46 LIG 0.00  A 
ATOM     29  CE1 PHE P   4      37.537  34.646  -6.751  1.00 16.70 LIG 0.00  A 
ATOM     30  CD1 PHE P   4      36.348  34.227  -6.143  1.00 16.73 LIG 0.01  A 
ENDBRANCH 24 25
ENDBRANCH 6 24
ENDBRANCH 3 6
ENDBRANCH 1 2
BRANCH 1 31
ATOM     31  C   ARG P   5      33.272  27.382  -6.901  1.00 16.50 LIG 0.24  C 
ATOM     32  N   HIS P   6      34.559  27.225  -6.604  1.00 17.02 LIG-0.35  N 
ATOM     33 H    HIS P   6      34.965  27.630  -5.963  1.00 17.02 LIG 0.16  HD
ATOM     34 O    ARG P   5      32.746  26.843  -7.882  1.00 15.68 LIG-0.27  OA
BRANCH 32 35
ATOM     35  CA  HIS P   6      35.401  26.311  -7.390  1.00 18.55 LIG 0.18  C 
BRANCH 35 36
ATOM     36  CB  HIS P   6      36.870  26.699  -7.291  1.00 17.94 LIG 0.10  C 
BRANCH 36 37
ATOM     37  CG  HIS P   6      37.829  25.573  -7.499  1.00 17.06 LIG 0.06  A 
ATOM     38 ND1  HIS P   6      37.768  24.738  -8.592  1.00 15.40 LIG-0.24  NA
ATOM     39  CE1 HIS P   6      38.704  23.811  -8.491  1.00 15.09 LIG 0.23  A 
ATOM     40 NE2  HIS P   6      39.377  24.019  -7.374  1.00 16.22 LIG-0.25  NA
ATOM     41  CD2 HIS P   6      38.841  25.114  -6.732  1.00 16.02 LIG 0.14  A 
ENDBRANCH 36 37
ENDBRANCH 35 36
BRANCH 35 42
ATOM     42  C   HIS P   6      35.260  24.942  -6.772  1.00 20.42 LIG 0.24  C 
ATOM     43 O    HIS P   6      35.122  23.966  -7.502  1.00 21.09 LIG-0.27  OA
ATOM     44  N   ASP P   7      35.269  24.831  -5.456  1.00 22.91 LIG-0.34  N 
ATOM     45 H    ASP P   7      35.310  25.480  -4.894  1.00 22.91 LIG 0.16  HD
BRANCH 44 46
ATOM     46  CA  ASP P   7      35.204  23.469  -4.883  1.00 24.36 LIG 0.19  C 
BRANCH 46 47
ATOM     47  C   ASP P   7      36.306  22.541  -5.377  1.00 26.16 LIG 0.24  C 
ATOM     48  N   SER P   8      37.531  22.762  -4.895  1.00 27.90 LIG-0.34  N 
ATOM     49 H    SER P   8      37.742  23.424  -4.389  1.00 27.90 LIG 0.16  HD
ATOM     50 O    ASP P   7      36.073  21.648  -6.184  1.00 26.07 LIG-0.27  OA
BRANCH 48 51
ATOM     51  CA  SER P   8      38.638  21.853  -5.209  1.00 28.60 LIG 0.21  C 
BRANCH 51 52
ATOM     52  CB  SER P   8      39.944  22.406  -4.642  1.00 29.65 LIG 0.20  C 
BRANCH 52 53
ATOM     53 OG   SER P   8      39.938  22.352  -3.226  1.00 30.91 LIG-0.40  OA
ATOM     54 HG   SER P   8      39.564  21.643  -2.974  1.00 30.91 LIG 0.21  HD
ENDBRANCH 52 53
ENDBRANCH 51 52
BRANCH 51 55
ATOM     55  C   SER P   8      38.372  20.392  -4.726  1.00 29.85 LIG 0.20  C 
ATOM     56 OXT  SER P   8      38.825  19.964  -3.656  1.00 30.94 LIG-0.65  OA
ATOM     57 O    SER P   8      37.736  19.544  -5.372  1.00 30.51 LIG-0.65  OA
ENDBRANCH 51 55
ENDBRANCH 48 51
ENDBRANCH 46 47
BRANCH 46 58
ATOM     58  CB  ASP P   7      33.832  22.864  -5.088  1.00 24.61 LIG 0.15  C 
BRANCH 58 59
ATOM     59  CG  ASP P   7      33.221  22.416  -3.785  1.00 26.42 LIG 0.17  C 
ATOM     60 OD2  ASP P   7      32.880  23.275  -2.963  1.00 29.83 LIG-0.65  OA
ATOM     61 OD1  ASP P   7      33.060  21.184  -3.601  1.00 30.09 LIG-0.65  OA
ENDBRANCH 58 59
ENDBRANCH 46 58
ENDBRANCH 44 46
ENDBRANCH 35 42
ENDBRANCH 32 35
ENDBRANCH 1 31
BRANCH 1 62
ATOM     62  CB  ARG P   5      31.019  27.744  -5.883  1.00 16.24 LIG 0.04  C 
BRANCH 62 63
ATOM     63  CG  ARG P   5      29.979  28.766  -5.470  1.00 15.73 LIG 0.02  C 
BRANCH 63 64
ATOM     64  CD  ARG P   5      29.001  28.142  -4.511  1.00 15.69 LIG 0.14  C 
BRANCH 64 65
ATOM     65  NE  ARG P   5      28.686  28.977  -3.345  1.00 15.25 LIG-0.23  N 
ATOM     66 HE   ARG P   5      27.983  29.472  -3.369  1.00 15.25 LIG 0.18  HD
ATOM     67  CZ  ARG P   5      29.448  28.999  -2.249  1.00 16.06 LIG 0.67  C 
ATOM     68  NH2 ARG P   5      29.136  29.786  -1.218  1.00 16.00 LIG-0.23  N 
ATOM     69  NH1 ARG P   5      30.545  28.257  -2.195  1.00 17.19 LIG-0.23  N 
ATOM     70 1HH2 ARG P   5      28.438  30.286  -1.255  1.00 16.00 LIG 0.17  HD
ATOM     71 2HH2 ARG P   5      29.633  29.794  -0.517  1.00 16.00 LIG 0.17  HD
ATOM     72 1HH1 ARG P   5      30.764  27.764  -2.865  1.00 17.19 LIG 0.17  HD
ATOM     73 2HH1 ARG P   5      31.039  28.269  -1.490  1.00 17.19 LIG 0.17  HD
ENDBRANCH 64 65
ENDBRANCH 63 64
ENDBRANCH 62 63
ENDBRANCH 1 62
TORSDOF 28
ENDMDL
MODEL 4
USER: ADFR SOLUTION from run 147
USER: SCORE 22.343773 LL:  -7.015 LR: -17.718 RR:   0.000 FEB:  -9.366
USER: RMSD 7.124771
USER: SEED 146
USER: STATUS searching
USER: GENES 30
USER: genes 0 Translation |==|  0.52094 0.46629 0.61386
USER: genes 1 Rotation |==|  0.70220 0.07069 0.37650 0.59774
USER: genes 2 Torsion [CB]-CA--N-[C] |==|  0.17222
USER: genes 3 Torsion [N]-C--CA-[N] |==|  0.95762
USER: genes 4 Torsion [C]-CA--N-[C] |==|  0.72918
USER: genes 5 Torsion [N]-C--CA-[N] |==|  0.46984
USER: genes 6 Torsion [C]-CA--CB-[CG] |==|  0.30576
USER: genes 7 Torsion [CA]-CB--CG-[CD] |==|  0.80906
USER: genes 8 Torsion [CB]-CG--CD-[OE1] |==|  0.70731
USER: genes 9 Torsion [C]-CA--N-[C] |==|  0.76254
USER: genes 10 Torsion [N]-C--CA-[N] |==|  0.47890
USER: genes 11 Torsion [C]-CA--CB-[CG] |==|  0.27231
USER: genes 12 Torsion [CA]-CB--CG-[CD2] |==|  0.82246
USER: genes 13 Torsion [N]-CA--C-[N] |==|  0.19320
USER: genes 14 Torsion [C]-N--CA-[CB] |==|  0.47037
USER: genes 15 Torsion [N]-CA--CB-[CG] |==|  0.30077
USER: genes 16 Torsion [CA]-CB--CG-[CD2] |==|  0.76864
USER: genes 17 Torsion [N]-CA--C-[N] |==|  0.90696
USER: genes 18 Torsion [C]-N--CA-[CB] |==|  0.81198
USER: genes 19 Torsion [N]-CA--C-[N] |==|  0.31744
USER: genes 20 Torsion [C]-N--CA-[CB] |==|  0.39804
USER: genes 21 Torsion [N]-CA--CB-[OG] |==|  0.01035
USER: genes 22 Torsion [CA]-CB--OG-[HG] |==|  0.81486
USER: genes 23 Torsion [N]-CA--C-[OXT] |==|  0.02997
USER: genes 24 Torsion [N]-CA--CB-[CG] |==|  0.67214
USER: genes 25 Torsion [CA]-CB--CG-[OD2] |==|  0.18066
USER: genes 26 Torsion [N]-CA--CB-[CG] |==|  0.14252
USER: genes 27 Torsion [CA]-CB--CG-[CD] |==|  0.69565
USER: genes 28 Torsion [CB]-CG--CD-[NE] |==|  0.47761
USER: genes 29 Torsion [CG]-CD--NE-[HE] |==|  0.33064
ROOT
ATOM      1  CA  ARG P   5      32.173  28.206  -4.381  1.00 16.30 LIG 0.18  C 
ENDROOT
BRANCH 1 2
ATOM      2  N   ARG P   5      32.269  29.648  -4.645  1.00 16.36 LIG-0.35  N 
ATOM      3  C   PHE P   4      32.126  30.531  -3.673  1.00 16.61 LIG 0.24  C 
ATOM      4 O    PHE P   4      32.001  30.216  -2.487  1.00 17.57 LIG-0.27  OA
ATOM      5 H    ARG P   5      32.422  29.854  -5.466  1.00 16.36 LIG 0.16  HD
BRANCH 3 6
ATOM      6  CA  PHE P   4      32.129  32.000  -4.093  1.00 17.34 LIG 0.18  C 
BRANCH 6 7
ATOM      7  N   PHE P   4      32.653  32.063  -5.445  1.00 18.03 LIG-0.35  N 
ATOM      8  C   GLU P   3      33.933  32.356  -5.684  1.00 20.04 LIG 0.24  C 
ATOM      9 O    GLU P   3      34.693  32.763  -4.820  1.00 20.03 LIG-0.27  OA
ATOM     10 H    PHE P   4      32.074  31.897  -6.059  1.00 18.03 LIG 0.16  HD
BRANCH 8 11
ATOM     11  CA  GLU P   3      34.415  32.189  -7.126  1.00 21.92 LIG 0.18  C 
BRANCH 11 12
ATOM     12  CB  GLU P   3      34.447  30.706  -7.499  1.00 22.70 LIG 0.04  C 
BRANCH 12 13
ATOM     13  CG  GLU P   3      33.372  30.340  -8.506  1.00 23.46 LIG 0.12  C 
BRANCH 13 14
ATOM     14  CD  GLU P   3      31.963  30.405  -7.961  1.00 23.38 LIG 0.17  C 
ATOM     15 OE1  GLU P   3      31.392  29.316  -7.717  1.00 24.20 LIG-0.65  OA
ATOM     16 OE2  GLU P   3      31.428  31.522  -7.801  1.00 25.77 LIG-0.65  OA
ENDBRANCH 13 14
ENDBRANCH 12 13
ENDBRANCH 11 12
BRANCH 11 17
ATOM     17  N   GLU P   3      35.744  32.796  -7.248  1.00 23.31 LIG-0.35  N 
ATOM     18 H    GLU P   3      36.400  32.248  -7.149  1.00 23.31 LIG 0.16  HD
ATOM     19  C   ALA P   2      35.883  34.093  -7.494  1.00 24.65 LIG 0.26  C 
ATOM     20 O    ALA P   2      34.936  34.799  -7.879  1.00 25.69 LIG-0.27  OA
BRANCH 19 21
ATOM     21  CA  ALA P   2      37.294  34.694  -7.349  1.00 24.82 LIG 0.40  C 
ATOM     22  N   ALA P   2      37.311  36.097  -7.831  1.00 26.06 LIG 0.61  N 
ATOM     23  CB  ALA P   2      37.783  34.641  -5.889  1.00 25.99 LIG 0.06  C 
ENDBRANCH 19 21
ENDBRANCH 11 17
ENDBRANCH 8 11
ENDBRANCH 6 7
BRANCH 6 24
ATOM     24  CB  PHE P   4      30.703  32.587  -4.021  1.00 16.70 LIG 0.07  C 
BRANCH 24 25
ATOM     25  CG  PHE P   4      30.417  33.365  -2.752  1.00 15.87 LIG-0.06  A 
ATOM     26  CD2 PHE P   4      30.425  32.728  -1.517  1.00 14.31 LIG 0.01  A 
ATOM     27  CE2 PHE P   4      30.135  33.431  -0.347  1.00 14.76 LIG 0.00  A 
ATOM     28  CZ  PHE P   4      29.815  34.794  -0.405  1.00 16.46 LIG 0.00  A 
ATOM     29  CE1 PHE P   4      29.809  35.443  -1.634  1.00 16.70 LIG 0.00  A 
ATOM     30  CD1 PHE P   4      30.096  34.715  -2.794  1.00 16.73 LIG 0.01  A 
ENDBRANCH 24 25
ENDBRANCH 6 24
ENDBRANCH 3 6
ENDBRANCH 1 2
BRANCH 1 31
ATOM     31  C   ARG P   5      32.469  27.368  -5.635  1.00 16.50 LIG 0.24  C 
ATOM     32  N   HIS P   6      33.726  27.367  -6.071  1.00 17.02 LIG-0.35  N 
ATOM     33 H    HIS P   6      34.357  27.849  -5.740  1.00 17.02 LIG 0.16  HD
ATOM     34 O    ARG P   5      31.573  26.720  -6.190  1.00 15.68 LIG-0.27  OA
BRANCH 32 35
ATOM     35  CA  HIS P   6      34.126  26.507  -7.193  1.00 18.55 LIG 0.18  C 
BRANCH 35 36
ATOM     36  CB  HIS P   6      35.524  26.861  -7.682  1.00 17.94 LIG 0.10  C 
BRANCH 36 37
ATOM     37  CG  HIS P   6      36.577  25.854  -7.349  1.00 17.06 LIG 0.06  A 
ATOM     38 ND1  HIS P   6      36.945  24.850  -8.215  1.00 15.40 LIG-0.24  NA
ATOM     39  CE1 HIS P   6      37.858  24.087  -7.642  1.00 15.09 LIG 0.23  A 
ATOM     40 NE2  HIS P   6      38.101  24.563  -6.435  1.00 16.22 LIG-0.25  NA
ATOM     41  CD2 HIS P   6      37.304  25.668  -6.226  1.00 16.02 LIG 0.14  A 
ENDBRANCH 36 37
ENDBRANCH 35 36
BRANCH 35 42
ATOM     42  C   HIS P   6      34.185  25.095  -6.666  1.00 20.42 LIG 0.24  C 
ATOM     43 O    HIS P   6      33.867  24.166  -7.402  1.00 21.09 LIG-0.27  OA
ATOM     44  N   ASP P   7      34.559  24.894  -5.415  1.00 22.91 LIG-0.34  N 
ATOM     45 H    ASP P   7      34.743  25.505  -4.838  1.00 22.91 LIG 0.16  HD
BRANCH 44 46
ATOM     46  CA  ASP P   7      34.678  23.495  -4.951  1.00 24.36 LIG 0.19  C 
BRANCH 46 47
ATOM     47  C   ASP P   7      35.672  22.664  -5.752  1.00 26.16 LIG 0.24  C 
ATOM     48  N   SER P   8      36.758  22.244  -5.100  1.00 27.90 LIG-0.34  N 
ATOM     49 H    SER P   8      36.959  22.468  -4.295  1.00 27.90 LIG 0.16  HD
ATOM     50 O    ASP P   7      35.481  22.409  -6.936  1.00 26.07 LIG-0.27  OA
BRANCH 48 51
ATOM     51  CA  SER P   8      37.715  21.336  -5.741  1.00 28.60 LIG 0.21  C 
BRANCH 51 52
ATOM     52  CB  SER P   8      39.138  21.691  -5.312  1.00 29.65 LIG 0.20  C 
BRANCH 52 53
ATOM     53 OG   SER P   8      39.126  22.736  -4.354  1.00 30.91 LIG-0.40  OA
ATOM     54 HG   SER P   8      38.849  23.443  -4.714  1.00 30.91 LIG 0.21  HD
ENDBRANCH 52 53
ENDBRANCH 51 52
BRANCH 51 55
ATOM     55  C   SER P   8      37.390  19.833  -5.474  1.00 29.85 LIG 0.20  C 
ATOM     56 OXT  SER P   8      36.321  19.475  -4.961  1.00 30.94 LIG-0.65  OA
ATOM     57 O    SER P   8      38.169  18.895  -5.707  1.00 30.51 LIG-0.65  OA
ENDBRANCH 51 55
ENDBRANCH 48 51
ENDBRANCH 46 47
BRANCH 46 58
ATOM     58  CB  ASP P   7      33.320  22.832  -4.889  1.00 24.61 LIG 0.15  C 
BRANCH 58 59
ATOM     59  CG  ASP P   7      32.971  22.409  -3.485  1.00 26.42 LIG 0.17  C 
ATOM     60 OD2  ASP P   7      32.813  23.283  -2.623  1.00 29.83 LIG-0.65  OA
ATOM     61 OD1  ASP P   7      32.828  21.182  -3.255  1.00 30.09 LIG-0.65  OA
ENDBRANCH 58 59
ENDBRANCH 46 58
ENDBRANCH 44 46
ENDBRANCH 35 42
ENDBRANCH 32 35
ENDBRANCH 1 31
BRANCH 1 62
ATOM     62  CB  ARG P   5      30.785  27.872  -3.859  1.00 16.24 LIG 0.04  C 
BRANCH 62 63
ATOM     63  CG  ARG P   5      29.636  28.395  -4.699  1.00 15.73 LIG 0.02  C 
BRANCH 63 64
ATOM     64  CD  ARG P   5      28.934  29.507  -3.970  1.00 15.69 LIG 0.14  C 
BRANCH 64 65
ATOM     65  NE  ARG P   5      27.923  30.209  -4.772  1.00 15.25 LIG-0.23  N 
ATOM     66 HE   ARG P   5      27.106  30.199  -4.507  1.00 15.25 LIG 0.18  HD
ATOM     67  CZ  ARG P   5      28.224  30.861  -5.897  1.00 16.06 LIG 0.67  C 
ATOM     68  NH2 ARG P   5      27.273  31.470  -6.606  1.00 16.00 LIG-0.23  N 
ATOM     69  NH1 ARG P   5      29.476  30.878  -6.334  1.00 17.19 LIG-0.23  N 
ATOM     70 1HH2 ARG P   5      26.456  31.445  -6.340  1.00 16.00 LIG 0.17  HD
ATOM     71 2HH2 ARG P   5      27.477  31.889  -7.330  1.00 16.00 LIG 0.17  HD
ATOM     72 1HH1 ARG P   5      30.091  30.469  -5.893  1.00 17.19 LIG 0.17  HD
ATOM     73 2HH1 ARG P   5      29.673  31.298  -7.059  1.00 17.19 LIG 0.17  HD
ENDBRANCH 64 65
ENDBRANCH 63 64
ENDBRANCH 62 63
ENDBRANCH 1 62
TORSDOF 28
ENDMDL
MODEL 5
USER: ADFR SOLUTION from run 187
USER: SCORE 20.374774 LL:  -5.688 LR: -17.622 RR:   0.000 FEB:  -9.269
USER: RMSD 8.574928
USER: SEED 186
USER: STATUS searching
USER: GENES 30
USER: genes 0 Translation |==|  0.56319 0.43054 0.54180
USER: genes 1 Rotation |==|  0.67609 0.03249 0.51131 0.51736
USER: genes 2 Torsion [CB]-CA--N-[C] |==|  0.84440
USER: genes 3 Torsion [N]-C--CA-[N] |==|  0.89280
USER: genes 4 Torsion [C]-CA--N-[C] |==|  0.63919
USER: genes 5 Torsion [N]-C--CA-[N] |==|  0.32001
USER: genes 6 Torsion [C]-CA--CB-[CG] |==|  0.30726
USER: genes 7 Torsion [CA]-CB--CG-[CD] |==|  0.33022
USER: genes 8 Torsion [CB]-CG--CD-[OE1] |==|  0.44488
USER: genes 9 Torsion [C]-CA--N-[C] |==|  0.83692
USER: genes 10 Torsion [N]-C--CA-[N] |==|  0.45198
USER: genes 11 Torsion [C]-CA--CB-[CG] |==|  0.01558
USER: genes 12 Torsion [CA]-CB--CG-[CD2] |==|  0.71799
USER: genes 13 Torsion [N]-CA--C-[N] |==|  0.31308
USER: genes 14 Torsion [C]-N--CA-[CB] |==|  0.52778
USER: genes 15 Torsion [N]-CA--CB-[CG] |==|  0.61513
USER: genes 16 Torsion [CA]-CB--CG-[CD2] |==|  0.80386
USER: genes 17 Torsion [N]-CA--C-[N] |==|  0.40170
USER: genes 18 Torsion [C]-N--CA-[CB] |==|  0.39626
USER: genes 19 Torsion [N]-CA--C-[N] |==|  0.96093
USER: genes 20 Torsion [C]-N--CA-[CB] |==|  0.44558
USER: genes 21 Torsion [N]-CA--CB-[OG] |==|  0.20219
USER: genes 22 Torsion [CA]-CB--OG-[HG] |==|  0.96409
USER: genes 23 Torsion [N]-CA--C-[OXT] |==|  0.96399
USER: genes 24 Torsion [N]-CA--CB-[CG] |==|  0.04002
USER: genes 25 Torsion [CA]-CB--CG-[OD2] |==|  0.17904
USER: genes 26 Torsion [N]-CA--CB-[CG] |==|  0.86480
USER: genes 27 Torsion [CA]-CB--CG-[CD] |==|  0.90072
USER: genes 28 Torsion [CB]-CG--CD-[NE] |==|  0.76336
USER: genes 29 Torsion [CG]-CD--NE-[HE] |==|  0.29907
ROOT
ATOM      1  CA  ARG P   5      33.155  27.348  -5.786  1.00 16.30 LIG 0.18  C 
ENDROOT
BRANCH 1 2
ATOM      2  N   ARG P   5      33.669  28.560  -6.438  1.00 16.36 LIG-0.35  N 
ATOM      3  C   PHE P   4      33.424  28.805  -7.713  1.00 16.61 LIG 0.24  C 
ATOM      4 O    PHE P   4      32.686  28.100  -8.407  1.00 17.57 LIG-0.27  OA
ATOM      5 H    ARG P   5      34.128  29.077  -5.926  1.00 16.36 LIG 0.16  HD
BRANCH 3 6
ATOM      6  CA  PHE P   4      34.110  30.035  -8.306  1.00 17.34 LIG 0.18  C 
BRANCH 6 7
ATOM      7  N   PHE P   4      34.088  31.073  -7.293  1.00 18.03 LIG-0.35  N 
ATOM      8  C   GLU P   3      33.656  32.306  -7.566  1.00 20.04 LIG 0.24  C 
ATOM      9 O    GLU P   3      33.428  32.692  -8.701  1.00 20.03 LIG-0.27  OA
ATOM     10 H    PHE P   4      34.372  30.823  -6.520  1.00 18.03 LIG 0.16  HD
BRANCH 8 11
ATOM     11  CA  GLU P   3      33.484  33.250  -6.375  1.00 21.92 LIG 0.18  C 
BRANCH 11 12
ATOM     12  CB  GLU P   3      32.045  33.767  -6.320  1.00 22.70 LIG 0.04  C 
BRANCH 12 13
ATOM     13  CG  GLU P   3      31.275  33.208  -5.138  1.00 23.46 LIG 0.12  C 
BRANCH 13 14
ATOM     14  CD  GLU P   3      30.783  34.256  -4.165  1.00 23.38 LIG 0.17  C 
ATOM     15 OE1  GLU P   3      29.845  33.933  -3.400  1.00 24.20 LIG-0.65  OA
ATOM     16 OE2  GLU P   3      31.310  35.389  -4.179  1.00 25.77 LIG-0.65  OA
ENDBRANCH 13 14
ENDBRANCH 12 13
ENDBRANCH 11 12
BRANCH 11 17
ATOM     17  N   GLU P   3      34.440  34.354  -6.511  1.00 23.31 LIG-0.35  N 
ATOM     18 H    GLU P   3      34.084  35.137  -6.542  1.00 23.31 LIG 0.16  HD
ATOM     19  C   ALA P   2      35.745  34.124  -6.579  1.00 24.65 LIG 0.26  C 
ATOM     20 O    ALA P   2      36.239  33.022  -6.281  1.00 25.69 LIG-0.27  OA
BRANCH 19 21
ATOM     21  CA  ALA P   2      36.653  35.301  -6.979  1.00 24.82 LIG 0.40  C 
ATOM     22  N   ALA P   2      38.062  35.017  -6.614  1.00 26.06 LIG 0.61  N 
ATOM     23  CB  ALA P   2      36.559  35.598  -8.488  1.00 25.99 LIG 0.06  C 
ENDBRANCH 19 21
ENDBRANCH 11 17
ENDBRANCH 8 11
ENDBRANCH 6 7
BRANCH 6 24
ATOM     24  CB  PHE P   4      35.557  29.699  -8.726  1.00 16.70 LIG 0.07  C 
BRANCH 24 25
ATOM     25  CG  PHE P   4      35.917  28.233  -8.588  1.00 15.87 LIG-0.06  A 
ATOM     26  CD2 PHE P   4      36.669  27.790  -7.506  1.00 14.31 LIG 0.01  A 
ATOM     27  CE2 PHE P   4      37.028  26.447  -7.387  1.00 14.76 LIG 0.00  A 
ATOM     28  CZ  PHE P   4      36.646  25.524  -8.370  1.00 16.46 LIG 0.00  A 
ATOM     29  CE1 PHE P   4      35.890  25.955  -9.454  1.00 16.70 LIG 0.00  A 
ATOM     30  CD1 PHE P   4      35.547  27.308  -9.556  1.00 16.73 LIG 0.01  A 
ENDBRANCH 24 25
ENDBRANCH 6 24
ENDBRANCH 3 6
ENDBRANCH 1 2
BRANCH 1 31
ATOM     31  C   ARG P   5      33.791  26.071  -6.358  1.00 16.50 LIG 0.24  C 
ATOM     32  N   HIS P   6      34.588  25.384  -5.544  1.00 17.02 LIG-0.35  N 
ATOM     33 H    HIS P   6      34.817  25.639  -4.755  1.00 17.02 LIG 0.16  HD
ATOM     34 O    ARG P   5      33.551  25.707  -7.516  1.00 15.68 LIG-0.27  OA
BRANCH 32 35
ATOM     35  CA  HIS P   6      35.150  24.092  -5.964  1.00 18.55 LIG 0.18  C 
BRANCH 35 36
ATOM     36  CB  HIS P   6      35.820  23.381  -4.796  1.00 17.94 LIG 0.10  C 
BRANCH 36 37
ATOM     37  CG  HIS P   6      37.117  22.717  -5.129  1.00 17.06 LIG 0.06  A 
ATOM     38 ND1  HIS P   6      38.333  23.219  -4.725  1.00 15.40 LIG-0.24  NA
ATOM     39  CE1 HIS P   6      39.303  22.458  -5.199  1.00 15.09 LIG 0.23  A 
ATOM     40 NE2  HIS P   6      38.759  21.473  -5.891  1.00 16.22 LIG-0.25  NA
ATOM     41  CD2 HIS P   6      37.389  21.620  -5.867  1.00 16.02 LIG 0.14  A 
ENDBRANCH 36 37
ENDBRANCH 35 36
BRANCH 35 42
ATOM     42  C   HIS P   6      33.991  23.231  -6.402  1.00 20.42 LIG 0.24  C 
ATOM     43 O    HIS P   6      32.924  23.312  -5.802  1.00 21.09 LIG-0.27  OA
ATOM     44  N   ASP P   7      34.161  22.395  -7.410  1.00 22.91 LIG-0.34  N 
ATOM     45 H    ASP P   7      34.896  22.256  -7.834  1.00 22.91 LIG 0.16  HD
BRANCH 44 46
ATOM     46  CA  ASP P   7      32.986  21.620  -7.863  1.00 24.36 LIG 0.19  C 
BRANCH 46 47
ATOM     47  C   ASP P   7      32.831  20.274  -7.166  1.00 26.16 LIG 0.24  C 
ATOM     48  N   SER P   8      33.888  19.836  -6.477  1.00 27.90 LIG-0.34  N 
ATOM     49 H    SER P   8      34.654  20.226  -6.463  1.00 27.90 LIG 0.16  HD
ATOM     50 O    ASP P   7      31.792  19.629  -7.248  1.00 26.07 LIG-0.27  OA
BRANCH 48 51
ATOM     51  CA  SER P   8      33.805  18.615  -5.670  1.00 28.60 LIG 0.21  C 
BRANCH 51 52
ATOM     52  CB  SER P   8      35.207  18.075  -5.394  1.00 29.65 LIG 0.20  C 
BRANCH 52 53
ATOM     53 OG   SER P   8      35.881  18.891  -4.451  1.00 30.91 LIG-0.40  OA
ATOM     54 HG   SER P   8      35.460  19.611  -4.351  1.00 30.91 LIG 0.21  HD
ENDBRANCH 52 53
ENDBRANCH 51 52
BRANCH 51 55
ATOM     55  C   SER P   8      32.996  18.821  -4.350  1.00 29.85 LIG 0.20  C 
ATOM     56 OXT  SER P   8      32.697  19.948  -3.935  1.00 30.94 LIG-0.65  OA
ATOM     57 O    SER P   8      32.630  17.901  -3.601  1.00 30.51 LIG-0.65  OA
ENDBRANCH 51 55
ENDBRANCH 48 51
ENDBRANCH 46 47
BRANCH 46 58
ATOM     58  CB  ASP P   7      32.989  21.469  -9.369  1.00 24.61 LIG 0.15  C 
BRANCH 58 59
ATOM     59  CG  ASP P   7      34.327  21.828  -9.961  1.00 26.42 LIG 0.17  C 
ATOM     60 OD2  ASP P   7      35.310  21.134  -9.673  1.00 29.83 LIG-0.65  OA
ATOM     61 OD1  ASP P   7      34.382  22.806 -10.747  1.00 30.09 LIG-0.65  OA
ENDBRANCH 58 59
ENDBRANCH 46 58
ENDBRANCH 44 46
ENDBRANCH 35 42
ENDBRANCH 32 35
ENDBRANCH 1 31
BRANCH 1 62
ATOM     62  CB  ARG P   5      31.645  27.281  -5.944  1.00 16.24 LIG 0.04  C 
BRANCH 62 63
ATOM     63  CG  ARG P   5      30.902  28.554  -5.592  1.00 15.73 LIG 0.02  C 
BRANCH 63 64
ATOM     64  CD  ARG P   5      31.576  29.238  -4.434  1.00 15.69 LIG 0.14  C 
BRANCH 64 65
ATOM     65  NE  ARG P   5      31.153  28.745  -3.116  1.00 15.25 LIG-0.23  N 
ATOM     66 HE   ARG P   5      31.701  28.264  -2.660  1.00 15.25 LIG 0.18  HD
ATOM     67  CZ  ARG P   5      29.953  29.015  -2.598  1.00 16.06 LIG 0.67  C 
ATOM     68  NH2 ARG P   5      29.601  28.532  -1.405  1.00 16.00 LIG-0.23  N 
ATOM     69  NH1 ARG P   5      29.086  29.742  -3.289  1.00 17.19 LIG-0.23  N 
ATOM     70 1HH2 ARG P   5      30.151  28.042  -0.961  1.00 16.00 LIG 0.17  HD
ATOM     71 2HH2 ARG P   5      28.826  28.712  -1.080  1.00 16.00 LIG 0.17  HD
ATOM     72 1HH1 ARG P   5      29.297  30.038  -4.069  1.00 17.19 LIG 0.17  HD
ATOM     73 2HH1 ARG P   5      28.311  29.918  -2.958  1.00 17.19 LIG 0.17  HD
ENDBRANCH 64 65
ENDBRANCH 63 64
ENDBRANCH 62 63
ENDBRANCH 1 62
TORSDOF 28
ENDMDL
MODEL 6
USER: ADFR SOLUTION from run 150
USER: SCORE 19.199964 LL:  -5.776 LR: -17.477 RR:   0.000 FEB:  -9.125
USER: RMSD 7.293142
USER: SEED 149
USER: STATUS no improvement in best in 6 clusters for 5 generations
USER: GENES 30
USER: genes 0 Translation |==|  0.55846 0.51861 0.52815
USER: genes 1 Rotation |==|  0.22235 0.89802 0.61971 0.51269
USER: genes 2 Torsion [CB]-CA--N-[C] |==|  0.24701
USER: genes 3 Torsion [N]-C--CA-[N] |==|  0.96446
USER: genes 4 Torsion [C]-CA--N-[C] |==|  0.80839
USER: genes 5 Torsion [N]-C--CA-[N] |==|  0.51494
USER: genes 6 Torsion [C]-CA--CB-[CG] |==|  0.22823
USER: genes 7 Torsion [CA]-CB--CG-[CD] |==|  0.67522
USER: genes 8 Torsion [CB]-CG--CD-[OE1] |==|  0.85961
USER: genes 9 Torsion [C]-CA--N-[C] |==|  0.80149
USER: genes 10 Torsion [N]-C--CA-[N] |==|  0.62907
USER: genes 11 Torsion [C]-CA--CB-[CG] |==|  0.26804
USER: genes 12 Torsion [CA]-CB--CG-[CD2] |==|  0.76712
USER: genes 13 Torsion [N]-CA--C-[N] |==|  0.41316
USER: genes 14 Torsion [C]-N--CA-[CB] |==|  0.23739
USER: genes 15 Torsion [N]-CA--CB-[CG] |==|  0.35014
USER: genes 16 Torsion [CA]-CB--CG-[CD2] |==|  0.71244
USER: genes 17 Torsion [N]-CA--C-[N] |==|  0.90315
USER: genes 18 Torsion [C]-N--CA-[CB] |==|  0.38902
USER: genes 19 Torsion [N]-CA--C-[N] |==|  0.68557
USER: genes 20 Torsion [C]-N--CA-[CB] |==|  0.26685
USER: genes 21 Torsion [N]-CA--CB-[OG] |==|  0.42859
USER: genes 22 Torsion [CA]-CB--OG-[HG] |==|  0.89538
USER: genes 23 Torsion [N]-CA--C-[OXT] |==|  0.16360
USER: genes 24 Torsion [N]-CA--CB-[CG] |==|  0.59322
USER: genes 25 Torsion [CA]-CB--CG-[OD2] |==|  0.10358
USER: genes 26 Torsion [N]-CA--CB-[CG] |==|  0.59804
USER: genes 27 Torsion [CA]-CB--CG-[CD] |==|  0.31704
USER: genes 28 Torsion [CB]-CG--CD-[NE] |==|  0.77119
USER: genes 29 Torsion [CG]-CD--NE-[HE] |==|  0.87605
ROOT
ATOM      1  CA  ARG P   5      33.045  29.462  -6.052  1.00 16.30 LIG 0.18  C 
ENDROOT
BRANCH 1 2
ATOM      2  N   ARG P   5      32.871  30.917  -5.949  1.00 16.36 LIG-0.35  N 
ATOM      3  C   PHE P   4      32.626  31.494  -4.786  1.00 16.61 LIG 0.24  C 
ATOM      4 O    PHE P   4      32.621  30.882  -3.716  1.00 17.57 LIG-0.27  OA
ATOM      5 H    ARG P   5      32.943  31.341  -6.694  1.00 16.36 LIG 0.16  HD
BRANCH 3 6
ATOM      6  CA  PHE P   4      32.348  32.996  -4.827  1.00 17.34 LIG 0.18  C 
BRANCH 6 7
ATOM      7  N   PHE P   4      32.726  33.472  -6.145  1.00 18.03 LIG-0.35  N 
ATOM      8  C   GLU P   3      34.002  33.514  -6.532  1.00 20.04 LIG 0.24  C 
ATOM      9 O    GLU P   3      34.935  33.335  -5.764  1.00 20.03 LIG-0.27  OA
ATOM     10 H    PHE P   4      32.065  33.716  -6.638  1.00 18.03 LIG 0.16  HD
BRANCH 8 11
ATOM     11  CA  GLU P   3      34.261  33.833  -8.005  1.00 21.92 LIG 0.18  C 
BRANCH 11 12
ATOM     12  CB  GLU P   3      33.453  32.888  -8.896  1.00 22.70 LIG 0.04  C 
BRANCH 12 13
ATOM     13  CG  GLU P   3      32.016  33.343  -9.068  1.00 23.46 LIG 0.12  C 
BRANCH 13 14
ATOM     14  CD  GLU P   3      30.989  32.382  -8.513  1.00 23.38 LIG 0.17  C 
ATOM     15 OE1  GLU P   3      31.082  31.181  -8.859  1.00 24.20 LIG-0.65  OA
ATOM     16 OE2  GLU P   3      30.091  32.822  -7.764  1.00 25.77 LIG-0.65  OA
ENDBRANCH 13 14
ENDBRANCH 12 13
ENDBRANCH 11 12
BRANCH 11 17
ATOM     17  N   GLU P   3      35.698  33.708  -8.266  1.00 23.31 LIG-0.35  N 
ATOM     18 H    GLU P   3      35.921  33.024  -8.738  1.00 23.31 LIG 0.16  HD
ATOM     19  C   ALA P   2      36.559  34.600  -7.792  1.00 24.65 LIG 0.26  C 
ATOM     20 O    ALA P   2      36.192  35.697  -7.336  1.00 25.69 LIG-0.27  OA
BRANCH 19 21
ATOM     21  CA  ALA P   2      38.057  34.260  -7.887  1.00 24.82 LIG 0.40  C 
ATOM     22  N   ALA P   2      38.736  34.540  -6.598  1.00 26.06 LIG 0.61  N 
ATOM     23  CB  ALA P   2      38.278  32.786  -8.278  1.00 25.99 LIG 0.06  C 
ENDBRANCH 19 21
ENDBRANCH 11 17
ENDBRANCH 8 11
ENDBRANCH 6 7
BRANCH 6 24
ATOM     24  CB  PHE P   4      30.857  33.279  -4.541  1.00 16.70 LIG 0.07  C 
BRANCH 24 25
ATOM     25  CG  PHE P   4      30.561  33.634  -3.097  1.00 15.87 LIG-0.06  A 
ATOM     26  CD2 PHE P   4      30.377  32.634  -2.149  1.00 14.31 LIG 0.01  A 
ATOM     27  CE2 PHE P   4      30.075  32.952  -0.824  1.00 14.76 LIG 0.00  A 
ATOM     28  CZ  PHE P   4      29.940  34.290  -0.433  1.00 16.46 LIG 0.00  A 
ATOM     29  CE1 PHE P   4      30.127  35.299  -1.372  1.00 16.70 LIG 0.00  A 
ATOM     30  CD1 PHE P   4      30.421  34.956  -2.696  1.00 16.73 LIG 0.01  A 
ENDBRANCH 24 25
ENDBRANCH 6 24
ENDBRANCH 3 6
ENDBRANCH 1 2
BRANCH 1 31
ATOM     31  C   ARG P   5      34.011  29.074  -7.184  1.00 16.50 LIG 0.24  C 
ATOM     32  N   HIS P   6      34.731  27.970  -7.003  1.00 17.02 LIG-0.35  N 
ATOM     33 H    HIS P   6      34.737  27.505  -6.280  1.00 17.02 LIG 0.16  HD
ATOM     34 O    ARG P   5      34.090  29.759  -8.211  1.00 15.68 LIG-0.27  OA
BRANCH 32 35
ATOM     35  CA  HIS P   6      35.595  27.459  -8.077  1.00 18.55 LIG 0.18  C 
BRANCH 35 36
ATOM     36  CB  HIS P   6      36.959  28.135  -8.049  1.00 17.94 LIG 0.10  C 
BRANCH 36 37
ATOM     37  CG  HIS P   6      38.121  27.198  -7.995  1.00 17.06 LIG 0.06  A 
ATOM     38 ND1  HIS P   6      38.528  26.456  -9.080  1.00 15.40 LIG-0.24  NA
ATOM     39  CE1 HIS P   6      39.543  25.686  -8.733  1.00 15.09 LIG 0.23  A 
ATOM     40 NE2  HIS P   6      39.815  25.906  -7.459  1.00 16.22 LIG-0.25  NA
ATOM     41  CD2 HIS P   6      38.931  26.845  -6.973  1.00 16.02 LIG 0.14  A 
ENDBRANCH 36 37
ENDBRANCH 35 36
BRANCH 35 42
ATOM     42  C   HIS P   6      35.820  25.993  -7.800  1.00 20.42 LIG 0.24  C 
ATOM     43 O    HIS P   6      35.898  25.210  -8.741  1.00 21.09 LIG-0.27  OA
ATOM     44  N   ASP P   7      35.911  25.586  -6.547  1.00 22.91 LIG-0.34  N 
ATOM     45 H    ASP P   7      35.813  26.076  -5.847  1.00 22.91 LIG 0.16  HD
BRANCH 44 46
ATOM     46  CA  ASP P   7      36.206  24.156  -6.310  1.00 24.36 LIG 0.19  C 
BRANCH 46 47
ATOM     47  C   ASP P   7      34.964  23.294  -6.127  1.00 26.16 LIG 0.24  C 
ATOM     48  N   SER P   8      34.781  22.763  -4.916  1.00 27.90 LIG-0.34  N 
ATOM     49 H    SER P   8      35.346  22.820  -4.270  1.00 27.90 LIG 0.16  HD
ATOM     50 O    ASP P   7      34.185  23.094  -7.052  1.00 26.07 LIG-0.27  OA
BRANCH 48 51
ATOM     51  CA  SER P   8      33.558  22.020  -4.598  1.00 28.60 LIG 0.21  C 
BRANCH 51 52
ATOM     52  CB  SER P   8      33.795  20.521  -4.780  1.00 29.65 LIG 0.20  C 
BRANCH 52 53
ATOM     53 OG   SER P   8      32.912  19.772  -3.963  1.00 30.91 LIG-0.40  OA
ATOM     54 HG   SER P   8      32.811  20.163  -3.226  1.00 30.91 LIG 0.21  HD
ENDBRANCH 52 53
ENDBRANCH 51 52
BRANCH 51 55
ATOM     55  C   SER P   8      33.009  22.348  -3.173  1.00 29.85 LIG 0.20  C 
ATOM     56 OXT  SER P   8      32.694  23.499  -2.842  1.00 30.94 LIG-0.65  OA
ATOM     57 O    SER P   8      32.883  21.515  -2.261  1.00 30.51 LIG-0.65  OA
ENDBRANCH 51 55
ENDBRANCH 48 51
ENDBRANCH 46 47
BRANCH 46 58
ATOM     58  CB  ASP P   7      37.173  23.990  -5.158  1.00 24.61 LIG 0.15  C 
BRANCH 58 59
ATOM     59  CG  ASP P   7      38.089  22.812  -5.367  1.00 26.42 LIG 0.17  C 
ATOM     60 OD2  ASP P   7      38.497  22.571  -6.510  1.00 29.83 LIG-0.65  OA
ATOM     61 OD1  ASP P   7      38.423  22.137  -4.361  1.00 30.09 LIG-0.65  OA
ENDBRANCH 58 59
ENDBRANCH 46 58
ENDBRANCH 44 46
ENDBRANCH 35 42
ENDBRANCH 32 35
ENDBRANCH 1 31
BRANCH 1 62
ATOM     62  CB  ARG P   5      31.697  28.799  -6.282  1.00 16.24 LIG 0.04  C 
BRANCH 62 63
ATOM     63  CG  ARG P   5      31.520  27.447  -5.619  1.00 15.73 LIG 0.02  C 
BRANCH 63 64
ATOM     64  CD  ARG P   5      30.461  27.533  -4.555  1.00 15.69 LIG 0.14  C 
BRANCH 64 65
ATOM     65  NE  ARG P   5      30.940  28.059  -3.269  1.00 15.25 LIG-0.23  N 
ATOM     66 HE   ARG P   5      31.686  27.767  -2.957  1.00 15.25 LIG 0.18  HD
ATOM     67  CZ  ARG P   5      30.264  28.971  -2.568  1.00 16.06 LIG 0.67  C 
ATOM     68  NH2 ARG P   5      30.725  29.409  -1.396  1.00 16.00 LIG-0.23  N 
ATOM     69  NH1 ARG P   5      29.104  29.425  -3.024  1.00 17.19 LIG-0.23  N 
ATOM     70 1HH2 ARG P   5      31.466  29.103  -1.084  1.00 16.00 LIG 0.17  HD
ATOM     71 2HH2 ARG P   5      30.283  29.997  -0.951  1.00 16.00 LIG 0.17  HD
ATOM     72 1HH1 ARG P   5      28.790  29.131  -3.768  1.00 17.19 LIG 0.17  HD
ATOM     73 2HH1 ARG P   5      28.666  30.013  -2.574  1.00 17.19 LIG 0.17  HD
ENDBRANCH 64 65
ENDBRANCH 63 64
ENDBRANCH 62 63
ENDBRANCH 1 62
TORSDOF 28
ENDMDL
MODEL 7
USER: ADFR SOLUTION from run 36
USER: SCORE 20.449840 LL:  -5.092 LR: -17.298 RR:   0.000 FEB:  -8.946
USER: RMSD 8.245940
USER: SEED 35
USER: STATUS 1 or 2 clusters left
USER: GENES 30
USER: genes 0 Translation |==|  0.56148 0.41073 0.58743
USER: genes 1 Rotation |==|  0.34377 0.95215 0.35564 0.51781
USER: genes 2 Torsion [CB]-CA--N-[C] |==|  0.84887
USER: genes 3 Torsion [N]-C--CA-[N] |==|  0.92778
USER: genes 4 Torsion [C]-CA--N-[C] |==|  0.78466
USER: genes 5 Torsion [N]-C--CA-[N] |==|  0.25849
USER: genes 6 Torsion [C]-CA--CB-[CG] |==|  0.54798
USER: genes 7 Torsion [CA]-CB--CG-[CD] |==|  0.57327
USER: genes 8 Torsion [CB]-CG--CD-[OE1] |==|  0.01265
USER: genes 9 Torsion [C]-CA--N-[C] |==|  0.61722
USER: genes 10 Torsion [N]-C--CA-[N] |==|  0.39978
USER: genes 11 Torsion [C]-CA--CB-[CG] |==|  0.54388
USER: genes 12 Torsion [CA]-CB--CG-[CD2] |==|  0.94042
USER: genes 13 Torsion [N]-CA--C-[N] |==|  0.46605
USER: genes 14 Torsion [C]-N--CA-[CB] |==|  0.55303
USER: genes 15 Torsion [N]-CA--CB-[CG] |==|  0.73199
USER: genes 16 Torsion [CA]-CB--CG-[CD2] |==|  0.91167
USER: genes 17 Torsion [N]-CA--C-[N] |==|  0.34113
USER: genes 18 Torsion [C]-N--CA-[CB] |==|  0.79790
USER: genes 19 Torsion [N]-CA--C-[N] |==|  0.25832
USER: genes 20 Torsion [C]-N--CA-[CB] |==|  0.49508
USER: genes 21 Torsion [N]-CA--CB-[OG] |==|  0.95103
USER: genes 22 Torsion [CA]-CB--OG-[HG] |==|  0.36189
USER: genes 23 Torsion [N]-CA--C-[OXT] |==|  0.80470
USER: genes 24 Torsion [N]-CA--CB-[CG] |==|  0.92667
USER: genes 25 Torsion [CA]-CB--CG-[OD2] |==|  0.79128
USER: genes 26 Torsion [N]-CA--CB-[CG] |==|  0.85232
USER: genes 27 Torsion [CA]-CB--CG-[CD] |==|  0.91659
USER: genes 28 Torsion [CB]-CG--CD-[NE] |==|  0.67351
USER: genes 29 Torsion [CG]-CD--NE-[HE] |==|  0.73877
ROOT
ATOM      1  CA  ARG P   5      33.115  26.873  -4.896  1.00 16.30 LIG 0.18  C 
ENDROOT
BRANCH 1 2
ATOM      2  N   ARG P   5      33.921  27.695  -5.809  1.00 16.36 LIG-0.35  N 
ATOM      3  C   PHE P   4      34.069  27.360  -7.078  1.00 16.61 LIG 0.24  C 
ATOM      4 O    PHE P   4      33.480  26.411  -7.599  1.00 17.57 LIG-0.27  OA
ATOM      5 H    ARG P   5      34.274  28.392  -5.448  1.00 16.36 LIG 0.16  HD
BRANCH 3 6
ATOM      6  CA  PHE P   4      35.025  28.229  -7.895  1.00 17.34 LIG 0.18  C 
BRANCH 6 7
ATOM      7  N   PHE P   4      35.062  29.538  -7.271  1.00 18.03 LIG-0.35  N 
ATOM      8  C   GLU P   3      34.074  30.420  -7.440  1.00 20.04 LIG 0.24  C 
ATOM      9 O    GLU P   3      33.180  30.266  -8.257  1.00 20.03 LIG-0.27  OA
ATOM     10 H    PHE P   4      35.762  29.686  -6.794  1.00 18.03 LIG 0.16  HD
BRANCH 8 11
ATOM     11  CA  GLU P   3      34.124  31.677  -6.571  1.00 21.92 LIG 0.18  C 
BRANCH 11 12
ATOM     12  CB  GLU P   3      32.706  32.111  -6.194  1.00 22.70 LIG 0.04  C 
BRANCH 12 13
ATOM     13  CG  GLU P   3      32.651  33.546  -5.704  1.00 23.46 LIG 0.12  C 
BRANCH 13 14
ATOM     14  CD  GLU P   3      31.503  33.838  -4.765  1.00 23.38 LIG 0.17  C 
ATOM     15 OE1  GLU P   3      30.781  32.872  -4.422  1.00 24.20 LIG-0.65  OA
ATOM     16 OE2  GLU P   3      31.311  35.015  -4.392  1.00 25.77 LIG-0.65  OA
ENDBRANCH 13 14
ENDBRANCH 12 13
ENDBRANCH 11 12
BRANCH 11 17
ATOM     17  N   GLU P   3      34.821  32.732  -7.313  1.00 23.31 LIG-0.35  N 
ATOM     18 H    GLU P   3      34.608  32.788  -8.145  1.00 23.31 LIG 0.16  HD
ATOM     19  C   ALA P   2      35.705  33.520  -6.714  1.00 24.65 LIG 0.26  C 
ATOM     20 O    ALA P   2      35.803  33.583  -5.476  1.00 25.69 LIG-0.27  OA
BRANCH 19 21
ATOM     21  CA  ALA P   2      36.575  34.420  -7.610  1.00 24.82 LIG 0.40  C 
ATOM     22  N   ALA P   2      36.820  35.727  -6.952  1.00 26.06 LIG 0.61  N 
ATOM     23  CB  ALA P   2      37.921  33.749  -7.947  1.00 25.99 LIG 0.06  C 
ENDBRANCH 19 21
ENDBRANCH 11 17
ENDBRANCH 8 11
ENDBRANCH 6 7
BRANCH 6 24
ATOM     24  CB  PHE P   4      36.432  27.594  -7.938  1.00 16.70 LIG 0.07  C 
BRANCH 24 25
ATOM     25  CG  PHE P   4      37.525  28.542  -8.390  1.00 15.87 LIG-0.06  A 
ATOM     26  CD2 PHE P   4      37.213  29.677  -9.130  1.00 14.31 LIG 0.01  A 
ATOM     27  CE2 PHE P   4      38.216  30.539  -9.574  1.00 14.76 LIG 0.00  A 
ATOM     28  CZ  PHE P   4      39.560  30.263  -9.290  1.00 16.46 LIG 0.00  A 
ATOM     29  CE1 PHE P   4      39.884  29.134  -8.546  1.00 16.70 LIG 0.00  A 
ATOM     30  CD1 PHE P   4      38.861  28.280  -8.118  1.00 16.73 LIG 0.01  A 
ENDBRANCH 24 25
ENDBRANCH 6 24
ENDBRANCH 3 6
ENDBRANCH 1 2
BRANCH 1 31
ATOM     31  C   ARG P   5      33.760  25.502  -4.632  1.00 16.50 LIG 0.24  C 
ATOM     32  N   HIS P   6      33.250  24.783  -3.636  1.00 17.02 LIG-0.35  N 
ATOM     33 H    HIS P   6      32.638  25.060  -3.099  1.00 17.02 LIG 0.16  HD
ATOM     34 O    ARG P   5      34.697  25.097  -5.332  1.00 15.68 LIG-0.27  OA
BRANCH 32 35
ATOM     35  CA  HIS P   6      33.726  23.415  -3.383  1.00 18.55 LIG 0.18  C 
BRANCH 35 36
ATOM     36  CB  HIS P   6      32.723  22.635  -2.544  1.00 17.94 LIG 0.10  C 
BRANCH 36 37
ATOM     37  CG  HIS P   6      33.016  22.613  -1.079  1.00 17.06 LIG 0.06  A 
ATOM     38 ND1  HIS P   6      32.026  22.616  -0.123  1.00 15.40 LIG-0.24  NA
ATOM     39  CE1 HIS P   6      32.574  22.641   1.079  1.00 15.09 LIG 0.23  A 
ATOM     40 NE2  HIS P   6      33.887  22.647   0.938  1.00 16.22 LIG-0.25  NA
ATOM     41  CD2 HIS P   6      34.188  22.637  -0.407  1.00 16.02 LIG 0.14  A 
ENDBRANCH 36 37
ENDBRANCH 35 36
BRANCH 35 42
ATOM     42  C   HIS P   6      33.816  22.727  -4.722  1.00 20.42 LIG 0.24  C 
ATOM     43 O    HIS P   6      32.811  22.642  -5.421  1.00 21.09 LIG-0.27  OA
ATOM     44  N   ASP P   7      34.972  22.215  -5.101  1.00 22.91 LIG-0.34  N 
ATOM     45 H    ASP P   7      35.695  22.197  -4.636  1.00 22.91 LIG 0.16  HD
BRANCH 44 46
ATOM     46  CA  ASP P   7      35.047  21.613  -6.450  1.00 24.36 LIG 0.19  C 
BRANCH 46 47
ATOM     47  C   ASP P   7      34.589  22.544  -7.565  1.00 26.16 LIG 0.24  C 
ATOM     48  N   SER P   8      35.538  23.269  -8.162  1.00 27.90 LIG-0.34  N 
ATOM     49 H    SER P   8      36.361  23.292  -7.913  1.00 27.90 LIG 0.16  HD
ATOM     50 O    ASP P   7      33.408  22.626  -7.882  1.00 26.07 LIG-0.27  OA
BRANCH 48 51
ATOM     51  CA  SER P   8      35.225  24.104  -9.326  1.00 28.60 LIG 0.21  C 
BRANCH 51 52
ATOM     52  CB  SER P   8      36.476  24.854  -9.781  1.00 29.65 LIG 0.20  C 
BRANCH 52 53
ATOM     53 OG   SER P   8      37.454  24.865  -8.755  1.00 30.91 LIG-0.40  OA
ATOM     54 HG   SER P   8      38.193  24.619  -9.070  1.00 30.91 LIG 0.21  HD
ENDBRANCH 52 53
ENDBRANCH 51 52
BRANCH 51 55
ATOM     55  C   SER P   8      34.584  23.290 -10.495  1.00 29.85 LIG 0.20  C 
ATOM     56 OXT  SER P   8      35.236  22.475 -11.160  1.00 30.94 LIG-0.65  OA
ATOM     57 O    SER P   8      33.409  23.417 -10.875  1.00 30.51 LIG-0.65  OA
ENDBRANCH 51 55
ENDBRANCH 48 51
ENDBRANCH 46 47
BRANCH 46 58
ATOM     58  CB  ASP P   7      34.310  20.292  -6.491  1.00 24.61 LIG 0.15  C 
BRANCH 58 59
ATOM     59  CG  ASP P   7      34.262  19.639  -5.133  1.00 26.42 LIG 0.17  C 
ATOM     60 OD2  ASP P   7      35.286  19.100  -4.697  1.00 29.83 LIG-0.65  OA
ATOM     61 OD1  ASP P   7      33.186  19.695  -4.488  1.00 30.09 LIG-0.65  OA
ENDBRANCH 58 59
ENDBRANCH 46 58
ENDBRANCH 44 46
ENDBRANCH 35 42
ENDBRANCH 32 35
ENDBRANCH 1 31
BRANCH 1 62
ATOM     62  CB  ARG P   5      31.723  26.679  -5.474  1.00 16.24 LIG 0.04  C 
BRANCH 62 63
ATOM     63  CG  ARG P   5      31.000  27.955  -5.857  1.00 15.73 LIG 0.02  C 
BRANCH 63 64
ATOM     64  CD  ARG P   5      31.445  29.083  -4.968  1.00 15.69 LIG 0.14  C 
BRANCH 64 65
ATOM     65  NE  ARG P   5      30.373  29.659  -4.144  1.00 15.25 LIG-0.23  N 
ATOM     66 HE   ARG P   5      29.951  30.347  -4.438  1.00 15.25 LIG 0.18  HD
ATOM     67  CZ  ARG P   5      30.028  29.154  -2.957  1.00 16.06 LIG 0.67  C 
ATOM     68  NH2 ARG P   5      29.061  29.718  -2.232  1.00 16.00 LIG-0.23  N 
ATOM     69  NH1 ARG P   5      30.675  28.101  -2.476  1.00 17.19 LIG-0.23  N 
ATOM     70 1HH2 ARG P   5      28.652  30.414  -2.529  1.00 16.00 LIG 0.17  HD
ATOM     71 2HH2 ARG P   5      28.846  29.386  -1.469  1.00 16.00 LIG 0.17  HD
ATOM     72 1HH1 ARG P   5      31.315  27.746  -2.928  1.00 17.19 LIG 0.17  HD
ATOM     73 2HH1 ARG P   5      30.455  27.774  -1.711  1.00 17.19 LIG 0.17  HD
ENDBRANCH 64 65
ENDBRANCH 63 64
ENDBRANCH 62 63
ENDBRANCH 1 62
TORSDOF 28
ENDMDL
MODEL 8
USER: ADFR SOLUTION from run 82
USER: SCORE 20.299069 LL:  -5.935 LR: -17.189 RR:   0.000 FEB:  -8.837
USER: RMSD 7.766128
USER: SEED 81
USER: STATUS no improvement in best in 4 clusters for 5 generations
USER: GENES 30
USER: genes 0 Translation |==|  0.54333 0.49118 0.55151
USER: genes 1 Rotation |==|  0.22019 0.89852 0.60433 0.54475
USER: genes 2 Torsion [CB]-CA--N-[C] |==|  0.26861
USER: genes 3 Torsion [N]-C--CA-[N] |==|  0.96865
USER: genes 4 Torsion [C]-CA--N-[C] |==|  0.76198
USER: genes 5 Torsion [N]-C--CA-[N] |==|  0.42270
USER: genes 6 Torsion [C]-CA--CB-[CG] |==|  0.51697
USER: genes 7 Torsion [CA]-CB--CG-[CD] |==|  0.29929
USER: genes 8 Torsion [CB]-CG--CD-[OE1] |==|  0.67281
USER: genes 9 Torsion [C]-CA--N-[C] |==|  0.20609
USER: genes 10 Torsion [N]-C--CA-[N] |==|  0.63238
USER: genes 11 Torsion [C]-CA--CB-[CG] |==|  0.30543
USER: genes 12 Torsion [CA]-CB--CG-[CD2] |==|  0.80233
USER: genes 13 Torsion [N]-CA--C-[N] |==|  0.42437
USER: genes 14 Torsion [C]-N--CA-[CB] |==|  0.21328
USER: genes 15 Torsion [N]-CA--CB-[CG] |==|  0.42736
USER: genes 16 Torsion [CA]-CB--CG-[CD2] |==|  0.66255
USER: genes 17 Torsion [N]-CA--C-[N] |==|  0.90528
USER: genes 18 Torsion [C]-N--CA-[CB] |==|  0.83918
USER: genes 19 Torsion [N]-CA--C-[N] |==|  0.37818
USER: genes 20 Torsion [C]-N--CA-[CB] |==|  0.24844
USER: genes 21 Torsion [N]-CA--CB-[OG] |==|  0.18277
USER: genes 22 Torsion [CA]-CB--OG-[HG] |==|  0.09057
USER: genes 23 Torsion [N]-CA--C-[OXT] |==|  0.79450
USER: genes 24 Torsion [N]-CA--CB-[CG] |==|  0.71465
USER: genes 25 Torsion [CA]-CB--CG-[OD2] |==|  0.61355
USER: genes 26 Torsion [N]-CA--CB-[CG] |==|  0.92946
USER: genes 27 Torsion [CA]-CB--CG-[CD] |==|  0.66926
USER: genes 28 Torsion [CB]-CG--CD-[NE] |==|  0.35158
USER: genes 29 Torsion [CG]-CD--NE-[HE] |==|  0.26785
ROOT
ATOM      1  CA  ARG P   5      32.693  28.803  -5.597  1.00 16.30 LIG 0.18  C 
ENDROOT
BRANCH 1 2
ATOM      2  N   ARG P   5      32.543  30.261  -5.485  1.00 16.36 LIG-0.35  N 
ATOM      3  C   PHE P   4      32.303  30.834  -4.319  1.00 16.61 LIG 0.24  C 
ATOM      4 O    PHE P   4      32.283  30.215  -3.253  1.00 17.57 LIG-0.27  OA
ATOM      5 H    ARG P   5      32.625  30.688  -6.227  1.00 16.36 LIG 0.16  HD
BRANCH 3 6
ATOM      6  CA  PHE P   4      32.050  32.341  -4.351  1.00 17.34 LIG 0.18  C 
BRANCH 6 7
ATOM      7  N   PHE P   4      32.407  32.813  -5.676  1.00 18.03 LIG-0.35  N 
ATOM      8  C   GLU P   3      33.662  33.146  -5.983  1.00 20.04 LIG 0.24  C 
ATOM      9 O    GLU P   3      34.545  33.252  -5.146  1.00 20.03 LIG-0.27  OA
ATOM     10 H    PHE P   4      31.749  32.855  -6.228  1.00 18.03 LIG 0.16  HD
BRANCH 8 11
ATOM     11  CA  GLU P   3      33.954  33.427  -7.458  1.00 21.92 LIG 0.18  C 
BRANCH 11 12
ATOM     12  CB  GLU P   3      34.274  32.121  -8.188  1.00 22.70 LIG 0.04  C 
BRANCH 12 13
ATOM     13  CG  GLU P   3      34.716  32.354  -9.621  1.00 23.46 LIG 0.12  C 
BRANCH 13 14
ATOM     14  CD  GLU P   3      36.190  32.117  -9.862  1.00 23.38 LIG 0.17  C 
ATOM     15 OE1  GLU P   3      36.873  33.097 -10.243  1.00 24.20 LIG-0.65  OA
ATOM     16 OE2  GLU P   3      36.654  30.970  -9.695  1.00 25.77 LIG-0.65  OA
ENDBRANCH 13 14
ENDBRANCH 12 13
ENDBRANCH 11 12
BRANCH 11 17
ATOM     17  N   GLU P   3      35.075  34.369  -7.542  1.00 23.31 LIG-0.35  N 
ATOM     18 H    GLU P   3      34.855  35.172  -7.761  1.00 23.31 LIG 0.16  HD
ATOM     19  C   ALA P   2      36.318  33.977  -7.292  1.00 24.65 LIG 0.26  C 
ATOM     20 O    ALA P   2      36.571  32.893  -6.739  1.00 25.69 LIG-0.27  OA
BRANCH 19 21
ATOM     21  CA  ALA P   2      37.454  34.952  -7.652  1.00 24.82 LIG 0.40  C 
ATOM     22  N   ALA P   2      38.525  34.247  -8.399  1.00 26.06 LIG 0.61  N 
ATOM     23  CB  ALA P   2      36.936  36.140  -8.485  1.00 25.99 LIG 0.06  C 
ENDBRANCH 19 21
ENDBRANCH 11 17
ENDBRANCH 8 11
ENDBRANCH 6 7
BRANCH 6 24
ATOM     24  CB  PHE P   4      30.571  32.649  -4.031  1.00 16.70 LIG 0.07  C 
BRANCH 24 25
ATOM     25  CG  PHE P   4      30.354  33.310  -2.685  1.00 15.87 LIG-0.06  A 
ATOM     26  CD2 PHE P   4      30.526  32.589  -1.509  1.00 14.31 LIG 0.01  A 
ATOM     27  CE2 PHE P   4      30.300  33.181  -0.266  1.00 14.76 LIG 0.00  A 
ATOM     28  CZ  PHE P   4      29.881  34.516  -0.187  1.00 16.46 LIG 0.00  A 
ATOM     29  CE1 PHE P   4      29.710  35.249  -1.357  1.00 16.70 LIG 0.00  A 
ATOM     30  CD1 PHE P   4      29.935  34.630  -2.592  1.00 16.73 LIG 0.01  A 
ENDBRANCH 24 25
ENDBRANCH 6 24
ENDBRANCH 3 6
ENDBRANCH 1 2
BRANCH 1 31
ATOM     31  C   ARG P   5      33.796  28.411  -6.593  1.00 16.50 LIG 0.24  C 
ATOM     32  N   HIS P   6      34.400  27.244  -6.388  1.00 17.02 LIG-0.35  N 
ATOM     33 H    HIS P   6      34.260  26.735  -5.709  1.00 17.02 LIG 0.16  HD
ATOM     34 O    ARG P   5      34.084  29.150  -7.543  1.00 15.68 LIG-0.27  OA
BRANCH 32 35
ATOM     35  CA  HIS P   6      35.385  26.733  -7.352  1.00 18.55 LIG 0.18  C 
BRANCH 35 36
ATOM     36  CB  HIS P   6      36.719  27.453  -7.203  1.00 17.94 LIG 0.10  C 
BRANCH 36 37
ATOM     37  CG  HIS P   6      37.908  26.663  -7.645  1.00 17.06 LIG 0.06  A 
ATOM     38 ND1  HIS P   6      38.016  26.128  -8.909  1.00 15.40 LIG-0.24  NA
ATOM     39  CE1 HIS P   6      39.143  25.447  -9.005  1.00 15.09 LIG 0.23  A 
ATOM     40 NE2  HIS P   6      39.776  25.525  -7.848  1.00 16.22 LIG-0.25  NA
ATOM     41  CD2 HIS P   6      39.017  26.277  -6.978  1.00 16.02 LIG 0.14  A 
ENDBRANCH 36 37
ENDBRANCH 35 36
BRANCH 35 42
ATOM     42  C   HIS P   6      35.622  25.283  -7.012  1.00 20.42 LIG 0.24  C 
ATOM     43 O    HIS P   6      35.833  24.482  -7.918  1.00 21.09 LIG-0.27  OA
ATOM     44  N   ASP P   7      35.578  24.907  -5.747  1.00 22.91 LIG-0.34  N 
ATOM     45 H    ASP P   7      35.385  25.409  -5.077  1.00 22.91 LIG 0.16  HD
BRANCH 44 46
ATOM     46  CA  ASP P   7      35.888  23.493  -5.440  1.00 24.36 LIG 0.19  C 
BRANCH 46 47
ATOM     47  C   ASP P   7      37.347  23.121  -5.669  1.00 26.16 LIG 0.24  C 
ATOM     48  N   SER P   8      37.926  22.377  -4.724  1.00 27.90 LIG-0.34  N 
ATOM     49 H    SER P   8      37.554  22.160  -3.979  1.00 27.90 LIG 0.16  HD
ATOM     50 O    ASP P   7      37.953  23.499  -6.665  1.00 26.07 LIG-0.27  OA
BRANCH 48 51
ATOM     51  CA  SER P   8      39.287  21.860  -4.902  1.00 28.60 LIG 0.21  C 
BRANCH 51 52
ATOM     52  CB  SER P   8      40.302  22.870  -4.368  1.00 29.65 LIG 0.20  C 
BRANCH 52 53
ATOM     53 OG   SER P   8      40.174  23.013  -2.964  1.00 30.91 LIG-0.40  OA
ATOM     54 HG   SER P   8      39.934  22.281  -2.628  1.00 30.91 LIG 0.21  HD
ENDBRANCH 52 53
ENDBRANCH 51 52
BRANCH 51 55
ATOM     55  C   SER P   8      39.484  20.450  -4.261  1.00 29.85 LIG 0.20  C 
ATOM     56 OXT  SER P   8      39.568  20.294  -3.036  1.00 30.94 LIG-0.65  OA
ATOM     57 O    SER P   8      39.611  19.398  -4.907  1.00 30.51 LIG-0.65  OA
ENDBRANCH 51 55
ENDBRANCH 48 51
ENDBRANCH 46 47
BRANCH 46 58
ATOM     58  CB  ASP P   7      34.954  22.564  -6.184  1.00 24.61 LIG 0.15  C 
BRANCH 58 59
ATOM     59  CG  ASP P   7      33.879  22.016  -5.280  1.00 26.42 LIG 0.17  C 
ATOM     60 OD2  ASP P   7      33.561  20.825  -5.390  1.00 29.83 LIG-0.65  OA
ATOM     61 OD1  ASP P   7      33.369  22.789  -4.431  1.00 30.09 LIG-0.65  OA
ENDBRANCH 58 59
ENDBRANCH 46 58
ENDBRANCH 44 46
ENDBRANCH 35 42
ENDBRANCH 32 35
ENDBRANCH 1 31
BRANCH 1 62
ATOM     62  CB  ARG P   5      31.374  28.183  -6.025  1.00 16.24 LIG 0.04  C 
BRANCH 62 63
ATOM     63  CG  ARG P   5      30.138  28.985  -5.668  1.00 15.73 LIG 0.02  C 
BRANCH 63 64
ATOM     64  CD  ARG P   5      29.252  28.181  -4.756  1.00 15.69 LIG 0.14  C 
BRANCH 64 65
ATOM     65  NE  ARG P   5      28.886  28.870  -3.511  1.00 15.25 LIG-0.23  N 
ATOM     66 HE   ARG P   5      28.133  29.282  -3.474  1.00 15.25 LIG 0.18  HD
ATOM     67  CZ  ARG P   5      29.677  28.881  -2.437  1.00 16.06 LIG 0.67  C 
ATOM     68  NH2 ARG P   5      29.316  29.535  -1.331  1.00 16.00 LIG-0.23  N 
ATOM     69  NH1 ARG P   5      30.851  28.265  -2.476  1.00 17.19 LIG-0.23  N 
ATOM     70 1HH2 ARG P   5      28.566  29.955  -1.306  1.00 16.00 LIG 0.17  HD
ATOM     71 2HH2 ARG P   5      29.832  29.536  -0.644  1.00 16.00 LIG 0.17  HD
ATOM     72 1HH1 ARG P   5      31.100  27.860  -3.193  1.00 17.19 LIG 0.17  HD
ATOM     73 2HH1 ARG P   5      31.363  28.270  -1.785  1.00 17.19 LIG 0.17  HD
ENDBRANCH 64 65
ENDBRANCH 63 64
ENDBRANCH 62 63
ENDBRANCH 1 62
TORSDOF 28
ENDMDL
MODEL 9
USER: ADFR SOLUTION from run 165
USER: SCORE 19.245063 LL:  -5.840 LR: -17.153 RR:   0.000 FEB:  -8.801
USER: RMSD 7.932466
USER: SEED 164
USER: STATUS no improvement in best in 5 clusters for 5 generations
USER: GENES 30
USER: genes 0 Translation |==|  0.58581 0.46307 0.50788
USER: genes 1 Rotation |==|  0.75183 0.09682 0.54562 0.64814
USER: genes 2 Torsion [CB]-CA--N-[C] |==|  0.38749
USER: genes 3 Torsion [N]-C--CA-[N] |==|  0.36774
USER: genes 4 Torsion [C]-CA--N-[C] |==|  0.83368
USER: genes 5 Torsion [N]-C--CA-[N] |==|  0.94031
USER: genes 6 Torsion [C]-CA--CB-[CG] |==|  0.20707
USER: genes 7 Torsion [CA]-CB--CG-[CD] |==|  0.13082
USER: genes 8 Torsion [CB]-CG--CD-[OE1] |==|  0.63770
USER: genes 9 Torsion [C]-CA--N-[C] |==|  0.80191
USER: genes 10 Torsion [N]-C--CA-[N] |==|  0.05142
USER: genes 11 Torsion [C]-CA--CB-[CG] |==|  0.79578
USER: genes 12 Torsion [CA]-CB--CG-[CD2] |==|  0.22107
USER: genes 13 Torsion [N]-CA--C-[N] |==|  0.54546
USER: genes 14 Torsion [C]-N--CA-[CB] |==|  0.44278
USER: genes 15 Torsion [N]-CA--CB-[CG] |==|  0.12287
USER: genes 16 Torsion [CA]-CB--CG-[CD2] |==|  0.20610
USER: genes 17 Torsion [N]-CA--C-[N] |==|  0.61737
USER: genes 18 Torsion [C]-N--CA-[CB] |==|  0.20416
USER: genes 19 Torsion [N]-CA--C-[N] |==|  0.02223
USER: genes 20 Torsion [C]-N--CA-[CB] |==|  0.23297
USER: genes 21 Torsion [N]-CA--CB-[OG] |==|  0.76795
USER: genes 22 Torsion [CA]-CB--OG-[HG] |==|  0.06826
USER: genes 23 Torsion [N]-CA--C-[OXT] |==|  0.50598
USER: genes 24 Torsion [N]-CA--CB-[CG] |==|  0.11009
USER: genes 25 Torsion [CA]-CB--CG-[OD2] |==|  0.13070
USER: genes 26 Torsion [N]-CA--CB-[CG] |==|  0.86699
USER: genes 27 Torsion [CA]-CB--CG-[CD] |==|  0.78626
USER: genes 28 Torsion [CB]-CG--CD-[NE] |==|  0.73825
USER: genes 29 Torsion [CG]-CD--NE-[HE] |==|  0.29279
ROOT
ATOM      1  CA  ARG P   5      33.681  28.129  -6.447  1.00 16.30 LIG 0.18  C 
ENDROOT
BRANCH 1 2
ATOM      2  N   ARG P   5      33.357  29.099  -7.502  1.00 16.36 LIG-0.35  N 
ATOM      3  C   PHE P   4      34.058  30.210  -7.644  1.00 16.61 LIG 0.24  C 
ATOM      4 O    PHE P   4      35.067  30.463  -6.982  1.00 17.57 LIG-0.27  OA
ATOM      5 H    ARG P   5      32.691  28.881  -7.999  1.00 16.36 LIG 0.16  HD
BRANCH 3 6
ATOM      6  CA  PHE P   4      33.551  31.194  -8.698  1.00 17.34 LIG 0.18  C 
BRANCH 6 7
ATOM      7  N   PHE P   4      33.528  32.510  -8.087  1.00 18.03 LIG-0.35  N 
ATOM      8  C   GLU P   3      32.789  32.765  -7.006  1.00 20.04 LIG 0.24  C 
ATOM      9 O    GLU P   3      31.958  31.984  -6.571  1.00 20.03 LIG-0.27  OA
ATOM     10 H    PHE P   4      34.024  33.093  -8.480  1.00 18.03 LIG 0.16  HD
BRANCH 8 11
ATOM     11  CA  GLU P   3      33.007  34.122  -6.333  1.00 21.92 LIG 0.18  C 
BRANCH 11 12
ATOM     12  CB  GLU P   3      31.899  35.094  -6.742  1.00 22.70 LIG 0.04  C 
BRANCH 12 13
ATOM     13  CG  GLU P   3      30.582  34.791  -6.053  1.00 23.46 LIG 0.12  C 
BRANCH 13 14
ATOM     14  CD  GLU P   3      30.698  34.557  -4.564  1.00 23.38 LIG 0.17  C 
ATOM     15 OE1  GLU P   3      30.147  33.532  -4.099  1.00 24.20 LIG-0.65  OA
ATOM     16 OE2  GLU P   3      31.311  35.393  -3.867  1.00 25.77 LIG-0.65  OA
ENDBRANCH 13 14
ENDBRANCH 12 13
ENDBRANCH 11 12
BRANCH 11 17
ATOM     17  N   GLU P   3      34.328  34.629  -6.720  1.00 23.31 LIG-0.35  N 
ATOM     18 H    GLU P   3      34.312  35.297  -7.261  1.00 23.31 LIG 0.16  HD
ATOM     19  C   ALA P   2      35.438  34.073  -6.250  1.00 24.65 LIG 0.26  C 
ATOM     20 O    ALA P   2      35.428  33.287  -5.287  1.00 25.69 LIG-0.27  OA
BRANCH 19 21
ATOM     21  CA  ALA P   2      36.769  34.491  -6.900  1.00 24.82 LIG 0.40  C 
ATOM     22  N   ALA P   2      36.608  35.766  -7.641  1.00 26.06 LIG 0.61  N 
ATOM     23  CB  ALA P   2      37.888  34.640  -5.850  1.00 25.99 LIG 0.06  C 
ENDBRANCH 19 21
ENDBRANCH 11 17
ENDBRANCH 8 11
ENDBRANCH 6 7
BRANCH 6 24
ATOM     24  CB  PHE P   4      34.464  31.174  -9.943  1.00 16.70 LIG 0.07  C 
BRANCH 24 25
ATOM     25  CG  PHE P   4      35.804  31.851  -9.738  1.00 15.87 LIG-0.06  A 
ATOM     26  CD2 PHE P   4      36.836  31.190  -9.082  1.00 14.31 LIG 0.01  A 
ATOM     27  CE2 PHE P   4      38.063  31.817  -8.864  1.00 14.76 LIG 0.00  A 
ATOM     28  CZ  PHE P   4      38.268  33.135  -9.294  1.00 16.46 LIG 0.00  A 
ATOM     29  CE1 PHE P   4      37.244  33.805  -9.955  1.00 16.70 LIG 0.00  A 
ATOM     30  CD1 PHE P   4      36.020  33.158 -10.155  1.00 16.73 LIG 0.01  A 
ENDBRANCH 24 25
ENDBRANCH 6 24
ENDBRANCH 3 6
ENDBRANCH 1 2
BRANCH 1 31
ATOM     31  C   ARG P   5      34.526  26.959  -6.978  1.00 16.50 LIG 0.24  C 
ATOM     32  N   HIS P   6      34.592  25.873  -6.213  1.00 17.02 LIG-0.35  N 
ATOM     33 H    HIS P   6      34.252  25.810  -5.426  1.00 17.02 LIG 0.16  HD
ATOM     34 O    ARG P   5      35.098  27.037  -8.073  1.00 15.68 LIG-0.27  OA
BRANCH 32 35
ATOM     35  CA  HIS P   6      35.281  24.665  -6.689  1.00 18.55 LIG 0.18  C 
BRANCH 35 36
ATOM     36  CB  HIS P   6      35.674  23.765  -5.525  1.00 17.94 LIG 0.10  C 
BRANCH 36 37
ATOM     37  CG  HIS P   6      34.612  23.583  -4.490  1.00 17.06 LIG 0.06  A 
ATOM     38 ND1  HIS P   6      34.693  24.146  -3.236  1.00 15.40 LIG-0.24  NA
ATOM     39  CE1 HIS P   6      33.644  23.781  -2.521  1.00 15.09 LIG 0.23  A 
ATOM     40 NE2  HIS P   6      32.880  23.006  -3.269  1.00 16.22 LIG-0.25  NA
ATOM     41  CD2 HIS P   6      33.471  22.861  -4.505  1.00 16.02 LIG 0.14  A 
ENDBRANCH 36 37
ENDBRANCH 35 36
BRANCH 35 42
ATOM     42  C   HIS P   6      34.291  23.897  -7.530  1.00 20.42 LIG 0.24  C 
ATOM     43 O    HIS P   6      33.560  24.508  -8.303  1.00 21.09 LIG-0.27  OA
ATOM     44  N   ASP P   7      34.224  22.585  -7.399  1.00 22.91 LIG-0.34  N 
ATOM     45 H    ASP P   7      34.671  22.109  -6.841  1.00 22.91 LIG 0.16  HD
BRANCH 44 46
ATOM     46  CA  ASP P   7      33.297  21.854  -8.290  1.00 24.36 LIG 0.19  C 
BRANCH 46 47
ATOM     47  C   ASP P   7      32.914  20.471  -7.777  1.00 26.16 LIG 0.24  C 
ATOM     48  N   SER P   8      33.314  20.163  -6.541  1.00 27.90 LIG-0.34  N 
ATOM     49 H    SER P   8      33.822  20.660  -6.057  1.00 27.90 LIG 0.16  HD
ATOM     50 O    ASP P   7      32.282  19.686  -8.474  1.00 26.07 LIG-0.27  OA
BRANCH 48 51
ATOM     51  CA  SER P   8      32.895  18.910  -5.906  1.00 28.60 LIG 0.21  C 
BRANCH 51 52
ATOM     52  CB  SER P   8      33.816  17.771  -6.341  1.00 29.65 LIG 0.20  C 
BRANCH 52 53
ATOM     53 OG   SER P   8      33.402  17.242  -7.589  1.00 30.91 LIG-0.40  OA
ATOM     54 HG   SER P   8      32.970  17.825  -8.012  1.00 30.91 LIG 0.21  HD
ENDBRANCH 52 53
ENDBRANCH 51 52
BRANCH 51 55
ATOM     55  C   SER P   8      32.811  19.023  -4.351  1.00 29.85 LIG 0.20  C 
ATOM     56 OXT  SER P   8      32.512  18.054  -3.640  1.00 30.94 LIG-0.65  OA
ATOM     57 O    SER P   8      32.990  20.072  -3.713  1.00 30.51 LIG-0.65  OA
ENDBRANCH 51 55
ENDBRANCH 48 51
ENDBRANCH 46 47
BRANCH 46 58
ATOM     58  CB  ASP P   7      33.843  21.792  -9.700  1.00 24.61 LIG 0.15  C 
BRANCH 58 59
ATOM     59  CG  ASP P   7      35.332  21.558  -9.711  1.00 26.42 LIG 0.17  C 
ATOM     60 OD2  ASP P   7      35.798  20.668  -8.990  1.00 29.83 LIG-0.65  OA
ATOM     61 OD1  ASP P   7      36.035  22.263 -10.476  1.00 30.09 LIG-0.65  OA
ENDBRANCH 58 59
ENDBRANCH 46 58
ENDBRANCH 44 46
ENDBRANCH 35 42
ENDBRANCH 32 35
ENDBRANCH 1 31
BRANCH 1 62
ATOM     62  CB  ARG P   5      32.399  27.593  -5.832  1.00 16.24 LIG 0.04  C 
BRANCH 62 63
ATOM     63  CG  ARG P   5      31.377  28.646  -5.451  1.00 15.73 LIG 0.02  C 
BRANCH 63 64
ATOM     64  CD  ARG P   5      31.791  29.324  -4.174  1.00 15.69 LIG 0.14  C 
BRANCH 64 65
ATOM     65  NE  ARG P   5      31.198  28.740  -2.963  1.00 15.25 LIG-0.23  N 
ATOM     66 HE   ARG P   5      31.694  28.257  -2.453  1.00 15.25 LIG 0.18  HD
ATOM     67  CZ  ARG P   5      29.921  28.930  -2.624  1.00 16.06 LIG 0.67  C 
ATOM     68  NH2 ARG P   5      29.417  28.366  -1.525  1.00 16.00 LIG-0.23  N 
ATOM     69  NH1 ARG P   5      29.134  29.659  -3.403  1.00 17.19 LIG-0.23  N 
ATOM     70 1HH2 ARG P   5      29.917  27.875  -1.027  1.00 16.00 LIG 0.17  HD
ATOM     71 2HH2 ARG P   5      28.593  28.495  -1.315  1.00 16.00 LIG 0.17  HD
ATOM     72 1HH1 ARG P   5      29.447  30.007  -4.125  1.00 17.19 LIG 0.17  HD
ATOM     73 2HH1 ARG P   5      28.311  29.783  -3.187  1.00 17.19 LIG 0.17  HD
ENDBRANCH 64 65
ENDBRANCH 63 64
ENDBRANCH 62 63
ENDBRANCH 1 62
TORSDOF 28
ENDMDL
MODEL 10
USER: ADFR SOLUTION from run 105
USER: SCORE 18.530258 LL:  -5.022 LR: -17.080 RR:   0.000 FEB:  -8.728
USER: RMSD 6.564707
USER: SEED 104
USER: STATUS searching
USER: GENES 30
USER: genes 0 Translation |==|  0.55668 0.52342 0.54486
USER: genes 1 Rotation |==|  0.80643 0.12997 0.36160 0.50506
USER: genes 2 Torsion [CB]-CA--N-[C] |==|  0.21528
USER: genes 3 Torsion [N]-C--CA-[N] |==|  0.02718
USER: genes 4 Torsion [C]-CA--N-[C] |==|  0.58889
USER: genes 5 Torsion [N]-C--CA-[N] |==|  0.44566
USER: genes 6 Torsion [C]-CA--CB-[CG] |==|  0.92704
USER: genes 7 Torsion [CA]-CB--CG-[CD] |==|  0.30822
USER: genes 8 Torsion [CB]-CG--CD-[OE1] |==|  0.18358
USER: genes 9 Torsion [C]-CA--N-[C] |==|  0.79864
USER: genes 10 Torsion [N]-C--CA-[N] |==|  0.95184
USER: genes 11 Torsion [C]-CA--CB-[CG] |==|  0.28256
USER: genes 12 Torsion [CA]-CB--CG-[CD2] |==|  0.75843
USER: genes 13 Torsion [N]-CA--C-[N] |==|  0.43529
USER: genes 14 Torsion [C]-N--CA-[CB] |==|  0.25877
USER: genes 15 Torsion [N]-CA--CB-[CG] |==|  0.63487
USER: genes 16 Torsion [CA]-CB--CG-[CD2] |==|  0.28703
USER: genes 17 Torsion [N]-CA--C-[N] |==|  0.88045
USER: genes 18 Torsion [C]-N--CA-[CB] |==|  0.21179
USER: genes 19 Torsion [N]-CA--C-[N] |==|  0.22625
USER: genes 20 Torsion [C]-N--CA-[CB] |==|  0.32017
USER: genes 21 Torsion [N]-CA--CB-[OG] |==|  0.99059
USER: genes 22 Torsion [CA]-CB--OG-[HG] |==|  0.58987
USER: genes 23 Torsion [N]-CA--C-[OXT] |==|  0.01902
USER: genes 24 Torsion [N]-CA--CB-[CG] |==|  0.12909
USER: genes 25 Torsion [CA]-CB--CG-[OD2] |==|  0.24410
USER: genes 26 Torsion [N]-CA--CB-[CG] |==|  0.61364
USER: genes 27 Torsion [CA]-CB--CG-[CD] |==|  0.36734
USER: genes 28 Torsion [CB]-CG--CD-[NE] |==|  0.74878
USER: genes 29 Torsion [CG]-CD--NE-[HE] |==|  0.82624
ROOT
ATOM      1  CA  ARG P   5      33.004  29.577  -5.726  1.00 16.30 LIG 0.18  C 
ENDROOT
BRANCH 1 2
ATOM      2  N   ARG P   5      32.592  30.975  -5.540  1.00 16.36 LIG-0.35  N 
ATOM      3  C   PHE P   4      32.122  31.400  -4.381  1.00 16.61 LIG 0.24  C 
ATOM      4 O    PHE P   4      32.085  30.696  -3.369  1.00 17.57 LIG-0.27  OA
ATOM      5 H    ARG P   5      32.685  31.472  -6.236  1.00 16.36 LIG 0.16  HD
BRANCH 3 6
ATOM      6  CA  PHE P   4      31.618  32.842  -4.348  1.00 17.34 LIG 0.18  C 
BRANCH 6 7
ATOM      7  N   PHE P   4      31.579  33.319  -5.717  1.00 18.03 LIG-0.35  N 
ATOM      8  C   GLU P   3      31.802  34.600  -6.017  1.00 20.04 LIG 0.24  C 
ATOM      9 O    GLU P   3      31.871  35.477  -5.170  1.00 20.03 LIG-0.27  OA
ATOM     10 H    PHE P   4      31.404  32.712  -6.301  1.00 18.03 LIG 0.16  HD
BRANCH 8 11
ATOM     11  CA  GLU P   3      31.941  34.941  -7.501  1.00 21.92 LIG 0.18  C 
BRANCH 11 12
ATOM     12  CB  GLU P   3      33.329  34.540  -8.004  1.00 22.70 LIG 0.04  C 
BRANCH 12 13
ATOM     13  CG  GLU P   3      34.365  34.531  -6.895  1.00 23.46 LIG 0.12  C 
BRANCH 13 14
ATOM     14  CD  GLU P   3      34.865  33.154  -6.522  1.00 23.38 LIG 0.17  C 
ATOM     15 OE1  GLU P   3      35.526  32.530  -7.385  1.00 24.20 LIG-0.65  OA
ATOM     16 OE2  GLU P   3      34.584  32.693  -5.396  1.00 25.77 LIG-0.65  OA
ENDBRANCH 13 14
ENDBRANCH 12 13
ENDBRANCH 11 12
BRANCH 11 17
ATOM     17  N   GLU P   3      31.710  36.379  -7.674  1.00 23.31 LIG-0.35  N 
ATOM     18 H    GLU P   3      32.416  36.839  -7.850  1.00 23.31 LIG 0.16  HD
ATOM     19  C   ALA P   2      30.492  36.894  -7.560  1.00 24.65 LIG 0.26  C 
ATOM     20 O    ALA P   2      29.471  36.185  -7.558  1.00 25.69 LIG-0.27  OA
BRANCH 19 21
ATOM     21  CA  ALA P   2      30.374  38.428  -7.497  1.00 24.82 LIG 0.40  C 
ATOM     22  N   ALA P   2      31.686  39.036  -7.163  1.00 26.06 LIG 0.61  N 
ATOM     23  CB  ALA P   2      29.857  39.010  -8.827  1.00 25.99 LIG 0.06  C 
ENDBRANCH 19 21
ENDBRANCH 11 17
ENDBRANCH 8 11
ENDBRANCH 6 7
BRANCH 6 24
ATOM     24  CB  PHE P   4      30.221  32.913  -3.695  1.00 16.70 LIG 0.07  C 
BRANCH 24 25
ATOM     25  CG  PHE P   4      30.233  33.393  -2.257  1.00 15.87 LIG-0.06  A 
ATOM     26  CD2 PHE P   4      30.421  32.493  -1.214  1.00 14.31 LIG 0.01  A 
ATOM     27  CE2 PHE P   4      30.405  32.923   0.113  1.00 14.76 LIG 0.00  A 
ATOM     28  CZ  PHE P   4      30.185  34.274   0.414  1.00 16.46 LIG 0.00  A 
ATOM     29  CE1 PHE P   4      30.001  35.184  -0.621  1.00 16.70 LIG 0.00  A 
ATOM     30  CD1 PHE P   4      30.013  34.728  -1.944  1.00 16.73 LIG 0.01  A 
ENDBRANCH 24 25
ENDBRANCH 6 24
ENDBRANCH 3 6
ENDBRANCH 1 2
BRANCH 1 31
ATOM     31  C   ARG P   5      33.938  29.406  -6.935  1.00 16.50 LIG 0.24  C 
ATOM     32  N   HIS P   6      34.735  28.340  -6.928  1.00 17.02 LIG-0.35  N 
ATOM     33 H    HIS P   6      34.805  27.788  -6.273  1.00 17.02 LIG 0.16  HD
ATOM     34 O    ARG P   5      33.926  30.221  -7.866  1.00 15.68 LIG-0.27  OA
BRANCH 32 35
ATOM     35  CA  HIS P   6      35.579  28.032  -8.092  1.00 18.55 LIG 0.18  C 
BRANCH 35 36
ATOM     36  CB  HIS P   6      36.967  28.640  -7.936  1.00 17.94 LIG 0.10  C 
BRANCH 36 37
ATOM     37  CG  HIS P   6      37.454  29.400  -9.126  1.00 17.06 LIG 0.06  A 
ATOM     38 ND1  HIS P   6      37.980  28.782 -10.238  1.00 15.40 LIG-0.24  NA
ATOM     39  CE1 HIS P   6      38.368  29.697 -11.109  1.00 15.09 LIG 0.23  A 
ATOM     40 NE2  HIS P   6      38.106  30.889 -10.604  1.00 16.22 LIG-0.25  NA
ATOM     41  CD2 HIS P   6      37.540  30.728  -9.358  1.00 16.02 LIG 0.14  A 
ENDBRANCH 36 37
ENDBRANCH 35 36
BRANCH 35 42
ATOM     42  C   HIS P   6      35.752  26.534  -8.126  1.00 20.42 LIG 0.24  C 
ATOM     43 O    HIS P   6      35.649  25.943  -9.196  1.00 21.09 LIG-0.27  OA
ATOM     44  N   ASP P   7      35.991  25.892  -6.997  1.00 22.91 LIG-0.34  N 
ATOM     45 H    ASP P   7      36.023  26.243  -6.212  1.00 22.91 LIG 0.16  HD
BRANCH 44 46
ATOM     46  CA  ASP P   7      36.230  24.435  -7.074  1.00 24.36 LIG 0.19  C 
BRANCH 46 47
ATOM     47  C   ASP P   7      35.951  23.697  -5.771  1.00 26.16 LIG 0.24  C 
ATOM     48  N   SER P   8      34.675  23.396  -5.518  1.00 27.90 LIG-0.34  N 
ATOM     49 H    SER P   8      34.011  23.650  -6.002  1.00 27.90 LIG 0.16  HD
ATOM     50 O    ASP P   7      36.856  23.409  -4.996  1.00 26.07 LIG-0.27  OA
BRANCH 48 51
ATOM     51  CA  SER P   8      34.311  22.581  -4.355  1.00 28.60 LIG 0.21  C 
BRANCH 51 52
ATOM     52  CB  SER P   8      33.479  23.410  -3.377  1.00 29.65 LIG 0.20  C 
BRANCH 52 53
ATOM     53 OG   SER P   8      33.360  24.747  -3.830  1.00 30.91 LIG-0.40  OA
ATOM     54 HG   SER P   8      33.320  25.265  -3.170  1.00 30.91 LIG 0.21  HD
ENDBRANCH 52 53
ENDBRANCH 51 52
BRANCH 51 55
ATOM     55  C   SER P   8      33.585  21.257  -4.752  1.00 29.85 LIG 0.20  C 
ATOM     56 OXT  SER P   8      33.471  20.902  -5.933  1.00 30.94 LIG-0.65  OA
ATOM     57 O    SER P   8      33.040  20.487  -3.945  1.00 30.51 LIG-0.65  OA
ENDBRANCH 51 55
ENDBRANCH 48 51
ENDBRANCH 46 47
BRANCH 46 58
ATOM     58  CB  ASP P   7      37.621  24.144  -7.592  1.00 24.61 LIG 0.15  C 
BRANCH 58 59
ATOM     59  CG  ASP P   7      38.660  24.991  -6.902  1.00 26.42 LIG 0.17  C 
ATOM     60 OD2  ASP P   7      39.162  24.576  -5.850  1.00 29.83 LIG-0.65  OA
ATOM     61 OD1  ASP P   7      38.991  26.075  -7.442  1.00 30.09 LIG-0.65  OA
ENDBRANCH 58 59
ENDBRANCH 46 58
ENDBRANCH 44 46
ENDBRANCH 35 42
ENDBRANCH 32 35
ENDBRANCH 1 31
BRANCH 1 62
ATOM     62  CB  ARG P   5      31.776  28.700  -5.903  1.00 16.24 LIG 0.04  C 
BRANCH 62 63
ATOM     63  CG  ARG P   5      31.827  27.365  -5.185  1.00 15.73 LIG 0.02  C 
BRANCH 63 64
ATOM     64  CD  ARG P   5      30.545  27.140  -4.431  1.00 15.69 LIG 0.14  C 
BRANCH 64 65
ATOM     65  NE  ARG P   5      30.564  27.639  -3.049  1.00 15.25 LIG-0.23  N 
ATOM     66 HE   ARG P   5      31.125  27.297  -2.495  1.00 15.25 LIG 0.18  HD
ATOM     67  CZ  ARG P   5      29.746  28.603  -2.622  1.00 16.06 LIG 0.67  C 
ATOM     68  NH2 ARG P   5      29.783  29.016  -1.354  1.00 16.00 LIG-0.23  N 
ATOM     69  NH1 ARG P   5      28.863  29.136  -3.456  1.00 17.19 LIG-0.23  N 
ATOM     70 1HH2 ARG P   5      30.338  28.660  -0.802  1.00 16.00 LIG 0.17  HD
ATOM     71 2HH2 ARG P   5      29.252  29.637  -1.088  1.00 16.00 LIG 0.17  HD
ATOM     72 1HH1 ARG P   5      28.818  28.859  -4.269  1.00 17.19 LIG 0.17  HD
ATOM     73 2HH1 ARG P   5      28.334  29.758  -3.183  1.00 17.19 LIG 0.17  HD
ENDBRANCH 64 65
ENDBRANCH 63 64
ENDBRANCH 62 63
ENDBRANCH 1 62
TORSDOF 28
ENDMDL
MODEL 11
USER: ADFR SOLUTION from run 137
USER: SCORE 19.393673 LL:  -4.788 LR: -17.055 RR:   0.000 FEB:  -8.703
USER: RMSD 8.493380
USER: SEED 136
USER: STATUS no improvement in best in 7 clusters for 5 generations
USER: GENES 30
USER: genes 0 Translation |==|  0.55514 0.40718 0.58287
USER: genes 1 Rotation |==|  0.36752 0.96512 0.37387 0.51424
USER: genes 2 Torsion [CB]-CA--N-[C] |==|  0.84426
USER: genes 3 Torsion [N]-C--CA-[N] |==|  0.92222
USER: genes 4 Torsion [C]-CA--N-[C] |==|  0.75683
USER: genes 5 Torsion [N]-C--CA-[N] |==|  0.31789
USER: genes 6 Torsion [C]-CA--CB-[CG] |==|  0.59304
USER: genes 7 Torsion [CA]-CB--CG-[CD] |==|  0.53681
USER: genes 8 Torsion [CB]-CG--CD-[OE1] |==|  0.48857
USER: genes 9 Torsion [C]-CA--N-[C] |==|  0.61176
USER: genes 10 Torsion [N]-C--CA-[N] |==|  0.46105
USER: genes 11 Torsion [C]-CA--CB-[CG] |==|  0.54230
USER: genes 12 Torsion [CA]-CB--CG-[CD2] |==|  0.92233
USER: genes 13 Torsion [N]-CA--C-[N] |==|  0.27709
USER: genes 14 Torsion [C]-N--CA-[CB] |==|  0.80534
USER: genes 15 Torsion [N]-CA--CB-[CG] |==|  0.73223
USER: genes 16 Torsion [CA]-CB--CG-[CD2] |==|  0.86545
USER: genes 17 Torsion [N]-CA--C-[N] |==|  0.17618
USER: genes 18 Torsion [C]-N--CA-[CB] |==|  0.24682
USER: genes 19 Torsion [N]-CA--C-[N] |==|  0.03004
USER: genes 20 Torsion [C]-N--CA-[CB] |==|  0.24495
USER: genes 21 Torsion [N]-CA--CB-[OG] |==|  0.78011
USER: genes 22 Torsion [CA]-CB--OG-[HG] |==|  0.66894
USER: genes 23 Torsion [N]-CA--C-[OXT] |==|  0.41045
USER: genes 24 Torsion [N]-CA--CB-[CG] |==|  0.67588
USER: genes 25 Torsion [CA]-CB--CG-[OD2] |==|  0.92506
USER: genes 26 Torsion [N]-CA--CB-[CG] |==|  0.83626
USER: genes 27 Torsion [CA]-CB--CG-[CD] |==|  0.91944
USER: genes 28 Torsion [CB]-CG--CD-[NE] |==|  0.81612
USER: genes 29 Torsion [CG]-CD--NE-[HE] |==|  0.26823
ROOT
ATOM      1  CA  ARG P   5      32.968  26.787  -4.985  1.00 16.30 LIG 0.18  C 
ENDROOT
BRANCH 1 2
ATOM      2  N   ARG P   5      33.849  27.593  -5.841  1.00 16.36 LIG-0.35  N 
ATOM      3  C   PHE P   4      33.979  27.327  -7.129  1.00 16.61 LIG 0.24  C 
ATOM      4 O    PHE P   4      33.315  26.467  -7.711  1.00 17.57 LIG-0.27  OA
ATOM      5 H    ARG P   5      34.257  28.233  -5.436  1.00 16.36 LIG 0.16  HD
BRANCH 3 6
ATOM      6  CA  PHE P   4      35.013  28.160  -7.886  1.00 17.34 LIG 0.18  C 
BRANCH 6 7
ATOM      7  N   PHE P   4      35.121  29.438  -7.207  1.00 18.03 LIG-0.35  N 
ATOM      8  C   GLU P   3      34.317  30.459  -7.510  1.00 20.04 LIG 0.24  C 
ATOM      9 O    GLU P   3      33.575  30.454  -8.479  1.00 20.03 LIG-0.27  OA
ATOM     10 H    PHE P   4      35.737  29.471  -6.608  1.00 18.03 LIG 0.16  HD
BRANCH 8 11
ATOM     11  CA  GLU P   3      34.386  31.679  -6.590  1.00 21.92 LIG 0.18  C 
BRANCH 11 12
ATOM     12  CB  GLU P   3      32.998  31.990  -6.027  1.00 22.70 LIG 0.04  C 
BRANCH 12 13
ATOM     13  CG  GLU P   3      32.776  33.478  -5.826  1.00 23.46 LIG 0.12  C 
BRANCH 13 14
ATOM     14  CD  GLU P   3      31.564  33.818  -4.989  1.00 23.38 LIG 0.17  C 
ATOM     15 OE1  GLU P   3      31.372  35.028  -4.722  1.00 24.20 LIG-0.65  OA
ATOM     16 OE2  GLU P   3      30.828  32.892  -4.587  1.00 25.77 LIG-0.65  OA
ENDBRANCH 13 14
ENDBRANCH 12 13
ENDBRANCH 11 12
BRANCH 11 17
ATOM     17  N   GLU P   3      34.913  32.813  -7.356  1.00 23.31 LIG-0.35  N 
ATOM     18 H    GLU P   3      34.617  32.872  -8.162  1.00 23.31 LIG 0.16  HD
ATOM     19  C   ALA P   2      35.779  33.661  -6.814  1.00 24.65 LIG 0.26  C 
ATOM     20 O    ALA P   2      35.990  33.699  -5.590  1.00 25.69 LIG-0.27  OA
BRANCH 19 21
ATOM     21  CA  ALA P   2      36.476  34.660  -7.756  1.00 24.82 LIG 0.40  C 
ATOM     22  N   ALA P   2      37.136  35.735  -6.974  1.00 26.06 LIG 0.61  N 
ATOM     23  CB  ALA P   2      37.515  33.960  -8.653  1.00 25.99 LIG 0.06  C 
ENDBRANCH 19 21
ENDBRANCH 11 17
ENDBRANCH 8 11
ENDBRANCH 6 7
BRANCH 6 24
ATOM     24  CB  PHE P   4      36.374  27.432  -7.921  1.00 16.70 LIG 0.07  C 
BRANCH 24 25
ATOM     25  CG  PHE P   4      37.538  28.316  -8.320  1.00 15.87 LIG-0.06  A 
ATOM     26  CD2 PHE P   4      37.338  29.419  -9.143  1.00 14.31 LIG 0.01  A 
ATOM     27  CE2 PHE P   4      38.409  30.221  -9.539  1.00 14.76 LIG 0.00  A 
ATOM     28  CZ  PHE P   4      39.710  29.916  -9.120  1.00 16.46 LIG 0.00  A 
ATOM     29  CE1 PHE P   4      39.923  28.819  -8.292  1.00 16.70 LIG 0.00  A 
ATOM     30  CD1 PHE P   4      38.834  28.024  -7.916  1.00 16.73 LIG 0.01  A 
ENDBRANCH 24 25
ENDBRANCH 6 24
ENDBRANCH 3 6
ENDBRANCH 1 2
BRANCH 1 31
ATOM     31  C   ARG P   5      33.468  25.341  -4.840  1.00 16.50 LIG 0.24  C 
ATOM     32  N   HIS P   6      34.133  25.048  -3.726  1.00 17.02 LIG-0.35  N 
ATOM     33 H    HIS P   6      34.353  25.621  -3.124  1.00 17.02 LIG 0.16  HD
ATOM     34 O    ARG P   5      33.242  24.501  -5.720  1.00 15.68 LIG-0.27  OA
BRANCH 32 35
ATOM     35  CA  HIS P   6      34.551  23.666  -3.448  1.00 18.55 LIG 0.18  C 
BRANCH 35 36
ATOM     36  CB  HIS P   6      33.349  22.786  -3.129  1.00 17.94 LIG 0.10  C 
BRANCH 36 37
ATOM     37  CG  HIS P   6      33.073  22.607  -1.672  1.00 17.06 LIG 0.06  A 
ATOM     38 ND1  HIS P   6      31.832  22.825  -1.118  1.00 15.40 LIG-0.24  NA
ATOM     39  CE1 HIS P   6      31.893  22.637   0.188  1.00 15.09 LIG 0.23  A 
ATOM     40 NE2  HIS P   6      33.130  22.298   0.503  1.00 16.22 LIG-0.25  NA
ATOM     41  CD2 HIS P   6      33.890  22.281  -0.647  1.00 16.02 LIG 0.14  A 
ENDBRANCH 36 37
ENDBRANCH 35 36
BRANCH 35 42
ATOM     42  C   HIS P   6      35.170  23.130  -4.714  1.00 20.42 LIG 0.24  C 
ATOM     43 O    HIS P   6      34.650  22.171  -5.277  1.00 21.09 LIG-0.27  OA
ATOM     44  N   ASP P   7      36.269  23.696  -5.178  1.00 22.91 LIG-0.34  N 
ATOM     45 H    ASP P   7      36.707  24.334  -4.802  1.00 22.91 LIG 0.16  HD
BRANCH 44 46
ATOM     46  CA  ASP P   7      36.810  23.197  -6.461  1.00 24.36 LIG 0.19  C 
BRANCH 46 47
ATOM     47  C   ASP P   7      38.332  23.195  -6.527  1.00 26.16 LIG 0.24  C 
ATOM     48  N   SER P   8      38.978  23.419  -5.381  1.00 27.90 LIG-0.34  N 
ATOM     49 H    SER P   8      38.595  23.628  -4.640  1.00 27.90 LIG 0.16  HD
ATOM     50 O    ASP P   7      38.923  23.009  -7.585  1.00 26.07 LIG-0.27  OA
BRANCH 48 51
ATOM     51  CA  SER P   8      40.439  23.317  -5.309  1.00 28.60 LIG 0.21  C 
BRANCH 51 52
ATOM     52  CB  SER P   8      41.073  24.661  -5.663  1.00 29.65 LIG 0.20  C 
BRANCH 52 53
ATOM     53 OG   SER P   8      41.092  24.852  -7.067  1.00 30.91 LIG-0.40  OA
ATOM     54 HG   SER P   8      41.886  24.931  -7.329  1.00 30.91 LIG 0.21  HD
ENDBRANCH 52 53
ENDBRANCH 51 52
BRANCH 51 55
ATOM     55  C   SER P   8      40.938  22.789  -3.927  1.00 29.85 LIG 0.20  C 
ATOM     56 OXT  SER P   8      41.961  22.101  -3.820  1.00 30.94 LIG-0.65  OA
ATOM     57 O    SER P   8      40.347  22.973  -2.851  1.00 30.51 LIG-0.65  OA
ENDBRANCH 51 55
ENDBRANCH 48 51
ENDBRANCH 46 47
BRANCH 46 58
ATOM     58  CB  ASP P   7      36.203  23.945  -7.628  1.00 24.61 LIG 0.15  C 
BRANCH 58 59
ATOM     59  CG  ASP P   7      35.399  23.030  -8.516  1.00 26.42 LIG 0.17  C 
ATOM     60 OD2  ASP P   7      35.697  21.831  -8.559  1.00 29.83 LIG-0.65  OA
ATOM     61 OD1  ASP P   7      34.439  23.524  -9.159  1.00 30.09 LIG-0.65  OA
ENDBRANCH 58 59
ENDBRANCH 46 58
ENDBRANCH 44 46
ENDBRANCH 35 42
ENDBRANCH 32 35
ENDBRANCH 1 31
BRANCH 1 62
ATOM     62  CB  ARG P   5      31.560  26.785  -5.557  1.00 16.24 LIG 0.04  C 
BRANCH 62 63
ATOM     63  CG  ARG P   5      30.919  28.152  -5.699  1.00 15.73 LIG 0.02  C 
BRANCH 63 64
ATOM     64  CD  ARG P   5      31.465  29.086  -4.655  1.00 15.69 LIG 0.14  C 
BRANCH 64 65
ATOM     65  NE  ARG P   5      31.106  28.724  -3.277  1.00 15.25 LIG-0.23  N 
ATOM     66 HE   ARG P   5      31.668  28.272  -2.809  1.00 15.25 LIG 0.18  HD
ATOM     67  CZ  ARG P   5      29.943  29.071  -2.723  1.00 16.06 LIG 0.67  C 
ATOM     68  NH2 ARG P   5      29.648  28.707  -1.474  1.00 16.00 LIG-0.23  N 
ATOM     69  NH1 ARG P   5      29.055  29.757  -3.430  1.00 17.19 LIG-0.23  N 
ATOM     70 1HH2 ARG P   5      30.210  28.244  -1.017  1.00 16.00 LIG 0.17  HD
ATOM     71 2HH2 ARG P   5      28.896  28.936  -1.125  1.00 16.00 LIG 0.17  HD
ATOM     72 1HH1 ARG P   5      29.229  29.976  -4.243  1.00 17.19 LIG 0.17  HD
ATOM     73 2HH1 ARG P   5      28.304  29.982  -3.075  1.00 17.19 LIG 0.17  HD
ENDBRANCH 64 65
ENDBRANCH 63 64
ENDBRANCH 62 63
ENDBRANCH 1 62
TORSDOF 28
ENDMDL
MODEL 12
USER: ADFR SOLUTION from run 117
USER: SCORE 20.126664 LL:  -4.993 LR: -16.917 RR:   0.000 FEB:  -8.564
USER: RMSD 7.125699
USER: SEED 116
USER: STATUS no improvement in best in 2 clusters for 5 generations
USER: GENES 30
USER: genes 0 Translation |==|  0.47683 0.53284 0.55353
USER: genes 1 Rotation |==|  0.30553 0.92057 0.63046 0.63522
USER: genes 2 Torsion [CB]-CA--N-[C] |==|  0.84664
USER: genes 3 Torsion [N]-C--CA-[N] |==|  0.33892
USER: genes 4 Torsion [C]-CA--N-[C] |==|  0.84444
USER: genes 5 Torsion [N]-C--CA-[N] |==|  0.94041
USER: genes 6 Torsion [C]-CA--CB-[CG] |==|  0.43705
USER: genes 7 Torsion [CA]-CB--CG-[CD] |==|  0.96722
USER: genes 8 Torsion [CB]-CG--CD-[OE1] |==|  0.74569
USER: genes 9 Torsion [C]-CA--N-[C] |==|  0.79485
USER: genes 10 Torsion [N]-C--CA-[N] |==|  0.84246
USER: genes 11 Torsion [C]-CA--CB-[CG] |==|  0.27981
USER: genes 12 Torsion [CA]-CB--CG-[CD2] |==|  0.66753
USER: genes 13 Torsion [N]-CA--C-[N] |==|  0.34564
USER: genes 14 Torsion [C]-N--CA-[CB] |==|  0.19458
USER: genes 15 Torsion [N]-CA--CB-[CG] |==|  0.72467
USER: genes 16 Torsion [CA]-CB--CG-[CD2] |==|  0.32111
USER: genes 17 Torsion [N]-CA--C-[N] |==|  0.89153
USER: genes 18 Torsion [C]-N--CA-[CB] |==|  0.80412
USER: genes 19 Torsion [N]-CA--C-[N] |==|  0.10045
USER: genes 20 Torsion [C]-N--CA-[CB] |==|  0.46223
USER: genes 21 Torsion [N]-CA--CB-[OG] |==|  0.99707
USER: genes 22 Torsion [CA]-CB--OG-[HG] |==|  0.08530
USER: genes 23 Torsion [N]-CA--C-[OXT] |==|  0.61574
USER: genes 24 Torsion [N]-CA--CB-[CG] |==|  0.57854
USER: genes 25 Torsion [CA]-CB--CG-[OD2] |==|  0.21015
USER: genes 26 Torsion [N]-CA--CB-[CG] |==|  0.81161
USER: genes 27 Torsion [CA]-CB--CG-[CD] |==|  0.84577
USER: genes 28 Torsion [CB]-CG--CD-[NE] |==|  0.27350
USER: genes 29 Torsion [CG]-CD--NE-[HE] |==|  0.19054
ROOT
ATOM      1  CA  ARG P   5      31.147  29.803  -5.557  1.00 16.30 LIG 0.18  C 
ENDROOT
BRANCH 1 2
ATOM      2  N   ARG P   5      31.501  31.117  -5.003  1.00 16.36 LIG-0.35  N 
ATOM      3  C   PHE P   4      31.556  32.190  -5.772  1.00 16.61 LIG 0.24  C 
ATOM      4 O    PHE P   4      31.231  32.186  -6.961  1.00 17.57 LIG-0.27  OA
ATOM      5 H    ARG P   5      31.662  31.119  -4.158  1.00 16.36 LIG 0.16  HD
BRANCH 3 6
ATOM      6  CA  PHE P   4      32.050  33.472  -5.102  1.00 17.34 LIG 0.18  C 
BRANCH 6 7
ATOM      7  N   PHE P   4      33.212  33.927  -5.843  1.00 18.03 LIG-0.35  N 
ATOM      8  C   GLU P   3      34.273  33.141  -6.030  1.00 20.04 LIG 0.24  C 
ATOM      9 O    GLU P   3      34.419  32.075  -5.452  1.00 20.03 LIG-0.27  OA
ATOM     10 H    PHE P   4      33.150  34.731  -6.142  1.00 18.03 LIG 0.16  HD
BRANCH 8 11
ATOM     11  CA  GLU P   3      35.342  33.652  -6.997  1.00 21.92 LIG 0.18  C 
BRANCH 11 12
ATOM     12  CB  GLU P   3      36.513  34.252  -6.217  1.00 22.70 LIG 0.04  C 
BRANCH 12 13
ATOM     13  CG  GLU P   3      37.797  34.270  -7.025  1.00 23.46 LIG 0.12  C 
BRANCH 13 14
ATOM     14  CD  GLU P   3      37.741  33.455  -8.298  1.00 23.38 LIG 0.17  C 
ATOM     15 OE1  GLU P   3      38.111  32.260  -8.231  1.00 24.20 LIG-0.65  OA
ATOM     16 OE2  GLU P   3      37.356  34.005  -9.351  1.00 25.77 LIG-0.65  OA
ENDBRANCH 13 14
ENDBRANCH 12 13
ENDBRANCH 11 12
BRANCH 11 17
ATOM     17  N   GLU P   3      34.731  34.647  -7.885  1.00 23.31 LIG-0.35  N 
ATOM     18 H    GLU P   3      34.951  35.461  -7.719  1.00 23.31 LIG 0.16  HD
ATOM     19  C   ALA P   2      33.908  34.280  -8.859  1.00 24.65 LIG 0.26  C 
ATOM     20 O    ALA P   2      33.809  33.098  -9.232  1.00 25.69 LIG-0.27  OA
BRANCH 19 21
ATOM     21  CA  ALA P   2      33.114  35.389  -9.572  1.00 24.82 LIG 0.40  C 
ATOM     22  N   ALA P   2      32.315  36.167  -8.592  1.00 26.06 LIG 0.61  N 
ATOM     23  CB  ALA P   2      34.045  36.339 -10.351  1.00 25.99 LIG 0.06  C 
ENDBRANCH 19 21
ENDBRANCH 11 17
ENDBRANCH 8 11
ENDBRANCH 6 7
BRANCH 6 24
ATOM     24  CB  PHE P   4      30.939  34.543  -5.096  1.00 16.70 LIG 0.07  C 
BRANCH 24 25
ATOM     25  CG  PHE P   4      30.215  34.677  -3.771  1.00 15.87 LIG-0.06  A 
ATOM     26  CD2 PHE P   4      28.846  34.452  -3.689  1.00 14.31 LIG 0.01  A 
ATOM     27  CE2 PHE P   4      28.168  34.601  -2.479  1.00 14.76 LIG 0.00  A 
ATOM     28  CZ  PHE P   4      28.860  34.995  -1.327  1.00 16.46 LIG 0.00  A 
ATOM     29  CE1 PHE P   4      30.231  35.219  -1.395  1.00 16.70 LIG 0.00  A 
ATOM     30  CD1 PHE P   4      30.888  35.071  -2.622  1.00 16.73 LIG 0.01  A 
ENDBRANCH 24 25
ENDBRANCH 6 24
ENDBRANCH 3 6
ENDBRANCH 1 2
BRANCH 1 31
ATOM     31  C   ARG P   5      32.219  29.278  -6.526  1.00 16.50 LIG 0.24  C 
ATOM     32  N   HIS P   6      32.731  28.079  -6.258  1.00 17.02 LIG-0.35  N 
ATOM     33 H    HIS P   6      32.551  27.618  -5.555  1.00 17.02 LIG 0.16  HD
ATOM     34 O    ARG P   5      32.566  29.944  -7.509  1.00 15.68 LIG-0.27  OA
BRANCH 32 35
ATOM     35  CA  HIS P   6      33.677  27.447  -7.189  1.00 18.55 LIG 0.18  C 
BRANCH 35 36
ATOM     36  CB  HIS P   6      35.015  28.175  -7.187  1.00 17.94 LIG 0.10  C 
BRANCH 36 37
ATOM     37  CG  HIS P   6      35.206  29.134  -8.316  1.00 17.06 LIG 0.06  A 
ATOM     38 ND1  HIS P   6      35.319  28.727  -9.626  1.00 15.40 LIG-0.24  NA
ATOM     39  CE1 HIS P   6      35.525  29.779 -10.398  1.00 15.09 LIG 0.23  A 
ATOM     40 NE2  HIS P   6      35.544  30.857  -9.636  1.00 16.22 LIG-0.25  NA
ATOM     41  CD2 HIS P   6      35.353  30.477  -8.325  1.00 16.02 LIG 0.14  A 
ENDBRANCH 36 37
ENDBRANCH 35 36
BRANCH 35 42
ATOM     42  C   HIS P   6      33.930  26.050  -6.677  1.00 20.42 LIG 0.24  C 
ATOM     43 O    HIS P   6      34.014  25.125  -7.478  1.00 21.09 LIG-0.27  OA
ATOM     44  N   ASP P   7      34.037  25.856  -5.376  1.00 22.91 LIG-0.34  N 
ATOM     45 H    ASP P   7      33.936  26.453  -4.765  1.00 22.91 LIG 0.16  HD
BRANCH 44 46
ATOM     46  CA  ASP P   7      34.359  24.489  -4.911  1.00 24.36 LIG 0.19  C 
BRANCH 46 47
ATOM     47  C   ASP P   7      35.641  23.923  -5.508  1.00 26.16 LIG 0.24  C 
ATOM     48  N   SER P   8      36.639  24.787  -5.704  1.00 27.90 LIG-0.34  N 
ATOM     49 H    SER P   8      36.578  25.636  -5.580  1.00 27.90 LIG 0.16  HD
ATOM     50 O    ASP P   7      35.736  22.737  -5.802  1.00 26.07 LIG-0.27  OA
BRANCH 48 51
ATOM     51  CA  SER P   8      37.954  24.326  -6.158  1.00 28.60 LIG 0.21  C 
BRANCH 51 52
ATOM     52  CB  SER P   8      38.794  25.516  -6.621  1.00 29.65 LIG 0.20  C 
BRANCH 52 53
ATOM     53 OG   SER P   8      38.059  26.722  -6.503  1.00 30.91 LIG-0.40  OA
ATOM     54 HG   SER P   8      37.519  26.661  -5.862  1.00 30.91 LIG 0.21  HD
ENDBRANCH 52 53
ENDBRANCH 51 52
BRANCH 51 55
ATOM     55  C   SER P   8      38.700  23.478  -5.079  1.00 29.85 LIG 0.20  C 
ATOM     56 OXT  SER P   8      39.912  23.615  -4.862  1.00 30.94 LIG-0.65  OA
ATOM     57 O    SER P   8      38.168  22.590  -4.394  1.00 30.51 LIG-0.65  OA
ENDBRANCH 51 55
ENDBRANCH 48 51
ENDBRANCH 46 47
BRANCH 46 58
ATOM     58  CB  ASP P   7      33.186  23.558  -5.125  1.00 24.61 LIG 0.15  C 
BRANCH 58 59
ATOM     59  CG  ASP P   7      33.176  22.436  -4.118  1.00 26.42 LIG 0.17  C 
ATOM     60 OD2  ASP P   7      32.811  22.679  -2.961  1.00 29.83 LIG-0.65  OA
ATOM     61 OD1  ASP P   7      33.515  21.290  -4.506  1.00 30.09 LIG-0.65  OA
ENDBRANCH 58 59
ENDBRANCH 46 58
ENDBRANCH 44 46
ENDBRANCH 35 42
ENDBRANCH 32 35
ENDBRANCH 1 31
BRANCH 1 62
ATOM     62  CB  ARG P   5      29.811  29.892  -6.275  1.00 16.24 LIG 0.04  C 
BRANCH 62 63
ATOM     63  CG  ARG P   5      28.612  30.138  -5.380  1.00 15.73 LIG 0.02  C 
BRANCH 63 64
ATOM     64  CD  ARG P   5      28.544  29.080  -4.313  1.00 15.69 LIG 0.14  C 
BRANCH 64 65
ATOM     65  NE  ARG P   5      29.102  29.494  -3.018  1.00 15.25 LIG-0.23  N 
ATOM     66 HE   ARG P   5      28.689  30.095  -2.564  1.00 15.25 LIG 0.18  HD
ATOM     67  CZ  ARG P   5      30.225  28.973  -2.520  1.00 16.06 LIG 0.67  C 
ATOM     68  NH2 ARG P   5      30.708  29.390  -1.349  1.00 16.00 LIG-0.23  N 
ATOM     69  NH1 ARG P   5      30.889  28.055  -3.210  1.00 17.19 LIG-0.23  N 
ATOM     70 1HH2 ARG P   5      30.295  30.000  -0.906  1.00 16.00 LIG 0.17  HD
ATOM     71 2HH2 ARG P   5      31.433  29.048  -1.036  1.00 16.00 LIG 0.17  HD
ATOM     72 1HH1 ARG P   5      30.595  27.797  -3.976  1.00 17.19 LIG 0.17  HD
ATOM     73 2HH1 ARG P   5      31.613  27.717  -2.891  1.00 17.19 LIG 0.17  HD
ENDBRANCH 64 65
ENDBRANCH 63 64
ENDBRANCH 62 63
ENDBRANCH 1 62
TORSDOF 28
ENDMDL
MODEL 13
USER: ADFR SOLUTION from run 158
USER: SCORE 20.399490 LL:  -4.964 LR: -16.793 RR:   0.000 FEB:  -8.440
USER: RMSD 9.594918
USER: SEED 157
USER: STATUS 1 or 2 clusters left
USER: GENES 30
USER: genes 0 Translation |==|  0.49754 0.62327 0.54891
USER: genes 1 Rotation |==|  0.11266 0.25028 0.68657 0.55294
USER: genes 2 Torsion [CB]-CA--N-[C] |==|  0.18594
USER: genes 3 Torsion [N]-C--CA-[N] |==|  0.46623
USER: genes 4 Torsion [C]-CA--N-[C] |==|  0.68192
USER: genes 5 Torsion [N]-C--CA-[N] |==|  0.13510
USER: genes 6 Torsion [C]-CA--CB-[CG] |==|  0.47584
USER: genes 7 Torsion [CA]-CB--CG-[CD] |==|  0.21297
USER: genes 8 Torsion [CB]-CG--CD-[OE1] |==|  0.59437
USER: genes 9 Torsion [C]-CA--N-[C] |==|  0.17745
USER: genes 10 Torsion [N]-C--CA-[N] |==|  0.89904
USER: genes 11 Torsion [C]-CA--CB-[CG] |==|  0.00036
USER: genes 12 Torsion [CA]-CB--CG-[CD2] |==|  0.81103
USER: genes 13 Torsion [N]-CA--C-[N] |==|  0.07908
USER: genes 14 Torsion [C]-N--CA-[CB] |==|  0.88776
USER: genes 15 Torsion [N]-CA--CB-[CG] |==|  0.81169
USER: genes 16 Torsion [CA]-CB--CG-[CD2] |==|  0.10843
USER: genes 17 Torsion [N]-CA--C-[N] |==|  0.37398
USER: genes 18 Torsion [C]-N--CA-[CB] |==|  0.85821
USER: genes 19 Torsion [N]-CA--C-[N] |==|  0.41667
USER: genes 20 Torsion [C]-N--CA-[CB] |==|  0.85612
USER: genes 21 Torsion [N]-CA--CB-[OG] |==|  0.44796
USER: genes 22 Torsion [CA]-CB--OG-[HG] |==|  0.85796
USER: genes 23 Torsion [N]-CA--C-[OXT] |==|  0.57662
USER: genes 24 Torsion [N]-CA--CB-[CG] |==|  0.65861
USER: genes 25 Torsion [CA]-CB--CG-[OD2] |==|  0.56074
USER: genes 26 Torsion [N]-CA--CB-[CG] |==|  0.54092
USER: genes 27 Torsion [CA]-CB--CG-[CD] |==|  0.28109
USER: genes 28 Torsion [CB]-CG--CD-[NE] |==|  0.42376
USER: genes 29 Torsion [CG]-CD--NE-[HE] |==|  0.05682
ROOT
ATOM      1  CA  ARG P   5      31.629  31.974  -5.647  1.00 16.30 LIG 0.18  C 
ENDROOT
BRANCH 1 2
ATOM      2  N   ARG P   5      31.387  30.529  -5.758  1.00 16.36 LIG-0.35  N 
ATOM      3  C   PHE P   4      32.386  29.665  -5.717  1.00 16.61 LIG 0.24  C 
ATOM      4 O    PHE P   4      33.553  29.992  -5.493  1.00 17.57 LIG-0.27  OA
ATOM      5 H    ARG P   5      30.560  30.308  -5.848  1.00 16.36 LIG 0.16  HD
BRANCH 3 6
ATOM      6  CA  PHE P   4      32.019  28.201  -5.961  1.00 17.34 LIG 0.18  C 
BRANCH 6 7
ATOM      7  N   PHE P   4      33.258  27.473  -6.163  1.00 18.03 LIG-0.35  N 
ATOM      8  C   GLU P   3      33.551  26.907  -7.336  1.00 20.04 LIG 0.24  C 
ATOM      9 O    GLU P   3      32.742  26.805  -8.244  1.00 20.03 LIG-0.27  OA
ATOM     10 H    PHE P   4      33.769  27.442  -5.473  1.00 18.03 LIG 0.16  HD
BRANCH 8 11
ATOM     11  CA  GLU P   3      34.967  26.350  -7.491  1.00 21.92 LIG 0.18  C 
BRANCH 11 12
ATOM     12  CB  GLU P   3      35.072  25.537  -8.782  1.00 22.70 LIG 0.04  C 
BRANCH 12 13
ATOM     13  CG  GLU P   3      36.501  25.136  -9.098  1.00 23.46 LIG 0.12  C 
BRANCH 13 14
ATOM     14  CD  GLU P   3      37.023  23.987  -8.264  1.00 23.38 LIG 0.17  C 
ATOM     15 OE1  GLU P   3      38.239  24.004  -7.962  1.00 24.20 LIG-0.65  OA
ATOM     16 OE2  GLU P   3      36.237  23.073  -7.936  1.00 25.77 LIG-0.65  OA
ENDBRANCH 13 14
ENDBRANCH 12 13
ENDBRANCH 11 12
BRANCH 11 17
ATOM     17  N   GLU P   3      35.276  25.525  -6.318  1.00 23.31 LIG-0.35  N 
ATOM     18 H    GLU P   3      35.921  25.819  -5.831  1.00 23.31 LIG 0.16  HD
ATOM     19  C   ALA P   2      34.591  24.417  -6.062  1.00 24.65 LIG 0.26  C 
ATOM     20 O    ALA P   2      33.516  24.157  -6.631  1.00 25.69 LIG-0.27  OA
BRANCH 19 21
ATOM     21  CA  ALA P   2      35.141  23.480  -4.972  1.00 24.82 LIG 0.40  C 
ATOM     22  N   ALA P   2      36.624  23.459  -5.005  1.00 26.06 LIG 0.61  N 
ATOM     23  CB  ALA P   2      34.660  23.902  -3.569  1.00 25.99 LIG 0.06  C 
ENDBRANCH 19 21
ENDBRANCH 11 17
ENDBRANCH 8 11
ENDBRANCH 6 7
BRANCH 6 24
ATOM     24  CB  PHE P   4      31.229  27.633  -4.763  1.00 16.70 LIG 0.07  C 
BRANCH 24 25
ATOM     25  CG  PHE P   4      30.998  28.630  -3.645  1.00 15.87 LIG-0.06  A 
ATOM     26  CD2 PHE P   4      32.063  29.091  -2.879  1.00 14.31 LIG 0.01  A 
ATOM     27  CE2 PHE P   4      31.855  29.987  -1.830  1.00 14.76 LIG 0.00  A 
ATOM     28  CZ  PHE P   4      30.560  30.425  -1.523  1.00 16.46 LIG 0.00  A 
ATOM     29  CE1 PHE P   4      29.488  29.975  -2.285  1.00 16.70 LIG 0.00  A 
ATOM     30  CD1 PHE P   4      29.720  29.070  -3.327  1.00 16.73 LIG 0.01  A 
ENDBRANCH 24 25
ENDBRANCH 6 24
ENDBRANCH 3 6
ENDBRANCH 1 2
BRANCH 1 31
ATOM     31  C   ARG P   5      30.321  32.768  -5.498  1.00 16.50 LIG 0.24  C 
ATOM     32  N   HIS P   6      29.302  32.138  -4.920  1.00 17.02 LIG-0.35  N 
ATOM     33 H    HIS P   6      29.308  31.310  -4.689  1.00 17.02 LIG 0.16  HD
ATOM     34 O    ARG P   5      30.244  33.940  -5.888  1.00 15.68 LIG-0.27  OA
BRANCH 32 35
ATOM     35  CA  HIS P   6      28.050  32.853  -4.632  1.00 18.55 LIG 0.18  C 
BRANCH 35 36
ATOM     36  CB  HIS P   6      28.330  34.259  -4.116  1.00 17.94 LIG 0.10  C 
BRANCH 36 37
ATOM     37  CG  HIS P   6      28.970  34.313  -2.767  1.00 17.06 LIG 0.06  A 
ATOM     38 ND1  HIS P   6      28.675  35.290  -1.843  1.00 15.40 LIG-0.24  NA
ATOM     39  CE1 HIS P   6      29.419  35.118  -0.766  1.00 15.09 LIG 0.23  A 
ATOM     40 NE2  HIS P   6      30.185  34.058  -0.954  1.00 16.22 LIG-0.25  NA
ATOM     41  CD2 HIS P   6      29.926  33.542  -2.206  1.00 16.02 LIG 0.14  A 
ENDBRANCH 36 37
ENDBRANCH 35 36
BRANCH 35 42
ATOM     42  C   HIS P   6      27.315  32.999  -5.941  1.00 20.42 LIG 0.24  C 
ATOM     43 O    HIS P   6      27.929  33.378  -6.934  1.00 21.09 LIG-0.27  OA
ATOM     44  N   ASP P   7      26.023  32.732  -5.982  1.00 22.91 LIG-0.34  N 
ATOM     45 H    ASP P   7      25.530  32.514  -5.313  1.00 22.91 LIG 0.16  HD
BRANCH 44 46
ATOM     46  CA  ASP P   7      25.347  32.812  -7.295  1.00 24.36 LIG 0.19  C 
BRANCH 46 47
ATOM     47  C   ASP P   7      25.641  31.631  -8.211  1.00 26.16 LIG 0.24  C 
ATOM     48  N   SER P   8      24.681  31.293  -9.074  1.00 27.90 LIG-0.34  N 
ATOM     49 H    SER P   8      23.898  31.650  -9.095  1.00 27.90 LIG 0.16  HD
ATOM     50 O    ASP P   7      26.703  31.021  -8.143  1.00 26.07 LIG-0.27  OA
BRANCH 48 51
ATOM     51  CA  SER P   8      24.907  30.252 -10.082  1.00 28.60 LIG 0.21  C 
BRANCH 51 52
ATOM     52  CB  SER P   8      26.189  30.548 -10.859  1.00 29.65 LIG 0.20  C 
BRANCH 52 53
ATOM     53 OG   SER P   8      26.656  29.382 -11.516  1.00 30.91 LIG-0.40  OA
ATOM     54 HG   SER P   8      26.699  28.748 -10.966  1.00 30.91 LIG 0.21  HD
ENDBRANCH 52 53
ENDBRANCH 51 52
BRANCH 51 55
ATOM     55  C   SER P   8      24.922  28.816  -9.469  1.00 29.85 LIG 0.20  C 
ATOM     56 OXT  SER P   8      25.561  27.890  -9.988  1.00 30.94 LIG-0.65  OA
ATOM     57 O    SER P   8      24.280  28.476  -8.463  1.00 30.51 LIG-0.65  OA
ENDBRANCH 51 55
ENDBRANCH 48 51
ENDBRANCH 46 47
BRANCH 46 58
ATOM     58  CB  ASP P   7      25.646  34.131  -7.975  1.00 24.61 LIG 0.15  C 
BRANCH 58 59
ATOM     59  CG  ASP P   7      24.384  34.886  -8.303  1.00 26.42 LIG 0.17  C 
ATOM     60 OD2  ASP P   7      24.421  35.745  -9.192  1.00 29.83 LIG-0.65  OA
ATOM     61 OD1  ASP P   7      23.338  34.590  -7.674  1.00 30.09 LIG-0.65  OA
ENDBRANCH 58 59
ENDBRANCH 46 58
ENDBRANCH 44 46
ENDBRANCH 35 42
ENDBRANCH 32 35
ENDBRANCH 1 31
BRANCH 1 62
ATOM     62  CB  ARG P   5      32.386  32.462  -6.871  1.00 16.24 LIG 0.04  C 
BRANCH 62 63
ATOM     63  CG  ARG P   5      33.005  33.840  -6.740  1.00 15.73 LIG 0.02  C 
BRANCH 63 64
ATOM     64  CD  ARG P   5      34.477  33.715  -6.459  1.00 15.69 LIG 0.14  C 
BRANCH 64 65
ATOM     65  NE  ARG P   5      35.278  34.855  -6.924  1.00 15.25 LIG-0.23  N 
ATOM     66 HE   ARG P   5      34.883  35.605  -7.068  1.00 15.25 LIG 0.18  HD
ATOM     67  CZ  ARG P   5      36.593  34.773  -7.133  1.00 16.06 LIG 0.67  C 
ATOM     68  NH2 ARG P   5      37.281  35.828  -7.574  1.00 16.00 LIG-0.23  N 
ATOM     69  NH1 ARG P   5      37.221  33.622  -6.932  1.00 17.19 LIG-0.23  N 
ATOM     70 1HH2 ARG P   5      36.876  36.571  -7.726  1.00 16.00 LIG 0.17  HD
ATOM     71 2HH2 ARG P   5      38.128  35.765  -7.705  1.00 16.00 LIG 0.17  HD
ATOM     72 1HH1 ARG P   5      36.781  32.932  -6.669  1.00 17.19 LIG 0.17  HD
ATOM     73 2HH1 ARG P   5      38.069  33.566  -7.066  1.00 17.19 LIG 0.17  HD
ENDBRANCH 64 65
ENDBRANCH 63 64
ENDBRANCH 62 63
ENDBRANCH 1 62
TORSDOF 28
ENDMDL
MODEL 14
USER: ADFR SOLUTION from run 187
USER: SCORE 20.258503 LL:  -5.518 LR: -16.772 RR:   0.000 FEB:  -8.420
USER: RMSD 8.453387
USER: SEED 186
USER: STATUS searching
USER: GENES 30
USER: genes 0 Translation |==|  0.56448 0.48529 0.51602
USER: genes 1 Rotation |==|  0.60991 0.01701 0.45907 0.55446
USER: genes 2 Torsion [CB]-CA--N-[C] |==|  0.78701
USER: genes 3 Torsion [N]-C--CA-[N] |==|  0.87649
USER: genes 4 Torsion [C]-CA--N-[C] |==|  0.82784
USER: genes 5 Torsion [N]-C--CA-[N] |==|  0.14043
USER: genes 6 Torsion [C]-CA--CB-[CG] |==|  0.23398
USER: genes 7 Torsion [CA]-CB--CG-[CD] |==|  0.25377
USER: genes 8 Torsion [CB]-CG--CD-[OE1] |==|  0.59502
USER: genes 9 Torsion [C]-CA--N-[C] |==|  0.77327
USER: genes 10 Torsion [N]-C--CA-[N] |==|  0.53578
USER: genes 11 Torsion [C]-CA--CB-[CG] |==|  0.51776
USER: genes 12 Torsion [CA]-CB--CG-[CD2] |==|  0.38249
USER: genes 13 Torsion [N]-CA--C-[N] |==|  0.14290
USER: genes 14 Torsion [C]-N--CA-[CB] |==|  0.51111
USER: genes 15 Torsion [N]-CA--CB-[CG] |==|  0.27553
USER: genes 16 Torsion [CA]-CB--CG-[CD2] |==|  0.28185
USER: genes 17 Torsion [N]-CA--C-[N] |==|  0.45586
USER: genes 18 Torsion [C]-N--CA-[CB] |==|  0.53538
USER: genes 19 Torsion [N]-CA--C-[N] |==|  0.32409
USER: genes 20 Torsion [C]-N--CA-[CB] |==|  0.23720
USER: genes 21 Torsion [N]-CA--CB-[OG] |==|  0.02381
USER: genes 22 Torsion [CA]-CB--OG-[HG] |==|  0.30852
USER: genes 23 Torsion [N]-CA--C-[OXT] |==|  0.02327
USER: genes 24 Torsion [N]-CA--CB-[CG] |==|  0.39540
USER: genes 25 Torsion [CA]-CB--CG-[OD2] |==|  0.70932
USER: genes 26 Torsion [N]-CA--CB-[CG] |==|  0.83588
USER: genes 27 Torsion [CA]-CB--CG-[CD] |==|  0.84598
USER: genes 28 Torsion [CB]-CG--CD-[NE] |==|  0.81810
USER: genes 29 Torsion [CG]-CD--NE-[HE] |==|  0.30929
ROOT
ATOM      1  CA  ARG P   5      33.185  28.662  -6.289  1.00 16.30 LIG 0.18  C 
ENDROOT
BRANCH 1 2
ATOM      2  N   ARG P   5      33.899  29.787  -6.908  1.00 16.36 LIG-0.35  N 
ATOM      3  C   PHE P   4      33.793  30.034  -8.201  1.00 16.61 LIG 0.24  C 
ATOM      4 O    PHE P   4      33.031  29.414  -8.947  1.00 17.57 LIG-0.27  OA
ATOM      5 H    ARG P   5      34.377  30.252  -6.364  1.00 16.36 LIG 0.16  HD
BRANCH 3 6
ATOM      6  CA  PHE P   4      34.675  31.156  -8.746  1.00 17.34 LIG 0.18  C 
BRANCH 6 7
ATOM      7  N   PHE P   4      34.589  32.266  -7.815  1.00 18.03 LIG-0.35  N 
ATOM      8  C   GLU P   3      33.432  32.884  -7.570  1.00 20.04 LIG 0.24  C 
ATOM      9 O    GLU P   3      32.424  32.689  -8.230  1.00 20.03 LIG-0.27  OA
ATOM     10 H    PHE P   4      35.337  32.480  -7.446  1.00 18.03 LIG 0.16  HD
BRANCH 8 11
ATOM     11  CA  GLU P   3      33.426  33.895  -6.422  1.00 21.92 LIG 0.18  C 
BRANCH 11 12
ATOM     12  CB  GLU P   3      32.093  34.645  -6.391  1.00 22.70 LIG 0.04  C 
BRANCH 12 13
ATOM     13  CG  GLU P   3      31.019  33.882  -5.638  1.00 23.46 LIG 0.12  C 
BRANCH 13 14
ATOM     14  CD  GLU P   3      30.936  34.217  -4.166  1.00 23.38 LIG 0.17  C 
ATOM     15 OE1  GLU P   3      30.623  33.289  -3.383  1.00 24.20 LIG-0.65  OA
ATOM     16 OE2  GLU P   3      31.157  35.390  -3.799  1.00 25.77 LIG-0.65  OA
ENDBRANCH 13 14
ENDBRANCH 12 13
ENDBRANCH 11 12
BRANCH 11 17
ATOM     17  N   GLU P   3      34.551  34.818  -6.607  1.00 23.31 LIG-0.35  N 
ATOM     18 H    GLU P   3      34.343  35.569  -6.972  1.00 23.31 LIG 0.16  HD
ATOM     19  C   ALA P   2      35.778  34.486  -6.226  1.00 24.65 LIG 0.26  C 
ATOM     20 O    ALA P   2      36.000  33.515  -5.482  1.00 25.69 LIG-0.27  OA
BRANCH 19 21
ATOM     21  CA  ALA P   2      36.933  35.393  -6.687  1.00 24.82 LIG 0.40  C 
ATOM     22  N   ALA P   2      38.239  34.731  -6.450  1.00 26.06 LIG 0.61  N 
ATOM     23  CB  ALA P   2      36.802  35.762  -8.177  1.00 25.99 LIG 0.06  C 
ENDBRANCH 19 21
ENDBRANCH 11 17
ENDBRANCH 8 11
ENDBRANCH 6 7
BRANCH 6 24
ATOM     24  CB  PHE P   4      36.133  30.673  -8.902  1.00 16.70 LIG 0.07  C 
BRANCH 24 25
ATOM     25  CG  PHE P   4      37.109  31.765  -9.292  1.00 15.87 LIG-0.06  A 
ATOM     26  CD2 PHE P   4      38.360  31.841  -8.691  1.00 14.31 LIG 0.01  A 
ATOM     27  CE2 PHE P   4      39.253  32.860  -9.024  1.00 14.76 LIG 0.00  A 
ATOM     28  CZ  PHE P   4      38.892  33.834  -9.964  1.00 16.46 LIG 0.00  A 
ATOM     29  CE1 PHE P   4      37.646  33.765 -10.576  1.00 16.70 LIG 0.00  A 
ATOM     30  CD1 PHE P   4      36.764  32.738 -10.220  1.00 16.73 LIG 0.01  A 
ENDBRANCH 24 25
ENDBRANCH 6 24
ENDBRANCH 3 6
ENDBRANCH 1 2
BRANCH 1 31
ATOM     31  C   ARG P   5      33.310  27.373  -7.116  1.00 16.50 LIG 0.24  C 
ATOM     32  N   HIS P   6      34.540  27.003  -7.465  1.00 17.02 LIG-0.35  N 
ATOM     33 H    HIS P   6      35.249  27.466  -7.315  1.00 17.02 LIG 0.16  HD
ATOM     34 O    ARG P   5      32.307  26.716  -7.421  1.00 15.68 LIG-0.27  OA
BRANCH 32 35
ATOM     35  CA  HIS P   6      34.767  25.727  -8.158  1.00 18.55 LIG 0.18  C 
BRANCH 35 36
ATOM     36  CB  HIS P   6      36.255  25.475  -8.366  1.00 17.94 LIG 0.10  C 
BRANCH 36 37
ATOM     37  CG  HIS P   6      36.879  24.554  -7.369  1.00 17.06 LIG 0.06  A 
ATOM     38 ND1  HIS P   6      37.280  24.972  -6.121  1.00 15.40 LIG-0.24  NA
ATOM     39  CE1 HIS P   6      37.835  23.963  -5.475  1.00 15.09 LIG 0.23  A 
ATOM     40 NE2  HIS P   6      37.804  22.900  -6.258  1.00 16.22 LIG-0.25  NA
ATOM     41  CD2 HIS P   6      37.215  23.249  -7.454  1.00 16.02 LIG 0.14  A 
ENDBRANCH 36 37
ENDBRANCH 35 36
BRANCH 35 42
ATOM     42  C   HIS P   6      34.255  24.636  -7.250  1.00 20.42 LIG 0.24  C 
ATOM     43 O    HIS P   6      34.060  24.886  -6.065  1.00 21.09 LIG-0.27  OA
ATOM     44  N   ASP P   7      34.047  23.433  -7.751  1.00 22.91 LIG-0.34  N 
ATOM     45 H    ASP P   7      34.214  23.184  -8.557  1.00 22.91 LIG 0.16  HD
BRANCH 44 46
ATOM     46  CA  ASP P   7      33.475  22.406  -6.853  1.00 24.36 LIG 0.19  C 
BRANCH 46 47
ATOM     47  C   ASP P   7      34.046  22.436  -5.441  1.00 26.16 LIG 0.24  C 
ATOM     48  N   SER P   8      33.188  22.720  -4.459  1.00 27.90 LIG-0.34  N 
ATOM     49 H    SER P   8      32.369  22.951  -4.581  1.00 27.90 LIG 0.16  HD
ATOM     50 O    ASP P   7      35.234  22.221  -5.230  1.00 26.07 LIG-0.27  OA
BRANCH 48 51
ATOM     51  CA  SER P   8      33.605  22.655  -3.055  1.00 28.60 LIG 0.21  C 
BRANCH 51 52
ATOM     52  CB  SER P   8      34.254  23.975  -2.641  1.00 29.65 LIG 0.20  C 
BRANCH 52 53
ATOM     53 OG   SER P   8      34.096  24.951  -3.658  1.00 30.91 LIG-0.40  OA
ATOM     54 HG   SER P   8      33.569  25.549  -3.392  1.00 30.91 LIG 0.21  HD
ENDBRANCH 52 53
ENDBRANCH 51 52
BRANCH 51 55
ATOM     55  C   SER P   8      32.436  22.263  -2.097  1.00 29.85 LIG 0.20  C 
ATOM     56 OXT  SER P   8      31.336  21.891  -2.527  1.00 30.94 LIG-0.65  OA
ATOM     57 O    SER P   8      32.491  22.327  -0.859  1.00 30.51 LIG-0.65  OA
ENDBRANCH 51 55
ENDBRANCH 48 51
ENDBRANCH 46 47
BRANCH 46 58
ATOM     58  CB  ASP P   7      33.588  21.029  -7.470  1.00 24.61 LIG 0.15  C 
BRANCH 58 59
ATOM     59  CG  ASP P   7      33.904  19.980  -6.435  1.00 26.42 LIG 0.17  C 
ATOM     60 OD2  ASP P   7      35.054  19.528  -6.378  1.00 29.83 LIG-0.65  OA
ATOM     61 OD1  ASP P   7      32.986  19.627  -5.652  1.00 30.09 LIG-0.65  OA
ENDBRANCH 58 59
ENDBRANCH 46 58
ENDBRANCH 44 46
ENDBRANCH 35 42
ENDBRANCH 32 35
ENDBRANCH 1 31
BRANCH 1 62
ATOM     62  CB  ARG P   5      31.718  29.018  -6.117  1.00 16.24 LIG 0.04  C 
BRANCH 62 63
ATOM     63  CG  ARG P   5      31.445  30.242  -5.265  1.00 15.73 LIG 0.02  C 
BRANCH 63 64
ATOM     64  CD  ARG P   5      32.089  30.080  -3.915  1.00 15.69 LIG 0.14  C 
BRANCH 64 65
ATOM     65  NE  ARG P   5      31.521  28.994  -3.104  1.00 15.25 LIG-0.23  N 
ATOM     66 HE   ARG P   5      32.002  28.299  -2.950  1.00 15.25 LIG 0.18  HD
ATOM     67  CZ  ARG P   5      30.287  29.045  -2.597  1.00 16.06 LIG 0.67  C 
ATOM     68  NH2 ARG P   5      29.802  28.030  -1.881  1.00 16.00 LIG-0.23  N 
ATOM     69  NH1 ARG P   5      29.521  30.101  -2.835  1.00 17.19 LIG-0.23  N 
ATOM     70 1HH2 ARG P   5      30.286  27.333  -1.742  1.00 16.00 LIG 0.17  HD
ATOM     71 2HH2 ARG P   5      29.006  28.072  -1.559  1.00 16.00 LIG 0.17  HD
ATOM     72 1HH1 ARG P   5      29.819  30.750  -3.314  1.00 17.19 LIG 0.17  HD
ATOM     73 2HH1 ARG P   5      28.725  30.137  -2.509  1.00 17.19 LIG 0.17  HD
ENDBRANCH 64 65
ENDBRANCH 63 64
ENDBRANCH 62 63
ENDBRANCH 1 62
TORSDOF 28
ENDMDL
MODEL 15
USER: ADFR SOLUTION from run 105
USER: SCORE 18.317392 LL:  -5.079 LR: -16.756 RR:   0.000 FEB:  -8.404
USER: RMSD 6.433297
USER: SEED 104
USER: STATUS searching
USER: GENES 30
USER: genes 0 Translation |==|  0.56721 0.51577 0.54340
USER: genes 1 Rotation |==|  0.81060 0.13604 0.35490 0.50246
USER: genes 2 Torsion [CB]-CA--N-[C] |==|  0.18916
USER: genes 3 Torsion [N]-C--CA-[N] |==|  0.05102
USER: genes 4 Torsion [C]-CA--N-[C] |==|  0.57095
USER: genes 5 Torsion [N]-C--CA-[N] |==|  0.50362
USER: genes 6 Torsion [C]-CA--CB-[CG] |==|  0.84857
USER: genes 7 Torsion [CA]-CB--CG-[CD] |==|  0.32506
USER: genes 8 Torsion [CB]-CG--CD-[OE1] |==|  0.23907
USER: genes 9 Torsion [C]-CA--N-[C] |==|  0.75774
USER: genes 10 Torsion [N]-C--CA-[N] |==|  0.21291
USER: genes 11 Torsion [C]-CA--CB-[CG] |==|  0.31619
USER: genes 12 Torsion [CA]-CB--CG-[CD2] |==|  0.24738
USER: genes 13 Torsion [N]-CA--C-[N] |==|  0.45805
USER: genes 14 Torsion [C]-N--CA-[CB] |==|  0.25390
USER: genes 15 Torsion [N]-CA--CB-[CG] |==|  0.29317
USER: genes 16 Torsion [CA]-CB--CG-[CD2] |==|  0.77001
USER: genes 17 Torsion [N]-CA--C-[N] |==|  0.97464
USER: genes 18 Torsion [C]-N--CA-[CB] |==|  0.23966
USER: genes 19 Torsion [N]-CA--C-[N] |==|  0.44679
USER: genes 20 Torsion [C]-N--CA-[CB] |==|  0.39615
USER: genes 21 Torsion [N]-CA--CB-[OG] |==|  0.89941
USER: genes 22 Torsion [CA]-CB--OG-[HG] |==|  0.61728
USER: genes 23 Torsion [N]-CA--C-[OXT] |==|  0.99234
USER: genes 24 Torsion [N]-CA--CB-[CG] |==|  0.19736
USER: genes 25 Torsion [CA]-CB--CG-[OD2] |==|  0.43867
USER: genes 26 Torsion [N]-CA--CB-[CG] |==|  0.64717
USER: genes 27 Torsion [CA]-CB--CG-[CD] |==|  0.36584
USER: genes 28 Torsion [CB]-CG--CD-[NE] |==|  0.72442
USER: genes 29 Torsion [CG]-CD--NE-[HE] |==|  0.86187
ROOT
ATOM      1  CA  ARG P   5      33.249  29.394  -5.755  1.00 16.30 LIG 0.18  C 
ENDROOT
BRANCH 1 2
ATOM      2  N   ARG P   5      32.804  30.774  -5.521  1.00 16.36 LIG-0.35  N 
ATOM      3  C   PHE P   4      32.163  31.107  -4.415  1.00 16.61 LIG 0.24  C 
ATOM      4 O    PHE P   4      31.979  30.325  -3.480  1.00 17.57 LIG-0.27  OA
ATOM      5 H    ARG P   5      32.997  31.326  -6.153  1.00 16.36 LIG 0.16  HD
BRANCH 3 6
ATOM      6  CA  PHE P   4      31.649  32.544  -4.342  1.00 17.34 LIG 0.18  C 
BRANCH 6 7
ATOM      7  N   PHE P   4      31.621  33.064  -5.697  1.00 18.03 LIG-0.35  N 
ATOM      8  C   GLU P   3      31.713  34.371  -5.945  1.00 20.04 LIG 0.24  C 
ATOM      9 O    GLU P   3      31.643  35.219  -5.070  1.00 20.03 LIG-0.27  OA
ATOM     10 H    PHE P   4      31.542  32.462  -6.307  1.00 18.03 LIG 0.16  HD
BRANCH 8 11
ATOM     11  CA  GLU P   3      31.881  34.779  -7.410  1.00 21.92 LIG 0.18  C 
BRANCH 11 12
ATOM     12  CB  GLU P   3      33.117  34.101  -8.004  1.00 22.70 LIG 0.04  C 
BRANCH 12 13
ATOM     13  CG  GLU P   3      34.370  34.370  -7.192  1.00 23.46 LIG 0.12  C 
BRANCH 13 14
ATOM     14  CD  GLU P   3      34.994  33.134  -6.585  1.00 23.38 LIG 0.17  C 
ATOM     15 OE1  GLU P   3      35.795  32.485  -7.297  1.00 24.20 LIG-0.65  OA
ATOM     16 OE2  GLU P   3      34.672  32.803  -5.424  1.00 25.77 LIG-0.65  OA
ENDBRANCH 13 14
ENDBRANCH 12 13
ENDBRANCH 11 12
BRANCH 11 17
ATOM     17  N   GLU P   3      31.994  36.240  -7.478  1.00 23.31 LIG-0.35  N 
ATOM     18 H    GLU P   3      32.800  36.540  -7.459  1.00 23.31 LIG 0.16  HD
ATOM     19  C   ALA P   2      30.913  37.006  -7.562  1.00 24.65 LIG 0.26  C 
ATOM     20 O    ALA P   2      29.794  36.542  -7.840  1.00 25.69 LIG-0.27  OA
BRANCH 19 21
ATOM     21  CA  ALA P   2      31.102  38.521  -7.368  1.00 24.82 LIG 0.40  C 
ATOM     22  N   ALA P   2      31.686  39.132  -8.588  1.00 26.06 LIG 0.61  N 
ATOM     23  CB  ALA P   2      29.770  39.217  -7.028  1.00 25.99 LIG 0.06  C 
ENDBRANCH 19 21
ENDBRANCH 11 17
ENDBRANCH 8 11
ENDBRANCH 6 7
BRANCH 6 24
ATOM     24  CB  PHE P   4      30.246  32.587  -3.701  1.00 16.70 LIG 0.07  C 
BRANCH 24 25
ATOM     25  CG  PHE P   4      30.200  33.290  -2.359  1.00 15.87 LIG-0.06  A 
ATOM     26  CD2 PHE P   4      29.977  34.660  -2.287  1.00 14.31 LIG 0.01  A 
ATOM     27  CE2 PHE P   4      29.962  35.319  -1.058  1.00 14.76 LIG 0.00  A 
ATOM     28  CZ  PHE P   4      30.186  34.606   0.127  1.00 16.46 LIG 0.00  A 
ATOM     29  CE1 PHE P   4      30.405  33.235   0.069  1.00 16.70 LIG 0.00  A 
ATOM     30  CD1 PHE P   4      30.424  32.597  -1.177  1.00 16.73 LIG 0.01  A 
ENDBRANCH 24 25
ENDBRANCH 6 24
ENDBRANCH 3 6
ENDBRANCH 1 2
BRANCH 1 31
ATOM     31  C   ARG P   5      34.181  29.285  -6.972  1.00 16.50 LIG 0.24  C 
ATOM     32  N   HIS P   6      34.881  28.159  -7.090  1.00 17.02 LIG-0.35  N 
ATOM     33 H    HIS P   6      34.893  27.529  -6.506  1.00 17.02 LIG 0.16  HD
ATOM     34 O    ARG P   5      34.254  30.203  -7.798  1.00 15.68 LIG-0.27  OA
BRANCH 32 35
ATOM     35  CA  HIS P   6      35.711  27.919  -8.280  1.00 18.55 LIG 0.18  C 
BRANCH 35 36
ATOM     36  CB  HIS P   6      37.134  28.417  -8.063  1.00 17.94 LIG 0.10  C 
BRANCH 36 37
ATOM     37  CG  HIS P   6      38.145  27.341  -7.836  1.00 17.06 LIG 0.06  A 
ATOM     38 ND1  HIS P   6      38.905  26.809  -8.852  1.00 15.40 LIG-0.24  NA
ATOM     39  CE1 HIS P   6      39.676  25.850  -8.372  1.00 15.09 LIG 0.23  A 
ATOM     40 NE2  HIS P   6      39.448  25.744  -7.075  1.00 16.22 LIG-0.25  NA
ATOM     41  CD2 HIS P   6      38.486  26.664  -6.718  1.00 16.02 LIG 0.14  A 
ENDBRANCH 36 37
ENDBRANCH 35 36
BRANCH 35 42
ATOM     42  C   HIS P   6      35.787  26.424  -8.467  1.00 20.42 LIG 0.24  C 
ATOM     43 O    HIS P   6      36.271  25.973  -9.501  1.00 21.09 LIG-0.27  OA
ATOM     44  N   ASP P   7      35.314  25.635  -7.519  1.00 22.91 LIG-0.34  N 
ATOM     45 H    ASP P   7      34.919  25.890  -6.800  1.00 22.91 LIG 0.16  HD
BRANCH 44 46
ATOM     46  CA  ASP P   7      35.471  24.176  -7.699  1.00 24.36 LIG 0.19  C 
BRANCH 46 47
ATOM     47  C   ASP P   7      34.329  23.358  -7.110  1.00 26.16 LIG 0.24  C 
ATOM     48  N   SER P   8      34.196  22.109  -7.563  1.00 27.90 LIG-0.34  N 
ATOM     49 H    SER P   8      34.661  21.773  -8.203  1.00 27.90 LIG 0.16  HD
ATOM     50 O    ASP P   7      33.571  23.833  -6.272  1.00 26.07 LIG-0.27  OA
BRANCH 48 51
ATOM     51  CA  SER P   8      33.209  21.198  -6.976  1.00 28.60 LIG 0.21  C 
BRANCH 51 52
ATOM     52  CB  SER P   8      32.589  20.327  -8.067  1.00 29.65 LIG 0.20  C 
BRANCH 52 53
ATOM     53 OG   SER P   8      32.433  21.064  -9.268  1.00 30.91 LIG-0.40  OA
ATOM     54 HG   SER P   8      31.686  20.889  -9.610  1.00 30.91 LIG 0.21  HD
ENDBRANCH 52 53
ENDBRANCH 51 52
BRANCH 51 55
ATOM     55  C   SER P   8      33.802  20.335  -5.817  1.00 29.85 LIG 0.20  C 
ATOM     56 OXT  SER P   8      34.996  20.404  -5.496  1.00 30.94 LIG-0.65  OA
ATOM     57 O    SER P   8      33.158  19.499  -5.164  1.00 30.51 LIG-0.65  OA
ENDBRANCH 51 55
ENDBRANCH 48 51
ENDBRANCH 46 47
BRANCH 46 58
ATOM     58  CB  ASP P   7      36.814  23.711  -7.180  1.00 24.61 LIG 0.15  C 
BRANCH 58 59
ATOM     59  CG  ASP P   7      36.877  23.763  -5.675  1.00 26.42 LIG 0.17  C 
ATOM     60 OD2  ASP P   7      37.706  23.055  -5.090  1.00 29.83 LIG-0.65  OA
ATOM     61 OD1  ASP P   7      36.099  24.548  -5.077  1.00 30.09 LIG-0.65  OA
ENDBRANCH 58 59
ENDBRANCH 46 58
ENDBRANCH 44 46
ENDBRANCH 35 42
ENDBRANCH 32 35
ENDBRANCH 1 31
BRANCH 1 62
ATOM     62  CB  ARG P   5      32.041  28.493  -5.955  1.00 16.24 LIG 0.04  C 
BRANCH 62 63
ATOM     63  CG  ARG P   5      31.993  27.268  -5.063  1.00 15.73 LIG 0.02  C 
BRANCH 63 64
ATOM     64  CD  ARG P   5      30.634  27.147  -4.432  1.00 15.69 LIG 0.14  C 
BRANCH 64 65
ATOM     65  NE  ARG P   5      30.563  27.650  -3.054  1.00 15.25 LIG-0.23  N 
ATOM     66 HE   ARG P   5      31.154  27.387  -2.488  1.00 15.25 LIG 0.18  HD
ATOM     67  CZ  ARG P   5      29.617  28.499  -2.646  1.00 16.06 LIG 0.67  C 
ATOM     68  NH2 ARG P   5      29.578  28.917  -1.380  1.00 16.00 LIG-0.23  N 
ATOM     69  NH1 ARG P   5      28.686  28.906  -3.497  1.00 17.19 LIG-0.23  N 
ATOM     70 1HH2 ARG P   5      30.166  28.640  -0.817  1.00 16.00 LIG 0.17  HD
ATOM     71 2HH2 ARG P   5      28.965  29.464  -1.126  1.00 16.00 LIG 0.17  HD
ATOM     72 1HH1 ARG P   5      28.692  28.623  -4.309  1.00 17.19 LIG 0.17  HD
ATOM     73 2HH1 ARG P   5      28.075  29.454  -3.237  1.00 17.19 LIG 0.17  HD
ENDBRANCH 64 65
ENDBRANCH 63 64
ENDBRANCH 62 63
ENDBRANCH 1 62
TORSDOF 28
ENDMDL
MODEL 16
USER: ADFR SOLUTION from run 75
USER: SCORE 19.624672 LL:  -6.551 LR: -16.756 RR:   0.000 FEB:  -8.404
USER: RMSD 6.734170
USER: SEED 74
USER: STATUS no improvement in best in 5 clusters for 5 generations
USER: GENES 30
USER: genes 0 Translation |==|  0.53281 0.40028 0.55643
USER: genes 1 Rotation |==|  0.43568 0.78375 0.44119 0.90235
USER: genes 2 Torsion [CB]-CA--N-[C] |==|  0.22145
USER: genes 3 Torsion [N]-C--CA-[N] |==|  0.36228
USER: genes 4 Torsion [C]-CA--N-[C] |==|  0.86481
USER: genes 5 Torsion [N]-C--CA-[N] |==|  0.44845
USER: genes 6 Torsion [C]-CA--CB-[CG] |==|  0.37342
USER: genes 7 Torsion [CA]-CB--CG-[CD] |==|  0.88051
USER: genes 8 Torsion [CB]-CG--CD-[OE1] |==|  0.73613
USER: genes 9 Torsion [C]-CA--N-[C] |==|  0.62065
USER: genes 10 Torsion [N]-C--CA-[N] |==|  0.36442
USER: genes 11 Torsion [C]-CA--CB-[CG] |==|  0.60620
USER: genes 12 Torsion [CA]-CB--CG-[CD2] |==|  0.78467
USER: genes 13 Torsion [N]-CA--C-[N] |==|  0.97981
USER: genes 14 Torsion [C]-N--CA-[CB] |==|  0.82503
USER: genes 15 Torsion [N]-CA--CB-[CG] |==|  0.68748
USER: genes 16 Torsion [CA]-CB--CG-[CD2] |==|  0.30655
USER: genes 17 Torsion [N]-CA--C-[N] |==|  0.72261
USER: genes 18 Torsion [C]-N--CA-[CB] |==|  0.40157
USER: genes 19 Torsion [N]-CA--C-[N] |==|  0.75440
USER: genes 20 Torsion [C]-N--CA-[CB] |==|  0.48458
USER: genes 21 Torsion [N]-CA--CB-[OG] |==|  0.03907
USER: genes 22 Torsion [CA]-CB--OG-[HG] |==|  0.30737
USER: genes 23 Torsion [N]-CA--C-[OXT] |==|  0.39963
USER: genes 24 Torsion [N]-CA--CB-[CG] |==|  0.94537
USER: genes 25 Torsion [CA]-CB--CG-[OD2] |==|  0.71367
USER: genes 26 Torsion [N]-CA--CB-[CG] |==|  0.80914
USER: genes 27 Torsion [CA]-CB--CG-[CD] |==|  0.55349
USER: genes 28 Torsion [CB]-CG--CD-[NE] |==|  0.15763
USER: genes 29 Torsion [CG]-CD--NE-[HE] |==|  0.82896
ROOT
ATOM      1  CA  ARG P   5      32.449  26.622  -5.501  1.00 16.30 LIG 0.18  C 
ENDROOT
BRANCH 1 2
ATOM      2  N   ARG P   5      32.582  27.623  -4.434  1.00 16.36 LIG-0.35  N 
ATOM      3  C   PHE P   4      31.773  28.665  -4.372  1.00 16.61 LIG 0.24  C 
ATOM      4 O    PHE P   4      30.811  28.820  -5.128  1.00 17.57 LIG-0.27  OA
ATOM      5 H    ARG P   5      33.217  27.469  -3.874  1.00 16.36 LIG 0.16  HD
BRANCH 3 6
ATOM      6  CA  PHE P   4      32.087  29.697  -3.288  1.00 17.34 LIG 0.18  C 
BRANCH 6 7
ATOM      7  N   PHE P   4      32.093  31.002  -3.921  1.00 18.03 LIG-0.35  N 
ATOM      8  C   GLU P   3      32.768  31.228  -5.050  1.00 20.04 LIG 0.24  C 
ATOM      9 O    GLU P   3      33.559  30.427  -5.521  1.00 20.03 LIG-0.27  OA
ATOM     10 H    PHE P   4      31.630  31.599  -3.510  1.00 18.03 LIG 0.16  HD
BRANCH 8 11
ATOM     11  CA  GLU P   3      32.531  32.577  -5.731  1.00 21.92 LIG 0.18  C 
BRANCH 11 12
ATOM     12  CB  GLU P   3      31.188  32.566  -6.463  1.00 22.70 LIG 0.04  C 
BRANCH 12 13
ATOM     13  CG  GLU P   3      30.380  33.824  -6.206  1.00 23.46 LIG 0.12  C 
BRANCH 13 14
ATOM     14  CD  GLU P   3      30.382  34.281  -4.765  1.00 23.38 LIG 0.17  C 
ATOM     15 OE1  GLU P   3      29.426  33.911  -4.044  1.00 24.20 LIG-0.65  OA
ATOM     16 OE2  GLU P   3      31.311  35.014  -4.365  1.00 25.77 LIG-0.65  OA
ENDBRANCH 13 14
ENDBRANCH 12 13
ENDBRANCH 11 12
BRANCH 11 17
ATOM     17  N   GLU P   3      33.638  32.834  -6.658  1.00 23.31 LIG-0.35  N 
ATOM     18 H    GLU P   3      33.875  32.156  -7.132  1.00 23.31 LIG 0.16  HD
ATOM     19  C   ALA P   2      34.205  34.032  -6.730  1.00 24.65 LIG 0.26  C 
ATOM     20 O    ALA P   2      33.684  35.042  -6.227  1.00 25.69 LIG-0.27  OA
BRANCH 19 21
ATOM     21  CA  ALA P   2      35.516  34.149  -7.529  1.00 24.82 LIG 0.40  C 
ATOM     22  N   ALA P   2      35.447  35.289  -8.476  1.00 26.06 LIG 0.61  N 
ATOM     23  CB  ALA P   2      36.731  34.323  -6.597  1.00 25.99 LIG 0.06  C 
ENDBRANCH 19 21
ENDBRANCH 11 17
ENDBRANCH 8 11
ENDBRANCH 6 7
BRANCH 6 24
ATOM     24  CB  PHE P   4      31.039  29.631  -2.157  1.00 16.70 LIG 0.07  C 
BRANCH 24 25
ATOM     25  CG  PHE P   4      30.655  30.984  -1.591  1.00 15.87 LIG-0.06  A 
ATOM     26  CD2 PHE P   4      31.497  31.642  -0.702  1.00 14.31 LIG 0.01  A 
ATOM     27  CE2 PHE P   4      31.138  32.873  -0.153  1.00 14.76 LIG 0.00  A 
ATOM     28  CZ  PHE P   4      29.909  33.460  -0.483  1.00 16.46 LIG 0.00  A 
ATOM     29  CE1 PHE P   4      29.061  32.814  -1.375  1.00 16.70 LIG 0.00  A 
ATOM     30  CD1 PHE P   4      29.439  31.576  -1.906  1.00 16.73 LIG 0.01  A 
ENDBRANCH 24 25
ENDBRANCH 6 24
ENDBRANCH 3 6
ENDBRANCH 1 2
BRANCH 1 31
ATOM     31  C   ARG P   5      33.082  25.276  -5.112  1.00 16.50 LIG 0.24  C 
ATOM     32  N   HIS P   6      33.772  25.246  -3.975  1.00 17.02 LIG-0.35  N 
ATOM     33 H    HIS P   6      33.937  25.934  -3.487  1.00 17.02 LIG 0.16  HD
ATOM     34 O    ARG P   5      32.935  24.277  -5.827  1.00 15.68 LIG-0.27  OA
BRANCH 32 35
ATOM     35  CA  HIS P   6      34.316  23.979  -3.465  1.00 18.55 LIG 0.18  C 
BRANCH 35 36
ATOM     36  CB  HIS P   6      33.199  22.996  -3.140  1.00 17.94 LIG 0.10  C 
BRANCH 36 37
ATOM     37  CG  HIS P   6      33.040  22.690  -1.686  1.00 17.06 LIG 0.06  A 
ATOM     38 ND1  HIS P   6      33.936  21.912  -0.989  1.00 15.40 LIG-0.24  NA
ATOM     39  CE1 HIS P   6      33.522  21.772   0.258  1.00 15.09 LIG 0.23  A 
ATOM     40 NE2  HIS P   6      32.389  22.437   0.397  1.00 16.22 LIG-0.25  NA
ATOM     41  CD2 HIS P   6      32.064  23.015  -0.812  1.00 16.02 LIG 0.14  A 
ENDBRANCH 36 37
ENDBRANCH 35 36
BRANCH 35 42
ATOM     42  C   HIS P   6      35.132  23.371  -4.579  1.00 20.42 LIG 0.24  C 
ATOM     43 O    HIS P   6      36.265  23.792  -4.791  1.00 21.09 LIG-0.27  OA
ATOM     44  N   ASP P   7      34.598  22.411  -5.312  1.00 22.91 LIG-0.34  N 
ATOM     45 H    ASP P   7      33.795  22.111  -5.246  1.00 22.91 LIG 0.16  HD
BRANCH 44 46
ATOM     46  CA  ASP P   7      35.449  21.785  -6.347  1.00 24.36 LIG 0.19  C 
BRANCH 46 47
ATOM     47  C   ASP P   7      35.396  22.491  -7.696  1.00 26.16 LIG 0.24  C 
ATOM     48  N   SER P   8      34.442  22.092  -8.540  1.00 27.90 LIG-0.34  N 
ATOM     49 H    SER P   8      33.913  21.428  -8.396  1.00 27.90 LIG 0.16  HD
ATOM     50 O    ASP P   7      36.200  23.370  -7.988  1.00 26.07 LIG-0.27  OA
BRANCH 48 51
ATOM     51  CA  SER P   8      34.225  22.786  -9.813  1.00 28.60 LIG 0.21  C 
BRANCH 51 52
ATOM     52  CB  SER P   8      33.174  22.045 -10.638  1.00 29.65 LIG 0.20  C 
BRANCH 52 53
ATOM     53 OG   SER P   8      32.479  21.106  -9.836  1.00 30.91 LIG-0.40  OA
ATOM     54 HG   SER P   8      31.686  21.363  -9.726  1.00 30.91 LIG 0.21  HD
ENDBRANCH 52 53
ENDBRANCH 51 52
BRANCH 51 55
ATOM     55  C   SER P   8      33.853  24.290  -9.622  1.00 29.85 LIG 0.20  C 
ATOM     56 OXT  SER P   8      34.247  25.166 -10.404  1.00 30.94 LIG-0.65  OA
ATOM     57 O    SER P   8      33.186  24.733  -8.673  1.00 30.51 LIG-0.65  OA
ENDBRANCH 51 55
ENDBRANCH 48 51
ENDBRANCH 46 47
BRANCH 46 58
ATOM     58  CB  ASP P   7      35.139  20.310  -6.478  1.00 24.61 LIG 0.15  C 
BRANCH 58 59
ATOM     59  CG  ASP P   7      34.436  19.779  -5.256  1.00 26.42 LIG 0.17  C 
ATOM     60 OD2  ASP P   7      35.085  19.111  -4.441  1.00 29.83 LIG-0.65  OA
ATOM     61 OD1  ASP P   7      33.222  20.060  -5.103  1.00 30.09 LIG-0.65  OA
ENDBRANCH 58 59
ENDBRANCH 46 58
ENDBRANCH 44 46
ENDBRANCH 35 42
ENDBRANCH 32 35
ENDBRANCH 1 31
BRANCH 1 62
ATOM     62  CB  ARG P   5      33.094  27.140  -6.775  1.00 16.24 LIG 0.04  C 
BRANCH 62 63
ATOM     63  CG  ARG P   5      32.380  28.305  -7.433  1.00 15.73 LIG 0.02  C 
BRANCH 63 64
ATOM     64  CD  ARG P   5      32.807  28.420  -8.871  1.00 15.69 LIG 0.14  C 
BRANCH 64 65
ATOM     65  NE  ARG P   5      32.585  27.203  -9.664  1.00 15.25 LIG-0.23  N 
ATOM     66 HE   ARG P   5      32.993  26.482  -9.435  1.00 15.25 LIG 0.18  HD
ATOM     67  CZ  ARG P   5      31.776  27.174 -10.725  1.00 16.06 LIG 0.67  C 
ATOM     68  NH2 ARG P   5      31.617  26.052 -11.429  1.00 16.00 LIG-0.23  N 
ATOM     69  NH1 ARG P   5      31.148  28.278 -11.105  1.00 17.19 LIG-0.23  N 
ATOM     70 1HH2 ARG P   5      32.038  25.338 -11.201  1.00 16.00 LIG 0.17  HD
ATOM     71 2HH2 ARG P   5      31.094  26.043 -12.111  1.00 16.00 LIG 0.17  HD
ATOM     72 1HH1 ARG P   5      31.263  29.010 -10.669  1.00 17.19 LIG 0.17  HD
ATOM     73 2HH1 ARG P   5      30.626  28.262 -11.789  1.00 17.19 LIG 0.17  HD
ENDBRANCH 64 65
ENDBRANCH 63 64
ENDBRANCH 62 63
ENDBRANCH 1 62
TORSDOF 28
ENDMDL
MODEL 17
USER: ADFR SOLUTION from run 137
USER: SCORE 20.111181 LL:  -5.627 LR: -16.531 RR:   0.000 FEB:  -8.178
USER: RMSD 7.968538
USER: SEED 136
USER: STATUS no improvement in best in 7 clusters for 5 generations
USER: GENES 30
USER: genes 0 Translation |==|  0.55652 0.41601 0.58163
USER: genes 1 Rotation |==|  0.35421 0.96400 0.38413 0.50459
USER: genes 2 Torsion [CB]-CA--N-[C] |==|  0.84371
USER: genes 3 Torsion [N]-C--CA-[N] |==|  0.93531
USER: genes 4 Torsion [C]-CA--N-[C] |==|  0.76998
USER: genes 5 Torsion [N]-C--CA-[N] |==|  0.31226
USER: genes 6 Torsion [C]-CA--CB-[CG] |==|  0.66474
USER: genes 7 Torsion [CA]-CB--CG-[CD] |==|  0.53297
USER: genes 8 Torsion [CB]-CG--CD-[OE1] |==|  0.40283
USER: genes 9 Torsion [C]-CA--N-[C] |==|  0.61450
USER: genes 10 Torsion [N]-C--CA-[N] |==|  0.57391
USER: genes 11 Torsion [C]-CA--CB-[CG] |==|  0.55530
USER: genes 12 Torsion [CA]-CB--CG-[CD2] |==|  0.93770
USER: genes 13 Torsion [N]-CA--C-[N] |==|  0.28998
USER: genes 14 Torsion [C]-N--CA-[CB] |==|  0.81788
USER: genes 15 Torsion [N]-CA--CB-[CG] |==|  0.74032
USER: genes 16 Torsion [CA]-CB--CG-[CD2] |==|  0.76260
USER: genes 17 Torsion [N]-CA--C-[N] |==|  0.11531
USER: genes 18 Torsion [C]-N--CA-[CB] |==|  0.84648
USER: genes 19 Torsion [N]-CA--C-[N] |==|  0.33889
USER: genes 20 Torsion [C]-N--CA-[CB] |==|  0.21216
USER: genes 21 Torsion [N]-CA--CB-[OG] |==|  0.79700
USER: genes 22 Torsion [CA]-CB--OG-[HG] |==|  0.31335
USER: genes 23 Torsion [N]-CA--C-[OXT] |==|  0.86303
USER: genes 24 Torsion [N]-CA--CB-[CG] |==|  0.84869
USER: genes 25 Torsion [CA]-CB--CG-[OD2] |==|  0.31669
USER: genes 26 Torsion [N]-CA--CB-[CG] |==|  0.82360
USER: genes 27 Torsion [CA]-CB--CG-[CD] |==|  0.92847
USER: genes 28 Torsion [CB]-CG--CD-[NE] |==|  0.78944
USER: genes 29 Torsion [CG]-CD--NE-[HE] |==|  0.26810
ROOT
ATOM      1  CA  ARG P   5      33.000  26.999  -5.009  1.00 16.30 LIG 0.18  C 
ENDROOT
BRANCH 1 2
ATOM      2  N   ARG P   5      33.794  27.863  -5.894  1.00 16.36 LIG-0.35  N 
ATOM      3  C   PHE P   4      33.859  27.631  -7.193  1.00 16.61 LIG 0.24  C 
ATOM      4 O    PHE P   4      33.201  26.755  -7.758  1.00 17.57 LIG-0.27  OA
ATOM      5 H    ARG P   5      34.197  28.511  -5.498  1.00 16.36 LIG 0.16  HD
BRANCH 3 6
ATOM      6  CA  PHE P   4      34.810  28.525  -7.988  1.00 17.34 LIG 0.18  C 
BRANCH 6 7
ATOM      7  N   PHE P   4      34.991  29.749  -7.229  1.00 18.03 LIG-0.35  N 
ATOM      8  C   GLU P   3      34.110  30.749  -7.297  1.00 20.04 LIG 0.24  C 
ATOM      9 O    GLU P   3      33.209  30.784  -8.119  1.00 20.03 LIG-0.27  OA
ATOM     10 H    PHE P   4      35.701  29.765  -6.744  1.00 18.03 LIG 0.16  HD
BRANCH 8 11
ATOM     11  CA  GLU P   3      34.296  31.893  -6.299  1.00 21.92 LIG 0.18  C 
BRANCH 11 12
ATOM     12  CB  GLU P   3      33.003  32.120  -5.514  1.00 22.70 LIG 0.04  C 
BRANCH 12 13
ATOM     13  CG  GLU P   3      32.460  33.526  -5.690  1.00 23.46 LIG 0.12  C 
BRANCH 13 14
ATOM     14  CD  GLU P   3      31.354  33.890  -4.725  1.00 23.38 LIG 0.17  C 
ATOM     15 OE1  GLU P   3      31.311  35.077  -4.323  1.00 24.20 LIG-0.65  OA
ATOM     16 OE2  GLU P   3      30.556  33.003  -4.357  1.00 25.77 LIG-0.65  OA
ENDBRANCH 13 14
ENDBRANCH 12 13
ENDBRANCH 11 12
BRANCH 11 17
ATOM     17  N   GLU P   3      34.687  33.098  -7.037  1.00 23.31 LIG-0.35  N 
ATOM     18 H    GLU P   3      34.264  33.220  -7.776  1.00 23.31 LIG 0.16  HD
ATOM     19  C   ALA P   2      35.624  33.913  -6.569  1.00 24.65 LIG 0.26  C 
ATOM     20 O    ALA P   2      36.030  33.850  -5.395  1.00 25.69 LIG-0.27  OA
BRANCH 19 21
ATOM     21  CA  ALA P   2      36.155  35.003  -7.518  1.00 24.82 LIG 0.40  C 
ATOM     22  N   ALA P   2      37.541  35.383  -7.149  1.00 26.06 LIG 0.61  N 
ATOM     23  CB  ALA P   2      36.119  34.538  -8.987  1.00 25.99 LIG 0.06  C 
ENDBRANCH 19 21
ENDBRANCH 11 17
ENDBRANCH 8 11
ENDBRANCH 6 7
BRANCH 6 24
ATOM     24  CB  PHE P   4      36.159  27.811  -8.221  1.00 16.70 LIG 0.07  C 
BRANCH 24 25
ATOM     25  CG  PHE P   4      37.303  28.745  -8.561  1.00 15.87 LIG-0.06  A 
ATOM     26  CD2 PHE P   4      37.052  30.005  -9.092  1.00 14.31 LIG 0.01  A 
ATOM     27  CE2 PHE P   4      38.100  30.860  -9.435  1.00 14.76 LIG 0.00  A 
ATOM     28  CZ  PHE P   4      39.429  30.451  -9.260  1.00 16.46 LIG 0.00  A 
ATOM     29  CE1 PHE P   4      39.693  29.195  -8.725  1.00 16.70 LIG 0.00  A 
ATOM     30  CD1 PHE P   4      38.625  28.352  -8.397  1.00 16.73 LIG 0.01  A 
ENDBRANCH 24 25
ENDBRANCH 6 24
ENDBRANCH 3 6
ENDBRANCH 1 2
BRANCH 1 31
ATOM     31  C   ARG P   5      33.568  25.573  -4.933  1.00 16.50 LIG 0.24  C 
ATOM     32  N   HIS P   6      34.230  25.252  -3.824  1.00 17.02 LIG-0.35  N 
ATOM     33 H    HIS P   6      34.413  25.802  -3.189  1.00 17.02 LIG 0.16  HD
ATOM     34 O    ARG P   5      33.395  24.771  -5.859  1.00 15.68 LIG-0.27  OA
BRANCH 32 35
ATOM     35  CA  HIS P   6      34.710  23.878  -3.613  1.00 18.55 LIG 0.18  C 
BRANCH 35 36
ATOM     36  CB  HIS P   6      33.544  22.908  -3.473  1.00 17.94 LIG 0.10  C 
BRANCH 36 37
ATOM     37  CG  HIS P   6      33.110  22.651  -2.066  1.00 17.06 LIG 0.06  A 
ATOM     38 ND1  HIS P   6      32.126  23.386  -1.446  1.00 15.40 LIG-0.24  NA
ATOM     39  CE1 HIS P   6      31.985  22.972  -0.200  1.00 15.09 LIG 0.23  A 
ATOM     40 NE2  HIS P   6      32.839  21.987   0.010  1.00 16.22 LIG-0.25  NA
ATOM     41  CD2 HIS P   6      33.562  21.773  -1.144  1.00 16.02 LIG 0.14  A 
ENDBRANCH 36 37
ENDBRANCH 35 36
BRANCH 35 42
ATOM     42  C   HIS P   6      35.470  23.482  -4.854  1.00 20.42 LIG 0.24  C 
ATOM     43 O    HIS P   6      35.337  22.348  -5.302  1.00 21.09 LIG-0.27  OA
ATOM     44  N   ASP P   7      36.276  24.363  -5.418  1.00 22.91 LIG-0.34  N 
ATOM     45 H    ASP P   7      36.450  25.152  -5.124  1.00 22.91 LIG 0.16  HD
BRANCH 44 46
ATOM     46  CA  ASP P   7      36.950  23.970  -6.675  1.00 24.36 LIG 0.19  C 
BRANCH 46 47
ATOM     47  C   ASP P   7      36.015  23.893  -7.875  1.00 26.16 LIG 0.24  C 
ATOM     48  N   SER P   8      36.322  24.668  -8.918  1.00 27.90 LIG-0.34  N 
ATOM     49 H    SER P   8      36.960  25.245  -8.924  1.00 27.90 LIG 0.16  HD
ATOM     50 O    ASP P   7      35.030  23.165  -7.870  1.00 26.07 LIG-0.27  OA
BRANCH 48 51
ATOM     51  CA  SER P   8      35.561  24.582 -10.168  1.00 28.60 LIG 0.21  C 
BRANCH 51 52
ATOM     52  CB  SER P   8      34.215  25.287 -10.011  1.00 29.65 LIG 0.20  C 
BRANCH 52 53
ATOM     53 OG   SER P   8      33.341  24.520  -9.201  1.00 30.91 LIG-0.40  OA
ATOM     54 HG   SER P   8      33.199  24.926  -8.479  1.00 30.91 LIG 0.21  HD
ENDBRANCH 52 53
ENDBRANCH 51 52
BRANCH 51 55
ATOM     55  C   SER P   8      36.358  25.126 -11.396  1.00 29.85 LIG 0.20  C 
ATOM     56 OXT  SER P   8      36.926  26.227 -11.371  1.00 30.94 LIG-0.65  OA
ATOM     57 O    SER P   8      36.454  24.541 -12.486  1.00 30.51 LIG-0.65  OA
ENDBRANCH 51 55
ENDBRANCH 48 51
ENDBRANCH 46 47
BRANCH 46 58
ATOM     58  CB  ASP P   7      37.724  22.683  -6.490  1.00 24.61 LIG 0.15  C 
BRANCH 58 59
ATOM     59  CG  ASP P   7      38.692  22.776  -5.338  1.00 26.42 LIG 0.17  C 
ATOM     60 OD2  ASP P   7      38.502  22.064  -4.344  1.00 29.83 LIG-0.65  OA
ATOM     61 OD1  ASP P   7      39.669  23.558  -5.448  1.00 30.09 LIG-0.65  OA
ENDBRANCH 58 59
ENDBRANCH 46 58
ENDBRANCH 44 46
ENDBRANCH 35 42
ENDBRANCH 32 35
ENDBRANCH 1 31
BRANCH 1 62
ATOM     62  CB  ARG P   5      31.561  26.950  -5.496  1.00 16.24 LIG 0.04  C 
BRANCH 62 63
ATOM     63  CG  ARG P   5      30.823  28.274  -5.462  1.00 15.73 LIG 0.02  C 
BRANCH 63 64
ATOM     64  CD  ARG P   5      31.424  29.170  -4.414  1.00 15.69 LIG 0.14  C 
BRANCH 64 65
ATOM     65  NE  ARG P   5      31.061  28.812  -3.036  1.00 15.25 LIG-0.23  N 
ATOM     66 HE   ARG P   5      31.604  28.327  -2.579  1.00 15.25 LIG 0.18  HD
ATOM     67  CZ  ARG P   5      29.922  29.211  -2.466  1.00 16.06 LIG 0.67  C 
ATOM     68  NH2 ARG P   5      29.622  28.849  -1.218  1.00 16.00 LIG-0.23  N 
ATOM     69  NH1 ARG P   5      29.062  29.947  -3.157  1.00 17.19 LIG-0.23  N 
ATOM     70 1HH2 ARG P   5      30.165  28.354  -0.772  1.00 16.00 LIG 0.17  HD
ATOM     71 2HH2 ARG P   5      28.885  29.110  -0.859  1.00 16.00 LIG 0.17  HD
ATOM     72 1HH1 ARG P   5      29.239  30.165  -3.970  1.00 17.19 LIG 0.17  HD
ATOM     73 2HH1 ARG P   5      28.327  30.205  -2.792  1.00 17.19 LIG 0.17  HD
ENDBRANCH 64 65
ENDBRANCH 63 64
ENDBRANCH 62 63
ENDBRANCH 1 62
TORSDOF 28
ENDMDL
MODEL 18
USER: ADFR SOLUTION from run 56
USER: SCORE 20.303278 LL:  -5.286 LR: -16.487 RR:   0.000 FEB:  -8.135
USER: RMSD 8.089182
USER: SEED 55
USER: STATUS 1 or 2 clusters left
USER: GENES 30
USER: genes 0 Translation |==|  0.59586 0.52057 0.51421
USER: genes 1 Rotation |==|  0.72821 0.08548 0.48691 0.66099
USER: genes 2 Torsion [CB]-CA--N-[C] |==|  0.78889
USER: genes 3 Torsion [N]-C--CA-[N] |==|  0.94541
USER: genes 4 Torsion [C]-CA--N-[C] |==|  0.83242
USER: genes 5 Torsion [N]-C--CA-[N] |==|  0.98414
USER: genes 6 Torsion [C]-CA--CB-[CG] |==|  0.17899
USER: genes 7 Torsion [CA]-CB--CG-[CD] |==|  0.21610
USER: genes 8 Torsion [CB]-CG--CD-[OE1] |==|  0.03224
USER: genes 9 Torsion [C]-CA--N-[C] |==|  0.76955
USER: genes 10 Torsion [N]-C--CA-[N] |==|  0.03159
USER: genes 11 Torsion [C]-CA--CB-[CG] |==|  0.88457
USER: genes 12 Torsion [CA]-CB--CG-[CD2] |==|  0.82515
USER: genes 13 Torsion [N]-CA--C-[N] |==|  0.53428
USER: genes 14 Torsion [C]-N--CA-[CB] |==|  0.21798
USER: genes 15 Torsion [N]-CA--CB-[CG] |==|  0.69353
USER: genes 16 Torsion [CA]-CB--CG-[CD2] |==|  0.95348
USER: genes 17 Torsion [N]-CA--C-[N] |==|  0.82017
USER: genes 18 Torsion [C]-N--CA-[CB] |==|  0.76642
USER: genes 19 Torsion [N]-CA--C-[N] |==|  0.22240
USER: genes 20 Torsion [C]-N--CA-[CB] |==|  0.33581
USER: genes 21 Torsion [N]-CA--CB-[OG] |==|  0.95098
USER: genes 22 Torsion [CA]-CB--OG-[HG] |==|  0.87721
USER: genes 23 Torsion [N]-CA--C-[OXT] |==|  0.16552
USER: genes 24 Torsion [N]-CA--CB-[CG] |==|  0.53575
USER: genes 25 Torsion [CA]-CB--CG-[OD2] |==|  0.23906
USER: genes 26 Torsion [N]-CA--CB-[CG] |==|  0.23727
USER: genes 27 Torsion [CA]-CB--CG-[CD] |==|  0.40702
USER: genes 28 Torsion [CB]-CG--CD-[NE] |==|  0.03903
USER: genes 29 Torsion [CG]-CD--NE-[HE] |==|  0.79077
ROOT
ATOM      1  CA  ARG P   5      33.915  29.509  -6.324  1.00 16.30 LIG 0.18  C 
ENDROOT
BRANCH 1 2
ATOM      2  N   ARG P   5      33.644  30.666  -7.187  1.00 16.36 LIG-0.35  N 
ATOM      3  C   PHE P   4      33.001  30.527  -8.333  1.00 16.61 LIG 0.24  C 
ATOM      4 O    PHE P   4      32.510  29.460  -8.707  1.00 17.57 LIG-0.27  OA
ATOM      5 H    ARG P   5      33.935  31.417  -6.884  1.00 16.36 LIG 0.16  HD
BRANCH 3 6
ATOM      6  CA  PHE P   4      32.885  31.784  -9.195  1.00 17.34 LIG 0.18  C 
BRANCH 6 7
ATOM      7  N   PHE P   4      33.111  32.926  -8.329  1.00 18.03 LIG-0.35  N 
ATOM      8  C   GLU P   3      32.323  33.173  -7.281  1.00 20.04 LIG 0.24  C 
ATOM      9 O    GLU P   3      31.275  32.580  -7.084  1.00 20.03 LIG-0.27  OA
ATOM     10 H    PHE P   4      33.783  33.414  -8.552  1.00 18.03 LIG 0.16  HD
BRANCH 8 11
ATOM     11  CA  GLU P   3      32.781  34.278  -6.327  1.00 21.92 LIG 0.18  C 
BRANCH 11 12
ATOM     12  CB  GLU P   3      31.773  35.428  -6.334  1.00 22.70 LIG 0.04  C 
BRANCH 12 13
ATOM     13  CG  GLU P   3      30.417  35.011  -5.795  1.00 23.46 LIG 0.12  C 
BRANCH 13 14
ATOM     14  CD  GLU P   3      30.350  34.918  -4.287  1.00 23.38 LIG 0.17  C 
ATOM     15 OE1  GLU P   3      31.311  35.396  -3.639  1.00 24.20 LIG-0.65  OA
ATOM     16 OE2  GLU P   3      29.367  34.357  -3.759  1.00 25.77 LIG-0.65  OA
ENDBRANCH 13 14
ENDBRANCH 12 13
ENDBRANCH 11 12
BRANCH 11 17
ATOM     17  N   GLU P   3      34.111  34.735  -6.745  1.00 23.31 LIG-0.35  N 
ATOM     18 H    GLU P   3      34.111  35.442  -7.234  1.00 23.31 LIG 0.16  HD
ATOM     19  C   ALA P   2      35.205  34.081  -6.376  1.00 24.65 LIG 0.26  C 
ATOM     20 O    ALA P   2      35.193  33.226  -5.474  1.00 25.69 LIG-0.27  OA
BRANCH 19 21
ATOM     21  CA  ALA P   2      36.527  34.469  -7.063  1.00 24.82 LIG 0.40  C 
ATOM     22  N   ALA P   2      36.360  35.720  -7.842  1.00 26.06 LIG 0.61  N 
ATOM     23  CB  ALA P   2      37.666  34.645  -6.039  1.00 25.99 LIG 0.06  C 
ENDBRANCH 19 21
ENDBRANCH 11 17
ENDBRANCH 8 11
ENDBRANCH 6 7
BRANCH 6 24
ATOM     24  CB  PHE P   4      33.913  31.747 -10.347  1.00 16.70 LIG 0.07  C 
BRANCH 24 25
ATOM     25  CG  PHE P   4      35.281  31.238  -9.939  1.00 15.87 LIG-0.06  A 
ATOM     26  CD2 PHE P   4      36.041  31.929  -9.003  1.00 14.31 LIG 0.01  A 
ATOM     27  CE2 PHE P   4      37.313  31.483  -8.644  1.00 14.76 LIG 0.00  A 
ATOM     28  CZ  PHE P   4      37.850  30.332  -9.237  1.00 16.46 LIG 0.00  A 
ATOM     29  CE1 PHE P   4      37.097  29.630 -10.172  1.00 16.70 LIG 0.00  A 
ATOM     30  CD1 PHE P   4      35.827  30.102 -10.521  1.00 16.73 LIG 0.01  A 
ENDBRANCH 24 25
ENDBRANCH 6 24
ENDBRANCH 3 6
ENDBRANCH 1 2
BRANCH 1 31
ATOM     31  C   ARG P   5      34.461  28.311  -7.118  1.00 16.50 LIG 0.24  C 
ATOM     32  N   HIS P   6      34.500  27.142  -6.485  1.00 17.02 LIG-0.35  N 
ATOM     33 H    HIS P   6      34.304  27.030  -5.656  1.00 17.02 LIG 0.16  HD
ATOM     34 O    ARG P   5      34.828  28.444  -8.292  1.00 15.68 LIG-0.27  OA
BRANCH 32 35
ATOM     35  CA  HIS P   6      34.899  25.920  -7.199  1.00 18.55 LIG 0.18  C 
BRANCH 35 36
ATOM     36  CB  HIS P   6      36.412  25.848  -7.356  1.00 17.94 LIG 0.10  C 
BRANCH 36 37
ATOM     37  CG  HIS P   6      36.904  26.027  -8.755  1.00 17.06 LIG 0.06  A 
ATOM     38 ND1  HIS P   6      38.202  26.382  -9.047  1.00 15.40 LIG-0.24  NA
ATOM     39  CE1 HIS P   6      38.341  26.512 -10.354  1.00 15.09 LIG 0.23  A 
ATOM     40 NE2  HIS P   6      37.179  26.248 -10.924  1.00 16.22 LIG-0.25  NA
ATOM     41  CD2 HIS P   6      36.261  25.948  -9.940  1.00 16.02 LIG 0.14  A 
ENDBRANCH 36 37
ENDBRANCH 35 36
BRANCH 35 42
ATOM     42  C   HIS P   6      34.486  24.753  -6.337  1.00 20.42 LIG 0.24  C 
ATOM     43 O    HIS P   6      33.616  23.987  -6.742  1.00 21.09 LIG-0.27  OA
ATOM     44  N   ASP P   7      35.058  24.594  -5.158  1.00 22.91 LIG-0.34  N 
ATOM     45 H    ASP P   7      35.633  25.123  -4.800  1.00 22.91 LIG 0.16  HD
BRANCH 44 46
ATOM     46  CA  ASP P   7      34.686  23.399  -4.370  1.00 24.36 LIG 0.19  C 
BRANCH 46 47
ATOM     47  C   ASP P   7      34.594  22.122  -5.195  1.00 26.16 LIG 0.24  C 
ATOM     48  N   SER P   8      35.747  21.512  -5.478  1.00 27.90 LIG-0.34  N 
ATOM     49 H    SER P   8      36.524  21.828  -5.287  1.00 27.90 LIG 0.16  HD
ATOM     50 O    ASP P   7      33.515  21.692  -5.584  1.00 26.07 LIG-0.27  OA
BRANCH 48 51
ATOM     51  CA  SER P   8      35.764  20.215  -6.160  1.00 28.60 LIG 0.21  C 
BRANCH 51 52
ATOM     52  CB  SER P   8      36.542  20.323  -7.470  1.00 29.65 LIG 0.20  C 
BRANCH 52 53
ATOM     53 OG   SER P   8      36.677  21.679  -7.861  1.00 30.91 LIG-0.40  OA
ATOM     54 HG   SER P   8      35.942  22.074  -7.761  1.00 30.91 LIG 0.21  HD
ENDBRANCH 52 53
ENDBRANCH 51 52
BRANCH 51 55
ATOM     55  C   SER P   8      36.314  19.067  -5.255  1.00 29.85 LIG 0.20  C 
ATOM     56 OXT  SER P   8      35.777  18.766  -4.181  1.00 30.94 LIG-0.65  OA
ATOM     57 O    SER P   8      37.333  18.404  -5.506  1.00 30.51 LIG-0.65  OA
ENDBRANCH 51 55
ENDBRANCH 48 51
ENDBRANCH 46 47
BRANCH 46 58
ATOM     58  CB  ASP P   7      33.417  23.647  -3.585  1.00 24.61 LIG 0.15  C 
BRANCH 58 59
ATOM     59  CG  ASP P   7      33.187  22.579  -2.547  1.00 26.42 LIG 0.17  C 
ATOM     60 OD2  ASP P   7      33.719  22.705  -1.437  1.00 29.83 LIG-0.65  OA
ATOM     61 OD1  ASP P   7      32.440  21.614  -2.846  1.00 30.09 LIG-0.65  OA
ENDBRANCH 58 59
ENDBRANCH 46 58
ENDBRANCH 44 46
ENDBRANCH 35 42
ENDBRANCH 32 35
ENDBRANCH 1 31
BRANCH 1 62
ATOM     62  CB  ARG P   5      32.644  29.102  -5.597  1.00 16.24 LIG 0.04  C 
BRANCH 62 63
ATOM     63  CG  ARG P   5      31.730  28.169  -6.367  1.00 15.73 LIG 0.02  C 
BRANCH 63 64
ATOM     64  CD  ARG P   5      31.036  27.232  -5.417  1.00 15.69 LIG 0.14  C 
BRANCH 64 65
ATOM     65  NE  ARG P   5      31.131  27.628  -4.005  1.00 15.25 LIG-0.23  N 
ATOM     66 HE   ARG P   5      31.874  27.506  -3.591  1.00 15.25 LIG 0.18  HD
ATOM     67  CZ  ARG P   5      30.108  28.170  -3.340  1.00 16.06 LIG 0.67  C 
ATOM     68  NH2 ARG P   5      30.230  28.499  -2.053  1.00 16.00 LIG-0.23  N 
ATOM     69  NH1 ARG P   5      28.947  28.354  -3.954  1.00 17.19 LIG-0.23  N 
ATOM     70 1HH2 ARG P   5      30.973  28.362  -1.644  1.00 16.00 LIG 0.17  HD
ATOM     71 2HH2 ARG P   5      29.565  28.847  -1.634  1.00 16.00 LIG 0.17  HD
ATOM     72 1HH1 ARG P   5      28.855  28.124  -4.778  1.00 17.19 LIG 0.17  HD
ATOM     73 2HH1 ARG P   5      28.286  28.703  -3.528  1.00 17.19 LIG 0.17  HD
ENDBRANCH 64 65
ENDBRANCH 63 64
ENDBRANCH 62 63
ENDBRANCH 1 62
TORSDOF 28
ENDMDL
MODEL 19
USER: ADFR SOLUTION from run 62
USER: SCORE 19.525801 LL:  -4.253 LR: -16.454 RR:   0.000 FEB:  -8.101
USER: RMSD 9.301692
USER: SEED 61
USER: STATUS no improvement in best in 8 clusters for 5 generations
USER: GENES 30
USER: genes 0 Translation |==|  0.53426 0.59346 0.52859
USER: genes 1 Rotation |==|  0.21041 0.20255 0.77834 0.51380
USER: genes 2 Torsion [CB]-CA--N-[C] |==|  0.83095
USER: genes 3 Torsion [N]-C--CA-[N] |==|  0.85203
USER: genes 4 Torsion [C]-CA--N-[C] |==|  0.68333
USER: genes 5 Torsion [N]-C--CA-[N] |==|  0.87373
USER: genes 6 Torsion [C]-CA--CB-[CG] |==|  0.15009
USER: genes 7 Torsion [CA]-CB--CG-[CD] |==|  0.44401
USER: genes 8 Torsion [CB]-CG--CD-[OE1] |==|  0.86156
USER: genes 9 Torsion [C]-CA--N-[C] |==|  0.73548
USER: genes 10 Torsion [N]-C--CA-[N] |==|  0.32731
USER: genes 11 Torsion [C]-CA--CB-[CG] |==|  0.04740
USER: genes 12 Torsion [CA]-CB--CG-[CD2] |==|  0.21009
USER: genes 13 Torsion [N]-CA--C-[N] |==|  0.37402
USER: genes 14 Torsion [C]-N--CA-[CB] |==|  0.52245
USER: genes 15 Torsion [N]-CA--CB-[CG] |==|  0.76856
USER: genes 16 Torsion [CA]-CB--CG-[CD2] |==|  0.49769
USER: genes 17 Torsion [N]-CA--C-[N] |==|  0.41062
USER: genes 18 Torsion [C]-N--CA-[CB] |==|  0.84786
USER: genes 19 Torsion [N]-CA--C-[N] |==|  0.35111
USER: genes 20 Torsion [C]-N--CA-[CB] |==|  0.46043
USER: genes 21 Torsion [N]-CA--CB-[OG] |==|  0.54539
USER: genes 22 Torsion [CA]-CB--OG-[HG] |==|  0.51467
USER: genes 23 Torsion [N]-CA--C-[OXT] |==|  0.21278
USER: genes 24 Torsion [N]-CA--CB-[CG] |==|  0.59941
USER: genes 25 Torsion [CA]-CB--CG-[OD2] |==|  0.63409
USER: genes 26 Torsion [N]-CA--CB-[CG] |==|  0.63995
USER: genes 27 Torsion [CA]-CB--CG-[CD] |==|  0.02706
USER: genes 28 Torsion [CB]-CG--CD-[NE] |==|  0.49534
USER: genes 29 Torsion [CG]-CD--NE-[HE] |==|  0.20103
ROOT
ATOM      1  CA  ARG P   5      32.483  31.258  -6.043  1.00 16.30 LIG 0.18  C 
ENDROOT
BRANCH 1 2
ATOM      2  N   ARG P   5      32.902  29.857  -5.899  1.00 16.36 LIG-0.35  N 
ATOM      3  C   PHE P   4      32.252  28.884  -6.512  1.00 16.61 LIG 0.24  C 
ATOM      4 O    PHE P   4      31.329  29.083  -7.305  1.00 17.57 LIG-0.27  OA
ATOM      5 H    ARG P   5      33.588  29.738  -5.395  1.00 16.36 LIG 0.16  HD
BRANCH 3 6
ATOM      6  CA  PHE P   4      32.710  27.462  -6.189  1.00 17.34 LIG 0.18  C 
BRANCH 6 7
ATOM      7  N   PHE P   4      34.141  27.405  -6.423  1.00 18.03 LIG-0.35  N 
ATOM      8  C   GLU P   3      34.660  26.653  -7.395  1.00 20.04 LIG 0.24  C 
ATOM      9 O    GLU P   3      34.004  25.837  -8.024  1.00 20.03 LIG-0.27  OA
ATOM     10 H    PHE P   4      34.609  27.890  -5.888  1.00 18.03 LIG 0.16  HD
BRANCH 8 11
ATOM     11  CA  GLU P   3      36.152  26.834  -7.678  1.00 21.92 LIG 0.18  C 
BRANCH 11 12
ATOM     12  CB  GLU P   3      36.980  26.130  -6.602  1.00 22.70 LIG 0.04  C 
BRANCH 12 13
ATOM     13  CG  GLU P   3      36.597  24.670  -6.442  1.00 23.46 LIG 0.12  C 
BRANCH 13 14
ATOM     14  CD  GLU P   3      37.654  23.820  -5.775  1.00 23.38 LIG 0.17  C 
ATOM     15 OE1  GLU P   3      38.822  23.900  -6.223  1.00 24.20 LIG-0.65  OA
ATOM     16 OE2  GLU P   3      37.321  23.068  -4.834  1.00 25.77 LIG-0.65  OA
ENDBRANCH 13 14
ENDBRANCH 12 13
ENDBRANCH 11 12
BRANCH 11 17
ATOM     17  N   GLU P   3      36.449  28.270  -7.721  1.00 23.31 LIG-0.35  N 
ATOM     18 H    GLU P   3      36.599  28.629  -6.954  1.00 23.31 LIG 0.16  HD
ATOM     19  C   ALA P   2      36.474  28.929  -8.872  1.00 24.65 LIG 0.26  C 
ATOM     20 O    ALA P   2      36.504  28.344  -9.969  1.00 25.69 LIG-0.27  OA
BRANCH 19 21
ATOM     21  CA  ALA P   2      36.534  30.466  -8.808  1.00 24.82 LIG 0.40  C 
ATOM     22  N   ALA P   2      37.784  30.963  -9.435  1.00 26.06 LIG 0.61  N 
ATOM     23  CB  ALA P   2      35.316  31.108  -9.501  1.00 25.99 LIG 0.06  C 
ENDBRANCH 19 21
ENDBRANCH 11 17
ENDBRANCH 8 11
ENDBRANCH 6 7
BRANCH 6 24
ATOM     24  CB  PHE P   4      32.371  27.102  -4.727  1.00 16.70 LIG 0.07  C 
BRANCH 24 25
ATOM     25  CG  PHE P   4      31.341  28.013  -4.088  1.00 15.87 LIG-0.06  A 
ATOM     26  CD2 PHE P   4      29.995  27.892  -4.412  1.00 14.31 LIG 0.01  A 
ATOM     27  CE2 PHE P   4      29.044  28.746  -3.850  1.00 14.76 LIG 0.00  A 
ATOM     28  CZ  PHE P   4      29.439  29.750  -2.957  1.00 16.46 LIG 0.00  A 
ATOM     29  CE1 PHE P   4      30.783  29.877  -2.621  1.00 16.70 LIG 0.00  A 
ATOM     30  CD1 PHE P   4      31.718  29.015  -3.204  1.00 16.73 LIG 0.01  A 
ENDBRANCH 24 25
ENDBRANCH 6 24
ENDBRANCH 3 6
ENDBRANCH 1 2
BRANCH 1 31
ATOM     31  C   ARG P   5      31.055  31.490  -5.523  1.00 16.50 LIG 0.24  C 
ATOM     32  N   HIS P   6      30.865  32.560  -4.755  1.00 17.02 LIG-0.35  N 
ATOM     33 H    HIS P   6      31.492  33.083  -4.484  1.00 17.02 LIG 0.16  HD
ATOM     34 O    ARG P   5      30.137  30.717  -5.825  1.00 15.68 LIG-0.27  OA
BRANCH 32 35
ATOM     35  CA  HIS P   6      29.514  32.926  -4.305  1.00 18.55 LIG 0.18  C 
BRANCH 35 36
ATOM     36  CB  HIS P   6      29.517  34.282  -3.612  1.00 17.94 LIG 0.10  C 
BRANCH 36 37
ATOM     37  CG  HIS P   6      29.904  34.246  -2.170  1.00 17.06 LIG 0.06  A 
ATOM     38 ND1  HIS P   6      30.161  33.072  -1.499  1.00 15.40 LIG-0.24  NA
ATOM     39  CE1 HIS P   6      30.432  33.337  -0.233  1.00 15.09 LIG 0.23  A 
ATOM     40 NE2  HIS P   6      30.366  34.645  -0.059  1.00 16.22 LIG-0.25  NA
ATOM     41  CD2 HIS P   6      30.029  35.235  -1.259  1.00 16.02 LIG 0.14  A 
ENDBRANCH 36 37
ENDBRANCH 35 36
BRANCH 35 42
ATOM     42  C   HIS P   6      28.661  33.060  -5.542  1.00 20.42 LIG 0.24  C 
ATOM     43 O    HIS P   6      29.170  33.471  -6.580  1.00 21.09 LIG-0.27  OA
ATOM     44  N   ASP P   7      27.379  32.749  -5.472  1.00 22.91 LIG-0.34  N 
ATOM     45 H    ASP P   7      26.956  32.506  -4.764  1.00 22.91 LIG 0.16  HD
BRANCH 44 46
ATOM     46  CA  ASP P   7      26.587  32.821  -6.718  1.00 24.36 LIG 0.19  C 
BRANCH 46 47
ATOM     47  C   ASP P   7      26.903  31.710  -7.712  1.00 26.16 LIG 0.24  C 
ATOM     48  N   SER P   8      25.867  30.991  -8.149  1.00 27.90 LIG-0.34  N 
ATOM     49 H    SER P   8      25.062  31.070  -7.856  1.00 27.90 LIG 0.16  HD
ATOM     50 O    ASP P   7      28.052  31.489  -8.076  1.00 26.07 LIG-0.27  OA
BRANCH 48 51
ATOM     51  CA  SER P   8      26.042  29.981  -9.197  1.00 28.60 LIG 0.21  C 
BRANCH 51 52
ATOM     52  CB  SER P   8      24.813  29.075  -9.260  1.00 29.65 LIG 0.20  C 
BRANCH 52 53
ATOM     53 OG   SER P   8      25.102  27.890  -9.982  1.00 30.91 LIG-0.40  OA
ATOM     54 HG   SER P   8      24.400  27.437 -10.070  1.00 30.91 LIG 0.21  HD
ENDBRANCH 52 53
ENDBRANCH 51 52
BRANCH 51 55
ATOM     55  C   SER P   8      26.368  30.609 -10.589  1.00 29.85 LIG 0.20  C 
ATOM     56 OXT  SER P   8      27.494  31.047 -10.861  1.00 30.94 LIG-0.65  OA
ATOM     57 O    SER P   8      25.541  30.758 -11.503  1.00 30.51 LIG-0.65  OA
ENDBRANCH 51 55
ENDBRANCH 48 51
ENDBRANCH 46 47
BRANCH 46 58
ATOM     58  CB  ASP P   7      26.708  34.188  -7.355  1.00 24.61 LIG 0.15  C 
BRANCH 58 59
ATOM     59  CG  ASP P   7      25.416  34.616  -8.004  1.00 26.42 LIG 0.17  C 
ATOM     60 OD2  ASP P   7      25.450  35.061  -9.157  1.00 29.83 LIG-0.65  OA
ATOM     61 OD1  ASP P   7      24.352  34.476  -7.351  1.00 30.09 LIG-0.65  OA
ENDBRANCH 58 59
ENDBRANCH 46 58
ENDBRANCH 44 46
ENDBRANCH 35 42
ENDBRANCH 32 35
ENDBRANCH 1 31
BRANCH 1 62
ATOM     62  CB  ARG P   5      32.566  31.670  -7.504  1.00 16.24 LIG 0.04  C 
BRANCH 62 63
ATOM     63  CG  ARG P   5      33.318  32.961  -7.768  1.00 15.73 LIG 0.02  C 
BRANCH 63 64
ATOM     64  CD  ARG P   5      34.015  33.413  -6.515  1.00 15.69 LIG 0.14  C 
BRANCH 64 65
ATOM     65  NE  ARG P   5      34.807  34.640  -6.677  1.00 15.25 LIG-0.23  N 
ATOM     66 HE   ARG P   5      34.395  35.389  -6.764  1.00 15.25 LIG 0.18  HD
ATOM     67  CZ  ARG P   5      36.142  34.637  -6.692  1.00 16.06 LIG 0.67  C 
ATOM     68  NH2 ARG P   5      36.824  35.772  -6.860  1.00 16.00 LIG-0.23  N 
ATOM     69  NH1 ARG P   5      36.800  33.492  -6.573  1.00 17.19 LIG-0.23  N 
ATOM     70 1HH2 ARG P   5      36.403  36.515  -6.959  1.00 16.00 LIG 0.17  HD
ATOM     71 2HH2 ARG P   5      37.684  35.760  -6.868  1.00 16.00 LIG 0.17  HD
ATOM     72 1HH1 ARG P   5      36.367  32.754  -6.487  1.00 17.19 LIG 0.17  HD
ATOM     73 2HH1 ARG P   5      37.660  33.487  -6.583  1.00 17.19 LIG 0.17  HD
ENDBRANCH 64 65
ENDBRANCH 63 64
ENDBRANCH 62 63
ENDBRANCH 1 62
TORSDOF 28
ENDMDL
MODEL 20
USER: ADFR SOLUTION from run 138
USER: SCORE 19.788448 LL:  -5.739 LR: -16.428 RR:   0.000 FEB:  -8.076
USER: RMSD 7.581147
USER: SEED 137
USER: STATUS searching
USER: GENES 30
USER: genes 0 Translation |==|  0.51643 0.49969 0.57041
USER: genes 1 Rotation |==|  0.70627 0.05382 0.41277 0.52771
USER: genes 2 Torsion [CB]-CA--N-[C] |==|  0.18604
USER: genes 3 Torsion [N]-C--CA-[N] |==|  0.97380
USER: genes 4 Torsion [C]-CA--N-[C] |==|  0.75774
USER: genes 5 Torsion [N]-C--CA-[N] |==|  0.44672
USER: genes 6 Torsion [C]-CA--CB-[CG] |==|  0.49353
USER: genes 7 Torsion [CA]-CB--CG-[CD] |==|  0.22604
USER: genes 8 Torsion [CB]-CG--CD-[OE1] |==|  0.07153
USER: genes 9 Torsion [C]-CA--N-[C] |==|  0.78829
USER: genes 10 Torsion [N]-C--CA-[N] |==|  0.73509
USER: genes 11 Torsion [C]-CA--CB-[CG] |==|  0.22658
USER: genes 12 Torsion [CA]-CB--CG-[CD2] |==|  0.67818
USER: genes 13 Torsion [N]-CA--C-[N] |==|  0.21667
USER: genes 14 Torsion [C]-N--CA-[CB] |==|  0.45428
USER: genes 15 Torsion [N]-CA--CB-[CG] |==|  0.41894
USER: genes 16 Torsion [CA]-CB--CG-[CD2] |==|  0.19085
USER: genes 17 Torsion [N]-CA--C-[N] |==|  0.79361
USER: genes 18 Torsion [C]-N--CA-[CB] |==|  0.83723
USER: genes 19 Torsion [N]-CA--C-[N] |==|  0.36736
USER: genes 20 Torsion [C]-N--CA-[CB] |==|  0.22231
USER: genes 21 Torsion [N]-CA--CB-[OG] |==|  0.75282
USER: genes 22 Torsion [CA]-CB--OG-[HG] |==|  0.12355
USER: genes 23 Torsion [N]-CA--C-[OXT] |==|  0.60407
USER: genes 24 Torsion [N]-CA--CB-[CG] |==|  0.55073
USER: genes 25 Torsion [CA]-CB--CG-[OD2] |==|  0.32523
USER: genes 26 Torsion [N]-CA--CB-[CG] |==|  0.55453
USER: genes 27 Torsion [CA]-CB--CG-[CD] |==|  0.22811
USER: genes 28 Torsion [CB]-CG--CD-[NE] |==|  0.14556
USER: genes 29 Torsion [CG]-CD--NE-[HE] |==|  0.14655
ROOT
ATOM      1  CA  ARG P   5      32.068  29.007  -5.228  1.00 16.30 LIG 0.18  C 
ENDROOT
BRANCH 1 2
ATOM      2  N   ARG P   5      32.324  30.433  -5.472  1.00 16.36 LIG-0.35  N 
ATOM      3  C   PHE P   4      32.025  31.345  -4.564  1.00 16.61 LIG 0.24  C 
ATOM      4 O    PHE P   4      31.607  31.066  -3.438  1.00 17.57 LIG-0.27  OA
ATOM      5 H    ARG P   5      32.677  30.610  -6.236  1.00 16.36 LIG 0.16  HD
BRANCH 3 6
ATOM      6  CA  PHE P   4      32.228  32.801  -4.981  1.00 17.34 LIG 0.18  C 
BRANCH 6 7
ATOM      7  N   PHE P   4      32.933  32.794  -6.250  1.00 18.03 LIG-0.35  N 
ATOM      8  C   GLU P   3      34.265  32.755  -6.308  1.00 20.04 LIG 0.24  C 
ATOM      9 O    GLU P   3      34.977  32.904  -5.327  1.00 20.03 LIG-0.27  OA
ATOM     10 H    PHE P   4      32.421  32.817  -6.941  1.00 18.03 LIG 0.16  HD
BRANCH 8 11
ATOM     11  CA  GLU P   3      34.884  32.541  -7.690  1.00 21.92 LIG 0.18  C 
BRANCH 11 12
ATOM     12  CB  GLU P   3      34.774  31.069  -8.092  1.00 22.70 LIG 0.04  C 
BRANCH 12 13
ATOM     13  CG  GLU P   3      35.322  30.808  -9.483  1.00 23.46 LIG 0.12  C 
BRANCH 13 14
ATOM     14  CD  GLU P   3      36.826  30.664  -9.541  1.00 23.38 LIG 0.17  C 
ATOM     15 OE1  GLU P   3      37.406  30.279  -8.498  1.00 24.20 LIG-0.65  OA
ATOM     16 OE2  GLU P   3      37.421  30.951 -10.601  1.00 25.77 LIG-0.65  OA
ENDBRANCH 13 14
ENDBRANCH 12 13
ENDBRANCH 11 12
BRANCH 11 17
ATOM     17  N   GLU P   3      36.284  32.976  -7.648  1.00 23.31 LIG-0.35  N 
ATOM     18 H    GLU P   3      36.858  32.337  -7.614  1.00 23.31 LIG 0.16  HD
ATOM     19  C   ALA P   2      36.600  34.265  -7.663  1.00 24.65 LIG 0.26  C 
ATOM     20 O    ALA P   2      35.775  35.145  -7.965  1.00 25.69 LIG-0.27  OA
BRANCH 19 21
ATOM     21  CA  ALA P   2      38.061  34.640  -7.356  1.00 24.82 LIG 0.40  C 
ATOM     22  N   ALA P   2      38.218  34.983  -5.922  1.00 26.06 LIG 0.61  N 
ATOM     23  CB  ALA P   2      39.026  33.497  -7.725  1.00 25.99 LIG 0.06  C 
ENDBRANCH 19 21
ENDBRANCH 11 17
ENDBRANCH 8 11
ENDBRANCH 6 7
BRANCH 6 24
ATOM     24  CB  PHE P   4      30.870  33.525  -5.104  1.00 16.70 LIG 0.07  C 
BRANCH 24 25
ATOM     25  CG  PHE P   4      30.306  34.011  -3.783  1.00 15.87 LIG-0.06  A 
ATOM     26  CD2 PHE P   4      29.115  33.491  -3.290  1.00 14.31 LIG 0.01  A 
ATOM     27  CE2 PHE P   4      28.575  33.954  -2.090  1.00 14.76 LIG 0.00  A 
ATOM     28  CZ  PHE P   4      29.223  34.965  -1.368  1.00 16.46 LIG 0.00  A 
ATOM     29  CE1 PHE P   4      30.418  35.489  -1.849  1.00 16.70 LIG 0.00  A 
ATOM     30  CD1 PHE P   4      30.936  35.015  -3.059  1.00 16.73 LIG 0.01  A 
ENDBRANCH 24 25
ENDBRANCH 6 24
ENDBRANCH 3 6
ENDBRANCH 1 2
BRANCH 1 31
ATOM     31  C   ARG P   5      32.692  28.115  -6.313  1.00 16.50 LIG 0.24  C 
ATOM     32  N   HIS P   6      34.001  27.898  -6.229  1.00 17.02 LIG-0.35  N 
ATOM     33 H    HIS P   6      34.521  28.272  -5.656  1.00 17.02 LIG 0.16  HD
ATOM     34 O    ARG P   5      31.992  27.619  -7.205  1.00 15.68 LIG-0.27  OA
BRANCH 32 35
ATOM     35  CA  HIS P   6      34.665  26.968  -7.154  1.00 18.55 LIG 0.18  C 
BRANCH 35 36
ATOM     36  CB  HIS P   6      36.174  27.175  -7.150  1.00 17.94 LIG 0.10  C 
BRANCH 36 37
ATOM     37  CG  HIS P   6      36.974  25.953  -7.460  1.00 17.06 LIG 0.06  A 
ATOM     38 ND1  HIS P   6      37.801  25.353  -6.538  1.00 15.40 LIG-0.24  NA
ATOM     39  CE1 HIS P   6      38.414  24.325  -7.097  1.00 15.09 LIG 0.23  A 
ATOM     40 NE2  HIS P   6      38.009  24.232  -8.351  1.00 16.22 LIG-0.25  NA
ATOM     41  CD2 HIS P   6      37.111  25.246  -8.603  1.00 16.02 LIG 0.14  A 
ENDBRANCH 36 37
ENDBRANCH 35 36
BRANCH 35 42
ATOM     42  C   HIS P   6      34.407  25.575  -6.636  1.00 20.42 LIG 0.24  C 
ATOM     43 O    HIS P   6      33.583  24.866  -7.207  1.00 21.09 LIG-0.27  OA
ATOM     44  N   ASP P   7      35.062  25.158  -5.568  1.00 22.91 LIG-0.34  N 
ATOM     45 H    ASP P   7      35.610  25.624  -5.097  1.00 22.91 LIG 0.16  HD
BRANCH 44 46
ATOM     46  CA  ASP P   7      34.842  23.763  -5.130  1.00 24.36 LIG 0.19  C 
BRANCH 46 47
ATOM     47  C   ASP P   7      35.397  22.721  -6.093  1.00 26.16 LIG 0.24  C 
ATOM     48  N   SER P   8      36.127  21.742  -5.555  1.00 27.90 LIG-0.34  N 
ATOM     49 H    SER P   8      36.355  21.705  -4.726  1.00 27.90 LIG 0.16  HD
ATOM     50 O    ASP P   7      35.189  22.793  -7.299  1.00 26.07 LIG-0.27  OA
BRANCH 48 51
ATOM     51  CA  SER P   8      36.604  20.623  -6.373  1.00 28.60 LIG 0.21  C 
BRANCH 51 52
ATOM     52  CB  SER P   8      37.846  21.043  -7.158  1.00 29.65 LIG 0.20  C 
BRANCH 52 53
ATOM     53 OG   SER P   8      37.482  21.606  -8.406  1.00 30.91 LIG-0.40  OA
ATOM     54 HG   SER P   8      36.842  22.139  -8.298  1.00 30.91 LIG 0.21  HD
ENDBRANCH 52 53
ENDBRANCH 51 52
BRANCH 51 55
ATOM     55  C   SER P   8      36.862  19.331  -5.534  1.00 29.85 LIG 0.20  C 
ATOM     56 OXT  SER P   8      37.811  18.573  -5.775  1.00 30.94 LIG-0.65  OA
ATOM     57 O    SER P   8      36.134  18.940  -4.608  1.00 30.51 LIG-0.65  OA
ENDBRANCH 51 55
ENDBRANCH 48 51
ENDBRANCH 46 47
BRANCH 46 58
ATOM     58  CB  ASP P   7      33.380  23.518  -4.827  1.00 24.61 LIG 0.15  C 
BRANCH 58 59
ATOM     59  CG  ASP P   7      33.186  22.287  -3.978  1.00 26.42 LIG 0.17  C 
ATOM     60 OD2  ASP P   7      32.696  22.416  -2.849  1.00 29.83 LIG-0.65  OA
ATOM     61 OD1  ASP P   7      33.508  21.176  -4.466  1.00 30.09 LIG-0.65  OA
ENDBRANCH 58 59
ENDBRANCH 46 58
ENDBRANCH 44 46
ENDBRANCH 35 42
ENDBRANCH 32 35
ENDBRANCH 1 31
BRANCH 1 62
ATOM     62  CB  ARG P   5      30.570  28.760  -5.162  1.00 16.24 LIG 0.04  C 
BRANCH 62 63
ATOM     63  CG  ARG P   5      30.158  27.474  -4.472  1.00 15.73 LIG 0.02  C 
BRANCH 63 64
ATOM     64  CD  ARG P   5      30.148  27.674  -2.981  1.00 15.69 LIG 0.14  C 
BRANCH 64 65
ATOM     65  NE  ARG P   5      29.361  28.831  -2.534  1.00 15.25 LIG-0.23  N 
ATOM     66 HE   ARG P   5      28.546  28.903  -2.799  1.00 15.25 LIG 0.18  HD
ATOM     67  CZ  ARG P   5      29.861  29.775  -1.733  1.00 16.06 LIG 0.67  C 
ATOM     68  NH2 ARG P   5      29.118  30.819  -1.365  1.00 16.00 LIG-0.23  N 
ATOM     69  NH1 ARG P   5      31.119  29.692  -1.324  1.00 17.19 LIG-0.23  N 
ATOM     70 1HH2 ARG P   5      28.307  30.890  -1.644  1.00 16.00 LIG 0.17  HD
ATOM     71 2HH2 ARG P   5      29.448  31.422  -0.849  1.00 16.00 LIG 0.17  HD
ATOM     72 1HH1 ARG P   5      31.611  29.033  -1.575  1.00 17.19 LIG 0.17  HD
ATOM     73 2HH1 ARG P   5      31.444  30.299  -0.808  1.00 17.19 LIG 0.17  HD
ENDBRANCH 64 65
ENDBRANCH 63 64
ENDBRANCH 62 63
ENDBRANCH 1 62
TORSDOF 28
ENDMDL
MODEL 21
USER: ADFR SOLUTION from run 150
USER: SCORE 19.810287 LL:  -6.531 LR: -16.385 RR:   0.000 FEB:  -8.033
USER: RMSD 6.162365
USER: SEED 149
USER: STATUS no improvement in best in 6 clusters for 5 generations
USER: GENES 30
USER: genes 0 Translation |==|  0.50369 0.49424 0.60464
USER: genes 1 Rotation |==|  0.76994 0.09356 0.39075 0.50141
USER: genes 2 Torsion [CB]-CA--N-[C] |==|  0.24952
USER: genes 3 Torsion [N]-C--CA-[N] |==|  0.00038
USER: genes 4 Torsion [C]-CA--N-[C] |==|  0.54609
USER: genes 5 Torsion [N]-C--CA-[N] |==|  0.51745
USER: genes 6 Torsion [C]-CA--CB-[CG] |==|  0.28775
USER: genes 7 Torsion [CA]-CB--CG-[CD] |==|  0.94872
USER: genes 8 Torsion [CB]-CG--CD-[OE1] |==|  0.74128
USER: genes 9 Torsion [C]-CA--N-[C] |==|  0.75655
USER: genes 10 Torsion [N]-C--CA-[N] |==|  0.20983
USER: genes 11 Torsion [C]-CA--CB-[CG] |==|  0.28028
USER: genes 12 Torsion [CA]-CB--CG-[CD2] |==|  0.84117
USER: genes 13 Torsion [N]-CA--C-[N] |==|  0.47389
USER: genes 14 Torsion [C]-N--CA-[CB] |==|  0.15827
USER: genes 15 Torsion [N]-CA--CB-[CG] |==|  0.41374
USER: genes 16 Torsion [CA]-CB--CG-[CD2] |==|  0.67999
USER: genes 17 Torsion [N]-CA--C-[N] |==|  0.86659
USER: genes 18 Torsion [C]-N--CA-[CB] |==|  0.83713
USER: genes 19 Torsion [N]-CA--C-[N] |==|  0.37128
USER: genes 20 Torsion [C]-N--CA-[CB] |==|  0.86131
USER: genes 21 Torsion [N]-CA--CB-[OG] |==|  0.45429
USER: genes 22 Torsion [CA]-CB--OG-[HG] |==|  0.89064
USER: genes 23 Torsion [N]-CA--C-[OXT] |==|  0.08505
USER: genes 24 Torsion [N]-CA--CB-[CG] |==|  0.73156
USER: genes 25 Torsion [CA]-CB--CG-[OD2] |==|  0.14652
USER: genes 26 Torsion [N]-CA--CB-[CG] |==|  0.86273
USER: genes 27 Torsion [CA]-CB--CG-[CD] |==|  0.35816
USER: genes 28 Torsion [CB]-CG--CD-[NE] |==|  0.67540
USER: genes 29 Torsion [CG]-CD--NE-[HE] |==|  0.81601
ROOT
ATOM      1  CA  ARG P   5      31.772  28.877  -4.561  1.00 16.30 LIG 0.18  C 
ENDROOT
BRANCH 1 2
ATOM      2  N   ARG P   5      31.645  30.341  -4.558  1.00 16.36 LIG-0.35  N 
ATOM      3  C   PHE P   4      31.471  31.008  -3.432  1.00 16.61 LIG 0.24  C 
ATOM      4 O    PHE P   4      31.497  30.476  -2.320  1.00 17.57 LIG-0.27  OA
ATOM      5 H    ARG P   5      31.693  30.707  -5.335  1.00 16.36 LIG 0.16  HD
BRANCH 3 6
ATOM      6  CA  PHE P   4      31.233  32.512  -3.571  1.00 17.34 LIG 0.18  C 
BRANCH 6 7
ATOM      7  N   PHE P   4      31.260  32.825  -4.988  1.00 18.03 LIG-0.35  N 
ATOM      8  C   GLU P   3      31.410  34.077  -5.423  1.00 20.04 LIG 0.24  C 
ATOM      9 O    GLU P   3      31.351  35.048  -4.685  1.00 20.03 LIG-0.27  OA
ATOM     10 H    PHE P   4      31.173  32.143  -5.505  1.00 18.03 LIG 0.16  HD
BRANCH 8 11
ATOM     11  CA  GLU P   3      31.632  34.257  -6.926  1.00 21.92 LIG 0.18  C 
BRANCH 11 12
ATOM     12  CB  GLU P   3      32.777  33.359  -7.398  1.00 22.70 LIG 0.04  C 
BRANCH 12 13
ATOM     13  CG  GLU P   3      32.280  32.130  -8.136  1.00 23.46 LIG 0.12  C 
BRANCH 13 14
ATOM     14  CD  GLU P   3      30.825  31.801  -7.886  1.00 23.38 LIG 0.17  C 
ATOM     15 OE1  GLU P   3      30.570  30.991  -6.964  1.00 24.20 LIG-0.65  OA
ATOM     16 OE2  GLU P   3      29.953  32.325  -8.611  1.00 25.77 LIG-0.65  OA
ENDBRANCH 13 14
ENDBRANCH 12 13
ENDBRANCH 11 12
BRANCH 11 17
ATOM     17  N   GLU P   3      31.923  35.670  -7.190  1.00 23.31 LIG-0.35  N 
ATOM     18 H    GLU P   3      32.759  35.872  -7.190  1.00 23.31 LIG 0.16  HD
ATOM     19  C   ALA P   2      30.944  36.540  -7.407  1.00 24.65 LIG 0.26  C 
ATOM     20 O    ALA P   2      29.779  36.180  -7.649  1.00 25.69 LIG-0.27  OA
BRANCH 19 21
ATOM     21  CA  ALA P   2      31.314  38.035  -7.416  1.00 24.82 LIG 0.40  C 
ATOM     22  N   ALA P   2      32.005  38.391  -8.680  1.00 26.06 LIG 0.61  N 
ATOM     23  CB  ALA P   2      30.069  38.926  -7.238  1.00 25.99 LIG 0.06  C 
ENDBRANCH 19 21
ENDBRANCH 11 17
ENDBRANCH 8 11
ENDBRANCH 6 7
BRANCH 6 24
ATOM     24  CB  PHE P   4      29.882  32.908  -2.940  1.00 16.70 LIG 0.07  C 
BRANCH 24 25
ATOM     25  CG  PHE P   4      30.000  33.525  -1.561  1.00 15.87 LIG-0.06  A 
ATOM     26  CD2 PHE P   4      30.627  32.834  -0.530  1.00 14.31 LIG 0.01  A 
ATOM     27  CE2 PHE P   4      30.715  33.382   0.750  1.00 14.76 LIG 0.00  A 
ATOM     28  CZ  PHE P   4      30.157  34.639   1.018  1.00 16.46 LIG 0.00  A 
ATOM     29  CE1 PHE P   4      29.532  35.342  -0.006  1.00 16.70 LIG 0.00  A 
ATOM     30  CD1 PHE P   4      29.449  34.768  -1.280  1.00 16.73 LIG 0.01  A 
ENDBRANCH 24 25
ENDBRANCH 6 24
ENDBRANCH 3 6
ENDBRANCH 1 2
BRANCH 1 31
ATOM     31  C   ARG P   5      32.690  28.379  -5.689  1.00 16.50 LIG 0.24  C 
ATOM     32  N   HIS P   6      33.025  27.092  -5.662  1.00 17.02 LIG-0.35  N 
ATOM     33 H    HIS P   6      32.818  26.547  -5.029  1.00 17.02 LIG 0.16  HD
ATOM     34 O    ARG P   5      33.076  29.148  -6.578  1.00 15.68 LIG-0.27  OA
BRANCH 32 35
ATOM     35  CA  HIS P   6      33.805  26.500  -6.759  1.00 18.55 LIG 0.18  C 
BRANCH 35 36
ATOM     36  CB  HIS P   6      35.120  27.243  -6.957  1.00 17.94 LIG 0.10  C 
BRANCH 36 37
ATOM     37  CG  HIS P   6      36.246  26.397  -7.456  1.00 17.06 LIG 0.06  A 
ATOM     38 ND1  HIS P   6      36.212  25.757  -8.674  1.00 15.40 LIG-0.24  NA
ATOM     39  CE1 HIS P   6      37.315  25.049  -8.831  1.00 15.09 LIG 0.23  A 
ATOM     40 NE2  HIS P   6      38.070  25.211  -7.760  1.00 16.22 LIG-0.25  NA
ATOM     41  CD2 HIS P   6      37.416  26.046  -6.880  1.00 16.02 LIG 0.14  A 
ENDBRANCH 36 37
ENDBRANCH 35 36
BRANCH 35 42
ATOM     42  C   HIS P   6      34.148  25.091  -6.345  1.00 20.42 LIG 0.24  C 
ATOM     43 O    HIS P   6      33.943  24.170  -7.130  1.00 21.09 LIG-0.27  OA
ATOM     44  N   ASP P   7      34.644  24.881  -5.140  1.00 22.91 LIG-0.34  N 
ATOM     45 H    ASP P   7      34.761  25.476  -4.530  1.00 22.91 LIG 0.16  HD
BRANCH 44 46
ATOM     46  CA  ASP P   7      35.039  23.499  -4.792  1.00 24.36 LIG 0.19  C 
BRANCH 46 47
ATOM     47  C   ASP P   7      36.246  22.991  -5.570  1.00 26.16 LIG 0.24  C 
ATOM     48  N   SER P   8      37.196  22.376  -4.860  1.00 27.90 LIG-0.34  N 
ATOM     49 H    SER P   8      37.198  22.315  -4.003  1.00 27.90 LIG 0.16  HD
ATOM     50 O    ASP P   7      36.338  23.153  -6.781  1.00 26.07 LIG-0.27  OA
BRANCH 48 51
ATOM     51  CA  SER P   8      38.339  21.742  -5.525  1.00 28.60 LIG 0.21  C 
BRANCH 51 52
ATOM     52  CB  SER P   8      37.849  20.831  -6.649  1.00 29.65 LIG 0.20  C 
BRANCH 52 53
ATOM     53 OG   SER P   8      38.911  20.511  -7.531  1.00 30.91 LIG-0.40  OA
ATOM     54 HG   SER P   8      39.394  21.188  -7.647  1.00 30.91 LIG 0.21  HD
ENDBRANCH 52 53
ENDBRANCH 51 52
BRANCH 51 55
ATOM     55  C   SER P   8      39.387  22.780  -6.038  1.00 29.85 LIG 0.20  C 
ATOM     56 OXT  SER P   8      39.573  23.861  -5.464  1.00 30.94 LIG-0.65  OA
ATOM     57 O    SER P   8      40.076  22.633  -7.060  1.00 30.51 LIG-0.65  OA
ENDBRANCH 51 55
ENDBRANCH 48 51
ENDBRANCH 46 47
BRANCH 46 58
ATOM     58  CB  ASP P   7      33.862  22.556  -4.912  1.00 24.61 LIG 0.15  C 
BRANCH 58 59
ATOM     59  CG  ASP P   7      33.194  22.327  -3.581  1.00 26.42 LIG 0.17  C 
ATOM     60 OD2  ASP P   7      32.842  23.309  -2.916  1.00 29.83 LIG-0.65  OA
ATOM     61 OD1  ASP P   7      32.999  21.142  -3.214  1.00 30.09 LIG-0.65  OA
ENDBRANCH 58 59
ENDBRANCH 46 58
ENDBRANCH 44 46
ENDBRANCH 35 42
ENDBRANCH 32 35
ENDBRANCH 1 31
BRANCH 1 62
ATOM     62  CB  ARG P   5      30.398  28.243  -4.703  1.00 16.24 LIG 0.04  C 
BRANCH 62 63
ATOM     63  CG  ARG P   5      29.340  28.774  -3.756  1.00 15.73 LIG 0.02  C 
BRANCH 63 64
ATOM     64  CD  ARG P   5      28.110  29.163  -4.528  1.00 15.69 LIG 0.14  C 
BRANCH 64 65
ATOM     65  NE  ARG P   5      27.782  30.593  -4.457  1.00 15.25 LIG-0.23  N 
ATOM     66 HE   ARG P   5      27.544  30.925  -3.700  1.00 15.25 LIG 0.18  HD
ATOM     67  CZ  ARG P   5      27.839  31.398  -5.520  1.00 16.06 LIG 0.67  C 
ATOM     68  NH2 ARG P   5      27.515  32.688  -5.417  1.00 16.00 LIG-0.23  N 
ATOM     69  NH1 ARG P   5      28.189  30.906  -6.701  1.00 17.19 LIG-0.23  N 
ATOM     70 1HH2 ARG P   5      27.267  33.009  -4.659  1.00 16.00 LIG 0.17  HD
ATOM     71 2HH2 ARG P   5      27.555  33.198  -6.108  1.00 16.00 LIG 0.17  HD
ATOM     72 1HH1 ARG P   5      28.378  30.070  -6.780  1.00 17.19 LIG 0.17  HD
ATOM     73 2HH1 ARG P   5      28.227  31.422  -7.388  1.00 17.19 LIG 0.17  HD
ENDBRANCH 64 65
ENDBRANCH 63 64
ENDBRANCH 62 63
ENDBRANCH 1 62
TORSDOF 28
ENDMDL
MODEL 22
USER: ADFR SOLUTION from run 60
USER: SCORE 18.480480 LL:  -5.971 LR: -16.379 RR:   0.000 FEB:  -8.027
USER: RMSD 7.374622
USER: SEED 59
USER: STATUS 1 or 2 clusters left
USER: GENES 30
USER: genes 0 Translation |==|  0.55698 0.50718 0.53087
USER: genes 1 Rotation |==|  0.21244 0.88926 0.61417 0.55244
USER: genes 2 Torsion [CB]-CA--N-[C] |==|  0.24640
USER: genes 3 Torsion [N]-C--CA-[N] |==|  0.99630
USER: genes 4 Torsion [C]-CA--N-[C] |==|  0.77057
USER: genes 5 Torsion [N]-C--CA-[N] |==|  0.45046
USER: genes 6 Torsion [C]-CA--CB-[CG] |==|  0.43077
USER: genes 7 Torsion [CA]-CB--CG-[CD] |==|  0.21289
USER: genes 8 Torsion [CB]-CG--CD-[OE1] |==|  0.28043
USER: genes 9 Torsion [C]-CA--N-[C] |==|  0.20797
USER: genes 10 Torsion [N]-C--CA-[N] |==|  0.40590
USER: genes 11 Torsion [C]-CA--CB-[CG] |==|  0.30150
USER: genes 12 Torsion [CA]-CB--CG-[CD2] |==|  0.26478
USER: genes 13 Torsion [N]-CA--C-[N] |==|  0.40402
USER: genes 14 Torsion [C]-N--CA-[CB] |==|  0.19323
USER: genes 15 Torsion [N]-CA--CB-[CG] |==|  0.71618
USER: genes 16 Torsion [CA]-CB--CG-[CD2] |==|  0.92631
USER: genes 17 Torsion [N]-CA--C-[N] |==|  0.28079
USER: genes 18 Torsion [C]-N--CA-[CB] |==|  0.81961
USER: genes 19 Torsion [N]-CA--C-[N] |==|  0.16388
USER: genes 20 Torsion [C]-N--CA-[CB] |==|  0.33301
USER: genes 21 Torsion [N]-CA--CB-[OG] |==|  0.95785
USER: genes 22 Torsion [CA]-CB--OG-[HG] |==|  0.51596
USER: genes 23 Torsion [N]-CA--C-[OXT] |==|  0.03850
USER: genes 24 Torsion [N]-CA--CB-[CG] |==|  0.71413
USER: genes 25 Torsion [CA]-CB--CG-[OD2] |==|  0.14680
USER: genes 26 Torsion [N]-CA--CB-[CG] |==|  0.59695
USER: genes 27 Torsion [CA]-CB--CG-[CD] |==|  0.29159
USER: genes 28 Torsion [CB]-CG--CD-[NE] |==|  0.79046
USER: genes 29 Torsion [CG]-CD--NE-[HE] |==|  0.86759
ROOT
ATOM      1  CA  ARG P   5      33.011  29.187  -5.999  1.00 16.30 LIG 0.18  C 
ENDROOT
BRANCH 1 2
ATOM      2  N   ARG P   5      32.797  30.629  -5.812  1.00 16.36 LIG-0.35  N 
ATOM      3  C   PHE P   4      32.368  31.111  -4.659  1.00 16.61 LIG 0.24  C 
ATOM      4 O    PHE P   4      32.211  30.416  -3.653  1.00 17.57 LIG-0.27  OA
ATOM      5 H    ARG P   5      32.973  31.111  -6.502  1.00 16.36 LIG 0.16  HD
BRANCH 3 6
ATOM      6  CA  PHE P   4      32.072  32.610  -4.626  1.00 17.34 LIG 0.18  C 
BRANCH 6 7
ATOM      7  N   PHE P   4      32.388  33.143  -5.938  1.00 18.03 LIG-0.35  N 
ATOM      8  C   GLU P   3      33.637  33.467  -6.277  1.00 20.04 LIG 0.24  C 
ATOM      9 O    GLU P   3      34.553  33.512  -5.472  1.00 20.03 LIG-0.27  OA
ATOM     10 H    PHE P   4      31.710  33.227  -6.460  1.00 18.03 LIG 0.16  HD
BRANCH 8 11
ATOM     11  CA  GLU P   3      33.877  33.819  -7.746  1.00 21.92 LIG 0.18  C 
BRANCH 11 12
ATOM     12  CB  GLU P   3      33.892  32.547  -8.595  1.00 22.70 LIG 0.04  C 
BRANCH 12 13
ATOM     13  CG  GLU P   3      33.523  32.814 -10.043  1.00 23.46 LIG 0.12  C 
BRANCH 13 14
ATOM     14  CD  GLU P   3      34.628  33.443 -10.860  1.00 23.38 LIG 0.17  C 
ATOM     15 OE1  GLU P   3      35.283  32.688 -11.616  1.00 24.20 LIG-0.65  OA
ATOM     16 OE2  GLU P   3      34.853  34.665 -10.734  1.00 25.77 LIG-0.65  OA
ENDBRANCH 13 14
ENDBRANCH 12 13
ENDBRANCH 11 12
BRANCH 11 17
ATOM     17  N   GLU P   3      35.148  34.543  -7.852  1.00 23.31 LIG-0.35  N 
ATOM     18 H    GLU P   3      35.070  35.390  -7.982  1.00 23.31 LIG 0.16  HD
ATOM     19  C   ALA P   2      36.308  33.906  -7.749  1.00 24.65 LIG 0.26  C 
ATOM     20 O    ALA P   2      36.388  32.744  -7.314  1.00 25.69 LIG-0.27  OA
BRANCH 19 21
ATOM     21  CA  ALA P   2      37.580  34.686  -8.127  1.00 24.82 LIG 0.40  C 
ATOM     22  N   ALA P   2      38.719  34.265  -7.275  1.00 26.06 LIG 0.61  N 
ATOM     23  CB  ALA P   2      37.944  34.487  -9.612  1.00 25.99 LIG 0.06  C 
ENDBRANCH 19 21
ENDBRANCH 11 17
ENDBRANCH 8 11
ENDBRANCH 6 7
BRANCH 6 24
ATOM     24  CB  PHE P   4      30.593  32.862  -4.264  1.00 16.70 LIG 0.07  C 
BRANCH 24 25
ATOM     25  CG  PHE P   4      30.384  33.432  -2.875  1.00 15.87 LIG-0.06  A 
ATOM     26  CD2 PHE P   4      30.257  34.803  -2.686  1.00 14.31 LIG 0.01  A 
ATOM     27  CE2 PHE P   4      30.094  35.338  -1.408  1.00 14.76 LIG 0.00  A 
ATOM     28  CZ  PHE P   4      30.068  34.494  -0.289  1.00 16.46 LIG 0.00  A 
ATOM     29  CE1 PHE P   4      30.188  33.120  -0.466  1.00 16.70 LIG 0.00  A 
ATOM     30  CD1 PHE P   4      30.360  32.608  -1.757  1.00 16.73 LIG 0.01  A 
ENDBRANCH 24 25
ENDBRANCH 6 24
ENDBRANCH 3 6
ENDBRANCH 1 2
BRANCH 1 31
ATOM     31  C   ARG P   5      34.140  28.896  -7.000  1.00 16.50 LIG 0.24  C 
ATOM     32  N   HIS P   6      34.889  27.822  -6.762  1.00 17.02 LIG-0.35  N 
ATOM     33 H    HIS P   6      34.823  27.328  -6.061  1.00 17.02 LIG 0.16  HD
ATOM     34 O    ARG P   5      34.320  29.627  -7.982  1.00 15.68 LIG-0.27  OA
BRANCH 32 35
ATOM     35  CA  HIS P   6      35.917  27.400  -7.724  1.00 18.55 LIG 0.18  C 
BRANCH 35 36
ATOM     36  CB  HIS P   6      37.076  28.388  -7.753  1.00 17.94 LIG 0.10  C 
BRANCH 36 37
ATOM     37  CG  HIS P   6      37.072  29.323  -8.918  1.00 17.06 LIG 0.06  A 
ATOM     38 ND1  HIS P   6      37.608  30.589  -8.857  1.00 15.40 LIG-0.24  NA
ATOM     39  CE1 HIS P   6      37.423  31.203 -10.012  1.00 15.09 LIG 0.23  A 
ATOM     40 NE2  HIS P   6      36.790  30.377 -10.825  1.00 16.22 LIG-0.25  NA
ATOM     41  CD2 HIS P   6      36.552  29.194 -10.158  1.00 16.02 LIG 0.14  A 
ENDBRANCH 36 37
ENDBRANCH 35 36
BRANCH 35 42
ATOM     42  C   HIS P   6      36.467  26.085  -7.231  1.00 20.42 LIG 0.24  C 
ATOM     43 O    HIS P   6      37.300  26.083  -6.331  1.00 21.09 LIG-0.27  OA
ATOM     44  N   ASP P   7      36.050  24.966  -7.796  1.00 22.91 LIG-0.34  N 
ATOM     45 H    ASP P   7      35.510  24.906  -8.462  1.00 22.91 LIG 0.16  HD
BRANCH 44 46
ATOM     46  CA  ASP P   7      36.551  23.690  -7.241  1.00 24.36 LIG 0.19  C 
BRANCH 46 47
ATOM     47  C   ASP P   7      36.159  23.456  -5.788  1.00 26.16 LIG 0.24  C 
ATOM     48  N   SER P   8      34.852  23.433  -5.520  1.00 27.90 LIG-0.34  N 
ATOM     49 H    SER P   8      34.235  23.609  -6.093  1.00 27.90 LIG 0.16  HD
ATOM     50 O    ASP P   7      37.007  23.308  -4.915  1.00 26.07 LIG-0.27  OA
BRANCH 48 51
ATOM     51  CA  SER P   8      34.365  23.094  -4.179  1.00 28.60 LIG 0.21  C 
BRANCH 51 52
ATOM     52  CB  SER P   8      33.562  24.260  -3.605  1.00 29.65 LIG 0.20  C 
BRANCH 52 53
ATOM     53 OG   SER P   8      33.797  25.444  -4.349  1.00 30.91 LIG-0.40  OA
ATOM     54 HG   SER P   8      33.412  26.091  -3.976  1.00 30.91 LIG 0.21  HD
ENDBRANCH 52 53
ENDBRANCH 51 52
BRANCH 51 55
ATOM     55  C   SER P   8      33.547  21.764  -4.155  1.00 29.85 LIG 0.20  C 
ATOM     56 OXT  SER P   8      33.561  20.970  -5.105  1.00 30.94 LIG-0.65  OA
ATOM     57 O    SER P   8      32.801  21.416  -3.226  1.00 30.51 LIG-0.65  OA
ENDBRANCH 51 55
ENDBRANCH 48 51
ENDBRANCH 46 47
BRANCH 46 58
ATOM     58  CB  ASP P   7      38.046  23.566  -7.441  1.00 24.61 LIG 0.15  C 
BRANCH 58 59
ATOM     59  CG  ASP P   7      38.379  22.635  -8.578  1.00 26.42 LIG 0.17  C 
ATOM     60 OD2  ASP P   7      37.853  22.831  -9.680  1.00 29.83 LIG-0.65  OA
ATOM     61 OD1  ASP P   7      39.202  21.710  -8.363  1.00 30.09 LIG-0.65  OA
ENDBRANCH 58 59
ENDBRANCH 46 58
ENDBRANCH 44 46
ENDBRANCH 35 42
ENDBRANCH 32 35
ENDBRANCH 1 31
BRANCH 1 62
ATOM     62  CB  ARG P   5      31.724  28.536  -6.478  1.00 16.24 LIG 0.04  C 
BRANCH 62 63
ATOM     63  CG  ARG P   5      31.480  27.132  -5.962  1.00 15.73 LIG 0.02  C 
BRANCH 63 64
ATOM     64  CD  ARG P   5      30.422  27.155  -4.893  1.00 15.69 LIG 0.14  C 
BRANCH 64 65
ATOM     65  NE  ARG P   5      30.887  27.671  -3.598  1.00 15.25 LIG-0.23  N 
ATOM     66 HE   ARG P   5      31.625  27.371  -3.275  1.00 15.25 LIG 0.18  HD
ATOM     67  CZ  ARG P   5      30.208  28.587  -2.903  1.00 16.06 LIG 0.67  C 
ATOM     68  NH2 ARG P   5      30.656  29.015  -1.722  1.00 16.00 LIG-0.23  N 
ATOM     69  NH1 ARG P   5      29.060  29.053  -3.374  1.00 17.19 LIG-0.23  N 
ATOM     70 1HH2 ARG P   5      31.389  28.701  -1.401  1.00 16.00 LIG 0.17  HD
ATOM     71 2HH2 ARG P   5      30.212  29.606  -1.282  1.00 16.00 LIG 0.17  HD
ATOM     72 1HH1 ARG P   5      28.754  28.765  -4.125  1.00 17.19 LIG 0.17  HD
ATOM     73 2HH1 ARG P   5      28.620  29.643  -2.929  1.00 17.19 LIG 0.17  HD
ENDBRANCH 64 65
ENDBRANCH 63 64
ENDBRANCH 62 63
ENDBRANCH 1 62
TORSDOF 28
ENDMDL
MODEL 23
USER: ADFR SOLUTION from run 6
USER: SCORE 20.072838 LL:  -6.305 LR: -16.263 RR:   0.000 FEB:  -7.911
USER: RMSD 9.084610
USER: SEED 679228
USER: STATUS searching
USER: GENES 30
USER: genes 0 Translation |==|  0.46354 0.55776 0.50124
USER: genes 1 Rotation |==|  0.34625 0.37401 0.13576 0.77895
USER: genes 2 Torsion [CB]-CA--N-[C] |==|  0.86111
USER: genes 3 Torsion [N]-C--CA-[N] |==|  0.22071
USER: genes 4 Torsion [C]-CA--N-[C] |==|  0.18954
USER: genes 5 Torsion [N]-C--CA-[N] |==|  0.88219
USER: genes 6 Torsion [C]-CA--CB-[CG] |==|  0.42316
USER: genes 7 Torsion [CA]-CB--CG-[CD] |==|  0.12878
USER: genes 8 Torsion [CB]-CG--CD-[OE1] |==|  0.66494
USER: genes 9 Torsion [C]-CA--N-[C] |==|  0.23601
USER: genes 10 Torsion [N]-C--CA-[N] |==|  0.91426
USER: genes 11 Torsion [C]-CA--CB-[CG] |==|  0.34104
USER: genes 12 Torsion [CA]-CB--CG-[CD2] |==|  0.93450
USER: genes 13 Torsion [N]-CA--C-[N] |==|  0.90951
USER: genes 14 Torsion [C]-N--CA-[CB] |==|  0.51725
USER: genes 15 Torsion [N]-CA--CB-[CG] |==|  0.78496
USER: genes 16 Torsion [CA]-CB--CG-[CD2] |==|  0.49098
USER: genes 17 Torsion [N]-CA--C-[N] |==|  0.36840
USER: genes 18 Torsion [C]-N--CA-[CB] |==|  0.84837
USER: genes 19 Torsion [N]-CA--C-[N] |==|  0.40719
USER: genes 20 Torsion [C]-N--CA-[CB] |==|  0.85937
USER: genes 21 Torsion [N]-CA--CB-[OG] |==|  0.86051
USER: genes 22 Torsion [CA]-CB--OG-[HG] |==|  0.09032
USER: genes 23 Torsion [N]-CA--C-[OXT] |==|  0.59655
USER: genes 24 Torsion [N]-CA--CB-[CG] |==|  0.57826
USER: genes 25 Torsion [CA]-CB--CG-[OD2] |==|  0.28710
USER: genes 26 Torsion [N]-CA--CB-[CG] |==|  0.66560
USER: genes 27 Torsion [CA]-CB--CG-[CD] |==|  0.72107
USER: genes 28 Torsion [CB]-CG--CD-[NE] |==|  0.86489
USER: genes 29 Torsion [CG]-CD--NE-[HE] |==|  0.79667
ROOT
ATOM      1  CA  ARG P   5      30.838  30.401  -6.577  1.00 16.30 LIG 0.18  C 
ENDROOT
BRANCH 1 2
ATOM      2  N   ARG P   5      31.726  31.453  -7.090  1.00 16.36 LIG-0.35  N 
ATOM      3  C   PHE P   4      32.400  32.238  -6.269  1.00 16.61 LIG 0.24  C 
ATOM      4 O    PHE P   4      32.408  32.088  -5.045  1.00 17.57 LIG-0.27  OA
ATOM      5 H    ARG P   5      31.762  31.506  -7.948  1.00 16.36 LIG 0.16  HD
BRANCH 3 6
ATOM      6  CA  PHE P   4      33.195  33.369  -6.921  1.00 17.34 LIG 0.18  C 
BRANCH 6 7
ATOM      7  N   PHE P   4      32.259  34.434  -7.230  1.00 18.03 LIG-0.35  N 
ATOM      8  C   GLU P   3      31.666  35.143  -6.268  1.00 20.04 LIG 0.24  C 
ATOM      9 O    GLU P   3      31.723  34.838  -5.088  1.00 20.03 LIG-0.27  OA
ATOM     10 H    PHE P   4      32.128  34.559  -8.071  1.00 18.03 LIG 0.16  HD
BRANCH 8 11
ATOM     11  CA  GLU P   3      30.867  36.368  -6.716  1.00 21.92 LIG 0.18  C 
BRANCH 11 12
ATOM     12  CB  GLU P   3      29.496  35.937  -7.241  1.00 22.70 LIG 0.04  C 
BRANCH 12 13
ATOM     13  CG  GLU P   3      28.446  37.019  -7.071  1.00 23.46 LIG 0.12  C 
BRANCH 13 14
ATOM     14  CD  GLU P   3      28.897  38.396  -7.503  1.00 23.38 LIG 0.17  C 
ATOM     15 OE1  GLU P   3      28.882  39.302  -6.638  1.00 24.20 LIG-0.65  OA
ATOM     16 OE2  GLU P   3      29.238  38.575  -8.691  1.00 25.77 LIG-0.65  OA
ENDBRANCH 13 14
ENDBRANCH 12 13
ENDBRANCH 11 12
BRANCH 11 17
ATOM     17  N   GLU P   3      31.632  37.075  -7.748  1.00 23.31 LIG-0.35  N 
ATOM     18 H    GLU P   3      32.117  37.723  -7.456  1.00 23.31 LIG 0.16  HD
ATOM     19  C   ALA P   2      31.556  36.713  -9.023  1.00 24.65 LIG 0.26  C 
ATOM     20 O    ALA P   2      31.054  35.632  -9.376  1.00 25.69 LIG-0.27  OA
BRANCH 19 21
ATOM     21  CA  ALA P   2      32.179  37.659 -10.066  1.00 24.82 LIG 0.40  C 
ATOM     22  N   ALA P   2      32.095  39.067  -9.606  1.00 26.06 LIG 0.61  N 
ATOM     23  CB  ALA P   2      33.649  37.295 -10.351  1.00 25.99 LIG 0.06  C 
ENDBRANCH 19 21
ENDBRANCH 11 17
ENDBRANCH 8 11
ENDBRANCH 6 7
BRANCH 6 24
ATOM     24  CB  PHE P   4      34.309  33.865  -5.974  1.00 16.70 LIG 0.07  C 
BRANCH 24 25
ATOM     25  CG  PHE P   4      35.703  33.786  -6.564  1.00 15.87 LIG-0.06  A 
ATOM     26  CD2 PHE P   4      35.985  32.895  -7.593  1.00 14.31 LIG 0.01  A 
ATOM     27  CE2 PHE P   4      37.272  32.796  -8.122  1.00 14.76 LIG 0.00  A 
ATOM     28  CZ  PHE P   4      38.307  33.589  -7.610  1.00 16.46 LIG 0.00  A 
ATOM     29  CE1 PHE P   4      38.036  34.488  -6.585  1.00 16.70 LIG 0.00  A 
ATOM     30  CD1 PHE P   4      36.739  34.564  -6.065  1.00 16.73 LIG 0.01  A 
ENDBRANCH 24 25
ENDBRANCH 6 24
ENDBRANCH 3 6
ENDBRANCH 1 2
BRANCH 1 31
ATOM     31  C   ARG P   5      29.558  30.979  -5.952  1.00 16.50 LIG 0.24  C 
ATOM     32  N   HIS P   6      29.666  32.163  -5.354  1.00 17.02 LIG-0.35  N 
ATOM     33 H    HIS P   6      30.406  32.585  -5.240  1.00 17.02 LIG 0.16  HD
ATOM     34 O    ARG P   5      28.485  30.367  -6.025  1.00 15.68 LIG-0.27  OA
BRANCH 32 35
ATOM     35  CA  HIS P   6      28.475  32.845  -4.830  1.00 18.55 LIG 0.18  C 
BRANCH 35 36
ATOM     36  CB  HIS P   6      28.821  34.242  -4.329  1.00 17.94 LIG 0.10  C 
BRANCH 36 37
ATOM     37  CG  HIS P   6      29.493  34.279  -2.996  1.00 17.06 LIG 0.06  A 
ATOM     38 ND1  HIS P   6      29.669  33.155  -2.221  1.00 15.40 LIG-0.24  NA
ATOM     39  CE1 HIS P   6      30.247  33.491  -1.081  1.00 15.09 LIG 0.23  A 
ATOM     40 NE2  HIS P   6      30.460  34.794  -1.091  1.00 16.22 LIG-0.25  NA
ATOM     41  CD2 HIS P   6      29.988  35.311  -2.279  1.00 16.02 LIG 0.14  A 
ENDBRANCH 36 37
ENDBRANCH 35 36
BRANCH 35 42
ATOM     42  C   HIS P   6      27.519  33.012  -5.985  1.00 20.42 LIG 0.24  C 
ATOM     43 O    HIS P   6      27.936  33.464  -7.047  1.00 21.09 LIG-0.27  OA
ATOM     44  N   ASP P   7      26.251  32.683  -5.818  1.00 22.91 LIG-0.34  N 
ATOM     45 H    ASP P   7      25.891  32.412  -5.086  1.00 22.91 LIG 0.16  HD
BRANCH 44 46
ATOM     46  CA  ASP P   7      25.356  32.787  -6.991  1.00 24.36 LIG 0.19  C 
BRANCH 46 47
ATOM     47  C   ASP P   7      25.594  31.712  -8.043  1.00 26.16 LIG 0.24  C 
ATOM     48  N   SER P   8      24.521  31.289  -8.715  1.00 27.90 LIG-0.34  N 
ATOM     49 H    SER P   8      23.714  31.532  -8.544  1.00 27.90 LIG 0.16  HD
ATOM     50 O    ASP P   7      26.714  31.257  -8.247  1.00 26.07 LIG-0.27  OA
BRANCH 48 51
ATOM     51  CA  SER P   8      24.655  30.349  -9.831  1.00 28.60 LIG 0.21  C 
BRANCH 51 52
ATOM     52  CB  SER P   8      25.712  30.851 -10.813  1.00 29.65 LIG 0.20  C 
BRANCH 52 53
ATOM     53 OG   SER P   8      25.470  32.204 -11.160  1.00 30.91 LIG-0.40  OA
ATOM     54 HG   SER P   8      25.127  32.605 -10.506  1.00 30.91 LIG 0.21  HD
ENDBRANCH 52 53
ENDBRANCH 51 52
BRANCH 51 55
ATOM     55  C   SER P   8      24.956  28.891  -9.357  1.00 29.85 LIG 0.20  C 
ATOM     56 OXT  SER P   8      25.686  28.130 -10.004  1.00 30.94 LIG-0.65  OA
ATOM     57 O    SER P   8      24.469  28.370  -8.341  1.00 30.51 LIG-0.65  OA
ENDBRANCH 51 55
ENDBRANCH 48 51
ENDBRANCH 46 47
BRANCH 46 58
ATOM     58  CB  ASP P   7      25.414  34.176  -7.590  1.00 24.61 LIG 0.15  C 
BRANCH 58 59
ATOM     59  CG  ASP P   7      24.122  34.539  -8.277  1.00 26.42 LIG 0.17  C 
ATOM     60 OD2  ASP P   7      23.343  35.311  -7.706  1.00 29.83 LIG-0.65  OA
ATOM     61 OD1  ASP P   7      23.904  34.060  -9.418  1.00 30.09 LIG-0.65  OA
ENDBRANCH 58 59
ENDBRANCH 46 58
ENDBRANCH 44 46
ENDBRANCH 35 42
ENDBRANCH 32 35
ENDBRANCH 1 31
BRANCH 1 62
ATOM     62  CB  ARG P   5      31.577  29.566  -5.544  1.00 16.24 LIG 0.04  C 
BRANCH 62 63
ATOM     63  CG  ARG P   5      31.695  28.090  -5.872  1.00 15.73 LIG 0.02  C 
BRANCH 63 64
ATOM     64  CD  ARG P   5      30.664  27.311  -5.103  1.00 15.69 LIG 0.14  C 
BRANCH 64 65
ATOM     65  NE  ARG P   5      30.610  27.634  -3.670  1.00 15.25 LIG-0.23  N 
ATOM     66 HE   ARG P   5      31.244  27.356  -3.161  1.00 15.25 LIG 0.18  HD
ATOM     67  CZ  ARG P   5      29.616  28.342  -3.130  1.00 16.06 LIG 0.67  C 
ATOM     68  NH2 ARG P   5      29.596  28.598  -1.821  1.00 16.00 LIG-0.23  N 
ATOM     69  NH1 ARG P   5      28.620  28.769  -3.894  1.00 17.19 LIG-0.23  N 
ATOM     70 1HH2 ARG P   5      30.228  28.306  -1.316  1.00 16.00 LIG 0.17  HD
ATOM     71 2HH2 ARG P   5      28.951  29.055  -1.482  1.00 16.00 LIG 0.17  HD
ATOM     72 1HH1 ARG P   5      28.615  28.589  -4.735  1.00 17.19 LIG 0.17  HD
ATOM     73 2HH1 ARG P   5      27.978  29.226  -3.548  1.00 17.19 LIG 0.17  HD
ENDBRANCH 64 65
ENDBRANCH 63 64
ENDBRANCH 62 63
ENDBRANCH 1 62
TORSDOF 28
ENDMDL
MODEL 24
USER: ADFR SOLUTION from run 12
USER: SCORE 19.269894 LL:  -6.370 LR: -16.260 RR:   0.000 FEB:  -7.907
USER: RMSD 10.330585
USER: SEED 567629
USER: STATUS 1 or 2 clusters left
USER: GENES 30
USER: genes 0 Translation |==|  0.54302 0.50248 0.54925
USER: genes 1 Rotation |==|  0.26167 0.13220 0.74004 0.51748
USER: genes 2 Torsion [CB]-CA--N-[C] |==|  0.83305
USER: genes 3 Torsion [N]-C--CA-[N] |==|  0.87586
USER: genes 4 Torsion [C]-CA--N-[C] |==|  0.63944
USER: genes 5 Torsion [N]-C--CA-[N] |==|  0.87498
USER: genes 6 Torsion [C]-CA--CB-[CG] |==|  0.15246
USER: genes 7 Torsion [CA]-CB--CG-[CD] |==|  0.68095
USER: genes 8 Torsion [CB]-CG--CD-[OE1] |==|  0.12024
USER: genes 9 Torsion [C]-CA--N-[C] |==|  0.79328
USER: genes 10 Torsion [N]-C--CA-[N] |==|  0.32110
USER: genes 11 Torsion [C]-CA--CB-[CG] |==|  0.40911
USER: genes 12 Torsion [CA]-CB--CG-[CD2] |==|  0.93540
USER: genes 13 Torsion [N]-CA--C-[N] |==|  0.38604
USER: genes 14 Torsion [C]-N--CA-[CB] |==|  0.35422
USER: genes 15 Torsion [N]-CA--CB-[CG] |==|  0.19423
USER: genes 16 Torsion [CA]-CB--CG-[CD2] |==|  0.31043
USER: genes 17 Torsion [N]-CA--C-[N] |==|  0.89211
USER: genes 18 Torsion [C]-N--CA-[CB] |==|  0.45259
USER: genes 19 Torsion [N]-CA--C-[N] |==|  0.27975
USER: genes 20 Torsion [C]-N--CA-[CB] |==|  0.24475
USER: genes 21 Torsion [N]-CA--CB-[OG] |==|  0.05287
USER: genes 22 Torsion [CA]-CB--OG-[HG] |==|  0.18819
USER: genes 23 Torsion [N]-CA--C-[OXT] |==|  0.75586
USER: genes 24 Torsion [N]-CA--CB-[CG] |==|  0.13429
USER: genes 25 Torsion [CA]-CB--CG-[OD2] |==|  0.39251
USER: genes 26 Torsion [N]-CA--CB-[CG] |==|  0.55437
USER: genes 27 Torsion [CA]-CB--CG-[CD] |==|  0.14446
USER: genes 28 Torsion [CB]-CG--CD-[NE] |==|  0.27266
USER: genes 29 Torsion [CG]-CD--NE-[HE] |==|  0.77296
ROOT
ATOM      1  CA  ARG P   5      32.686  29.075  -5.641  1.00 16.30 LIG 0.18  C 
ENDROOT
BRANCH 1 2
ATOM      2  N   ARG P   5      33.469  27.851  -5.862  1.00 16.36 LIG-0.35  N 
ATOM      3  C   PHE P   4      33.070  26.933  -6.725  1.00 16.61 LIG 0.24  C 
ATOM      4 O    PHE P   4      32.088  27.076  -7.457  1.00 17.57 LIG-0.27  OA
ATOM      5 H    ARG P   5      34.187  27.793  -5.392  1.00 16.36 LIG 0.16  HD
BRANCH 3 6
ATOM      6  CA  PHE P   4      33.905  25.654  -6.779  1.00 17.34 LIG 0.18  C 
BRANCH 6 7
ATOM      7  N   PHE P   4      35.301  26.048  -6.782  1.00 18.03 LIG-0.35  N 
ATOM      8  C   GLU P   3      36.160  25.568  -7.683  1.00 20.04 LIG 0.24  C 
ATOM      9 O    GLU P   3      35.886  24.647  -8.436  1.00 20.03 LIG-0.27  OA
ATOM     10 H    PHE P   4      35.514  26.606  -6.163  1.00 18.03 LIG 0.16  HD
BRANCH 8 11
ATOM     11  CA  GLU P   3      37.548  26.211  -7.715  1.00 21.92 LIG 0.18  C 
BRANCH 11 12
ATOM     12  CB  GLU P   3      38.393  25.694  -6.550  1.00 22.70 LIG 0.04  C 
BRANCH 12 13
ATOM     13  CG  GLU P   3      38.479  24.179  -6.527  1.00 23.46 LIG 0.12  C 
BRANCH 13 14
ATOM     14  CD  GLU P   3      37.825  23.539  -5.323  1.00 23.38 LIG 0.17  C 
ATOM     15 OE1  GLU P   3      36.709  23.986  -4.970  1.00 24.20 LIG-0.65  OA
ATOM     16 OE2  GLU P   3      38.426  22.620  -4.726  1.00 25.77 LIG-0.65  OA
ENDBRANCH 13 14
ENDBRANCH 12 13
ENDBRANCH 11 12
BRANCH 11 17
ATOM     17  N   GLU P   3      37.389  27.668  -7.650  1.00 23.31 LIG-0.35  N 
ATOM     18 H    GLU P   3      37.591  28.018  -6.891  1.00 23.31 LIG 0.16  HD
ATOM     19  C   ALA P   2      36.966  28.357  -8.702  1.00 24.65 LIG 0.26  C 
ATOM     20 O    ALA P   2      36.927  27.866  -9.844  1.00 25.69 LIG-0.27  OA
BRANCH 19 21
ATOM     21  CA  ALA P   2      36.581  29.831  -8.476  1.00 24.82 LIG 0.40  C 
ATOM     22  N   ALA P   2      37.492  30.727  -9.230  1.00 26.06 LIG 0.61  N 
ATOM     23  CB  ALA P   2      35.123  30.104  -8.894  1.00 25.99 LIG 0.06  C 
ENDBRANCH 19 21
ENDBRANCH 11 17
ENDBRANCH 8 11
ENDBRANCH 6 7
BRANCH 6 24
ATOM     24  CB  PHE P   4      33.585  24.746  -5.573  1.00 16.70 LIG 0.07  C 
BRANCH 24 25
ATOM     25  CG  PHE P   4      33.687  23.263  -5.870  1.00 15.87 LIG-0.06  A 
ATOM     26  CD2 PHE P   4      33.561  22.794  -7.172  1.00 14.31 LIG 0.01  A 
ATOM     27  CE2 PHE P   4      33.625  21.429  -7.450  1.00 14.76 LIG 0.00  A 
ATOM     28  CZ  PHE P   4      33.804  20.505  -6.412  1.00 16.46 LIG 0.00  A 
ATOM     29  CE1 PHE P   4      33.936  20.963  -5.106  1.00 16.70 LIG 0.00  A 
ATOM     30  CD1 PHE P   4      33.861  22.337  -4.850  1.00 16.73 LIG 0.01  A 
ENDBRANCH 24 25
ENDBRANCH 6 24
ENDBRANCH 3 6
ENDBRANCH 1 2
BRANCH 1 31
ATOM     31  C   ARG P   5      31.283  28.771  -5.091  1.00 16.50 LIG 0.24  C 
ATOM     32  N   HIS P   6      30.829  29.575  -4.133  1.00 17.02 LIG-0.35  N 
ATOM     33 H    HIS P   6      31.289  30.200  -3.764  1.00 17.02 LIG 0.16  HD
ATOM     34 O    ARG P   5      30.616  27.830  -5.541  1.00 15.68 LIG-0.27  OA
BRANCH 32 35
ATOM     35  CA  HIS P   6      29.456  29.432  -3.628  1.00 18.55 LIG 0.18  C 
BRANCH 35 36
ATOM     36  CB  HIS P   6      29.443  29.309  -2.109  1.00 17.94 LIG 0.10  C 
BRANCH 36 37
ATOM     37  CG  HIS P   6      29.808  30.559  -1.377  1.00 17.06 LIG 0.06  A 
ATOM     38 ND1  HIS P   6      31.090  31.060  -1.356  1.00 15.40 LIG-0.24  NA
ATOM     39  CE1 HIS P   6      31.128  32.141  -0.599  1.00 15.09 LIG 0.23  A 
ATOM     40 NE2  HIS P   6      29.913  32.365  -0.132  1.00 16.22 LIG-0.25  NA
ATOM     41  CD2 HIS P   6      29.070  31.381  -0.601  1.00 16.02 LIG 0.14  A 
ENDBRANCH 36 37
ENDBRANCH 35 36
BRANCH 35 42
ATOM     42  C   HIS P   6      28.725  30.705  -3.976  1.00 20.42 LIG 0.24  C 
ATOM     43 O    HIS P   6      27.561  30.641  -4.359  1.00 21.09 LIG-0.27  OA
ATOM     44  N   ASP P   7      29.363  31.856  -3.879  1.00 22.91 LIG-0.34  N 
ATOM     45 H    ASP P   7      30.190  31.960  -3.667  1.00 22.91 LIG 0.16  HD
BRANCH 44 46
ATOM     46  CA  ASP P   7      28.598  33.091  -4.155  1.00 24.36 LIG 0.19  C 
BRANCH 46 47
ATOM     47  C   ASP P   7      28.230  33.270  -5.623  1.00 26.16 LIG 0.24  C 
ATOM     48  N   SER P   8      26.981  32.949  -5.967  1.00 27.90 LIG-0.34  N 
ATOM     49 H    SER P   8      26.408  32.590  -5.436  1.00 27.90 LIG 0.16  HD
ATOM     50 O    ASP P   7      29.049  33.677  -6.439  1.00 26.07 LIG-0.27  OA
BRANCH 48 51
ATOM     51  CA  SER P   8      26.488  33.199  -7.325  1.00 28.60 LIG 0.21  C 
BRANCH 51 52
ATOM     52  CB  SER P   8      26.800  32.002  -8.222  1.00 29.65 LIG 0.20  C 
BRANCH 52 53
ATOM     53 OG   SER P   8      27.064  30.848  -7.442  1.00 30.91 LIG-0.40  OA
ATOM     54 HG   SER P   8      26.360  30.605  -7.054  1.00 30.91 LIG 0.21  HD
ENDBRANCH 52 53
ENDBRANCH 51 52
BRANCH 51 55
ATOM     55  C   SER P   8      24.969  33.563  -7.355  1.00 29.85 LIG 0.20  C 
ATOM     56 OXT  SER P   8      24.090  32.694  -7.429  1.00 30.94 LIG-0.65  OA
ATOM     57 O    SER P   8      24.526  34.722  -7.351  1.00 30.51 LIG-0.65  OA
ENDBRANCH 51 55
ENDBRANCH 48 51
ENDBRANCH 46 47
BRANCH 46 58
ATOM     58  CB  ASP P   7      29.318  34.305  -3.610  1.00 24.61 LIG 0.15  C 
BRANCH 58 59
ATOM     59  CG  ASP P   7      30.772  34.312  -4.005  1.00 26.42 LIG 0.17  C 
ATOM     60 OD2  ASP P   7      31.300  35.390  -4.308  1.00 29.83 LIG-0.65  OA
ATOM     61 OD1  ASP P   7      31.396  33.223  -3.985  1.00 30.09 LIG-0.65  OA
ENDBRANCH 58 59
ENDBRANCH 46 58
ENDBRANCH 44 46
ENDBRANCH 35 42
ENDBRANCH 32 35
ENDBRANCH 1 31
BRANCH 1 62
ATOM     62  CB  ARG P   5      32.568  29.851  -6.942  1.00 16.24 LIG 0.04  C 
BRANCH 62 63
ATOM     63  CG  ARG P   5      32.208  31.316  -6.789  1.00 15.73 LIG 0.02  C 
BRANCH 63 64
ATOM     64  CD  ARG P   5      33.147  31.975  -5.816  1.00 15.69 LIG 0.14  C 
BRANCH 64 65
ATOM     65  NE  ARG P   5      34.251  32.709  -6.448  1.00 15.25 LIG-0.23  N 
ATOM     66 HE   ARG P   5      34.943  32.270  -6.709  1.00 15.25 LIG 0.18  HD
ATOM     67  CZ  ARG P   5      34.223  34.031  -6.634  1.00 16.06 LIG 0.67  C 
ATOM     68  NH2 ARG P   5      35.255  34.662  -7.196  1.00 16.00 LIG-0.23  N 
ATOM     69  NH1 ARG P   5      33.173  34.731  -6.226  1.00 17.19 LIG-0.23  N 
ATOM     70 1HH2 ARG P   5      35.948  34.216  -7.443  1.00 16.00 LIG 0.17  HD
ATOM     71 2HH2 ARG P   5      35.228  35.513  -7.311  1.00 16.00 LIG 0.17  HD
ATOM     72 1HH1 ARG P   5      32.514  34.334  -5.843  1.00 17.19 LIG 0.17  HD
ATOM     73 2HH1 ARG P   5      33.153  35.583  -6.345  1.00 17.19 LIG 0.17  HD
ENDBRANCH 64 65
ENDBRANCH 63 64
ENDBRANCH 62 63
ENDBRANCH 1 62
TORSDOF 28
ENDMDL
MODEL 25
USER: ADFR SOLUTION from run 135
USER: SCORE 19.013459 LL:  -5.700 LR: -16.236 RR:   0.000 FEB:  -7.884
USER: RMSD 7.466936
USER: SEED 134
USER: STATUS 1 or 2 clusters left
USER: GENES 30
USER: genes 0 Translation |==|  0.58841 0.52067 0.50644
USER: genes 1 Rotation |==|  0.25983 0.93572 0.54109 0.52795
USER: genes 2 Torsion [CB]-CA--N-[C] |==|  0.23721
USER: genes 3 Torsion [N]-C--CA-[N] |==|  0.39990
USER: genes 4 Torsion [C]-CA--N-[C] |==|  0.84016
USER: genes 5 Torsion [N]-C--CA-[N] |==|  0.50530
USER: genes 6 Torsion [C]-CA--CB-[CG] |==|  0.47917
USER: genes 7 Torsion [CA]-CB--CG-[CD] |==|  0.23155
USER: genes 8 Torsion [CB]-CG--CD-[OE1] |==|  0.11322
USER: genes 9 Torsion [C]-CA--N-[C] |==|  0.19138
USER: genes 10 Torsion [N]-C--CA-[N] |==|  0.77447
USER: genes 11 Torsion [C]-CA--CB-[CG] |==|  0.23149
USER: genes 12 Torsion [CA]-CB--CG-[CD2] |==|  0.97378
USER: genes 13 Torsion [N]-CA--C-[N] |==|  0.44322
USER: genes 14 Torsion [C]-N--CA-[CB] |==|  0.21804
USER: genes 15 Torsion [N]-CA--CB-[CG] |==|  0.41127
USER: genes 16 Torsion [CA]-CB--CG-[CD2] |==|  0.20963
USER: genes 17 Torsion [N]-CA--C-[N] |==|  0.84566
USER: genes 18 Torsion [C]-N--CA-[CB] |==|  0.83258
USER: genes 19 Torsion [N]-CA--C-[N] |==|  0.31111
USER: genes 20 Torsion [C]-N--CA-[CB] |==|  0.37525
USER: genes 21 Torsion [N]-CA--CB-[OG] |==|  0.11841
USER: genes 22 Torsion [CA]-CB--OG-[HG] |==|  0.09401
USER: genes 23 Torsion [N]-CA--C-[OXT] |==|  0.09910
USER: genes 24 Torsion [N]-CA--CB-[CG] |==|  0.62494
USER: genes 25 Torsion [CA]-CB--CG-[OD2] |==|  0.71878
USER: genes 26 Torsion [N]-CA--CB-[CG] |==|  0.75431
USER: genes 27 Torsion [CA]-CB--CG-[CD] |==|  0.72780
USER: genes 28 Torsion [CB]-CG--CD-[NE] |==|  0.40219
USER: genes 29 Torsion [CG]-CD--NE-[HE] |==|  0.68262
ROOT
ATOM      1  CA  ARG P   5      33.742  29.511  -6.475  1.00 16.30 LIG 0.18  C 
ENDROOT
BRANCH 1 2
ATOM      2  N   ARG P   5      33.915  30.946  -6.739  1.00 16.36 LIG-0.35  N 
ATOM      3  C   PHE P   4      33.580  31.851  -5.836  1.00 16.61 LIG 0.24  C 
ATOM      4 O    PHE P   4      33.196  31.562  -4.701  1.00 17.57 LIG-0.27  OA
ATOM      5 H    ARG P   5      34.245  31.132  -7.511  1.00 16.36 LIG 0.16  HD
BRANCH 3 6
ATOM      6  CA  PHE P   4      33.696  33.311  -6.273  1.00 17.34 LIG 0.18  C 
BRANCH 6 7
ATOM      7  N   PHE P   4      32.601  34.036  -5.655  1.00 18.03 LIG-0.35  N 
ATOM      8  C   GLU P   3      31.330  33.685  -5.857  1.00 20.04 LIG 0.24  C 
ATOM      9 O    GLU P   3      30.993  32.867  -6.698  1.00 20.03 LIG-0.27  OA
ATOM     10 H    PHE P   4      32.846  34.695  -5.160  1.00 18.03 LIG 0.16  HD
BRANCH 8 11
ATOM     11  CA  GLU P   3      30.281  34.388  -4.994  1.00 21.92 LIG 0.18  C 
BRANCH 11 12
ATOM     12  CB  GLU P   3      30.604  34.192  -3.512  1.00 22.70 LIG 0.04  C 
BRANCH 12 13
ATOM     13  CG  GLU P   3      29.704  35.016  -2.610  1.00 23.46 LIG 0.12  C 
BRANCH 13 14
ATOM     14  CD  GLU P   3      28.368  34.374  -2.311  1.00 23.38 LIG 0.17  C 
ATOM     15 OE1  GLU P   3      28.361  33.141  -2.089  1.00 24.20 LIG-0.65  OA
ATOM     16 OE2  GLU P   3      27.341  35.084  -2.320  1.00 25.77 LIG-0.65  OA
ENDBRANCH 13 14
ENDBRANCH 12 13
ENDBRANCH 11 12
BRANCH 11 17
ATOM     17  N   GLU P   3      28.960  33.842  -5.325  1.00 23.31 LIG-0.35  N 
ATOM     18 H    GLU P   3      28.436  34.389  -5.732  1.00 23.31 LIG 0.16  HD
ATOM     19  C   ALA P   2      28.636  32.595  -5.006  1.00 24.65 LIG 0.26  C 
ATOM     20 O    ALA P   2      29.487  31.760  -4.653  1.00 25.69 LIG-0.27  OA
BRANCH 19 21
ATOM     21  CA  ALA P   2      27.159  32.187  -5.153  1.00 24.82 LIG 0.40  C 
ATOM     22  N   ALA P   2      26.377  32.638  -3.976  1.00 26.06 LIG 0.61  N 
ATOM     23  CB  ALA P   2      26.539  32.765  -6.440  1.00 25.99 LIG 0.06  C 
ENDBRANCH 19 21
ENDBRANCH 11 17
ENDBRANCH 8 11
ENDBRANCH 6 7
BRANCH 6 24
ATOM     24  CB  PHE P   4      35.060  33.896  -5.849  1.00 16.70 LIG 0.07  C 
BRANCH 24 25
ATOM     25  CG  PHE P   4      36.190  33.589  -6.811  1.00 15.87 LIG-0.06  A 
ATOM     26  CD2 PHE P   4      36.007  32.683  -7.849  1.00 14.31 LIG 0.01  A 
ATOM     27  CE2 PHE P   4      37.052  32.373  -8.721  1.00 14.76 LIG 0.00  A 
ATOM     28  CZ  PHE P   4      38.310  32.965  -8.552  1.00 16.46 LIG 0.00  A 
ATOM     29  CE1 PHE P   4      38.504  33.876  -7.520  1.00 16.70 LIG 0.00  A 
ATOM     30  CD1 PHE P   4      37.444  34.165  -6.653  1.00 16.73 LIG 0.01  A 
ENDBRANCH 24 25
ENDBRANCH 6 24
ENDBRANCH 3 6
ENDBRANCH 1 2
BRANCH 1 31
ATOM     31  C   ARG P   5      34.744  28.654  -7.265  1.00 16.50 LIG 0.24  C 
ATOM     32  N   HIS P   6      34.967  27.423  -6.810  1.00 17.02 LIG-0.35  N 
ATOM     33 H    HIS P   6      34.641  27.107  -6.080  1.00 17.02 LIG 0.16  HD
ATOM     34 O    ARG P   5      35.295  29.097  -8.280  1.00 15.68 LIG-0.27  OA
BRANCH 32 35
ATOM     35  CA  HIS P   6      35.820  26.493  -7.563  1.00 18.55 LIG 0.18  C 
BRANCH 35 36
ATOM     36  CB  HIS P   6      37.295  26.805  -7.345  1.00 17.94 LIG 0.10  C 
BRANCH 36 37
ATOM     37  CG  HIS P   6      38.198  25.616  -7.387  1.00 17.06 LIG 0.06  A 
ATOM     38 ND1  HIS P   6      38.788  25.091  -6.260  1.00 15.40 LIG-0.24  NA
ATOM     39  CE1 HIS P   6      39.566  24.079  -6.600  1.00 15.09 LIG 0.23  A 
ATOM     40 NE2  HIS P   6      39.498  23.924  -7.910  1.00 16.22 LIG-0.25  NA
ATOM     41  CD2 HIS P   6      38.652  24.882  -8.426  1.00 16.02 LIG 0.14  A 
ENDBRANCH 36 37
ENDBRANCH 35 36
BRANCH 35 42
ATOM     42  C   HIS P   6      35.570  25.115  -7.002  1.00 20.42 LIG 0.24  C 
ATOM     43 O    HIS P   6      35.203  24.219  -7.756  1.00 21.09 LIG-0.27  OA
ATOM     44  N   ASP P   7      35.735  24.912  -5.708  1.00 22.91 LIG-0.34  N 
ATOM     45 H    ASP P   7      35.939  25.509  -5.124  1.00 22.91 LIG 0.16  HD
BRANCH 44 46
ATOM     46  CA  ASP P   7      35.554  23.534  -5.201  1.00 24.36 LIG 0.19  C 
BRANCH 46 47
ATOM     47  C   ASP P   7      36.606  22.553  -5.702  1.00 26.16 LIG 0.24  C 
ATOM     48  N   SER P   8      37.459  22.078  -4.791  1.00 27.90 LIG-0.34  N 
ATOM     49 H    SER P   8      37.492  22.342  -3.973  1.00 27.90 LIG 0.16  HD
ATOM     50 O    ASP P   7      36.665  22.230  -6.883  1.00 26.07 LIG-0.27  OA
BRANCH 48 51
ATOM     51  CA  SER P   8      38.430  21.037  -5.141  1.00 28.60 LIG 0.21  C 
BRANCH 51 52
ATOM     52  CB  SER P   8      39.802  21.391  -4.571  1.00 29.65 LIG 0.20  C 
BRANCH 52 53
ATOM     53 OG   SER P   8      39.682  21.885  -3.248  1.00 30.91 LIG-0.40  OA
ATOM     54 HG   SER P   8      39.046  21.496  -2.859  1.00 30.91 LIG 0.21  HD
ENDBRANCH 52 53
ENDBRANCH 51 52
BRANCH 51 55
ATOM     55  C   SER P   8      37.970  19.612  -4.697  1.00 29.85 LIG 0.20  C 
ATOM     56 OXT  SER P   8      36.781  19.269  -4.730  1.00 30.94 LIG-0.65  OA
ATOM     57 O    SER P   8      38.728  18.739  -4.246  1.00 30.51 LIG-0.65  OA
ENDBRANCH 51 55
ENDBRANCH 48 51
ENDBRANCH 46 47
BRANCH 46 58
ATOM     58  CB  ASP P   7      34.152  23.038  -5.480  1.00 24.61 LIG 0.15  C 
BRANCH 58 59
ATOM     59  CG  ASP P   7      33.556  22.352  -4.278  1.00 26.42 LIG 0.17  C 
ATOM     60 OD2  ASP P   7      33.539  21.115  -4.247  1.00 29.83 LIG-0.65  OA
ATOM     61 OD1  ASP P   7      33.124  23.069  -3.342  1.00 30.09 LIG-0.65  OA
ENDBRANCH 58 59
ENDBRANCH 46 58
ENDBRANCH 44 46
ENDBRANCH 35 42
ENDBRANCH 32 35
ENDBRANCH 1 31
BRANCH 1 62
ATOM     62  CB  ARG P   5      32.324  29.093  -6.827  1.00 16.24 LIG 0.04  C 
BRANCH 62 63
ATOM     63  CG  ARG P   5      31.312  29.233  -5.706  1.00 15.73 LIG 0.02  C 
BRANCH 63 64
ATOM     64  CD  ARG P   5      31.111  27.906  -5.028  1.00 15.69 LIG 0.14  C 
BRANCH 64 65
ATOM     65  NE  ARG P   5      30.877  27.999  -3.581  1.00 15.25 LIG-0.23  N 
ATOM     66 HE   ARG P   5      31.465  27.671  -3.046  1.00 15.25 LIG 0.18  HD
ATOM     67  CZ  ARG P   5      29.788  28.571  -3.064  1.00 16.06 LIG 0.67  C 
ATOM     68  NH2 ARG P   5      29.605  28.619  -1.743  1.00 16.00 LIG-0.23  N 
ATOM     69  NH1 ARG P   5      28.861  29.070  -3.870  1.00 17.19 LIG-0.23  N 
ATOM     70 1HH2 ARG P   5      30.192  28.278  -1.216  1.00 16.00 LIG 0.17  HD
ATOM     71 2HH2 ARG P   5      28.900  28.990  -1.420  1.00 16.00 LIG 0.17  HD
ATOM     72 1HH1 ARG P   5      28.962  29.024  -4.722  1.00 17.19 LIG 0.17  HD
ATOM     73 2HH1 ARG P   5      28.158  29.440  -3.539  1.00 17.19 LIG 0.17  HD
ENDBRANCH 64 65
ENDBRANCH 63 64
ENDBRANCH 62 63
ENDBRANCH 1 62
TORSDOF 28
ENDMDL
MODEL 26
USER: ADFR SOLUTION from run 102
USER: SCORE 19.827861 LL:  -5.840 LR: -16.235 RR:   0.000 FEB:  -7.882
USER: RMSD 7.634469
USER: SEED 101
USER: STATUS searching
USER: GENES 30
USER: genes 0 Translation |==|  0.54539 0.44337 0.58107
USER: genes 1 Rotation |==|  0.66399 0.03018 0.54403 0.52094
USER: genes 2 Torsion [CB]-CA--N-[C] |==|  0.85451
USER: genes 3 Torsion [N]-C--CA-[N] |==|  0.86545
USER: genes 4 Torsion [C]-CA--N-[C] |==|  0.60728
USER: genes 5 Torsion [N]-C--CA-[N] |==|  0.33959
USER: genes 6 Torsion [C]-CA--CB-[CG] |==|  0.47897
USER: genes 7 Torsion [CA]-CB--CG-[CD] |==|  0.83167
USER: genes 8 Torsion [CB]-CG--CD-[OE1] |==|  0.93786
USER: genes 9 Torsion [C]-CA--N-[C] |==|  0.83571
USER: genes 10 Torsion [N]-C--CA-[N] |==|  0.48487
USER: genes 11 Torsion [C]-CA--CB-[CG] |==|  0.46769
USER: genes 12 Torsion [CA]-CB--CG-[CD2] |==|  0.77282
USER: genes 13 Torsion [N]-CA--C-[N] |==|  0.34545
USER: genes 14 Torsion [C]-N--CA-[CB] |==|  0.82778
USER: genes 15 Torsion [N]-CA--CB-[CG] |==|  0.59241
USER: genes 16 Torsion [CA]-CB--CG-[CD2] |==|  0.20172
USER: genes 17 Torsion [N]-CA--C-[N] |==|  0.14944
USER: genes 18 Torsion [C]-N--CA-[CB] |==|  0.78412
USER: genes 19 Torsion [N]-CA--C-[N] |==|  0.15124
USER: genes 20 Torsion [C]-N--CA-[CB] |==|  0.85404
USER: genes 21 Torsion [N]-CA--CB-[OG] |==|  0.90723
USER: genes 22 Torsion [CA]-CB--OG-[HG] |==|  0.25908
USER: genes 23 Torsion [N]-CA--C-[OXT] |==|  0.10139
USER: genes 24 Torsion [N]-CA--CB-[CG] |==|  0.88874
USER: genes 25 Torsion [CA]-CB--CG-[OD2] |==|  0.22097
USER: genes 26 Torsion [N]-CA--CB-[CG] |==|  0.84976
USER: genes 27 Torsion [CA]-CB--CG-[CD] |==|  0.73501
USER: genes 28 Torsion [CB]-CG--CD-[NE] |==|  0.17645
USER: genes 29 Torsion [CG]-CD--NE-[HE] |==|  0.68992
ROOT
ATOM      1  CA  ARG P   5      32.741  27.656  -5.020  1.00 16.30 LIG 0.18  C 
ENDROOT
BRANCH 1 2
ATOM      2  N   ARG P   5      33.330  28.751  -5.803  1.00 16.36 LIG-0.35  N 
ATOM      3  C   PHE P   4      33.079  28.879  -7.093  1.00 16.61 LIG 0.24  C 
ATOM      4 O    PHE P   4      32.278  28.165  -7.700  1.00 17.57 LIG-0.27  OA
ATOM      5 H    ARG P   5      33.837  29.282  -5.354  1.00 16.36 LIG 0.16  HD
BRANCH 3 6
ATOM      6  CA  PHE P   4      33.844  29.985  -7.820  1.00 17.34 LIG 0.18  C 
BRANCH 6 7
ATOM      7  N   PHE P   4      33.717  31.193  -7.026  1.00 18.03 LIG-0.35  N 
ATOM      8  C   GLU P   3      33.557  32.389  -7.596  1.00 20.04 LIG 0.24  C 
ATOM      9 O    GLU P   3      33.686  32.575  -8.795  1.00 20.03 LIG-0.27  OA
ATOM     10 H    PHE P   4      33.754  31.066  -6.177  1.00 18.03 LIG 0.16  HD
BRANCH 8 11
ATOM     11  CA  GLU P   3      33.227  33.553  -6.660  1.00 21.92 LIG 0.18  C 
BRANCH 11 12
ATOM     12  CB  GLU P   3      31.835  34.102  -6.976  1.00 22.70 LIG 0.04  C 
BRANCH 12 13
ATOM     13  CG  GLU P   3      31.378  35.136  -5.964  1.00 23.46 LIG 0.12  C 
BRANCH 13 14
ATOM     14  CD  GLU P   3      31.280  34.617  -4.547  1.00 23.38 LIG 0.17  C 
ATOM     15 OE1  GLU P   3      31.149  33.380  -4.397  1.00 24.20 LIG-0.65  OA
ATOM     16 OE2  GLU P   3      31.311  35.432  -3.601  1.00 25.77 LIG-0.65  OA
ENDBRANCH 13 14
ENDBRANCH 12 13
ENDBRANCH 11 12
BRANCH 11 17
ATOM     17  N   GLU P   3      34.254  34.588  -6.821  1.00 23.31 LIG-0.35  N 
ATOM     18 H    GLU P   3      33.957  35.355  -7.072  1.00 23.31 LIG 0.16  HD
ATOM     19  C   ALA P   2      35.534  34.323  -6.588  1.00 24.65 LIG 0.26  C 
ATOM     20 O    ALA P   2      35.899  33.295  -5.991  1.00 25.69 LIG-0.27  OA
BRANCH 19 21
ATOM     21  CA  ALA P   2      36.567  35.376  -7.027  1.00 24.82 LIG 0.40  C 
ATOM     22  N   ALA P   2      37.927  34.987  -6.579  1.00 26.06 LIG 0.61  N 
ATOM     23  CB  ALA P   2      36.561  35.570  -8.556  1.00 25.99 LIG 0.06  C 
ENDBRANCH 19 21
ENDBRANCH 11 17
ENDBRANCH 8 11
ENDBRANCH 6 7
BRANCH 6 24
ATOM     24  CB  PHE P   4      35.325  29.591  -8.002  1.00 16.70 LIG 0.07  C 
BRANCH 24 25
ATOM     25  CG  PHE P   4      36.093  30.492  -8.948  1.00 15.87 LIG-0.06  A 
ATOM     26  CD2 PHE P   4      36.012  30.304 -10.323  1.00 14.31 LIG 0.01  A 
ATOM     27  CE2 PHE P   4      36.738  31.111 -11.200  1.00 14.76 LIG 0.00  A 
ATOM     28  CZ  PHE P   4      37.575  32.118 -10.702  1.00 16.46 LIG 0.00  A 
ATOM     29  CE1 PHE P   4      37.661  32.319  -9.329  1.00 16.70 LIG 0.00  A 
ATOM     30  CD1 PHE P   4      36.929  31.492  -8.469  1.00 16.73 LIG 0.01  A 
ENDBRANCH 24 25
ENDBRANCH 6 24
ENDBRANCH 3 6
ENDBRANCH 1 2
BRANCH 1 31
ATOM     31  C   ARG P   5      33.335  26.290  -5.400  1.00 16.50 LIG 0.24  C 
ATOM     32  N   HIS P   6      33.867  25.574  -4.413  1.00 17.02 LIG-0.35  N 
ATOM     33 H    HIS P   6      33.956  25.850  -3.604  1.00 17.02 LIG 0.16  HD
ATOM     34 O    ARG P   5      33.299  25.886  -6.569  1.00 15.68 LIG-0.27  OA
BRANCH 32 35
ATOM     35  CA  HIS P   6      34.355  24.209  -4.660  1.00 18.55 LIG 0.18  C 
BRANCH 35 36
ATOM     36  CB  HIS P   6      33.223  23.297  -5.113  1.00 17.94 LIG 0.10  C 
BRANCH 36 37
ATOM     37  CG  HIS P   6      33.346  21.878  -4.665  1.00 17.06 LIG 0.06  A 
ATOM     38 ND1  HIS P   6      33.618  20.845  -5.534  1.00 15.40 LIG-0.24  NA
ATOM     39  CE1 HIS P   6      33.624  19.702  -4.872  1.00 15.09 LIG 0.23  A 
ATOM     40 NE2  HIS P   6      33.371  19.956  -3.601  1.00 16.22 LIG-0.25  NA
ATOM     41  CD2 HIS P   6      33.186  21.313  -3.449  1.00 16.02 LIG 0.14  A 
ENDBRANCH 36 37
ENDBRANCH 35 36
BRANCH 35 42
ATOM     42  C   HIS P   6      35.340  24.295  -5.800  1.00 20.42 LIG 0.24  C 
ATOM     43 O    HIS P   6      35.193  23.564  -6.775  1.00 21.09 LIG-0.27  OA
ATOM     44  N   ASP P   7      36.349  25.142  -5.712  1.00 22.91 LIG-0.34  N 
ATOM     45 H    ASP P   7      36.533  25.640  -5.036  1.00 22.91 LIG 0.16  HD
BRANCH 44 46
ATOM     46  CA  ASP P   7      37.253  25.256  -6.876  1.00 24.36 LIG 0.19  C 
BRANCH 46 47
ATOM     47  C   ASP P   7      36.527  25.440  -8.203  1.00 26.16 LIG 0.24  C 
ATOM     48  N   SER P   8      35.663  26.455  -8.273  1.00 27.90 LIG-0.34  N 
ATOM     49 H    SER P   8      35.446  26.955  -7.607  1.00 27.90 LIG 0.16  HD
ATOM     50 O    ASP P   7      36.724  24.683  -9.147  1.00 26.07 LIG-0.27  OA
BRANCH 48 51
ATOM     51  CA  SER P   8      35.004  26.795  -9.537  1.00 28.60 LIG 0.21  C 
BRANCH 51 52
ATOM     52  CB  SER P   8      36.048  26.974 -10.638  1.00 29.65 LIG 0.20  C 
BRANCH 52 53
ATOM     53 OG   SER P   8      37.246  27.516 -10.109  1.00 30.91 LIG-0.40  OA
ATOM     54 HG   SER P   8      37.771  26.892  -9.908  1.00 30.91 LIG 0.21  HD
ENDBRANCH 52 53
ENDBRANCH 51 52
BRANCH 51 55
ATOM     55  C   SER P   8      33.909  25.758  -9.943  1.00 29.85 LIG 0.20  C 
ATOM     56 OXT  SER P   8      33.186  25.208  -9.102  1.00 30.94 LIG-0.65  OA
ATOM     57 O    SER P   8      33.702  25.375 -11.105  1.00 30.51 LIG-0.65  OA
ENDBRANCH 51 55
ENDBRANCH 48 51
ENDBRANCH 46 47
BRANCH 46 58
ATOM     58  CB  ASP P   7      38.216  24.089  -6.926  1.00 24.61 LIG 0.15  C 
BRANCH 58 59
ATOM     59  CG  ASP P   7      38.715  23.721  -5.552  1.00 26.42 LIG 0.17  C 
ATOM     60 OD2  ASP P   7      37.987  23.043  -4.818  1.00 29.83 LIG-0.65  OA
ATOM     61 OD1  ASP P   7      39.866  24.099  -5.221  1.00 30.09 LIG-0.65  OA
ENDBRANCH 58 59
ENDBRANCH 46 58
ENDBRANCH 44 46
ENDBRANCH 35 42
ENDBRANCH 32 35
ENDBRANCH 1 31
BRANCH 1 62
ATOM     62  CB  ARG P   5      31.236  27.632  -5.224  1.00 16.24 LIG 0.04  C 
BRANCH 62 63
ATOM     63  CG  ARG P   5      30.525  28.941  -4.940  1.00 15.73 LIG 0.02  C 
BRANCH 63 64
ATOM     64  CD  ARG P   5      29.993  28.940  -3.533  1.00 15.69 LIG 0.14  C 
BRANCH 64 65
ATOM     65  NE  ARG P   5      31.031  28.866  -2.497  1.00 15.25 LIG-0.23  N 
ATOM     66 HE   ARG P   5      31.091  28.152  -2.023  1.00 15.25 LIG 0.18  HD
ATOM     67  CZ  ARG P   5      31.886  29.865  -2.263  1.00 16.06 LIG 0.67  C 
ATOM     68  NH2 ARG P   5      32.803  29.765  -1.300  1.00 16.00 LIG-0.23  N 
ATOM     69  NH1 ARG P   5      31.803  30.983  -2.972  1.00 17.19 LIG-0.23  N 
ATOM     70 1HH2 ARG P   5      32.848  29.052  -0.822  1.00 16.00 LIG 0.17  HD
ATOM     71 2HH2 ARG P   5      33.349  30.414  -1.156  1.00 16.00 LIG 0.17  HD
ATOM     72 1HH1 ARG P   5      31.200  31.063  -3.579  1.00 17.19 LIG 0.17  HD
ATOM     73 2HH1 ARG P   5      32.352  31.628  -2.823  1.00 17.19 LIG 0.17  HD
ENDBRANCH 64 65
ENDBRANCH 63 64
ENDBRANCH 62 63
ENDBRANCH 1 62
TORSDOF 28
ENDMDL
MODEL 27
USER: ADFR SOLUTION from run 187
USER: SCORE 19.424842 LL:  -6.765 LR: -16.186 RR:   0.000 FEB:  -7.834
USER: RMSD 8.394288
USER: SEED 186
USER: STATUS searching
USER: GENES 30
USER: genes 0 Translation |==|  0.56348 0.47373 0.53699
USER: genes 1 Rotation |==|  0.61556 0.01414 0.50385 0.52382
USER: genes 2 Torsion [CB]-CA--N-[C] |==|  0.83211
USER: genes 3 Torsion [N]-C--CA-[N] |==|  0.85727
USER: genes 4 Torsion [C]-CA--N-[C] |==|  0.80442
USER: genes 5 Torsion [N]-C--CA-[N] |==|  0.17455
USER: genes 6 Torsion [C]-CA--CB-[CG] |==|  0.23027
USER: genes 7 Torsion [CA]-CB--CG-[CD] |==|  0.26008
USER: genes 8 Torsion [CB]-CG--CD-[OE1] |==|  0.58068
USER: genes 9 Torsion [C]-CA--N-[C] |==|  0.77222
USER: genes 10 Torsion [N]-C--CA-[N] |==|  0.55080
USER: genes 11 Torsion [C]-CA--CB-[CG] |==|  0.50212
USER: genes 12 Torsion [CA]-CB--CG-[CD2] |==|  0.45522
USER: genes 13 Torsion [N]-CA--C-[N] |==|  0.01572
USER: genes 14 Torsion [C]-N--CA-[CB] |==|  0.52100
USER: genes 15 Torsion [N]-CA--CB-[CG] |==|  0.17730
USER: genes 16 Torsion [CA]-CB--CG-[CD2] |==|  0.81032
USER: genes 17 Torsion [N]-CA--C-[N] |==|  0.35659
USER: genes 18 Torsion [C]-N--CA-[CB] |==|  0.42045
USER: genes 19 Torsion [N]-CA--C-[N] |==|  0.20236
USER: genes 20 Torsion [C]-N--CA-[CB] |==|  0.27563
USER: genes 21 Torsion [N]-CA--CB-[OG] |==|  0.96465
USER: genes 22 Torsion [CA]-CB--OG-[HG] |==|  0.22405
USER: genes 23 Torsion [N]-CA--C-[OXT] |==|  0.23262
USER: genes 24 Torsion [N]-CA--CB-[CG] |==|  0.68715
USER: genes 25 Torsion [CA]-CB--CG-[OD2] |==|  0.09659
USER: genes 26 Torsion [N]-CA--CB-[CG] |==|  0.80043
USER: genes 27 Torsion [CA]-CB--CG-[CD] |==|  0.89976
USER: genes 28 Torsion [CB]-CG--CD-[NE] |==|  0.76766
USER: genes 29 Torsion [CG]-CD--NE-[HE] |==|  0.31288
ROOT
ATOM      1  CA  ARG P   5      33.162  28.384  -5.880  1.00 16.30 LIG 0.18  C 
ENDROOT
BRANCH 1 2
ATOM      2  N   ARG P   5      33.948  29.438  -6.536  1.00 16.36 LIG-0.35  N 
ATOM      3  C   PHE P   4      33.801  29.697  -7.823  1.00 16.61 LIG 0.24  C 
ATOM      4 O    PHE P   4      32.949  29.153  -8.529  1.00 17.57 LIG-0.27  OA
ATOM      5 H    ARG P   5      34.493  29.856  -6.018  1.00 16.36 LIG 0.16  HD
BRANCH 3 6
ATOM      6  CA  PHE P   4      34.758  30.732  -8.413  1.00 17.34 LIG 0.18  C 
BRANCH 6 7
ATOM      7  N   PHE P   4      34.697  31.911  -7.568  1.00 18.03 LIG-0.35  N 
ATOM      8  C   GLU P   3      33.617  32.694  -7.541  1.00 20.04 LIG 0.24  C 
ATOM      9 O    GLU P   3      32.699  32.587  -8.338  1.00 20.03 LIG-0.27  OA
ATOM     10 H    PHE P   4      35.405  32.050  -7.100  1.00 18.03 LIG 0.16  HD
BRANCH 8 11
ATOM     11  CA  GLU P   3      33.588  33.780  -6.464  1.00 21.92 LIG 0.18  C 
BRANCH 11 12
ATOM     12  CB  GLU P   3      32.243  34.509  -6.491  1.00 22.70 LIG 0.04  C 
BRANCH 12 13
ATOM     13  CG  GLU P   3      31.168  33.765  -5.720  1.00 23.46 LIG 0.12  C 
BRANCH 13 14
ATOM     14  CD  GLU P   3      31.018  34.205  -4.281  1.00 23.38 LIG 0.17  C 
ATOM     15 OE1  GLU P   3      30.612  33.350  -3.459  1.00 24.20 LIG-0.65  OA
ATOM     16 OE2  GLU P   3      31.279  35.389  -3.981  1.00 25.77 LIG-0.65  OA
ENDBRANCH 13 14
ENDBRANCH 12 13
ENDBRANCH 11 12
BRANCH 11 17
ATOM     17  N   GLU P   3      34.698  34.708  -6.705  1.00 23.31 LIG-0.35  N 
ATOM     18 H    GLU P   3      34.482  35.426  -7.127  1.00 23.31 LIG 0.16  HD
ATOM     19  C   ALA P   2      35.927  34.426  -6.291  1.00 24.65 LIG 0.26  C 
ATOM     20 O    ALA P   2      36.158  33.516  -5.475  1.00 25.69 LIG-0.27  OA
BRANCH 19 21
ATOM     21  CA  ALA P   2      37.071  35.318  -6.806  1.00 24.82 LIG 0.40  C 
ATOM     22  N   ALA P   2      38.378  34.639  -6.627  1.00 26.06 LIG 0.61  N 
ATOM     23  CB  ALA P   2      36.876  35.684  -8.290  1.00 25.99 LIG 0.06  C 
ENDBRANCH 19 21
ENDBRANCH 11 17
ENDBRANCH 8 11
ENDBRANCH 6 7
BRANCH 6 24
ATOM     24  CB  PHE P   4      36.194  30.169  -8.479  1.00 16.70 LIG 0.07  C 
BRANCH 24 25
ATOM     25  CG  PHE P   4      37.215  31.140  -9.037  1.00 15.87 LIG-0.06  A 
ATOM     26  CD2 PHE P   4      38.575  30.917  -8.854  1.00 14.31 LIG 0.01  A 
ATOM     27  CE2 PHE P   4      39.520  31.821  -9.340  1.00 14.76 LIG 0.00  A 
ATOM     28  CZ  PHE P   4      39.108  32.980 -10.010  1.00 16.46 LIG 0.00  A 
ATOM     29  CE1 PHE P   4      37.750  33.212 -10.204  1.00 16.70 LIG 0.00  A 
ATOM     30  CD1 PHE P   4      36.821  32.295  -9.701  1.00 16.73 LIG 0.01  A 
ENDBRANCH 24 25
ENDBRANCH 6 24
ENDBRANCH 3 6
ENDBRANCH 1 2
BRANCH 1 31
ATOM     31  C   ARG P   5      33.441  26.997  -6.480  1.00 16.50 LIG 0.24  C 
ATOM     32  N   HIS P   6      34.406  26.924  -7.393  1.00 17.02 LIG-0.35  N 
ATOM     33 H    HIS P   6      34.830  27.602  -7.709  1.00 17.02 LIG 0.16  HD
ATOM     34 O    ARG P   5      32.801  26.006  -6.110  1.00 15.68 LIG-0.27  OA
BRANCH 32 35
ATOM     35  CA  HIS P   6      34.821  25.624  -7.938  1.00 18.55 LIG 0.18  C 
BRANCH 35 36
ATOM     36  CB  HIS P   6      36.055  25.769  -8.820  1.00 17.94 LIG 0.10  C 
BRANCH 36 37
ATOM     37  CG  HIS P   6      37.281  26.239  -8.107  1.00 17.06 LIG 0.06  A 
ATOM     38 ND1  HIS P   6      38.357  25.417  -7.861  1.00 15.40 LIG-0.24  NA
ATOM     39  CE1 HIS P   6      39.272  26.082  -7.178  1.00 15.09 LIG 0.23  A 
ATOM     40 NE2  HIS P   6      38.830  27.310  -6.977  1.00 16.22 LIG-0.25  NA
ATOM     41  CD2 HIS P   6      37.579  27.429  -7.544  1.00 16.02 LIG 0.14  A 
ENDBRANCH 36 37
ENDBRANCH 35 36
BRANCH 35 42
ATOM     42  C   HIS P   6      35.212  24.760  -6.765  1.00 20.42 LIG 0.24  C 
ATOM     43 O    HIS P   6      36.027  25.185  -5.953  1.00 21.09 LIG-0.27  OA
ATOM     44  N   ASP P   7      34.680  23.556  -6.652  1.00 22.91 LIG-0.34  N 
ATOM     45 H    ASP P   7      34.146  23.184  -7.213  1.00 22.91 LIG 0.16  HD
BRANCH 44 46
ATOM     46  CA  ASP P   7      35.026  22.764  -5.452  1.00 24.36 LIG 0.19  C 
BRANCH 46 47
ATOM     47  C   ASP P   7      36.363  22.040  -5.558  1.00 26.16 LIG 0.24  C 
ATOM     48  N   SER P   8      37.458  22.798  -5.475  1.00 27.90 LIG-0.34  N 
ATOM     49 H    SER P   8      37.453  23.657  -5.436  1.00 27.90 LIG 0.16  HD
ATOM     50 O    ASP P   7      36.419  20.827  -5.723  1.00 26.07 LIG-0.27  OA
BRANCH 48 51
ATOM     51  CA  SER P   8      38.792  22.191  -5.442  1.00 28.60 LIG 0.21  C 
BRANCH 51 52
ATOM     52  CB  SER P   8      39.426  22.247  -6.831  1.00 29.65 LIG 0.20  C 
BRANCH 52 53
ATOM     53 OG   SER P   8      38.459  22.593  -7.808  1.00 30.91 LIG-0.40  OA
ATOM     54 HG   SER P   8      38.342  23.425  -7.805  1.00 30.91 LIG 0.21  HD
ENDBRANCH 52 53
ENDBRANCH 51 52
BRANCH 51 55
ATOM     55  C   SER P   8      39.718  22.830  -4.359  1.00 29.85 LIG 0.20  C 
ATOM     56 OXT  SER P   8      39.685  22.470  -3.175  1.00 30.94 LIG-0.65  OA
ATOM     57 O    SER P   8      40.514  23.758  -4.576  1.00 30.51 LIG-0.65  OA
ENDBRANCH 51 55
ENDBRANCH 48 51
ENDBRANCH 46 47
BRANCH 46 58
ATOM     58  CB  ASP P   7      33.905  21.812  -5.094  1.00 24.61 LIG 0.15  C 
BRANCH 58 59
ATOM     59  CG  ASP P   7      33.250  22.191  -3.790  1.00 26.42 LIG 0.17  C 
ATOM     60 OD2  ASP P   7      33.147  23.389  -3.503  1.00 29.83 LIG-0.65  OA
ATOM     61 OD1  ASP P   7      32.811  21.268  -3.060  1.00 30.09 LIG-0.65  OA
ENDBRANCH 58 59
ENDBRANCH 46 58
ENDBRANCH 44 46
ENDBRANCH 35 42
ENDBRANCH 32 35
ENDBRANCH 1 31
BRANCH 1 62
ATOM     62  CB  ARG P   5      31.680  28.702  -5.996  1.00 16.24 LIG 0.04  C 
BRANCH 62 63
ATOM     63  CG  ARG P   5      31.197  29.854  -5.137  1.00 15.73 LIG 0.02  C 
BRANCH 63 64
ATOM     64  CD  ARG P   5      31.931  29.857  -3.824  1.00 15.69 LIG 0.14  C 
BRANCH 64 65
ATOM     65  NE  ARG P   5      31.364  28.952  -2.815  1.00 15.25 LIG-0.23  N 
ATOM     66 HE   ARG P   5      31.821  28.266  -2.572  1.00 15.25 LIG 0.18  HD
ATOM     67  CZ  ARG P   5      30.167  29.154  -2.261  1.00 16.06 LIG 0.67  C 
ATOM     68  NH2 ARG P   5      29.680  28.298  -1.361  1.00 16.00 LIG-0.23  N 
ATOM     69  NH1 ARG P   5      29.437  30.197  -2.631  1.00 17.19 LIG-0.23  N 
ATOM     70 1HH2 ARG P   5      30.139  27.608  -1.132  1.00 16.00 LIG 0.17  HD
ATOM     71 2HH2 ARG P   5      28.908  28.437  -1.009  1.00 16.00 LIG 0.17  HD
ATOM     72 1HH1 ARG P   5      29.735  30.741  -3.227  1.00 17.19 LIG 0.17  HD
ATOM     73 2HH1 ARG P   5      28.665  30.330  -2.275  1.00 17.19 LIG 0.17  HD
ENDBRANCH 64 65
ENDBRANCH 63 64
ENDBRANCH 62 63
ENDBRANCH 1 62
TORSDOF 28
ENDMDL
MODEL 28
USER: ADFR SOLUTION from run 31
USER: SCORE 19.592362 LL:  -4.813 LR: -16.164 RR:   0.000 FEB:  -7.812
USER: RMSD 8.633284
USER: SEED 30
USER: STATUS searching
USER: GENES 30
USER: genes 0 Translation |==|  0.56109 0.41351 0.57662
USER: genes 1 Rotation |==|  0.64311 0.02539 0.56514 0.50501
USER: genes 2 Torsion [CB]-CA--N-[C] |==|  0.85000
USER: genes 3 Torsion [N]-C--CA-[N] |==|  0.92295
USER: genes 4 Torsion [C]-CA--N-[C] |==|  0.69754
USER: genes 5 Torsion [N]-C--CA-[N] |==|  0.37943
USER: genes 6 Torsion [C]-CA--CB-[CG] |==|  0.75472
USER: genes 7 Torsion [CA]-CB--CG-[CD] |==|  0.55250
USER: genes 8 Torsion [CB]-CG--CD-[OE1] |==|  0.31314
USER: genes 9 Torsion [C]-CA--N-[C] |==|  0.81771
USER: genes 10 Torsion [N]-C--CA-[N] |==|  0.39703
USER: genes 11 Torsion [C]-CA--CB-[CG] |==|  0.54186
USER: genes 12 Torsion [CA]-CB--CG-[CD2] |==|  0.90126
USER: genes 13 Torsion [N]-CA--C-[N] |==|  0.34471
USER: genes 14 Torsion [C]-N--CA-[CB] |==|  0.85899
USER: genes 15 Torsion [N]-CA--CB-[CG] |==|  0.52880
USER: genes 16 Torsion [CA]-CB--CG-[CD2] |==|  0.17520
USER: genes 17 Torsion [N]-CA--C-[N] |==|  0.49923
USER: genes 18 Torsion [C]-N--CA-[CB] |==|  0.83169
USER: genes 19 Torsion [N]-CA--C-[N] |==|  0.40068
USER: genes 20 Torsion [C]-N--CA-[CB] |==|  0.82211
USER: genes 21 Torsion [N]-CA--CB-[OG] |==|  0.87999
USER: genes 22 Torsion [CA]-CB--OG-[HG] |==|  0.01571
USER: genes 23 Torsion [N]-CA--C-[OXT] |==|  0.03591
USER: genes 24 Torsion [N]-CA--CB-[CG] |==|  0.80419
USER: genes 25 Torsion [CA]-CB--CG-[OD2] |==|  0.33681
USER: genes 26 Torsion [N]-CA--CB-[CG] |==|  0.87037
USER: genes 27 Torsion [CA]-CB--CG-[CD] |==|  0.88977
USER: genes 28 Torsion [CB]-CG--CD-[NE] |==|  0.80691
USER: genes 29 Torsion [CG]-CD--NE-[HE] |==|  0.28529
ROOT
ATOM      1  CA  ARG P   5      33.106  26.939  -5.107  1.00 16.30 LIG 0.18  C 
ENDROOT
BRANCH 1 2
ATOM      2  N   ARG P   5      33.850  27.937  -5.889  1.00 16.36 LIG-0.35  N 
ATOM      3  C   PHE P   4      33.755  27.980  -7.206  1.00 16.61 LIG 0.24  C 
ATOM      4 O    PHE P   4      32.983  27.267  -7.851  1.00 17.57 LIG-0.27  OA
ATOM      5 H    ARG P   5      34.335  28.471  -5.421  1.00 16.36 LIG 0.16  HD
BRANCH 3 6
ATOM      6  CA  PHE P   4      34.667  28.982  -7.913  1.00 17.34 LIG 0.18  C 
BRANCH 6 7
ATOM      7  N   PHE P   4      34.922  30.066  -6.982  1.00 18.03 LIG-0.35  N 
ATOM      8  C   GLU P   3      34.391  31.277  -7.159  1.00 20.04 LIG 0.24  C 
ATOM      9 O    GLU P   3      33.817  31.607  -8.185  1.00 20.03 LIG-0.27  OA
ATOM     10 H    PHE P   4      35.435  29.857  -6.324  1.00 18.03 LIG 0.16  HD
BRANCH 8 11
ATOM     11  CA  GLU P   3      34.560  32.273  -6.010  1.00 21.92 LIG 0.18  C 
BRANCH 11 12
ATOM     12  CB  GLU P   3      33.266  32.364  -5.200  1.00 22.70 LIG 0.04  C 
BRANCH 12 13
ATOM     13  CG  GLU P   3      32.311  33.406  -5.752  1.00 23.46 LIG 0.12  C 
BRANCH 13 14
ATOM     14  CD  GLU P   3      31.251  33.858  -4.773  1.00 23.38 LIG 0.17  C 
ATOM     15 OE1  GLU P   3      31.311  35.042  -4.367  1.00 24.20 LIG-0.65  OA
ATOM     16 OE2  GLU P   3      30.385  33.038  -4.399  1.00 25.77 LIG-0.65  OA
ENDBRANCH 13 14
ENDBRANCH 12 13
ENDBRANCH 11 12
BRANCH 11 17
ATOM     17  N   GLU P   3      34.927  33.577  -6.572  1.00 23.31 LIG-0.35  N 
ATOM     18 H    GLU P   3      34.338  34.195  -6.461  1.00 23.31 LIG 0.16  HD
ATOM     19  C   ALA P   2      36.085  33.752  -7.196  1.00 24.65 LIG 0.26  C 
ATOM     20 O    ALA P   2      37.009  32.923  -7.119  1.00 25.69 LIG-0.27  OA
BRANCH 19 21
ATOM     21  CA  ALA P   2      36.279  35.064  -7.976  1.00 24.82 LIG 0.40  C 
ATOM     22  N   ALA P   2      37.678  35.542  -7.848  1.00 26.06 LIG 0.61  N 
ATOM     23  CB  ALA P   2      35.925  34.893  -9.466  1.00 25.99 LIG 0.06  C 
ENDBRANCH 19 21
ENDBRANCH 11 17
ENDBRANCH 8 11
ENDBRANCH 6 7
BRANCH 6 24
ATOM     24  CB  PHE P   4      35.982  28.304  -8.351  1.00 16.70 LIG 0.07  C 
BRANCH 24 25
ATOM     25  CG  PHE P   4      37.083  29.275  -8.729  1.00 15.87 LIG-0.06  A 
ATOM     26  CD2 PHE P   4      36.780  30.470  -9.370  1.00 14.31 LIG 0.01  A 
ATOM     27  CE2 PHE P   4      37.790  31.356  -9.747  1.00 14.76 LIG 0.00  A 
ATOM     28  CZ  PHE P   4      39.132  31.044  -9.495  1.00 16.46 LIG 0.00  A 
ATOM     29  CE1 PHE P   4      39.447  29.853  -8.849  1.00 16.70 LIG 0.00  A 
ATOM     30  CD1 PHE P   4      38.418  28.977  -8.488  1.00 16.73 LIG 0.01  A 
ENDBRANCH 24 25
ENDBRANCH 6 24
ENDBRANCH 3 6
ENDBRANCH 1 2
BRANCH 1 31
ATOM     31  C   ARG P   5      33.624  25.512  -5.349  1.00 16.50 LIG 0.24  C 
ATOM     32  N   HIS P   6      34.009  24.826  -4.277  1.00 17.02 LIG-0.35  N 
ATOM     33 H    HIS P   6      34.047  25.147  -3.480  1.00 17.02 LIG 0.16  HD
ATOM     34 O    ARG P   5      33.661  25.037  -6.491  1.00 15.68 LIG-0.27  OA
BRANCH 32 35
ATOM     35  CA  HIS P   6      34.410  23.417  -4.397  1.00 18.55 LIG 0.18  C 
BRANCH 35 36
ATOM     36  CB  HIS P   6      33.361  22.612  -5.152  1.00 17.94 LIG 0.10  C 
BRANCH 36 37
ATOM     37  CG  HIS P   6      33.561  21.132  -5.114  1.00 17.06 LIG 0.06  A 
ATOM     38 ND1  HIS P   6      33.748  20.378  -6.251  1.00 15.40 LIG-0.24  NA
ATOM     39  CE1 HIS P   6      33.851  19.103  -5.922  1.00 15.09 LIG 0.23  A 
ATOM     40 NE2  HIS P   6      33.744  19.002  -4.610  1.00 16.22 LIG-0.25  NA
ATOM     41  CD2 HIS P   6      33.554  20.261  -4.083  1.00 16.02 LIG 0.14  A 
ENDBRANCH 36 37
ENDBRANCH 35 36
BRANCH 35 42
ATOM     42  C   HIS P   6      35.672  23.388  -5.223  1.00 20.42 LIG 0.24  C 
ATOM     43 O    HIS P   6      36.128  24.441  -5.658  1.00 21.09 LIG-0.27  OA
ATOM     44  N   ASP P   7      36.245  22.226  -5.475  1.00 22.91 LIG-0.34  N 
ATOM     45 H    ASP P   7      35.947  21.453  -5.244  1.00 22.91 LIG 0.16  HD
BRANCH 44 46
ATOM     46  CA  ASP P   7      37.520  22.238  -6.224  1.00 24.36 LIG 0.19  C 
BRANCH 46 47
ATOM     47  C   ASP P   7      38.672  22.886  -5.467  1.00 26.16 LIG 0.24  C 
ATOM     48  N   SER P   8      39.880  22.346  -5.646  1.00 27.90 LIG-0.34  N 
ATOM     49 H    SER P   8      40.030  21.629  -6.096  1.00 27.90 LIG 0.16  HD
ATOM     50 O    ASP P   7      38.488  23.844  -4.726  1.00 26.07 LIG-0.27  OA
BRANCH 48 51
ATOM     51  CA  SER P   8      41.074  22.966  -5.062  1.00 28.60 LIG 0.21  C 
BRANCH 51 52
ATOM     52  CB  SER P   8      41.299  24.346  -5.677  1.00 29.65 LIG 0.20  C 
BRANCH 52 53
ATOM     53 OG   SER P   8      41.099  24.307  -7.080  1.00 30.91 LIG-0.40  OA
ATOM     54 HG   SER P   8      40.817  23.548  -7.302  1.00 30.91 LIG 0.21  HD
ENDBRANCH 52 53
ENDBRANCH 51 52
BRANCH 51 55
ATOM     55  C   SER P   8      41.017  23.031  -3.503  1.00 29.85 LIG 0.20  C 
ATOM     56 OXT  SER P   8      40.176  22.396  -2.852  1.00 30.94 LIG-0.65  OA
ATOM     57 O    SER P   8      41.759  23.737  -2.803  1.00 30.51 LIG-0.65  OA
ENDBRANCH 51 55
ENDBRANCH 48 51
ENDBRANCH 46 47
BRANCH 46 58
ATOM     58  CB  ASP P   7      37.335  22.858  -7.592  1.00 24.61 LIG 0.15  C 
BRANCH 58 59
ATOM     59  CG  ASP P   7      36.530  21.966  -8.503  1.00 26.42 LIG 0.17  C 
ATOM     60 OD2  ASP P   7      35.477  22.403  -8.983  1.00 29.83 LIG-0.65  OA
ATOM     61 OD1  ASP P   7      36.980  20.821  -8.757  1.00 30.09 LIG-0.65  OA
ENDBRANCH 58 59
ENDBRANCH 46 58
ENDBRANCH 44 46
ENDBRANCH 35 42
ENDBRANCH 32 35
ENDBRANCH 1 31
BRANCH 1 62
ATOM     62  CB  ARG P   5      31.629  27.012  -5.455  1.00 16.24 LIG 0.04  C 
BRANCH 62 63
ATOM     63  CG  ARG P   5      31.041  28.409  -5.488  1.00 15.73 LIG 0.02  C 
BRANCH 63 64
ATOM     64  CD  ARG P   5      31.603  29.228  -4.358  1.00 15.69 LIG 0.14  C 
BRANCH 64 65
ATOM     65  NE  ARG P   5      31.146  28.810  -3.026  1.00 15.25 LIG-0.23  N 
ATOM     66 HE   ARG P   5      31.678  28.351  -2.532  1.00 15.25 LIG 0.18  HD
ATOM     67  CZ  ARG P   5      29.935  29.115  -2.553  1.00 16.06 LIG 0.67  C 
ATOM     68  NH2 ARG P   5      29.552  28.700  -1.345  1.00 16.00 LIG-0.23  N 
ATOM     69  NH1 ARG P   5      29.091  29.810  -3.303  1.00 17.19 LIG-0.23  N 
ATOM     70 1HH2 ARG P   5      30.087  28.231  -0.862  1.00 16.00 LIG 0.17  HD
ATOM     71 2HH2 ARG P   5      28.770  28.902  -1.048  1.00 16.00 LIG 0.17  HD
ATOM     72 1HH1 ARG P   5      29.323  30.062  -4.092  1.00 17.19 LIG 0.17  HD
ATOM     73 2HH1 ARG P   5      28.310  30.008  -3.001  1.00 17.19 LIG 0.17  HD
ENDBRANCH 64 65
ENDBRANCH 63 64
ENDBRANCH 62 63
ENDBRANCH 1 62
TORSDOF 28
ENDMDL
MODEL 29
USER: ADFR SOLUTION from run 194
USER: SCORE 19.287874 LL:  -5.798 LR: -16.146 RR:   0.000 FEB:  -7.793
USER: RMSD 7.893074
USER: SEED 193
USER: STATUS no improvement in best in 3 clusters for 5 generations
USER: GENES 30
USER: genes 0 Translation |==|  0.56707 0.51233 0.51809
USER: genes 1 Rotation |==|  0.25787 0.93100 0.55137 0.55455
USER: genes 2 Torsion [CB]-CA--N-[C] |==|  0.24386
USER: genes 3 Torsion [N]-C--CA-[N] |==|  0.96209
USER: genes 4 Torsion [C]-CA--N-[C] |==|  0.72145
USER: genes 5 Torsion [N]-C--CA-[N] |==|  0.35930
USER: genes 6 Torsion [C]-CA--CB-[CG] |==|  0.30005
USER: genes 7 Torsion [CA]-CB--CG-[CD] |==|  0.00982
USER: genes 8 Torsion [CB]-CG--CD-[OE1] |==|  0.29847
USER: genes 9 Torsion [C]-CA--N-[C] |==|  0.61667
USER: genes 10 Torsion [N]-C--CA-[N] |==|  0.32447
USER: genes 11 Torsion [C]-CA--CB-[CG] |==|  0.09379
USER: genes 12 Torsion [CA]-CB--CG-[CD2] |==|  0.21839
USER: genes 13 Torsion [N]-CA--C-[N] |==|  0.42273
USER: genes 14 Torsion [C]-N--CA-[CB] |==|  0.20670
USER: genes 15 Torsion [N]-CA--CB-[CG] |==|  0.70182
USER: genes 16 Torsion [CA]-CB--CG-[CD2] |==|  0.49714
USER: genes 17 Torsion [N]-CA--C-[N] |==|  0.91561
USER: genes 18 Torsion [C]-N--CA-[CB] |==|  0.77925
USER: genes 19 Torsion [N]-CA--C-[N] |==|  0.12898
USER: genes 20 Torsion [C]-N--CA-[CB] |==|  0.38029
USER: genes 21 Torsion [N]-CA--CB-[OG] |==|  0.92364
USER: genes 22 Torsion [CA]-CB--OG-[HG] |==|  0.97155
USER: genes 23 Torsion [N]-CA--C-[OXT] |==|  0.80599
USER: genes 24 Torsion [N]-CA--CB-[CG] |==|  0.64882
USER: genes 25 Torsion [CA]-CB--CG-[OD2] |==|  0.18661
USER: genes 26 Torsion [N]-CA--CB-[CG] |==|  0.74071
USER: genes 27 Torsion [CA]-CB--CG-[CD] |==|  0.80090
USER: genes 28 Torsion [CB]-CG--CD-[NE] |==|  0.38128
USER: genes 29 Torsion [CG]-CD--NE-[HE] |==|  0.66234
ROOT
ATOM      1  CA  ARG P   5      33.245  29.311  -6.248  1.00 16.30 LIG 0.18  C 
ENDROOT
BRANCH 1 2
ATOM      2  N   ARG P   5      33.420  30.765  -6.371  1.00 16.36 LIG-0.35  N 
ATOM      3  C   PHE P   4      33.049  31.581  -5.400  1.00 16.61 LIG 0.24  C 
ATOM      4 O    PHE P   4      32.630  31.187  -4.310  1.00 17.57 LIG-0.27  OA
ATOM      5 H    ARG P   5      33.774  31.023  -7.111  1.00 16.36 LIG 0.16  HD
BRANCH 3 6
ATOM      6  CA  PHE P   4      33.172  33.075  -5.695  1.00 17.34 LIG 0.18  C 
BRANCH 6 7
ATOM      7  N   PHE P   4      33.985  33.216  -6.889  1.00 18.03 LIG-0.35  N 
ATOM      8  C   GLU P   3      35.278  33.534  -6.820  1.00 20.04 LIG 0.24  C 
ATOM      9 O    GLU P   3      35.817  33.902  -5.787  1.00 20.03 LIG-0.27  OA
ATOM     10 H    PHE P   4      33.562  33.077  -7.626  1.00 18.03 LIG 0.16  HD
BRANCH 8 11
ATOM     11  CA  GLU P   3      36.075  33.449  -8.123  1.00 21.92 LIG 0.18  C 
BRANCH 11 12
ATOM     12  CB  GLU P   3      37.033  32.258  -8.075  1.00 22.70 LIG 0.04  C 
BRANCH 12 13
ATOM     13  CG  GLU P   3      36.591  31.125  -8.983  1.00 23.46 LIG 0.12  C 
BRANCH 13 14
ATOM     14  CD  GLU P   3      35.358  31.431  -9.803  1.00 23.38 LIG 0.17  C 
ATOM     15 OE1  GLU P   3      35.519  31.627 -11.030  1.00 24.20 LIG-0.65  OA
ATOM     16 OE2  GLU P   3      34.250  31.496  -9.229  1.00 25.77 LIG-0.65  OA
ENDBRANCH 13 14
ENDBRANCH 12 13
ENDBRANCH 11 12
BRANCH 11 17
ATOM     17  N   GLU P   3      36.803  34.709  -8.308  1.00 23.31 LIG-0.35  N 
ATOM     18 H    GLU P   3      37.167  35.022  -7.595  1.00 23.31 LIG 0.16  HD
ATOM     19  C   ALA P   2      36.873  35.289  -9.500  1.00 24.65 LIG 0.26  C 
ATOM     20 O    ALA P   2      36.560  34.693 -10.546  1.00 25.69 LIG-0.27  OA
BRANCH 19 21
ATOM     21  CA  ALA P   2      37.427  36.724  -9.558  1.00 24.82 LIG 0.40  C 
ATOM     22  N   ALA P   2      38.681  36.764 -10.351  1.00 26.06 LIG 0.61  N 
ATOM     23  CB  ALA P   2      36.400  37.701 -10.163  1.00 25.99 LIG 0.06  C 
ENDBRANCH 19 21
ENDBRANCH 11 17
ENDBRANCH 8 11
ENDBRANCH 6 7
BRANCH 6 24
ATOM     24  CB  PHE P   4      31.777  33.705  -5.894  1.00 16.70 LIG 0.07  C 
BRANCH 24 25
ATOM     25  CG  PHE P   4      30.690  33.084  -5.040  1.00 15.87 LIG-0.06  A 
ATOM     26  CD2 PHE P   4      30.570  33.420  -3.697  1.00 14.31 LIG 0.01  A 
ATOM     27  CE2 PHE P   4      29.590  32.831  -2.896  1.00 14.76 LIG 0.00  A 
ATOM     28  CZ  PHE P   4      28.718  31.877  -3.437  1.00 16.46 LIG 0.00  A 
ATOM     29  CE1 PHE P   4      28.825  31.536  -4.781  1.00 16.70 LIG 0.00  A 
ATOM     30  CD1 PHE P   4      29.821  32.134  -5.561  1.00 16.73 LIG 0.01  A 
ENDBRANCH 24 25
ENDBRANCH 6 24
ENDBRANCH 3 6
ENDBRANCH 1 2
BRANCH 1 31
ATOM     31  C   ARG P   5      34.314  28.533  -7.033  1.00 16.50 LIG 0.24  C 
ATOM     32  N   HIS P   6      34.626  27.322  -6.578  1.00 17.02 LIG-0.35  N 
ATOM     33 H    HIS P   6      34.321  26.981  -5.850  1.00 17.02 LIG 0.16  HD
ATOM     34 O    ARG P   5      34.837  29.018  -8.044  1.00 15.68 LIG-0.27  OA
BRANCH 32 35
ATOM     35  CA  HIS P   6      35.552  26.460  -7.326  1.00 18.55 LIG 0.18  C 
BRANCH 35 36
ATOM     36  CB  HIS P   6      36.989  26.943  -7.179  1.00 17.94 LIG 0.10  C 
BRANCH 36 37
ATOM     37  CG  HIS P   6      37.560  27.588  -8.399  1.00 17.06 LIG 0.06  A 
ATOM     38 ND1  HIS P   6      36.872  27.667  -9.589  1.00 15.40 LIG-0.24  NA
ATOM     39  CE1 HIS P   6      37.633  28.244 -10.501  1.00 15.09 LIG 0.23  A 
ATOM     40 NE2  HIS P   6      38.790  28.550  -9.944  1.00 16.22 LIG-0.25  NA
ATOM     41  CD2 HIS P   6      38.770  28.141  -8.628  1.00 16.02 LIG 0.14  A 
ENDBRANCH 36 37
ENDBRANCH 35 36
BRANCH 35 42
ATOM     42  C   HIS P   6      35.478  25.088  -6.702  1.00 20.42 LIG 0.24  C 
ATOM     43 O    HIS P   6      35.654  24.099  -7.406  1.00 21.09 LIG-0.27  OA
ATOM     44  N   ASP P   7      35.207  24.986  -5.414  1.00 22.91 LIG-0.34  N 
ATOM     45 H    ASP P   7      35.024  25.637  -4.882  1.00 22.91 LIG 0.16  HD
BRANCH 44 46
ATOM     46  CA  ASP P   7      35.215  23.634  -4.816  1.00 24.36 LIG 0.19  C 
BRANCH 46 47
ATOM     47  C   ASP P   7      36.435  22.803  -5.192  1.00 26.16 LIG 0.24  C 
ATOM     48  N   SER P   8      37.620  23.411  -5.102  1.00 27.90 LIG-0.34  N 
ATOM     49 H    SER P   8      37.725  24.244  -4.916  1.00 27.90 LIG 0.16  HD
ATOM     50 O    ASP P   7      36.324  21.641  -5.568  1.00 26.07 LIG-0.27  OA
BRANCH 48 51
ATOM     51  CA  SER P   8      38.864  22.668  -5.321  1.00 28.60 LIG 0.21  C 
BRANCH 51 52
ATOM     52  CB  SER P   8      39.821  23.495  -6.179  1.00 29.65 LIG 0.20  C 
BRANCH 52 53
ATOM     53 OG   SER P   8      39.101  24.382  -7.018  1.00 30.91 LIG-0.40  OA
ATOM     54 HG   SER P   8      38.283  24.192  -6.991  1.00 30.91 LIG 0.21  HD
ENDBRANCH 52 53
ENDBRANCH 51 52
BRANCH 51 55
ATOM     55  C   SER P   8      39.535  22.210  -3.987  1.00 29.85 LIG 0.20  C 
ATOM     56 OXT  SER P   8      40.057  23.017  -3.206  1.00 30.94 LIG-0.65  OA
ATOM     57 O    SER P   8      39.637  21.028  -3.624  1.00 30.51 LIG-0.65  OA
ENDBRANCH 51 55
ENDBRANCH 48 51
ENDBRANCH 46 47
BRANCH 46 58
ATOM     58  CB  ASP P   7      33.927  22.902  -5.124  1.00 24.61 LIG 0.15  C 
BRANCH 58 59
ATOM     59  CG  ASP P   7      33.267  22.385  -3.871  1.00 26.42 LIG 0.17  C 
ATOM     60 OD2  ASP P   7      32.811  23.201  -3.061  1.00 29.83 LIG-0.65  OA
ATOM     61 OD1  ASP P   7      33.184  21.142  -3.716  1.00 30.09 LIG-0.65  OA
ENDBRANCH 58 59
ENDBRANCH 46 58
ENDBRANCH 44 46
ENDBRANCH 35 42
ENDBRANCH 32 35
ENDBRANCH 1 31
BRANCH 1 62
ATOM     62  CB  ARG P   5      31.863  28.917  -6.740  1.00 16.24 LIG 0.04  C 
BRANCH 62 63
ATOM     63  CG  ARG P   5      30.794  28.839  -5.668  1.00 15.73 LIG 0.02  C 
BRANCH 63 64
ATOM     64  CD  ARG P   5      31.029  27.636  -4.797  1.00 15.69 LIG 0.14  C 
BRANCH 64 65
ATOM     65  NE  ARG P   5      30.847  27.889  -3.361  1.00 15.25 LIG-0.23  N 
ATOM     66 HE   ARG P   5      31.506  27.741  -2.829  1.00 15.25 LIG 0.18  HD
ATOM     67  CZ  ARG P   5      29.699  28.338  -2.849  1.00 16.06 LIG 0.67  C 
ATOM     68  NH2 ARG P   5      29.569  28.537  -1.537  1.00 16.00 LIG-0.23  N 
ATOM     69  NH1 ARG P   5      28.663  28.558  -3.648  1.00 17.19 LIG-0.23  N 
ATOM     70 1HH2 ARG P   5      30.230  28.375  -1.011  1.00 16.00 LIG 0.17  HD
ATOM     71 2HH2 ARG P   5      28.825  28.826  -1.217  1.00 16.00 LIG 0.17  HD
ATOM     72 1HH1 ARG P   5      28.733  28.411  -4.493  1.00 17.19 LIG 0.17  HD
ATOM     73 2HH1 ARG P   5      27.922  28.848  -3.322  1.00 17.19 LIG 0.17  HD
ENDBRANCH 64 65
ENDBRANCH 63 64
ENDBRANCH 62 63
ENDBRANCH 1 62
TORSDOF 28
ENDMDL
MODEL 30
USER: ADFR SOLUTION from run 102
USER: SCORE 19.518177 LL:  -5.262 LR: -16.142 RR:   0.000 FEB:  -7.790
USER: RMSD 6.648376
USER: SEED 101
USER: STATUS searching
USER: GENES 30
USER: genes 0 Translation |==|  0.52459 0.44165 0.59768
USER: genes 1 Rotation |==|  0.69032 0.03779 0.50939 0.50727
USER: genes 2 Torsion [CB]-CA--N-[C] |==|  0.85361
USER: genes 3 Torsion [N]-C--CA-[N] |==|  0.82222
USER: genes 4 Torsion [C]-CA--N-[C] |==|  0.68634
USER: genes 5 Torsion [N]-C--CA-[N] |==|  0.43178
USER: genes 6 Torsion [C]-CA--CB-[CG] |==|  0.45155
USER: genes 7 Torsion [CA]-CB--CG-[CD] |==|  0.88709
USER: genes 8 Torsion [CB]-CG--CD-[OE1] |==|  0.74021
USER: genes 9 Torsion [C]-CA--N-[C] |==|  0.69382
USER: genes 10 Torsion [N]-C--CA-[N] |==|  0.46712
USER: genes 11 Torsion [C]-CA--CB-[CG] |==|  0.54987
USER: genes 12 Torsion [CA]-CB--CG-[CD2] |==|  0.67102
USER: genes 13 Torsion [N]-CA--C-[N] |==|  0.36323
USER: genes 14 Torsion [C]-N--CA-[CB] |==|  0.82042
USER: genes 15 Torsion [N]-CA--CB-[CG] |==|  0.52646
USER: genes 16 Torsion [CA]-CB--CG-[CD2] |==|  0.73712
USER: genes 17 Torsion [N]-CA--C-[N] |==|  0.19663
USER: genes 18 Torsion [C]-N--CA-[CB] |==|  0.75883
USER: genes 19 Torsion [N]-CA--C-[N] |==|  0.12403
USER: genes 20 Torsion [C]-N--CA-[CB] |==|  0.86501
USER: genes 21 Torsion [N]-CA--CB-[OG] |==|  0.83369
USER: genes 22 Torsion [CA]-CB--OG-[HG] |==|  0.48601
USER: genes 23 Torsion [N]-CA--C-[OXT] |==|  0.09956
USER: genes 24 Torsion [N]-CA--CB-[CG] |==|  0.88871
USER: genes 25 Torsion [CA]-CB--CG-[OD2] |==|  0.19477
USER: genes 26 Torsion [N]-CA--CB-[CG] |==|  0.86009
USER: genes 27 Torsion [CA]-CB--CG-[CD] |==|  0.77044
USER: genes 28 Torsion [CB]-CG--CD-[NE] |==|  0.16686
USER: genes 29 Torsion [CG]-CD--NE-[HE] |==|  0.69258
ROOT
ATOM      1  CA  ARG P   5      32.258  27.615  -4.696  1.00 16.30 LIG 0.18  C 
ENDROOT
BRANCH 1 2
ATOM      2  N   ARG P   5      32.716  28.871  -5.304  1.00 16.36 LIG-0.35  N 
ATOM      3  C   PHE P   4      32.442  29.159  -6.564  1.00 16.61 LIG 0.24  C 
ATOM      4 O    PHE P   4      31.719  28.458  -7.276  1.00 17.57 LIG-0.27  OA
ATOM      5 H    ARG P   5      33.165  29.383  -4.778  1.00 16.36 LIG 0.16  HD
BRANCH 3 6
ATOM      6  CA  PHE P   4      33.074  30.437  -7.114  1.00 17.34 LIG 0.18  C 
BRANCH 6 7
ATOM      7  N   PHE P   4      32.519  31.551  -6.367  1.00 18.03 LIG-0.35  N 
ATOM      8  C   GLU P   3      31.721  32.451  -6.944  1.00 20.04 LIG 0.24  C 
ATOM      9 O    GLU P   3      31.551  32.509  -8.152  1.00 20.03 LIG-0.27  OA
ATOM     10 H    PHE P   4      32.749  31.573  -5.538  1.00 18.03 LIG 0.16  HD
BRANCH 8 11
ATOM     11  CA  GLU P   3      31.035  33.453  -6.015  1.00 21.92 LIG 0.18  C 
BRANCH 11 12
ATOM     12  CB  GLU P   3      29.776  32.829  -5.409  1.00 22.70 LIG 0.04  C 
BRANCH 12 13
ATOM     13  CG  GLU P   3      29.291  33.582  -4.184  1.00 23.46 LIG 0.12  C 
BRANCH 13 14
ATOM     14  CD  GLU P   3      30.395  34.044  -3.260  1.00 23.38 LIG 0.17  C 
ATOM     15 OE1  GLU P   3      30.698  33.289  -2.306  1.00 24.20 LIG-0.65  OA
ATOM     16 OE2  GLU P   3      30.936  35.150  -3.470  1.00 25.77 LIG-0.65  OA
ENDBRANCH 13 14
ENDBRANCH 12 13
ENDBRANCH 11 12
BRANCH 11 17
ATOM     17  N   GLU P   3      30.711  34.659  -6.784  1.00 23.31 LIG-0.35  N 
ATOM     18 H    GLU P   3      30.087  34.557  -7.368  1.00 23.31 LIG 0.16  HD
ATOM     19  C   ALA P   2      31.353  35.800  -6.568  1.00 24.65 LIG 0.26  C 
ATOM     20 O    ALA P   2      32.060  35.982  -5.561  1.00 25.69 LIG-0.27  OA
BRANCH 19 21
ATOM     21  CA  ALA P   2      31.140  36.937  -7.584  1.00 24.82 LIG 0.40  C 
ATOM     22  N   ALA P   2      31.686  38.212  -7.058  1.00 26.06 LIG 0.61  N 
ATOM     23  CB  ALA P   2      31.795  36.613  -8.940  1.00 25.99 LIG 0.06  C 
ENDBRANCH 19 21
ENDBRANCH 11 17
ENDBRANCH 8 11
ENDBRANCH 6 7
BRANCH 6 24
ATOM     24  CB  PHE P   4      34.610  30.386  -6.977  1.00 16.70 LIG 0.07  C 
BRANCH 24 25
ATOM     25  CG  PHE P   4      35.287  31.737  -7.086  1.00 15.87 LIG-0.06  A 
ATOM     26  CD2 PHE P   4      36.199  31.990  -8.104  1.00 14.31 LIG 0.01  A 
ATOM     27  CE2 PHE P   4      36.848  33.221  -8.195  1.00 14.76 LIG 0.00  A 
ATOM     28  CZ  PHE P   4      36.598  34.221  -7.246  1.00 16.46 LIG 0.00  A 
ATOM     29  CE1 PHE P   4      35.684  33.983  -6.226  1.00 16.70 LIG 0.00  A 
ATOM     30  CD1 PHE P   4      35.051  32.737  -6.151  1.00 16.73 LIG 0.01  A 
ENDBRANCH 24 25
ENDBRANCH 6 24
ENDBRANCH 3 6
ENDBRANCH 1 2
BRANCH 1 31
ATOM     31  C   ARG P   5      32.990  26.392  -5.274  1.00 16.50 LIG 0.24  C 
ATOM     32  N   HIS P   6      33.495  25.529  -4.398  1.00 17.02 LIG-0.35  N 
ATOM     33 H    HIS P   6      33.495  25.643  -3.545  1.00 17.02 LIG 0.16  HD
ATOM     34 O    ARG P   5      33.082  26.229  -6.497  1.00 15.68 LIG-0.27  OA
BRANCH 32 35
ATOM     35  CA  HIS P   6      34.111  24.275  -4.856  1.00 18.55 LIG 0.18  C 
BRANCH 35 36
ATOM     36  CB  HIS P   6      33.083  23.374  -5.526  1.00 17.94 LIG 0.10  C 
BRANCH 36 37
ATOM     37  CG  HIS P   6      33.563  21.990  -5.823  1.00 17.06 LIG 0.06  A 
ATOM     38 ND1  HIS P   6      33.569  20.988  -4.880  1.00 15.40 LIG-0.24  NA
ATOM     39  CE1 HIS P   6      34.086  19.892  -5.406  1.00 15.09 LIG 0.23  A 
ATOM     40 NE2  HIS P   6      34.410  20.145  -6.661  1.00 16.22 LIG-0.25  NA
ATOM     41  CD2 HIS P   6      34.098  21.457  -6.942  1.00 16.02 LIG 0.14  A 
ENDBRANCH 36 37
ENDBRANCH 35 36
BRANCH 35 42
ATOM     42  C   HIS P   6      35.130  24.644  -5.905  1.00 20.42 LIG 0.24  C 
ATOM     43 O    HIS P   6      34.917  24.349  -7.077  1.00 21.09 LIG-0.27  OA
ATOM     44  N   ASP P   7      36.237  25.260  -5.534  1.00 22.91 LIG-0.34  N 
ATOM     45 H    ASP P   7      36.466  25.446  -4.726  1.00 22.91 LIG 0.16  HD
BRANCH 44 46
ATOM     46  CA  ASP P   7      37.181  25.674  -6.594  1.00 24.36 LIG 0.19  C 
BRANCH 46 47
ATOM     47  C   ASP P   7      36.501  26.228  -7.840  1.00 26.16 LIG 0.24  C 
ATOM     48  N   SER P   8      35.504  27.093  -7.639  1.00 27.90 LIG-0.34  N 
ATOM     49 H    SER P   8      35.186  27.296  -6.867  1.00 27.90 LIG 0.16  HD
ATOM     50 O    ASP P   7      36.850  25.882  -8.963  1.00 26.07 LIG-0.27  OA
BRANCH 48 51
ATOM     51  CA  SER P   8      34.865  27.777  -8.767  1.00 28.60 LIG 0.21  C 
BRANCH 51 52
ATOM     52  CB  SER P   8      35.929  28.372  -9.688  1.00 29.65 LIG 0.20  C 
BRANCH 52 53
ATOM     53 OG   SER P   8      36.733  29.305  -8.986  1.00 30.91 LIG-0.40  OA
ATOM     54 HG   SER P   8      37.355  29.571  -9.485  1.00 30.91 LIG 0.21  HD
ENDBRANCH 52 53
ENDBRANCH 51 52
BRANCH 51 55
ATOM     55  C   SER P   8      33.876  26.855  -9.548  1.00 29.85 LIG 0.20  C 
ATOM     56 OXT  SER P   8      33.180  26.007  -8.974  1.00 30.94 LIG-0.65  OA
ATOM     57 O    SER P   8      33.736  26.863 -10.781  1.00 30.51 LIG-0.65  OA
ENDBRANCH 51 55
ENDBRANCH 48 51
ENDBRANCH 46 47
BRANCH 46 58
ATOM     58  CB  ASP P   7      38.135  24.550  -6.934  1.00 24.61 LIG 0.15  C 
BRANCH 58 59
ATOM     59  CG  ASP P   7      38.586  23.811  -5.700  1.00 26.42 LIG 0.17  C 
ATOM     60 OD2  ASP P   7      37.768  23.102  -5.101  1.00 29.83 LIG-0.65  OA
ATOM     61 OD1  ASP P   7      39.786  23.926  -5.347  1.00 30.09 LIG-0.65  OA
ENDBRANCH 58 59
ENDBRANCH 46 58
ENDBRANCH 44 46
ENDBRANCH 35 42
ENDBRANCH 32 35
ENDBRANCH 1 31
BRANCH 1 62
ATOM     62  CB  ARG P   5      30.761  27.459  -4.907  1.00 16.24 LIG 0.04  C 
BRANCH 62 63
ATOM     63  CG  ARG P   5      29.925  28.662  -4.514  1.00 15.73 LIG 0.02  C 
BRANCH 63 64
ATOM     64  CD  ARG P   5      29.664  28.643  -3.033  1.00 15.69 LIG 0.14  C 
BRANCH 64 65
ATOM     65  NE  ARG P   5      30.878  28.683  -2.207  1.00 15.25 LIG-0.23  N 
ATOM     66 HE   ARG P   5      31.096  27.983  -1.760  1.00 15.25 LIG 0.18  HD
ATOM     67  CZ  ARG P   5      31.656  29.765  -2.125  1.00 16.06 LIG 0.67  C 
ATOM     68  NH2 ARG P   5      32.741  29.766  -1.349  1.00 16.00 LIG-0.23  N 
ATOM     69  NH1 ARG P   5      31.332  30.862  -2.795  1.00 17.19 LIG-0.23  N 
ATOM     70 1HH2 ARG P   5      32.945  29.065  -0.895  1.00 16.00 LIG 0.17  HD
ATOM     71 2HH2 ARG P   5      33.236  30.467  -1.302  1.00 16.00 LIG 0.17  HD
ATOM     72 1HH1 ARG P   5      30.622  30.876  -3.280  1.00 17.19 LIG 0.17  HD
ATOM     73 2HH1 ARG P   5      31.832  31.561  -2.744  1.00 17.19 LIG 0.17  HD
ENDBRANCH 64 65
ENDBRANCH 63 64
ENDBRANCH 62 63
ENDBRANCH 1 62
TORSDOF 28
ENDMDL
MODEL 31
USER: ADFR SOLUTION from run 80
USER: SCORE 17.956276 LL:  -5.183 LR: -16.091 RR:   0.000 FEB:  -7.739
USER: RMSD 8.207786
USER: SEED 79
USER: STATUS no improvement in best in 10 clusters for 5 generations
USER: GENES 30
USER: genes 0 Translation |==|  0.53577 0.52457 0.52749
USER: genes 1 Rotation |==|  0.32902 0.95093 0.59977 0.58645
USER: genes 2 Torsion [CB]-CA--N-[C] |==|  0.84211
USER: genes 3 Torsion [N]-C--CA-[N] |==|  0.35073
USER: genes 4 Torsion [C]-CA--N-[C] |==|  0.62271
USER: genes 5 Torsion [N]-C--CA-[N] |==|  0.33212
USER: genes 6 Torsion [C]-CA--CB-[CG] |==|  0.52082
USER: genes 7 Torsion [CA]-CB--CG-[CD] |==|  0.77389
USER: genes 8 Torsion [CB]-CG--CD-[OE1] |==|  0.71759
USER: genes 9 Torsion [C]-CA--N-[C] |==|  0.69302
USER: genes 10 Torsion [N]-C--CA-[N] |==|  0.26940
USER: genes 11 Torsion [C]-CA--CB-[CG] |==|  0.10060
USER: genes 12 Torsion [CA]-CB--CG-[CD2] |==|  0.21923
USER: genes 13 Torsion [N]-CA--C-[N] |==|  0.27778
USER: genes 14 Torsion [C]-N--CA-[CB] |==|  0.25207
USER: genes 15 Torsion [N]-CA--CB-[CG] |==|  0.81987
USER: genes 16 Torsion [CA]-CB--CG-[CD2] |==|  0.25225
USER: genes 17 Torsion [N]-CA--C-[N] |==|  0.21225
USER: genes 18 Torsion [C]-N--CA-[CB] |==|  0.48068
USER: genes 19 Torsion [N]-CA--C-[N] |==|  0.50413
USER: genes 20 Torsion [C]-N--CA-[CB] |==|  0.25744
USER: genes 21 Torsion [N]-CA--CB-[OG] |==|  0.00735
USER: genes 22 Torsion [CA]-CB--OG-[HG] |==|  0.14000
USER: genes 23 Torsion [N]-CA--C-[OXT] |==|  0.39843
USER: genes 24 Torsion [N]-CA--CB-[CG] |==|  0.62823
USER: genes 25 Torsion [CA]-CB--CG-[OD2] |==|  0.15814
USER: genes 26 Torsion [N]-CA--CB-[CG] |==|  0.79074
USER: genes 27 Torsion [CA]-CB--CG-[CD] |==|  0.72035
USER: genes 28 Torsion [CB]-CG--CD-[NE] |==|  0.41158
USER: genes 29 Torsion [CG]-CD--NE-[HE] |==|  0.24604
ROOT
ATOM      1  CA  ARG P   5      32.518  29.605  -6.065  1.00 16.30 LIG 0.18  C 
ENDROOT
BRANCH 1 2
ATOM      2  N   ARG P   5      33.085  30.941  -5.839  1.00 16.36 LIG-0.35  N 
ATOM      3  C   PHE P   4      33.126  31.837  -6.809  1.00 16.61 LIG 0.24  C 
ATOM      4 O    PHE P   4      32.618  31.657  -7.918  1.00 17.57 LIG-0.27  OA
ATOM      5 H    ARG P   5      33.377  31.077  -5.042  1.00 16.36 LIG 0.16  HD
BRANCH 3 6
ATOM      6  CA  PHE P   4      33.846  33.146  -6.484  1.00 17.34 LIG 0.18  C 
BRANCH 6 7
ATOM      7  N   PHE P   4      34.850  33.354  -7.511  1.00 18.03 LIG-0.35  N 
ATOM      8  C   GLU P   3      36.087  33.750  -7.208  1.00 20.04 LIG 0.24  C 
ATOM      9 O    GLU P   3      36.407  34.134  -6.094  1.00 20.03 LIG-0.27  OA
ATOM     10 H    PHE P   4      34.576  33.201  -8.312  1.00 18.03 LIG 0.16  HD
BRANCH 8 11
ATOM     11  CA  GLU P   3      37.109  33.734  -8.346  1.00 21.92 LIG 0.18  C 
BRANCH 11 12
ATOM     12  CB  GLU P   3      38.250  32.771  -8.012  1.00 22.70 LIG 0.04  C 
BRANCH 12 13
ATOM     13  CG  GLU P   3      39.383  32.848  -9.019  1.00 23.46 LIG 0.12  C 
BRANCH 13 14
ATOM     14  CD  GLU P   3      39.145  32.055 -10.284  1.00 23.38 LIG 0.17  C 
ATOM     15 OE1  GLU P   3      39.722  30.947 -10.384  1.00 24.20 LIG-0.65  OA
ATOM     16 OE2  GLU P   3      38.412  32.539 -11.172  1.00 25.77 LIG-0.65  OA
ENDBRANCH 13 14
ENDBRANCH 12 13
ENDBRANCH 11 12
BRANCH 11 17
ATOM     17  N   GLU P   3      37.608  35.098  -8.546  1.00 23.31 LIG-0.35  N 
ATOM     18 H    GLU P   3      38.105  35.397  -7.910  1.00 23.31 LIG 0.16  HD
ATOM     19  C   ALA P   2      37.297  35.787  -9.637  1.00 24.65 LIG 0.26  C 
ATOM     20 O    ALA P   2      36.797  35.248 -10.639  1.00 25.69 LIG-0.27  OA
BRANCH 19 21
ATOM     21  CA  ALA P   2      37.640  37.288  -9.649  1.00 24.82 LIG 0.40  C 
ATOM     22  N   ALA P   2      38.930  37.518 -10.346  1.00 26.06 LIG 0.61  N 
ATOM     23  CB  ALA P   2      36.531  38.115 -10.327  1.00 25.99 LIG 0.06  C 
ENDBRANCH 19 21
ENDBRANCH 11 17
ENDBRANCH 8 11
ENDBRANCH 6 7
BRANCH 6 24
ATOM     24  CB  PHE P   4      32.844  34.319  -6.439  1.00 16.70 LIG 0.07  C 
BRANCH 24 25
ATOM     25  CG  PHE P   4      31.490  33.955  -5.864  1.00 15.87 LIG-0.06  A 
ATOM     26  CD2 PHE P   4      31.311  33.853  -4.490  1.00 14.31 LIG 0.01  A 
ATOM     27  CE2 PHE P   4      30.075  33.491  -3.954  1.00 14.76 LIG 0.00  A 
ATOM     28  CZ  PHE P   4      28.995  33.209  -4.800  1.00 16.46 LIG 0.00  A 
ATOM     29  CE1 PHE P   4      29.160  33.313  -6.177  1.00 16.70 LIG 0.00  A 
ATOM     30  CD1 PHE P   4      30.411  33.671  -6.691  1.00 16.73 LIG 0.01  A 
ENDBRANCH 24 25
ENDBRANCH 6 24
ENDBRANCH 3 6
ENDBRANCH 1 2
BRANCH 1 31
ATOM     31  C   ARG P   5      33.343  28.790  -7.074  1.00 16.50 LIG 0.24  C 
ATOM     32  N   HIS P   6      34.184  27.891  -6.571  1.00 17.02 LIG-0.35  N 
ATOM     33 H    HIS P   6      34.340  27.784  -5.732  1.00 17.02 LIG 0.16  HD
ATOM     34 O    ARG P   5      33.207  28.966  -8.292  1.00 15.68 LIG-0.27  OA
BRANCH 32 35
ATOM     35  CA  HIS P   6      34.930  26.988  -7.460  1.00 18.55 LIG 0.18  C 
BRANCH 35 36
ATOM     36  CB  HIS P   6      36.273  27.591  -7.851  1.00 17.94 LIG 0.10  C 
BRANCH 36 37
ATOM     37  CG  HIS P   6      36.183  28.836  -8.671  1.00 17.06 LIG 0.06  A 
ATOM     38 ND1  HIS P   6      36.184  28.820 -10.048  1.00 15.40 LIG-0.24  NA
ATOM     39  CE1 HIS P   6      36.142  30.059 -10.503  1.00 15.09 LIG 0.23  A 
ATOM     40 NE2  HIS P   6      36.107  30.881  -9.470  1.00 16.22 LIG-0.25  NA
ATOM     41  CD2 HIS P   6      36.139  30.137  -8.311  1.00 16.02 LIG 0.14  A 
ENDBRANCH 36 37
ENDBRANCH 35 36
BRANCH 35 42
ATOM     42  C   HIS P   6      35.219  25.734  -6.671  1.00 20.42 LIG 0.24  C 
ATOM     43 O    HIS P   6      36.352  25.545  -6.241  1.00 21.09 LIG-0.27  OA
ATOM     44  N   ASP P   7      34.247  24.862  -6.478  1.00 22.91 LIG-0.34  N 
ATOM     45 H    ASP P   7      33.450  24.913  -6.797  1.00 22.91 LIG 0.16  HD
BRANCH 44 46
ATOM     46  CA  ASP P   7      34.542  23.681  -5.639  1.00 24.36 LIG 0.19  C 
BRANCH 46 47
ATOM     47  C   ASP P   7      35.665  22.806  -6.181  1.00 26.16 LIG 0.24  C 
ATOM     48  N   SER P   8      35.955  21.707  -5.480  1.00 27.90 LIG-0.34  N 
ATOM     49 H    SER P   8      35.601  21.507  -4.722  1.00 27.90 LIG 0.16  HD
ATOM     50 O    ASP P   7      36.272  23.109  -7.202  1.00 26.07 LIG-0.27  OA
BRANCH 48 51
ATOM     51  CA  SER P   8      36.932  20.735  -5.978  1.00 28.60 LIG 0.21  C 
BRANCH 51 52
ATOM     52  CB  SER P   8      38.319  21.058  -5.425  1.00 29.65 LIG 0.20  C 
BRANCH 52 53
ATOM     53 OG   SER P   8      38.260  22.166  -4.542  1.00 30.91 LIG-0.40  OA
ATOM     54 HG   SER P   8      37.652  22.042  -3.976  1.00 30.91 LIG 0.21  HD
ENDBRANCH 52 53
ENDBRANCH 51 52
BRANCH 51 55
ATOM     55  C   SER P   8      36.520  19.259  -5.675  1.00 29.85 LIG 0.20  C 
ATOM     56 OXT  SER P   8      36.746  18.340  -6.473  1.00 30.94 LIG-0.65  OA
ATOM     57 O    SER P   8      35.911  18.896  -4.656  1.00 30.51 LIG-0.65  OA
ENDBRANCH 51 55
ENDBRANCH 48 51
ENDBRANCH 46 47
BRANCH 46 58
ATOM     58  CB  ASP P   7      33.286  22.877  -5.380  1.00 24.61 LIG 0.15  C 
BRANCH 58 59
ATOM     59  CG  ASP P   7      33.159  22.495  -3.928  1.00 26.42 LIG 0.17  C 
ATOM     60 OD2  ASP P   7      33.160  23.392  -3.076  1.00 29.83 LIG-0.65  OA
ATOM     61 OD1  ASP P   7      33.031  21.278  -3.646  1.00 30.09 LIG-0.65  OA
ENDBRANCH 58 59
ENDBRANCH 46 58
ENDBRANCH 44 46
ENDBRANCH 35 42
ENDBRANCH 32 35
ENDBRANCH 1 31
BRANCH 1 62
ATOM     62  CB  ARG P   5      31.087  29.732  -6.560  1.00 16.24 LIG 0.04  C 
BRANCH 62 63
ATOM     63  CG  ARG P   5      30.068  30.105  -5.501  1.00 15.73 LIG 0.02  C 
BRANCH 63 64
ATOM     64  CD  ARG P   5      29.321  28.878  -5.055  1.00 15.69 LIG 0.14  C 
BRANCH 64 65
ATOM     65  NE  ARG P   5      28.895  28.911  -3.649  1.00 15.25 LIG-0.23  N 
ATOM     66 HE   ARG P   5      28.133  29.259  -3.456  1.00 15.25 LIG 0.18  HD
ATOM     67  CZ  ARG P   5      29.646  28.422  -2.659  1.00 16.06 LIG 0.67  C 
ATOM     68  NH2 ARG P   5      29.231  28.488  -1.393  1.00 16.00 LIG-0.23  N 
ATOM     69  NH1 ARG P   5      30.832  27.894  -2.931  1.00 17.19 LIG-0.23  N 
ATOM     70 1HH2 ARG P   5      28.473  28.849  -1.208  1.00 16.00 LIG 0.17  HD
ATOM     71 2HH2 ARG P   5      29.721  28.170  -0.762  1.00 16.00 LIG 0.17  HD
ATOM     72 1HH1 ARG P   5      31.115  27.868  -3.742  1.00 17.19 LIG 0.17  HD
ATOM     73 2HH1 ARG P   5      31.317  27.578  -2.295  1.00 17.19 LIG 0.17  HD
ENDBRANCH 64 65
ENDBRANCH 63 64
ENDBRANCH 62 63
ENDBRANCH 1 62
TORSDOF 28
ENDMDL
MODEL 32
USER: ADFR SOLUTION from run 150
USER: SCORE 18.504843 LL:  -5.160 LR: -16.008 RR:   0.000 FEB:  -7.656
USER: RMSD 6.502286
USER: SEED 149
USER: STATUS no improvement in best in 6 clusters for 5 generations
USER: GENES 30
USER: genes 0 Translation |==|  0.54241 0.50722 0.55284
USER: genes 1 Rotation |==|  0.20699 0.89310 0.59749 0.51071
USER: genes 2 Torsion [CB]-CA--N-[C] |==|  0.24956
USER: genes 3 Torsion [N]-C--CA-[N] |==|  0.00447
USER: genes 4 Torsion [C]-CA--N-[C] |==|  0.56897
USER: genes 5 Torsion [N]-C--CA-[N] |==|  0.48727
USER: genes 6 Torsion [C]-CA--CB-[CG] |==|  0.26551
USER: genes 7 Torsion [CA]-CB--CG-[CD] |==|  0.00412
USER: genes 8 Torsion [CB]-CG--CD-[OE1] |==|  0.68598
USER: genes 9 Torsion [C]-CA--N-[C] |==|  0.78233
USER: genes 10 Torsion [N]-C--CA-[N] |==|  0.18014
USER: genes 11 Torsion [C]-CA--CB-[CG] |==|  0.27495
USER: genes 12 Torsion [CA]-CB--CG-[CD2] |==|  0.78811
USER: genes 13 Torsion [N]-CA--C-[N] |==|  0.44031
USER: genes 14 Torsion [C]-N--CA-[CB] |==|  0.21472
USER: genes 15 Torsion [N]-CA--CB-[CG] |==|  0.41350
USER: genes 16 Torsion [CA]-CB--CG-[CD2] |==|  0.67998
USER: genes 17 Torsion [N]-CA--C-[N] |==|  0.94028
USER: genes 18 Torsion [C]-N--CA-[CB] |==|  0.82504
USER: genes 19 Torsion [N]-CA--C-[N] |==|  0.42800
USER: genes 20 Torsion [C]-N--CA-[CB] |==|  0.87340
USER: genes 21 Torsion [N]-CA--CB-[OG] |==|  0.40764
USER: genes 22 Torsion [CA]-CB--OG-[HG] |==|  0.85922
USER: genes 23 Torsion [N]-CA--C-[OXT] |==|  0.22136
USER: genes 24 Torsion [N]-CA--CB-[CG] |==|  0.68932
USER: genes 25 Torsion [CA]-CB--CG-[OD2] |==|  0.08806
USER: genes 26 Torsion [N]-CA--CB-[CG] |==|  0.61171
USER: genes 27 Torsion [CA]-CB--CG-[CD] |==|  0.27889
USER: genes 28 Torsion [CB]-CG--CD-[NE] |==|  0.78200
USER: genes 29 Torsion [CG]-CD--NE-[HE] |==|  0.88532
ROOT
ATOM      1  CA  ARG P   5      32.672  29.188  -5.571  1.00 16.30 LIG 0.18  C 
ENDROOT
BRANCH 1 2
ATOM      2  N   ARG P   5      32.409  30.634  -5.585  1.00 16.36 LIG-0.35  N 
ATOM      3  C   PHE P   4      32.079  31.278  -4.480  1.00 16.61 LIG 0.24  C 
ATOM      4 O    PHE P   4      32.061  30.747  -3.368  1.00 17.57 LIG-0.27  OA
ATOM      5 H    ARG P   5      32.489  31.006  -6.356  1.00 16.36 LIG 0.16  HD
BRANCH 3 6
ATOM      6  CA  PHE P   4      31.715  32.753  -4.645  1.00 17.34 LIG 0.18  C 
BRANCH 6 7
ATOM      7  N   PHE P   4      31.799  33.064  -6.060  1.00 18.03 LIG-0.35  N 
ATOM      8  C   GLU P   3      32.022  34.307  -6.490  1.00 20.04 LIG 0.24  C 
ATOM      9 O    GLU P   3      31.991  35.280  -5.753  1.00 20.03 LIG-0.27  OA
ATOM     10 H    PHE P   4      31.693  32.387  -6.580  1.00 18.03 LIG 0.16  HD
BRANCH 8 11
ATOM     11  CA  GLU P   3      32.296  34.475  -7.985  1.00 21.92 LIG 0.18  C 
BRANCH 11 12
ATOM     12  CB  GLU P   3      33.575  33.730  -8.372  1.00 22.70 LIG 0.04  C 
BRANCH 12 13
ATOM     13  CG  GLU P   3      33.292  32.341  -8.913  1.00 23.46 LIG 0.12  C 
BRANCH 13 14
ATOM     14  CD  GLU P   3      31.823  31.993  -8.994  1.00 23.38 LIG 0.17  C 
ATOM     15 OE1  GLU P   3      31.405  31.089  -8.233  1.00 24.20 LIG-0.65  OA
ATOM     16 OE2  GLU P   3      31.103  32.595  -9.818  1.00 25.77 LIG-0.65  OA
ENDBRANCH 13 14
ENDBRANCH 12 13
ENDBRANCH 11 12
BRANCH 11 17
ATOM     17  N   GLU P   3      32.406  35.907  -8.282  1.00 23.31 LIG-0.35  N 
ATOM     18 H    GLU P   3      33.212  36.195  -8.373  1.00 23.31 LIG 0.16  HD
ATOM     19  C   ALA P   2      31.324  36.667  -8.395  1.00 24.65 LIG 0.26  C 
ATOM     20 O    ALA P   2      30.184  36.184  -8.511  1.00 25.69 LIG-0.27  OA
BRANCH 19 21
ATOM     21  CA  ALA P   2      31.531  38.192  -8.448  1.00 24.82 LIG 0.40  C 
ATOM     22  N   ALA P   2      32.277  38.572  -9.674  1.00 26.06 LIG 0.61  N 
ATOM     23  CB  ALA P   2      30.188  38.946  -8.404  1.00 25.99 LIG 0.06  C 
ENDBRANCH 19 21
ENDBRANCH 11 17
ENDBRANCH 8 11
ENDBRANCH 6 7
BRANCH 6 24
ATOM     24  CB  PHE P   4      30.298  33.027  -4.098  1.00 16.70 LIG 0.07  C 
BRANCH 24 25
ATOM     25  CG  PHE P   4      30.277  33.613  -2.700  1.00 15.87 LIG-0.06  A 
ATOM     26  CD2 PHE P   4      30.518  32.807  -1.593  1.00 14.31 LIG 0.01  A 
ATOM     27  CE2 PHE P   4      30.471  33.333  -0.302  1.00 14.76 LIG 0.00  A 
ATOM     28  CZ  PHE P   4      30.167  34.686  -0.102  1.00 16.46 LIG 0.00  A 
ATOM     29  CE1 PHE P   4      29.929  35.503  -1.202  1.00 16.70 LIG 0.00  A 
ATOM     30  CD1 PHE P   4      29.973  34.951  -2.487  1.00 16.73 LIG 0.01  A 
ENDBRANCH 24 25
ENDBRANCH 6 24
ENDBRANCH 3 6
ENDBRANCH 1 2
BRANCH 1 31
ATOM     31  C   ARG P   5      33.725  28.782  -6.615  1.00 16.50 LIG 0.24  C 
ATOM     32  N   HIS P   6      34.356  27.629  -6.410  1.00 17.02 LIG-0.35  N 
ATOM     33 H    HIS P   6      34.260  27.138  -5.711  1.00 17.02 LIG 0.16  HD
ATOM     34 O    ARG P   5      33.950  29.498  -7.598  1.00 15.68 LIG-0.27  OA
BRANCH 32 35
ATOM     35  CA  HIS P   6      35.295  27.104  -7.412  1.00 18.55 LIG 0.18  C 
BRANCH 35 36
ATOM     36  CB  HIS P   6      36.629  27.836  -7.347  1.00 17.94 LIG 0.10  C 
BRANCH 36 37
ATOM     37  CG  HIS P   6      37.815  27.008  -7.722  1.00 17.06 LIG 0.06  A 
ATOM     38 ND1  HIS P   6      37.969  26.456  -8.973  1.00 15.40 LIG-0.24  NA
ATOM     39  CE1 HIS P   6      39.080  25.741  -9.005  1.00 15.09 LIG 0.23  A 
ATOM     40 NE2  HIS P   6      39.657  25.816  -7.819  1.00 16.22 LIG-0.25  NA
ATOM     41  CD2 HIS P   6      38.877  26.599  -6.996  1.00 16.02 LIG 0.14  A 
ENDBRANCH 36 37
ENDBRANCH 35 36
BRANCH 35 42
ATOM     42  C   HIS P   6      35.560  25.663  -7.053  1.00 20.42 LIG 0.24  C 
ATOM     43 O    HIS P   6      35.960  24.893  -7.921  1.00 21.09 LIG-0.27  OA
ATOM     44  N   ASP P   7      35.339  25.261  -5.815  1.00 22.91 LIG-0.34  N 
ATOM     45 H    ASP P   7      35.012  25.738  -5.179  1.00 22.91 LIG 0.16  HD
BRANCH 44 46
ATOM     46  CA  ASP P   7      35.680  23.862  -5.477  1.00 24.36 LIG 0.19  C 
BRANCH 46 47
ATOM     47  C   ASP P   7      37.166  23.547  -5.593  1.00 26.16 LIG 0.24  C 
ATOM     48  N   SER P   8      37.623  22.548  -4.834  1.00 27.90 LIG-0.34  N 
ATOM     49 H    SER P   8      37.153  22.130  -4.247  1.00 27.90 LIG 0.16  HD
ATOM     50 O    ASP P   7      37.897  24.189  -6.337  1.00 26.07 LIG-0.27  OA
BRANCH 48 51
ATOM     51  CA  SER P   8      39.007  22.082  -4.958  1.00 28.60 LIG 0.21  C 
BRANCH 51 52
ATOM     52  CB  SER P   8      39.375  21.925  -6.433  1.00 29.65 LIG 0.20  C 
BRANCH 52 53
ATOM     53 OG   SER P   8      40.743  22.230  -6.642  1.00 30.91 LIG-0.40  OA
ATOM     54 HG   SER P   8      40.922  22.973  -6.293  1.00 30.91 LIG 0.21  HD
ENDBRANCH 52 53
ENDBRANCH 51 52
BRANCH 51 55
ATOM     55  C   SER P   8      40.021  23.001  -4.205  1.00 29.85 LIG 0.20  C 
ATOM     56 OXT  SER P   8      40.188  22.925  -2.981  1.00 30.94 LIG-0.65  OA
ATOM     57 O    SER P   8      40.696  23.890  -4.746  1.00 30.51 LIG-0.65  OA
ENDBRANCH 51 55
ENDBRANCH 48 51
ENDBRANCH 46 47
BRANCH 46 58
ATOM     58  CB  ASP P   7      34.841  22.894  -6.282  1.00 24.61 LIG 0.15  C 
BRANCH 58 59
ATOM     59  CG  ASP P   7      33.867  22.144  -5.411  1.00 26.42 LIG 0.17  C 
ATOM     60 OD2  ASP P   7      33.408  22.709  -4.411  1.00 29.83 LIG-0.65  OA
ATOM     61 OD1  ASP P   7      33.542  20.980  -5.754  1.00 30.09 LIG-0.65  OA
ENDBRANCH 58 59
ENDBRANCH 46 58
ENDBRANCH 44 46
ENDBRANCH 35 42
ENDBRANCH 32 35
ENDBRANCH 1 31
BRANCH 1 62
ATOM     62  CB  ARG P   5      31.381  28.430  -5.826  1.00 16.24 LIG 0.04  C 
BRANCH 62 63
ATOM     63  CG  ARG P   5      31.189  27.180  -4.990  1.00 15.73 LIG 0.02  C 
BRANCH 63 64
ATOM     64  CD  ARG P   5      30.263  27.469  -3.841  1.00 15.69 LIG 0.14  C 
BRANCH 64 65
ATOM     65  NE  ARG P   5      30.897  28.178  -2.721  1.00 15.25 LIG-0.23  N 
ATOM     66 HE   ARG P   5      31.688  27.944  -2.480  1.00 15.25 LIG 0.18  HD
ATOM     67  CZ  ARG P   5      30.293  29.170  -2.063  1.00 16.06 LIG 0.67  C 
ATOM     68  NH2 ARG P   5      30.896  29.775  -1.039  1.00 16.00 LIG-0.23  N 
ATOM     69  NH1 ARG P   5      29.066  29.537  -2.408  1.00 17.19 LIG-0.23  N 
ATOM     70 1HH2 ARG P   5      31.683  29.528  -0.797  1.00 16.00 LIG 0.17  HD
ATOM     71 2HH2 ARG P   5      30.499  30.413  -0.622  1.00 16.00 LIG 0.17  HD
ATOM     72 1HH1 ARG P   5      28.662  29.136  -3.053  1.00 17.19 LIG 0.17  HD
ATOM     73 2HH1 ARG P   5      28.674  30.176  -1.986  1.00 17.19 LIG 0.17  HD
ENDBRANCH 64 65
ENDBRANCH 63 64
ENDBRANCH 62 63
ENDBRANCH 1 62
TORSDOF 28
ENDMDL
MODEL 33
USER: ADFR SOLUTION from run 51
USER: SCORE 20.011697 LL:  -5.087 LR: -15.994 RR:   0.000 FEB:  -7.642
USER: RMSD 7.282893
USER: SEED 50
USER: STATUS no improvement in best in 6 clusters for 5 generations
USER: GENES 30
USER: genes 0 Translation |==|  0.50716 0.52565 0.58531
USER: genes 1 Rotation |==|  0.27743 0.92507 0.62782 0.55863
USER: genes 2 Torsion [CB]-CA--N-[C] |==|  0.84401
USER: genes 3 Torsion [N]-C--CA-[N] |==|  0.30879
USER: genes 4 Torsion [C]-CA--N-[C] |==|  0.82213
USER: genes 5 Torsion [N]-C--CA-[N] |==|  0.01111
USER: genes 6 Torsion [C]-CA--CB-[CG] |==|  0.42126
USER: genes 7 Torsion [CA]-CB--CG-[CD] |==|  0.97780
USER: genes 8 Torsion [CB]-CG--CD-[OE1] |==|  0.25305
USER: genes 9 Torsion [C]-CA--N-[C] |==|  0.76220
USER: genes 10 Torsion [N]-C--CA-[N] |==|  0.83818
USER: genes 11 Torsion [C]-CA--CB-[CG] |==|  0.11358
USER: genes 12 Torsion [CA]-CB--CG-[CD2] |==|  0.20416
USER: genes 13 Torsion [N]-CA--C-[N] |==|  0.38972
USER: genes 14 Torsion [C]-N--CA-[CB] |==|  0.21536
USER: genes 15 Torsion [N]-CA--CB-[CG] |==|  0.43173
USER: genes 16 Torsion [CA]-CB--CG-[CD2] |==|  0.66981
USER: genes 17 Torsion [N]-CA--C-[N] |==|  0.85465
USER: genes 18 Torsion [C]-N--CA-[CB] |==|  0.82978
USER: genes 19 Torsion [N]-CA--C-[N] |==|  0.40406
USER: genes 20 Torsion [C]-N--CA-[CB] |==|  0.33043
USER: genes 21 Torsion [N]-CA--CB-[OG] |==|  0.03975
USER: genes 22 Torsion [CA]-CB--OG-[HG] |==|  0.98668
USER: genes 23 Torsion [N]-CA--C-[OXT] |==|  0.37748
USER: genes 24 Torsion [N]-CA--CB-[CG] |==|  0.65933
USER: genes 25 Torsion [CA]-CB--CG-[OD2] |==|  0.68861
USER: genes 26 Torsion [N]-CA--CB-[CG] |==|  0.58288
USER: genes 27 Torsion [CA]-CB--CG-[CD] |==|  0.18416
USER: genes 28 Torsion [CB]-CG--CD-[NE] |==|  0.14204
USER: genes 29 Torsion [CG]-CD--NE-[HE] |==|  0.14692
ROOT
ATOM      1  CA  ARG P   5      31.853  29.631  -4.938  1.00 16.30 LIG 0.18  C 
ENDROOT
BRANCH 1 2
ATOM      2  N   ARG P   5      32.072  31.060  -4.676  1.00 16.36 LIG-0.35  N 
ATOM      3  C   PHE P   4      31.785  31.972  -5.587  1.00 16.61 LIG 0.24  C 
ATOM      4 O    PHE P   4      31.236  31.707  -6.660  1.00 17.57 LIG-0.27  OA
ATOM      5 H    ARG P   5      32.394  31.238  -3.899  1.00 16.36 LIG 0.16  HD
BRANCH 3 6
ATOM      6  CA  PHE P   4      32.168  33.411  -5.242  1.00 17.34 LIG 0.18  C 
BRANCH 6 7
ATOM      7  N   PHE P   4      33.252  33.794  -6.128  1.00 18.03 LIG-0.35  N 
ATOM      8  C   GLU P   3      34.438  33.185  -6.084  1.00 20.04 LIG 0.24  C 
ATOM      9 O    GLU P   3      34.751  32.406  -5.197  1.00 20.03 LIG-0.27  OA
ATOM     10 H    PHE P   4      33.060  34.435  -6.668  1.00 18.03 LIG 0.16  HD
BRANCH 8 11
ATOM     11  CA  GLU P   3      35.426  33.531  -7.198  1.00 21.92 LIG 0.18  C 
BRANCH 11 12
ATOM     12  CB  GLU P   3      36.755  33.993  -6.596  1.00 22.70 LIG 0.04  C 
BRANCH 12 13
ATOM     13  CG  GLU P   3      37.934  33.700  -7.506  1.00 23.46 LIG 0.12  C 
BRANCH 13 14
ATOM     14  CD  GLU P   3      37.593  32.854  -8.711  1.00 23.38 LIG 0.17  C 
ATOM     15 OE1  GLU P   3      37.263  33.456  -9.760  1.00 24.20 LIG-0.65  OA
ATOM     16 OE2  GLU P   3      37.633  31.609  -8.608  1.00 25.77 LIG-0.65  OA
ENDBRANCH 13 14
ENDBRANCH 12 13
ENDBRANCH 11 12
BRANCH 11 17
ATOM     17  N   GLU P   3      34.834  34.574  -8.041  1.00 23.31 LIG-0.35  N 
ATOM     18 H    GLU P   3      35.057  35.378  -7.829  1.00 23.31 LIG 0.16  HD
ATOM     19  C   ALA P   2      34.022  34.264  -9.044  1.00 24.65 LIG 0.26  C 
ATOM     20 O    ALA P   2      33.921  33.104  -9.479  1.00 25.69 LIG-0.27  OA
BRANCH 19 21
ATOM     21  CA  ALA P   2      33.244  35.415  -9.708  1.00 24.82 LIG 0.40  C 
ATOM     22  N   ALA P   2      32.409  36.123  -8.707  1.00 26.06 LIG 0.61  N 
ATOM     23  CB  ALA P   2      34.195  36.418 -10.391  1.00 25.99 LIG 0.06  C 
ENDBRANCH 19 21
ENDBRANCH 11 17
ENDBRANCH 8 11
ENDBRANCH 6 7
BRANCH 6 24
ATOM     24  CB  PHE P   4      30.954  34.350  -5.410  1.00 16.70 LIG 0.07  C 
BRANCH 24 25
ATOM     25  CG  PHE P   4      29.648  33.768  -4.908  1.00 15.87 LIG-0.06  A 
ATOM     26  CD2 PHE P   4      29.402  33.657  -3.544  1.00 14.31 LIG 0.01  A 
ATOM     27  CE2 PHE P   4      28.214  33.096  -3.074  1.00 14.76 LIG 0.00  A 
ATOM     28  CZ  PHE P   4      27.253  32.622  -3.976  1.00 16.46 LIG 0.00  A 
ATOM     29  CE1 PHE P   4      27.485  32.733  -5.343  1.00 16.70 LIG 0.00  A 
ATOM     30  CD1 PHE P   4      28.688  33.291  -5.790  1.00 16.73 LIG 0.01  A 
ENDBRANCH 24 25
ENDBRANCH 6 24
ENDBRANCH 3 6
ENDBRANCH 1 2
BRANCH 1 31
ATOM     31  C   ARG P   5      32.771  29.099  -6.050  1.00 16.50 LIG 0.24  C 
ATOM     32  N   HIS P   6      33.285  27.885  -5.871  1.00 17.02 LIG-0.35  N 
ATOM     33 H    HIS P   6      33.191  27.416  -5.157  1.00 17.02 LIG 0.16  HD
ATOM     34 O    ARG P   5      32.998  29.775  -7.061  1.00 15.68 LIG-0.27  OA
BRANCH 32 35
ATOM     35  CA  HIS P   6      34.082  27.249  -6.931  1.00 18.55 LIG 0.18  C 
BRANCH 35 36
ATOM     36  CB  HIS P   6      35.491  27.826  -6.976  1.00 17.94 LIG 0.10  C 
BRANCH 36 37
ATOM     37  CG  HIS P   6      36.519  26.917  -7.568  1.00 17.06 LIG 0.06  A 
ATOM     38 ND1  HIS P   6      36.421  26.417  -8.846  1.00 15.40 LIG-0.24  NA
ATOM     39  CE1 HIS P   6      37.440  25.610  -9.084  1.00 15.09 LIG 0.23  A 
ATOM     40 NE2  HIS P   6      38.201  25.574  -8.005  1.00 16.22 LIG-0.25  NA
ATOM     41  CD2 HIS P   6      37.639  26.380  -7.039  1.00 16.02 LIG 0.14  A 
ENDBRANCH 36 37
ENDBRANCH 35 36
BRANCH 35 42
ATOM     42  C   HIS P   6      34.210  25.790  -6.569  1.00 20.42 LIG 0.24  C 
ATOM     43 O    HIS P   6      33.888  24.938  -7.391  1.00 21.09 LIG-0.27  OA
ATOM     44  N   ASP P   7      34.648  25.466  -5.366  1.00 22.91 LIG-0.34  N 
ATOM     45 H    ASP P   7      34.839  26.015  -4.732  1.00 22.91 LIG 0.16  HD
BRANCH 44 46
ATOM     46  CA  ASP P   7      34.833  24.030  -5.068  1.00 24.36 LIG 0.19  C 
BRANCH 46 47
ATOM     47  C   ASP P   7      35.926  23.366  -5.896  1.00 26.16 LIG 0.24  C 
ATOM     48  N   SER P   8      36.632  22.408  -5.291  1.00 27.90 LIG-0.34  N 
ATOM     49 H    SER P   8      36.555  22.198  -4.460  1.00 27.90 LIG 0.16  HD
ATOM     50 O    ASP P   7      36.145  23.708  -7.052  1.00 26.07 LIG-0.27  OA
BRANCH 48 51
ATOM     51  CA  SER P   8      37.623  21.622  -6.033  1.00 28.60 LIG 0.21  C 
BRANCH 51 52
ATOM     52  CB  SER P   8      39.010  21.824  -5.426  1.00 29.65 LIG 0.20  C 
BRANCH 52 53
ATOM     53 OG   SER P   8      38.914  22.431  -4.149  1.00 30.91 LIG-0.40  OA
ATOM     54 HG   SER P   8      38.112  22.627  -3.991  1.00 30.91 LIG 0.21  HD
ENDBRANCH 52 53
ENDBRANCH 51 52
BRANCH 51 55
ATOM     55  C   SER P   8      37.246  20.109  -6.121  1.00 29.85 LIG 0.20  C 
ATOM     56 OXT  SER P   8      37.352  19.469  -7.176  1.00 30.94 LIG-0.65  OA
ATOM     57 O    SER P   8      36.781  19.446  -5.180  1.00 30.51 LIG-0.65  OA
ENDBRANCH 51 55
ENDBRANCH 48 51
ENDBRANCH 46 47
BRANCH 46 58
ATOM     58  CB  ASP P   7      33.521  23.284  -5.177  1.00 24.61 LIG 0.15  C 
BRANCH 58 59
ATOM     59  CG  ASP P   7      33.175  22.576  -3.893  1.00 26.42 LIG 0.17  C 
ATOM     60 OD2  ASP P   7      33.186  21.339  -3.875  1.00 29.83 LIG-0.65  OA
ATOM     61 OD1  ASP P   7      32.914  23.276  -2.883  1.00 30.09 LIG-0.65  OA
ENDBRANCH 58 59
ENDBRANCH 46 58
ENDBRANCH 44 46
ENDBRANCH 35 42
ENDBRANCH 32 35
ENDBRANCH 1 31
BRANCH 1 62
ATOM     62  CB  ARG P   5      30.401  29.396  -5.319  1.00 16.24 LIG 0.04  C 
BRANCH 62 63
ATOM     63  CG  ARG P   5      29.845  28.037  -4.942  1.00 15.73 LIG 0.02  C 
BRANCH 63 64
ATOM     64  CD  ARG P   5      29.782  27.907  -3.445  1.00 15.69 LIG 0.14  C 
BRANCH 64 65
ATOM     65  NE  ARG P   5      29.106  29.023  -2.772  1.00 15.25 LIG-0.23  N 
ATOM     66 HE   ARG P   5      28.318  29.246  -3.032  1.00 15.25 LIG 0.18  HD
ATOM     67  CZ  ARG P   5      29.667  29.705  -1.771  1.00 16.06 LIG 0.67  C 
ATOM     68  NH2 ARG P   5      29.026  30.725  -1.198  1.00 16.00 LIG-0.23  N 
ATOM     69  NH1 ARG P   5      30.888  29.390  -1.362  1.00 17.19 LIG-0.23  N 
ATOM     70 1HH2 ARG P   5      28.243  30.949  -1.473  1.00 16.00 LIG 0.17  HD
ATOM     71 2HH2 ARG P   5      29.395  31.159  -0.554  1.00 16.00 LIG 0.17  HD
ATOM     72 1HH1 ARG P   5      31.316  28.747  -1.741  1.00 17.19 LIG 0.17  HD
ATOM     73 2HH1 ARG P   5      31.252  29.827  -0.717  1.00 17.19 LIG 0.17  HD
ENDBRANCH 64 65
ENDBRANCH 63 64
ENDBRANCH 62 63
ENDBRANCH 1 62
TORSDOF 28
ENDMDL
MODEL 34
USER: ADFR SOLUTION from run 68
USER: SCORE 20.592325 LL:  -6.923 LR: -15.988 RR:   0.000 FEB:  -7.636
USER: RMSD 8.213449
USER: SEED 67
USER: STATUS no improvement in best in 10 clusters for 5 generations
USER: GENES 30
USER: genes 0 Translation |==|  0.60262 0.54610 0.48003
USER: genes 1 Rotation |==|  0.36541 0.13124 0.64424 0.77404
USER: genes 2 Torsion [CB]-CA--N-[C] |==|  0.79819
USER: genes 3 Torsion [N]-C--CA-[N] |==|  0.12485
USER: genes 4 Torsion [C]-CA--N-[C] |==|  0.18415
USER: genes 5 Torsion [N]-C--CA-[N] |==|  0.92669
USER: genes 6 Torsion [C]-CA--CB-[CG] |==|  0.93219
USER: genes 7 Torsion [CA]-CB--CG-[CD] |==|  0.79199
USER: genes 8 Torsion [CB]-CG--CD-[OE1] |==|  0.99167
USER: genes 9 Torsion [C]-CA--N-[C] |==|  0.78953
USER: genes 10 Torsion [N]-C--CA-[N] |==|  0.95174
USER: genes 11 Torsion [C]-CA--CB-[CG] |==|  0.51014
USER: genes 12 Torsion [CA]-CB--CG-[CD2] |==|  0.34912
USER: genes 13 Torsion [N]-CA--C-[N] |==|  0.12890
USER: genes 14 Torsion [C]-N--CA-[CB] |==|  0.22101
USER: genes 15 Torsion [N]-CA--CB-[CG] |==|  0.73262
USER: genes 16 Torsion [CA]-CB--CG-[CD2] |==|  0.83627
USER: genes 17 Torsion [N]-CA--C-[N] |==|  0.35032
USER: genes 18 Torsion [C]-N--CA-[CB] |==|  0.81854
USER: genes 19 Torsion [N]-CA--C-[N] |==|  0.46638
USER: genes 20 Torsion [C]-N--CA-[CB] |==|  0.37141
USER: genes 21 Torsion [N]-CA--CB-[OG] |==|  0.00284
USER: genes 22 Torsion [CA]-CB--OG-[HG] |==|  0.07902
USER: genes 23 Torsion [N]-CA--C-[OXT] |==|  0.30241
USER: genes 24 Torsion [N]-CA--CB-[CG] |==|  0.76132
USER: genes 25 Torsion [CA]-CB--CG-[OD2] |==|  0.64057
USER: genes 26 Torsion [N]-CA--CB-[CG] |==|  0.57497
USER: genes 27 Torsion [CA]-CB--CG-[CD] |==|  0.34514
USER: genes 28 Torsion [CB]-CG--CD-[NE] |==|  0.73540
USER: genes 29 Torsion [CG]-CD--NE-[HE] |==|  0.06919
ROOT
ATOM      1  CA  ARG P   5      34.072  30.122  -6.990  1.00 16.30 LIG 0.18  C 
ENDROOT
BRANCH 1 2
ATOM      2  N   ARG P   5      33.909  29.572  -8.343  1.00 16.36 LIG-0.35  N 
ATOM      3  C   PHE P   4      32.710  29.302  -8.830  1.00 16.61 LIG 0.24  C 
ATOM      4 O    PHE P   4      31.664  29.573  -8.237  1.00 17.57 LIG-0.27  OA
ATOM      5 H    ARG P   5      34.644  29.448  -8.772  1.00 16.36 LIG 0.16  HD
BRANCH 3 6
ATOM      6  CA  PHE P   4      32.678  28.624 -10.199  1.00 17.34 LIG 0.18  C 
BRANCH 6 7
ATOM      7  N   PHE P   4      33.670  27.565 -10.182  1.00 18.03 LIG-0.35  N 
ATOM      8  C   GLU P   3      33.536  26.496  -9.395  1.00 20.04 LIG 0.24  C 
ATOM      9 O    GLU P   3      32.688  26.417  -8.521  1.00 20.03 LIG-0.27  OA
ATOM     10 H    PHE P   4      34.334  27.691 -10.714  1.00 18.03 LIG 0.16  HD
BRANCH 8 11
ATOM     11  CA  GLU P   3      34.532  25.356  -9.616  1.00 21.92 LIG 0.18  C 
BRANCH 11 12
ATOM     12  CB  GLU P   3      35.700  25.482  -8.636  1.00 22.70 LIG 0.04  C 
BRANCH 12 13
ATOM     13  CG  GLU P   3      35.899  26.908  -8.157  1.00 23.46 LIG 0.12  C 
BRANCH 13 14
ATOM     14  CD  GLU P   3      36.531  27.825  -9.180  1.00 23.38 LIG 0.17  C 
ATOM     15 OE1  GLU P   3      36.873  27.316 -10.273  1.00 24.20 LIG-0.65  OA
ATOM     16 OE2  GLU P   3      36.703  29.028  -8.889  1.00 25.77 LIG-0.65  OA
ENDBRANCH 13 14
ENDBRANCH 12 13
ENDBRANCH 11 12
BRANCH 11 17
ATOM     17  N   GLU P   3      34.997  25.404 -11.006  1.00 23.31 LIG-0.35  N 
ATOM     18 H    GLU P   3      35.791  25.719 -11.109  1.00 23.31 LIG 0.16  HD
ATOM     19  C   ALA P   2      34.224  24.985 -12.000  1.00 24.65 LIG 0.26  C 
ATOM     20 O    ALA P   2      33.199  24.310 -11.803  1.00 25.69 LIG-0.27  OA
BRANCH 19 21
ATOM     21  CA  ALA P   2      34.679  25.308 -13.435  1.00 24.82 LIG 0.40  C 
ATOM     22  N   ALA P   2      35.695  26.389 -13.427  1.00 26.06 LIG 0.61  N 
ATOM     23  CB  ALA P   2      35.254  24.063 -14.138  1.00 25.99 LIG 0.06  C 
ENDBRANCH 19 21
ENDBRANCH 11 17
ENDBRANCH 8 11
ENDBRANCH 6 7
BRANCH 6 24
ATOM     24  CB  PHE P   4      31.270  28.063 -10.493  1.00 16.70 LIG 0.07  C 
BRANCH 24 25
ATOM     25  CG  PHE P   4      31.170  27.295 -11.796  1.00 15.87 LIG-0.06  A 
ATOM     26  CD2 PHE P   4      30.677  25.996 -11.814  1.00 14.31 LIG 0.01  A 
ATOM     27  CE2 PHE P   4      30.608  25.273 -13.005  1.00 14.76 LIG 0.00  A 
ATOM     28  CZ  PHE P   4      31.051  25.846 -14.205  1.00 16.46 LIG 0.00  A 
ATOM     29  CE1 PHE P   4      31.542  27.147 -14.200  1.00 16.70 LIG 0.00  A 
ATOM     30  CD1 PHE P   4      31.609  27.849 -12.992  1.00 16.73 LIG 0.01  A 
ENDBRANCH 24 25
ENDBRANCH 6 24
ENDBRANCH 3 6
ENDBRANCH 1 2
BRANCH 1 31
ATOM     31  C   ARG P   5      33.280  29.323  -5.943  1.00 16.50 LIG 0.24  C 
ATOM     32  N   HIS P   6      33.383  27.998  -5.998  1.00 17.02 LIG-0.35  N 
ATOM     33 H    HIS P   6      33.805  27.567  -6.611  1.00 17.02 LIG 0.16  HD
ATOM     34 O    ARG P   5      32.596  29.901  -5.089  1.00 15.68 LIG-0.27  OA
BRANCH 32 35
ATOM     35  CA  HIS P   6      32.754  27.157  -4.969  1.00 18.55 LIG 0.18  C 
BRANCH 35 36
ATOM     36  CB  HIS P   6      31.262  26.995  -5.232  1.00 17.94 LIG 0.10  C 
BRANCH 36 37
ATOM     37  CG  HIS P   6      30.388  27.942  -4.475  1.00 17.06 LIG 0.06  A 
ATOM     38 ND1  HIS P   6      29.573  28.859  -5.098  1.00 15.40 LIG-0.24  NA
ATOM     39  CE1 HIS P   6      28.955  29.589  -4.187  1.00 15.09 LIG 0.23  A 
ATOM     40 NE2  HIS P   6      29.335  29.174  -2.993  1.00 16.22 LIG-0.25  NA
ATOM     41  CD2 HIS P   6      30.240  28.146  -3.149  1.00 16.02 LIG 0.14  A 
ENDBRANCH 36 37
ENDBRANCH 35 36
BRANCH 35 42
ATOM     42  C   HIS P   6      33.375  25.787  -5.081  1.00 20.42 LIG 0.24  C 
ATOM     43 O    HIS P   6      33.355  25.206  -6.161  1.00 21.09 LIG-0.27  OA
ATOM     44  N   ASP P   7      33.910  25.237  -4.006  1.00 22.91 LIG-0.34  N 
ATOM     45 H    ASP P   7      33.908  25.571  -3.213  1.00 22.91 LIG 0.16  HD
BRANCH 44 46
ATOM     46  CA  ASP P   7      34.577  23.927  -4.164  1.00 24.36 LIG 0.19  C 
BRANCH 46 47
ATOM     47  C   ASP P   7      35.764  23.953  -5.118  1.00 26.16 LIG 0.24  C 
ATOM     48  N   SER P   8      36.555  22.877  -5.113  1.00 27.90 LIG-0.34  N 
ATOM     49 H    SER P   8      36.475  22.218  -4.567  1.00 27.90 LIG 0.16  HD
ATOM     50 O    ASP P   7      35.982  24.920  -5.839  1.00 26.07 LIG-0.27  OA
BRANCH 48 51
ATOM     51  CA  SER P   8      37.652  22.747  -6.077  1.00 28.60 LIG 0.21  C 
BRANCH 51 52
ATOM     52  CB  SER P   8      38.924  22.295  -5.361  1.00 29.65 LIG 0.20  C 
BRANCH 52 53
ATOM     53 OG   SER P   8      38.680  22.108  -3.978  1.00 30.91 LIG-0.40  OA
ATOM     54 HG   SER P   8      37.876  21.896  -3.861  1.00 30.91 LIG 0.21  HD
ENDBRANCH 52 53
ENDBRANCH 51 52
BRANCH 51 55
ATOM     55  C   SER P   8      37.296  21.804  -7.270  1.00 29.85 LIG 0.20  C 
ATOM     56 OXT  SER P   8      37.100  22.240  -8.412  1.00 30.94 LIG-0.65  OA
ATOM     57 O    SER P   8      37.140  20.577  -7.172  1.00 30.51 LIG-0.65  OA
ENDBRANCH 51 55
ENDBRANCH 48 51
ENDBRANCH 46 47
BRANCH 46 58
ATOM     58  CB  ASP P   7      33.577  22.858  -4.549  1.00 24.61 LIG 0.15  C 
BRANCH 58 59
ATOM     59  CG  ASP P   7      32.913  22.255  -3.338  1.00 26.42 LIG 0.17  C 
ATOM     60 OD2  ASP P   7      32.887  21.023  -3.226  1.00 29.83 LIG-0.65  OA
ATOM     61 OD1  ASP P   7      32.436  23.035  -2.476  1.00 30.09 LIG-0.65  OA
ENDBRANCH 58 59
ENDBRANCH 46 58
ENDBRANCH 44 46
ENDBRANCH 35 42
ENDBRANCH 32 35
ENDBRANCH 1 31
BRANCH 1 62
ATOM     62  CB  ARG P   5      33.625  31.574  -6.969  1.00 16.24 LIG 0.04  C 
BRANCH 62 63
ATOM     63  CG  ARG P   5      34.287  32.438  -5.914  1.00 15.73 LIG 0.02  C 
BRANCH 63 64
ATOM     64  CD  ARG P   5      34.938  33.629  -6.562  1.00 15.69 LIG 0.14  C 
BRANCH 64 65
ATOM     65  NE  ARG P   5      36.367  33.451  -6.852  1.00 15.25 LIG-0.23  N 
ATOM     66 HE   ARG P   5      36.671  32.653  -6.957  1.00 15.25 LIG 0.18  HD
ATOM     67  CZ  ARG P   5      37.213  34.478  -6.958  1.00 16.06 LIG 0.67  C 
ATOM     68  NH2 ARG P   5      38.508  34.271  -7.204  1.00 16.00 LIG-0.23  N 
ATOM     69  NH1 ARG P   5      36.771  35.716  -6.784  1.00 17.19 LIG-0.23  N 
ATOM     70 1HH2 ARG P   5      38.805  33.470  -7.296  1.00 16.00 LIG 0.17  HD
ATOM     71 2HH2 ARG P   5      39.045  34.939  -7.270  1.00 16.00 LIG 0.17  HD
ATOM     72 1HH1 ARG P   5      35.942  35.855  -6.603  1.00 17.19 LIG 0.17  HD
ATOM     73 2HH1 ARG P   5      37.314  36.380  -6.852  1.00 17.19 LIG 0.17  HD
ENDBRANCH 64 65
ENDBRANCH 63 64
ENDBRANCH 62 63
ENDBRANCH 1 62
TORSDOF 28
ENDMDL
MODEL 35
USER: ADFR SOLUTION from run 185
USER: SCORE 20.437405 LL:  -6.887 LR: -15.988 RR:   0.000 FEB:  -7.635
USER: RMSD 9.051804
USER: SEED 184
USER: STATUS no improvement in best in 4 clusters for 5 generations
USER: GENES 30
USER: genes 0 Translation |==|  0.48343 0.60092 0.52080
USER: genes 1 Rotation |==|  0.77040 0.73432 0.16886 0.61104
USER: genes 2 Torsion [CB]-CA--N-[C] |==|  0.78333
USER: genes 3 Torsion [N]-C--CA-[N] |==|  0.76602
USER: genes 4 Torsion [C]-CA--N-[C] |==|  0.77972
USER: genes 5 Torsion [N]-C--CA-[N] |==|  0.91127
USER: genes 6 Torsion [C]-CA--CB-[CG] |==|  0.01785
USER: genes 7 Torsion [CA]-CB--CG-[CD] |==|  0.33928
USER: genes 8 Torsion [CB]-CG--CD-[OE1] |==|  0.52511
USER: genes 9 Torsion [C]-CA--N-[C] |==|  0.81017
USER: genes 10 Torsion [N]-C--CA-[N] |==|  0.36504
USER: genes 11 Torsion [C]-CA--CB-[CG] |==|  0.17226
USER: genes 12 Torsion [CA]-CB--CG-[CD2] |==|  0.09515
USER: genes 13 Torsion [N]-CA--C-[N] |==|  0.19188
USER: genes 14 Torsion [C]-N--CA-[CB] |==|  0.55108
USER: genes 15 Torsion [N]-CA--CB-[CG] |==|  0.04841
USER: genes 16 Torsion [CA]-CB--CG-[CD2] |==|  0.09615
USER: genes 17 Torsion [N]-CA--C-[N] |==|  0.31141
USER: genes 18 Torsion [C]-N--CA-[CB] |==|  0.16768
USER: genes 19 Torsion [N]-CA--C-[N] |==|  0.82098
USER: genes 20 Torsion [C]-N--CA-[CB] |==|  0.20401
USER: genes 21 Torsion [N]-CA--CB-[OG] |==|  0.06808
USER: genes 22 Torsion [CA]-CB--OG-[HG] |==|  0.78747
USER: genes 23 Torsion [N]-CA--C-[OXT] |==|  0.80435
USER: genes 24 Torsion [N]-CA--CB-[CG] |==|  0.66006
USER: genes 25 Torsion [CA]-CB--CG-[OD2] |==|  0.78130
USER: genes 26 Torsion [N]-CA--CB-[CG] |==|  0.54444
USER: genes 27 Torsion [CA]-CB--CG-[CD] |==|  0.09992
USER: genes 28 Torsion [CB]-CG--CD-[NE] |==|  0.72495
USER: genes 29 Torsion [CG]-CD--NE-[HE] |==|  0.02518
ROOT
ATOM      1  CA  ARG P   5      31.301  31.437  -6.195  1.00 16.30 LIG 0.18  C 
ENDROOT
BRANCH 1 2
ATOM      2  N   ARG P   5      31.882  30.437  -5.290  1.00 16.36 LIG-0.35  N 
ATOM      3  C   PHE P   4      31.282  29.279  -5.077  1.00 16.61 LIG 0.24  C 
ATOM      4 O    PHE P   4      30.267  28.923  -5.680  1.00 17.57 LIG-0.27  OA
ATOM      5 H    ARG P   5      32.625  30.671  -4.925  1.00 16.36 LIG 0.16  HD
BRANCH 3 6
ATOM      6  CA  PHE P   4      31.922  28.374  -4.025  1.00 17.34 LIG 0.18  C 
BRANCH 6 7
ATOM      7  N   PHE P   4      32.982  27.630  -4.681  1.00 18.03 LIG-0.35  N 
ATOM      8  C   GLU P   3      32.720  26.559  -5.433  1.00 20.04 LIG 0.24  C 
ATOM      9 O    GLU P   3      31.621  26.031  -5.476  1.00 20.03 LIG-0.27  OA
ATOM     10 H    PHE P   4      33.772  27.938  -4.541  1.00 18.03 LIG 0.16  HD
BRANCH 8 11
ATOM     11  CA  GLU P   3      33.889  25.986  -6.237  1.00 21.92 LIG 0.18  C 
BRANCH 11 12
ATOM     12  CB  GLU P   3      34.628  24.933  -5.410  1.00 22.70 LIG 0.04  C 
BRANCH 12 13
ATOM     13  CG  GLU P   3      33.924  24.629  -4.100  1.00 23.46 LIG 0.12  C 
BRANCH 13 14
ATOM     14  CD  GLU P   3      33.545  23.176  -3.921  1.00 23.38 LIG 0.17  C 
ATOM     15 OE1  GLU P   3      32.811  22.890  -2.946  1.00 24.20 LIG-0.65  OA
ATOM     16 OE2  GLU P   3      33.990  22.331  -4.727  1.00 25.77 LIG-0.65  OA
ENDBRANCH 13 14
ENDBRANCH 12 13
ENDBRANCH 11 12
BRANCH 11 17
ATOM     17  N   GLU P   3      34.782  27.087  -6.613  1.00 23.31 LIG-0.35  N 
ATOM     18 H    GLU P   3      35.550  27.076  -6.226  1.00 23.31 LIG 0.16  HD
ATOM     19  C   ALA P   2      34.398  28.011  -7.486  1.00 24.65 LIG 0.26  C 
ATOM     20 O    ALA P   2      33.397  27.863  -8.208  1.00 25.69 LIG-0.27  OA
BRANCH 19 21
ATOM     21  CA  ALA P   2      35.283  29.263  -7.628  1.00 24.82 LIG 0.40  C 
ATOM     22  N   ALA P   2      35.561  29.542  -9.058  1.00 26.06 LIG 0.61  N 
ATOM     23  CB  ALA P   2      34.626  30.495  -6.977  1.00 25.99 LIG 0.06  C 
ENDBRANCH 19 21
ENDBRANCH 11 17
ENDBRANCH 8 11
ENDBRANCH 6 7
BRANCH 6 24
ATOM     24  CB  PHE P   4      32.474  29.211  -2.852  1.00 16.70 LIG 0.07  C 
BRANCH 24 25
ATOM     25  CG  PHE P   4      31.418  29.996  -2.101  1.00 15.87 LIG-0.06  A 
ATOM     26  CD2 PHE P   4      30.137  29.480  -1.939  1.00 14.31 LIG 0.01  A 
ATOM     27  CE2 PHE P   4      29.150  30.209  -1.274  1.00 14.76 LIG 0.00  A 
ATOM     28  CZ  PHE P   4      29.436  31.484  -0.769  1.00 16.46 LIG 0.00  A 
ATOM     29  CE1 PHE P   4      30.715  32.009  -0.920  1.00 16.70 LIG 0.00  A 
ATOM     30  CD1 PHE P   4      31.685  31.263  -1.598  1.00 16.73 LIG 0.01  A 
ENDBRANCH 24 25
ENDBRANCH 6 24
ENDBRANCH 3 6
ENDBRANCH 1 2
BRANCH 1 31
ATOM     31  C   ARG P   5      29.787  31.600  -5.982  1.00 16.50 LIG 0.24  C 
ATOM     32  N   HIS P   6      29.402  32.162  -4.839  1.00 17.02 LIG-0.35  N 
ATOM     33 H    HIS P   6      29.933  32.377  -4.198  1.00 17.02 LIG 0.16  HD
ATOM     34 O    ARG P   5      28.982  31.233  -6.847  1.00 15.68 LIG-0.27  OA
BRANCH 32 35
ATOM     35  CA  HIS P   6      27.983  32.462  -4.597  1.00 18.55 LIG 0.18  C 
BRANCH 35 36
ATOM     36  CB  HIS P   6      27.824  33.480  -3.475  1.00 17.94 LIG 0.10  C 
BRANCH 36 37
ATOM     37  CG  HIS P   6      29.063  34.249  -3.149  1.00 17.06 LIG 0.06  A 
ATOM     38 ND1  HIS P   6      29.346  34.697  -1.878  1.00 15.40 LIG-0.24  NA
ATOM     39  CE1 HIS P   6      30.475  35.382  -1.894  1.00 15.09 LIG 0.23  A 
ATOM     40 NE2  HIS P   6      30.940  35.390  -3.130  1.00 16.22 LIG-0.25  NA
ATOM     41  CD2 HIS P   6      30.067  34.692  -3.936  1.00 16.02 LIG 0.14  A 
ENDBRANCH 36 37
ENDBRANCH 35 36
BRANCH 35 42
ATOM     42  C   HIS P   6      27.447  33.100  -5.854  1.00 20.42 LIG 0.24  C 
ATOM     43 O    HIS P   6      27.833  34.221  -6.169  1.00 21.09 LIG-0.27  OA
ATOM     44  N   ASP P   7      26.560  32.441  -6.577  1.00 22.91 LIG-0.34  N 
ATOM     45 H    ASP P   7      26.214  31.679  -6.382  1.00 22.91 LIG 0.16  HD
BRANCH 44 46
ATOM     46  CA  ASP P   7      26.110  33.061  -7.843  1.00 24.36 LIG 0.19  C 
BRANCH 46 47
ATOM     47  C   ASP P   7      24.968  32.315  -8.520  1.00 26.16 LIG 0.24  C 
ATOM     48  N   SER P   8      25.235  31.080  -8.949  1.00 27.90 LIG-0.34  N 
ATOM     49 H    SER P   8      26.014  30.716  -8.929  1.00 27.90 LIG 0.16  HD
ATOM     50 O    ASP P   7      23.867  32.835  -8.669  1.00 26.07 LIG-0.27  OA
BRANCH 48 51
ATOM     51  CA  SER P   8      24.176  30.231  -9.503  1.00 28.60 LIG 0.21  C 
BRANCH 51 52
ATOM     52  CB  SER P   8      23.789  30.722 -10.897  1.00 29.65 LIG 0.20  C 
BRANCH 52 53
ATOM     53 OG   SER P   8      24.859  31.437 -11.490  1.00 30.91 LIG-0.40  OA
ATOM     54 HG   SER P   8      24.905  32.205 -11.152  1.00 30.91 LIG 0.21  HD
ENDBRANCH 52 53
ENDBRANCH 51 52
BRANCH 51 55
ATOM     55  C   SER P   8      24.560  28.717  -9.510  1.00 29.85 LIG 0.20  C 
ATOM     56 OXT  SER P   8      25.423  28.265 -10.274  1.00 30.94 LIG-0.65  OA
ATOM     57 O    SER P   8      24.020  27.853  -8.801  1.00 30.51 LIG-0.65  OA
ENDBRANCH 51 55
ENDBRANCH 48 51
ENDBRANCH 46 47
BRANCH 46 58
ATOM     58  CB  ASP P   7      27.276  33.266  -8.785  1.00 24.61 LIG 0.15  C 
BRANCH 58 59
ATOM     59  CG  ASP P   7      27.424  34.713  -9.180  1.00 26.42 LIG 0.17  C 
ATOM     60 OD2  ASP P   7      26.670  35.172 -10.047  1.00 29.83 LIG-0.65  OA
ATOM     61 OD1  ASP P   7      28.292  35.402  -8.589  1.00 30.09 LIG-0.65  OA
ENDBRANCH 58 59
ENDBRANCH 46 58
ENDBRANCH 44 46
ENDBRANCH 35 42
ENDBRANCH 32 35
ENDBRANCH 1 31
BRANCH 1 62
ATOM     62  CB  ARG P   5      31.573  31.043  -7.637  1.00 16.24 LIG 0.04  C 
BRANCH 62 63
ATOM     63  CG  ARG P   5      31.374  32.146  -8.658  1.00 15.73 LIG 0.02  C 
BRANCH 63 64
ATOM     64  CD  ARG P   5      31.804  33.465  -8.076  1.00 15.69 LIG 0.14  C 
BRANCH 64 65
ATOM     65  NE  ARG P   5      30.698  34.288  -7.568  1.00 15.25 LIG-0.23  N 
ATOM     66 HE   ARG P   5      29.913  33.940  -7.518  1.00 15.25 LIG 0.18  HD
ATOM     67  CZ  ARG P   5      30.863  35.554  -7.180  1.00 16.06 LIG 0.67  C 
ATOM     68  NH2 ARG P   5      29.828  36.273  -6.742  1.00 16.00 LIG-0.23  N 
ATOM     69  NH1 ARG P   5      32.061  36.117  -7.261  1.00 17.19 LIG-0.23  N 
ATOM     70 1HH2 ARG P   5      29.045  35.921  -6.706  1.00 16.00 LIG 0.17  HD
ATOM     71 2HH2 ARG P   5      29.945  37.088  -6.494  1.00 16.00 LIG 0.17  HD
ATOM     72 1HH1 ARG P   5      32.728  35.667  -7.563  1.00 17.19 LIG 0.17  HD
ATOM     73 2HH1 ARG P   5      32.171  36.933  -7.012  1.00 17.19 LIG 0.17  HD
ENDBRANCH 64 65
ENDBRANCH 63 64
ENDBRANCH 62 63
ENDBRANCH 1 62
TORSDOF 28
ENDMDL
MODEL 36
USER: ADFR SOLUTION from run 105
USER: SCORE 19.192818 LL:  -6.085 LR: -15.936 RR:   0.000 FEB:  -7.583
USER: RMSD 6.703970
USER: SEED 104
USER: STATUS searching
USER: GENES 30
USER: genes 0 Translation |==|  0.55599 0.51013 0.55712
USER: genes 1 Rotation |==|  0.80411 0.13231 0.35350 0.52934
USER: genes 2 Torsion [CB]-CA--N-[C] |==|  0.19955
USER: genes 3 Torsion [N]-C--CA-[N] |==|  0.02669
USER: genes 4 Torsion [C]-CA--N-[C] |==|  0.57561
USER: genes 5 Torsion [N]-C--CA-[N] |==|  0.50953
USER: genes 6 Torsion [C]-CA--CB-[CG] |==|  0.85293
USER: genes 7 Torsion [CA]-CB--CG-[CD] |==|  0.30603
USER: genes 8 Torsion [CB]-CG--CD-[OE1] |==|  0.20529
USER: genes 9 Torsion [C]-CA--N-[C] |==|  0.74148
USER: genes 10 Torsion [N]-C--CA-[N] |==|  0.23936
USER: genes 11 Torsion [C]-CA--CB-[CG] |==|  0.31224
USER: genes 12 Torsion [CA]-CB--CG-[CD2] |==|  0.27624
USER: genes 13 Torsion [N]-CA--C-[N] |==|  0.40025
USER: genes 14 Torsion [C]-N--CA-[CB] |==|  0.26935
USER: genes 15 Torsion [N]-CA--CB-[CG] |==|  0.73871
USER: genes 16 Torsion [CA]-CB--CG-[CD2] |==|  0.94161
USER: genes 17 Torsion [N]-CA--C-[N] |==|  0.98356
USER: genes 18 Torsion [C]-N--CA-[CB] |==|  0.83873
USER: genes 19 Torsion [N]-CA--C-[N] |==|  0.35416
USER: genes 20 Torsion [C]-N--CA-[CB] |==|  0.14377
USER: genes 21 Torsion [N]-CA--CB-[OG] |==|  0.73955
USER: genes 22 Torsion [CA]-CB--OG-[HG] |==|  0.00372
USER: genes 23 Torsion [N]-CA--C-[OXT] |==|  0.74509
USER: genes 24 Torsion [N]-CA--CB-[CG] |==|  0.84068
USER: genes 25 Torsion [CA]-CB--CG-[OD2] |==|  0.25697
USER: genes 26 Torsion [N]-CA--CB-[CG] |==|  0.48156
USER: genes 27 Torsion [CA]-CB--CG-[CD] |==|  0.19206
USER: genes 28 Torsion [CB]-CG--CD-[NE] |==|  0.49581
USER: genes 29 Torsion [CG]-CD--NE-[HE] |==|  0.95837
ROOT
ATOM      1  CA  ARG P   5      32.988  29.258  -5.487  1.00 16.30 LIG 0.18  C 
ENDROOT
BRANCH 1 2
ATOM      2  N   ARG P   5      32.558  30.652  -5.308  1.00 16.36 LIG-0.35  N 
ATOM      3  C   PHE P   4      32.083  31.075  -4.150  1.00 16.61 LIG 0.24  C 
ATOM      4 O    PHE P   4      32.056  30.376  -3.135  1.00 17.57 LIG-0.27  OA
ATOM      5 H    ARG P   5      32.643  31.147  -6.006  1.00 16.36 LIG 0.16  HD
BRANCH 3 6
ATOM      6  CA  PHE P   4      31.559  32.511  -4.123  1.00 17.34 LIG 0.18  C 
BRANCH 6 7
ATOM      7  N   PHE P   4      31.518  32.983  -5.495  1.00 18.03 LIG-0.35  N 
ATOM      8  C   GLU P   3      31.631  34.278  -5.791  1.00 20.04 LIG 0.24  C 
ATOM      9 O    GLU P   3      31.594  35.158  -4.946  1.00 20.03 LIG-0.27  OA
ATOM     10 H    PHE P   4      31.417  32.362  -6.082  1.00 18.03 LIG 0.16  HD
BRANCH 8 11
ATOM     11  CA  GLU P   3      31.782  34.631  -7.272  1.00 21.92 LIG 0.18  C 
BRANCH 11 12
ATOM     12  CB  GLU P   3      32.961  33.866  -7.876  1.00 22.70 LIG 0.04  C 
BRANCH 12 13
ATOM     13  CG  GLU P   3      34.241  34.058  -7.083  1.00 23.46 LIG 0.12  C 
BRANCH 13 14
ATOM     14  CD  GLU P   3      34.701  32.826  -6.337  1.00 23.38 LIG 0.17  C 
ATOM     15 OE1  GLU P   3      35.205  31.900  -7.014  1.00 24.20 LIG-0.65  OA
ATOM     16 OE2  GLU P   3      34.541  32.775  -5.099  1.00 25.77 LIG-0.65  OA
ENDBRANCH 13 14
ENDBRANCH 12 13
ENDBRANCH 11 12
BRANCH 11 17
ATOM     17  N   GLU P   3      31.974  36.080  -7.390  1.00 23.31 LIG-0.35  N 
ATOM     18 H    GLU P   3      32.791  36.342  -7.322  1.00 23.31 LIG 0.16  HD
ATOM     19  C   ALA P   2      30.943  36.893  -7.587  1.00 24.65 LIG 0.26  C 
ATOM     20 O    ALA P   2      29.825  36.471  -7.930  1.00 25.69 LIG-0.27  OA
BRANCH 19 21
ATOM     21  CA  ALA P   2      31.194  38.404  -7.440  1.00 24.82 LIG 0.40  C 
ATOM     22  N   ALA P   2      31.686  38.975  -8.718  1.00 26.06 LIG 0.61  N 
ATOM     23  CB  ALA P   2      29.919  39.148  -6.998  1.00 25.99 LIG 0.06  C 
ENDBRANCH 19 21
ENDBRANCH 11 17
ENDBRANCH 8 11
ENDBRANCH 6 7
BRANCH 6 24
ATOM     24  CB  PHE P   4      30.160  32.566  -3.474  1.00 16.70 LIG 0.07  C 
BRANCH 24 25
ATOM     25  CG  PHE P   4      30.125  33.285  -2.140  1.00 15.87 LIG-0.06  A 
ATOM     26  CD2 PHE P   4      29.697  34.606  -2.062  1.00 14.31 LIG 0.01  A 
ATOM     27  CE2 PHE P   4      29.689  35.284  -0.843  1.00 14.76 LIG 0.00  A 
ATOM     28  CZ  PHE P   4      30.127  34.643   0.324  1.00 16.46 LIG 0.00  A 
ATOM     29  CE1 PHE P   4      30.553  33.321   0.259  1.00 16.70 LIG 0.00  A 
ATOM     30  CD1 PHE P   4      30.560  32.664  -0.977  1.00 16.73 LIG 0.01  A 
ENDBRANCH 24 25
ENDBRANCH 6 24
ENDBRANCH 3 6
ENDBRANCH 1 2
BRANCH 1 31
ATOM     31  C   ARG P   5      33.809  29.068  -6.773  1.00 16.50 LIG 0.24  C 
ATOM     32  N   HIS P   6      34.809  28.192  -6.719  1.00 17.02 LIG-0.35  N 
ATOM     33 H    HIS P   6      35.060  27.782  -6.006  1.00 17.02 LIG 0.16  HD
ATOM     34 O    ARG P   5      33.530  29.696  -7.802  1.00 15.68 LIG-0.27  OA
BRANCH 32 35
ATOM     35  CA  HIS P   6      35.576  27.860  -7.929  1.00 18.55 LIG 0.18  C 
BRANCH 35 36
ATOM     36  CB  HIS P   6      36.860  28.675  -8.002  1.00 17.94 LIG 0.10  C 
BRANCH 36 37
ATOM     37  CG  HIS P   6      36.756  29.937  -8.796  1.00 17.06 LIG 0.06  A 
ATOM     38 ND1  HIS P   6      37.597  31.009  -8.601  1.00 15.40 LIG-0.24  NA
ATOM     39  CE1 HIS P   6      37.246  31.996  -9.405  1.00 15.09 LIG 0.23  A 
ATOM     40 NE2  HIS P   6      36.209  31.601 -10.121  1.00 16.22 LIG-0.25  NA
ATOM     41  CD2 HIS P   6      35.879  30.315  -9.751  1.00 16.02 LIG 0.14  A 
ENDBRANCH 36 37
ENDBRANCH 35 36
BRANCH 35 42
ATOM     42  C   HIS P   6      35.976  26.410  -7.812  1.00 20.42 LIG 0.24  C 
ATOM     43 O    HIS P   6      36.521  25.860  -8.764  1.00 21.09 LIG-0.27  OA
ATOM     44  N   ASP P   7      35.712  25.763  -6.692  1.00 22.91 LIG-0.34  N 
ATOM     45 H    ASP P   7      35.289  26.077  -6.013  1.00 22.91 LIG 0.16  HD
BRANCH 44 46
ATOM     46  CA  ASP P   7      36.183  24.365  -6.580  1.00 24.36 LIG 0.19  C 
BRANCH 46 47
ATOM     47  C   ASP P   7      37.698  24.232  -6.495  1.00 26.16 LIG 0.24  C 
ATOM     48  N   SER P   8      38.176  23.516  -5.474  1.00 27.90 LIG-0.34  N 
ATOM     49 H    SER P   8      37.693  23.193  -4.840  1.00 27.90 LIG 0.16  HD
ATOM     50 O    ASP P   7      38.432  24.768  -7.317  1.00 26.07 LIG-0.27  OA
BRANCH 48 51
ATOM     51  CA  SER P   8      39.608  23.223  -5.367  1.00 28.60 LIG 0.21  C 
BRANCH 51 52
ATOM     52  CB  SER P   8      40.415  24.514  -5.486  1.00 29.65 LIG 0.20  C 
BRANCH 52 53
ATOM     53 OG   SER P   8      40.819  24.730  -6.828  1.00 30.91 LIG-0.40  OA
ATOM     54 HG   SER P   8      40.521  24.112  -7.313  1.00 30.91 LIG 0.21  HD
ENDBRANCH 52 53
ENDBRANCH 51 52
BRANCH 51 55
ATOM     55  C   SER P   8      39.965  22.437  -4.065  1.00 29.85 LIG 0.20  C 
ATOM     56 OXT  SER P   8      40.294  23.016  -3.021  1.00 30.94 LIG-0.65  OA
ATOM     57 O    SER P   8      39.991  21.200  -3.978  1.00 30.51 LIG-0.65  OA
ENDBRANCH 51 55
ENDBRANCH 48 51
ENDBRANCH 46 47
BRANCH 46 58
ATOM     58  CB  ASP P   7      35.612  23.515  -7.694  1.00 24.61 LIG 0.15  C 
BRANCH 58 59
ATOM     59  CG  ASP P   7      34.105  23.544  -7.700  1.00 26.42 LIG 0.17  C 
ATOM     60 OD2  ASP P   7      33.531  24.384  -8.404  1.00 29.83 LIG-0.65  OA
ATOM     61 OD1  ASP P   7      33.494  22.694  -7.007  1.00 30.09 LIG-0.65  OA
ENDBRANCH 58 59
ENDBRANCH 46 58
ENDBRANCH 44 46
ENDBRANCH 35 42
ENDBRANCH 32 35
ENDBRANCH 1 31
BRANCH 1 62
ATOM     62  CB  ARG P   5      31.772  28.347  -5.519  1.00 16.24 LIG 0.04  C 
BRANCH 62 63
ATOM     63  CG  ARG P   5      32.061  26.897  -5.856  1.00 15.73 LIG 0.02  C 
BRANCH 63 64
ATOM     64  CD  ARG P   5      32.815  26.249  -4.727  1.00 15.69 LIG 0.14  C 
BRANCH 64 65
ATOM     65  NE  ARG P   5      33.114  24.826  -4.941  1.00 15.25 LIG-0.23  N 
ATOM     66 HE   ARG P   5      32.695  24.406  -5.563  1.00 15.25 LIG 0.18  HD
ATOM     67  CZ  ARG P   5      34.009  24.161  -4.208  1.00 16.06 LIG 0.67  C 
ATOM     68  NH2 ARG P   5      34.238  22.865  -4.423  1.00 16.00 LIG-0.23  N 
ATOM     69  NH1 ARG P   5      34.656  24.785  -3.233  1.00 17.19 LIG-0.23  N 
ATOM     70 1HH2 ARG P   5      33.807  22.449  -5.040  1.00 16.00 LIG 0.17  HD
ATOM     71 2HH2 ARG P   5      34.817  22.445  -3.946  1.00 16.00 LIG 0.17  HD
ATOM     72 1HH1 ARG P   5      34.498  25.616  -3.075  1.00 17.19 LIG 0.17  HD
ATOM     73 2HH1 ARG P   5      35.234  24.360  -2.759  1.00 17.19 LIG 0.17  HD
ENDBRANCH 64 65
ENDBRANCH 63 64
ENDBRANCH 62 63
ENDBRANCH 1 62
TORSDOF 28
ENDMDL
MODEL 37
USER: ADFR SOLUTION from run 17
USER: SCORE 19.019503 LL:  -5.561 LR: -15.929 RR:   0.000 FEB:  -7.577
USER: RMSD 6.921361
USER: SEED 16
USER: STATUS searching
USER: GENES 30
USER: genes 0 Translation |==|  0.55858 0.53208 0.50539
USER: genes 1 Rotation |==|  0.66851 0.06823 0.40795 0.66344
USER: genes 2 Torsion [CB]-CA--N-[C] |==|  0.25286
USER: genes 3 Torsion [N]-C--CA-[N] |==|  0.20325
USER: genes 4 Torsion [C]-CA--N-[C] |==|  0.15341
USER: genes 5 Torsion [N]-C--CA-[N] |==|  0.89177
USER: genes 6 Torsion [C]-CA--CB-[CG] |==|  0.86075
USER: genes 7 Torsion [CA]-CB--CG-[CD] |==|  0.82625
USER: genes 8 Torsion [CB]-CG--CD-[OE1] |==|  0.35709
USER: genes 9 Torsion [C]-CA--N-[C] |==|  0.85511
USER: genes 10 Torsion [N]-C--CA-[N] |==|  0.76745
USER: genes 11 Torsion [C]-CA--CB-[CG] |==|  0.19386
USER: genes 12 Torsion [CA]-CB--CG-[CD2] |==|  0.05823
USER: genes 13 Torsion [N]-CA--C-[N] |==|  0.41370
USER: genes 14 Torsion [C]-N--CA-[CB] |==|  0.22765
USER: genes 15 Torsion [N]-CA--CB-[CG] |==|  0.14385
USER: genes 16 Torsion [CA]-CB--CG-[CD2] |==|  0.80955
USER: genes 17 Torsion [N]-CA--C-[N] |==|  0.95050
USER: genes 18 Torsion [C]-N--CA-[CB] |==|  0.82222
USER: genes 19 Torsion [N]-CA--C-[N] |==|  0.45454
USER: genes 20 Torsion [C]-N--CA-[CB] |==|  0.32051
USER: genes 21 Torsion [N]-CA--CB-[OG] |==|  0.06337
USER: genes 22 Torsion [CA]-CB--OG-[HG] |==|  0.05052
USER: genes 23 Torsion [N]-CA--C-[OXT] |==|  0.28871
USER: genes 24 Torsion [N]-CA--CB-[CG] |==|  0.65034
USER: genes 25 Torsion [CA]-CB--CG-[OD2] |==|  0.06306
USER: genes 26 Torsion [N]-CA--CB-[CG] |==|  0.33841
USER: genes 27 Torsion [CA]-CB--CG-[CD] |==|  0.28721
USER: genes 28 Torsion [CB]-CG--CD-[NE] |==|  0.13563
USER: genes 29 Torsion [CG]-CD--NE-[HE] |==|  0.68344
ROOT
ATOM      1  CA  ARG P   5      33.048  29.785  -6.496  1.00 16.30 LIG 0.18  C 
ENDROOT
BRANCH 1 2
ATOM      2  N   ARG P   5      33.094  31.116  -7.116  1.00 16.36 LIG-0.35  N 
ATOM      3  C   PHE P   4      33.703  32.125  -6.521  1.00 16.61 LIG 0.24  C 
ATOM      4 O    PHE P   4      34.342  32.006  -5.473  1.00 17.57 LIG-0.27  OA
ATOM      5 H    ARG P   5      32.700  31.171  -7.879  1.00 16.36 LIG 0.16  HD
BRANCH 3 6
ATOM      6  CA  PHE P   4      33.580  33.485  -7.208  1.00 17.34 LIG 0.18  C 
BRANCH 6 7
ATOM      7  N   PHE P   4      32.224  33.956  -6.997  1.00 18.03 LIG-0.35  N 
ATOM      8  C   GLU P   3      31.706  34.067  -5.773  1.00 20.04 LIG 0.24  C 
ATOM      9 O    GLU P   3      32.254  33.620  -4.778  1.00 20.03 LIG-0.27  OA
ATOM     10 H    PHE P   4      31.799  34.151  -7.719  1.00 18.03 LIG 0.16  HD
BRANCH 8 11
ATOM     11  CA  GLU P   3      30.351  34.768  -5.664  1.00 21.92 LIG 0.18  C 
BRANCH 11 12
ATOM     12  CB  GLU P   3      29.224  33.780  -5.967  1.00 22.70 LIG 0.04  C 
BRANCH 12 13
ATOM     13  CG  GLU P   3      29.456  33.016  -7.258  1.00 23.46 LIG 0.12  C 
BRANCH 13 14
ATOM     14  CD  GLU P   3      29.502  33.886  -8.494  1.00 23.38 LIG 0.17  C 
ATOM     15 OE1  GLU P   3      30.487  33.748  -9.257  1.00 24.20 LIG-0.65  OA
ATOM     16 OE2  GLU P   3      28.582  34.708  -8.690  1.00 25.77 LIG-0.65  OA
ENDBRANCH 13 14
ENDBRANCH 12 13
ENDBRANCH 11 12
BRANCH 11 17
ATOM     17  N   GLU P   3      30.332  35.897  -6.600  1.00 23.31 LIG-0.35  N 
ATOM     18 H    GLU P   3      29.656  35.913  -7.132  1.00 23.31 LIG 0.16  HD
ATOM     19  C   ALA P   2      31.302  36.803  -6.598  1.00 24.65 LIG 0.26  C 
ATOM     20 O    ALA P   2      32.120  36.895  -5.666  1.00 25.69 LIG-0.27  OA
BRANCH 19 21
ATOM     21  CA  ALA P   2      31.344  37.799  -7.771  1.00 24.82 LIG 0.40  C 
ATOM     22  N   ALA P   2      32.047  37.203  -8.934  1.00 26.06 LIG 0.61  N 
ATOM     23  CB  ALA P   2      29.927  38.237  -8.192  1.00 25.99 LIG 0.06  C 
ENDBRANCH 19 21
ENDBRANCH 11 17
ENDBRANCH 8 11
ENDBRANCH 6 7
BRANCH 6 24
ATOM     24  CB  PHE P   4      34.611  34.479  -6.632  1.00 16.70 LIG 0.07  C 
BRANCH 24 25
ATOM     25  CG  PHE P   4      36.047  34.164  -6.999  1.00 15.87 LIG-0.06  A 
ATOM     26  CD2 PHE P   4      36.335  33.366  -8.100  1.00 14.31 LIG 0.01  A 
ATOM     27  CE2 PHE P   4      37.654  33.048  -8.428  1.00 14.76 LIG 0.00  A 
ATOM     28  CZ  PHE P   4      38.710  33.520  -7.638  1.00 16.46 LIG 0.00  A 
ATOM     29  CE1 PHE P   4      38.435  34.323  -6.537  1.00 16.70 LIG 0.00  A 
ATOM     30  CD1 PHE P   4      37.104  34.622  -6.224  1.00 16.73 LIG 0.01  A 
ENDBRANCH 24 25
ENDBRANCH 6 24
ENDBRANCH 3 6
ENDBRANCH 1 2
BRANCH 1 31
ATOM     31  C   ARG P   5      33.074  28.659  -7.542  1.00 16.50 LIG 0.24  C 
ATOM     32  N   HIS P   6      33.655  27.518  -7.178  1.00 17.02 LIG-0.35  N 
ATOM     33 H    HIS P   6      34.066  27.397  -6.433  1.00 17.02 LIG 0.16  HD
ATOM     34 O    ARG P   5      32.561  28.817  -8.657  1.00 15.68 LIG-0.27  OA
BRANCH 32 35
ATOM     35  CA  HIS P   6      33.627  26.349  -8.069  1.00 18.55 LIG 0.18  C 
BRANCH 35 36
ATOM     36  CB  HIS P   6      34.717  26.444  -9.129  1.00 17.94 LIG 0.10  C 
BRANCH 36 37
ATOM     37  CG  HIS P   6      36.087  26.707  -8.595  1.00 17.06 LIG 0.06  A 
ATOM     38 ND1  HIS P   6      37.078  25.752  -8.590  1.00 15.40 LIG-0.24  NA
ATOM     39  CE1 HIS P   6      38.163  26.246  -8.021  1.00 15.09 LIG 0.23  A 
ATOM     40 NE2  HIS P   6      37.913  27.491  -7.660  1.00 16.22 LIG-0.25  NA
ATOM     41  CD2 HIS P   6      36.615  27.800  -8.004  1.00 16.02 LIG 0.14  A 
ENDBRANCH 36 37
ENDBRANCH 35 36
BRANCH 35 42
ATOM     42  C   HIS P   6      33.936  25.142  -7.220  1.00 20.42 LIG 0.24  C 
ATOM     43 O    HIS P   6      33.640  24.026  -7.635  1.00 21.09 LIG-0.27  OA
ATOM     44  N   ASP P   7      34.503  25.318  -6.041  1.00 22.91 LIG-0.34  N 
ATOM     45 H    ASP P   7      34.686  26.074  -5.675  1.00 22.91 LIG 0.16  HD
BRANCH 44 46
ATOM     46  CA  ASP P   7      34.862  24.111  -5.265  1.00 24.36 LIG 0.19  C 
BRANCH 46 47
ATOM     47  C   ASP P   7      35.899  23.228  -5.946  1.00 26.16 LIG 0.24  C 
ATOM     48  N   SER P   8      36.510  22.325  -5.176  1.00 27.90 LIG-0.34  N 
ATOM     49 H    SER P   8      36.405  22.261  -4.325  1.00 27.90 LIG 0.16  HD
ATOM     50 O    ASP P   7      36.161  23.355  -7.137  1.00 26.07 LIG-0.27  OA
BRANCH 48 51
ATOM     51  CA  SER P   8      37.434  21.344  -5.756  1.00 28.60 LIG 0.21  C 
BRANCH 51 52
ATOM     52  CB  SER P   8      38.846  21.579  -5.221  1.00 29.65 LIG 0.20  C 
BRANCH 52 53
ATOM     53 OG   SER P   8      38.804  22.273  -3.986  1.00 30.91 LIG-0.40  OA
ATOM     54 HG   SER P   8      38.035  22.210  -3.655  1.00 30.91 LIG 0.21  HD
ENDBRANCH 52 53
ENDBRANCH 51 52
BRANCH 51 55
ATOM     55  C   SER P   8      36.968  19.871  -5.529  1.00 29.85 LIG 0.20  C 
ATOM     56 OXT  SER P   8      36.457  19.200  -6.435  1.00 30.94 LIG-0.65  OA
ATOM     57 O    SER P   8      37.028  19.277  -4.441  1.00 30.51 LIG-0.65  OA
ENDBRANCH 51 55
ENDBRANCH 48 51
ENDBRANCH 46 47
BRANCH 46 58
ATOM     58  CB  ASP P   7      33.624  23.326  -4.889  1.00 24.61 LIG 0.15  C 
BRANCH 58 59
ATOM     59  CG  ASP P   7      33.553  23.077  -3.404  1.00 26.42 LIG 0.17  C 
ATOM     60 OD2  ASP P   7      34.176  23.829  -2.645  1.00 29.83 LIG-0.65  OA
ATOM     61 OD1  ASP P   7      32.840  22.126  -2.997  1.00 30.09 LIG-0.65  OA
ENDBRANCH 58 59
ENDBRANCH 46 58
ENDBRANCH 44 46
ENDBRANCH 35 42
ENDBRANCH 32 35
ENDBRANCH 1 31
BRANCH 1 62
ATOM     62  CB  ARG P   5      31.797  29.660  -5.642  1.00 16.24 LIG 0.04  C 
BRANCH 62 63
ATOM     63  CG  ARG P   5      30.868  28.524  -6.021  1.00 15.73 LIG 0.02  C 
BRANCH 63 64
ATOM     64  CD  ARG P   5      31.022  27.390  -5.045  1.00 15.69 LIG 0.14  C 
BRANCH 64 65
ATOM     65  NE  ARG P   5      30.967  27.798  -3.634  1.00 15.25 LIG-0.23  N 
ATOM     66 HE   ARG P   5      31.674  27.713  -3.153  1.00 15.25 LIG 0.18  HD
ATOM     67  CZ  ARG P   5      29.864  28.294  -3.072  1.00 16.06 LIG 0.67  C 
ATOM     68  NH2 ARG P   5      29.851  28.636  -1.782  1.00 16.00 LIG-0.23  N 
ATOM     69  NH1 ARG P   5      28.757  28.420  -3.791  1.00 17.19 LIG-0.23  N 
ATOM     70 1HH2 ARG P   5      30.559  28.537  -1.305  1.00 16.00 LIG 0.17  HD
ATOM     71 2HH2 ARG P   5      29.135  28.955  -1.428  1.00 16.00 LIG 0.17  HD
ATOM     72 1HH1 ARG P   5      28.751  28.181  -4.617  1.00 17.19 LIG 0.17  HD
ATOM     73 2HH1 ARG P   5      28.044  28.740  -3.431  1.00 17.19 LIG 0.17  HD
ENDBRANCH 64 65
ENDBRANCH 63 64
ENDBRANCH 62 63
ENDBRANCH 1 62
TORSDOF 28
ENDMDL
MODEL 38
USER: ADFR SOLUTION from run 59
USER: SCORE 18.531388 LL:  -5.482 LR: -15.931 RR:   0.000 FEB:  -7.579
USER: RMSD 7.119014
USER: SEED 58
USER: STATUS searching
USER: GENES 30
USER: genes 0 Translation |==|  0.55535 0.49951 0.53455
USER: genes 1 Rotation |==|  0.22820 0.90427 0.60525 0.54017
USER: genes 2 Torsion [CB]-CA--N-[C] |==|  0.25071
USER: genes 3 Torsion [N]-C--CA-[N] |==|  0.95254
USER: genes 4 Torsion [C]-CA--N-[C] |==|  0.78136
USER: genes 5 Torsion [N]-C--CA-[N] |==|  0.15651
USER: genes 6 Torsion [C]-CA--CB-[CG] |==|  0.39520
USER: genes 7 Torsion [CA]-CB--CG-[CD] |==|  0.04312
USER: genes 8 Torsion [CB]-CG--CD-[OE1] |==|  0.24487
USER: genes 9 Torsion [C]-CA--N-[C] |==|  0.74973
USER: genes 10 Torsion [N]-C--CA-[N] |==|  0.15246
USER: genes 11 Torsion [C]-CA--CB-[CG] |==|  0.28740
USER: genes 12 Torsion [CA]-CB--CG-[CD2] |==|  0.80958
USER: genes 13 Torsion [N]-CA--C-[N] |==|  0.39468
USER: genes 14 Torsion [C]-N--CA-[CB] |==|  0.20265
USER: genes 15 Torsion [N]-CA--CB-[CG] |==|  0.42649
USER: genes 16 Torsion [CA]-CB--CG-[CD2] |==|  0.22972
USER: genes 17 Torsion [N]-CA--C-[N] |==|  0.31690
USER: genes 18 Torsion [C]-N--CA-[CB] |==|  0.78235
USER: genes 19 Torsion [N]-CA--C-[N] |==|  0.16667
USER: genes 20 Torsion [C]-N--CA-[CB] |==|  0.32712
USER: genes 21 Torsion [N]-CA--CB-[OG] |==|  0.03524
USER: genes 22 Torsion [CA]-CB--OG-[HG] |==|  0.25222
USER: genes 23 Torsion [N]-CA--C-[OXT] |==|  0.55797
USER: genes 24 Torsion [N]-CA--CB-[CG] |==|  0.86168
USER: genes 25 Torsion [CA]-CB--CG-[OD2] |==|  0.42477
USER: genes 26 Torsion [N]-CA--CB-[CG] |==|  0.62154
USER: genes 27 Torsion [CA]-CB--CG-[CD] |==|  0.28393
USER: genes 28 Torsion [CB]-CG--CD-[NE] |==|  0.76561
USER: genes 29 Torsion [CG]-CD--NE-[HE] |==|  0.90263
ROOT
ATOM      1  CA  ARG P   5      32.973  29.003  -5.927  1.00 16.30 LIG 0.18  C 
ENDROOT
BRANCH 1 2
ATOM      2  N   ARG P   5      32.876  30.466  -5.826  1.00 16.36 LIG-0.35  N 
ATOM      3  C   PHE P   4      32.561  31.051  -4.684  1.00 16.61 LIG 0.24  C 
ATOM      4 O    PHE P   4      32.422  30.435  -3.625  1.00 17.57 LIG-0.27  OA
ATOM      5 H    ARG P   5      33.039  30.889  -6.557  1.00 16.36 LIG 0.16  HD
BRANCH 3 6
ATOM      6  CA  PHE P   4      32.375  32.567  -4.734  1.00 17.34 LIG 0.18  C 
BRANCH 6 7
ATOM      7  N   PHE P   4      32.990  33.038  -5.961  1.00 18.03 LIG-0.35  N 
ATOM      8  C   GLU P   3      34.311  33.193  -6.065  1.00 20.04 LIG 0.24  C 
ATOM      9 O    GLU P   3      35.064  33.128  -5.107  1.00 20.03 LIG-0.27  OA
ATOM     10 H    PHE P   4      32.434  33.203  -6.597  1.00 18.03 LIG 0.16  HD
BRANCH 8 11
ATOM     11  CA  GLU P   3      34.857  33.492  -7.463  1.00 21.92 LIG 0.18  C 
BRANCH 11 12
ATOM     12  CB  GLU P   3      36.373  33.683  -7.404  1.00 22.70 LIG 0.04  C 
BRANCH 12 13
ATOM     13  CG  GLU P   3      37.076  33.095  -8.613  1.00 23.46 LIG 0.12  C 
BRANCH 13 14
ATOM     14  CD  GLU P   3      36.160  32.787  -9.776  1.00 23.38 LIG 0.17  C 
ATOM     15 OE1  GLU P   3      35.949  33.707 -10.600  1.00 24.20 LIG-0.65  OA
ATOM     16 OE2  GLU P   3      35.642  31.653  -9.853  1.00 25.77 LIG-0.65  OA
ENDBRANCH 13 14
ENDBRANCH 12 13
ENDBRANCH 11 12
BRANCH 11 17
ATOM     17  N   GLU P   3      34.191  34.694  -7.977  1.00 23.31 LIG-0.35  N 
ATOM     18 H    GLU P   3      34.587  35.434  -7.787  1.00 23.31 LIG 0.16  HD
ATOM     19  C   ALA P   2      33.066  34.606  -8.676  1.00 24.65 LIG 0.26  C 
ATOM     20 O    ALA P   2      32.660  33.528  -9.144  1.00 25.69 LIG-0.27  OA
BRANCH 19 21
ATOM     21  CA  ALA P   2      32.300  35.912  -8.952  1.00 24.82 LIG 0.40  C 
ATOM     22  N   ALA P   2      33.186  36.905  -9.609  1.00 26.06 LIG 0.61  N 
ATOM     23  CB  ALA P   2      31.059  35.664  -9.832  1.00 25.99 LIG 0.06  C 
ENDBRANCH 19 21
ENDBRANCH 11 17
ENDBRANCH 8 11
ENDBRANCH 6 7
BRANCH 6 24
ATOM     24  CB  PHE P   4      30.876  32.931  -4.688  1.00 16.70 LIG 0.07  C 
BRANCH 24 25
ATOM     25  CG  PHE P   4      30.404  33.442  -3.341  1.00 15.87 LIG-0.06  A 
ATOM     26  CD2 PHE P   4      30.346  32.589  -2.244  1.00 14.31 LIG 0.01  A 
ATOM     27  CE2 PHE P   4      29.885  33.044  -1.008  1.00 14.76 LIG 0.00  A 
ATOM     28  CZ  PHE P   4      29.460  34.370  -0.859  1.00 16.46 LIG 0.00  A 
ATOM     29  CE1 PHE P   4      29.519  35.234  -1.947  1.00 16.70 LIG 0.00  A 
ATOM     30  CD1 PHE P   4      29.977  34.753  -3.179  1.00 16.73 LIG 0.01  A 
ENDBRANCH 24 25
ENDBRANCH 6 24
ENDBRANCH 3 6
ENDBRANCH 1 2
BRANCH 1 31
ATOM     31  C   ARG P   5      34.036  28.565  -6.948  1.00 16.50 LIG 0.24  C 
ATOM     32  N   HIS P   6      34.758  27.492  -6.635  1.00 17.02 LIG-0.35  N 
ATOM     33 H    HIS P   6      34.714  27.077  -5.883  1.00 17.02 LIG 0.16  HD
ATOM     34 O    ARG P   5      34.188  29.182  -8.009  1.00 15.68 LIG-0.27  OA
BRANCH 32 35
ATOM     35  CA  HIS P   6      35.718  26.932  -7.597  1.00 18.55 LIG 0.18  C 
BRANCH 35 36
ATOM     36  CB  HIS P   6      36.946  27.823  -7.726  1.00 17.94 LIG 0.10  C 
BRANCH 36 37
ATOM     37  CG  HIS P   6      38.192  27.114  -8.145  1.00 17.06 LIG 0.06  A 
ATOM     38 ND1  HIS P   6      39.171  26.741  -7.252  1.00 15.40 LIG-0.24  NA
ATOM     39  CE1 HIS P   6      40.171  26.177  -7.904  1.00 15.09 LIG 0.23  A 
ATOM     40 NE2  HIS P   6      39.874  26.164  -9.191  1.00 16.22 LIG-0.25  NA
ATOM     41  CD2 HIS P   6      38.641  26.753  -9.367  1.00 16.02 LIG 0.14  A 
ENDBRANCH 36 37
ENDBRANCH 35 36
BRANCH 35 42
ATOM     42  C   HIS P   6      36.184  25.612  -7.036  1.00 20.42 LIG 0.24  C 
ATOM     43 O    HIS P   6      36.857  25.601  -6.010  1.00 21.09 LIG-0.27  OA
ATOM     44  N   ASP P   7      35.871  24.499  -7.673  1.00 22.91 LIG-0.34  N 
ATOM     45 H    ASP P   7      35.448  24.446  -8.420  1.00 22.91 LIG 0.16  HD
BRANCH 44 46
ATOM     46  CA  ASP P   7      36.278  23.218  -7.058  1.00 24.36 LIG 0.19  C 
BRANCH 46 47
ATOM     47  C   ASP P   7      35.925  23.105  -5.581  1.00 26.16 LIG 0.24  C 
ATOM     48  N   SER P   8      34.630  23.196  -5.270  1.00 27.90 LIG-0.34  N 
ATOM     49 H    SER P   8      34.007  23.380  -5.833  1.00 27.90 LIG 0.16  HD
ATOM     50 O    ASP P   7      36.792  22.952  -4.728  1.00 26.07 LIG-0.27  OA
BRANCH 48 51
ATOM     51  CA  SER P   8      34.170  22.980  -3.894  1.00 28.60 LIG 0.21  C 
BRANCH 51 52
ATOM     52  CB  SER P   8      33.522  24.253  -3.354  1.00 29.65 LIG 0.20  C 
BRANCH 52 53
ATOM     53 OG   SER P   8      33.283  25.177  -4.403  1.00 30.91 LIG-0.40  OA
ATOM     54 HG   SER P   8      32.515  25.051  -4.719  1.00 30.91 LIG 0.21  HD
ENDBRANCH 52 53
ENDBRANCH 51 52
BRANCH 51 55
ATOM     55  C   SER P   8      33.219  21.748  -3.765  1.00 29.85 LIG 0.20  C 
ATOM     56 OXT  SER P   8      32.441  21.620  -2.811  1.00 30.94 LIG-0.65  OA
ATOM     57 O    SER P   8      33.190  20.798  -4.563  1.00 30.51 LIG-0.65  OA
ENDBRANCH 51 55
ENDBRANCH 48 51
ENDBRANCH 46 47
BRANCH 46 58
ATOM     58  CB  ASP P   7      37.747  22.947  -7.301  1.00 24.61 LIG 0.15  C 
BRANCH 58 59
ATOM     59  CG  ASP P   7      38.110  23.112  -8.755  1.00 26.42 LIG 0.17  C 
ATOM     60 OD2  ASP P   7      39.271  23.426  -9.045  1.00 29.83 LIG-0.65  OA
ATOM     61 OD1  ASP P   7      37.220  22.895  -9.614  1.00 30.09 LIG-0.65  OA
ENDBRANCH 58 59
ENDBRANCH 46 58
ENDBRANCH 44 46
ENDBRANCH 35 42
ENDBRANCH 32 35
ENDBRANCH 1 31
BRANCH 1 62
ATOM     62  CB  ARG P   5      31.623  28.425  -6.316  1.00 16.24 LIG 0.04  C 
BRANCH 62 63
ATOM     63  CG  ARG P   5      31.204  27.188  -5.547  1.00 15.73 LIG 0.02  C 
BRANCH 63 64
ATOM     64  CD  ARG P   5      30.193  27.557  -4.496  1.00 15.69 LIG 0.14  C 
BRANCH 64 65
ATOM     65  NE  ARG P   5      30.780  28.040  -3.239  1.00 15.25 LIG-0.23  N 
ATOM     66 HE   ARG P   5      31.520  27.695  -2.970  1.00 15.25 LIG 0.18  HD
ATOM     67  CZ  ARG P   5      30.210  28.993  -2.498  1.00 16.06 LIG 0.67  C 
ATOM     68  NH2 ARG P   5      30.767  29.390  -1.353  1.00 16.00 LIG-0.23  N 
ATOM     69  NH1 ARG P   5      29.061  29.528  -2.885  1.00 17.19 LIG-0.23  N 
ATOM     70 1HH2 ARG P   5      31.501  29.032  -1.085  1.00 16.00 LIG 0.17  HD
ATOM     71 2HH2 ARG P   5      30.393  30.005  -0.882  1.00 16.00 LIG 0.17  HD
ATOM     72 1HH1 ARG P   5      28.685  29.262  -3.611  1.00 17.19 LIG 0.17  HD
ATOM     73 2HH1 ARG P   5      28.691  30.143  -2.410  1.00 17.19 LIG 0.17  HD
ENDBRANCH 64 65
ENDBRANCH 63 64
ENDBRANCH 62 63
ENDBRANCH 1 62
TORSDOF 28
ENDMDL
MODEL 39
USER: ADFR SOLUTION from run 59
USER: SCORE 19.198073 LL:  -5.335 LR: -15.927 RR:   0.000 FEB:  -7.574
USER: RMSD 8.388960
USER: SEED 58
USER: STATUS searching
USER: GENES 30
USER: genes 0 Translation |==|  0.60197 0.53495 0.51860
USER: genes 1 Rotation |==|  0.74897 0.07119 0.44829 0.53821
USER: genes 2 Torsion [CB]-CA--N-[C] |==|  0.21593
USER: genes 3 Torsion [N]-C--CA-[N] |==|  0.89921
USER: genes 4 Torsion [C]-CA--N-[C] |==|  0.78623
USER: genes 5 Torsion [N]-C--CA-[N] |==|  0.29051
USER: genes 6 Torsion [C]-CA--CB-[CG] |==|  0.53288
USER: genes 7 Torsion [CA]-CB--CG-[CD] |==|  0.88972
USER: genes 8 Torsion [CB]-CG--CD-[OE1] |==|  0.33031
USER: genes 9 Torsion [C]-CA--N-[C] |==|  0.73997
USER: genes 10 Torsion [N]-C--CA-[N] |==|  0.18345
USER: genes 11 Torsion [C]-CA--CB-[CG] |==|  0.12025
USER: genes 12 Torsion [CA]-CB--CG-[CD2] |==|  0.19616
USER: genes 13 Torsion [N]-CA--C-[N] |==|  0.47562
USER: genes 14 Torsion [C]-N--CA-[CB] |==|  0.22359
USER: genes 15 Torsion [N]-CA--CB-[CG] |==|  0.39755
USER: genes 16 Torsion [CA]-CB--CG-[CD2] |==|  0.68525
USER: genes 17 Torsion [N]-CA--C-[N] |==|  0.86279
USER: genes 18 Torsion [C]-N--CA-[CB] |==|  0.82879
USER: genes 19 Torsion [N]-CA--C-[N] |==|  0.33655
USER: genes 20 Torsion [C]-N--CA-[CB] |==|  0.39360
USER: genes 21 Torsion [N]-CA--CB-[OG] |==|  0.01963
USER: genes 22 Torsion [CA]-CB--OG-[HG] |==|  0.19558
USER: genes 23 Torsion [N]-CA--C-[OXT] |==|  0.88665
USER: genes 24 Torsion [N]-CA--CB-[CG] |==|  0.60172
USER: genes 25 Torsion [CA]-CB--CG-[OD2] |==|  0.72432
USER: genes 26 Torsion [N]-CA--CB-[CG] |==|  0.55023
USER: genes 27 Torsion [CA]-CB--CG-[CD] |==|  0.43933
USER: genes 28 Torsion [CB]-CG--CD-[NE] |==|  0.68225
USER: genes 29 Torsion [CG]-CD--NE-[HE] |==|  0.90697
ROOT
ATOM      1  CA  ARG P   5      34.057  29.854  -6.238  1.00 16.30 LIG 0.18  C 
ENDROOT
BRANCH 1 2
ATOM      2  N   ARG P   5      34.049  31.264  -6.651  1.00 16.36 LIG-0.35  N 
ATOM      3  C   PHE P   4      33.723  32.222  -5.801  1.00 16.61 LIG 0.24  C 
ATOM      4 O    PHE P   4      33.502  32.017  -4.606  1.00 17.57 LIG-0.27  OA
ATOM      5 H    ARG P   5      34.269  31.399  -7.471  1.00 16.36 LIG 0.16  HD
BRANCH 3 6
ATOM      6  CA  PHE P   4      33.636  33.633  -6.380  1.00 17.34 LIG 0.18  C 
BRANCH 6 7
ATOM      7  N   PHE P   4      34.679  33.756  -7.382  1.00 18.03 LIG-0.35  N 
ATOM      8  C   GLU P   3      35.957  33.935  -7.040  1.00 20.04 LIG 0.24  C 
ATOM      9 O    GLU P   3      36.310  34.186  -5.899  1.00 20.03 LIG-0.27  OA
ATOM     10 H    PHE P   4      34.401  33.703  -8.194  1.00 18.03 LIG 0.16  HD
BRANCH 8 11
ATOM     11  CA  GLU P   3      36.986  33.840  -8.168  1.00 21.92 LIG 0.18  C 
BRANCH 11 12
ATOM     12  CB  GLU P   3      38.161  32.964  -7.734  1.00 22.70 LIG 0.04  C 
BRANCH 12 13
ATOM     13  CG  GLU P   3      39.338  33.062  -8.687  1.00 23.46 LIG 0.12  C 
BRANCH 13 14
ATOM     14  CD  GLU P   3      38.952  33.119 -10.148  1.00 23.38 LIG 0.17  C 
ATOM     15 OE1  GLU P   3      39.284  34.144 -10.790  1.00 24.20 LIG-0.65  OA
ATOM     16 OE2  GLU P   3      38.309  32.168 -10.641  1.00 25.77 LIG-0.65  OA
ENDBRANCH 13 14
ENDBRANCH 12 13
ENDBRANCH 11 12
BRANCH 11 17
ATOM     17  N   GLU P   3      37.432  35.196  -8.508  1.00 23.31 LIG-0.35  N 
ATOM     18 H    GLU P   3      38.084  35.490  -8.031  1.00 23.31 LIG 0.16  HD
ATOM     19  C   ALA P   2      36.850  35.882  -9.484  1.00 24.65 LIG 0.26  C 
ATOM     20 O    ALA P   2      36.094  35.345 -10.312  1.00 25.69 LIG-0.27  OA
BRANCH 19 21
ATOM     21  CA  ALA P   2      37.199  37.377  -9.604  1.00 24.82 LIG 0.40  C 
ATOM     22  N   ALA P   2      38.625  37.549  -9.976  1.00 26.06 LIG 0.61  N 
ATOM     23  CB  ALA P   2      36.304  38.084 -10.640  1.00 25.99 LIG 0.06  C 
ENDBRANCH 19 21
ENDBRANCH 11 17
ENDBRANCH 8 11
ENDBRANCH 6 7
BRANCH 6 24
ATOM     24  CB  PHE P   4      32.243  33.882  -6.996  1.00 16.70 LIG 0.07  C 
BRANCH 24 25
ATOM     25  CG  PHE P   4      31.093  33.373  -6.150  1.00 15.87 LIG-0.06  A 
ATOM     26  CD2 PHE P   4      30.761  34.004  -4.956  1.00 14.31 LIG 0.01  A 
ATOM     27  CE2 PHE P   4      29.723  33.524  -4.158  1.00 14.76 LIG 0.00  A 
ATOM     28  CZ  PHE P   4      29.005  32.384  -4.544  1.00 16.46 LIG 0.00  A 
ATOM     29  CE1 PHE P   4      29.324  31.747  -5.738  1.00 16.70 LIG 0.00  A 
ATOM     30  CD1 PHE P   4      30.375  32.242  -6.518  1.00 16.73 LIG 0.01  A 
ENDBRANCH 24 25
ENDBRANCH 6 24
ENDBRANCH 3 6
ENDBRANCH 1 2
BRANCH 1 31
ATOM     31  C   ARG P   5      34.903  28.981  -7.180  1.00 16.50 LIG 0.24  C 
ATOM     32  N   HIS P   6      35.123  27.727  -6.795  1.00 17.02 LIG-0.35  N 
ATOM     33 H    HIS P   6      34.882  27.400  -6.038  1.00 17.02 LIG 0.16  HD
ATOM     34 O    ARG P   5      35.337  29.436  -8.245  1.00 15.68 LIG-0.27  OA
BRANCH 32 35
ATOM     35  CA  HIS P   6      35.823  26.787  -7.682  1.00 18.55 LIG 0.18  C 
BRANCH 35 36
ATOM     36  CB  HIS P   6      37.331  26.992  -7.616  1.00 17.94 LIG 0.10  C 
BRANCH 36 37
ATOM     37  CG  HIS P   6      38.137  25.737  -7.700  1.00 17.06 LIG 0.06  A 
ATOM     38 ND1  HIS P   6      38.142  24.931  -8.815  1.00 15.40 LIG-0.24  NA
ATOM     39  CE1 HIS P   6      38.903  23.874  -8.592  1.00 15.09 LIG 0.23  A 
ATOM     40 NE2  HIS P   6      39.398  23.968  -7.371  1.00 16.22 LIG-0.25  NA
ATOM     41  CD2 HIS P   6      38.925  25.125  -6.790  1.00 16.02 LIG 0.14  A 
ENDBRANCH 36 37
ENDBRANCH 35 36
BRANCH 35 42
ATOM     42  C   HIS P   6      35.541  25.399  -7.163  1.00 20.42 LIG 0.24  C 
ATOM     43 O    HIS P   6      35.140  24.538  -7.940  1.00 21.09 LIG-0.27  OA
ATOM     44  N   ASP P   7      35.715  25.149  -5.878  1.00 22.91 LIG-0.34  N 
ATOM     45 H    ASP P   7      35.943  25.721  -5.278  1.00 22.91 LIG 0.16  HD
BRANCH 44 46
ATOM     46  CA  ASP P   7      35.501  23.761  -5.414  1.00 24.36 LIG 0.19  C 
BRANCH 46 47
ATOM     47  C   ASP P   7      36.499  22.762  -5.985  1.00 26.16 LIG 0.24  C 
ATOM     48  N   SER P   8      37.236  22.086  -5.101  1.00 27.90 LIG-0.34  N 
ATOM     49 H    SER P   8      37.230  22.228  -4.253  1.00 27.90 LIG 0.16  HD
ATOM     50 O    ASP P   7      36.620  22.603  -7.194  1.00 26.07 LIG-0.27  OA
BRANCH 48 51
ATOM     51  CA  SER P   8      38.137  21.014  -5.537  1.00 28.60 LIG 0.21  C 
BRANCH 51 52
ATOM     52  CB  SER P   8      39.427  21.052  -4.718  1.00 29.65 LIG 0.20  C 
BRANCH 52 53
ATOM     53 OG   SER P   8      39.325  21.998  -3.668  1.00 30.91 LIG-0.40  OA
ATOM     54 HG   SER P   8      38.788  21.716  -3.087  1.00 30.91 LIG 0.21  HD
ENDBRANCH 52 53
ENDBRANCH 51 52
BRANCH 51 55
ATOM     55  C   SER P   8      37.464  19.606  -5.489  1.00 29.85 LIG 0.20  C 
ATOM     56 OXT  SER P   8      36.725  19.265  -4.556  1.00 30.94 LIG-0.65  OA
ATOM     57 O    SER P   8      37.640  18.716  -6.337  1.00 30.51 LIG-0.65  OA
ENDBRANCH 51 55
ENDBRANCH 48 51
ENDBRANCH 46 47
BRANCH 46 58
ATOM     58  CB  ASP P   7      34.073  23.325  -5.661  1.00 24.61 LIG 0.15  C 
BRANCH 58 59
ATOM     59  CG  ASP P   7      33.561  22.445  -4.550  1.00 26.42 LIG 0.17  C 
ATOM     60 OD2  ASP P   7      33.560  21.219  -4.715  1.00 29.83 LIG-0.65  OA
ATOM     61 OD1  ASP P   7      33.179  22.996  -3.487  1.00 30.09 LIG-0.65  OA
ENDBRANCH 58 59
ENDBRANCH 46 58
ENDBRANCH 44 46
ENDBRANCH 35 42
ENDBRANCH 32 35
ENDBRANCH 1 31
BRANCH 1 62
ATOM     62  CB  ARG P   5      32.633  29.324  -6.193  1.00 16.24 LIG 0.04  C 
BRANCH 62 63
ATOM     63  CG  ARG P   5      32.443  28.052  -5.391  1.00 15.73 LIG 0.02  C 
BRANCH 63 64
ATOM     64  CD  ARG P   5      31.004  27.921  -4.973  1.00 15.69 LIG 0.14  C 
BRANCH 64 65
ATOM     65  NE  ARG P   5      30.789  28.004  -3.521  1.00 15.25 LIG-0.23  N 
ATOM     66 HE   ARG P   5      31.393  27.690  -2.996  1.00 15.25 LIG 0.18  HD
ATOM     67  CZ  ARG P   5      29.693  28.546  -2.986  1.00 16.06 LIG 0.67  C 
ATOM     68  NH2 ARG P   5      29.529  28.585  -1.663  1.00 16.00 LIG-0.23  N 
ATOM     69  NH1 ARG P   5      28.741  29.023  -3.777  1.00 17.19 LIG-0.23  N 
ATOM     70 1HH2 ARG P   5      30.133  28.259  -1.146  1.00 16.00 LIG 0.17  HD
ATOM     71 2HH2 ARG P   5      28.819  28.937  -1.328  1.00 16.00 LIG 0.17  HD
ATOM     72 1HH1 ARG P   5      28.831  28.981  -4.631  1.00 17.19 LIG 0.17  HD
ATOM     73 2HH1 ARG P   5      28.034  29.373  -3.435  1.00 17.19 LIG 0.17  HD
ENDBRANCH 64 65
ENDBRANCH 63 64
ENDBRANCH 62 63
ENDBRANCH 1 62
TORSDOF 28
ENDMDL
MODEL 40
USER: ADFR SOLUTION from run 147
USER: SCORE 20.866212 LL:  -6.726 LR: -15.919 RR:   0.000 FEB:  -7.566
USER: RMSD 7.180542
USER: SEED 146
USER: STATUS searching
USER: GENES 30
USER: genes 0 Translation |==|  0.53467 0.45711 0.60993
USER: genes 1 Rotation |==|  0.72017 0.07984 0.37175 0.59242
USER: genes 2 Torsion [CB]-CA--N-[C] |==|  0.16470
USER: genes 3 Torsion [N]-C--CA-[N] |==|  0.97353
USER: genes 4 Torsion [C]-CA--N-[C] |==|  0.73592
USER: genes 5 Torsion [N]-C--CA-[N] |==|  0.47220
USER: genes 6 Torsion [C]-CA--CB-[CG] |==|  0.31938
USER: genes 7 Torsion [CA]-CB--CG-[CD] |==|  0.81644
USER: genes 8 Torsion [CB]-CG--CD-[OE1] |==|  0.71132
USER: genes 9 Torsion [C]-CA--N-[C] |==|  0.75229
USER: genes 10 Torsion [N]-C--CA-[N] |==|  0.47264
USER: genes 11 Torsion [C]-CA--CB-[CG] |==|  0.28967
USER: genes 12 Torsion [CA]-CB--CG-[CD2] |==|  0.83001
USER: genes 13 Torsion [N]-CA--C-[N] |==|  0.14688
USER: genes 14 Torsion [C]-N--CA-[CB] |==|  0.46112
USER: genes 15 Torsion [N]-CA--CB-[CG] |==|  0.35113
USER: genes 16 Torsion [CA]-CB--CG-[CD2] |==|  0.71954
USER: genes 17 Torsion [N]-CA--C-[N] |==|  0.37037
USER: genes 18 Torsion [C]-N--CA-[CB] |==|  0.76983
USER: genes 19 Torsion [N]-CA--C-[N] |==|  0.20068
USER: genes 20 Torsion [C]-N--CA-[CB] |==|  0.25761
USER: genes 21 Torsion [N]-CA--CB-[OG] |==|  0.87567
USER: genes 22 Torsion [CA]-CB--OG-[HG] |==|  0.49101
USER: genes 23 Torsion [N]-CA--C-[OXT] |==|  0.63993
USER: genes 24 Torsion [N]-CA--CB-[CG] |==|  0.68833
USER: genes 25 Torsion [CA]-CB--CG-[OD2] |==|  0.16028
USER: genes 26 Torsion [N]-CA--CB-[CG] |==|  0.13688
USER: genes 27 Torsion [CA]-CB--CG-[CD] |==|  0.69828
USER: genes 28 Torsion [CB]-CG--CD-[NE] |==|  0.47312
USER: genes 29 Torsion [CG]-CD--NE-[HE] |==|  0.33441
ROOT
ATOM      1  CA  ARG P   5      32.492  27.986  -4.457  1.00 16.30 LIG 0.18  C 
ENDROOT
BRANCH 1 2
ATOM      2  N   ARG P   5      32.495  29.442  -4.651  1.00 16.36 LIG-0.35  N 
ATOM      3  C   PHE P   4      32.222  30.264  -3.653  1.00 16.61 LIG 0.24  C 
ATOM      4 O    PHE P   4      32.042  29.882  -2.494  1.00 17.57 LIG-0.27  OA
ATOM      5 H    ARG P   5      32.686  29.698  -5.450  1.00 16.36 LIG 0.16  HD
BRANCH 3 6
ATOM      6  CA  PHE P   4      32.140  31.748  -4.007  1.00 17.34 LIG 0.18  C 
BRANCH 6 7
ATOM      7  N   PHE P   4      32.620  31.895  -5.369  1.00 18.03 LIG-0.35  N 
ATOM      8  C   GLU P   3      33.888  32.216  -5.631  1.00 20.04 LIG 0.24  C 
ATOM      9 O    GLU P   3      34.673  32.579  -4.769  1.00 20.03 LIG-0.27  OA
ATOM     10 H    PHE P   4      32.023  31.759  -5.973  1.00 18.03 LIG 0.16  HD
BRANCH 8 11
ATOM     11  CA  GLU P   3      34.325  32.138  -7.095  1.00 21.92 LIG 0.18  C 
BRANCH 11 12
ATOM     12  CB  GLU P   3      34.338  30.681  -7.561  1.00 22.70 LIG 0.04  C 
BRANCH 12 13
ATOM     13  CG  GLU P   3      33.309  30.411  -8.643  1.00 23.46 LIG 0.12  C 
BRANCH 13 14
ATOM     14  CD  GLU P   3      31.875  30.545  -8.182  1.00 23.38 LIG 0.17  C 
ATOM     15 OE1  GLU P   3      31.235  29.486  -7.983  1.00 24.20 LIG-0.65  OA
ATOM     16 OE2  GLU P   3      31.388  31.687  -8.043  1.00 25.77 LIG-0.65  OA
ENDBRANCH 13 14
ENDBRANCH 12 13
ENDBRANCH 11 12
BRANCH 11 17
ATOM     17  N   GLU P   3      35.653  32.747  -7.220  1.00 23.31 LIG-0.35  N 
ATOM     18 H    GLU P   3      36.310  32.200  -7.125  1.00 23.31 LIG 0.16  HD
ATOM     19  C   ALA P   2      35.790  34.045  -7.459  1.00 24.65 LIG 0.26  C 
ATOM     20 O    ALA P   2      34.840  34.752  -7.838  1.00 25.69 LIG-0.27  OA
BRANCH 19 21
ATOM     21  CA  ALA P   2      37.200  34.647  -7.318  1.00 24.82 LIG 0.40  C 
ATOM     22  N   ALA P   2      37.227  36.035  -7.843  1.00 26.06 LIG 0.61  N 
ATOM     23  CB  ALA P   2      37.672  34.640  -5.851  1.00 25.99 LIG 0.06  C 
ENDBRANCH 19 21
ENDBRANCH 11 17
ENDBRANCH 8 11
ENDBRANCH 6 7
BRANCH 6 24
ATOM     24  CB  PHE P   4      30.690  32.259  -3.870  1.00 16.70 LIG 0.07  C 
BRANCH 24 25
ATOM     25  CG  PHE P   4      30.443  33.094  -2.630  1.00 15.87 LIG-0.06  A 
ATOM     26  CD2 PHE P   4      30.624  32.549  -1.364  1.00 14.31 LIG 0.01  A 
ATOM     27  CE2 PHE P   4      30.371  33.302  -0.217  1.00 14.76 LIG 0.00  A 
ATOM     28  CZ  PHE P   4      29.915  34.622  -0.327  1.00 16.46 LIG 0.00  A 
ATOM     29  CE1 PHE P   4      29.734  35.180  -1.588  1.00 16.70 LIG 0.00  A 
ATOM     30  CD1 PHE P   4      29.987  34.403  -2.724  1.00 16.73 LIG 0.01  A 
ENDBRANCH 24 25
ENDBRANCH 6 24
ENDBRANCH 3 6
ENDBRANCH 1 2
BRANCH 1 31
ATOM     31  C   ARG P   5      32.869  27.231  -5.743  1.00 16.50 LIG 0.24  C 
ATOM     32  N   HIS P   6      34.002  27.594  -6.338  1.00 17.02 LIG-0.35  N 
ATOM     33 H    HIS P   6      34.493  28.254  -6.090  1.00 17.02 LIG 0.16  HD
ATOM     34 O    ARG P   5      32.149  26.325  -6.179  1.00 15.68 LIG-0.27  OA
BRANCH 32 35
ATOM     35  CA  HIS P   6      34.500  26.854  -7.507  1.00 18.55 LIG 0.18  C 
BRANCH 35 36
ATOM     36  CB  HIS P   6      35.597  27.634  -8.220  1.00 17.94 LIG 0.10  C 
BRANCH 36 37
ATOM     37  CG  HIS P   6      36.869  26.877  -8.426  1.00 17.06 LIG 0.06  A 
ATOM     38 ND1  HIS P   6      37.009  25.910  -9.396  1.00 15.40 LIG-0.24  NA
ATOM     39  CE1 HIS P   6      38.216  25.380  -9.318  1.00 15.09 LIG 0.23  A 
ATOM     40 NE2  HIS P   6      38.869  25.972  -8.335  1.00 16.22 LIG-0.25  NA
ATOM     41  CD2 HIS P   6      38.041  26.910  -7.756  1.00 16.02 LIG 0.14  A 
ENDBRANCH 36 37
ENDBRANCH 35 36
BRANCH 35 42
ATOM     42  C   HIS P   6      35.124  25.582  -6.988  1.00 20.42 LIG 0.24  C 
ATOM     43 O    HIS P   6      35.904  25.640  -6.043  1.00 21.09 LIG-0.27  OA
ATOM     44  N   ASP P   7      34.830  24.438  -7.579  1.00 22.91 LIG-0.34  N 
ATOM     45 H    ASP P   7      34.334  24.341  -8.274  1.00 22.91 LIG 0.16  HD
BRANCH 44 46
ATOM     46  CA  ASP P   7      35.398  23.202  -7.001  1.00 24.36 LIG 0.19  C 
BRANCH 46 47
ATOM     47  C   ASP P   7      35.315  23.138  -5.481  1.00 26.16 LIG 0.24  C 
ATOM     48  N   SER P   8      34.102  22.936  -4.960  1.00 27.90 LIG-0.34  N 
ATOM     49 H    SER P   8      33.375  22.910  -5.418  1.00 27.90 LIG 0.16  HD
ATOM     50 O    ASP P   7      36.311  23.279  -4.781  1.00 26.07 LIG-0.27  OA
BRANCH 48 51
ATOM     51  CA  SER P   8      33.928  22.736  -3.518  1.00 28.60 LIG 0.21  C 
BRANCH 51 52
ATOM     52  CB  SER P   8      33.637  24.072  -2.837  1.00 29.65 LIG 0.20  C 
BRANCH 52 53
ATOM     53 OG   SER P   8      34.512  25.079  -3.318  1.00 30.91 LIG-0.40  OA
ATOM     54 HG   SER P   8      34.311  25.816  -2.968  1.00 30.91 LIG 0.21  HD
ENDBRANCH 52 53
ENDBRANCH 51 52
BRANCH 51 55
ATOM     55  C   SER P   8      32.836  21.670  -3.186  1.00 29.85 LIG 0.20  C 
ATOM     56 OXT  SER P   8      31.924  21.897  -2.380  1.00 30.94 LIG-0.65  OA
ATOM     57 O    SER P   8      32.811  20.522  -3.656  1.00 30.51 LIG-0.65  OA
ENDBRANCH 51 55
ENDBRANCH 48 51
ENDBRANCH 46 47
BRANCH 46 58
ATOM     58  CB  ASP P   7      36.814  22.981  -7.489  1.00 24.61 LIG 0.15  C 
BRANCH 58 59
ATOM     59  CG  ASP P   7      36.909  21.776  -8.390  1.00 26.42 LIG 0.17  C 
ATOM     60 OD2  ASP P   7      36.209  21.739  -9.409  1.00 29.83 LIG-0.65  OA
ATOM     61 OD1  ASP P   7      37.719  20.868  -8.078  1.00 30.09 LIG-0.65  OA
ENDBRANCH 58 59
ENDBRANCH 46 58
ENDBRANCH 44 46
ENDBRANCH 35 42
ENDBRANCH 32 35
ENDBRANCH 1 31
BRANCH 1 62
ATOM     62  CB  ARG P   5      31.121  27.534  -3.984  1.00 16.24 LIG 0.04  C 
BRANCH 62 63
ATOM     63  CG  ARG P   5      29.952  28.059  -4.795  1.00 15.73 LIG 0.02  C 
BRANCH 63 64
ATOM     64  CD  ARG P   5      29.195  29.085  -3.998  1.00 15.69 LIG 0.14  C 
BRANCH 64 65
ATOM     65  NE  ARG P   5      28.181  29.818  -4.769  1.00 15.25 LIG-0.23  N 
ATOM     66 HE   ARG P   5      27.361  29.775  -4.518  1.00 15.25 LIG 0.18  HD
ATOM     67  CZ  ARG P   5      28.485  30.548  -5.845  1.00 16.06 LIG 0.67  C 
ATOM     68  NH2 ARG P   5      27.532  31.183  -6.528  1.00 16.00 LIG-0.23  N 
ATOM     69  NH1 ARG P   5      29.742  30.617  -6.260  1.00 17.19 LIG-0.23  N 
ATOM     70 1HH2 ARG P   5      26.712  31.125  -6.276  1.00 16.00 LIG 0.17  HD
ATOM     71 2HH2 ARG P   5      27.737  31.651  -7.219  1.00 16.00 LIG 0.17  HD
ATOM     72 1HH1 ARG P   5      30.359  30.192  -5.838  1.00 17.19 LIG 0.17  HD
ATOM     73 2HH1 ARG P   5      29.941  31.087  -6.953  1.00 17.19 LIG 0.17  HD
ENDBRANCH 64 65
ENDBRANCH 63 64
ENDBRANCH 62 63
ENDBRANCH 1 62
TORSDOF 28
ENDMDL
MODEL 41
USER: ADFR SOLUTION from run 75
USER: SCORE 20.398148 LL:  -7.050 LR: -15.908 RR:   0.000 FEB:  -7.556
USER: RMSD 6.923733
USER: SEED 74
USER: STATUS no improvement in best in 5 clusters for 5 generations
USER: GENES 30
USER: genes 0 Translation |==|  0.53078 0.40313 0.55746
USER: genes 1 Rotation |==|  0.42366 0.80112 0.46634 0.89034
USER: genes 2 Torsion [CB]-CA--N-[C] |==|  0.19712
USER: genes 3 Torsion [N]-C--CA-[N] |==|  0.36862
USER: genes 4 Torsion [C]-CA--N-[C] |==|  0.86069
USER: genes 5 Torsion [N]-C--CA-[N] |==|  0.45250
USER: genes 6 Torsion [C]-CA--CB-[CG] |==|  0.37889
USER: genes 7 Torsion [CA]-CB--CG-[CD] |==|  0.88379
USER: genes 8 Torsion [CB]-CG--CD-[OE1] |==|  0.73815
USER: genes 9 Torsion [C]-CA--N-[C] |==|  0.61327
USER: genes 10 Torsion [N]-C--CA-[N] |==|  0.59493
USER: genes 11 Torsion [C]-CA--CB-[CG] |==|  0.60819
USER: genes 12 Torsion [CA]-CB--CG-[CD2] |==|  0.78044
USER: genes 13 Torsion [N]-CA--C-[N] |==|  0.00253
USER: genes 14 Torsion [C]-N--CA-[CB] |==|  0.81101
USER: genes 15 Torsion [N]-CA--CB-[CG] |==|  0.72536
USER: genes 16 Torsion [CA]-CB--CG-[CD2] |==|  0.38345
USER: genes 17 Torsion [N]-CA--C-[N] |==|  0.15590
USER: genes 18 Torsion [C]-N--CA-[CB] |==|  0.40649
USER: genes 19 Torsion [N]-CA--C-[N] |==|  0.85722
USER: genes 20 Torsion [C]-N--CA-[CB] |==|  0.35525
USER: genes 21 Torsion [N]-CA--CB-[OG] |==|  0.95229
USER: genes 22 Torsion [CA]-CB--OG-[HG] |==|  0.89481
USER: genes 23 Torsion [N]-CA--C-[OXT] |==|  0.78935
USER: genes 24 Torsion [N]-CA--CB-[CG] |==|  0.77816
USER: genes 25 Torsion [CA]-CB--CG-[OD2] |==|  0.78010
USER: genes 26 Torsion [N]-CA--CB-[CG] |==|  0.71971
USER: genes 27 Torsion [CA]-CB--CG-[CD] |==|  0.54643
USER: genes 28 Torsion [CB]-CG--CD-[NE] |==|  0.11780
USER: genes 29 Torsion [CG]-CD--NE-[HE] |==|  0.83173
ROOT
ATOM      1  CA  ARG P   5      32.402  26.690  -5.480  1.00 16.30 LIG 0.18  C 
ENDROOT
BRANCH 1 2
ATOM      2  N   ARG P   5      32.551  27.683  -4.408  1.00 16.36 LIG-0.35  N 
ATOM      3  C   PHE P   4      31.760  28.739  -4.341  1.00 16.61 LIG 0.24  C 
ATOM      4 O    PHE P   4      30.802  28.915  -5.098  1.00 17.57 LIG-0.27  OA
ATOM      5 H    ARG P   5      33.181  27.515  -3.847  1.00 16.36 LIG 0.16  HD
BRANCH 3 6
ATOM      6  CA  PHE P   4      32.090  29.758  -3.251  1.00 17.34 LIG 0.18  C 
BRANCH 6 7
ATOM      7  N   PHE P   4      32.066  31.073  -3.866  1.00 18.03 LIG-0.35  N 
ATOM      8  C   GLU P   3      32.735  31.329  -4.991  1.00 20.04 LIG 0.24  C 
ATOM      9 O    GLU P   3      33.542  30.552  -5.475  1.00 20.03 LIG-0.27  OA
ATOM     10 H    PHE P   4      31.591  31.653  -3.445  1.00 18.03 LIG 0.16  HD
BRANCH 8 11
ATOM     11  CA  GLU P   3      32.467  32.682  -5.653  1.00 21.92 LIG 0.18  C 
BRANCH 11 12
ATOM     12  CB  GLU P   3      31.107  32.663  -6.353  1.00 22.70 LIG 0.04  C 
BRANCH 12 13
ATOM     13  CG  GLU P   3      30.311  33.931  -6.103  1.00 23.46 LIG 0.12  C 
BRANCH 13 14
ATOM     14  CD  GLU P   3      30.373  34.433  -4.678  1.00 23.38 LIG 0.17  C 
ATOM     15 OE1  GLU P   3      29.455  34.076  -3.904  1.00 24.20 LIG-0.65  OA
ATOM     16 OE2  GLU P   3      31.311  35.187  -4.343  1.00 25.77 LIG-0.65  OA
ENDBRANCH 13 14
ENDBRANCH 12 13
ENDBRANCH 11 12
BRANCH 11 17
ATOM     17  N   GLU P   3      33.549  32.960  -6.603  1.00 23.31 LIG-0.35  N 
ATOM     18 H    GLU P   3      33.806  32.281  -7.064  1.00 23.31 LIG 0.16  HD
ATOM     19  C   ALA P   2      34.065  34.178  -6.714  1.00 24.65 LIG 0.26  C 
ATOM     20 O    ALA P   2      33.511  35.179  -6.226  1.00 25.69 LIG-0.27  OA
BRANCH 19 21
ATOM     21  CA  ALA P   2      35.358  34.327  -7.536  1.00 24.82 LIG 0.40  C 
ATOM     22  N   ALA P   2      36.221  35.387  -6.958  1.00 26.06 LIG 0.61  N 
ATOM     23  CB  ALA P   2      36.141  33.001  -7.603  1.00 25.99 LIG 0.06  C 
ENDBRANCH 19 21
ENDBRANCH 11 17
ENDBRANCH 8 11
ENDBRANCH 6 7
BRANCH 6 24
ATOM     24  CB  PHE P   4      31.071  29.666  -2.095  1.00 16.70 LIG 0.07  C 
BRANCH 24 25
ATOM     25  CG  PHE P   4      30.674  31.007  -1.512  1.00 15.87 LIG-0.06  A 
ATOM     26  CD2 PHE P   4      31.510  31.662  -0.615  1.00 14.31 LIG 0.01  A 
ATOM     27  CE2 PHE P   4      31.139  32.883  -0.051  1.00 14.76 LIG 0.00  A 
ATOM     28  CZ  PHE P   4      29.905  33.462  -0.373  1.00 16.46 LIG 0.00  A 
ATOM     29  CE1 PHE P   4      29.062  32.819  -1.273  1.00 16.70 LIG 0.00  A 
ATOM     30  CD1 PHE P   4      29.452  31.591  -1.819  1.00 16.73 LIG 0.01  A 
ENDBRANCH 24 25
ENDBRANCH 6 24
ENDBRANCH 3 6
ENDBRANCH 1 2
BRANCH 1 31
ATOM     31  C   ARG P   5      33.193  25.404  -5.191  1.00 16.50 LIG 0.24  C 
ATOM     32  N   HIS P   6      33.864  25.360  -4.043  1.00 17.02 LIG-0.35  N 
ATOM     33 H    HIS P   6      33.934  26.018  -3.494  1.00 17.02 LIG 0.16  HD
ATOM     34 O    ARG P   5      33.183  24.461  -5.992  1.00 15.68 LIG-0.27  OA
BRANCH 32 35
ATOM     35  CA  HIS P   6      34.555  24.131  -3.630  1.00 18.55 LIG 0.18  C 
BRANCH 35 36
ATOM     36  CB  HIS P   6      33.558  23.028  -3.298  1.00 17.94 LIG 0.10  C 
BRANCH 36 37
ATOM     37  CG  HIS P   6      33.275  22.858  -1.841  1.00 17.06 LIG 0.06  A 
ATOM     38 ND1  HIS P   6      34.268  22.849  -0.888  1.00 15.40 LIG-0.24  NA
ATOM     39  CE1 HIS P   6      33.735  22.637   0.302  1.00 15.09 LIG 0.23  A 
ATOM     40 NE2  HIS P   6      32.428  22.514   0.156  1.00 16.22 LIG-0.25  NA
ATOM     41  CD2 HIS P   6      32.117  22.641  -1.180  1.00 16.02 LIG 0.14  A 
ENDBRANCH 36 37
ENDBRANCH 35 36
BRANCH 35 42
ATOM     42  C   HIS P   6      35.361  23.659  -4.814  1.00 20.42 LIG 0.24  C 
ATOM     43 O    HIS P   6      35.197  22.518  -5.235  1.00 21.09 LIG-0.27  OA
ATOM     44  N   ASP P   7      36.238  24.482  -5.359  1.00 22.91 LIG-0.34  N 
ATOM     45 H    ASP P   7      36.433  25.271  -5.079  1.00 22.91 LIG 0.16  HD
BRANCH 44 46
ATOM     46  CA  ASP P   7      36.958  24.018  -6.564  1.00 24.36 LIG 0.19  C 
BRANCH 46 47
ATOM     47  C   ASP P   7      38.223  23.226  -6.258  1.00 26.16 LIG 0.24  C 
ATOM     48  N   SER P   8      39.090  23.792  -5.415  1.00 27.90 LIG-0.34  N 
ATOM     49 H    SER P   8      39.011  24.588  -5.099  1.00 27.90 LIG 0.16  HD
ATOM     50 O    ASP P   7      38.430  22.132  -6.771  1.00 26.07 LIG-0.27  OA
BRANCH 48 51
ATOM     51  CA  SER P   8      40.278  23.065  -4.958  1.00 28.60 LIG 0.21  C 
BRANCH 51 52
ATOM     52  CB  SER P   8      41.529  23.910  -5.190  1.00 29.65 LIG 0.20  C 
BRANCH 52 53
ATOM     53 OG   SER P   8      41.264  24.952  -6.114  1.00 30.91 LIG-0.40  OA
ATOM     54 HG   SER P   8      40.750  24.671  -6.715  1.00 30.91 LIG 0.21  HD
ENDBRANCH 52 53
ENDBRANCH 51 52
BRANCH 51 55
ATOM     55  C   SER P   8      40.163  22.601  -3.471  1.00 29.85 LIG 0.20  C 
ATOM     56 OXT  SER P   8      40.300  23.390  -2.527  1.00 30.94 LIG-0.65  OA
ATOM     57 O    SER P   8      39.972  21.427  -3.116  1.00 30.51 LIG-0.65  OA
ENDBRANCH 51 55
ENDBRANCH 48 51
ENDBRANCH 46 47
BRANCH 46 58
ATOM     58  CB  ASP P   7      37.238  25.172  -7.502  1.00 24.61 LIG 0.15  C 
BRANCH 58 59
ATOM     59  CG  ASP P   7      36.026  25.527  -8.324  1.00 26.42 LIG 0.17  C 
ATOM     60 OD2  ASP P   7      35.751  24.831  -9.310  1.00 29.83 LIG-0.65  OA
ATOM     61 OD1  ASP P   7      35.328  26.504  -7.955  1.00 30.09 LIG-0.65  OA
ENDBRANCH 58 59
ENDBRANCH 46 58
ENDBRANCH 44 46
ENDBRANCH 35 42
ENDBRANCH 32 35
ENDBRANCH 1 31
BRANCH 1 62
ATOM     62  CB  ARG P   5      32.862  27.287  -6.800  1.00 16.24 LIG 0.04  C 
BRANCH 62 63
ATOM     63  CG  ARG P   5      31.752  27.761  -7.717  1.00 15.73 LIG 0.02  C 
BRANCH 63 64
ATOM     64  CD  ARG P   5      32.283  27.942  -9.113  1.00 15.69 LIG 0.14  C 
BRANCH 64 65
ATOM     65  NE  ARG P   5      33.184  26.870  -9.557  1.00 15.25 LIG-0.23  N 
ATOM     66 HE   ARG P   5      33.909  26.731  -9.117  1.00 15.25 LIG 0.18  HD
ATOM     67  CZ  ARG P   5      32.921  26.103 -10.617  1.00 16.06 LIG 0.67  C 
ATOM     68  NH2 ARG P   5      33.774  25.152 -10.999  1.00 16.00 LIG-0.23  N 
ATOM     69  NH1 ARG P   5      31.815  26.308 -11.321  1.00 17.19 LIG-0.23  N 
ATOM     70 1HH2 ARG P   5      34.503  25.028 -10.561  1.00 16.00 LIG 0.17  HD
ATOM     71 2HH2 ARG P   5      33.596  24.663 -11.684  1.00 16.00 LIG 0.17  HD
ATOM     72 1HH1 ARG P   5      31.271  26.934 -11.093  1.00 17.19 LIG 0.17  HD
ATOM     73 2HH1 ARG P   5      31.643  25.815 -12.004  1.00 17.19 LIG 0.17  HD
ENDBRANCH 64 65
ENDBRANCH 63 64
ENDBRANCH 62 63
ENDBRANCH 1 62
TORSDOF 28
ENDMDL
MODEL 42
USER: ADFR SOLUTION from run 109
USER: SCORE 18.205852 LL:  -7.029 LR: -15.901 RR:   0.000 FEB:  -7.548
USER: RMSD 8.247287
USER: SEED 108
USER: STATUS no improvement in best in 8 clusters for 5 generations
USER: GENES 30
USER: genes 0 Translation |==|  0.50225 0.57735 0.56466
USER: genes 1 Rotation |==|  0.39997 0.18077 0.28318 0.80179
USER: genes 2 Torsion [CB]-CA--N-[C] |==|  0.14447
USER: genes 3 Torsion [N]-C--CA-[N] |==|  0.07890
USER: genes 4 Torsion [C]-CA--N-[C] |==|  0.16788
USER: genes 5 Torsion [N]-C--CA-[N] |==|  0.91239
USER: genes 6 Torsion [C]-CA--CB-[CG] |==|  0.61388
USER: genes 7 Torsion [CA]-CB--CG-[CD] |==|  0.85055
USER: genes 8 Torsion [CB]-CG--CD-[OE1] |==|  0.37707
USER: genes 9 Torsion [C]-CA--N-[C] |==|  0.75632
USER: genes 10 Torsion [N]-C--CA-[N] |==|  0.74429
USER: genes 11 Torsion [C]-CA--CB-[CG] |==|  0.23658
USER: genes 12 Torsion [CA]-CB--CG-[CD2] |==|  0.55472
USER: genes 13 Torsion [N]-CA--C-[N] |==|  0.80604
USER: genes 14 Torsion [C]-N--CA-[CB] |==|  0.45745
USER: genes 15 Torsion [N]-CA--CB-[CG] |==|  0.98869
USER: genes 16 Torsion [CA]-CB--CG-[CD2] |==|  0.32072
USER: genes 17 Torsion [N]-CA--C-[N] |==|  0.17845
USER: genes 18 Torsion [C]-N--CA-[CB] |==|  0.37941
USER: genes 19 Torsion [N]-CA--C-[N] |==|  0.08354
USER: genes 20 Torsion [C]-N--CA-[CB] |==|  0.83529
USER: genes 21 Torsion [N]-CA--CB-[OG] |==|  0.81983
USER: genes 22 Torsion [CA]-CB--OG-[HG] |==|  0.83745
USER: genes 23 Torsion [N]-CA--C-[OXT] |==|  0.44846
USER: genes 24 Torsion [N]-CA--CB-[CG] |==|  0.89647
USER: genes 25 Torsion [CA]-CB--CG-[OD2] |==|  0.86407
USER: genes 26 Torsion [N]-CA--CB-[CG] |==|  0.56294
USER: genes 27 Torsion [CA]-CB--CG-[CD] |==|  0.69465
USER: genes 28 Torsion [CB]-CG--CD-[NE] |==|  0.18970
USER: genes 29 Torsion [CG]-CD--NE-[HE] |==|  0.67819
ROOT
ATOM      1  CA  ARG P   5      31.738  30.871  -5.340  1.00 16.30 LIG 0.18  C 
ENDROOT
BRANCH 1 2
ATOM      2  N   ARG P   5      32.104  31.952  -6.266  1.00 16.36 LIG-0.35  N 
ATOM      3  C   PHE P   4      33.323  32.460  -6.274  1.00 16.61 LIG 0.24  C 
ATOM      4 O    PHE P   4      34.246  32.013  -5.590  1.00 17.57 LIG-0.27  OA
ATOM      5 H    ARG P   5      31.468  32.211  -6.785  1.00 16.36 LIG 0.16  HD
BRANCH 3 6
ATOM      6  CA  PHE P   4      33.546  33.657  -7.198  1.00 17.34 LIG 0.18  C 
BRANCH 6 7
ATOM      7  N   PHE P   4      32.277  34.350  -7.323  1.00 18.03 LIG-0.35  N 
ATOM      8  C   GLU P   3      31.657  34.868  -6.261  1.00 20.04 LIG 0.24  C 
ATOM      9 O    GLU P   3      32.007  34.644  -5.113  1.00 20.03 LIG-0.27  OA
ATOM     10 H    PHE P   4      31.973  34.394  -8.126  1.00 18.03 LIG 0.16  HD
BRANCH 8 11
ATOM     11  CA  GLU P   3      30.439  35.750  -6.543  1.00 21.92 LIG 0.18  C 
BRANCH 11 12
ATOM     12  CB  GLU P   3      29.168  34.899  -6.565  1.00 22.70 LIG 0.04  C 
BRANCH 12 13
ATOM     13  CG  GLU P   3      28.221  35.305  -7.679  1.00 23.46 LIG 0.12  C 
BRANCH 13 14
ATOM     14  CD  GLU P   3      27.860  36.774  -7.683  1.00 23.38 LIG 0.17  C 
ATOM     15 OE1  GLU P   3      27.870  37.364  -8.789  1.00 24.20 LIG-0.65  OA
ATOM     16 OE2  GLU P   3      27.593  37.334  -6.599  1.00 25.77 LIG-0.65  OA
ENDBRANCH 13 14
ENDBRANCH 12 13
ENDBRANCH 11 12
BRANCH 11 17
ATOM     17  N   GLU P   3      30.643  36.433  -7.825  1.00 23.31 LIG-0.35  N 
ATOM     18 H    GLU P   3      30.321  36.020  -8.508  1.00 23.31 LIG 0.16  HD
ATOM     19  C   ALA P   2      31.281  37.595  -7.887  1.00 24.65 LIG 0.26  C 
ATOM     20 O    ALA P   2      31.508  38.280  -6.874  1.00 25.69 LIG-0.27  OA
BRANCH 19 21
ATOM     21  CA  ALA P   2      31.678  38.112  -9.281  1.00 24.82 LIG 0.40  C 
ATOM     22  N   ALA P   2      33.050  37.665  -9.629  1.00 26.06 LIG 0.61  N 
ATOM     23  CB  ALA P   2      30.689  37.636 -10.363  1.00 25.99 LIG 0.06  C 
ENDBRANCH 19 21
ENDBRANCH 11 17
ENDBRANCH 8 11
ENDBRANCH 6 7
BRANCH 6 24
ATOM     24  CB  PHE P   4      34.634  34.589  -6.624  1.00 16.70 LIG 0.07  C 
BRANCH 24 25
ATOM     25  CG  PHE P   4      36.049  34.185  -6.987  1.00 15.87 LIG-0.06  A 
ATOM     26  CD2 PHE P   4      37.129  34.649  -6.243  1.00 14.31 LIG 0.01  A 
ATOM     27  CE2 PHE P   4      38.436  34.304  -6.587  1.00 14.76 LIG 0.00  A 
ATOM     28  CZ  PHE P   4      38.681  33.492  -7.702  1.00 16.46 LIG 0.00  A 
ATOM     29  CE1 PHE P   4      37.609  33.017  -8.451  1.00 16.70 LIG 0.00  A 
ATOM     30  CD1 PHE P   4      36.307  33.383  -8.091  1.00 16.73 LIG 0.01  A 
ENDBRANCH 24 25
ENDBRANCH 6 24
ENDBRANCH 3 6
ENDBRANCH 1 2
BRANCH 1 31
ATOM     31  C   ARG P   5      30.239  30.538  -5.404  1.00 16.50 LIG 0.24  C 
ATOM     32  N   HIS P   6      29.403  31.451  -4.916  1.00 17.02 LIG-0.35  N 
ATOM     33 H    HIS P   6      29.647  32.171  -4.516  1.00 17.02 LIG 0.16  HD
ATOM     34 O    ARG P   5      29.846  29.476  -5.901  1.00 15.68 LIG-0.27  OA
BRANCH 32 35
ATOM     35  CA  HIS P   6      27.948  31.271  -5.037  1.00 18.55 LIG 0.18  C 
BRANCH 35 36
ATOM     36  CB  HIS P   6      27.202  32.213  -4.102  1.00 17.94 LIG 0.10  C 
BRANCH 36 37
ATOM     37  CG  HIS P   6      28.077  33.033  -3.211  1.00 17.06 LIG 0.06  A 
ATOM     38 ND1  HIS P   6      28.835  32.481  -2.203  1.00 15.40 LIG-0.24  NA
ATOM     39  CE1 HIS P   6      29.468  33.440  -1.552  1.00 15.09 LIG 0.23  A 
ATOM     40 NE2  HIS P   6      29.154  34.597  -2.106  1.00 16.22 LIG-0.25  NA
ATOM     41  CD2 HIS P   6      28.276  34.367  -3.144  1.00 16.02 LIG 0.14  A 
ENDBRANCH 36 37
ENDBRANCH 35 36
BRANCH 35 42
ATOM     42  C   HIS P   6      27.574  31.654  -6.447  1.00 20.42 LIG 0.24  C 
ATOM     43 O    HIS P   6      26.829  32.612  -6.629  1.00 21.09 LIG-0.27  OA
ATOM     44  N   ASP P   7      28.043  30.936  -7.451  1.00 22.91 LIG-0.34  N 
ATOM     45 H    ASP P   7      28.525  30.227  -7.384  1.00 22.91 LIG 0.16  HD
BRANCH 44 46
ATOM     46  CA  ASP P   7      27.719  31.382  -8.823  1.00 24.36 LIG 0.19  C 
BRANCH 46 47
ATOM     47  C   ASP P   7      26.522  30.666  -9.435  1.00 26.16 LIG 0.24  C 
ATOM     48  N   SER P   8      25.579  30.250  -8.587  1.00 27.90 LIG-0.34  N 
ATOM     49 H    SER P   8      25.640  30.300  -7.730  1.00 27.90 LIG 0.16  HD
ATOM     50 O    ASP P   7      26.444  30.475 -10.643  1.00 26.07 LIG-0.27  OA
BRANCH 48 51
ATOM     51  CA  SER P   8      24.331  29.660  -9.080  1.00 28.60 LIG 0.21  C 
BRANCH 51 52
ATOM     52  CB  SER P   8      23.598  30.659  -9.973  1.00 29.65 LIG 0.20  C 
BRANCH 52 53
ATOM     53 OG   SER P   8      23.189  31.792  -9.226  1.00 30.91 LIG-0.40  OA
ATOM     54 HG   SER P   8      22.688  31.547  -8.597  1.00 30.91 LIG 0.21  HD
ENDBRANCH 52 53
ENDBRANCH 51 52
BRANCH 51 55
ATOM     55  C   SER P   8      24.556  28.295  -9.804  1.00 29.85 LIG 0.20  C 
ATOM     56 OXT  SER P   8      23.632  27.491  -9.987  1.00 30.94 LIG-0.65  OA
ATOM     57 O    SER P   8      25.657  27.890 -10.211  1.00 30.51 LIG-0.65  OA
ENDBRANCH 51 55
ENDBRANCH 48 51
ENDBRANCH 46 47
BRANCH 46 58
ATOM     58  CB  ASP P   7      28.936  31.297  -9.718  1.00 24.61 LIG 0.15  C 
BRANCH 58 59
ATOM     59  CG  ASP P   7      30.195  31.677  -8.983  1.00 26.42 LIG 0.17  C 
ATOM     60 OD2  ASP P   7      30.204  32.723  -8.321  1.00 29.83 LIG-0.65  OA
ATOM     61 OD1  ASP P   7      31.179  30.899  -9.052  1.00 30.09 LIG-0.65  OA
ENDBRANCH 58 59
ENDBRANCH 46 58
ENDBRANCH 44 46
ENDBRANCH 35 42
ENDBRANCH 32 35
ENDBRANCH 1 31
BRANCH 1 62
ATOM     62  CB  ARG P   5      32.114  31.263  -3.921  1.00 16.24 LIG 0.04  C 
BRANCH 62 63
ATOM     63  CG  ARG P   5      32.304  30.106  -2.960  1.00 15.73 LIG 0.02  C 
BRANCH 63 64
ATOM     64  CD  ARG P   5      31.183  30.085  -1.957  1.00 15.69 LIG 0.14  C 
BRANCH 64 65
ATOM     65  NE  ARG P   5      29.873  29.740  -2.525  1.00 15.25 LIG-0.23  N 
ATOM     66 HE   ARG P   5      29.248  30.329  -2.508  1.00 15.25 LIG 0.18  HD
ATOM     67  CZ  ARG P   5      29.616  28.547  -3.067  1.00 16.06 LIG 0.67  C 
ATOM     68  NH2 ARG P   5      28.407  28.268  -3.556  1.00 16.00 LIG-0.23  N 
ATOM     69  NH1 ARG P   5      30.561  27.617  -3.092  1.00 17.19 LIG-0.23  N 
ATOM     70 1HH2 ARG P   5      27.784  28.859  -3.524  1.00 16.00 LIG 0.17  HD
ATOM     71 2HH2 ARG P   5      28.251  27.497  -3.904  1.00 16.00 LIG 0.17  HD
ATOM     72 1HH1 ARG P   5      31.336  27.783  -2.759  1.00 17.19 LIG 0.17  HD
ATOM     73 2HH1 ARG P   5      30.399  26.848  -3.441  1.00 17.19 LIG 0.17  HD
ENDBRANCH 64 65
ENDBRANCH 63 64
ENDBRANCH 62 63
ENDBRANCH 1 62
TORSDOF 28
ENDMDL
MODEL 43
USER: ADFR SOLUTION from run 14
USER: SCORE 18.951071 LL:  -5.156 LR: -15.889 RR:   0.000 FEB:  -7.537
USER: RMSD 9.789491
USER: SEED 653612
USER: STATUS no improvement in best in 7 clusters for 5 generations
USER: GENES 30
USER: genes 0 Translation |==|  0.38042 0.62184 0.57514
USER: genes 1 Rotation |==|  0.86182 0.72911 0.25304 0.57486
USER: genes 2 Torsion [CB]-CA--N-[C] |==|  0.15194
USER: genes 3 Torsion [N]-C--CA-[N] |==|  0.44425
USER: genes 4 Torsion [C]-CA--N-[C] |==|  0.80444
USER: genes 5 Torsion [N]-C--CA-[N] |==|  0.33428
USER: genes 6 Torsion [C]-CA--CB-[CG] |==|  0.79777
USER: genes 7 Torsion [CA]-CB--CG-[CD] |==|  0.78453
USER: genes 8 Torsion [CB]-CG--CD-[OE1] |==|  0.78947
USER: genes 9 Torsion [C]-CA--N-[C] |==|  0.66667
USER: genes 10 Torsion [N]-C--CA-[N] |==|  0.16675
USER: genes 11 Torsion [C]-CA--CB-[CG] |==|  0.94523
USER: genes 12 Torsion [CA]-CB--CG-[CD2] |==|  0.29704
USER: genes 13 Torsion [N]-CA--C-[N] |==|  0.62722
USER: genes 14 Torsion [C]-N--CA-[CB] |==|  0.38600
USER: genes 15 Torsion [N]-CA--CB-[CG] |==|  0.46452
USER: genes 16 Torsion [CA]-CB--CG-[CD2] |==|  0.63683
USER: genes 17 Torsion [N]-CA--C-[N] |==|  0.89732
USER: genes 18 Torsion [C]-N--CA-[CB] |==|  0.84765
USER: genes 19 Torsion [N]-CA--C-[N] |==|  0.36134
USER: genes 20 Torsion [C]-N--CA-[CB] |==|  0.26326
USER: genes 21 Torsion [N]-CA--CB-[OG] |==|  0.93237
USER: genes 22 Torsion [CA]-CB--OG-[HG] |==|  0.10600
USER: genes 23 Torsion [N]-CA--C-[OXT] |==|  0.74228
USER: genes 24 Torsion [N]-CA--CB-[CG] |==|  0.57509
USER: genes 25 Torsion [CA]-CB--CG-[OD2] |==|  0.10414
USER: genes 26 Torsion [N]-CA--CB-[CG] |==|  0.60260
USER: genes 27 Torsion [CA]-CB--CG-[CD] |==|  0.06222
USER: genes 28 Torsion [CB]-CG--CD-[NE] |==|  0.59621
USER: genes 29 Torsion [CG]-CD--NE-[HE] |==|  0.29318
ROOT
ATOM      1  CA  ARG P   5      28.906  31.939  -5.136  1.00 16.30 LIG 0.18  C 
ENDROOT
BRANCH 1 2
ATOM      2  N   ARG P   5      28.951  30.627  -4.476  1.00 16.36 LIG-0.35  N 
ATOM      3  C   PHE P   4      30.101  30.019  -4.245  1.00 16.61 LIG 0.24  C 
ATOM      4 O    PHE P   4      31.196  30.536  -4.473  1.00 17.57 LIG-0.27  OA
ATOM      5 H    ARG P   5      28.182  30.305  -4.263  1.00 16.36 LIG 0.16  HD
BRANCH 3 6
ATOM      6  CA  PHE P   4      30.010  28.609  -3.662  1.00 17.34 LIG 0.18  C 
BRANCH 6 7
ATOM      7  N   PHE P   4      31.275  27.949  -3.925  1.00 18.03 LIG-0.35  N 
ATOM      8  C   GLU P   3      31.629  27.585  -5.159  1.00 20.04 LIG 0.24  C 
ATOM      9 O    GLU P   3      30.858  27.612  -6.105  1.00 20.03 LIG-0.27  OA
ATOM     10 H    PHE P   4      31.761  27.820  -3.227  1.00 18.03 LIG 0.16  HD
BRANCH 8 11
ATOM     11  CA  GLU P   3      33.065  27.091  -5.341  1.00 21.92 LIG 0.18  C 
BRANCH 11 12
ATOM     12  CB  GLU P   3      33.821  28.015  -6.297  1.00 22.70 LIG 0.04  C 
BRANCH 12 13
ATOM     13  CG  GLU P   3      33.375  27.844  -7.738  1.00 23.46 LIG 0.12  C 
BRANCH 13 14
ATOM     14  CD  GLU P   3      33.936  26.617  -8.420  1.00 23.38 LIG 0.17  C 
ATOM     15 OE1  GLU P   3      35.135  26.658  -8.782  1.00 24.20 LIG-0.65  OA
ATOM     16 OE2  GLU P   3      33.186  25.636  -8.612  1.00 25.77 LIG-0.65  OA
ENDBRANCH 13 14
ENDBRANCH 12 13
ENDBRANCH 11 12
BRANCH 11 17
ATOM     17  N   GLU P   3      33.025  25.716  -5.852  1.00 23.31 LIG-0.35  N 
ATOM     18 H    GLU P   3      32.625  25.625  -6.609  1.00 23.31 LIG 0.16  HD
ATOM     19  C   ALA P   2      33.574  24.718  -5.172  1.00 24.65 LIG 0.26  C 
ATOM     20 O    ALA P   2      34.353  24.913  -4.223  1.00 25.69 LIG-0.27  OA
BRANCH 19 21
ATOM     21  CA  ALA P   2      33.265  23.285  -5.643  1.00 24.82 LIG 0.40  C 
ATOM     22  N   ALA P   2      33.724  23.088  -7.040  1.00 26.06 LIG 0.61  N 
ATOM     23  CB  ALA P   2      33.924  22.235  -4.727  1.00 25.99 LIG 0.06  C 
ENDBRANCH 19 21
ENDBRANCH 11 17
ENDBRANCH 8 11
ENDBRANCH 6 7
BRANCH 6 24
ATOM     24  CB  PHE P   4      29.717  28.666  -2.147  1.00 16.70 LIG 0.07  C 
BRANCH 24 25
ATOM     25  CG  PHE P   4      30.048  29.998  -1.503  1.00 15.87 LIG-0.06  A 
ATOM     26  CD2 PHE P   4      29.033  30.865  -1.114  1.00 14.31 LIG 0.01  A 
ATOM     27  CE2 PHE P   4      29.330  32.104  -0.546  1.00 14.76 LIG 0.00  A 
ATOM     28  CZ  PHE P   4      30.662  32.500  -0.373  1.00 16.46 LIG 0.00  A 
ATOM     29  CE1 PHE P   4      31.686  31.639  -0.754  1.00 16.70 LIG 0.00  A 
ATOM     30  CD1 PHE P   4      31.364  30.404  -1.328  1.00 16.73 LIG 0.01  A 
ENDBRANCH 24 25
ENDBRANCH 6 24
ENDBRANCH 3 6
ENDBRANCH 1 2
BRANCH 1 31
ATOM     31  C   ARG P   5      27.464  32.417  -5.374  1.00 16.50 LIG 0.24  C 
ATOM     32  N   HIS P   6      27.190  32.914  -6.577  1.00 17.02 LIG-0.35  N 
ATOM     33 H    HIS P   6      27.773  33.042  -7.196  1.00 17.02 LIG 0.16  HD
ATOM     34 O    ARG P   5      26.610  32.323  -4.483  1.00 15.68 LIG-0.27  OA
BRANCH 32 35
ATOM     35  CA  HIS P   6      25.814  33.290  -6.933  1.00 18.55 LIG 0.18  C 
BRANCH 35 36
ATOM     36  CB  HIS P   6      25.790  34.596  -7.716  1.00 17.94 LIG 0.10  C 
BRANCH 36 37
ATOM     37  CG  HIS P   6      24.486  34.905  -8.376  1.00 17.06 LIG 0.06  A 
ATOM     38 ND1  HIS P   6      23.278  34.789  -7.726  1.00 15.40 LIG-0.24  NA
ATOM     39  CE1 HIS P   6      22.297  35.080  -8.561  1.00 15.09 LIG 0.23  A 
ATOM     40 NE2  HIS P   6      22.826  35.387  -9.732  1.00 16.22 LIG-0.25  NA
ATOM     41  CD2 HIS P   6      24.197  35.277  -9.642  1.00 16.02 LIG 0.14  A 
ENDBRANCH 36 37
ENDBRANCH 35 36
BRANCH 35 42
ATOM     42  C   HIS P   6      25.287  32.213  -7.849  1.00 20.42 LIG 0.24  C 
ATOM     43 O    HIS P   6      24.116  31.862  -7.749  1.00 21.09 LIG-0.27  OA
ATOM     44  N   ASP P   7      26.107  31.660  -8.724  1.00 22.91 LIG-0.34  N 
ATOM     45 H    ASP P   7      26.947  31.826  -8.805  1.00 22.91 LIG 0.16  HD
BRANCH 44 46
ATOM     46  CA  ASP P   7      25.542  30.661  -9.657  1.00 24.36 LIG 0.19  C 
BRANCH 46 47
ATOM     47  C   ASP P   7      24.643  31.262 -10.729  1.00 26.16 LIG 0.24  C 
ATOM     48  N   SER P   8      24.894  30.898 -11.989  1.00 27.90 LIG-0.34  N 
ATOM     49 H    SER P   8      25.561  30.413 -12.230  1.00 27.90 LIG 0.16  HD
ATOM     50 O    ASP P   7      23.745  32.045 -10.442  1.00 26.07 LIG-0.27  OA
BRANCH 48 51
ATOM     51  CA  SER P   8      24.014  31.320 -13.083  1.00 28.60 LIG 0.21  C 
BRANCH 51 52
ATOM     52  CB  SER P   8      24.560  32.590 -13.732  1.00 29.65 LIG 0.20  C 
BRANCH 52 53
ATOM     53 OG   SER P   8      25.378  33.305 -12.822  1.00 30.91 LIG-0.40  OA
ATOM     54 HG   SER P   8      25.829  32.764 -12.365  1.00 30.91 LIG 0.21  HD
ENDBRANCH 52 53
ENDBRANCH 51 52
BRANCH 51 55
ATOM     55  C   SER P   8      23.777  30.190 -14.134  1.00 29.85 LIG 0.20  C 
ATOM     56 OXT  SER P   8      24.483  30.079 -15.145  1.00 30.94 LIG-0.65  OA
ATOM     57 O    SER P   8      22.862  29.354 -14.071  1.00 30.51 LIG-0.65  OA
ENDBRANCH 51 55
ENDBRANCH 48 51
ENDBRANCH 46 47
BRANCH 46 58
ATOM     58  CB  ASP P   7      24.843  29.553  -8.900  1.00 24.61 LIG 0.15  C 
BRANCH 58 59
ATOM     59  CG  ASP P   7      24.840  28.263  -9.679  1.00 26.42 LIG 0.17  C 
ATOM     60 OD2  ASP P   7      25.840  27.970 -10.346  1.00 29.83 LIG-0.65  OA
ATOM     61 OD1  ASP P   7      23.828  27.524  -9.596  1.00 30.09 LIG-0.65  OA
ENDBRANCH 58 59
ENDBRANCH 46 58
ENDBRANCH 44 46
ENDBRANCH 35 42
ENDBRANCH 32 35
ENDBRANCH 1 31
BRANCH 1 62
ATOM     62  CB  ARG P   5      29.646  31.872  -6.461  1.00 16.24 LIG 0.04  C 
BRANCH 62 63
ATOM     63  CG  ARG P   5      30.433  33.116  -6.825  1.00 15.73 LIG 0.02  C 
BRANCH 63 64
ATOM     64  CD  ARG P   5      30.747  33.905  -5.583  1.00 15.69 LIG 0.14  C 
BRANCH 64 65
ATOM     65  NE  ARG P   5      30.747  35.361  -5.779  1.00 15.25 LIG-0.23  N 
ATOM     66 HE   ARG P   5      30.086  35.819  -5.474  1.00 15.25 LIG 0.18  HD
ATOM     67  CZ  ARG P   5      31.733  36.002  -6.410  1.00 16.06 LIG 0.67  C 
ATOM     68  NH2 ARG P   5      31.686  37.323  -6.584  1.00 16.00 LIG-0.23  N 
ATOM     69  NH1 ARG P   5      32.756  35.315  -6.902  1.00 17.19 LIG-0.23  N 
ATOM     70 1HH2 ARG P   5      31.015  37.772  -6.286  1.00 16.00 LIG 0.17  HD
ATOM     71 2HH2 ARG P   5      32.326  37.727  -6.992  1.00 16.00 LIG 0.17  HD
ATOM     72 1HH1 ARG P   5      32.782  34.460  -6.813  1.00 17.19 LIG 0.17  HD
ATOM     73 2HH1 ARG P   5      33.393  35.725  -7.309  1.00 17.19 LIG 0.17  HD
ENDBRANCH 64 65
ENDBRANCH 63 64
ENDBRANCH 62 63
ENDBRANCH 1 62
TORSDOF 28
ENDMDL
MODEL 44
USER: ADFR SOLUTION from run 59
USER: SCORE 18.344395 LL:  -5.227 LR: -15.874 RR:   0.000 FEB:  -7.522
USER: RMSD 8.286348
USER: SEED 58
USER: STATUS searching
USER: GENES 30
USER: genes 0 Translation |==|  0.61065 0.53659 0.50367
USER: genes 1 Rotation |==|  0.73777 0.06839 0.41878 0.52420
USER: genes 2 Torsion [CB]-CA--N-[C] |==|  0.19444
USER: genes 3 Torsion [N]-C--CA-[N] |==|  0.91994
USER: genes 4 Torsion [C]-CA--N-[C] |==|  0.76546
USER: genes 5 Torsion [N]-C--CA-[N] |==|  0.25154
USER: genes 6 Torsion [C]-CA--CB-[CG] |==|  0.38051
USER: genes 7 Torsion [CA]-CB--CG-[CD] |==|  0.92445
USER: genes 8 Torsion [CB]-CG--CD-[OE1] |==|  0.28162
USER: genes 9 Torsion [C]-CA--N-[C] |==|  0.77767
USER: genes 10 Torsion [N]-C--CA-[N] |==|  0.05651
USER: genes 11 Torsion [C]-CA--CB-[CG] |==|  0.12986
USER: genes 12 Torsion [CA]-CB--CG-[CD2] |==|  0.21631
USER: genes 13 Torsion [N]-CA--C-[N] |==|  0.40411
USER: genes 14 Torsion [C]-N--CA-[CB] |==|  0.19339
USER: genes 15 Torsion [N]-CA--CB-[CG] |==|  0.32577
USER: genes 16 Torsion [CA]-CB--CG-[CD2] |==|  0.25034
USER: genes 17 Torsion [N]-CA--C-[N] |==|  0.38041
USER: genes 18 Torsion [C]-N--CA-[CB] |==|  0.78858
USER: genes 19 Torsion [N]-CA--C-[N] |==|  0.20351
USER: genes 20 Torsion [C]-N--CA-[CB] |==|  0.29435
USER: genes 21 Torsion [N]-CA--CB-[OG] |==|  0.91796
USER: genes 22 Torsion [CA]-CB--OG-[HG] |==|  0.92651
USER: genes 23 Torsion [N]-CA--C-[OXT] |==|  0.51706
USER: genes 24 Torsion [N]-CA--CB-[CG] |==|  0.58162
USER: genes 25 Torsion [CA]-CB--CG-[OD2] |==|  0.40582
USER: genes 26 Torsion [N]-CA--CB-[CG] |==|  0.58154
USER: genes 27 Torsion [CA]-CB--CG-[CD] |==|  0.41518
USER: genes 28 Torsion [CB]-CG--CD-[NE] |==|  0.64505
USER: genes 29 Torsion [CG]-CD--NE-[HE] |==|  0.96655
ROOT
ATOM      1  CA  ARG P   5      34.259  29.893  -6.529  1.00 16.30 LIG 0.18  C 
ENDROOT
BRANCH 1 2
ATOM      2  N   ARG P   5      34.330  31.342  -6.764  1.00 16.36 LIG-0.35  N 
ATOM      3  C   PHE P   4      33.927  32.202  -5.846  1.00 16.61 LIG 0.24  C 
ATOM      4 O    PHE P   4      33.561  31.865  -4.718  1.00 17.57 LIG-0.27  OA
ATOM      5 H    ARG P   5      34.648  31.566  -7.531  1.00 16.36 LIG 0.16  HD
BRANCH 3 6
ATOM      6  CA  PHE P   4      33.940  33.675  -6.254  1.00 17.34 LIG 0.18  C 
BRANCH 6 7
ATOM      7  N   PHE P   4      34.987  33.841  -7.244  1.00 18.03 LIG-0.35  N 
ATOM      8  C   GLU P   3      36.259  34.035  -6.890  1.00 20.04 LIG 0.24  C 
ATOM      9 O    GLU P   3      36.599  34.265  -5.740  1.00 20.03 LIG-0.27  OA
ATOM     10 H    PHE P   4      34.716  33.803  -8.059  1.00 18.03 LIG 0.16  HD
BRANCH 8 11
ATOM     11  CA  GLU P   3      37.297  33.988  -8.012  1.00 21.92 LIG 0.18  C 
BRANCH 11 12
ATOM     12  CB  GLU P   3      38.618  33.428  -7.481  1.00 22.70 LIG 0.04  C 
BRANCH 12 13
ATOM     13  CG  GLU P   3      39.250  32.434  -8.438  1.00 23.46 LIG 0.12  C 
BRANCH 13 14
ATOM     14  CD  GLU P   3      38.262  31.713  -9.327  1.00 23.38 LIG 0.17  C 
ATOM     15 OE1  GLU P   3      38.152  32.115 -10.509  1.00 24.20 LIG-0.65  OA
ATOM     16 OE2  GLU P   3      37.591  30.775  -8.847  1.00 25.77 LIG-0.65  OA
ENDBRANCH 13 14
ENDBRANCH 12 13
ENDBRANCH 11 12
BRANCH 11 17
ATOM     17  N   GLU P   3      37.471  35.343  -8.545  1.00 23.31 LIG-0.35  N 
ATOM     18 H    GLU P   3      38.165  35.759  -8.252  1.00 23.31 LIG 0.16  HD
ATOM     19  C   ALA P   2      36.604  35.853  -9.411  1.00 24.65 LIG 0.26  C 
ATOM     20 O    ALA P   2      35.767  35.150 -10.002  1.00 25.69 LIG-0.27  OA
BRANCH 19 21
ATOM     21  CA  ALA P   2      36.713  37.358  -9.719  1.00 24.82 LIG 0.40  C 
ATOM     22  N   ALA P   2      38.061  37.865  -9.362  1.00 26.06 LIG 0.61  N 
ATOM     23  CB  ALA P   2      36.425  37.652 -11.204  1.00 25.99 LIG 0.06  C 
ENDBRANCH 19 21
ENDBRANCH 11 17
ENDBRANCH 8 11
ENDBRANCH 6 7
BRANCH 6 24
ATOM     24  CB  PHE P   4      32.567  34.093  -6.821  1.00 16.70 LIG 0.07  C 
BRANCH 24 25
ATOM     25  CG  PHE P   4      31.387  33.639  -5.984  1.00 15.87 LIG-0.06  A 
ATOM     26  CD2 PHE P   4      31.046  34.317  -4.820  1.00 14.31 LIG 0.01  A 
ATOM     27  CE2 PHE P   4      29.980  33.889  -4.028  1.00 14.76 LIG 0.00  A 
ATOM     28  CZ  PHE P   4      29.243  32.755  -4.392  1.00 16.46 LIG 0.00  A 
ATOM     29  CE1 PHE P   4      29.571  32.071  -5.558  1.00 16.70 LIG 0.00  A 
ATOM     30  CD1 PHE P   4      30.650  32.515  -6.331  1.00 16.73 LIG 0.01  A 
ENDBRANCH 24 25
ENDBRANCH 6 24
ENDBRANCH 3 6
ENDBRANCH 1 2
BRANCH 1 31
ATOM     31  C   ARG P   5      35.041  29.097  -7.587  1.00 16.50 LIG 0.24  C 
ATOM     32  N   HIS P   6      35.645  27.987  -7.173  1.00 17.02 LIG-0.35  N 
ATOM     33 H    HIS P   6      35.679  27.726  -6.355  1.00 17.02 LIG 0.16  HD
ATOM     34 O    ARG P   5      35.084  29.479  -8.763  1.00 15.68 LIG-0.27  OA
BRANCH 32 35
ATOM     35  CA  HIS P   6      36.320  27.102  -8.134  1.00 18.55 LIG 0.18  C 
BRANCH 35 36
ATOM     36  CB  HIS P   6      37.577  27.757  -8.690  1.00 17.94 LIG 0.10  C 
BRANCH 36 37
ATOM     37  CG  HIS P   6      38.849  27.042  -8.370  1.00 17.06 LIG 0.06  A 
ATOM     38 ND1  HIS P   6      39.615  27.346  -7.267  1.00 15.40 LIG-0.24  NA
ATOM     39  CE1 HIS P   6      40.698  26.591  -7.261  1.00 15.09 LIG 0.23  A 
ATOM     40 NE2  HIS P   6      40.661  25.801  -8.319  1.00 16.22 LIG-0.25  NA
ATOM     41  CD2 HIS P   6      39.514  26.071  -9.033  1.00 16.02 LIG 0.14  A 
ENDBRANCH 36 37
ENDBRANCH 35 36
BRANCH 35 42
ATOM     42  C   HIS P   6      36.758  25.877  -7.371  1.00 20.42 LIG 0.24  C 
ATOM     43 O    HIS P   6      37.279  26.012  -6.269  1.00 21.09 LIG-0.27  OA
ATOM     44  N   ASP P   7      36.585  24.687  -7.918  1.00 22.91 LIG-0.34  N 
ATOM     45 H    ASP P   7      36.275  24.532  -8.705  1.00 22.91 LIG 0.16  HD
BRANCH 44 46
ATOM     46  CA  ASP P   7      36.956  23.502  -7.114  1.00 24.36 LIG 0.19  C 
BRANCH 46 47
ATOM     47  C   ASP P   7      36.359  23.499  -5.713  1.00 26.16 LIG 0.24  C 
ATOM     48  N   SER P   8      35.052  23.243  -5.624  1.00 27.90 LIG-0.34  N 
ATOM     49 H    SER P   8      34.527  23.152  -6.300  1.00 27.90 LIG 0.16  HD
ATOM     50 O    ASP P   7      37.048  23.731  -4.726  1.00 26.07 LIG-0.27  OA
BRANCH 48 51
ATOM     51  CA  SER P   8      34.402  23.095  -4.318  1.00 28.60 LIG 0.21  C 
BRANCH 51 52
ATOM     52  CB  SER P   8      33.561  24.332  -4.010  1.00 29.65 LIG 0.20  C 
BRANCH 52 53
ATOM     53 OG   SER P   8      34.115  25.481  -4.629  1.00 30.91 LIG-0.40  OA
ATOM     54 HG   SER P   8      34.942  25.372  -4.734  1.00 30.91 LIG 0.21  HD
ENDBRANCH 52 53
ENDBRANCH 51 52
BRANCH 51 55
ATOM     55  C   SER P   8      33.560  21.784  -4.211  1.00 29.85 LIG 0.20  C 
ATOM     56 OXT  SER P   8      32.850  21.541  -3.226  1.00 30.94 LIG-0.65  OA
ATOM     57 O    SER P   8      33.561  20.878  -5.060  1.00 30.51 LIG-0.65  OA
ENDBRANCH 51 55
ENDBRANCH 48 51
ENDBRANCH 46 47
BRANCH 46 58
ATOM     58  CB  ASP P   7      38.459  23.325  -7.079  1.00 24.61 LIG 0.15  C 
BRANCH 58 59
ATOM     59  CG  ASP P   7      38.844  21.876  -6.930  1.00 26.42 LIG 0.17  C 
ATOM     60 OD2  ASP P   7      39.874  21.475  -7.487  1.00 29.83 LIG-0.65  OA
ATOM     61 OD1  ASP P   7      38.113  21.139  -6.222  1.00 30.09 LIG-0.65  OA
ENDBRANCH 58 59
ENDBRANCH 46 58
ENDBRANCH 44 46
ENDBRANCH 35 42
ENDBRANCH 32 35
ENDBRANCH 1 31
BRANCH 1 62
ATOM     62  CB  ARG P   5      32.807  29.445  -6.525  1.00 16.24 LIG 0.04  C 
BRANCH 62 63
ATOM     63  CG  ARG P   5      32.506  28.238  -5.658  1.00 15.73 LIG 0.02  C 
BRANCH 63 64
ATOM     64  CD  ARG P   5      31.100  28.323  -5.131  1.00 15.69 LIG 0.14  C 
BRANCH 64 65
ATOM     65  NE  ARG P   5      30.993  28.169  -3.674  1.00 15.25 LIG-0.23  N 
ATOM     66 HE   ARG P   5      31.678  27.889  -3.237  1.00 15.25 LIG 0.18  HD
ATOM     67  CZ  ARG P   5      29.873  28.445  -3.002  1.00 16.06 LIG 0.67  C 
ATOM     68  NH2 ARG P   5      29.812  28.274  -1.681  1.00 16.00 LIG-0.23  N 
ATOM     69  NH1 ARG P   5      28.798  28.863  -3.657  1.00 17.19 LIG-0.23  N 
ATOM     70 1HH2 ARG P   5      30.498  27.982  -1.253  1.00 16.00 LIG 0.17  HD
ATOM     71 2HH2 ARG P   5      29.086  28.455  -1.256  1.00 16.00 LIG 0.17  HD
ATOM     72 1HH1 ARG P   5      28.824  28.955  -4.511  1.00 17.19 LIG 0.17  HD
ATOM     73 2HH1 ARG P   5      28.075  29.043  -3.226  1.00 17.19 LIG 0.17  HD
ENDBRANCH 64 65
ENDBRANCH 63 64
ENDBRANCH 62 63
ENDBRANCH 1 62
TORSDOF 28
ENDMDL
MODEL 45
USER: ADFR SOLUTION from run 64
USER: SCORE 19.281438 LL:  -6.663 LR: -15.854 RR:   0.000 FEB:  -7.502
USER: RMSD 7.750015
USER: SEED 63
USER: STATUS no improvement in best in 4 clusters for 5 generations
USER: GENES 30
USER: genes 0 Translation |==|  0.61471 0.55059 0.49934
USER: genes 1 Rotation |==|  0.36307 0.07077 0.70637 0.56653
USER: genes 2 Torsion [CB]-CA--N-[C] |==|  0.83325
USER: genes 3 Torsion [N]-C--CA-[N] |==|  0.41577
USER: genes 4 Torsion [C]-CA--N-[C] |==|  0.78978
USER: genes 5 Torsion [N]-C--CA-[N] |==|  0.89089
USER: genes 6 Torsion [C]-CA--CB-[CG] |==|  0.69959
USER: genes 7 Torsion [CA]-CB--CG-[CD] |==|  0.17754
USER: genes 8 Torsion [CB]-CG--CD-[OE1] |==|  0.69657
USER: genes 9 Torsion [C]-CA--N-[C] |==|  0.84420
USER: genes 10 Torsion [N]-C--CA-[N] |==|  0.84172
USER: genes 11 Torsion [C]-CA--CB-[CG] |==|  0.19801
USER: genes 12 Torsion [CA]-CB--CG-[CD2] |==|  0.72624
USER: genes 13 Torsion [N]-CA--C-[N] |==|  0.07778
USER: genes 14 Torsion [C]-N--CA-[CB] |==|  0.14163
USER: genes 15 Torsion [N]-CA--CB-[CG] |==|  0.67184
USER: genes 16 Torsion [CA]-CB--CG-[CD2] |==|  0.96884
USER: genes 17 Torsion [N]-CA--C-[N] |==|  0.30968
USER: genes 18 Torsion [C]-N--CA-[CB] |==|  0.82760
USER: genes 19 Torsion [N]-CA--C-[N] |==|  0.51249
USER: genes 20 Torsion [C]-N--CA-[CB] |==|  0.86266
USER: genes 21 Torsion [N]-CA--CB-[OG] |==|  0.27576
USER: genes 22 Torsion [CA]-CB--OG-[HG] |==|  0.76698
USER: genes 23 Torsion [N]-CA--C-[OXT] |==|  0.05585
USER: genes 24 Torsion [N]-CA--CB-[CG] |==|  0.72957
USER: genes 25 Torsion [CA]-CB--CG-[OD2] |==|  0.16214
USER: genes 26 Torsion [N]-CA--CB-[CG] |==|  0.71735
USER: genes 27 Torsion [CA]-CB--CG-[CD] |==|  0.98434
USER: genes 28 Torsion [CB]-CG--CD-[NE] |==|  0.32911
USER: genes 29 Torsion [CG]-CD--NE-[HE] |==|  0.71094
ROOT
ATOM      1  CA  ARG P   5      34.353  30.229  -6.614  1.00 16.30 LIG 0.18  C 
ENDROOT
BRANCH 1 2
ATOM      2  N   ARG P   5      35.321  29.465  -7.412  1.00 16.36 LIG-0.35  N 
ATOM      3  C   PHE P   4      34.931  28.737  -8.443  1.00 16.61 LIG 0.24  C 
ATOM      4 O    PHE P   4      33.771  28.722  -8.860  1.00 17.57 LIG-0.27  OA
ATOM      5 H    ARG P   5      36.137  29.535  -7.151  1.00 16.36 LIG 0.16  HD
BRANCH 3 6
ATOM      6  CA  PHE P   4      36.013  27.895  -9.119  1.00 17.34 LIG 0.18  C 
BRANCH 6 7
ATOM      7  N   PHE P   4      35.367  26.714  -9.661  1.00 18.03 LIG-0.35  N 
ATOM      8  C   GLU P   3      34.987  25.704  -8.877  1.00 20.04 LIG 0.24  C 
ATOM      9 O    GLU P   3      35.309  25.619  -7.702  1.00 20.03 LIG-0.27  OA
ATOM     10 H    PHE P   4      35.257  26.729 -10.514  1.00 18.03 LIG 0.16  HD
BRANCH 8 11
ATOM     11  CA  GLU P   3      34.134  24.615  -9.529  1.00 21.92 LIG 0.18  C 
BRANCH 11 12
ATOM     12  CB  GLU P   3      35.031  23.615 -10.261  1.00 22.70 LIG 0.04  C 
BRANCH 12 13
ATOM     13  CG  GLU P   3      34.929  23.744 -11.769  1.00 23.46 LIG 0.12  C 
BRANCH 13 14
ATOM     14  CD  GLU P   3      35.410  25.070 -12.314  1.00 23.38 LIG 0.17  C 
ATOM     15 OE1  GLU P   3      34.542  25.855 -12.761  1.00 24.20 LIG-0.65  OA
ATOM     16 OE2  GLU P   3      36.635  25.315 -12.314  1.00 25.77 LIG-0.65  OA
ENDBRANCH 13 14
ENDBRANCH 12 13
ENDBRANCH 11 12
BRANCH 11 17
ATOM     17  N   GLU P   3      33.187  25.251 -10.451  1.00 23.31 LIG-0.35  N 
ATOM     18 H    GLU P   3      33.226  24.965 -11.261  1.00 23.31 LIG 0.16  HD
ATOM     19  C   ALA P   2      32.351  26.191 -10.030  1.00 24.65 LIG 0.26  C 
ATOM     20 O    ALA P   2      32.144  26.401  -8.822  1.00 25.69 LIG-0.27  OA
BRANCH 19 21
ATOM     21  CA  ALA P   2      31.579  26.985 -11.100  1.00 24.82 LIG 0.40  C 
ATOM     22  N   ALA P   2      32.522  27.633 -12.045  1.00 26.06 LIG 0.61  N 
ATOM     23  CB  ALA P   2      30.605  26.080 -11.880  1.00 25.99 LIG 0.06  C 
ENDBRANCH 19 21
ENDBRANCH 11 17
ENDBRANCH 8 11
ENDBRANCH 6 7
BRANCH 6 24
ATOM     24  CB  PHE P   4      36.715  28.704 -10.230  1.00 16.70 LIG 0.07  C 
BRANCH 24 25
ATOM     25  CG  PHE P   4      37.616  29.809  -9.716  1.00 15.87 LIG-0.06  A 
ATOM     26  CD2 PHE P   4      37.166  31.123  -9.669  1.00 14.31 LIG 0.01  A 
ATOM     27  CE2 PHE P   4      37.998  32.150  -9.224  1.00 14.76 LIG 0.00  A 
ATOM     28  CZ  PHE P   4      39.313  31.870  -8.828  1.00 16.46 LIG 0.00  A 
ATOM     29  CE1 PHE P   4      39.774  30.559  -8.866  1.00 16.70 LIG 0.00  A 
ATOM     30  CD1 PHE P   4      38.922  29.547  -9.324  1.00 16.73 LIG 0.01  A 
ENDBRANCH 24 25
ENDBRANCH 6 24
ENDBRANCH 3 6
ENDBRANCH 1 2
BRANCH 1 31
ATOM     31  C   ARG P   5      33.319  29.319  -5.933  1.00 16.50 LIG 0.24  C 
ATOM     32  N   HIS P   6      33.709  28.079  -5.648  1.00 17.02 LIG-0.35  N 
ATOM     33 H    HIS P   6      34.466  27.742  -5.876  1.00 17.02 LIG 0.16  HD
ATOM     34 O    ARG P   5      32.188  29.739  -5.656  1.00 15.68 LIG-0.27  OA
BRANCH 32 35
ATOM     35  CA  HIS P   6      32.828  27.174  -4.896  1.00 18.55 LIG 0.18  C 
BRANCH 35 36
ATOM     36  CB  HIS P   6      31.438  27.124  -5.515  1.00 17.94 LIG 0.10  C 
BRANCH 36 37
ATOM     37  CG  HIS P   6      30.339  27.600  -4.623  1.00 17.06 LIG 0.06  A 
ATOM     38 ND1  HIS P   6      29.077  27.893  -5.089  1.00 15.40 LIG-0.24  NA
ATOM     39  CE1 HIS P   6      28.330  28.333  -4.093  1.00 15.09 LIG 0.23  A 
ATOM     40 NE2  HIS P   6      29.060  28.331  -2.993  1.00 16.22 LIG-0.25  NA
ATOM     41  CD2 HIS P   6      30.326  27.883  -3.302  1.00 16.02 LIG 0.14  A 
ENDBRANCH 36 37
ENDBRANCH 35 36
BRANCH 35 42
ATOM     42  C   HIS P   6      33.417  25.790  -5.013  1.00 20.42 LIG 0.24  C 
ATOM     43 O    HIS P   6      33.388  25.216  -6.098  1.00 21.09 LIG-0.27  OA
ATOM     44  N   ASP P   7      33.933  25.221  -3.939  1.00 22.91 LIG-0.34  N 
ATOM     45 H    ASP P   7      33.936  25.549  -3.144  1.00 22.91 LIG 0.16  HD
BRANCH 44 46
ATOM     46  CA  ASP P   7      34.569  23.896  -4.103  1.00 24.36 LIG 0.19  C 
BRANCH 46 47
ATOM     47  C   ASP P   7      35.808  23.914  -4.988  1.00 26.16 LIG 0.24  C 
ATOM     48  N   SER P   8      36.371  22.732  -5.248  1.00 27.90 LIG-0.34  N 
ATOM     49 H    SER P   8      36.122  21.987  -4.897  1.00 27.90 LIG 0.16  HD
ATOM     50 O    ASP P   7      36.264  24.964  -5.425  1.00 26.07 LIG-0.27  OA
BRANCH 48 51
ATOM     51  CA  SER P   8      37.492  22.623  -6.186  1.00 28.60 LIG 0.21  C 
BRANCH 51 52
ATOM     52  CB  SER P   8      37.158  23.352  -7.486  1.00 29.65 LIG 0.20  C 
BRANCH 52 53
ATOM     53 OG   SER P   8      37.752  24.639  -7.506  1.00 30.91 LIG-0.40  OA
ATOM     54 HG   SER P   8      37.259  25.182  -7.097  1.00 30.91 LIG 0.21  HD
ENDBRANCH 52 53
ENDBRANCH 51 52
BRANCH 51 55
ATOM     55  C   SER P   8      38.839  23.123  -5.574  1.00 29.85 LIG 0.20  C 
ATOM     56 OXT  SER P   8      39.009  23.210  -4.351  1.00 30.94 LIG-0.65  OA
ATOM     57 O    SER P   8      39.813  23.505  -6.242  1.00 30.51 LIG-0.65  OA
ENDBRANCH 51 55
ENDBRANCH 48 51
ENDBRANCH 46 47
BRANCH 46 58
ATOM     58  CB  ASP P   7      33.561  22.870  -4.577  1.00 24.61 LIG 0.15  C 
BRANCH 58 59
ATOM     59  CG  ASP P   7      33.013  22.058  -3.431  1.00 26.42 LIG 0.17  C 
ATOM     60 OD2  ASP P   7      32.444  22.648  -2.505  1.00 29.83 LIG-0.65  OA
ATOM     61 OD1  ASP P   7      33.137  20.809  -3.480  1.00 30.09 LIG-0.65  OA
ENDBRANCH 58 59
ENDBRANCH 46 58
ENDBRANCH 44 46
ENDBRANCH 35 42
ENDBRANCH 32 35
ENDBRANCH 1 31
BRANCH 1 62
ATOM     62  CB  ARG P   5      33.640  31.237  -7.500  1.00 16.24 LIG 0.04  C 
BRANCH 62 63
ATOM     63  CG  ARG P   5      34.136  32.665  -7.382  1.00 15.73 LIG 0.02  C 
BRANCH 63 64
ATOM     64  CD  ARG P   5      35.157  32.764  -6.282  1.00 15.69 LIG 0.14  C 
BRANCH 64 65
ATOM     65  NE  ARG P   5      36.487  33.195  -6.732  1.00 15.25 LIG-0.23  N 
ATOM     66 HE   ARG P   5      37.111  32.607  -6.799  1.00 15.25 LIG 0.18  HD
ATOM     67  CZ  ARG P   5      36.765  34.463  -7.042  1.00 16.06 LIG 0.67  C 
ATOM     68  NH2 ARG P   5      37.991  34.817  -7.430  1.00 16.00 LIG-0.23  N 
ATOM     69  NH1 ARG P   5      35.823  35.390  -6.932  1.00 17.19 LIG-0.23  N 
ATOM     70 1HH2 ARG P   5      38.612  34.225  -7.482  1.00 16.00 LIG 0.17  HD
ATOM     71 2HH2 ARG P   5      38.161  35.636  -7.627  1.00 16.00 LIG 0.17  HD
ATOM     72 1HH1 ARG P   5      35.036  35.173  -6.662  1.00 17.19 LIG 0.17  HD
ATOM     73 2HH1 ARG P   5      35.999  36.208  -7.132  1.00 17.19 LIG 0.17  HD
ENDBRANCH 64 65
ENDBRANCH 63 64
ENDBRANCH 62 63
ENDBRANCH 1 62
TORSDOF 28
ENDMDL
MODEL 46
USER: ADFR SOLUTION from run 51
USER: SCORE 18.337002 LL:  -5.318 LR: -15.833 RR:   0.000 FEB:  -7.480
USER: RMSD 6.783551
USER: SEED 50
USER: STATUS no improvement in best in 6 clusters for 5 generations
USER: GENES 30
USER: genes 0 Translation |==|  0.52314 0.47359 0.60315
USER: genes 1 Rotation |==|  0.73640 0.09644 0.37627 0.62630
USER: genes 2 Torsion [CB]-CA--N-[C] |==|  0.24076
USER: genes 3 Torsion [N]-C--CA-[N] |==|  0.88333
USER: genes 4 Torsion [C]-CA--N-[C] |==|  0.78058
USER: genes 5 Torsion [N]-C--CA-[N] |==|  0.13075
USER: genes 6 Torsion [C]-CA--CB-[CG] |==|  0.47813
USER: genes 7 Torsion [CA]-CB--CG-[CD] |==|  0.18709
USER: genes 8 Torsion [CB]-CG--CD-[OE1] |==|  0.60976
USER: genes 9 Torsion [C]-CA--N-[C] |==|  0.13617
USER: genes 10 Torsion [N]-C--CA-[N] |==|  0.71213
USER: genes 11 Torsion [C]-CA--CB-[CG] |==|  0.30785
USER: genes 12 Torsion [CA]-CB--CG-[CD2] |==|  0.34172
USER: genes 13 Torsion [N]-CA--C-[N] |==|  0.29533
USER: genes 14 Torsion [C]-N--CA-[CB] |==|  0.39791
USER: genes 15 Torsion [N]-CA--CB-[CG] |==|  0.81984
USER: genes 16 Torsion [CA]-CB--CG-[CD2] |==|  0.92024
USER: genes 17 Torsion [N]-CA--C-[N] |==|  0.89749
USER: genes 18 Torsion [C]-N--CA-[CB] |==|  0.82883
USER: genes 19 Torsion [N]-CA--C-[N] |==|  0.32497
USER: genes 20 Torsion [C]-N--CA-[CB] |==|  0.41626
USER: genes 21 Torsion [N]-CA--CB-[OG] |==|  0.01674
USER: genes 22 Torsion [CA]-CB--OG-[HG] |==|  0.12182
USER: genes 23 Torsion [N]-CA--C-[OXT] |==|  0.42081
USER: genes 24 Torsion [N]-CA--CB-[CG] |==|  0.68673
USER: genes 25 Torsion [CA]-CB--CG-[OD2] |==|  0.69164
USER: genes 26 Torsion [N]-CA--CB-[CG] |==|  0.87091
USER: genes 27 Torsion [CA]-CB--CG-[CD] |==|  0.31089
USER: genes 28 Torsion [CB]-CG--CD-[NE] |==|  0.92137
USER: genes 29 Torsion [CG]-CD--NE-[HE] |==|  0.07271
ROOT
ATOM      1  CA  ARG P   5      32.224  28.381  -4.590  1.00 16.30 LIG 0.18  C 
ENDROOT
BRANCH 1 2
ATOM      2  N   ARG P   5      32.028  29.816  -4.840  1.00 16.36 LIG-0.35  N 
ATOM      3  C   PHE P   4      32.283  30.713  -3.904  1.00 16.61 LIG 0.24  C 
ATOM      4 O    PHE P   4      32.783  30.428  -2.813  1.00 17.57 LIG-0.27  OA
ATOM      5 H    ARG P   5      31.740  30.007  -5.628  1.00 16.36 LIG 0.16  HD
BRANCH 3 6
ATOM      6  CA  PHE P   4      31.927  32.159  -4.245  1.00 17.34 LIG 0.18  C 
BRANCH 6 7
ATOM      7  N   PHE P   4      32.335  32.394  -5.617  1.00 18.03 LIG-0.35  N 
ATOM      8  C   GLU P   3      33.608  32.634  -5.936  1.00 20.04 LIG 0.24  C 
ATOM      9 O    GLU P   3      34.472  32.850  -5.101  1.00 20.03 LIG-0.27  OA
ATOM     10 H    PHE P   4      31.693  32.364  -6.189  1.00 18.03 LIG 0.16  HD
BRANCH 8 11
ATOM     11  CA  GLU P   3      33.947  32.658  -7.428  1.00 21.92 LIG 0.18  C 
BRANCH 11 12
ATOM     12  CB  GLU P   3      35.359  33.207  -7.636  1.00 22.70 LIG 0.04  C 
BRANCH 12 13
ATOM     13  CG  GLU P   3      35.823  33.078  -9.075  1.00 23.46 LIG 0.12  C 
BRANCH 13 14
ATOM     14  CD  GLU P   3      35.065  33.948 -10.052  1.00 23.38 LIG 0.17  C 
ATOM     15 OE1  GLU P   3      34.792  33.451 -11.170  1.00 24.20 LIG-0.65  OA
ATOM     16 OE2  GLU P   3      34.765  35.114  -9.718  1.00 25.77 LIG-0.65  OA
ENDBRANCH 13 14
ENDBRANCH 12 13
ENDBRANCH 11 12
BRANCH 11 17
ATOM     17  N   GLU P   3      32.950  33.482  -8.120  1.00 23.31 LIG-0.35  N 
ATOM     18 H    GLU P   3      32.606  33.118  -8.820  1.00 23.31 LIG 0.16  HD
ATOM     19  C   ALA P   2      32.630  34.689  -7.671  1.00 24.65 LIG 0.26  C 
ATOM     20 O    ALA P   2      32.949  35.079  -6.535  1.00 25.69 LIG-0.27  OA
BRANCH 19 21
ATOM     21  CA  ALA P   2      31.778  35.584  -8.590  1.00 24.82 LIG 0.40  C 
ATOM     22  N   ALA P   2      32.622  36.626  -9.226  1.00 26.06 LIG 0.61  N 
ATOM     23  CB  ALA P   2      31.066  34.758  -9.680  1.00 25.99 LIG 0.06  C 
ENDBRANCH 19 21
ENDBRANCH 11 17
ENDBRANCH 8 11
ENDBRANCH 6 7
BRANCH 6 24
ATOM     24  CB  PHE P   4      30.413  32.402  -4.065  1.00 16.70 LIG 0.07  C 
BRANCH 24 25
ATOM     25  CG  PHE P   4      30.066  33.307  -2.899  1.00 15.87 LIG-0.06  A 
ATOM     26  CD2 PHE P   4      29.326  34.466  -3.102  1.00 14.31 LIG 0.01  A 
ATOM     27  CE2 PHE P   4      29.027  35.319  -2.040  1.00 14.76 LIG 0.00  A 
ATOM     28  CZ  PHE P   4      29.483  35.023  -0.748  1.00 16.46 LIG 0.00  A 
ATOM     29  CE1 PHE P   4      30.219  33.864  -0.532  1.00 16.70 LIG 0.00  A 
ATOM     30  CD1 PHE P   4      30.514  33.028  -1.615  1.00 16.73 LIG 0.01  A 
ENDBRANCH 24 25
ENDBRANCH 6 24
ENDBRANCH 3 6
ENDBRANCH 1 2
BRANCH 1 31
ATOM     31  C   ARG P   5      32.563  27.611  -5.876  1.00 16.50 LIG 0.24  C 
ATOM     32  N   HIS P   6      33.824  27.212  -6.020  1.00 17.02 LIG-0.35  N 
ATOM     33 H    HIS P   6      34.462  27.410  -5.479  1.00 17.02 LIG 0.16  HD
ATOM     34 O    ARG P   5      31.690  27.372  -6.720  1.00 15.68 LIG-0.27  OA
BRANCH 32 35
ATOM     35  CA  HIS P   6      34.215  26.373  -7.161  1.00 18.55 LIG 0.18  C 
BRANCH 35 36
ATOM     36  CB  HIS P   6      35.605  26.745  -7.662  1.00 17.94 LIG 0.10  C 
BRANCH 36 37
ATOM     37  CG  HIS P   6      35.715  28.122  -8.232  1.00 17.06 LIG 0.06  A 
ATOM     38 ND1  HIS P   6      36.868  28.869  -8.151  1.00 15.40 LIG-0.24  NA
ATOM     39  CE1 HIS P   6      36.665  30.055  -8.695  1.00 15.09 LIG 0.23  A 
ATOM     40 NE2  HIS P   6      35.420  30.103  -9.133  1.00 16.22 LIG-0.25  NA
ATOM     41  CD2 HIS P   6      34.803  28.904  -8.847  1.00 16.02 LIG 0.14  A 
ENDBRANCH 36 37
ENDBRANCH 35 36
BRANCH 35 42
ATOM     42  C   HIS P   6      34.291  24.953  -6.657  1.00 20.42 LIG 0.24  C 
ATOM     43 O    HIS P   6      33.911  24.039  -7.382  1.00 21.09 LIG-0.27  OA
ATOM     44  N   ASP P   7      34.748  24.730  -5.439  1.00 22.91 LIG-0.34  N 
ATOM     45 H    ASP P   7      34.979  25.330  -4.868  1.00 22.91 LIG 0.16  HD
BRANCH 44 46
ATOM     46  CA  ASP P   7      34.879  23.323  -5.002  1.00 24.36 LIG 0.19  C 
BRANCH 46 47
ATOM     47  C   ASP P   7      35.913  22.529  -5.789  1.00 26.16 LIG 0.24  C 
ATOM     48  N   SER P   8      36.959  22.066  -5.101  1.00 27.90 LIG-0.34  N 
ATOM     49 H    SER P   8      37.114  22.246  -4.274  1.00 27.90 LIG 0.16  HD
ATOM     50 O    ASP P   7      35.789  22.340  -6.994  1.00 26.07 LIG-0.27  OA
BRANCH 48 51
ATOM     51  CA  SER P   8      37.947  21.189  -5.735  1.00 28.60 LIG 0.21  C 
BRANCH 51 52
ATOM     52  CB  SER P   8      39.318  21.395  -5.092  1.00 29.65 LIG 0.20  C 
BRANCH 52 53
ATOM     53 OG   SER P   8      39.222  22.269  -3.980  1.00 30.91 LIG-0.40  OA
ATOM     54 HG   SER P   8      38.551  22.063  -3.518  1.00 30.91 LIG 0.21  HD
ENDBRANCH 52 53
ENDBRANCH 51 52
BRANCH 51 55
ATOM     55  C   SER P   8      37.520  19.687  -5.712  1.00 29.85 LIG 0.20  C 
ATOM     56 OXT  SER P   8      37.891  18.888  -6.582  1.00 30.94 LIG-0.65  OA
ATOM     57 O    SER P   8      36.760  19.187  -4.868  1.00 30.51 LIG-0.65  OA
ENDBRANCH 51 55
ENDBRANCH 48 51
ENDBRANCH 46 47
BRANCH 46 58
ATOM     58  CB  ASP P   7      33.532  22.633  -4.998  1.00 24.61 LIG 0.15  C 
BRANCH 58 59
ATOM     59  CG  ASP P   7      33.090  22.285  -3.600  1.00 26.42 LIG 0.17  C 
ATOM     60 OD2  ASP P   7      33.049  21.094  -3.269  1.00 29.83 LIG-0.65  OA
ATOM     61 OD1  ASP P   7      32.805  23.226  -2.819  1.00 30.09 LIG-0.65  OA
ENDBRANCH 58 59
ENDBRANCH 46 58
ENDBRANCH 44 46
ENDBRANCH 35 42
ENDBRANCH 32 35
ENDBRANCH 1 31
BRANCH 1 62
ATOM     62  CB  ARG P   5      30.972  27.795  -3.959  1.00 16.24 LIG 0.04  C 
BRANCH 62 63
ATOM     63  CG  ARG P   5      30.386  28.601  -2.817  1.00 15.73 LIG 0.02  C 
BRANCH 63 64
ATOM     64  CD  ARG P   5      29.061  29.183  -3.228  1.00 15.69 LIG 0.14  C 
BRANCH 64 65
ATOM     65  NE  ARG P   5      28.935  29.433  -4.670  1.00 15.25 LIG-0.23  N 
ATOM     66 HE   ARG P   5      29.406  28.962  -5.213  1.00 15.25 LIG 0.18  HD
ATOM     67  CZ  ARG P   5      28.119  30.364  -5.170  1.00 16.06 LIG 0.67  C 
ATOM     68  NH2 ARG P   5      28.049  30.572  -6.486  1.00 16.00 LIG-0.23  N 
ATOM     69  NH1 ARG P   5      27.395  31.114  -4.350  1.00 17.19 LIG-0.23  N 
ATOM     70 1HH2 ARG P   5      28.532  30.105  -7.021  1.00 16.00 LIG 0.17  HD
ATOM     71 2HH2 ARG P   5      27.520  31.174  -6.798  1.00 16.00 LIG 0.17  HD
ATOM     72 1HH1 ARG P   5      27.452  31.000  -3.500  1.00 17.19 LIG 0.17  HD
ATOM     73 2HH1 ARG P   5      26.868  31.714  -4.670  1.00 17.19 LIG 0.17  HD
ENDBRANCH 64 65
ENDBRANCH 63 64
ENDBRANCH 62 63
ENDBRANCH 1 62
TORSDOF 28
ENDMDL
MODEL 47
USER: ADFR SOLUTION from run 137
USER: SCORE 19.524379 LL:  -5.998 LR: -15.816 RR:   0.000 FEB:  -7.464
USER: RMSD 8.615863
USER: SEED 136
USER: STATUS no improvement in best in 7 clusters for 5 generations
USER: GENES 30
USER: genes 0 Translation |==|  0.55788 0.40717 0.58250
USER: genes 1 Rotation |==|  0.63059 0.02696 0.59574 0.50410
USER: genes 2 Torsion [CB]-CA--N-[C] |==|  0.86060
USER: genes 3 Torsion [N]-C--CA-[N] |==|  0.90098
USER: genes 4 Torsion [C]-CA--N-[C] |==|  0.76677
USER: genes 5 Torsion [N]-C--CA-[N] |==|  0.32314
USER: genes 6 Torsion [C]-CA--CB-[CG] |==|  0.66934
USER: genes 7 Torsion [CA]-CB--CG-[CD] |==|  0.53895
USER: genes 8 Torsion [CB]-CG--CD-[OE1] |==|  0.40773
USER: genes 9 Torsion [C]-CA--N-[C] |==|  0.62367
USER: genes 10 Torsion [N]-C--CA-[N] |==|  0.50251
USER: genes 11 Torsion [C]-CA--CB-[CG] |==|  0.55404
USER: genes 12 Torsion [CA]-CB--CG-[CD2] |==|  0.91724
USER: genes 13 Torsion [N]-CA--C-[N] |==|  0.90457
USER: genes 14 Torsion [C]-N--CA-[CB] |==|  0.40685
USER: genes 15 Torsion [N]-CA--CB-[CG] |==|  0.10028
USER: genes 16 Torsion [CA]-CB--CG-[CD2] |==|  0.26932
USER: genes 17 Torsion [N]-CA--C-[N] |==|  0.60865
USER: genes 18 Torsion [C]-N--CA-[CB] |==|  0.83817
USER: genes 19 Torsion [N]-CA--C-[N] |==|  0.42023
USER: genes 20 Torsion [C]-N--CA-[CB] |==|  0.41958
USER: genes 21 Torsion [N]-CA--CB-[OG] |==|  0.23387
USER: genes 22 Torsion [CA]-CB--OG-[HG] |==|  0.09411
USER: genes 23 Torsion [N]-CA--C-[OXT] |==|  0.73878
USER: genes 24 Torsion [N]-CA--CB-[CG] |==|  0.76309
USER: genes 25 Torsion [CA]-CB--CG-[OD2] |==|  0.28259
USER: genes 26 Torsion [N]-CA--CB-[CG] |==|  0.86307
USER: genes 27 Torsion [CA]-CB--CG-[CD] |==|  0.88715
USER: genes 28 Torsion [CB]-CG--CD-[NE] |==|  0.82805
USER: genes 29 Torsion [CG]-CD--NE-[HE] |==|  0.27339
ROOT
ATOM      1  CA  ARG P   5      33.032  26.787  -4.992  1.00 16.30 LIG 0.18  C 
ENDROOT
BRANCH 1 2
ATOM      2  N   ARG P   5      33.853  27.654  -5.848  1.00 16.36 LIG-0.35  N 
ATOM      3  C   PHE P   4      33.762  27.598  -7.164  1.00 16.61 LIG 0.24  C 
ATOM      4 O    PHE P   4      32.934  26.900  -7.755  1.00 17.57 LIG-0.27  OA
ATOM      5 H    ARG P   5      34.381  28.184  -5.422  1.00 16.36 LIG 0.16  HD
BRANCH 3 6
ATOM      6  CA  PHE P   4      34.751  28.463  -7.945  1.00 17.34 LIG 0.18  C 
BRANCH 6 7
ATOM      7  N   PHE P   4      34.949  29.685  -7.188  1.00 18.03 LIG-0.35  N 
ATOM      8  C   GLU P   3      34.108  30.716  -7.295  1.00 20.04 LIG 0.24  C 
ATOM      9 O    GLU P   3      33.239  30.777  -8.150  1.00 20.03 LIG-0.27  OA
ATOM     10 H    PHE P   4      35.641  29.679  -6.677  1.00 18.03 LIG 0.16  HD
BRANCH 8 11
ATOM     11  CA  GLU P   3      34.300  31.861  -6.299  1.00 21.92 LIG 0.18  C 
BRANCH 11 12
ATOM     12  CB  GLU P   3      33.016  32.077  -5.495  1.00 22.70 LIG 0.04  C 
BRANCH 12 13
ATOM     13  CG  GLU P   3      32.438  33.466  -5.694  1.00 23.46 LIG 0.12  C 
BRANCH 13 14
ATOM     14  CD  GLU P   3      31.378  33.847  -4.685  1.00 23.38 LIG 0.17  C 
ATOM     15 OE1  GLU P   3      31.311  35.053  -4.351  1.00 24.20 LIG-0.65  OA
ATOM     16 OE2  GLU P   3      30.639  32.955  -4.218  1.00 25.77 LIG-0.65  OA
ENDBRANCH 13 14
ENDBRANCH 12 13
ENDBRANCH 11 12
BRANCH 11 17
ATOM     17  N   GLU P   3      34.670  33.070  -7.042  1.00 23.31 LIG-0.35  N 
ATOM     18 H    GLU P   3      34.205  33.213  -7.752  1.00 23.31 LIG 0.16  HD
ATOM     19  C   ALA P   2      35.652  33.857  -6.621  1.00 24.65 LIG 0.26  C 
ATOM     20 O    ALA P   2      36.128  33.766  -5.476  1.00 25.69 LIG-0.27  OA
BRANCH 19 21
ATOM     21  CA  ALA P   2      36.146  34.951  -7.585  1.00 24.82 LIG 0.40  C 
ATOM     22  N   ALA P   2      37.254  35.723  -6.970  1.00 26.06 LIG 0.61  N 
ATOM     23  CB  ALA P   2      36.614  34.352  -8.926  1.00 25.99 LIG 0.06  C 
ENDBRANCH 19 21
ENDBRANCH 11 17
ENDBRANCH 8 11
ENDBRANCH 6 7
BRANCH 6 24
ATOM     24  CB  PHE P   4      36.085  27.712  -8.147  1.00 16.70 LIG 0.07  C 
BRANCH 24 25
ATOM     25  CG  PHE P   4      37.257  28.613  -8.480  1.00 15.87 LIG-0.06  A 
ATOM     26  CD2 PHE P   4      37.059  29.805  -9.168  1.00 14.31 LIG 0.01  A 
ATOM     27  CE2 PHE P   4      38.136  30.626  -9.503  1.00 14.76 LIG 0.00  A 
ATOM     28  CZ  PHE P   4      39.442  30.251  -9.161  1.00 16.46 LIG 0.00  A 
ATOM     29  CE1 PHE P   4      39.652  29.063  -8.469  1.00 16.70 LIG 0.00  A 
ATOM     30  CD1 PHE P   4      38.557  28.252  -8.151  1.00 16.73 LIG 0.01  A 
ENDBRANCH 24 25
ENDBRANCH 6 24
ENDBRANCH 3 6
ENDBRANCH 1 2
BRANCH 1 31
ATOM     31  C   ARG P   5      33.492  25.321  -5.044  1.00 16.50 LIG 0.24  C 
ATOM     32  N   HIS P   6      33.967  24.884  -6.207  1.00 17.02 LIG-0.35  N 
ATOM     33 H    HIS P   6      33.971  25.342  -6.935  1.00 17.02 LIG 0.16  HD
ATOM     34 O    ARG P   5      33.431  24.602  -4.039  1.00 15.68 LIG-0.27  OA
BRANCH 32 35
ATOM     35  CA  HIS P   6      34.535  23.533  -6.322  1.00 18.55 LIG 0.18  C 
BRANCH 35 36
ATOM     36  CB  HIS P   6      34.258  22.938  -7.696  1.00 17.94 LIG 0.10  C 
BRANCH 36 37
ATOM     37  CG  HIS P   6      34.297  23.919  -8.822  1.00 17.06 LIG 0.06  A 
ATOM     38 ND1  HIS P   6      33.205  24.673  -9.188  1.00 15.40 LIG-0.24  NA
ATOM     39  CE1 HIS P   6      33.513  25.415 -10.237  1.00 15.09 LIG 0.23  A 
ATOM     40 NE2  HIS P   6      34.770  25.174 -10.562  1.00 16.22 LIG-0.25  NA
ATOM     41  CD2 HIS P   6      35.280  24.233  -9.692  1.00 16.02 LIG 0.14  A 
ENDBRANCH 36 37
ENDBRANCH 35 36
BRANCH 35 42
ATOM     42  C   HIS P   6      36.032  23.674  -6.192  1.00 20.42 LIG 0.24  C 
ATOM     43 O    HIS P   6      36.491  24.486  -5.395  1.00 21.09 LIG-0.27  OA
ATOM     44  N   ASP P   7      36.812  22.931  -6.956  1.00 22.91 LIG-0.34  N 
ATOM     45 H    ASP P   7      36.551  22.385  -7.566  1.00 22.91 LIG 0.16  HD
BRANCH 44 46
ATOM     46  CA  ASP P   7      38.273  23.038  -6.753  1.00 24.36 LIG 0.19  C 
BRANCH 46 47
ATOM     47  C   ASP P   7      38.752  22.473  -5.422  1.00 26.16 LIG 0.24  C 
ATOM     48  N   SER P   8      39.997  21.992  -5.393  1.00 27.90 LIG-0.34  N 
ATOM     49 H    SER P   8      40.506  21.920  -6.082  1.00 27.90 LIG 0.16  HD
ATOM     50 O    ASP P   7      38.021  22.455  -4.438  1.00 26.07 LIG-0.27  OA
BRANCH 48 51
ATOM     51  CA  SER P   8      40.598  21.538  -4.135  1.00 28.60 LIG 0.21  C 
BRANCH 51 52
ATOM     52  CB  SER P   8      41.624  20.441  -4.413  1.00 29.65 LIG 0.20  C 
BRANCH 52 53
ATOM     53 OG   SER P   8      42.878  21.005  -4.757  1.00 30.91 LIG-0.40  OA
ATOM     54 HG   SER P   8      42.991  21.721  -4.332  1.00 30.91 LIG 0.21  HD
ENDBRANCH 52 53
ENDBRANCH 51 52
BRANCH 51 55
ATOM     55  C   SER P   8      41.215  22.709  -3.306  1.00 29.85 LIG 0.20  C 
ATOM     56 OXT  SER P   8      42.412  23.014  -3.396  1.00 30.94 LIG-0.65  OA
ATOM     57 O    SER P   8      40.588  23.390  -2.479  1.00 30.51 LIG-0.65  OA
ENDBRANCH 51 55
ENDBRANCH 48 51
ENDBRANCH 46 47
BRANCH 46 58
ATOM     58  CB  ASP P   7      38.741  24.463  -6.953  1.00 24.61 LIG 0.15  C 
BRANCH 58 59
ATOM     59  CG  ASP P   7      39.012  24.761  -8.405  1.00 26.42 LIG 0.17  C 
ATOM     60 OD2  ASP P   7      38.169  25.398  -9.048  1.00 29.83 LIG-0.65  OA
ATOM     61 OD1  ASP P   7      40.100  24.370  -8.896  1.00 30.09 LIG-0.65  OA
ENDBRANCH 58 59
ENDBRANCH 46 58
ENDBRANCH 44 46
ENDBRANCH 35 42
ENDBRANCH 32 35
ENDBRANCH 1 31
BRANCH 1 62
ATOM     62  CB  ARG P   5      31.575  26.879  -5.416  1.00 16.24 LIG 0.04  C 
BRANCH 62 63
ATOM     63  CG  ARG P   5      31.037  28.288  -5.577  1.00 15.73 LIG 0.02  C 
BRANCH 63 64
ATOM     64  CD  ARG P   5      31.556  29.163  -4.470  1.00 15.69 LIG 0.14  C 
BRANCH 64 65
ATOM     65  NE  ARG P   5      31.143  28.741  -3.125  1.00 15.25 LIG-0.23  N 
ATOM     66 HE   ARG P   5      31.692  28.279  -2.650  1.00 15.25 LIG 0.18  HD
ATOM     67  CZ  ARG P   5      29.950  29.045  -2.610  1.00 16.06 LIG 0.67  C 
ATOM     68  NH2 ARG P   5      29.607  28.626  -1.391  1.00 16.00 LIG-0.23  N 
ATOM     69  NH1 ARG P   5      29.081  29.743  -3.329  1.00 17.19 LIG-0.23  N 
ATOM     70 1HH2 ARG P   5      30.157  28.155  -0.928  1.00 16.00 LIG 0.17  HD
ATOM     71 2HH2 ARG P   5      28.835  28.827  -1.068  1.00 16.00 LIG 0.17  HD
ATOM     72 1HH1 ARG P   5      29.287  29.998  -4.124  1.00 17.19 LIG 0.17  HD
ATOM     73 2HH1 ARG P   5      28.311  29.941  -3.000  1.00 17.19 LIG 0.17  HD
ENDBRANCH 64 65
ENDBRANCH 63 64
ENDBRANCH 62 63
ENDBRANCH 1 62
TORSDOF 28
ENDMDL
