MODEL 1
USER: ADFR SOLUTION from run 113
USER: SCORE 16.886170 LL:  -2.857 LR: -15.476 RR:   0.000 FEB: -11.001
USER: RMSD 2.562882
USER: SEED 112
USER: STATUS no improvement in best in 1 clusters for 5 generations
USER: GENES 17
USER: genes 0 Translation |==|  0.51391 0.55221 0.49746
USER: genes 1 Rotation |==|  0.54933 0.47831 0.41230 0.98929
USER: genes 2 Torsion [C]-N--CA-[CB] |==|  0.36126
USER: genes 3 Torsion [N]-CA--C-[N] |==|  0.91394
USER: genes 4 Torsion [C]-N--CA-[C] |==|  0.19400
USER: genes 5 Torsion [N]-CA--CB-[CG] |==|  0.79948
USER: genes 6 Torsion [CA]-CB--CG-[CD2] |==|  0.48911
USER: genes 7 Torsion [N]-CA--C-[OXT] |==|  0.41816
USER: genes 8 Torsion [N]-CA--CB-[CG2] |==|  0.72622
USER: genes 9 Torsion [CA]-CB--OG1-[HG1] |==|  0.03461
USER: genes 10 Torsion [N]-C--CA-[N] |==|  0.32310
USER: genes 11 Torsion [C]-CA--CB-[CG] |==|  0.32589
USER: genes 12 Torsion [CA]-CB--CG-[CD] |==|  0.39319
USER: genes 13 Torsion [CB]-CG--CD-[OE1] |==|  0.29047
USER: genes 14 Torsion [C]-CA--N-[C] |==|  0.71508
USER: genes 15 Torsion [N]-C--CA-[N] |==|  0.95485
USER: genes 16 Torsion [C]-CA--N-[H3] |==|  0.41009
ROOT
ATOM      1  C   GLU S   2     -11.418  14.194  33.083  1.00 67.93 LIG 0.24  C 
ATOM      2 O    GLU S   2     -11.873  15.344  33.165  1.00 66.60 LIG-0.27  OA
ATOM      3  N   THR S   3     -10.213  13.922  32.599  1.00 66.34 LIG-0.34  N 
ATOM      4 H    THR S   3      -9.898  13.125  32.531  1.00 66.34 LIG 0.16  HD
ENDROOT
BRANCH 3 5
ATOM      5  CA  THR S   3      -9.304  14.960  32.134  1.00 65.04 LIG 0.20  C 
BRANCH 5 6
ATOM      6  C   THR S   3      -9.186  14.934  30.618  1.00 64.78 LIG 0.24  C 
ATOM      7 O    THR S   3      -8.971  15.960  29.961  1.00 64.25 LIG-0.27  OA
ATOM      8  N   PHE S   4      -9.327  13.734  30.072  1.00 64.25 LIG-0.34  N 
ATOM      9 H    PHE S   4      -9.488  13.022  30.527  1.00 64.25 LIG 0.16  HD
BRANCH 8 10
ATOM     10  CA  PHE S   4      -9.221  13.508  28.640  1.00 63.65 LIG 0.19  C 
BRANCH 10 11
ATOM     11  CB  PHE S   4     -10.107  14.495  27.914  1.00 60.49 LIG 0.07  C 
BRANCH 11 12
ATOM     12  CG  PHE S   4     -11.551  14.209  28.052  1.00 55.48 LIG-0.06  A 
ATOM     13  CD2 PHE S   4     -12.494  15.071  27.511  1.00 51.26 LIG 0.01  A 
ATOM     14  CE2 PHE S   4     -13.848  14.842  27.699  1.00 48.18 LIG 0.00  A 
ATOM     15  CZ  PHE S   4     -14.273  13.747  28.409  1.00 46.44 LIG 0.00  A 
ATOM     16  CE1 PHE S   4     -13.344  12.872  28.947  1.00 48.00 LIG 0.00  A 
ATOM     17  CD1 PHE S   4     -11.984  13.100  28.755  1.00 50.38 LIG 0.01  A 
ENDBRANCH 11 12
ENDBRANCH 10 11
BRANCH 10 18
ATOM     18  C   PHE S   4      -7.813  13.676  28.132  1.00 64.82 LIG 0.20  C 
ATOM     19 O    PHE S   4      -7.060  14.497  28.703  1.00 66.03 LIG-0.65  OA
ATOM     20 OXT  PHE S   4      -7.499  12.997  27.136  1.00 65.83 LIG-0.65  OA
ENDBRANCH 10 18
ENDBRANCH 8 10
ENDBRANCH 5 6
BRANCH 5 21
ATOM     21  CB  THR S   3      -7.933  14.762  32.770  1.00 64.83 LIG 0.15  C 
ATOM     22  CG2 THR S   3      -7.750  15.673  33.967  1.00 63.45 LIG 0.04  C 
BRANCH 21 23
ATOM     23 OG1  THR S   3      -7.827  13.403  33.197  1.00 64.80 LIG-0.39  OA
ATOM     24 HG1  THR S   3      -8.455  12.955  32.865  1.00 64.80 LIG 0.21  HD
ENDBRANCH 21 23
ENDBRANCH 5 21
ENDBRANCH 3 5
BRANCH 1 25
ATOM     25  CA  GLU S   2     -12.225  12.973  33.552  1.00 70.09 LIG 0.18  C 
BRANCH 25 26
ATOM     26  CB  GLU S   2     -13.549  12.870  32.788  1.00 72.94 LIG 0.04  C 
BRANCH 26 27
ATOM     27  CG  GLU S   2     -13.657  11.595  31.953  1.00 78.29 LIG 0.12  C 
BRANCH 27 28
ATOM     28  CD  GLU S   2     -15.045  10.987  31.958  1.00 81.85 LIG 0.17  C 
ATOM     29 OE1  GLU S   2     -15.763  11.122  30.945  1.00 85.61 LIG-0.65  OA
ATOM     30 OE2  GLU S   2     -15.423  10.372  32.982  1.00 84.00 LIG-0.65  OA
ENDBRANCH 27 28
ENDBRANCH 26 27
ENDBRANCH 25 26
BRANCH 25 31
ATOM     31  N   GLU S   2     -12.510  12.988  34.987  1.00 70.96 LIG-0.35  N 
ATOM     32  C   ALA S   1     -11.824  12.232  35.843  1.00 72.19 LIG 0.25  C 
ATOM     33 O    ALA S   1     -10.898  11.497  35.488  1.00 72.37 LIG-0.27  OA
ATOM     34 H    GLU S   2     -13.145  13.518  35.219  1.00 70.96 LIG 0.16  HD
BRANCH 32 35
ATOM     35  CA  ALA S   1     -12.230  12.314  37.321  1.00 72.54 LIG 0.27  C 
ATOM     36  CB  ALA S   1     -12.967  11.040  37.740  1.00 73.45 LIG 0.05  C 
BRANCH 35 37
ATOM     37  N   ALA S   1     -13.074  13.513  37.617  1.00 73.25 LIG-0.07  N 
ATOM     38 H2   ALA S   1     -13.523  13.749  36.886  1.00 73.25 LIG 0.28  HD
ATOM     39 H3   ALA S   1     -13.649  13.319  38.268  1.00 73.25 LIG 0.28  HD
ATOM     40 H1   ALA S   1     -12.553  14.187  37.875  1.00 73.25 LIG 0.28  HD
ENDBRANCH 35 37
ENDBRANCH 32 35
ENDBRANCH 25 31
ENDBRANCH 1 25
TORSDOF 15
ENDMDL
MODEL 2
USER: ADFR SOLUTION from run 115
USER: SCORE 14.579477 LL:  -2.672 LR: -14.028 RR:   0.000 FEB:  -9.554
USER: RMSD 5.290144
USER: SEED 114
USER: STATUS no improvement in best in 11 clusters for 5 generations
USER: GENES 17
USER: genes 0 Translation |==|  0.48286 0.40349 0.63309
USER: genes 1 Rotation |==|  0.62510 0.76675 0.10091 0.56261
USER: genes 2 Torsion [C]-N--CA-[CB] |==|  0.44137
USER: genes 3 Torsion [N]-CA--C-[N] |==|  0.27447
USER: genes 4 Torsion [C]-N--CA-[C] |==|  0.18822
USER: genes 5 Torsion [N]-CA--CB-[CG] |==|  0.79401
USER: genes 6 Torsion [CA]-CB--CG-[CD2] |==|  0.27801
USER: genes 7 Torsion [N]-CA--C-[OXT] |==|  0.85393
USER: genes 8 Torsion [N]-CA--CB-[CG2] |==|  0.47848
USER: genes 9 Torsion [CA]-CB--OG1-[HG1] |==|  0.88401
USER: genes 10 Torsion [N]-C--CA-[N] |==|  0.90848
USER: genes 11 Torsion [C]-CA--CB-[CG] |==|  0.31806
USER: genes 12 Torsion [CA]-CB--CG-[CD] |==|  0.06584
USER: genes 13 Torsion [CB]-CG--CD-[OE1] |==|  0.26802
USER: genes 14 Torsion [C]-CA--N-[C] |==|  0.60556
USER: genes 15 Torsion [N]-C--CA-[N] |==|  0.73051
USER: genes 16 Torsion [C]-CA--N-[H3] |==|  0.72340
ROOT
ATOM      1  C   GLU S   2     -11.931  11.852  35.931  1.00 67.93 LIG 0.24  C 
ATOM      2 O    GLU S   2     -10.786  11.492  35.622  1.00 66.60 LIG-0.27  OA
ATOM      3  N   THR S   3     -12.766  12.431  35.078  1.00 66.34 LIG-0.34  N 
ATOM      4 H    THR S   3     -13.558  12.691  35.290  1.00 66.34 LIG 0.16  HD
ENDROOT
BRANCH 3 5
ATOM      5  CA  THR S   3     -12.414  12.682  33.687  1.00 65.04 LIG 0.20  C 
BRANCH 5 6
ATOM      6  C   THR S   3     -11.541  13.921  33.566  1.00 64.78 LIG 0.24  C 
ATOM      7 O    THR S   3     -12.021  15.061  33.568  1.00 64.25 LIG-0.27  OA
ATOM      8  N   PHE S   4     -10.242  13.676  33.465  1.00 64.25 LIG-0.34  N 
ATOM      9 H    PHE S   4      -9.908  12.883  33.451  1.00 64.25 LIG 0.16  HD
BRANCH 8 10
ATOM     10  CA  PHE S   4      -9.250  14.735  33.366  1.00 63.65 LIG 0.19  C 
BRANCH 10 11
ATOM     11  CB  PHE S   4      -9.637  15.674  32.246  1.00 60.49 LIG 0.07  C 
BRANCH 11 12
ATOM     12  CG  PHE S   4      -9.402  15.116  30.896  1.00 55.48 LIG-0.06  A 
ATOM     13  CD2 PHE S   4     -10.451  14.577  30.167  1.00 51.26 LIG 0.01  A 
ATOM     14  CE2 PHE S   4     -10.222  13.991  28.931  1.00 48.18 LIG 0.00  A 
ATOM     15  CZ  PHE S   4      -8.954  13.954  28.407  1.00 46.44 LIG 0.00  A 
ATOM     16  CE1 PHE S   4      -7.898  14.497  29.120  1.00 48.00 LIG 0.00  A 
ATOM     17  CD1 PHE S   4      -8.129  15.089  30.359  1.00 50.38 LIG 0.01  A 
ENDBRANCH 11 12
ENDBRANCH 10 11
BRANCH 10 18
ATOM     18  C   PHE S   4      -9.136  15.538  34.635  1.00 64.82 LIG 0.20  C 
ATOM     19 O    PHE S   4      -8.011  15.663  35.170  1.00 66.03 LIG-0.65  OA
ATOM     20 OXT  PHE S   4     -10.196  16.004  35.093  1.00 65.83 LIG-0.65  OA
ENDBRANCH 10 18
ENDBRANCH 8 10
ENDBRANCH 5 6
BRANCH 5 21
ATOM     21  CB  THR S   3     -13.683  12.852  32.860  1.00 64.83 LIG 0.15  C 
ATOM     22  CG2 THR S   3     -13.360  13.300  31.449  1.00 63.45 LIG 0.04  C 
BRANCH 21 23
ATOM     23 OG1  THR S   3     -14.358  11.593  32.807  1.00 64.80 LIG-0.39  OA
ATOM     24 HG1  THR S   3     -13.797  10.979  32.690  1.00 64.80 LIG 0.21  HD
ENDBRANCH 21 23
ENDBRANCH 5 21
ENDBRANCH 3 5
BRANCH 1 25
ATOM     25  CA  GLU S   2     -12.487  11.643  37.349  1.00 70.09 LIG 0.18  C 
BRANCH 25 26
ATOM     26  CB  GLU S   2     -13.191  10.288  37.462  1.00 72.94 LIG 0.04  C 
BRANCH 26 27
ATOM     27  CG  GLU S   2     -12.486   9.328  38.418  1.00 78.29 LIG 0.12  C 
BRANCH 27 28
ATOM     28  CD  GLU S   2     -11.630  10.029  39.454  1.00 81.85 LIG 0.17  C 
ATOM     29 OE1  GLU S   2     -12.112  10.241  40.586  1.00 85.61 LIG-0.65  OA
ATOM     30 OE2  GLU S   2     -10.469  10.372  39.134  1.00 84.00 LIG-0.65  OA
ENDBRANCH 27 28
ENDBRANCH 26 27
ENDBRANCH 25 26
BRANCH 25 31
ATOM     31  N   GLU S   2     -13.417  12.695  37.763  1.00 70.96 LIG-0.35  N 
ATOM     32  C   ALA S   1     -13.437  13.157  39.011  1.00 72.19 LIG 0.25  C 
ATOM     33 O    ALA S   1     -12.665  12.752  39.885  1.00 72.37 LIG-0.27  OA
ATOM     34 H    GLU S   2     -13.935  12.977  37.138  1.00 70.96 LIG 0.16  HD
BRANCH 32 35
ATOM     35  CA  ALA S   1     -14.474  14.242  39.333  1.00 72.54 LIG 0.27  C 
ATOM     36  CB  ALA S   1     -15.671  14.131  38.386  1.00 73.45 LIG 0.05  C 
BRANCH 35 37
ATOM     37  N   ALA S   1     -13.898  15.622  39.268  1.00 73.25 LIG-0.07  N 
ATOM     38 H2   ALA S   1     -14.489  16.174  38.896  1.00 73.25 LIG 0.28  HD
ATOM     39 H3   ALA S   1     -13.707  15.904  40.090  1.00 73.25 LIG 0.28  HD
ATOM     40 H1   ALA S   1     -13.155  15.610  38.779  1.00 73.25 LIG 0.28  HD
ENDBRANCH 35 37
ENDBRANCH 32 35
ENDBRANCH 25 31
ENDBRANCH 1 25
TORSDOF 15
ENDMDL
MODEL 3
USER: ADFR SOLUTION from run 198
USER: SCORE 15.579350 LL:  -2.527 LR: -13.920 RR:   0.000 FEB:  -9.445
USER: RMSD 4.525598
USER: SEED 197
USER: STATUS no improvement in best in 4 clusters for 5 generations
USER: GENES 17
USER: genes 0 Translation |==|  0.50323 0.43193 0.64216
USER: genes 1 Rotation |==|  0.39545 0.17962 0.86897 0.51712
USER: genes 2 Torsion [C]-N--CA-[CB] |==|  0.85405
USER: genes 3 Torsion [N]-CA--C-[N] |==|  0.37494
USER: genes 4 Torsion [C]-N--CA-[C] |==|  0.21628
USER: genes 5 Torsion [N]-CA--CB-[CG] |==|  0.72650
USER: genes 6 Torsion [CA]-CB--CG-[CD2] |==|  0.72779
USER: genes 7 Torsion [N]-CA--C-[OXT] |==|  0.92355
USER: genes 8 Torsion [N]-CA--CB-[CG2] |==|  0.45926
USER: genes 9 Torsion [CA]-CB--OG1-[HG1] |==|  0.13906
USER: genes 10 Torsion [N]-C--CA-[N] |==|  0.90449
USER: genes 11 Torsion [C]-CA--CB-[CG] |==|  0.48351
USER: genes 12 Torsion [CA]-CB--CG-[CD] |==|  0.96660
USER: genes 13 Torsion [CB]-CG--CD-[OE1] |==|  0.26760
USER: genes 14 Torsion [C]-CA--N-[C] |==|  0.22440
USER: genes 15 Torsion [N]-C--CA-[N] |==|  0.05235
USER: genes 16 Torsion [C]-CA--N-[H3] |==|  0.60473
ROOT
ATOM      1  C   GLU S   2     -11.595  12.300  36.121  1.00 67.93 LIG 0.24  C 
ATOM      2 O    GLU S   2     -10.619  11.940  35.448  1.00 66.60 LIG-0.27  OA
ATOM      3  N   THR S   3     -12.474  13.201  35.702  1.00 66.34 LIG-0.34  N 
ATOM      4 H    THR S   3     -13.147  13.461  36.170  1.00 66.34 LIG 0.16  HD
ENDROOT
BRANCH 3 5
ATOM      5  CA  THR S   3     -12.377  13.840  34.397  1.00 65.04 LIG 0.20  C 
BRANCH 5 6
ATOM      6  C   THR S   3     -12.664  12.842  33.286  1.00 64.78 LIG 0.24  C 
ATOM      7 O    THR S   3     -12.174  11.706  33.285  1.00 64.25 LIG-0.27  OA
ATOM      8  N   PHE S   4     -13.475  13.288  32.337  1.00 64.25 LIG-0.34  N 
ATOM      9 H    PHE S   4     -13.806  14.082  32.330  1.00 64.25 LIG 0.16  HD
BRANCH 8 10
ATOM     10  CA  PHE S   4     -13.884  12.469  31.207  1.00 63.65 LIG 0.19  C 
BRANCH 10 11
ATOM     11  CB  PHE S   4     -12.688  11.699  30.692  1.00 60.49 LIG 0.07  C 
BRANCH 11 12
ATOM     12  CG  PHE S   4     -12.044  12.322  29.515  1.00 55.48 LIG-0.06  A 
ATOM     13  CD2 PHE S   4     -12.334  11.872  28.236  1.00 51.26 LIG 0.01  A 
ATOM     14  CE2 PHE S   4     -11.680  12.407  27.136  1.00 48.18 LIG 0.00  A 
ATOM     15  CZ  PHE S   4     -10.749  13.401  27.300  1.00 46.44 LIG 0.00  A 
ATOM     16  CE1 PHE S   4     -10.455  13.867  28.571  1.00 48.00 LIG 0.00  A 
ATOM     17  CD1 PHE S   4     -11.115  13.333  29.676  1.00 50.38 LIG 0.01  A 
ENDBRANCH 11 12
ENDBRANCH 10 11
BRANCH 10 18
ATOM     18  C   PHE S   4     -14.959  11.479  31.571  1.00 64.82 LIG 0.20  C 
ATOM     19 O    PHE S   4     -15.773  11.122  30.690  1.00 66.03 LIG-0.65  OA
ATOM     20 OXT  PHE S   4     -14.985  11.102  32.758  1.00 65.83 LIG-0.65  OA
ENDBRANCH 10 18
ENDBRANCH 8 10
ENDBRANCH 5 6
BRANCH 5 21
ATOM     21  CB  THR S   3     -10.985  14.435  34.220  1.00 64.83 LIG 0.15  C 
ATOM     22  CG2 THR S   3     -10.721  14.786  32.770  1.00 63.45 LIG 0.04  C 
BRANCH 21 23
ATOM     23 OG1  THR S   3     -10.899  15.622  35.011  1.00 64.80 LIG-0.39  OA
ATOM     24 HG1  THR S   3     -11.161  15.458  35.791  1.00 64.80 LIG 0.21  HD
ENDBRANCH 21 23
ENDBRANCH 5 21
ENDBRANCH 3 5
BRANCH 1 25
ATOM     25  CA  GLU S   2     -11.874  11.714  37.515  1.00 70.09 LIG 0.18  C 
BRANCH 25 26
ATOM     26  CB  GLU S   2     -12.795  10.493  37.416  1.00 72.94 LIG 0.04  C 
BRANCH 26 27
ATOM     27  CG  GLU S   2     -12.990   9.785  38.755  1.00 78.29 LIG 0.12  C 
BRANCH 27 28
ATOM     28  CD  GLU S   2     -12.024  10.246  39.828  1.00 81.85 LIG 0.17  C 
ATOM     29 OE1  GLU S   2     -12.398  11.121  40.636  1.00 85.61 LIG-0.65  OA
ATOM     30 OE2  GLU S   2     -10.882   9.732  39.863  1.00 84.00 LIG-0.65  OA
ENDBRANCH 27 28
ENDBRANCH 26 27
ENDBRANCH 25 26
BRANCH 25 31
ATOM     31  N   GLU S   2     -12.471  12.681  38.437  1.00 70.96 LIG-0.35  N 
ATOM     32  C   ALA S   1     -13.772  12.959  38.411  1.00 72.19 LIG 0.25  C 
ATOM     33 O    ALA S   1     -14.556  12.408  37.634  1.00 72.37 LIG-0.27  OA
ATOM     34 H    GLU S   2     -11.913  13.043  38.983  1.00 70.96 LIG 0.16  HD
BRANCH 32 35
ATOM     35  CA  ALA S   1     -14.278  14.011  39.410  1.00 72.54 LIG 0.27  C 
ATOM     36  CB  ALA S   1     -15.355  14.883  38.763  1.00 73.45 LIG 0.05  C 
BRANCH 35 37
ATOM     37  N   ALA S   1     -13.175  14.872  39.941  1.00 73.25 LIG-0.07  N 
ATOM     38 H2   ALA S   1     -13.148  15.635  39.484  1.00 73.25 LIG 0.28  HD
ATOM     39 H3   ALA S   1     -13.321  15.046  40.801  1.00 73.25 LIG 0.28  HD
ATOM     40 H1   ALA S   1     -12.398  14.447  39.853  1.00 73.25 LIG 0.28  HD
ENDBRANCH 35 37
ENDBRANCH 32 35
ENDBRANCH 25 31
ENDBRANCH 1 25
TORSDOF 15
ENDMDL
MODEL 4
USER: ADFR SOLUTION from run 120
USER: SCORE 15.086623 LL:  -3.476 LR: -13.595 RR:   0.000 FEB:  -9.120
USER: RMSD 6.365759
USER: SEED 119
USER: STATUS no improvement in best in 7 clusters for 5 generations
USER: GENES 17
USER: genes 0 Translation |==|  0.44282 0.54108 0.47110
USER: genes 1 Rotation |==|  0.66235 0.14901 0.37115 0.78956
USER: genes 2 Torsion [C]-N--CA-[CB] |==|  0.51752
USER: genes 3 Torsion [N]-CA--C-[N] |==|  0.78686
USER: genes 4 Torsion [C]-N--CA-[C] |==|  0.15350
USER: genes 5 Torsion [N]-CA--CB-[CG] |==|  0.80343
USER: genes 6 Torsion [CA]-CB--CG-[CD2] |==|  0.67391
USER: genes 7 Torsion [N]-CA--C-[OXT] |==|  0.60576
USER: genes 8 Torsion [N]-CA--CB-[CG2] |==|  0.71834
USER: genes 9 Torsion [CA]-CB--OG1-[HG1] |==|  0.16461
USER: genes 10 Torsion [N]-C--CA-[N] |==|  0.61111
USER: genes 11 Torsion [C]-CA--CB-[CG] |==|  0.37778
USER: genes 12 Torsion [CA]-CB--CG-[CD] |==|  0.85294
USER: genes 13 Torsion [CB]-CG--CD-[OE1] |==|  0.87625
USER: genes 14 Torsion [C]-CA--N-[C] |==|  0.58952
USER: genes 15 Torsion [N]-C--CA-[N] |==|  0.78120
USER: genes 16 Torsion [C]-CA--N-[H3] |==|  0.67122
ROOT
ATOM      1  C   GLU S   2     -12.592  14.019  32.529  1.00 67.93 LIG 0.24  C 
ATOM      2 O    GLU S   2     -12.570  15.247  32.690  1.00 66.60 LIG-0.27  OA
ATOM      3  N   THR S   3     -12.185  13.158  33.453  1.00 66.34 LIG-0.34  N 
ATOM      4 H    THR S   3     -12.189  12.305  33.342  1.00 66.34 LIG 0.16  HD
ENDROOT
BRANCH 3 5
ATOM      5  CA  THR S   3     -11.689  13.583  34.755  1.00 65.04 LIG 0.20  C 
BRANCH 5 6
ATOM      6  C   THR S   3     -10.593  14.626  34.600  1.00 64.78 LIG 0.24  C 
ATOM      7 O    THR S   3     -10.802  15.828  34.802  1.00 64.25 LIG-0.27  OA
ATOM      8  N   PHE S   4      -9.413  14.140  34.240  1.00 64.25 LIG-0.34  N 
ATOM      9 H    PHE S   4      -9.270  13.306  34.087  1.00 64.25 LIG 0.16  HD
BRANCH 8 10
ATOM     10  CA  PHE S   4      -8.240  14.981  34.067  1.00 63.65 LIG 0.19  C 
BRANCH 10 11
ATOM     11  CB  PHE S   4      -8.474  15.931  32.913  1.00 60.49 LIG 0.07  C 
BRANCH 11 12
ATOM     12  CG  PHE S   4      -8.476  15.268  31.591  1.00 55.48 LIG-0.06  A 
ATOM     13  CD2 PHE S   4      -7.523  15.598  30.638  1.00 51.26 LIG 0.01  A 
ATOM     14  CE2 PHE S   4      -7.563  15.029  29.374  1.00 48.18 LIG 0.00  A 
ATOM     15  CZ  PHE S   4      -8.539  14.117  29.057  1.00 46.44 LIG 0.00  A 
ATOM     16  CE1 PHE S   4      -9.491  13.771  30.000  1.00 48.00 LIG 0.00  A 
ATOM     17  CD1 PHE S   4      -9.448  14.339  31.271  1.00 50.38 LIG 0.01  A 
ENDBRANCH 11 12
ENDBRANCH 10 11
BRANCH 10 18
ATOM     18  C   PHE S   4      -7.930  15.799  35.293  1.00 64.82 LIG 0.20  C 
ATOM     19 O    PHE S   4      -8.126  15.293  36.421  1.00 66.03 LIG-0.65  OA
ATOM     20 OXT  PHE S   4      -7.523  16.960  35.097  1.00 65.83 LIG-0.65  OA
ENDBRANCH 10 18
ENDBRANCH 8 10
ENDBRANCH 5 6
BRANCH 5 21
ATOM     21  CB  THR S   3     -11.159  12.376  35.519  1.00 64.83 LIG 0.15  C 
ATOM     22  CG2 THR S   3     -12.159  11.903  36.554  1.00 63.45 LIG 0.04  C 
BRANCH 21 23
ATOM     23 OG1  THR S   3     -10.919  11.321  34.585  1.00 64.80 LIG-0.39  OA
ATOM     24 HG1  THR S   3     -10.361  11.576  34.012  1.00 64.80 LIG 0.21  HD
ENDBRANCH 21 23
ENDBRANCH 5 21
ENDBRANCH 3 5
BRANCH 1 25
ATOM     25  CA  GLU S   2     -13.109  13.385  31.228  1.00 70.09 LIG 0.18  C 
BRANCH 25 26
ATOM     26  CB  GLU S   2     -12.647  11.929  31.111  1.00 72.94 LIG 0.04  C 
BRANCH 26 27
ATOM     27  CG  GLU S   2     -13.755  10.989  30.643  1.00 78.29 LIG 0.12  C 
BRANCH 27 28
ATOM     28  CD  GLU S   2     -15.019  11.085  31.474  1.00 81.85 LIG 0.17  C 
ATOM     29 OE1  GLU S   2     -14.918  11.122  32.718  1.00 85.61 LIG-0.65  OA
ATOM     30 OE2  GLU S   2     -16.121  11.122  30.880  1.00 84.00 LIG-0.65  OA
ENDBRANCH 27 28
ENDBRANCH 26 27
ENDBRANCH 25 26
BRANCH 25 31
ATOM     31  N   GLU S   2     -12.690  14.111  30.028  1.00 70.96 LIG-0.35  N 
ATOM     32  C   ALA S   1     -13.456  14.165  28.941  1.00 72.19 LIG 0.25  C 
ATOM     33 O    ALA S   1     -14.569  13.633  28.883  1.00 72.37 LIG-0.27  OA
ATOM     34 H    GLU S   2     -11.920  14.489  30.092  1.00 70.96 LIG 0.16  HD
BRANCH 32 35
ATOM     35  CA  ALA S   1     -12.898  14.934  27.735  1.00 72.54 LIG 0.27  C 
ATOM     36  CB  ALA S   1     -11.429  14.572  27.507  1.00 73.45 LIG 0.05  C 
BRANCH 35 37
ATOM     37  N   ALA S   1     -13.041  16.416  27.886  1.00 73.25 LIG-0.07  N 
ATOM     38 H2   ALA S   1     -12.239  16.798  27.839  1.00 73.25 LIG 0.28  HD
ATOM     39 H3   ALA S   1     -13.559  16.733  27.235  1.00 73.25 LIG 0.28  HD
ATOM     40 H1   ALA S   1     -13.411  16.599  28.675  1.00 73.25 LIG 0.28  HD
ENDBRANCH 35 37
ENDBRANCH 32 35
ENDBRANCH 25 31
ENDBRANCH 1 25
TORSDOF 15
ENDMDL
