MODEL 1
USER: ADFR SOLUTION from run 104
USER: SCORE 18.874698 LL:  -2.869 LR: -16.568 RR:   0.000 FEB: -11.795
USER: RMSD 7.307122
USER: SEED 103
USER: STATUS no improvement in best in 3 clusters for 5 generations
USER: GENES 18
USER: genes 0 Translation |==|  0.54419 0.61181 0.45907
USER: genes 1 Rotation |==|  0.15540 0.65602 0.79410 0.64287
USER: genes 2 Torsion [N]-CA--C-[N] |==|  0.01866
USER: genes 3 Torsion [C]-N--CA-[CB] |==|  0.83777
USER: genes 4 Torsion [N]-CA--CB-[CG] |==|  0.32756
USER: genes 5 Torsion [CA]-CB--CG-[OD2] |==|  0.70797
USER: genes 6 Torsion [N]-CA--C-[O] |==|  0.23153
USER: genes 7 Torsion [C]-CA--CB-[CG] |==|  0.42499
USER: genes 8 Torsion [CA]-CB--CG-[CD2] |==|  0.48361
USER: genes 9 Torsion [C]-CA--N-[C] |==|  0.71602
USER: genes 10 Torsion [N]-C--CA-[N] |==|  0.81707
USER: genes 11 Torsion [C]-CA--N-[C] |==|  0.65398
USER: genes 12 Torsion [N]-C--CA-[N] |==|  0.77107
USER: genes 13 Torsion [C]-CA--CB-[CG] |==|  0.76423
USER: genes 14 Torsion [CA]-CB--CG-[OD2] |==|  0.88247
USER: genes 15 Torsion [C]-CA--CB-[CG] |==|  0.75342
USER: genes 16 Torsion [CA]-CB--CG-[CD] |==|  0.63155
USER: genes 17 Torsion [CB]-CG--CD-[OE2] |==|  0.76387
ROOT
ATOM      1  CA  TRP G 500      -9.117 -39.760  19.488  1.00 57.70 LIG 0.18  C 
ENDROOT
BRANCH 1 2
ATOM      2  C   TRP G 500      -8.600 -38.506  20.187  1.00 58.91 LIG 0.24  C 
ATOM      3 O    TRP G 500      -7.389 -38.328  20.317  1.00 59.13 LIG-0.27  OA
ATOM      4  N   ASP G 501      -9.505 -37.638  20.629  1.00 60.05 LIG-0.35  N 
ATOM      5 H    ASP G 501     -10.355 -37.742  20.554  1.00 60.05 LIG 0.16  HD
BRANCH 4 6
ATOM      6  CA  ASP G 501      -9.092 -36.405  21.295  1.00 61.20 LIG 0.17  C 
BRANCH 6 7
ATOM      7  CB  ASP G 501      -8.245 -36.718  22.530  1.00 62.64 LIG 0.15  C 
BRANCH 7 8
ATOM      8  CG  ASP G 501      -6.835 -36.161  22.425  1.00 64.46 LIG 0.17  C 
ATOM      9 OD2  ASP G 501      -5.893 -36.952  22.192  1.00 65.00 LIG-0.65  OA
ATOM     10 OD1  ASP G 501      -6.668 -34.929  22.564  1.00 64.87 LIG-0.65  OA
ENDBRANCH 7 8
ENDBRANCH 6 7
BRANCH 6 11
ATOM     11  C   ASP G 501      -8.292 -35.514  20.345  1.00 61.58 LIG 0.22  C 
ATOM     12 O    ASP G 501      -8.937 -34.776  19.567  1.00 60.92 LIG-0.29  OA
ENDBRANCH 6 11
ENDBRANCH 4 6
ENDBRANCH 1 2
BRANCH 1 13
ATOM     13  CB  TRP G 500      -8.372 -39.967  18.167  1.00 52.85 LIG 0.07  C 
BRANCH 13 14
ATOM     14  CG  TRP G 500      -8.316 -41.404  17.745  1.00 47.47 LIG-0.03  A 
ATOM     15  CD2 TRP G 500      -7.800 -41.915  16.510  1.00 44.29 LIG-0.00  A 
ATOM     16  CE3 TRP G 500      -7.235 -41.321  15.371  1.00 42.43 LIG 0.01  A 
ATOM     17  CE2 TRP G 500      -7.938 -43.324  16.549  1.00 43.87 LIG 0.04  A 
ATOM     18  CZ3 TRP G 500      -6.829 -42.143  14.317  1.00 40.94 LIG 0.00  A 
ATOM     19  CH2 TRP G 500      -6.981 -43.542  14.386  1.00 40.39 LIG 0.00  A 
ATOM     20  CZ2 TRP G 500      -7.529 -44.149  15.488  1.00 41.47 LIG 0.03  A 
ATOM     21  NE1 TRP G 500      -8.508 -43.647  17.752  1.00 44.24 LIG-0.36  N 
ATOM     22  CD1 TRP G 500      -8.734 -42.490  18.464  1.00 45.90 LIG 0.10  A 
ATOM     23 HE1  TRP G 500      -8.694 -44.444  18.020  1.00 44.24 LIG 0.17  HD
ENDBRANCH 13 14
ENDBRANCH 1 13
BRANCH 1 24
ATOM     24  N   TRP G 500     -10.554 -39.774  19.257  1.00 59.87 LIG-0.35  N 
ATOM     25  C   GLU G 499     -11.378 -40.480  20.026  1.00 62.14 LIG 0.24  C 
ATOM     26 O    GLU G 499     -10.992 -41.154  20.985  1.00 62.68 LIG-0.27  OA
ATOM     27 H    TRP G 500     -10.811 -39.292  18.592  1.00 59.87 LIG 0.16  HD
BRANCH 25 28
ATOM     28  CA  GLU G 499     -12.858 -40.411  19.661  1.00 62.75 LIG 0.18  C 
BRANCH 28 29
ATOM     29  N   GLU G 499     -13.372 -39.062  19.868  1.00 64.36 LIG-0.35  N 
ATOM     30 H    GLU G 499     -12.940 -38.448  19.449  1.00 64.36 LIG 0.16  HD
ATOM     31  C   ASP G 498     -14.426 -38.834  20.648  1.00 65.69 LIG 0.26  C 
ATOM     32 O    ASP G 498     -15.028 -39.733  21.238  1.00 66.78 LIG-0.27  OA
BRANCH 31 33
ATOM     33  CA  ASP G 498     -14.872 -37.379  20.784  1.00 65.54 LIG 0.41  C 
ATOM     34  N   ASP G 498     -14.033 -36.698  21.812  1.00 65.34 LIG 0.61  N 
BRANCH 33 35
ATOM     35  CB  ASP G 498     -14.730 -36.666  19.435  1.00 65.84 LIG 0.16  C 
BRANCH 35 36
ATOM     36  CG  ASP G 498     -13.330 -36.130  19.200  1.00 65.00 LIG 0.17  C 
ATOM     37 OD2  ASP G 498     -12.747 -35.571  20.154  1.00 65.16 LIG-0.65  OA
ATOM     38 OD1  ASP G 498     -12.813 -36.261  18.069  1.00 63.97 LIG-0.65  OA
ENDBRANCH 35 36
ENDBRANCH 33 35
ENDBRANCH 31 33
ENDBRANCH 28 29
BRANCH 28 39
ATOM     39  CB  GLU G 499     -13.042 -40.826  18.199  1.00 61.39 LIG 0.04  C 
BRANCH 39 40
ATOM     40  CG  GLU G 499     -12.930 -39.678  17.208  1.00 60.98 LIG 0.12  C 
BRANCH 40 41
ATOM     41  CD  GLU G 499     -14.056 -39.670  16.192  1.00 61.07 LIG 0.17  C 
ATOM     42 OE2  GLU G 499     -13.938 -40.378  15.170  1.00 60.51 LIG-0.65  OA
ATOM     43 OE1  GLU G 499     -15.063 -38.965  16.417  1.00 60.30 LIG-0.65  OA
ENDBRANCH 40 41
ENDBRANCH 39 40
ENDBRANCH 28 39
ENDBRANCH 25 28
ENDBRANCH 1 24
TORSDOF 16
ENDMDL
MODEL 2
USER: ADFR SOLUTION from run 154
USER: SCORE 18.072150 LL:  -2.264 LR: -16.360 RR:   0.000 FEB: -11.587
USER: RMSD 5.677250
USER: SEED 153
USER: STATUS no improvement in best in 4 clusters for 5 generations
USER: GENES 18
USER: genes 0 Translation |==|  0.49407 0.60652 0.42548
USER: genes 1 Rotation |==|  0.61992 0.37661 0.26188 0.90459
USER: genes 2 Torsion [N]-CA--C-[N] |==|  0.10131
USER: genes 3 Torsion [C]-N--CA-[CB] |==|  0.52173
USER: genes 4 Torsion [N]-CA--CB-[CG] |==|  0.14224
USER: genes 5 Torsion [CA]-CB--CG-[OD2] |==|  0.17333
USER: genes 6 Torsion [N]-CA--C-[O] |==|  0.45364
USER: genes 7 Torsion [C]-CA--CB-[CG] |==|  0.26126
USER: genes 8 Torsion [CA]-CB--CG-[CD2] |==|  0.51388
USER: genes 9 Torsion [C]-CA--N-[C] |==|  0.60027
USER: genes 10 Torsion [N]-C--CA-[N] |==|  0.11617
USER: genes 11 Torsion [C]-CA--N-[C] |==|  0.14599
USER: genes 12 Torsion [N]-C--CA-[N] |==|  0.35758
USER: genes 13 Torsion [C]-CA--CB-[CG] |==|  0.84526
USER: genes 14 Torsion [CA]-CB--CG-[OD2] |==|  0.27782
USER: genes 15 Torsion [C]-CA--CB-[CG] |==|  0.34467
USER: genes 16 Torsion [CA]-CB--CG-[CD] |==|  0.80423
USER: genes 17 Torsion [CB]-CG--CD-[OE2] |==|  0.26648
ROOT
ATOM      1  CA  TRP G 500      -9.906 -39.879  18.808  1.00 57.70 LIG 0.18  C 
ENDROOT
BRANCH 1 2
ATOM      2  C   TRP G 500     -11.351 -39.819  18.321  1.00 58.91 LIG 0.24  C 
ATOM      3 O    TRP G 500     -11.747 -40.611  17.465  1.00 59.13 LIG-0.27  OA
ATOM      4  N   ASP G 501     -12.139 -38.894  18.862  1.00 60.05 LIG-0.35  N 
ATOM      5 H    ASP G 501     -11.885 -38.328  19.457  1.00 60.05 LIG 0.16  HD
BRANCH 4 6
ATOM      6  CA  ASP G 501     -13.538 -38.780  18.462  1.00 61.20 LIG 0.17  C 
BRANCH 6 7
ATOM      7  CB  ASP G 501     -14.174 -37.531  19.076  1.00 62.64 LIG 0.15  C 
BRANCH 7 8
ATOM      8  CG  ASP G 501     -13.354 -36.276  18.823  1.00 64.46 LIG 0.17  C 
ATOM      9 OD2  ASP G 501     -13.180 -35.901  17.643  1.00 65.00 LIG-0.65  OA
ATOM     10 OD1  ASP G 501     -12.892 -35.656  19.807  1.00 64.87 LIG-0.65  OA
ENDBRANCH 7 8
ENDBRANCH 6 7
BRANCH 6 11
ATOM     11  C   ASP G 501     -13.667 -38.717  16.940  1.00 61.58 LIG 0.22  C 
ATOM     12 O    ASP G 501     -14.796 -38.939  16.448  1.00 60.92 LIG-0.29  OA
ENDBRANCH 6 11
ENDBRANCH 4 6
ENDBRANCH 1 2
BRANCH 1 13
ATOM     13  CB  TRP G 500      -9.296 -41.241  18.464  1.00 52.85 LIG 0.07  C 
BRANCH 13 14
ATOM     14  CG  TRP G 500      -8.550 -41.236  17.164  1.00 47.47 LIG-0.03  A 
ATOM     15  CD2 TRP G 500      -7.953 -42.365  16.515  1.00 44.29 LIG-0.00  A 
ATOM     16  CE3 TRP G 500      -7.851 -43.728  16.831  1.00 42.43 LIG 0.01  A 
ATOM     17  CE2 TRP G 500      -7.370 -41.897  15.313  1.00 43.87 LIG 0.04  A 
ATOM     18  CZ3 TRP G 500      -7.178 -44.574  15.947  1.00 40.94 LIG 0.00  A 
ATOM     19  CH2 TRP G 500      -6.607 -44.077  14.758  1.00 40.39 LIG 0.00  A 
ATOM     20  CZ2 TRP G 500      -6.692 -42.749  14.424  1.00 41.47 LIG 0.03  A 
ATOM     21  NE1 TRP G 500      -7.606 -40.549  15.239  1.00 44.24 LIG-0.36  N 
ATOM     22  CD1 TRP G 500      -8.313 -40.159  16.354  1.00 45.90 LIG 0.10  A 
ATOM     23 HE1  TRP G 500      -7.354 -40.032  14.600  1.00 44.24 LIG 0.17  HD
ENDBRANCH 13 14
ENDBRANCH 1 13
BRANCH 1 24
ATOM     24  N   TRP G 500      -9.735 -39.600  20.226  1.00 59.87 LIG-0.35  N 
ATOM     25  C   GLU G 499      -8.677 -38.937  20.684  1.00 62.14 LIG 0.24  C 
ATOM     26 O    GLU G 499      -7.784 -38.505  19.950  1.00 62.68 LIG-0.27  OA
ATOM     27 H    TRP G 500     -10.369 -39.898  20.726  1.00 59.87 LIG 0.16  HD
BRANCH 25 28
ATOM     28  CA  GLU G 499      -8.621 -38.726  22.194  1.00 62.75 LIG 0.18  C 
BRANCH 28 29
ATOM     29  N   GLU G 499      -9.034 -39.938  22.894  1.00 64.36 LIG-0.35  N 
ATOM     30 H    GLU G 499      -9.654 -39.819  23.477  1.00 64.36 LIG 0.16  HD
ATOM     31  C   ASP G 498      -8.475 -41.116  22.629  1.00 65.69 LIG 0.26  C 
ATOM     32 O    ASP G 498      -7.585 -41.259  21.788  1.00 66.78 LIG-0.27  OA
BRANCH 31 33
ATOM     33  CA  ASP G 498      -8.993 -42.312  23.425  1.00 65.54 LIG 0.41  C 
ATOM     34  N   ASP G 498      -9.356 -43.412  22.486  1.00 65.34 LIG 0.61  N 
BRANCH 33 35
ATOM     35  CB  ASP G 498      -7.913 -42.791  24.401  1.00 65.84 LIG 0.16  C 
BRANCH 35 36
ATOM     36  CG  ASP G 498      -6.603 -43.123  23.709  1.00 65.00 LIG 0.17  C 
ATOM     37 OD2  ASP G 498      -5.687 -42.273  23.747  1.00 65.16 LIG-0.65  OA
ATOM     38 OD1  ASP G 498      -6.488 -44.224  23.128  1.00 63.97 LIG-0.65  OA
ENDBRANCH 35 36
ENDBRANCH 33 35
ENDBRANCH 31 33
ENDBRANCH 28 29
BRANCH 28 39
ATOM     39  CB  GLU G 499      -7.196 -38.343  22.603  1.00 61.39 LIG 0.04  C 
BRANCH 39 40
ATOM     40  CG  GLU G 499      -7.099 -37.032  23.366  1.00 60.98 LIG 0.12  C 
BRANCH 40 41
ATOM     41  CD  GLU G 499      -7.375 -35.824  22.490  1.00 61.07 LIG 0.17  C 
ATOM     42 OE2  GLU G 499      -8.529 -35.348  22.482  1.00 60.51 LIG-0.65  OA
ATOM     43 OE1  GLU G 499      -6.438 -35.345  21.816  1.00 60.30 LIG-0.65  OA
ENDBRANCH 40 41
ENDBRANCH 39 40
ENDBRANCH 28 39
ENDBRANCH 25 28
ENDBRANCH 1 24
TORSDOF 16
ENDMDL
MODEL 3
USER: ADFR SOLUTION from run 32
USER: SCORE 17.456137 LL:  -2.827 LR: -16.304 RR:   0.000 FEB: -11.531
USER: RMSD 4.830300
USER: SEED 31
USER: STATUS no improvement in best in 9 clusters for 5 generations
USER: GENES 18
USER: genes 0 Translation |==|  0.42970 0.50014 0.42825
USER: genes 1 Rotation |==|  0.39139 0.38998 0.73637 0.91259
USER: genes 2 Torsion [N]-CA--C-[N] |==|  0.75532
USER: genes 3 Torsion [C]-N--CA-[CB] |==|  0.46972
USER: genes 4 Torsion [N]-CA--CB-[CG] |==|  0.74876
USER: genes 5 Torsion [CA]-CB--CG-[OD2] |==|  0.34431
USER: genes 6 Torsion [N]-CA--C-[O] |==|  0.88635
USER: genes 7 Torsion [C]-CA--CB-[CG] |==|  0.32516
USER: genes 8 Torsion [CA]-CB--CG-[CD2] |==|  0.84294
USER: genes 9 Torsion [C]-CA--N-[C] |==|  0.53889
USER: genes 10 Torsion [N]-C--CA-[N] |==|  0.19238
USER: genes 11 Torsion [C]-CA--N-[C] |==|  0.56820
USER: genes 12 Torsion [N]-C--CA-[N] |==|  0.84746
USER: genes 13 Torsion [C]-CA--CB-[CG] |==|  0.71168
USER: genes 14 Torsion [CA]-CB--CG-[OD2] |==|  0.33695
USER: genes 15 Torsion [C]-CA--CB-[CG] |==|  0.82228
USER: genes 16 Torsion [CA]-CB--CG-[CD] |==|  0.74419
USER: genes 17 Torsion [CB]-CG--CD-[OE2] |==|  0.97124
ROOT
ATOM      1  CA  TRP G 500     -10.920 -42.273  18.864  1.00 57.70 LIG 0.18  C 
ENDROOT
BRANCH 1 2
ATOM      2  C   TRP G 500     -10.726 -43.410  19.862  1.00 58.91 LIG 0.24  C 
ATOM      3 O    TRP G 500     -11.064 -44.556  19.565  1.00 59.13 LIG-0.27  OA
ATOM      4  N   ASP G 501     -10.181 -43.104  21.036  1.00 60.05 LIG-0.35  N 
ATOM      5 H    ASP G 501      -9.942 -42.312  21.269  1.00 60.05 LIG 0.16  HD
BRANCH 4 6
ATOM      6  CA  ASP G 501      -9.948 -44.137  22.042  1.00 61.20 LIG 0.17  C 
BRANCH 6 7
ATOM      7  CB  ASP G 501      -9.079 -43.595  23.178  1.00 62.64 LIG 0.15  C 
BRANCH 7 8
ATOM      8  CG  ASP G 501      -7.594 -43.807  22.929  1.00 64.46 LIG 0.17  C 
ATOM      9 OD2  ASP G 501      -6.835 -42.813  22.946  1.00 65.00 LIG-0.65  OA
ATOM     10 OD1  ASP G 501      -7.183 -44.972  22.726  1.00 64.87 LIG-0.65  OA
ENDBRANCH 7 8
ENDBRANCH 6 7
BRANCH 6 11
ATOM     11  C   ASP G 501     -11.269 -44.649  22.615  1.00 61.58 LIG 0.22  C 
ATOM     12 O    ASP G 501     -12.161 -43.803  22.851  1.00 60.92 LIG-0.29  OA
ENDBRANCH 6 11
ENDBRANCH 4 6
ENDBRANCH 1 2
BRANCH 1 13
ATOM     13  CB  TRP G 500      -9.752 -41.288  18.962  1.00 52.85 LIG 0.07  C 
BRANCH 13 14
ATOM     14  CG  TRP G 500      -8.952 -41.202  17.696  1.00 47.47 LIG-0.03  A 
ATOM     15  CD2 TRP G 500      -8.308 -42.287  17.016  1.00 44.29 LIG-0.00  A 
ATOM     16  CE3 TRP G 500      -8.194 -43.662  17.266  1.00 42.43 LIG 0.01  A 
ATOM     17  CE2 TRP G 500      -7.683 -41.747  15.866  1.00 43.87 LIG 0.04  A 
ATOM     18  CZ3 TRP G 500      -7.469 -44.450  16.369  1.00 40.94 LIG 0.00  A 
ATOM     19  CH2 TRP G 500      -6.858 -43.882  15.233  1.00 40.39 LIG 0.00  A 
ATOM     20  CZ2 TRP G 500      -6.953 -42.539  14.964  1.00 41.47 LIG 0.03  A 
ATOM     21  NE1 TRP G 500      -7.941 -40.401  15.852  1.00 44.24 LIG-0.36  N 
ATOM     22  CD1 TRP G 500      -8.701 -40.081  16.954  1.00 45.90 LIG 0.10  A 
ATOM     23 HE1  TRP G 500      -7.672 -39.846  15.251  1.00 44.24 LIG 0.17  HD
ENDBRANCH 13 14
ENDBRANCH 1 13
BRANCH 1 24
ATOM     24  N   TRP G 500     -12.184 -41.562  18.996  1.00 59.87 LIG-0.35  N 
ATOM     25  C   GLU G 499     -12.624 -40.740  18.048  1.00 62.14 LIG 0.24  C 
ATOM     26 O    GLU G 499     -12.011 -40.534  16.997  1.00 62.68 LIG-0.27  OA
ATOM     27 H    TRP G 500     -12.606 -41.722  19.728  1.00 59.87 LIG 0.16  HD
BRANCH 25 28
ATOM     28  CA  GLU G 499     -13.958 -40.053  18.325  1.00 62.75 LIG 0.18  C 
BRANCH 28 29
ATOM     29  N   GLU G 499     -13.816 -39.077  19.400  1.00 64.36 LIG-0.35  N 
ATOM     30 H    GLU G 499     -13.018 -38.774  19.503  1.00 64.36 LIG 0.16  HD
ATOM     31  C   ASP G 498     -14.856 -38.708  20.143  1.00 65.69 LIG 0.26  C 
ATOM     32 O    ASP G 498     -15.991 -39.159  19.976  1.00 66.78 LIG-0.27  OA
BRANCH 31 33
ATOM     33  CA  ASP G 498     -14.582 -37.677  21.237  1.00 65.54 LIG 0.41  C 
ATOM     34  N   ASP G 498     -13.485 -38.170  22.118  1.00 65.34 LIG 0.61  N 
BRANCH 33 35
ATOM     35  CB  ASP G 498     -14.183 -36.341  20.600  1.00 65.84 LIG 0.16  C 
BRANCH 35 36
ATOM     36  CG  ASP G 498     -12.692 -36.072  20.689  1.00 65.00 LIG 0.17  C 
ATOM     37 OD2  ASP G 498     -12.061 -35.901  19.623  1.00 65.16 LIG-0.65  OA
ATOM     38 OD1  ASP G 498     -12.149 -36.035  21.815  1.00 63.97 LIG-0.65  OA
ENDBRANCH 35 36
ENDBRANCH 33 35
ENDBRANCH 31 33
ENDBRANCH 28 29
BRANCH 28 39
ATOM     39  CB  GLU G 499     -14.450 -39.362  17.050  1.00 61.39 LIG 0.04  C 
BRANCH 39 40
ATOM     40  CG  GLU G 499     -13.550 -38.236  16.567  1.00 60.98 LIG 0.12  C 
BRANCH 40 41
ATOM     41  CD  GLU G 499     -13.961 -36.883  17.115  1.00 61.07 LIG 0.17  C 
ATOM     42 OE2  GLU G 499     -15.055 -36.791  17.709  1.00 60.51 LIG-0.65  OA
ATOM     43 OE1  GLU G 499     -13.188 -35.913  16.961  1.00 60.30 LIG-0.65  OA
ENDBRANCH 40 41
ENDBRANCH 39 40
ENDBRANCH 28 39
ENDBRANCH 25 28
ENDBRANCH 1 24
TORSDOF 16
ENDMDL
MODEL 4
USER: ADFR SOLUTION from run 118
USER: SCORE 18.269348 LL:  -2.735 LR: -16.298 RR:   0.000 FEB: -11.525
USER: RMSD 5.566254
USER: SEED 117
USER: STATUS no improvement in best in 9 clusters for 5 generations
USER: GENES 18
USER: genes 0 Translation |==|  0.50862 0.52109 0.47014
USER: genes 1 Rotation |==|  0.20832 0.57125 0.71609 0.83638
USER: genes 2 Torsion [N]-CA--C-[N] |==|  0.40636
USER: genes 3 Torsion [C]-N--CA-[CB] |==|  0.46925
USER: genes 4 Torsion [N]-CA--CB-[CG] |==|  0.26970
USER: genes 5 Torsion [CA]-CB--CG-[OD2] |==|  0.78164
USER: genes 6 Torsion [N]-CA--C-[O] |==|  0.92211
USER: genes 7 Torsion [C]-CA--CB-[CG] |==|  0.36523
USER: genes 8 Torsion [CA]-CB--CG-[CD2] |==|  0.39590
USER: genes 9 Torsion [C]-CA--N-[C] |==|  0.77250
USER: genes 10 Torsion [N]-C--CA-[N] |==|  0.76843
USER: genes 11 Torsion [C]-CA--N-[C] |==|  0.61118
USER: genes 12 Torsion [N]-C--CA-[N] |==|  0.92737
USER: genes 13 Torsion [C]-CA--CB-[CG] |==|  0.78609
USER: genes 14 Torsion [CA]-CB--CG-[OD2] |==|  0.31603
USER: genes 15 Torsion [C]-CA--CB-[CG] |==|  0.56331
USER: genes 16 Torsion [CA]-CB--CG-[CD] |==|  0.75995
USER: genes 17 Torsion [CB]-CG--CD-[OE2] |==|  0.85551
ROOT
ATOM      1  CA  TRP G 500      -9.677 -41.802  19.712  1.00 57.70 LIG 0.18  C 
ENDROOT
BRANCH 1 2
ATOM      2  C   TRP G 500      -9.369 -41.569  21.188  1.00 58.91 LIG 0.24  C 
ATOM      3 O    TRP G 500      -9.507 -40.449  21.679  1.00 59.13 LIG-0.27  OA
ATOM      4  N   ASP G 501      -8.959 -42.617  21.897  1.00 60.05 LIG-0.35  N 
ATOM      5 H    ASP G 501      -8.850 -43.408  21.577  1.00 60.05 LIG 0.16  HD
BRANCH 4 6
ATOM      6  CA  ASP G 501      -8.657 -42.483  23.320  1.00 61.20 LIG 0.17  C 
BRANCH 6 7
ATOM      7  CB  ASP G 501      -8.476 -43.858  23.964  1.00 62.64 LIG 0.15  C 
BRANCH 7 8
ATOM      8  CG  ASP G 501      -7.015 -44.264  24.070  1.00 64.46 LIG 0.17  C 
ATOM      9 OD2  ASP G 501      -6.438 -44.700  23.049  1.00 65.00 LIG-0.65  OA
ATOM     10 OD1  ASP G 501      -6.438 -44.137  25.173  1.00 64.87 LIG-0.65  OA
ENDBRANCH 7 8
ENDBRANCH 6 7
BRANCH 6 11
ATOM     11  C   ASP G 501      -7.391 -41.654  23.533  1.00 61.58 LIG 0.22  C 
ATOM     12 O    ASP G 501      -6.532 -41.669  22.623  1.00 60.92 LIG-0.29  OA
ENDBRANCH 6 11
ENDBRANCH 4 6
ENDBRANCH 1 2
BRANCH 1 13
ATOM     13  CB  TRP G 500      -8.413 -41.591  18.875  1.00 52.85 LIG 0.07  C 
BRANCH 13 14
ATOM     14  CG  TRP G 500      -8.162 -42.705  17.903  1.00 47.47 LIG-0.03  A 
ATOM     15  CD2 TRP G 500      -7.642 -42.580  16.574  1.00 44.29 LIG-0.00  A 
ATOM     16  CE3 TRP G 500      -7.237 -41.493  15.785  1.00 42.43 LIG 0.01  A 
ATOM     17  CE2 TRP G 500      -7.562 -43.886  16.032  1.00 43.87 LIG 0.04  A 
ATOM     18  CZ3 TRP G 500      -6.769 -41.740  14.492  1.00 40.94 LIG 0.00  A 
ATOM     19  CH2 TRP G 500      -6.702 -43.052  13.981  1.00 40.39 LIG 0.00  A 
ATOM     20  CZ2 TRP G 500      -7.092 -44.133  14.732  1.00 41.47 LIG 0.03  A 
ATOM     21  NE1 TRP G 500      -8.010 -44.757  16.990  1.00 44.24 LIG-0.36  N 
ATOM     22  CD1 TRP G 500      -8.370 -44.040  18.110  1.00 45.90 LIG 0.10  A 
ATOM     23 HE1  TRP G 500      -8.058 -45.611  16.906  1.00 44.24 LIG 0.17  HD
ENDBRANCH 13 14
ENDBRANCH 1 13
BRANCH 1 24
ATOM     24  N   TRP G 500     -10.764 -40.988  19.187  1.00 59.87 LIG-0.35  N 
ATOM     25  C   GLU G 499     -12.037 -41.330  19.358  1.00 62.14 LIG 0.24  C 
ATOM     26 O    GLU G 499     -12.386 -42.340  19.976  1.00 62.68 LIG-0.27  OA
ATOM     27 H    TRP G 500     -10.508 -40.282  18.767  1.00 59.87 LIG 0.16  HD
BRANCH 25 28
ATOM     28  CA  GLU G 499     -13.071 -40.391  18.743  1.00 62.75 LIG 0.18  C 
BRANCH 28 29
ATOM     29  N   GLU G 499     -13.338 -39.270  19.639  1.00 64.36 LIG-0.35  N 
ATOM     30 H    GLU G 499     -12.642 -38.955  20.033  1.00 64.36 LIG 0.16  HD
ATOM     31  C   ASP G 498     -14.569 -38.797  19.809  1.00 65.69 LIG 0.26  C 
ATOM     32 O    ASP G 498     -15.552 -39.267  19.232  1.00 66.78 LIG-0.27  OA
BRANCH 31 33
ATOM     33  CA  ASP G 498     -14.722 -37.619  20.770  1.00 65.54 LIG 0.41  C 
ATOM     34  N   ASP G 498     -13.613 -37.648  21.767  1.00 65.34 LIG 0.61  N 
BRANCH 33 35
ATOM     35  CB  ASP G 498     -14.688 -36.304  19.985  1.00 65.84 LIG 0.16  C 
BRANCH 35 36
ATOM     36  CG  ASP G 498     -13.283 -35.908  19.566  1.00 65.00 LIG 0.17  C 
ATOM     37 OD2  ASP G 498     -13.015 -35.901  18.345  1.00 65.16 LIG-0.65  OA
ATOM     38 OD1  ASP G 498     -12.450 -35.608  20.449  1.00 63.97 LIG-0.65  OA
ENDBRANCH 35 36
ENDBRANCH 33 35
ENDBRANCH 31 33
ENDBRANCH 28 29
BRANCH 28 39
ATOM     39  CB  GLU G 499     -12.556 -39.876  17.396  1.00 61.39 LIG 0.04  C 
BRANCH 39 40
ATOM     40  CG  GLU G 499     -13.186 -38.568  16.948  1.00 60.98 LIG 0.12  C 
BRANCH 40 41
ATOM     41  CD  GLU G 499     -14.485 -38.773  16.192  1.00 61.07 LIG 0.17  C 
ATOM     42 OE2  GLU G 499     -14.491 -39.565  15.227  1.00 60.51 LIG-0.65  OA
ATOM     43 OE1  GLU G 499     -15.502 -38.151  16.566  1.00 60.30 LIG-0.65  OA
ENDBRANCH 40 41
ENDBRANCH 39 40
ENDBRANCH 28 39
ENDBRANCH 25 28
ENDBRANCH 1 24
TORSDOF 16
ENDMDL
MODEL 5
USER: ADFR SOLUTION from run 132
USER: SCORE 17.855683 LL:  -2.712 LR: -16.156 RR:   0.000 FEB: -11.384
USER: RMSD 3.977619
USER: SEED 131
USER: STATUS no improvement in best in 4 clusters for 5 generations
USER: GENES 18
USER: genes 0 Translation |==|  0.49499 0.48692 0.43325
USER: genes 1 Rotation |==|  0.40201 0.46843 0.59555 0.97987
USER: genes 2 Torsion [N]-CA--C-[N] |==|  0.79462
USER: genes 3 Torsion [C]-N--CA-[CB] |==|  0.49712
USER: genes 4 Torsion [N]-CA--CB-[CG] |==|  0.89722
USER: genes 5 Torsion [CA]-CB--CG-[OD2] |==|  0.70168
USER: genes 6 Torsion [N]-CA--C-[O] |==|  0.45120
USER: genes 7 Torsion [C]-CA--CB-[CG] |==|  0.40625
USER: genes 8 Torsion [CA]-CB--CG-[CD2] |==|  0.73396
USER: genes 9 Torsion [C]-CA--N-[C] |==|  0.63462
USER: genes 10 Torsion [N]-C--CA-[N] |==|  0.27056
USER: genes 11 Torsion [C]-CA--N-[C] |==|  0.80000
USER: genes 12 Torsion [N]-C--CA-[N] |==|  0.96320
USER: genes 13 Torsion [C]-CA--CB-[CG] |==|  0.25122
USER: genes 14 Torsion [CA]-CB--CG-[OD2] |==|  0.94944
USER: genes 15 Torsion [C]-CA--CB-[CG] |==|  0.46786
USER: genes 16 Torsion [CA]-CB--CG-[CD] |==|  0.19864
USER: genes 17 Torsion [CB]-CG--CD-[OE2] |==|  0.66475
ROOT
ATOM      1  CA  TRP G 500      -9.892 -42.570  18.965  1.00 57.70 LIG 0.18  C 
ENDROOT
BRANCH 1 2
ATOM      2  C   TRP G 500     -10.267 -43.716  19.900  1.00 58.91 LIG 0.24  C 
ATOM      3 O    TRP G 500     -11.125 -44.532  19.563  1.00 59.13 LIG-0.27  OA
ATOM      4  N   ASP G 501      -9.629 -43.786  21.065  1.00 60.05 LIG-0.35  N 
ATOM      5 H    ASP G 501      -9.030 -43.226  21.326  1.00 60.05 LIG 0.16  HD
BRANCH 4 6
ATOM      6  CA  ASP G 501      -9.918 -44.860  22.011  1.00 61.20 LIG 0.17  C 
BRANCH 6 7
ATOM      7  CB  ASP G 501      -9.039 -44.733  23.257  1.00 62.64 LIG 0.15  C 
BRANCH 7 8
ATOM      8  CG  ASP G 501      -7.635 -44.249  22.932  1.00 64.46 LIG 0.17  C 
ATOM      9 OD2  ASP G 501      -6.689 -45.064  23.002  1.00 65.00 LIG-0.65  OA
ATOM     10 OD1  ASP G 501      -7.478 -43.055  22.594  1.00 64.87 LIG-0.65  OA
ENDBRANCH 7 8
ENDBRANCH 6 7
BRANCH 6 11
ATOM     11  C   ASP G 501     -11.389 -44.840  22.426  1.00 61.58 LIG 0.22  C 
ATOM     12 O    ASP G 501     -11.854 -45.876  22.951  1.00 60.92 LIG-0.29  OA
ENDBRANCH 6 11
ENDBRANCH 4 6
ENDBRANCH 1 2
BRANCH 1 13
ATOM     13  CB  TRP G 500      -8.372 -42.514  18.792  1.00 52.85 LIG 0.07  C 
BRANCH 13 14
ATOM     14  CG  TRP G 500      -7.955 -42.065  17.423  1.00 47.47 LIG-0.03  A 
ATOM     15  CD2 TRP G 500      -7.607 -42.905  16.316  1.00 44.29 LIG-0.00  A 
ATOM     16  CE3 TRP G 500      -7.526 -44.293  16.135  1.00 42.43 LIG 0.01  A 
ATOM     17  CE2 TRP G 500      -7.294 -42.054  15.228  1.00 43.87 LIG 0.04  A 
ATOM     18  CZ3 TRP G 500      -7.140 -44.786  14.886  1.00 40.94 LIG 0.00  A 
ATOM     19  CH2 TRP G 500      -6.834 -43.913  13.823  1.00 40.39 LIG 0.00  A 
ATOM     20  CZ2 TRP G 500      -6.906 -42.550  13.973  1.00 41.47 LIG 0.03  A 
ATOM     21  NE1 TRP G 500      -7.449 -40.762  15.659  1.00 44.24 LIG-0.36  N 
ATOM     22  CD1 TRP G 500      -7.844 -40.777  16.978  1.00 45.90 LIG 0.10  A 
ATOM     23 HE1  TRP G 500      -7.321 -40.057  15.183  1.00 44.24 LIG 0.17  HD
ENDBRANCH 13 14
ENDBRANCH 1 13
BRANCH 1 24
ATOM     24  N   TRP G 500     -10.395 -41.267  19.375  1.00 59.87 LIG-0.35  N 
ATOM     25  C   GLU G 499     -11.022 -40.462  18.523  1.00 62.14 LIG 0.24  C 
ATOM     26 O    GLU G 499     -11.233 -40.762  17.344  1.00 62.68 LIG-0.27  OA
ATOM     27 H    TRP G 500     -10.250 -41.074  20.201  1.00 59.87 LIG 0.16  HD
BRANCH 25 28
ATOM     28  CA  GLU G 499     -11.486 -39.121  19.085  1.00 62.75 LIG 0.18  C 
BRANCH 28 29
ATOM     29  N   GLU G 499     -10.521 -38.074  18.767  1.00 64.36 LIG-0.35  N 
ATOM     30 H    GLU G 499     -10.785 -37.516  18.169  1.00 64.36 LIG 0.16  HD
ATOM     31  C   ASP G 498      -9.337 -38.017  19.370  1.00 65.69 LIG 0.26  C 
ATOM     32 O    ASP G 498      -8.981 -38.831  20.224  1.00 66.78 LIG-0.27  OA
BRANCH 31 33
ATOM     33  CA  ASP G 498      -8.413 -36.873  18.954  1.00 65.54 LIG 0.41  C 
ATOM     34  N   ASP G 498      -8.937 -36.242  17.709  1.00 65.34 LIG 0.61  N 
BRANCH 33 35
ATOM     35  CB  ASP G 498      -8.340 -35.833  20.078  1.00 65.84 LIG 0.16  C 
BRANCH 35 36
ATOM     36  CG  ASP G 498      -7.214 -36.108  21.058  1.00 65.00 LIG 0.17  C 
ATOM     37 OD2  ASP G 498      -6.721 -37.257  21.079  1.00 65.16 LIG-0.65  OA
ATOM     38 OD1  ASP G 498      -6.824 -35.186  21.806  1.00 63.97 LIG-0.65  OA
ENDBRANCH 35 36
ENDBRANCH 33 35
ENDBRANCH 31 33
ENDBRANCH 28 29
BRANCH 28 39
ATOM     39  CB  GLU G 499     -12.856 -38.769  18.499  1.00 61.39 LIG 0.04  C 
BRANCH 39 40
ATOM     40  CG  GLU G 499     -13.544 -37.601  19.187  1.00 60.98 LIG 0.12  C 
BRANCH 40 41
ATOM     41  CD  GLU G 499     -12.885 -36.270  18.879  1.00 61.07 LIG 0.17  C 
ATOM     42 OE2  GLU G 499     -12.438 -35.595  19.830  1.00 60.51 LIG-0.65  OA
ATOM     43 OE1  GLU G 499     -12.805 -35.901  17.688  1.00 60.30 LIG-0.65  OA
ENDBRANCH 40 41
ENDBRANCH 39 40
ENDBRANCH 28 39
ENDBRANCH 25 28
ENDBRANCH 1 24
TORSDOF 16
ENDMDL
MODEL 6
USER: ADFR SOLUTION from run 99
USER: SCORE 17.787928 LL:  -2.350 LR: -15.935 RR:   0.000 FEB: -11.162
USER: RMSD 5.980353
USER: SEED 98
USER: STATUS no improvement in best in 8 clusters for 5 generations
USER: GENES 18
USER: genes 0 Translation |==|  0.51320 0.58713 0.43345
USER: genes 1 Rotation |==|  0.65643 0.37034 0.25665 0.88665
USER: genes 2 Torsion [N]-CA--C-[N] |==|  0.09248
USER: genes 3 Torsion [C]-N--CA-[CB] |==|  0.52730
USER: genes 4 Torsion [N]-CA--CB-[CG] |==|  0.22656
USER: genes 5 Torsion [CA]-CB--CG-[OD2] |==|  0.70519
USER: genes 6 Torsion [N]-CA--C-[O] |==|  0.33258
USER: genes 7 Torsion [C]-CA--CB-[CG] |==|  0.23197
USER: genes 8 Torsion [CA]-CB--CG-[CD2] |==|  0.53662
USER: genes 9 Torsion [C]-CA--N-[C] |==|  0.61961
USER: genes 10 Torsion [N]-C--CA-[N] |==|  0.09233
USER: genes 11 Torsion [C]-CA--N-[C] |==|  0.16911
USER: genes 12 Torsion [N]-C--CA-[N] |==|  0.30670
USER: genes 13 Torsion [C]-CA--CB-[CG] |==|  0.79617
USER: genes 14 Torsion [CA]-CB--CG-[OD2] |==|  0.30954
USER: genes 15 Torsion [C]-CA--CB-[CG] |==|  0.55143
USER: genes 16 Torsion [CA]-CB--CG-[CD] |==|  0.29282
USER: genes 17 Torsion [CB]-CG--CD-[OE2] |==|  0.62897
ROOT
ATOM      1  CA  TRP G 500      -9.605 -40.316  18.969  1.00 57.70 LIG 0.18  C 
ENDROOT
BRANCH 1 2
ATOM      2  C   TRP G 500     -10.990 -40.154  18.351  1.00 58.91 LIG 0.24  C 
ATOM      3 O    TRP G 500     -11.286 -40.775  17.330  1.00 59.13 LIG-0.27  OA
ATOM      4  N   ASP G 501     -11.839 -39.333  18.963  1.00 60.05 LIG-0.35  N 
ATOM      5 H    ASP G 501     -11.655 -38.885  19.673  1.00 60.05 LIG 0.16  HD
BRANCH 4 6
ATOM      6  CA  ASP G 501     -13.189 -39.134  18.444  1.00 61.20 LIG 0.17  C 
BRANCH 6 7
ATOM      7  CB  ASP G 501     -13.879 -37.976  19.167  1.00 62.64 LIG 0.15  C 
BRANCH 7 8
ATOM      8  CG  ASP G 501     -13.479 -36.620  18.610  1.00 64.46 LIG 0.17  C 
ATOM      9 OD2  ASP G 501     -12.705 -35.901  19.280  1.00 65.00 LIG-0.65  OA
ATOM     10 OD1  ASP G 501     -13.930 -36.276  17.494  1.00 64.87 LIG-0.65  OA
ENDBRANCH 7 8
ENDBRANCH 6 7
BRANCH 6 11
ATOM     11  C   ASP G 501     -13.160 -38.847  16.943  1.00 61.58 LIG 0.22  C 
ATOM     12 O    ASP G 501     -13.768 -39.643  16.192  1.00 60.92 LIG-0.29  OA
ENDBRANCH 6 11
ENDBRANCH 4 6
ENDBRANCH 1 2
BRANCH 1 13
ATOM     13  CB  TRP G 500      -8.982 -41.639  18.516  1.00 52.85 LIG 0.07  C 
BRANCH 13 14
ATOM     14  CG  TRP G 500      -8.315 -41.542  17.177  1.00 47.47 LIG-0.03  A 
ATOM     15  CD2 TRP G 500      -7.876 -42.634  16.359  1.00 44.29 LIG-0.00  A 
ATOM     16  CE3 TRP G 500      -7.896 -44.029  16.504  1.00 42.43 LIG 0.01  A 
ATOM     17  CE2 TRP G 500      -7.317 -42.077  15.183  1.00 43.87 LIG 0.04  A 
ATOM     18  CZ3 TRP G 500      -7.364 -44.818  15.481  1.00 40.94 LIG 0.00  A 
ATOM     19  CH2 TRP G 500      -6.815 -44.233  14.323  1.00 40.39 LIG 0.00  A 
ATOM     20  CZ2 TRP G 500      -6.783 -42.871  14.155  1.00 41.47 LIG 0.03  A 
ATOM     21  NE1 TRP G 500      -7.418 -40.714  15.286  1.00 44.24 LIG-0.36  N 
ATOM     22  CD1 TRP G 500      -8.016 -40.401  16.486  1.00 45.90 LIG 0.10  A 
ATOM     23 HE1  TRP G 500      -7.151 -40.147  14.696  1.00 44.24 LIG 0.17  HD
ENDBRANCH 13 14
ENDBRANCH 1 13
BRANCH 1 24
ATOM     24  N   TRP G 500      -9.577 -40.224  20.422  1.00 59.87 LIG-0.35  N 
ATOM     25  C   GLU G 499      -8.635 -39.537  21.060  1.00 62.14 LIG 0.24  C 
ATOM     26 O    GLU G 499      -7.736 -38.925  20.476  1.00 62.68 LIG-0.27  OA
ATOM     27 H    TRP G 500     -10.215 -40.646  20.817  1.00 59.87 LIG 0.16  HD
BRANCH 25 28
ATOM     28  CA  GLU G 499      -8.721 -39.536  22.583  1.00 62.75 LIG 0.18  C 
BRANCH 28 29
ATOM     29  N   GLU G 499      -9.254 -40.806  23.065  1.00 64.36 LIG-0.35  N 
ATOM     30 H    GLU G 499      -9.990 -40.740  23.505  1.00 64.36 LIG 0.16  HD
ATOM     31  C   ASP G 498      -8.629 -41.955  22.825  1.00 65.69 LIG 0.26  C 
ATOM     32 O    ASP G 498      -7.574 -42.023  22.191  1.00 66.78 LIG-0.27  OA
BRANCH 31 33
ATOM     33  CA  ASP G 498      -9.286 -43.218  23.378  1.00 65.54 LIG 0.41  C 
ATOM     34  N   ASP G 498      -9.816 -44.035  22.248  1.00 65.34 LIG 0.61  N 
BRANCH 33 35
ATOM     35  CB  ASP G 498      -8.259 -44.030  24.175  1.00 65.84 LIG 0.16  C 
BRANCH 35 36
ATOM     36  CG  ASP G 498      -7.247 -44.729  23.286  1.00 65.00 LIG 0.17  C 
ATOM     37 OD2  ASP G 498      -6.063 -44.330  23.317  1.00 65.16 LIG-0.65  OA
ATOM     38 OD1  ASP G 498      -7.630 -45.669  22.556  1.00 63.97 LIG-0.65  OA
ENDBRANCH 35 36
ENDBRANCH 33 35
ENDBRANCH 31 33
ENDBRANCH 28 29
BRANCH 28 39
ATOM     39  CB  GLU G 499      -7.329 -39.293  23.173  1.00 61.39 LIG 0.04  C 
BRANCH 39 40
ATOM     40  CG  GLU G 499      -7.191 -39.701  24.631  1.00 60.98 LIG 0.12  C 
BRANCH 40 41
ATOM     41  CD  GLU G 499      -6.405 -40.986  24.806  1.00 61.07 LIG 0.17  C 
ATOM     42 OE2  GLU G 499      -6.860 -41.861  25.571  1.00 60.51 LIG-0.65  OA
ATOM     43 OE1  GLU G 499      -5.336 -41.127  24.173  1.00 60.30 LIG-0.65  OA
ENDBRANCH 40 41
ENDBRANCH 39 40
ENDBRANCH 28 39
ENDBRANCH 25 28
ENDBRANCH 1 24
TORSDOF 16
ENDMDL
MODEL 7
USER: ADFR SOLUTION from run 133
USER: SCORE 18.007636 LL:  -2.534 LR: -15.889 RR:   0.000 FEB: -11.116
USER: RMSD 6.138775
USER: SEED 132
USER: STATUS no improvement in best in 6 clusters for 5 generations
USER: GENES 18
USER: genes 0 Translation |==|  0.51760 0.59635 0.43491
USER: genes 1 Rotation |==|  0.64161 0.36403 0.25673 0.89023
USER: genes 2 Torsion [N]-CA--C-[N] |==|  0.09026
USER: genes 3 Torsion [C]-N--CA-[CB] |==|  0.52846
USER: genes 4 Torsion [N]-CA--CB-[CG] |==|  0.16736
USER: genes 5 Torsion [CA]-CB--CG-[OD2] |==|  0.20281
USER: genes 6 Torsion [N]-CA--C-[O] |==|  0.35577
USER: genes 7 Torsion [C]-CA--CB-[CG] |==|  0.23075
USER: genes 8 Torsion [CA]-CB--CG-[CD2] |==|  0.53753
USER: genes 9 Torsion [C]-CA--N-[C] |==|  0.62227
USER: genes 10 Torsion [N]-C--CA-[N] |==|  0.01615
USER: genes 11 Torsion [C]-CA--N-[C] |==|  0.74546
USER: genes 12 Torsion [N]-C--CA-[N] |==|  0.82304
USER: genes 13 Torsion [C]-CA--CB-[CG] |==|  0.19689
USER: genes 14 Torsion [CA]-CB--CG-[OD2] |==|  0.26437
USER: genes 15 Torsion [C]-CA--CB-[CG] |==|  0.65860
USER: genes 16 Torsion [CA]-CB--CG-[CD] |==|  0.27565
USER: genes 17 Torsion [CB]-CG--CD-[OE2] |==|  0.85523
ROOT
ATOM      1  CA  TRP G 500      -9.536 -40.108  18.999  1.00 57.70 LIG 0.18  C 
ENDROOT
BRANCH 1 2
ATOM      2  C   TRP G 500     -10.927 -39.963  18.389  1.00 58.91 LIG 0.24  C 
ATOM      3 O    TRP G 500     -11.241 -40.631  17.404  1.00 59.13 LIG-0.27  OA
ATOM      4  N   ASP G 501     -11.760 -39.103  18.968  1.00 60.05 LIG-0.35  N 
ATOM      5 H    ASP G 501     -11.562 -38.622  19.653  1.00 60.05 LIG 0.16  HD
BRANCH 4 6
ATOM      6  CA  ASP G 501     -13.114 -38.916  18.455  1.00 61.20 LIG 0.17  C 
BRANCH 6 7
ATOM      7  CB  ASP G 501     -13.780 -37.710  19.120  1.00 62.64 LIG 0.15  C 
BRANCH 7 8
ATOM      8  CG  ASP G 501     -13.024 -36.415  18.869  1.00 64.46 LIG 0.17  C 
ATOM      9 OD2  ASP G 501     -13.077 -35.901  17.730  1.00 65.00 LIG-0.65  OA
ATOM     10 OD1  ASP G 501     -12.385 -35.904  19.815  1.00 64.87 LIG-0.65  OA
ENDBRANCH 7 8
ENDBRANCH 6 7
BRANCH 6 11
ATOM     11  C   ASP G 501     -13.100 -38.715  16.940  1.00 61.58 LIG 0.22  C 
ATOM     12 O    ASP G 501     -13.853 -39.443  16.256  1.00 60.92 LIG-0.29  OA
ENDBRANCH 6 11
ENDBRANCH 4 6
ENDBRANCH 1 2
BRANCH 1 13
ATOM     13  CB  TRP G 500      -8.940 -41.467  18.622  1.00 52.85 LIG 0.07  C 
BRANCH 13 14
ATOM     14  CG  TRP G 500      -8.298 -41.469  17.267  1.00 47.47 LIG-0.03  A 
ATOM     15  CD2 TRP G 500      -7.896 -42.618  16.511  1.00 44.29 LIG-0.00  A 
ATOM     16  CE3 TRP G 500      -7.939 -44.000  16.745  1.00 42.43 LIG 0.01  A 
ATOM     17  CE2 TRP G 500      -7.351 -42.148  15.292  1.00 43.87 LIG 0.04  A 
ATOM     18  CZ3 TRP G 500      -7.443 -44.863  15.764  1.00 40.94 LIG 0.00  A 
ATOM     19  CH2 TRP G 500      -6.907 -44.363  14.561  1.00 40.39 LIG 0.00  A 
ATOM     20  CZ2 TRP G 500      -6.853 -43.015  14.306  1.00 41.47 LIG 0.03  A 
ATOM     21  NE1 TRP G 500      -7.425 -40.779  15.310  1.00 44.24 LIG-0.36  N 
ATOM     22  CD1 TRP G 500      -7.993 -40.379  16.499  1.00 45.90 LIG 0.10  A 
ATOM     23 HE1  TRP G 500      -7.160 -40.256  14.681  1.00 44.24 LIG 0.17  HD
ENDBRANCH 13 14
ENDBRANCH 1 13
BRANCH 1 24
ATOM     24  N   TRP G 500      -9.487 -39.926  20.442  1.00 59.87 LIG-0.35  N 
ATOM     25  C   GLU G 499      -8.536 -39.201  21.022  1.00 62.14 LIG 0.24  C 
ATOM     26 O    GLU G 499      -7.646 -38.626  20.389  1.00 62.68 LIG-0.27  OA
ATOM     27 H    TRP G 500     -10.118 -40.323  20.872  1.00 59.87 LIG 0.16  HD
BRANCH 25 28
ATOM     28  CA  GLU G 499      -8.601 -39.105  22.544  1.00 62.75 LIG 0.18  C 
BRANCH 28 29
ATOM     29  N   GLU G 499      -9.654 -39.970  23.065  1.00 64.36 LIG-0.35  N 
ATOM     30 H    GLU G 499      -9.403 -40.776  23.231  1.00 64.36 LIG 0.16  HD
ATOM     31  C   ASP G 498     -10.890 -39.518  23.258  1.00 65.69 LIG 0.26  C 
ATOM     32 O    ASP G 498     -11.223 -38.357  23.012  1.00 66.78 LIG-0.27  OA
BRANCH 31 33
ATOM     33  CA  ASP G 498     -11.904 -40.518  23.811  1.00 65.54 LIG 0.41  C 
ATOM     34  N   ASP G 498     -12.098 -41.621  22.826  1.00 65.34 LIG 0.61  N 
BRANCH 33 35
ATOM     35  CB  ASP G 498     -11.398 -41.086  25.141  1.00 65.84 LIG 0.16  C 
BRANCH 35 36
ATOM     36  CG  ASP G 498     -11.438 -40.067  26.266  1.00 65.00 LIG 0.17  C 
ATOM     37 OD2  ASP G 498     -12.437 -40.058  27.016  1.00 65.16 LIG-0.65  OA
ATOM     38 OD1  ASP G 498     -10.479 -39.276  26.400  1.00 63.97 LIG-0.65  OA
ENDBRANCH 35 36
ENDBRANCH 33 35
ENDBRANCH 31 33
ENDBRANCH 28 29
BRANCH 28 39
ATOM     39  CB  GLU G 499      -7.248 -39.507  23.138  1.00 61.39 LIG 0.04  C 
BRANCH 39 40
ATOM     40  CG  GLU G 499      -7.321 -40.659  24.128  1.00 60.98 LIG 0.12  C 
BRANCH 40 41
ATOM     41  CD  GLU G 499      -6.941 -41.989  23.505  1.00 61.07 LIG 0.17  C 
ATOM     42 OE2  GLU G 499      -7.514 -42.337  22.453  1.00 60.51 LIG-0.65  OA
ATOM     43 OE1  GLU G 499      -6.063 -42.683  24.062  1.00 60.30 LIG-0.65  OA
ENDBRANCH 40 41
ENDBRANCH 39 40
ENDBRANCH 28 39
ENDBRANCH 25 28
ENDBRANCH 1 24
TORSDOF 16
ENDMDL
MODEL 8
USER: ADFR SOLUTION from run 10
USER: SCORE 17.373413 LL:  -2.672 LR: -15.807 RR:   0.000 FEB: -11.034
USER: RMSD 6.368264
USER: SEED 417699
USER: STATUS no improvement in best in 3 clusters for 5 generations
USER: GENES 18
USER: genes 0 Translation |==|  0.52170 0.62372 0.40911
USER: genes 1 Rotation |==|  0.75903 0.51986 0.30111 0.87808
USER: genes 2 Torsion [N]-CA--C-[N] |==|  0.27164
USER: genes 3 Torsion [C]-N--CA-[CB] |==|  0.48249
USER: genes 4 Torsion [N]-CA--CB-[CG] |==|  0.10151
USER: genes 5 Torsion [CA]-CB--CG-[OD2] |==|  0.66268
USER: genes 6 Torsion [N]-CA--C-[O] |==|  0.25355
USER: genes 7 Torsion [C]-CA--CB-[CG] |==|  0.78151
USER: genes 8 Torsion [CA]-CB--CG-[CD2] |==|  0.48620
USER: genes 9 Torsion [C]-CA--N-[C] |==|  0.56667
USER: genes 10 Torsion [N]-C--CA-[N] |==|  0.63866
USER: genes 11 Torsion [C]-CA--N-[C] |==|  0.15916
USER: genes 12 Torsion [N]-C--CA-[N] |==|  0.97533
USER: genes 13 Torsion [C]-CA--CB-[CG] |==|  0.84316
USER: genes 14 Torsion [CA]-CB--CG-[OD2] |==|  0.44215
USER: genes 15 Torsion [C]-CA--CB-[CG] |==|  0.51279
USER: genes 16 Torsion [CA]-CB--CG-[CD] |==|  0.90327
USER: genes 17 Torsion [CB]-CG--CD-[OE2] |==|  0.29867
ROOT
ATOM      1  CA  TRP G 500      -9.471 -39.492  18.476  1.00 57.70 LIG 0.18  C 
ENDROOT
BRANCH 1 2
ATOM      2  C   TRP G 500     -10.951 -39.680  18.155  1.00 58.91 LIG 0.24  C 
ATOM      3 O    TRP G 500     -11.339 -40.718  17.619  1.00 59.13 LIG-0.27  OA
ATOM      4  N   ASP G 501     -11.776 -38.690  18.483  1.00 60.05 LIG-0.35  N 
ATOM      5 H    ASP G 501     -11.529 -37.954  18.854  1.00 60.05 LIG 0.16  HD
BRANCH 4 6
ATOM      6  CA  ASP G 501     -13.209 -38.796  18.224  1.00 61.20 LIG 0.17  C 
BRANCH 6 7
ATOM      7  CB  ASP G 501     -13.956 -37.606  18.829  1.00 62.64 LIG 0.15  C 
BRANCH 7 8
ATOM      8  CG  ASP G 501     -13.167 -36.310  18.727  1.00 64.46 LIG 0.17  C 
ATOM      9 OD2  ASP G 501     -12.887 -35.694  19.779  1.00 65.00 LIG-0.65  OA
ATOM     10 OD1  ASP G 501     -12.815 -35.913  17.594  1.00 64.87 LIG-0.65  OA
ENDBRANCH 7 8
ENDBRANCH 6 7
BRANCH 6 11
ATOM     11  C   ASP G 501     -13.488 -38.859  16.723  1.00 61.58 LIG 0.22  C 
ATOM     12 O    ASP G 501     -13.541 -39.991  16.193  1.00 60.92 LIG-0.29  OA
ENDBRANCH 6 11
ENDBRANCH 4 6
ENDBRANCH 1 2
BRANCH 1 13
ATOM     13  CB  TRP G 500      -8.616 -39.986  17.306  1.00 52.85 LIG 0.07  C 
BRANCH 13 14
ATOM     14  CG  TRP G 500      -8.478 -41.479  17.272  1.00 47.47 LIG-0.03  A 
ATOM     15  CD2 TRP G 500      -7.831 -42.255  16.256  1.00 44.29 LIG-0.00  A 
ATOM     16  CE3 TRP G 500      -7.178 -41.938  15.056  1.00 42.43 LIG 0.01  A 
ATOM     17  CE2 TRP G 500      -7.929 -43.614  16.642  1.00 43.87 LIG 0.04  A 
ATOM     18  CZ3 TRP G 500      -6.649 -42.976  14.285  1.00 40.94 LIG 0.00  A 
ATOM     19  CH2 TRP G 500      -6.765 -44.318  14.696  1.00 40.39 LIG 0.00  A 
ATOM     20  CZ2 TRP G 500      -7.397 -44.657  15.866  1.00 41.47 LIG 0.03  A 
ATOM     21  NE1 TRP G 500      -8.602 -43.654  17.836  1.00 44.24 LIG-0.36  N 
ATOM     22  CD1 TRP G 500      -8.929 -42.370  18.206  1.00 45.90 LIG 0.10  A 
ATOM     23 HE1  TRP G 500      -8.788 -44.367  18.281  1.00 44.24 LIG 0.17  HD
ENDBRANCH 13 14
ENDBRANCH 1 13
BRANCH 1 24
ATOM     24  N   TRP G 500      -9.036 -40.126  19.713  1.00 59.87 LIG-0.35  N 
ATOM     25  C   GLU G 499      -7.966 -39.700  20.376  1.00 62.14 LIG 0.24  C 
ATOM     26 O    GLU G 499      -7.281 -38.742  20.005  1.00 62.68 LIG-0.27  OA
ATOM     27 H    TRP G 500      -9.528 -40.785  19.966  1.00 59.87 LIG 0.16  HD
BRANCH 25 28
ATOM     28  CA  GLU G 499      -7.619 -40.465  21.650  1.00 62.75 LIG 0.18  C 
BRANCH 28 29
ATOM     29  N   GLU G 499      -7.415 -39.540  22.760  1.00 64.36 LIG-0.35  N 
ATOM     30 H    GLU G 499      -6.644 -39.601  23.138  1.00 64.36 LIG 0.16  HD
ATOM     31  C   ASP G 498      -8.363 -38.685  23.134  1.00 65.69 LIG 0.26  C 
ATOM     32 O    ASP G 498      -9.460 -38.618  22.576  1.00 66.78 LIG-0.27  OA
BRANCH 31 33
ATOM     33  CA  ASP G 498      -8.030 -37.766  24.307  1.00 65.54 LIG 0.41  C 
ATOM     34  N   ASP G 498      -6.742 -38.197  24.923  1.00 65.34 LIG 0.61  N 
BRANCH 33 35
ATOM     35  CB  ASP G 498      -7.918 -36.319  23.816  1.00 65.84 LIG 0.16  C 
BRANCH 35 36
ATOM     36  CG  ASP G 498      -6.894 -36.154  22.707  1.00 65.00 LIG 0.17  C 
ATOM     37 OD2  ASP G 498      -6.986 -35.151  21.967  1.00 65.16 LIG-0.65  OA
ATOM     38 OD1  ASP G 498      -6.005 -37.022  22.570  1.00 63.97 LIG-0.65  OA
ENDBRANCH 35 36
ENDBRANCH 33 35
ENDBRANCH 31 33
ENDBRANCH 28 29
BRANCH 28 39
ATOM     39  CB  GLU G 499      -8.750 -41.442  21.982  1.00 61.39 LIG 0.04  C 
BRANCH 39 40
ATOM     40  CG  GLU G 499      -8.565 -42.184  23.296  1.00 60.98 LIG 0.12  C 
BRANCH 40 41
ATOM     41  CD  GLU G 499      -7.111 -42.499  23.590  1.00 61.07 LIG 0.17  C 
ATOM     42 OE2  GLU G 499      -6.534 -41.854  24.491  1.00 60.51 LIG-0.65  OA
ATOM     43 OE1  GLU G 499      -6.545 -43.395  22.929  1.00 60.30 LIG-0.65  OA
ENDBRANCH 40 41
ENDBRANCH 39 40
ENDBRANCH 28 39
ENDBRANCH 25 28
ENDBRANCH 1 24
TORSDOF 16
ENDMDL
MODEL 9
USER: ADFR SOLUTION from run 87
USER: SCORE 16.914108 LL:  -2.319 LR: -15.768 RR:   0.000 FEB: -10.995
USER: RMSD 6.179370
USER: SEED 86
USER: STATUS no improvement in best in 3 clusters for 5 generations
USER: GENES 18
USER: genes 0 Translation |==|  0.53932 0.61861 0.41660
USER: genes 1 Rotation |==|  0.78444 0.53543 0.30094 0.85807
USER: genes 2 Torsion [N]-CA--C-[N] |==|  0.28347
USER: genes 3 Torsion [C]-N--CA-[CB] |==|  0.47267
USER: genes 4 Torsion [N]-CA--CB-[CG] |==|  0.15406
USER: genes 5 Torsion [CA]-CB--CG-[OD2] |==|  0.17517
USER: genes 6 Torsion [N]-CA--C-[O] |==|  0.29018
USER: genes 7 Torsion [C]-CA--CB-[CG] |==|  0.78229
USER: genes 8 Torsion [CA]-CB--CG-[CD2] |==|  0.49065
USER: genes 9 Torsion [C]-CA--N-[C] |==|  0.62532
USER: genes 10 Torsion [N]-C--CA-[N] |==|  0.56417
USER: genes 11 Torsion [C]-CA--N-[C] |==|  0.17633
USER: genes 12 Torsion [N]-C--CA-[N] |==|  0.66432
USER: genes 13 Torsion [C]-CA--CB-[CG] |==|  0.74916
USER: genes 14 Torsion [CA]-CB--CG-[OD2] |==|  0.58736
USER: genes 15 Torsion [C]-CA--CB-[CG] |==|  0.51064
USER: genes 16 Torsion [CA]-CB--CG-[CD] |==|  0.88312
USER: genes 17 Torsion [CB]-CG--CD-[OE2] |==|  0.70855
ROOT
ATOM      1  CA  TRP G 500      -9.194 -39.607  18.628  1.00 57.70 LIG 0.18  C 
ENDROOT
BRANCH 1 2
ATOM      2  C   TRP G 500     -10.677 -39.742  18.299  1.00 58.91 LIG 0.24  C 
ATOM      3 O    TRP G 500     -11.087 -40.731  17.692  1.00 59.13 LIG-0.27  OA
ATOM      4  N   ASP G 501     -11.482 -38.761  18.699  1.00 60.05 LIG-0.35  N 
ATOM      5 H    ASP G 501     -11.220 -38.058  19.120  1.00 60.05 LIG 0.16  HD
BRANCH 4 6
ATOM      6  CA  ASP G 501     -12.917 -38.821  18.437  1.00 61.20 LIG 0.17  C 
BRANCH 6 7
ATOM      7  CB  ASP G 501     -13.650 -37.713  19.197  1.00 62.64 LIG 0.15  C 
BRANCH 7 8
ATOM      8  CG  ASP G 501     -13.100 -36.331  18.885  1.00 64.46 LIG 0.17  C 
ATOM      9 OD2  ASP G 501     -13.188 -35.901  17.714  1.00 65.00 LIG-0.65  OA
ATOM     10 OD1  ASP G 501     -12.591 -35.667  19.816  1.00 64.87 LIG-0.65  OA
ENDBRANCH 7 8
ENDBRANCH 6 7
BRANCH 6 11
ATOM     11  C   ASP G 501     -13.205 -38.683  16.942  1.00 61.58 LIG 0.22  C 
ATOM     12 O    ASP G 501     -13.521 -39.721  16.318  1.00 60.92 LIG-0.29  OA
ENDBRANCH 6 11
ENDBRANCH 4 6
ENDBRANCH 1 2
BRANCH 1 13
ATOM     13  CB  TRP G 500      -8.353 -39.932  17.390  1.00 52.85 LIG 0.07  C 
BRANCH 13 14
ATOM     14  CG  TRP G 500      -8.227 -41.404  17.138  1.00 47.47 LIG-0.03  A 
ATOM     15  CD2 TRP G 500      -7.568 -42.030  16.031  1.00 44.29 LIG-0.00  A 
ATOM     16  CE3 TRP G 500      -6.889 -41.547  14.903  1.00 42.43 LIG 0.01  A 
ATOM     17  CE2 TRP G 500      -7.687 -43.430  16.209  1.00 43.87 LIG 0.04  A 
ATOM     18  CZ3 TRP G 500      -6.354 -42.466  13.996  1.00 40.94 LIG 0.00  A 
ATOM     19  CH2 TRP G 500      -6.490 -43.853  14.202  1.00 40.39 LIG 0.00  A 
ATOM     20  CZ2 TRP G 500      -7.149 -44.353  15.298  1.00 41.47 LIG 0.03  A 
ATOM     21  NE1 TRP G 500      -8.383 -43.638  17.372  1.00 44.24 LIG-0.36  N 
ATOM     22  CD1 TRP G 500      -8.705 -42.418  17.922  1.00 45.90 LIG 0.10  A 
ATOM     23 HE1  TRP G 500      -8.584 -44.406  17.703  1.00 44.24 LIG 0.17  HD
ENDBRANCH 13 14
ENDBRANCH 1 13
BRANCH 1 24
ATOM     24  N   TRP G 500      -8.750 -40.412  19.757  1.00 59.87 LIG-0.35  N 
ATOM     25  C   GLU G 499      -7.960 -39.912  20.702  1.00 62.14 LIG 0.24  C 
ATOM     26 O    GLU G 499      -7.562 -38.744  20.700  1.00 62.68 LIG-0.27  OA
ATOM     27 H    TRP G 500      -9.041 -41.222  19.752  1.00 59.87 LIG 0.16  HD
BRANCH 25 28
ATOM     28  CA  GLU G 499      -7.563 -40.872  21.820  1.00 62.75 LIG 0.18  C 
BRANCH 28 29
ATOM     29  N   GLU G 499      -7.190 -40.132  23.020  1.00 64.36 LIG-0.35  N 
ATOM     30 H    GLU G 499      -6.371 -40.231  23.261  1.00 64.36 LIG 0.16  HD
ATOM     31  C   ASP G 498      -8.070 -39.372  23.667  1.00 65.69 LIG 0.26  C 
ATOM     32 O    ASP G 498      -9.241 -39.246  23.302  1.00 66.78 LIG-0.27  OA
BRANCH 31 33
ATOM     33  CA  ASP G 498      -7.560 -38.643  24.909  1.00 65.54 LIG 0.41  C 
ATOM     34  N   ASP G 498      -8.362 -39.064  26.094  1.00 65.34 LIG 0.61  N 
BRANCH 33 35
ATOM     35  CB  ASP G 498      -6.081 -38.974  25.133  1.00 65.84 LIG 0.16  C 
BRANCH 35 36
ATOM     36  CG  ASP G 498      -5.880 -40.192  26.017  1.00 65.00 LIG 0.17  C 
ATOM     37 OD2  ASP G 498      -4.864 -40.228  26.744  1.00 65.16 LIG-0.65  OA
ATOM     38 OD1  ASP G 498      -6.729 -41.109  25.986  1.00 63.97 LIG-0.65  OA
ENDBRANCH 35 36
ENDBRANCH 33 35
ENDBRANCH 31 33
ENDBRANCH 28 29
BRANCH 28 39
ATOM     39  CB  GLU G 499      -8.733 -41.812  22.125  1.00 61.39 LIG 0.04  C 
BRANCH 39 40
ATOM     40  CG  GLU G 499      -8.485 -42.757  23.289  1.00 60.98 LIG 0.12  C 
BRANCH 40 41
ATOM     41  CD  GLU G 499      -7.088 -43.346  23.276  1.00 61.07 LIG 0.17  C 
ATOM     42 OE2  GLU G 499      -6.948 -44.535  22.921  1.00 60.51 LIG-0.65  OA
ATOM     43 OE1  GLU G 499      -6.127 -42.621  23.612  1.00 60.30 LIG-0.65  OA
ENDBRANCH 40 41
ENDBRANCH 39 40
ENDBRANCH 28 39
ENDBRANCH 25 28
ENDBRANCH 1 24
TORSDOF 16
ENDMDL
MODEL 10
USER: ADFR SOLUTION from run 108
USER: SCORE 17.134345 LL:  -2.478 LR: -15.568 RR:   0.000 FEB: -10.795
USER: RMSD 6.115815
USER: SEED 107
USER: STATUS no improvement in best in 12 clusters for 5 generations
USER: GENES 18
USER: genes 0 Translation |==|  0.55324 0.57554 0.42798
USER: genes 1 Rotation |==|  0.57352 0.26916 0.14792 0.75951
USER: genes 2 Torsion [N]-CA--C-[N] |==|  0.17040
USER: genes 3 Torsion [C]-N--CA-[CB] |==|  0.14891
USER: genes 4 Torsion [N]-CA--CB-[CG] |==|  0.31400
USER: genes 5 Torsion [CA]-CB--CG-[OD2] |==|  0.26749
USER: genes 6 Torsion [N]-CA--C-[O] |==|  0.09207
USER: genes 7 Torsion [C]-CA--CB-[CG] |==|  0.28160
USER: genes 8 Torsion [CA]-CB--CG-[CD2] |==|  0.89377
USER: genes 9 Torsion [C]-CA--N-[C] |==|  0.79443
USER: genes 10 Torsion [N]-C--CA-[N] |==|  0.11952
USER: genes 11 Torsion [C]-CA--N-[C] |==|  0.72453
USER: genes 12 Torsion [N]-C--CA-[N] |==|  0.51979
USER: genes 13 Torsion [C]-CA--CB-[CG] |==|  0.25929
USER: genes 14 Torsion [CA]-CB--CG-[OD2] |==|  0.25962
USER: genes 15 Torsion [C]-CA--CB-[CG] |==|  0.34945
USER: genes 16 Torsion [CA]-CB--CG-[CD] |==|  0.66246
USER: genes 17 Torsion [CB]-CG--CD-[OE2] |==|  0.54946
ROOT
ATOM      1  CA  TRP G 500      -8.974 -40.576  18.859  1.00 57.70 LIG 0.18  C 
ENDROOT
BRANCH 1 2
ATOM      2  C   TRP G 500      -9.748 -39.622  17.954  1.00 58.91 LIG 0.24  C 
ATOM      3 O    TRP G 500     -10.720 -40.028  17.317  1.00 59.13 LIG-0.27  OA
ATOM      4  N   ASP G 501      -9.329 -38.361  17.898  1.00 60.05 LIG-0.35  N 
ATOM      5 H    ASP G 501      -8.651 -38.055  18.329  1.00 60.05 LIG 0.16  HD
BRANCH 4 6
ATOM      6  CA  ASP G 501     -10.024 -37.381  17.068  1.00 61.20 LIG 0.17  C 
BRANCH 6 7
ATOM      7  CB  ASP G 501     -11.516 -37.351  17.404  1.00 62.64 LIG 0.15  C 
BRANCH 7 8
ATOM      8  CG  ASP G 501     -11.943 -36.039  18.044  1.00 64.46 LIG 0.17  C 
ATOM      9 OD2  ASP G 501     -12.438 -35.150  17.317  1.00 65.00 LIG-0.65  OA
ATOM     10 OD1  ASP G 501     -11.793 -35.901  19.279  1.00 64.87 LIG-0.65  OA
ENDBRANCH 7 8
ENDBRANCH 6 7
BRANCH 6 11
ATOM     11  C   ASP G 501      -9.433 -35.985  17.264  1.00 61.58 LIG 0.22  C 
ATOM     12 O    ASP G 501      -8.206 -35.906  17.498  1.00 60.92 LIG-0.29  OA
ENDBRANCH 6 11
ENDBRANCH 4 6
ENDBRANCH 1 2
BRANCH 1 13
ATOM     13  CB  TRP G 500      -9.504 -42.003  18.687  1.00 52.85 LIG 0.07  C 
BRANCH 13 14
ATOM     14  CG  TRP G 500      -8.629 -42.850  17.813  1.00 47.47 LIG-0.03  A 
ATOM     15  CD2 TRP G 500      -7.939 -42.431  16.630  1.00 44.29 LIG-0.00  A 
ATOM     16  CE3 TRP G 500      -7.851 -41.217  15.932  1.00 42.43 LIG 0.01  A 
ATOM     17  CE2 TRP G 500      -7.229 -43.554  16.139  1.00 43.87 LIG 0.04  A 
ATOM     18  CZ3 TRP G 500      -7.064 -41.161  14.779  1.00 40.94 LIG 0.00  A 
ATOM     19  CH2 TRP G 500      -6.370 -42.296  14.317  1.00 40.39 LIG 0.00  A 
ATOM     20  CZ2 TRP G 500      -6.438 -43.496  14.980  1.00 41.47 LIG 0.03  A 
ATOM     21  NE1 TRP G 500      -7.477 -44.600  16.989  1.00 44.24 LIG-0.36  N 
ATOM     22  CD1 TRP G 500      -8.320 -44.171  17.990  1.00 45.90 LIG 0.10  A 
ATOM     23 HE1  TRP G 500      -7.158 -45.395  16.910  1.00 44.24 LIG 0.17  HD
ENDBRANCH 13 14
ENDBRANCH 1 13
BRANCH 1 24
ATOM     24  N   TRP G 500      -8.978 -40.210  20.267  1.00 59.87 LIG-0.35  N 
ATOM     25  C   GLU G 499      -8.251 -39.195  20.726  1.00 62.14 LIG 0.24  C 
ATOM     26 O    GLU G 499      -7.542 -38.493  20.000  1.00 62.68 LIG-0.27  OA
ATOM     27 H    TRP G 500      -9.483 -40.701  20.761  1.00 59.87 LIG 0.16  HD
BRANCH 25 28
ATOM     28  CA  GLU G 499      -8.341 -38.931  22.226  1.00 62.75 LIG 0.18  C 
BRANCH 28 29
ATOM     29  N   GLU G 499      -8.292 -40.185  22.969  1.00 64.36 LIG-0.35  N 
ATOM     30 H    GLU G 499      -7.500 -40.503  23.080  1.00 64.36 LIG 0.16  HD
ATOM     31  C   ASP G 498      -9.398 -40.766  23.424  1.00 65.69 LIG 0.26  C 
ATOM     32 O    ASP G 498     -10.523 -40.290  23.250  1.00 66.78 LIG-0.27  OA
BRANCH 31 33
ATOM     33  CA  ASP G 498      -9.218 -42.075  24.190  1.00 65.54 LIG 0.41  C 
ATOM     34  N   ASP G 498     -10.555 -42.672  24.472  1.00 65.34 LIG 0.61  N 
BRANCH 33 35
ATOM     35  CB  ASP G 498      -8.374 -43.049  23.359  1.00 65.84 LIG 0.16  C 
BRANCH 35 36
ATOM     36  CG  ASP G 498      -6.895 -42.971  23.691  1.00 65.00 LIG 0.17  C 
ATOM     37 OD2  ASP G 498      -6.442 -43.762  24.546  1.00 65.16 LIG-0.65  OA
ATOM     38 OD1  ASP G 498      -6.187 -42.124  23.104  1.00 63.97 LIG-0.65  OA
ENDBRANCH 35 36
ENDBRANCH 33 35
ENDBRANCH 31 33
ENDBRANCH 28 29
BRANCH 28 39
ATOM     39  CB  GLU G 499      -7.187 -38.021  22.654  1.00 61.39 LIG 0.04  C 
BRANCH 39 40
ATOM     40  CG  GLU G 499      -7.624 -36.768  23.395  1.00 60.98 LIG 0.12  C 
BRANCH 40 41
ATOM     41  CD  GLU G 499      -7.171 -35.494  22.708  1.00 61.07 LIG 0.17  C 
ATOM     42 OE2  GLU G 499      -7.165 -34.434  23.367  1.00 60.51 LIG-0.65  OA
ATOM     43 OE1  GLU G 499      -6.813 -35.552  21.512  1.00 60.30 LIG-0.65  OA
ENDBRANCH 40 41
ENDBRANCH 39 40
ENDBRANCH 28 39
ENDBRANCH 25 28
ENDBRANCH 1 24
TORSDOF 16
ENDMDL
MODEL 11
USER: ADFR SOLUTION from run 50
USER: SCORE 18.681023 LL:  -3.243 LR: -15.503 RR:   0.000 FEB: -10.730
USER: RMSD 7.273685
USER: SEED 49
USER: STATUS no improvement in best in 4 clusters for 5 generations
USER: GENES 18
USER: genes 0 Translation |==|  0.53982 0.59984 0.47665
USER: genes 1 Rotation |==|  0.21724 0.64674 0.87826 0.57371
USER: genes 2 Torsion [N]-CA--C-[N] |==|  0.95961
USER: genes 3 Torsion [C]-N--CA-[CB] |==|  0.81945
USER: genes 4 Torsion [N]-CA--CB-[CG] |==|  0.31067
USER: genes 5 Torsion [CA]-CB--CG-[OD2] |==|  0.74630
USER: genes 6 Torsion [N]-CA--C-[O] |==|  0.29948
USER: genes 7 Torsion [C]-CA--CB-[CG] |==|  0.39683
USER: genes 8 Torsion [CA]-CB--CG-[CD2] |==|  0.57392
USER: genes 9 Torsion [C]-CA--N-[C] |==|  0.78361
USER: genes 10 Torsion [N]-C--CA-[N] |==|  0.89538
USER: genes 11 Torsion [C]-CA--N-[C] |==|  0.81118
USER: genes 12 Torsion [N]-C--CA-[N] |==|  0.45333
USER: genes 13 Torsion [C]-CA--CB-[CG] |==|  0.72922
USER: genes 14 Torsion [CA]-CB--CG-[OD2] |==|  0.58492
USER: genes 15 Torsion [C]-CA--CB-[CG] |==|  0.04330
USER: genes 16 Torsion [CA]-CB--CG-[CD] |==|  0.58651
USER: genes 17 Torsion [CB]-CG--CD-[OE2] |==|  0.97593
ROOT
ATOM      1  CA  TRP G 500      -9.186 -40.030  19.844  1.00 57.70 LIG 0.18  C 
ENDROOT
BRANCH 1 2
ATOM      2  C   TRP G 500      -8.676 -38.670  20.312  1.00 58.91 LIG 0.24  C 
ATOM      3 O    TRP G 500      -7.475 -38.406  20.246  1.00 59.13 LIG-0.27  OA
ATOM      4  N   ASP G 501      -9.576 -37.807  20.775  1.00 60.05 LIG-0.35  N 
ATOM      5 H    ASP G 501     -10.418 -37.970  20.835  1.00 60.05 LIG 0.16  HD
BRANCH 4 6
ATOM      6  CA  ASP G 501      -9.172 -36.479  21.228  1.00 61.20 LIG 0.17  C 
BRANCH 6 7
ATOM      7  CB  ASP G 501      -8.272 -36.581  22.461  1.00 62.64 LIG 0.15  C 
BRANCH 7 8
ATOM      8  CG  ASP G 501      -6.841 -36.156  22.175  1.00 64.46 LIG 0.17  C 
ATOM      9 OD2  ASP G 501      -6.017 -37.026  21.817  1.00 65.00 LIG-0.65  OA
ATOM     10 OD1  ASP G 501      -6.542 -34.947  22.298  1.00 64.87 LIG-0.65  OA
ENDBRANCH 7 8
ENDBRANCH 6 7
BRANCH 6 11
ATOM     11  C   ASP G 501      -8.431 -35.728  20.122  1.00 61.58 LIG 0.22  C 
ATOM     12 O    ASP G 501      -9.031 -34.781  19.567  1.00 60.92 LIG-0.29  OA
ENDBRANCH 6 11
ENDBRANCH 4 6
ENDBRANCH 1 2
BRANCH 1 13
ATOM     13  CB  TRP G 500      -9.073 -40.134  18.321  1.00 52.85 LIG 0.07  C 
BRANCH 13 14
ATOM     14  CG  TRP G 500      -8.683 -41.505  17.856  1.00 47.47 LIG-0.03  A 
ATOM     15  CD2 TRP G 500      -7.995 -41.834  16.643  1.00 44.29 LIG-0.00  A 
ATOM     16  CE3 TRP G 500      -7.504 -41.080  15.567  1.00 42.43 LIG 0.01  A 
ATOM     17  CE2 TRP G 500      -7.828 -43.240  16.625  1.00 43.87 LIG 0.04  A 
ATOM     18  CZ3 TRP G 500      -6.867 -41.745  14.516  1.00 40.94 LIG 0.00  A 
ATOM     19  CH2 TRP G 500      -6.717 -43.146  14.528  1.00 40.39 LIG 0.00  A 
ATOM     20  CZ2 TRP G 500      -7.188 -43.908  15.568  1.00 41.47 LIG 0.03  A 
ATOM     21  NE1 TRP G 500      -8.387 -43.735  17.774  1.00 44.24 LIG-0.36  N 
ATOM     22  CD1 TRP G 500      -8.900 -42.688  18.507  1.00 45.90 LIG 0.10  A 
ATOM     23 HE1  TRP G 500      -8.413 -44.565  18.001  1.00 44.24 LIG 0.17  HD
ENDBRANCH 13 14
ENDBRANCH 1 13
BRANCH 1 24
ATOM     24  N   TRP G 500     -10.543 -40.343  20.266  1.00 59.87 LIG-0.35  N 
ATOM     25  C   GLU G 499     -10.813 -40.749  21.503  1.00 62.14 LIG 0.24  C 
ATOM     26 O    GLU G 499      -9.948 -40.876  22.374  1.00 62.68 LIG-0.27  OA
ATOM     27 H    TRP G 500     -11.138 -40.242  19.653  1.00 59.87 LIG 0.16  HD
BRANCH 25 28
ATOM     28  CA  GLU G 499     -12.278 -41.054  21.803  1.00 62.75 LIG 0.18  C 
BRANCH 28 29
ATOM     29  N   GLU G 499     -13.148 -40.100  21.122  1.00 64.36 LIG-0.35  N 
ATOM     30 H    GLU G 499     -13.623 -40.439  20.490  1.00 64.36 LIG 0.16  HD
ATOM     31  C   ASP G 498     -13.179 -38.818  21.473  1.00 65.69 LIG 0.26  C 
ATOM     32 O    ASP G 498     -12.487 -38.357  22.383  1.00 66.78 LIG-0.27  OA
BRANCH 31 33
ATOM     33  CA  ASP G 498     -14.131 -37.918  20.688  1.00 65.54 LIG 0.41  C 
ATOM     34  N   ASP G 498     -14.352 -36.652  21.444  1.00 65.34 LIG 0.61  N 
BRANCH 33 35
ATOM     35  CB  ASP G 498     -13.534 -37.609  19.311  1.00 65.84 LIG 0.16  C 
BRANCH 35 36
ATOM     36  CG  ASP G 498     -12.824 -36.268  19.268  1.00 65.00 LIG 0.17  C 
ATOM     37 OD2  ASP G 498     -12.813 -35.643  18.185  1.00 65.16 LIG-0.65  OA
ATOM     38 OD1  ASP G 498     -12.276 -35.840  20.307  1.00 63.97 LIG-0.65  OA
ENDBRANCH 35 36
ENDBRANCH 33 35
ENDBRANCH 31 33
ENDBRANCH 28 29
BRANCH 28 39
ATOM     39  CB  GLU G 499     -12.605 -42.480  21.350  1.00 61.39 LIG 0.04  C 
BRANCH 39 40
ATOM     40  CG  GLU G 499     -11.383 -43.344  21.085  1.00 60.98 LIG 0.12  C 
BRANCH 40 41
ATOM     41  CD  GLU G 499     -11.621 -44.375  19.998  1.00 61.07 LIG 0.17  C 
ATOM     42 OE2  GLU G 499     -12.783 -44.526  19.567  1.00 60.51 LIG-0.65  OA
ATOM     43 OE1  GLU G 499     -10.647 -45.028  19.567  1.00 60.30 LIG-0.65  OA
ENDBRANCH 40 41
ENDBRANCH 39 40
ENDBRANCH 28 39
ENDBRANCH 25 28
ENDBRANCH 1 24
TORSDOF 16
ENDMDL
MODEL 12
USER: ADFR SOLUTION from run 39
USER: SCORE 17.967983 LL:  -2.696 LR: -15.498 RR:   0.000 FEB: -10.725
USER: RMSD 6.869233
USER: SEED 38
USER: STATUS no improvement in best in 8 clusters for 5 generations
USER: GENES 18
USER: genes 0 Translation |==|  0.57052 0.57505 0.40897
USER: genes 1 Rotation |==|  0.69390 0.32829 0.16879 0.77059
USER: genes 2 Torsion [N]-CA--C-[N] |==|  0.26202
USER: genes 3 Torsion [C]-N--CA-[CB] |==|  0.14281
USER: genes 4 Torsion [N]-CA--CB-[CG] |==|  0.34436
USER: genes 5 Torsion [CA]-CB--CG-[OD2] |==|  0.72698
USER: genes 6 Torsion [N]-CA--C-[O] |==|  0.04405
USER: genes 7 Torsion [C]-CA--CB-[CG] |==|  0.21923
USER: genes 8 Torsion [CA]-CB--CG-[CD2] |==|  0.48899
USER: genes 9 Torsion [C]-CA--N-[C] |==|  0.76602
USER: genes 10 Torsion [N]-C--CA-[N] |==|  0.93490
USER: genes 11 Torsion [C]-CA--N-[C] |==|  0.82305
USER: genes 12 Torsion [N]-C--CA-[N] |==|  0.41190
USER: genes 13 Torsion [C]-CA--CB-[CG] |==|  0.22425
USER: genes 14 Torsion [CA]-CB--CG-[OD2] |==|  0.45741
USER: genes 15 Torsion [C]-CA--CB-[CG] |==|  0.74422
USER: genes 16 Torsion [CA]-CB--CG-[CD] |==|  0.47212
USER: genes 17 Torsion [CB]-CG--CD-[OE2] |==|  0.48270
ROOT
ATOM      1  CA  TRP G 500      -8.702 -40.587  18.474  1.00 57.70 LIG 0.18  C 
ENDROOT
BRANCH 1 2
ATOM      2  C   TRP G 500      -9.633 -39.614  17.757  1.00 58.91 LIG 0.24  C 
ATOM      3 O    TRP G 500     -10.682 -40.018  17.257  1.00 59.13 LIG-0.27  OA
ATOM      4  N   ASP G 501      -9.260 -38.338  17.709  1.00 60.05 LIG-0.35  N 
ATOM      5 H    ASP G 501      -8.530 -38.032  18.046  1.00 60.05 LIG 0.16  HD
BRANCH 4 6
ATOM      6  CA  ASP G 501     -10.101 -37.340  17.055  1.00 61.20 LIG 0.17  C 
BRANCH 6 7
ATOM      7  CB  ASP G 501     -11.536 -37.415  17.582  1.00 62.64 LIG 0.15  C 
BRANCH 7 8
ATOM      8  CG  ASP G 501     -12.022 -36.086  18.138  1.00 64.46 LIG 0.17  C 
ATOM      9 OD2  ASP G 501     -11.978 -35.901  19.374  1.00 65.00 LIG-0.65  OA
ATOM     10 OD1  ASP G 501     -12.438 -35.220  17.336  1.00 64.87 LIG-0.65  OA
ENDBRANCH 7 8
ENDBRANCH 6 7
BRANCH 6 11
ATOM     11  C   ASP G 501      -9.552 -35.931  17.281  1.00 61.58 LIG 0.22  C 
ATOM     12 O    ASP G 501      -8.373 -35.831  17.687  1.00 60.92 LIG-0.29  OA
ENDBRANCH 6 11
ENDBRANCH 4 6
ENDBRANCH 1 2
BRANCH 1 13
ATOM     13  CB  TRP G 500      -8.657 -41.918  17.718  1.00 52.85 LIG 0.07  C 
BRANCH 13 14
ATOM     14  CG  TRP G 500      -7.766 -41.877  16.513  1.00 47.47 LIG-0.03  A 
ATOM     15  CD2 TRP G 500      -7.448 -42.972  15.645  1.00 44.29 LIG-0.00  A 
ATOM     16  CE3 TRP G 500      -7.803 -44.328  15.620  1.00 42.43 LIG 0.01  A 
ATOM     17  CE2 TRP G 500      -6.587 -42.472  14.639  1.00 43.87 LIG 0.04  A 
ATOM     18  CZ3 TRP G 500      -7.294 -45.137  14.600  1.00 40.94 LIG 0.00  A 
ATOM     19  CH2 TRP G 500      -6.439 -44.608  13.613  1.00 40.39 LIG 0.00  A 
ATOM     20  CZ2 TRP G 500      -6.075 -43.285  13.614  1.00 41.47 LIG 0.03  A 
ATOM     21  NE1 TRP G 500      -6.398 -41.137  14.886  1.00 44.24 LIG-0.36  N 
ATOM     22  CD1 TRP G 500      -7.107 -40.788  16.013  1.00 45.90 LIG 0.10  A 
ATOM     23 HE1  TRP G 500      -5.915 -40.604  14.413  1.00 44.24 LIG 0.17  HD
ENDBRANCH 13 14
ENDBRANCH 1 13
BRANCH 1 24
ATOM     24  N   TRP G 500      -9.032 -40.820  19.872  1.00 59.87 LIG-0.35  N 
ATOM     25  C   GLU G 499      -8.612 -40.002  20.833  1.00 62.14 LIG 0.24  C 
ATOM     26 O    GLU G 499      -7.934 -38.995  20.612  1.00 62.68 LIG-0.27  OA
ATOM     27 H    TRP G 500      -9.513 -41.519  20.012  1.00 59.87 LIG 0.16  HD
BRANCH 25 28
ATOM     28  CA  GLU G 499      -9.023 -40.374  22.255  1.00 62.75 LIG 0.18  C 
BRANCH 28 29
ATOM     29  N   GLU G 499     -10.218 -41.209  22.240  1.00 64.36 LIG-0.35  N 
ATOM     30 H    GLU G 499     -10.102 -42.003  22.548  1.00 64.36 LIG 0.16  HD
ATOM     31  C   ASP G 498     -11.379 -40.750  21.779  1.00 65.69 LIG 0.26  C 
ATOM     32 O    ASP G 498     -11.519 -39.606  21.341  1.00 66.78 LIG-0.27  OA
BRANCH 31 33
ATOM     33  CA  ASP G 498     -12.560 -41.718  21.816  1.00 65.54 LIG 0.41  C 
ATOM     34  N   ASP G 498     -13.821 -40.951  22.028  1.00 65.34 LIG 0.61  N 
BRANCH 33 35
ATOM     35  CB  ASP G 498     -12.634 -42.495  20.498  1.00 65.84 LIG 0.16  C 
BRANCH 35 36
ATOM     36  CG  ASP G 498     -11.662 -43.660  20.449  1.00 65.00 LIG 0.17  C 
ATOM     37 OD2  ASP G 498     -11.830 -44.530  19.567  1.00 65.16 LIG-0.65  OA
ATOM     38 OD1  ASP G 498     -10.736 -43.712  21.288  1.00 63.97 LIG-0.65  OA
ENDBRANCH 35 36
ENDBRANCH 33 35
ENDBRANCH 31 33
ENDBRANCH 28 29
BRANCH 28 39
ATOM     39  CB  GLU G 499      -7.872 -41.116  22.941  1.00 61.39 LIG 0.04  C 
BRANCH 39 40
ATOM     40  CG  GLU G 499      -7.936 -42.628  22.800  1.00 60.98 LIG 0.12  C 
BRANCH 40 41
ATOM     41  CD  GLU G 499      -6.669 -43.314  23.274  1.00 61.07 LIG 0.17  C 
ATOM     42 OE2  GLU G 499      -6.649 -44.561  23.317  1.00 60.51 LIG-0.65  OA
ATOM     43 OE1  GLU G 499      -5.689 -42.608  23.594  1.00 60.30 LIG-0.65  OA
ENDBRANCH 40 41
ENDBRANCH 39 40
ENDBRANCH 28 39
ENDBRANCH 25 28
ENDBRANCH 1 24
TORSDOF 16
ENDMDL
MODEL 13
USER: ADFR SOLUTION from run 111
USER: SCORE 18.218593 LL:  -3.208 LR: -15.494 RR:   0.000 FEB: -10.721
USER: RMSD 5.416793
USER: SEED 110
USER: STATUS no improvement in best in 7 clusters for 5 generations
USER: GENES 18
USER: genes 0 Translation |==|  0.52929 0.50194 0.41308
USER: genes 1 Rotation |==|  0.31070 0.47661 0.77699 0.86999
USER: genes 2 Torsion [N]-CA--C-[N] |==|  0.89601
USER: genes 3 Torsion [C]-N--CA-[CB] |==|  0.30380
USER: genes 4 Torsion [N]-CA--CB-[CG] |==|  0.62452
USER: genes 5 Torsion [CA]-CB--CG-[OD2] |==|  0.15964
USER: genes 6 Torsion [N]-CA--C-[O] |==|  0.93749
USER: genes 7 Torsion [C]-CA--CB-[CG] |==|  0.36097
USER: genes 8 Torsion [CA]-CB--CG-[CD2] |==|  0.87707
USER: genes 9 Torsion [C]-CA--N-[C] |==|  0.84691
USER: genes 10 Torsion [N]-C--CA-[N] |==|  0.85994
USER: genes 11 Torsion [C]-CA--N-[C] |==|  0.65560
USER: genes 12 Torsion [N]-C--CA-[N] |==|  0.89742
USER: genes 13 Torsion [C]-CA--CB-[CG] |==|  0.64841
USER: genes 14 Torsion [CA]-CB--CG-[OD2] |==|  0.36160
USER: genes 15 Torsion [C]-CA--CB-[CG] |==|  0.68752
USER: genes 16 Torsion [CA]-CB--CG-[CD] |==|  0.73680
USER: genes 17 Torsion [CB]-CG--CD-[OE2] |==|  0.62826
ROOT
ATOM      1  CA  TRP G 500      -9.352 -42.232  18.557  1.00 57.70 LIG 0.18  C 
ENDROOT
BRANCH 1 2
ATOM      2  C   TRP G 500      -8.938 -42.728  19.939  1.00 58.91 LIG 0.24  C 
ATOM      3 O    TRP G 500      -8.314 -43.783  20.055  1.00 59.13 LIG-0.27  OA
ATOM      4  N   ASP G 501      -9.274 -41.975  20.982  1.00 60.05 LIG-0.35  N 
ATOM      5 H    ASP G 501      -9.714 -41.237  20.928  1.00 60.05 LIG 0.16  HD
BRANCH 4 6
ATOM      6  CA  ASP G 501      -8.903 -42.370  22.338  1.00 61.20 LIG 0.17  C 
BRANCH 6 7
ATOM      7  CB  ASP G 501      -7.817 -41.445  22.891  1.00 62.64 LIG 0.15  C 
BRANCH 7 8
ATOM      8  CG  ASP G 501      -6.702 -42.207  23.588  1.00 64.46 LIG 0.17  C 
ATOM      9 OD2  ASP G 501      -6.076 -43.077  22.944  1.00 65.00 LIG-0.65  OA
ATOM     10 OD1  ASP G 501      -6.442 -41.927  24.780  1.00 64.87 LIG-0.65  OA
ENDBRANCH 7 8
ENDBRANCH 6 7
BRANCH 6 11
ATOM     11  C   ASP G 501     -10.116 -42.337  23.267  1.00 61.58 LIG 0.22  C 
ATOM     12 O    ASP G 501     -11.080 -41.614  22.931  1.00 60.92 LIG-0.29  OA
ENDBRANCH 6 11
ENDBRANCH 4 6
ENDBRANCH 1 2
BRANCH 1 13
ATOM     13  CB  TRP G 500      -8.283 -41.288  18.000  1.00 52.85 LIG 0.07  C 
BRANCH 13 14
ATOM     14  CG  TRP G 500      -7.859 -41.642  16.606  1.00 47.47 LIG-0.03  A 
ATOM     15  CD2 TRP G 500      -7.567 -42.954  16.107  1.00 44.29 LIG-0.00  A 
ATOM     16  CE3 TRP G 500      -7.561 -44.234  16.680  1.00 42.43 LIG 0.01  A 
ATOM     17  CE2 TRP G 500      -7.222 -42.815  14.741  1.00 43.87 LIG 0.04  A 
ATOM     18  CZ3 TRP G 500      -7.215 -45.326  15.880  1.00 40.94 LIG 0.00  A 
ATOM     19  CH2 TRP G 500      -6.876 -45.154  14.524  1.00 40.39 LIG 0.00  A 
ATOM     20  CZ2 TRP G 500      -6.874 -43.913  13.937  1.00 41.47 LIG 0.03  A 
ATOM     21  NE1 TRP G 500      -7.304 -41.482  14.430  1.00 44.24 LIG-0.36  N 
ATOM     22  CD1 TRP G 500      -7.685 -40.785  15.554  1.00 45.90 LIG 0.10  A 
ATOM     23 HE1  TRP G 500      -7.145 -41.138  13.658  1.00 44.24 LIG 0.17  HD
ENDBRANCH 13 14
ENDBRANCH 1 13
BRANCH 1 24
ATOM     24  N   TRP G 500     -10.657 -41.590  18.511  1.00 59.87 LIG-0.35  N 
ATOM     25  C   GLU G 499     -11.752 -42.203  18.949  1.00 62.14 LIG 0.24  C 
ATOM     26 O    GLU G 499     -11.741 -43.339  19.432  1.00 62.68 LIG-0.27  OA
ATOM     27 H    TRP G 500     -10.650 -40.795  18.181  1.00 59.87 LIG 0.16  HD
BRANCH 25 28
ATOM     28  CA  GLU G 499     -13.054 -41.416  18.829  1.00 62.75 LIG 0.18  C 
BRANCH 28 29
ATOM     29  N   GLU G 499     -12.897 -40.081  19.396  1.00 64.36 LIG-0.35  N 
ATOM     30 H    GLU G 499     -12.254 -39.623  19.055  1.00 64.36 LIG 0.16  HD
ATOM     31  C   ASP G 498     -13.699 -39.639  20.360  1.00 65.69 LIG 0.26  C 
ATOM     32 O    ASP G 498     -14.614 -40.317  20.833  1.00 66.78 LIG-0.27  OA
BRANCH 31 33
ATOM     33  CA  ASP G 498     -13.438 -38.223  20.870  1.00 65.54 LIG 0.41  C 
ATOM     34  N   ASP G 498     -11.969 -37.969  20.894  1.00 65.34 LIG 0.61  N 
BRANCH 33 35
ATOM     35  CB  ASP G 498     -14.131 -37.207  19.956  1.00 65.84 LIG 0.16  C 
BRANCH 35 36
ATOM     36  CG  ASP G 498     -13.183 -36.137  19.445  1.00 65.00 LIG 0.17  C 
ATOM     37 OD2  ASP G 498     -13.171 -35.901  18.217  1.00 65.16 LIG-0.65  OA
ATOM     38 OD1  ASP G 498     -12.451 -35.536  20.261  1.00 63.97 LIG-0.65  OA
ENDBRANCH 35 36
ENDBRANCH 33 35
ENDBRANCH 31 33
ENDBRANCH 28 29
BRANCH 28 39
ATOM     39  CB  GLU G 499     -13.456 -41.318  17.355  1.00 61.39 LIG 0.04  C 
BRANCH 39 40
ATOM     40  CG  GLU G 499     -13.383 -39.911  16.783  1.00 60.98 LIG 0.12  C 
BRANCH 40 41
ATOM     41  CD  GLU G 499     -14.715 -39.188  16.837  1.00 61.07 LIG 0.17  C 
ATOM     42 OE2  GLU G 499     -15.100 -38.576  15.819  1.00 60.51 LIG-0.65  OA
ATOM     43 OE1  GLU G 499     -15.383 -39.238  17.892  1.00 60.30 LIG-0.65  OA
ENDBRANCH 40 41
ENDBRANCH 39 40
ENDBRANCH 28 39
ENDBRANCH 25 28
ENDBRANCH 1 24
TORSDOF 16
ENDMDL
MODEL 14
USER: ADFR SOLUTION from run 116
USER: SCORE 18.827244 LL:  -3.582 LR: -15.440 RR:   0.000 FEB: -10.668
USER: RMSD 7.708372
USER: SEED 115
USER: STATUS no improvement in best in 4 clusters for 5 generations
USER: GENES 18
USER: genes 0 Translation |==|  0.43691 0.55058 0.44785
USER: genes 1 Rotation |==|  0.38783 0.26733 0.07529 0.55383
USER: genes 2 Torsion [N]-CA--C-[N] |==|  0.91693
USER: genes 3 Torsion [C]-N--CA-[CB] |==|  0.21589
USER: genes 4 Torsion [N]-CA--CB-[CG] |==|  0.25418
USER: genes 5 Torsion [CA]-CB--CG-[OD2] |==|  0.40953
USER: genes 6 Torsion [N]-CA--C-[O] |==|  0.23507
USER: genes 7 Torsion [C]-CA--CB-[CG] |==|  0.05523
USER: genes 8 Torsion [CA]-CB--CG-[CD2] |==|  0.72515
USER: genes 9 Torsion [C]-CA--N-[C] |==|  0.75215
USER: genes 10 Torsion [N]-C--CA-[N] |==|  0.89642
USER: genes 11 Torsion [C]-CA--N-[C] |==|  0.82918
USER: genes 12 Torsion [N]-C--CA-[N] |==|  0.15776
USER: genes 13 Torsion [C]-CA--CB-[CG] |==|  0.77017
USER: genes 14 Torsion [CA]-CB--CG-[OD2] |==|  0.10020
USER: genes 15 Torsion [C]-CA--CB-[CG] |==|  0.21623
USER: genes 16 Torsion [CA]-CB--CG-[CD] |==|  0.19681
USER: genes 17 Torsion [CB]-CG--CD-[OE2] |==|  0.54802
ROOT
ATOM      1  CA  TRP G 500     -10.807 -41.138  19.261  1.00 57.70 LIG 0.18  C 
ENDROOT
BRANCH 1 2
ATOM      2  C   TRP G 500     -10.480 -40.053  18.240  1.00 58.91 LIG 0.24  C 
ATOM      3 O    TRP G 500     -10.473 -40.319  17.038  1.00 59.13 LIG-0.27  OA
ATOM      4  N   ASP G 501     -10.216 -38.836  18.707  1.00 60.05 LIG-0.35  N 
ATOM      5 H    ASP G 501     -10.210 -38.626  19.541  1.00 60.05 LIG 0.16  HD
BRANCH 4 6
ATOM      6  CA  ASP G 501      -9.908 -37.738  17.795  1.00 61.20 LIG 0.17  C 
BRANCH 6 7
ATOM      7  CB  ASP G 501     -11.187 -37.199  17.150  1.00 62.64 LIG 0.15  C 
BRANCH 7 8
ATOM      8  CG  ASP G 501     -11.800 -36.053  17.939  1.00 64.46 LIG 0.17  C 
ATOM      9 OD2  ASP G 501     -12.403 -35.151  17.317  1.00 65.00 LIG-0.65  OA
ATOM     10 OD1  ASP G 501     -11.688 -36.060  19.186  1.00 64.87 LIG-0.65  OA
ENDBRANCH 7 8
ENDBRANCH 6 7
BRANCH 6 11
ATOM     11  C   ASP G 501      -9.195 -36.603  18.529  1.00 61.58 LIG 0.22  C 
ATOM     12 O    ASP G 501      -7.955 -36.694  18.664  1.00 60.92 LIG-0.29  OA
ENDBRANCH 6 11
ENDBRANCH 4 6
ENDBRANCH 1 2
BRANCH 1 13
ATOM     13  CB  TRP G 500     -12.324 -41.249  19.437  1.00 52.85 LIG 0.07  C 
BRANCH 13 14
ATOM     14  CG  TRP G 500     -13.090 -40.662  18.290  1.00 47.47 LIG-0.03  A 
ATOM     15  CD2 TRP G 500     -13.694 -39.363  18.239  1.00 44.29 LIG-0.00  A 
ATOM     16  CE3 TRP G 500     -13.788 -38.297  19.146  1.00 42.43 LIG 0.01  A 
ATOM     17  CE2 TRP G 500     -14.297 -39.232  16.965  1.00 43.87 LIG 0.04  A 
ATOM     18  CZ3 TRP G 500     -14.473 -37.143  18.757  1.00 40.94 LIG 0.00  A 
ATOM     19  CH2 TRP G 500     -15.063 -37.044  17.481  1.00 40.39 LIG 0.00  A 
ATOM     20  CZ2 TRP G 500     -14.986 -38.072  16.574  1.00 41.47 LIG 0.03  A 
ATOM     21  NE1 TRP G 500     -14.065 -40.396  16.279  1.00 44.24 LIG-0.36  N 
ATOM     22  CD1 TRP G 500     -13.342 -41.249  17.081  1.00 45.90 LIG 0.10  A 
ATOM     23 HE1  TRP G 500     -14.328 -40.565  15.477  1.00 44.24 LIG 0.17  HD
ENDBRANCH 13 14
ENDBRANCH 1 13
BRANCH 1 24
ATOM     24  N   TRP G 500     -10.166 -40.961  20.556  1.00 59.87 LIG-0.35  N 
ATOM     25  C   GLU G 499      -8.964 -41.467  20.815  1.00 62.14 LIG 0.24  C 
ATOM     26 O    GLU G 499      -8.308 -42.102  19.985  1.00 62.68 LIG-0.27  OA
ATOM     27 H    TRP G 500     -10.630 -40.509  21.123  1.00 59.87 LIG 0.16  HD
BRANCH 25 28
ATOM     28  CA  GLU G 499      -8.420 -41.215  22.218  1.00 62.75 LIG 0.18  C 
BRANCH 28 29
ATOM     29  N   GLU G 499      -8.790 -39.881  22.677  1.00 64.36 LIG-0.35  N 
ATOM     30 H    GLU G 499      -9.282 -39.870  23.382  1.00 64.36 LIG 0.16  HD
ATOM     31  C   ASP G 498      -8.383 -38.789  22.035  1.00 65.69 LIG 0.26  C 
ATOM     32 O    ASP G 498      -7.678 -38.832  21.024  1.00 66.78 LIG-0.27  OA
BRANCH 31 33
ATOM     33  CA  ASP G 498      -8.833 -37.449  22.613  1.00 65.54 LIG 0.41  C 
ATOM     34  N   ASP G 498      -8.390 -37.349  24.033  1.00 65.34 LIG 0.61  N 
BRANCH 33 35
ATOM     35  CB  ASP G 498      -8.231 -36.303  21.793  1.00 65.84 LIG 0.16  C 
BRANCH 35 36
ATOM     36  CG  ASP G 498      -6.809 -35.970  22.209  1.00 65.00 LIG 0.17  C 
ATOM     37 OD2  ASP G 498      -6.063 -36.910  22.557  1.00 65.16 LIG-0.65  OA
ATOM     38 OD1  ASP G 498      -6.438 -34.776  22.192  1.00 63.97 LIG-0.65  OA
ENDBRANCH 35 36
ENDBRANCH 33 35
ENDBRANCH 31 33
ENDBRANCH 28 29
BRANCH 28 39
ATOM     39  CB  GLU G 499      -8.973 -42.273  23.177  1.00 61.39 LIG 0.04  C 
BRANCH 39 40
ATOM     40  CG  GLU G 499      -8.283 -43.624  23.078  1.00 60.98 LIG 0.12  C 
BRANCH 40 41
ATOM     41  CD  GLU G 499      -6.870 -43.601  23.630  1.00 61.07 LIG 0.17  C 
ATOM     42 OE2  GLU G 499      -6.096 -44.529  23.317  1.00 60.51 LIG-0.65  OA
ATOM     43 OE1  GLU G 499      -6.530 -42.653  24.370  1.00 60.30 LIG-0.65  OA
ENDBRANCH 40 41
ENDBRANCH 39 40
ENDBRANCH 28 39
ENDBRANCH 25 28
ENDBRANCH 1 24
TORSDOF 16
ENDMDL
MODEL 15
USER: ADFR SOLUTION from run 153
USER: SCORE 17.084105 LL:  -2.132 LR: -15.330 RR:   0.000 FEB: -10.557
USER: RMSD 6.505323
USER: SEED 152
USER: STATUS no improvement in best in 3 clusters for 5 generations
USER: GENES 18
USER: genes 0 Translation |==|  0.55658 0.58894 0.41080
USER: genes 1 Rotation |==|  0.70075 0.28710 0.20238 0.77531
USER: genes 2 Torsion [N]-CA--C-[N] |==|  0.94323
USER: genes 3 Torsion [C]-N--CA-[CB] |==|  0.41262
USER: genes 4 Torsion [N]-CA--CB-[CG] |==|  0.81353
USER: genes 5 Torsion [CA]-CB--CG-[OD2] |==|  0.74418
USER: genes 6 Torsion [N]-CA--C-[O] |==|  0.56868
USER: genes 7 Torsion [C]-CA--CB-[CG] |==|  0.19839
USER: genes 8 Torsion [CA]-CB--CG-[CD2] |==|  0.53518
USER: genes 9 Torsion [C]-CA--N-[C] |==|  0.69539
USER: genes 10 Torsion [N]-C--CA-[N] |==|  0.87554
USER: genes 11 Torsion [C]-CA--N-[C] |==|  0.86091
USER: genes 12 Torsion [N]-C--CA-[N] |==|  0.06047
USER: genes 13 Torsion [C]-CA--CB-[CG] |==|  0.19833
USER: genes 14 Torsion [CA]-CB--CG-[OD2] |==|  0.22934
USER: genes 15 Torsion [C]-CA--CB-[CG] |==|  0.28918
USER: genes 16 Torsion [CA]-CB--CG-[CD] |==|  0.65248
USER: genes 17 Torsion [CB]-CG--CD-[OE2] |==|  0.49226
ROOT
ATOM      1  CA  TRP G 500      -8.922 -40.275  18.511  1.00 57.70 LIG 0.18  C 
ENDROOT
BRANCH 1 2
ATOM      2  C   TRP G 500      -9.749 -39.455  17.525  1.00 58.91 LIG 0.24  C 
ATOM      3 O    TRP G 500      -9.237 -39.038  16.486  1.00 59.13 LIG-0.27  OA
ATOM      4  N   ASP G 501     -11.021 -39.227  17.839  1.00 60.05 LIG-0.35  N 
ATOM      5 H    ASP G 501     -11.401 -39.502  18.560  1.00 60.05 LIG 0.16  HD
BRANCH 4 6
ATOM      6  CA  ASP G 501     -11.885 -38.463  16.943  1.00 61.20 LIG 0.17  C 
BRANCH 6 7
ATOM      7  CB  ASP G 501     -13.332 -38.949  17.047  1.00 62.64 LIG 0.15  C 
BRANCH 7 8
ATOM      8  CG  ASP G 501     -13.512 -40.362  16.515  1.00 64.46 LIG 0.17  C 
ATOM      9 OD2  ASP G 501     -13.829 -40.515  15.315  1.00 65.00 LIG-0.65  OA
ATOM     10 OD1  ASP G 501     -13.325 -41.322  17.295  1.00 64.87 LIG-0.65  OA
ENDBRANCH 7 8
ENDBRANCH 6 7
BRANCH 6 11
ATOM     11  C   ASP G 501     -11.828 -36.972  17.270  1.00 61.58 LIG 0.22  C 
ATOM     12 O    ASP G 501     -12.813 -36.272  16.945  1.00 60.92 LIG-0.29  OA
ENDBRANCH 6 11
ENDBRANCH 4 6
ENDBRANCH 1 2
BRANCH 1 13
ATOM     13  CB  TRP G 500      -8.735 -41.698  17.978  1.00 52.85 LIG 0.07  C 
BRANCH 13 14
ATOM     14  CG  TRP G 500      -7.802 -41.766  16.806  1.00 47.47 LIG-0.03  A 
ATOM     15  CD2 TRP G 500      -7.610 -42.882  15.928  1.00 44.29 LIG-0.00  A 
ATOM     16  CE3 TRP G 500      -8.155 -44.173  15.861  1.00 42.43 LIG 0.01  A 
ATOM     17  CE2 TRP G 500      -6.648 -42.495  14.964  1.00 43.87 LIG 0.04  A 
ATOM     18  CZ3 TRP G 500      -7.728 -45.030  14.844  1.00 40.94 LIG 0.00  A 
ATOM     19  CH2 TRP G 500      -6.768 -44.614  13.899  1.00 40.39 LIG 0.00  A 
ATOM     20  CZ2 TRP G 500      -6.219 -43.357  13.941  1.00 41.47 LIG 0.03  A 
ATOM     21  NE1 TRP G 500      -6.279 -41.205  15.246  1.00 44.24 LIG-0.36  N 
ATOM     22  CD1 TRP G 500      -6.974 -40.775  16.354  1.00 45.90 LIG 0.10  A 
ATOM     23 HE1  TRP G 500      -5.707 -40.740  14.802  1.00 44.24 LIG 0.17  HD
ENDBRANCH 13 14
ENDBRANCH 1 13
BRANCH 1 24
ATOM     24  N   TRP G 500      -9.459 -40.316  19.863  1.00 59.87 LIG-0.35  N 
ATOM     25  C   GLU G 499      -8.862 -39.686  20.870  1.00 62.14 LIG 0.24  C 
ATOM     26 O    GLU G 499      -7.832 -39.020  20.733  1.00 62.68 LIG-0.27  OA
ATOM     27 H    TRP G 500     -10.182 -40.775  19.944  1.00 59.87 LIG 0.16  HD
BRANCH 25 28
ATOM     28  CA  GLU G 499      -9.529 -39.825  22.236  1.00 62.75 LIG 0.18  C 
BRANCH 28 29
ATOM     29  N   GLU G 499     -10.971 -39.640  22.121  1.00 64.36 LIG-0.35  N 
ATOM     30 H    GLU G 499     -11.441 -40.256  22.494  1.00 64.36 LIG 0.16  HD
ATOM     31  C   ASP G 498     -11.487 -38.592  21.483  1.00 65.69 LIG 0.26  C 
ATOM     32 O    ASP G 498     -10.791 -37.722  20.956  1.00 66.78 LIG-0.27  OA
BRANCH 31 33
ATOM     33  CA  ASP G 498     -13.011 -38.506  21.432  1.00 65.54 LIG 0.41  C 
ATOM     34  N   ASP G 498     -13.590 -39.321  22.538  1.00 65.34 LIG 0.61  N 
BRANCH 33 35
ATOM     35  CB  ASP G 498     -13.452 -37.045  21.569  1.00 65.84 LIG 0.16  C 
BRANCH 35 36
ATOM     36  CG  ASP G 498     -13.140 -36.220  20.334  1.00 65.00 LIG 0.17  C 
ATOM     37 OD2  ASP G 498     -13.941 -36.272  19.375  1.00 65.16 LIG-0.65  OA
ATOM     38 OD1  ASP G 498     -12.101 -35.526  20.316  1.00 63.97 LIG-0.65  OA
ENDBRANCH 35 36
ENDBRANCH 33 35
ENDBRANCH 31 33
ENDBRANCH 28 29
BRANCH 28 39
ATOM     39  CB  GLU G 499      -9.221 -41.209  22.815  1.00 61.39 LIG 0.04  C 
BRANCH 39 40
ATOM     40  CG  GLU G 499      -8.172 -41.203  23.915  1.00 60.98 LIG 0.12  C 
BRANCH 40 41
ATOM     41  CD  GLU G 499      -7.019 -42.145  23.627  1.00 61.07 LIG 0.17  C 
ATOM     42 OE2  GLU G 499      -6.069 -42.185  24.437  1.00 60.51 LIG-0.65  OA
ATOM     43 OE1  GLU G 499      -7.063 -42.851  22.597  1.00 60.30 LIG-0.65  OA
ENDBRANCH 40 41
ENDBRANCH 39 40
ENDBRANCH 28 39
ENDBRANCH 25 28
ENDBRANCH 1 24
TORSDOF 16
ENDMDL
MODEL 16
USER: ADFR SOLUTION from run 156
USER: SCORE 17.334875 LL:  -2.360 LR: -15.267 RR:   0.000 FEB: -10.494
USER: RMSD 5.024049
USER: SEED 155
USER: STATUS no improvement in best in 7 clusters for 5 generations
USER: GENES 18
USER: genes 0 Translation |==|  0.58405 0.54611 0.34922
USER: genes 1 Rotation |==|  0.37606 0.49637 0.62403 0.96823
USER: genes 2 Torsion [N]-CA--C-[N] |==|  0.09165
USER: genes 3 Torsion [C]-N--CA-[CB] |==|  0.26752
USER: genes 4 Torsion [N]-CA--CB-[CG] |==|  0.71470
USER: genes 5 Torsion [CA]-CB--CG-[OD2] |==|  0.39276
USER: genes 6 Torsion [N]-CA--C-[O] |==|  0.24684
USER: genes 7 Torsion [C]-CA--CB-[CG] |==|  0.27576
USER: genes 8 Torsion [CA]-CB--CG-[CD2] |==|  0.86614
USER: genes 9 Torsion [C]-CA--N-[C] |==|  0.16523
USER: genes 10 Torsion [N]-C--CA-[N] |==|  0.26806
USER: genes 11 Torsion [C]-CA--N-[C] |==|  0.76300
USER: genes 12 Torsion [N]-C--CA-[N] |==|  0.93991
USER: genes 13 Torsion [C]-CA--CB-[CG] |==|  0.91233
USER: genes 14 Torsion [CA]-CB--CG-[OD2] |==|  0.80118
USER: genes 15 Torsion [C]-CA--CB-[CG] |==|  0.70949
USER: genes 16 Torsion [CA]-CB--CG-[CD] |==|  0.39201
USER: genes 17 Torsion [CB]-CG--CD-[OE2] |==|  0.30817
ROOT
ATOM      1  CA  TRP G 500      -8.489 -41.239  17.264  1.00 57.70 LIG 0.18  C 
ENDROOT
BRANCH 1 2
ATOM      2  C   TRP G 500      -8.656 -42.267  18.378  1.00 58.91 LIG 0.24  C 
ATOM      3 O    TRP G 500      -7.782 -43.111  18.575  1.00 59.13 LIG-0.27  OA
ATOM      4  N   ASP G 501      -9.765 -42.200  19.108  1.00 60.05 LIG-0.35  N 
ATOM      5 H    ASP G 501     -10.393 -41.624  18.988  1.00 60.05 LIG 0.16  HD
BRANCH 4 6
ATOM      6  CA  ASP G 501      -9.995 -43.138  20.203  1.00 61.20 LIG 0.17  C 
BRANCH 6 7
ATOM      7  CB  ASP G 501      -9.571 -42.522  21.538  1.00 62.64 LIG 0.15  C 
BRANCH 7 8
ATOM      8  CG  ASP G 501      -8.231 -43.052  22.025  1.00 64.46 LIG 0.17  C 
ATOM      9 OD2  ASP G 501      -7.438 -42.259  22.578  1.00 65.00 LIG-0.65  OA
ATOM     10 OD1  ASP G 501      -7.976 -44.266  21.864  1.00 64.87 LIG-0.65  OA
ENDBRANCH 7 8
ENDBRANCH 6 7
BRANCH 6 11
ATOM     11  C   ASP G 501     -11.468 -43.540  20.277  1.00 61.58 LIG 0.22  C 
ATOM     12 O    ASP G 501     -11.830 -44.528  19.601  1.00 60.92 LIG-0.29  OA
ENDBRANCH 6 11
ENDBRANCH 4 6
ENDBRANCH 1 2
BRANCH 1 13
ATOM     13  CB  TRP G 500      -7.007 -41.083  16.915  1.00 52.85 LIG 0.07  C 
BRANCH 13 14
ATOM     14  CG  TRP G 500      -6.608 -41.861  15.697  1.00 47.47 LIG-0.03  A 
ATOM     15  CD2 TRP G 500      -6.913 -43.234  15.420  1.00 44.29 LIG-0.00  A 
ATOM     16  CE3 TRP G 500      -7.605 -44.236  16.115  1.00 42.43 LIG 0.01  A 
ATOM     17  CE2 TRP G 500      -6.350 -43.541  14.158  1.00 43.87 LIG 0.04  A 
ATOM     18  CZ3 TRP G 500      -7.714 -45.503  15.535  1.00 40.94 LIG 0.00  A 
ATOM     19  CH2 TRP G 500      -7.141 -45.777  14.277  1.00 40.39 LIG 0.00  A 
ATOM     20  CZ2 TRP G 500      -6.459 -44.815  13.575  1.00 41.47 LIG 0.03  A 
ATOM     21  NE1 TRP G 500      -5.737 -42.406  13.694  1.00 44.24 LIG-0.36  N 
ATOM     22  CD1 TRP G 500      -5.894 -41.403  14.624  1.00 45.90 LIG 0.10  A 
ATOM     23 HE1  TRP G 500      -5.322 -42.333  12.944  1.00 44.24 LIG 0.17  HD
ENDBRANCH 13 14
ENDBRANCH 1 13
BRANCH 1 24
ATOM     24  N   TRP G 500      -9.072 -39.936  17.552  1.00 59.87 LIG-0.35  N 
ATOM     25  C   GLU G 499      -8.683 -39.213  18.597  1.00 62.14 LIG 0.24  C 
ATOM     26 O    GLU G 499      -7.803 -39.581  19.381  1.00 62.68 LIG-0.27  OA
ATOM     27 H    TRP G 500      -9.677 -39.687  16.993  1.00 59.87 LIG 0.16  HD
BRANCH 25 28
ATOM     28  CA  GLU G 499      -9.388 -37.873  18.785  1.00 62.75 LIG 0.18  C 
BRANCH 28 29
ATOM     29  N   GLU G 499     -10.481 -38.001  19.743  1.00 64.36 LIG-0.35  N 
ATOM     30 H    GLU G 499     -10.273 -37.795  20.551  1.00 64.36 LIG 0.16  HD
ATOM     31  C   ASP G 498     -11.690 -38.407  19.364  1.00 65.69 LIG 0.26  C 
ATOM     32 O    ASP G 498     -11.963 -38.698  18.197  1.00 66.78 LIG-0.27  OA
BRANCH 31 33
ATOM     33  CA  ASP G 498     -12.753 -38.499  20.457  1.00 65.54 LIG 0.41  C 
ATOM     34  N   ASP G 498     -12.087 -38.614  21.786  1.00 65.34 LIG 0.61  N 
BRANCH 33 35
ATOM     35  CB  ASP G 498     -13.641 -37.251  20.422  1.00 65.84 LIG 0.16  C 
BRANCH 35 36
ATOM     36  CG  ASP G 498     -12.894 -36.013  19.960  1.00 65.00 LIG 0.17  C 
ATOM     37 OD2  ASP G 498     -12.054 -35.510  20.737  1.00 65.16 LIG-0.65  OA
ATOM     38 OD1  ASP G 498     -13.144 -35.541  18.830  1.00 63.97 LIG-0.65  OA
ENDBRANCH 35 36
ENDBRANCH 33 35
ENDBRANCH 31 33
ENDBRANCH 28 29
BRANCH 28 39
ATOM     39  CB  GLU G 499      -8.379 -36.831  19.276  1.00 61.39 LIG 0.04  C 
BRANCH 39 40
ATOM     40  CG  GLU G 499      -8.503 -36.492  20.752  1.00 60.98 LIG 0.12  C 
BRANCH 40 41
ATOM     41  CD  GLU G 499      -7.157 -36.299  21.423  1.00 61.07 LIG 0.17  C 
ATOM     42 OE2  GLU G 499      -6.838 -35.151  21.795  1.00 60.51 LIG-0.65  OA
ATOM     43 OE1  GLU G 499      -6.420 -37.295  21.587  1.00 60.30 LIG-0.65  OA
ENDBRANCH 40 41
ENDBRANCH 39 40
ENDBRANCH 28 39
ENDBRANCH 25 28
ENDBRANCH 1 24
TORSDOF 16
ENDMDL
MODEL 17
USER: ADFR SOLUTION from run 118
USER: SCORE 17.352067 LL:  -2.677 LR: -15.256 RR:   0.000 FEB: -10.483
USER: RMSD 6.338244
USER: SEED 117
USER: STATUS no improvement in best in 9 clusters for 5 generations
USER: GENES 18
USER: genes 0 Translation |==|  0.52318 0.57752 0.40906
USER: genes 1 Rotation |==|  0.68647 0.35792 0.21373 0.83629
USER: genes 2 Torsion [N]-CA--C-[N] |==|  0.23815
USER: genes 3 Torsion [C]-N--CA-[CB] |==|  0.14884
USER: genes 4 Torsion [N]-CA--CB-[CG] |==|  0.63695
USER: genes 5 Torsion [CA]-CB--CG-[OD2] |==|  0.65732
USER: genes 6 Torsion [N]-CA--C-[O] |==|  0.67604
USER: genes 7 Torsion [C]-CA--CB-[CG] |==|  0.24667
USER: genes 8 Torsion [CA]-CB--CG-[CD2] |==|  0.51488
USER: genes 9 Torsion [C]-CA--N-[C] |==|  0.66268
USER: genes 10 Torsion [N]-C--CA-[N] |==|  0.07389
USER: genes 11 Torsion [C]-CA--N-[C] |==|  0.16503
USER: genes 12 Torsion [N]-C--CA-[N] |==|  0.10256
USER: genes 13 Torsion [C]-CA--CB-[CG] |==|  0.81026
USER: genes 14 Torsion [CA]-CB--CG-[OD2] |==|  0.80908
USER: genes 15 Torsion [C]-CA--CB-[CG] |==|  0.56143
USER: genes 16 Torsion [CA]-CB--CG-[CD] |==|  0.30369
USER: genes 17 Torsion [CB]-CG--CD-[OE2] |==|  0.03718
ROOT
ATOM      1  CA  TRP G 500      -9.448 -40.532  18.476  1.00 57.70 LIG 0.18  C 
ENDROOT
BRANCH 1 2
ATOM      2  C   TRP G 500     -10.692 -39.969  17.795  1.00 58.91 LIG 0.24  C 
ATOM      3 O    TRP G 500     -11.532 -40.731  17.317  1.00 59.13 LIG-0.27  OA
ATOM      4  N   ASP G 501     -10.818 -38.646  17.753  1.00 60.05 LIG-0.35  N 
ATOM      5 H    ASP G 501     -10.243 -38.092  18.075  1.00 60.05 LIG 0.16  HD
BRANCH 4 6
ATOM      6  CA  ASP G 501     -11.986 -38.027  17.133  1.00 61.20 LIG 0.17  C 
BRANCH 6 7
ATOM      7  CB  ASP G 501     -13.276 -38.588  17.734  1.00 62.64 LIG 0.15  C 
BRANCH 7 8
ATOM      8  CG  ASP G 501     -14.271 -39.026  16.672  1.00 64.46 LIG 0.17  C 
ATOM      9 OD2  ASP G 501     -15.418 -38.526  16.682  1.00 65.00 LIG-0.65  OA
ATOM     10 OD1  ASP G 501     -13.903 -39.862  15.817  1.00 64.87 LIG-0.65  OA
ENDBRANCH 7 8
ENDBRANCH 6 7
BRANCH 6 11
ATOM     11  C   ASP G 501     -11.961 -36.510  17.317  1.00 61.58 LIG 0.22  C 
ATOM     12 O    ASP G 501     -12.883 -35.995  17.988  1.00 60.92 LIG-0.29  OA
ENDBRANCH 6 11
ENDBRANCH 4 6
ENDBRANCH 1 2
BRANCH 1 13
ATOM     13  CB  TRP G 500      -9.061 -41.867  17.834  1.00 52.85 LIG 0.07  C 
BRANCH 13 14
ATOM     14  CG  TRP G 500      -8.137 -41.708  16.664  1.00 47.47 LIG-0.03  A 
ATOM     15  CD2 TRP G 500      -7.679 -42.745  15.788  1.00 44.29 LIG-0.00  A 
ATOM     16  CE3 TRP G 500      -7.894 -44.130  15.722  1.00 42.43 LIG 0.01  A 
ATOM     17  CE2 TRP G 500      -6.838 -42.138  14.824  1.00 43.87 LIG 0.04  A 
ATOM     18  CZ3 TRP G 500      -7.270 -44.859  14.707  1.00 40.94 LIG 0.00  A 
ATOM     19  CH2 TRP G 500      -6.438 -44.225  13.763  1.00 40.39 LIG 0.00  A 
ATOM     20  CZ2 TRP G 500      -6.211 -42.871  13.803  1.00 41.47 LIG 0.03  A 
ATOM     21  NE1 TRP G 500      -6.794 -40.797  15.104  1.00 44.24 LIG-0.36  N 
ATOM     22  CD1 TRP G 500      -7.575 -40.547  16.210  1.00 45.90 LIG 0.10  A 
ATOM     23 HE1  TRP G 500      -6.352 -40.208  14.660  1.00 44.24 LIG 0.17  HD
ENDBRANCH 13 14
ENDBRANCH 1 13
BRANCH 1 24
ATOM     24  N   TRP G 500      -9.567 -40.688  19.918  1.00 59.87 LIG-0.35  N 
ATOM     25  C   GLU G 499      -8.736 -40.077  20.757  1.00 62.14 LIG 0.24  C 
ATOM     26 O    GLU G 499      -7.825 -39.334  20.381  1.00 62.68 LIG-0.27  OA
ATOM     27 H    TRP G 500     -10.211 -41.201  20.168  1.00 59.87 LIG 0.16  HD
BRANCH 25 28
ATOM     28  CA  GLU G 499      -8.969 -40.340  22.242  1.00 62.75 LIG 0.18  C 
BRANCH 28 29
ATOM     29  N   GLU G 499      -9.611 -41.636  22.435  1.00 64.36 LIG-0.35  N 
ATOM     30 H    GLU G 499     -10.372 -41.601  22.833  1.00 64.36 LIG 0.16  HD
ATOM     31  C   ASP G 498      -9.038 -42.762  22.019  1.00 65.69 LIG 0.26  C 
ATOM     32 O    ASP G 498      -7.944 -42.785  21.450  1.00 66.78 LIG-0.27  OA
BRANCH 31 33
ATOM     33  CA  ASP G 498      -9.809 -44.056  22.276  1.00 65.54 LIG 0.41  C 
ATOM     34  N   ASP G 498     -11.268 -43.806  22.100  1.00 65.34 LIG 0.61  N 
BRANCH 33 35
ATOM     35  CB  ASP G 498      -9.340 -45.140  21.299  1.00 65.84 LIG 0.16  C 
BRANCH 35 36
ATOM     36  CG  ASP G 498      -9.739 -44.846  19.863  1.00 65.00 LIG 0.17  C 
ATOM     37 OD2  ASP G 498     -10.952 -44.902  19.567  1.00 65.16 LIG-0.65  OA
ATOM     38 OD1  ASP G 498      -8.847 -44.565  19.033  1.00 63.97 LIG-0.65  OA
ENDBRANCH 35 36
ENDBRANCH 33 35
ENDBRANCH 31 33
ENDBRANCH 28 29
BRANCH 28 39
ATOM     39  CB  GLU G 499      -7.630 -40.301  22.983  1.00 61.39 LIG 0.04  C 
BRANCH 39 40
ATOM     40  CG  GLU G 499      -7.632 -41.044  24.309  1.00 60.98 LIG 0.12  C 
BRANCH 40 41
ATOM     41  CD  GLU G 499      -6.813 -42.320  24.265  1.00 61.07 LIG 0.17  C 
ATOM     42 OE2  GLU G 499      -6.044 -42.499  23.298  1.00 60.51 LIG-0.65  OA
ATOM     43 OE1  GLU G 499      -6.930 -43.140  25.201  1.00 60.30 LIG-0.65  OA
ENDBRANCH 40 41
ENDBRANCH 39 40
ENDBRANCH 28 39
ENDBRANCH 25 28
ENDBRANCH 1 24
TORSDOF 16
ENDMDL
MODEL 18
USER: ADFR SOLUTION from run 21
USER: SCORE 17.564713 LL:  -2.613 LR: -15.207 RR:   0.000 FEB: -10.434
USER: RMSD 5.788265
USER: SEED 20
USER: STATUS no improvement in best in 3 clusters for 5 generations
USER: GENES 18
USER: genes 0 Translation |==|  0.48423 0.67001 0.39657
USER: genes 1 Rotation |==|  0.67841 0.46728 0.39748 0.95452
USER: genes 2 Torsion [N]-CA--C-[N] |==|  0.21556
USER: genes 3 Torsion [C]-N--CA-[CB] |==|  0.56137
USER: genes 4 Torsion [N]-CA--CB-[CG] |==|  0.95496
USER: genes 5 Torsion [CA]-CB--CG-[OD2] |==|  0.22318
USER: genes 6 Torsion [N]-CA--C-[O] |==|  0.69619
USER: genes 7 Torsion [C]-CA--CB-[CG] |==|  0.84038
USER: genes 8 Torsion [CA]-CB--CG-[CD2] |==|  0.38167
USER: genes 9 Torsion [C]-CA--N-[C] |==|  0.76541
USER: genes 10 Torsion [N]-C--CA-[N] |==|  0.95781
USER: genes 11 Torsion [C]-CA--N-[C] |==|  0.75629
USER: genes 12 Torsion [N]-C--CA-[N] |==|  0.69055
USER: genes 13 Torsion [C]-CA--CB-[CG] |==|  0.52286
USER: genes 14 Torsion [CA]-CB--CG-[OD2] |==|  0.65906
USER: genes 15 Torsion [C]-CA--CB-[CG] |==|  0.88888
USER: genes 16 Torsion [CA]-CB--CG-[CD] |==|  0.65199
USER: genes 17 Torsion [CB]-CG--CD-[OE2] |==|  0.75417
ROOT
ATOM      1  CA  TRP G 500     -10.061 -38.451  18.223  1.00 57.70 LIG 0.18  C 
ENDROOT
BRANCH 1 2
ATOM      2  C   TRP G 500     -11.279 -39.270  17.807  1.00 58.91 LIG 0.24  C 
ATOM      3 O    TRP G 500     -11.141 -40.434  17.430  1.00 59.13 LIG-0.27  OA
ATOM      4  N   ASP G 501     -12.467 -38.675  17.877  1.00 60.05 LIG-0.35  N 
ATOM      5 H    ASP G 501     -12.589 -37.863  18.131  1.00 60.05 LIG 0.16  HD
BRANCH 4 6
ATOM      6  CA  ASP G 501     -13.684 -39.395  17.511  1.00 61.20 LIG 0.17  C 
BRANCH 6 7
ATOM      7  CB  ASP G 501     -14.800 -38.414  17.146  1.00 62.64 LIG 0.15  C 
BRANCH 7 8
ATOM      8  CG  ASP G 501     -14.511 -36.999  17.622  1.00 64.46 LIG 0.17  C 
ATOM      9 OD2  ASP G 501     -13.742 -36.284  16.942  1.00 65.00 LIG-0.65  OA
ATOM     10 OD1  ASP G 501     -15.063 -36.598  18.670  1.00 64.87 LIG-0.65  OA
ENDBRANCH 7 8
ENDBRANCH 6 7
BRANCH 6 11
ATOM     11  C   ASP G 501     -13.429 -40.333  16.331  1.00 61.58 LIG 0.22  C 
ATOM     12 O    ASP G 501     -13.939 -40.026  15.231  1.00 60.92 LIG-0.29  OA
ENDBRANCH 6 11
ENDBRANCH 4 6
ENDBRANCH 1 2
BRANCH 1 13
ATOM     13  CB  TRP G 500      -8.797 -39.037  17.590  1.00 52.85 LIG 0.07  C 
BRANCH 13 14
ATOM     14  CG  TRP G 500      -8.576 -40.476  17.949  1.00 47.47 LIG-0.03  A 
ATOM     15  CD2 TRP G 500      -8.157 -41.524  17.067  1.00 44.29 LIG-0.00  A 
ATOM     16  CE3 TRP G 500      -7.848 -41.581  15.700  1.00 42.43 LIG 0.01  A 
ATOM     17  CE2 TRP G 500      -8.069 -42.710  17.837  1.00 43.87 LIG 0.04  A 
ATOM     18  CZ3 TRP G 500      -7.465 -42.806  15.148  1.00 40.94 LIG 0.00  A 
ATOM     19  CH2 TRP G 500      -7.388 -43.967  15.941  1.00 40.39 LIG 0.00  A 
ATOM     20  CZ2 TRP G 500      -7.684 -43.941  17.281  1.00 41.47 LIG 0.03  A 
ATOM     21  NE1 TRP G 500      -8.416 -42.390  19.124  1.00 44.24 LIG-0.36  N 
ATOM     22  CD1 TRP G 500      -8.721 -41.049  19.183  1.00 45.90 LIG 0.10  A 
ATOM     23 HE1  TRP G 500      -8.440 -42.938  19.786  1.00 44.24 LIG 0.17  HD
ENDBRANCH 13 14
ENDBRANCH 1 13
BRANCH 1 24
ATOM     24  N   TRP G 500      -9.884 -38.320  19.661  1.00 59.87 LIG-0.35  N 
ATOM     25  C   GLU G 499     -10.516 -37.382  20.360  1.00 62.14 LIG 0.24  C 
ATOM     26 O    GLU G 499     -11.297 -36.574  19.850  1.00 62.68 LIG-0.27  OA
ATOM     27 H    TRP G 500      -9.345 -38.895  20.006  1.00 59.87 LIG 0.16  HD
BRANCH 25 28
ATOM     28  CA  GLU G 499     -10.227 -37.354  21.859  1.00 62.75 LIG 0.18  C 
BRANCH 28 29
ATOM     29  N   GLU G 499      -9.582 -38.594  22.277  1.00 64.36 LIG-0.35  N 
ATOM     30 H    GLU G 499      -8.723 -38.570  22.267  1.00 64.36 LIG 0.16  HD
ATOM     31  C   ASP G 498     -10.295 -39.657  22.639  1.00 65.69 LIG 0.26  C 
ATOM     32 O    ASP G 498     -11.528 -39.666  22.644  1.00 66.78 LIG-0.27  OA
BRANCH 31 33
ATOM     33  CA  ASP G 498      -9.507 -40.897  23.060  1.00 65.54 LIG 0.41  C 
ATOM     34  N   ASP G 498      -9.692 -41.970  22.041  1.00 65.34 LIG 0.61  N 
BRANCH 33 35
ATOM     35  CB  ASP G 498      -8.021 -40.546  23.188  1.00 65.84 LIG 0.16  C 
BRANCH 35 36
ATOM     36  CG  ASP G 498      -7.148 -41.769  23.409  1.00 65.00 LIG 0.17  C 
ATOM     37 OD2  ASP G 498      -6.428 -41.799  24.430  1.00 65.16 LIG-0.65  OA
ATOM     38 OD1  ASP G 498      -7.177 -42.693  22.567  1.00 63.97 LIG-0.65  OA
ENDBRANCH 35 36
ENDBRANCH 33 35
ENDBRANCH 31 33
ENDBRANCH 28 29
BRANCH 28 39
ATOM     39  CB  GLU G 499      -9.326 -36.159  22.181  1.00 61.39 LIG 0.04  C 
BRANCH 39 40
ATOM     40  CG  GLU G 499      -8.231 -35.910  21.156  1.00 60.98 LIG 0.12  C 
BRANCH 40 41
ATOM     41  CD  GLU G 499      -6.848 -35.869  21.776  1.00 61.07 LIG 0.17  C 
ATOM     42 OE2  GLU G 499      -6.419 -34.776  22.199  1.00 60.51 LIG-0.65  OA
ATOM     43 OE1  GLU G 499      -6.191 -36.930  21.849  1.00 60.30 LIG-0.65  OA
ENDBRANCH 40 41
ENDBRANCH 39 40
ENDBRANCH 28 39
ENDBRANCH 25 28
ENDBRANCH 1 24
TORSDOF 16
ENDMDL
MODEL 19
USER: ADFR SOLUTION from run 176
USER: SCORE 16.489745 LL:  -2.817 LR: -15.198 RR:   0.000 FEB: -10.425
USER: RMSD 8.046026
USER: SEED 175
USER: STATUS no improvement in best in 3 clusters for 5 generations
USER: GENES 18
USER: genes 0 Translation |==|  0.36089 0.55985 0.46198
USER: genes 1 Rotation |==|  0.25733 0.26197 0.15346 0.61984
USER: genes 2 Torsion [N]-CA--C-[N] |==|  0.69475
USER: genes 3 Torsion [C]-N--CA-[CB] |==|  0.85819
USER: genes 4 Torsion [N]-CA--CB-[CG] |==|  0.78303
USER: genes 5 Torsion [CA]-CB--CG-[OD2] |==|  0.93614
USER: genes 6 Torsion [N]-CA--C-[O] |==|  0.82589
USER: genes 7 Torsion [C]-CA--CB-[CG] |==|  0.37769
USER: genes 8 Torsion [CA]-CB--CG-[CD2] |==|  0.48905
USER: genes 9 Torsion [C]-CA--N-[C] |==|  0.72048
USER: genes 10 Torsion [N]-C--CA-[N] |==|  0.80196
USER: genes 11 Torsion [C]-CA--N-[C] |==|  0.20510
USER: genes 12 Torsion [N]-C--CA-[N] |==|  0.28409
USER: genes 13 Torsion [C]-CA--CB-[CG] |==|  0.23675
USER: genes 14 Torsion [CA]-CB--CG-[OD2] |==|  0.42197
USER: genes 15 Torsion [C]-CA--CB-[CG] |==|  0.45584
USER: genes 16 Torsion [CA]-CB--CG-[CD] |==|  0.75703
USER: genes 17 Torsion [CB]-CG--CD-[OE2] |==|  0.57653
ROOT
ATOM      1  CA  TRP G 500     -12.004 -40.929  19.547  1.00 57.70 LIG 0.18  C 
ENDROOT
BRANCH 1 2
ATOM      2  C   TRP G 500     -12.429 -40.030  18.390  1.00 58.91 LIG 0.24  C 
ATOM      3 O    TRP G 500     -11.825 -40.078  17.318  1.00 59.13 LIG-0.27  OA
ATOM      4  N   ASP G 501     -13.463 -39.220  18.596  1.00 60.05 LIG-0.35  N 
ATOM      5 H    ASP G 501     -13.897 -39.165  19.336  1.00 60.05 LIG 0.16  HD
BRANCH 4 6
ATOM      6  CA  ASP G 501     -13.942 -38.338  17.535  1.00 61.20 LIG 0.17  C 
BRANCH 6 7
ATOM      7  CB  ASP G 501     -12.785 -37.531  16.942  1.00 62.64 LIG 0.15  C 
BRANCH 7 8
ATOM      8  CG  ASP G 501     -12.381 -36.360  17.823  1.00 64.46 LIG 0.17  C 
ATOM      9 OD2  ASP G 501     -13.217 -35.901  18.632  1.00 65.00 LIG-0.65  OA
ATOM     10 OD1  ASP G 501     -11.220 -35.904  17.714  1.00 64.87 LIG-0.65  OA
ENDBRANCH 7 8
ENDBRANCH 6 7
BRANCH 6 11
ATOM     11  C   ASP G 501     -14.620 -39.140  16.424  1.00 61.58 LIG 0.22  C 
ATOM     12 O    ASP G 501     -13.918 -39.963  15.796  1.00 60.92 LIG-0.29  OA
ENDBRANCH 6 11
ENDBRANCH 4 6
ENDBRANCH 1 2
BRANCH 1 13
ATOM     13  CB  TRP G 500     -13.103 -40.962  20.613  1.00 52.85 LIG 0.07  C 
BRANCH 13 14
ATOM     14  CG  TRP G 500     -13.372 -42.343  21.133  1.00 47.47 LIG-0.03  A 
ATOM     15  CD2 TRP G 500     -14.277 -42.699  22.185  1.00 44.29 LIG-0.00  A 
ATOM     16  CE3 TRP G 500     -15.133 -41.969  23.023  1.00 42.43 LIG 0.01  A 
ATOM     17  CE2 TRP G 500     -14.218 -44.107  22.329  1.00 43.87 LIG 0.04  A 
ATOM     18  CZ3 TRP G 500     -15.896 -42.658  23.969  1.00 40.94 LIG 0.00  A 
ATOM     19  CH2 TRP G 500     -15.813 -44.060  24.087  1.00 40.39 LIG 0.00  A 
ATOM     20  CZ2 TRP G 500     -14.985 -44.799  23.280  1.00 41.47 LIG 0.03  A 
ATOM     21  NE1 TRP G 500     -13.321 -44.576  21.405  1.00 44.24 LIG-0.36  N 
ATOM     22  CD1 TRP G 500     -12.816 -43.512  20.693  1.00 45.90 LIG 0.10  A 
ATOM     23 HE1  TRP G 500     -13.108 -45.402  21.289  1.00 44.24 LIG 0.17  HD
ENDBRANCH 13 14
ENDBRANCH 1 13
BRANCH 1 24
ATOM     24  N   TRP G 500     -10.731 -40.571  20.155  1.00 59.87 LIG-0.35  N 
ATOM     25  C   GLU G 499      -9.611 -41.226  19.866  1.00 62.14 LIG 0.24  C 
ATOM     26 O    GLU G 499      -9.567 -42.164  19.065  1.00 62.68 LIG-0.27  OA
ATOM     27 H    TRP G 500     -10.773 -39.910  20.704  1.00 59.87 LIG 0.16  HD
BRANCH 25 28
ATOM     28  CA  GLU G 499      -8.352 -40.751  20.586  1.00 62.75 LIG 0.18  C 
BRANCH 28 29
ATOM     29  N   GLU G 499      -7.928 -39.454  20.069  1.00 64.36 LIG-0.35  N 
ATOM     30 H    GLU G 499      -7.231 -39.482  19.566  1.00 64.36 LIG 0.16  HD
ATOM     31  C   ASP G 498      -8.586 -38.339  20.370  1.00 65.69 LIG 0.26  C 
ATOM     32 O    ASP G 498      -9.584 -38.326  21.095  1.00 66.78 LIG-0.27  OA
BRANCH 31 33
ATOM     33  CA  ASP G 498      -8.048 -37.043  19.766  1.00 65.54 LIG 0.41  C 
ATOM     34  N   ASP G 498      -8.897 -36.648  18.606  1.00 65.34 LIG 0.61  N 
BRANCH 33 35
ATOM     35  CB  ASP G 498      -8.059 -35.935  20.825  1.00 65.84 LIG 0.16  C 
BRANCH 35 36
ATOM     36  CG  ASP G 498      -6.814 -35.943  21.694  1.00 65.00 LIG 0.17  C 
ATOM     37 OD2  ASP G 498      -6.438 -34.860  22.192  1.00 65.16 LIG-0.65  OA
ATOM     38 OD1  ASP G 498      -6.211 -37.023  21.877  1.00 63.97 LIG-0.65  OA
ENDBRANCH 35 36
ENDBRANCH 33 35
ENDBRANCH 31 33
ENDBRANCH 28 29
BRANCH 28 39
ATOM     39  CB  GLU G 499      -8.630 -40.652  22.088  1.00 61.39 LIG 0.04  C 
BRANCH 39 40
ATOM     40  CG  GLU G 499      -7.380 -40.562  22.948  1.00 60.98 LIG 0.12  C 
BRANCH 40 41
ATOM     41  CD  GLU G 499      -6.831 -41.925  23.326  1.00 61.07 LIG 0.17  C 
ATOM     42 OE2  GLU G 499      -6.183 -42.031  24.387  1.00 60.51 LIG-0.65  OA
ATOM     43 OE1  GLU G 499      -7.054 -42.893  22.567  1.00 60.30 LIG-0.65  OA
ENDBRANCH 40 41
ENDBRANCH 39 40
ENDBRANCH 28 39
ENDBRANCH 25 28
ENDBRANCH 1 24
TORSDOF 16
ENDMDL
MODEL 20
USER: ADFR SOLUTION from run 124
USER: SCORE 16.948965 LL:  -2.803 LR: -15.125 RR:   0.000 FEB: -10.353
USER: RMSD 4.943711
USER: SEED 123
USER: STATUS no improvement in best in 8 clusters for 5 generations
USER: GENES 18
USER: genes 0 Translation |==|  0.50144 0.52356 0.42354
USER: genes 1 Rotation |==|  0.32081 0.55304 0.62716 0.94599
USER: genes 2 Torsion [N]-CA--C-[N] |==|  0.86270
USER: genes 3 Torsion [C]-N--CA-[CB] |==|  0.43409
USER: genes 4 Torsion [N]-CA--CB-[CG] |==|  0.69712
USER: genes 5 Torsion [CA]-CB--CG-[OD2] |==|  0.04803
USER: genes 6 Torsion [N]-CA--C-[O] |==|  0.97297
USER: genes 7 Torsion [C]-CA--CB-[CG] |==|  0.25436
USER: genes 8 Torsion [CA]-CB--CG-[CD2] |==|  0.37451
USER: genes 9 Torsion [C]-CA--N-[C] |==|  0.66442
USER: genes 10 Torsion [N]-C--CA-[N] |==|  0.80559
USER: genes 11 Torsion [C]-CA--N-[C] |==|  0.73083
USER: genes 12 Torsion [N]-C--CA-[N] |==|  0.83965
USER: genes 13 Torsion [C]-CA--CB-[CG] |==|  0.79689
USER: genes 14 Torsion [CA]-CB--CG-[OD2] |==|  0.35465
USER: genes 15 Torsion [C]-CA--CB-[CG] |==|  0.43246
USER: genes 16 Torsion [CA]-CB--CG-[CD] |==|  0.04254
USER: genes 17 Torsion [CB]-CG--CD-[OE2] |==|  0.73397
ROOT
ATOM      1  CA  TRP G 500      -9.790 -41.746  18.769  1.00 57.70 LIG 0.18  C 
ENDROOT
BRANCH 1 2
ATOM      2  C   TRP G 500      -9.776 -42.413  20.141  1.00 58.91 LIG 0.24  C 
ATOM      3 O    TRP G 500     -10.236 -43.547  20.280  1.00 59.13 LIG-0.27  OA
ATOM      4  N   ASP G 501      -9.249 -41.724  21.148  1.00 60.05 LIG-0.35  N 
ATOM      5 H    ASP G 501      -8.927 -40.930  21.078  1.00 60.05 LIG 0.16  HD
BRANCH 4 6
ATOM      6  CA  ASP G 501      -9.184 -42.297  22.490  1.00 61.20 LIG 0.17  C 
BRANCH 6 7
ATOM      7  CB  ASP G 501      -8.072 -41.634  23.305  1.00 62.64 LIG 0.15  C 
BRANCH 7 8
ATOM      8  CG  ASP G 501      -6.890 -42.561  23.541  1.00 64.46 LIG 0.17  C 
ATOM      9 OD2  ASP G 501      -6.773 -43.578  22.822  1.00 65.00 LIG-0.65  OA
ATOM     10 OD1  ASP G 501      -6.071 -42.267  24.440  1.00 64.87 LIG-0.65  OA
ENDBRANCH 7 8
ENDBRANCH 6 7
BRANCH 6 11
ATOM     11  C   ASP G 501     -10.516 -42.128  23.220  1.00 61.58 LIG 0.22  C 
ATOM     12 O    ASP G 501     -11.377 -41.393  22.687  1.00 60.92 LIG-0.29  OA
ENDBRANCH 6 11
ENDBRANCH 4 6
ENDBRANCH 1 2
BRANCH 1 13
ATOM     13  CB  TRP G 500      -8.383 -41.763  18.165  1.00 52.85 LIG 0.07  C 
BRANCH 13 14
ATOM     14  CG  TRP G 500      -8.127 -42.971  17.314  1.00 47.47 LIG-0.03  A 
ATOM     15  CD2 TRP G 500      -7.506 -42.992  16.023  1.00 44.29 LIG-0.00  A 
ATOM     16  CE3 TRP G 500      -6.984 -42.001  15.178  1.00 42.43 LIG 0.01  A 
ATOM     17  CE2 TRP G 500      -7.461 -44.343  15.602  1.00 43.87 LIG 0.04  A 
ATOM     18  CZ3 TRP G 500      -6.438 -42.386  13.950  1.00 40.94 LIG 0.00  A 
ATOM     19  CH2 TRP G 500      -6.409 -43.739  13.560  1.00 40.39 LIG 0.00  A 
ATOM     20  CZ2 TRP G 500      -6.913 -44.728  14.367  1.00 41.47 LIG 0.03  A 
ATOM     21  NE1 TRP G 500      -8.026 -45.101  16.594  1.00 44.24 LIG-0.36  N 
ATOM     22  CD1 TRP G 500      -8.425 -44.271  17.617  1.00 45.90 LIG 0.10  A 
ATOM     23 HE1  TRP G 500      -8.117 -45.956  16.579  1.00 44.24 LIG 0.17  HD
ENDBRANCH 13 14
ENDBRANCH 1 13
BRANCH 1 24
ATOM     24  N   TRP G 500     -10.318 -40.389  18.762  1.00 59.87 LIG-0.35  N 
ATOM     25  C   GLU G 499     -11.374 -40.055  18.027  1.00 62.14 LIG 0.24  C 
ATOM     26 O    GLU G 499     -11.983 -40.861  17.317  1.00 62.68 LIG-0.27  OA
ATOM     27 H    TRP G 500      -9.891 -39.840  19.268  1.00 59.87 LIG 0.16  HD
BRANCH 25 28
ATOM     28  CA  GLU G 499     -11.812 -38.595  18.107  1.00 62.75 LIG 0.18  C 
BRANCH 28 29
ATOM     29  N   GLU G 499     -12.385 -38.306  19.417  1.00 64.36 LIG-0.35  N 
ATOM     30 H    GLU G 499     -11.807 -38.128  20.028  1.00 64.36 LIG 0.16  HD
ATOM     31  C   ASP G 498     -13.700 -38.324  19.617  1.00 65.69 LIG 0.26  C 
ATOM     32 O    ASP G 498     -14.509 -38.583  18.724  1.00 66.78 LIG-0.27  OA
BRANCH 31 33
ATOM     33  CA  ASP G 498     -14.180 -38.002  21.031  1.00 65.54 LIG 0.41  C 
ATOM     34  N   ASP G 498     -13.564 -38.960  21.993  1.00 65.34 LIG 0.61  N 
BRANCH 33 35
ATOM     35  CB  ASP G 498     -13.786 -36.567  21.397  1.00 65.84 LIG 0.16  C 
BRANCH 35 36
ATOM     36  CG  ASP G 498     -12.300 -36.417  21.667  1.00 65.00 LIG 0.17  C 
ATOM     37 OD2  ASP G 498     -11.678 -35.525  21.052  1.00 65.16 LIG-0.65  OA
ATOM     38 OD1  ASP G 498     -11.754 -37.188  22.487  1.00 63.97 LIG-0.65  OA
ENDBRANCH 35 36
ENDBRANCH 33 35
ENDBRANCH 31 33
ENDBRANCH 28 29
BRANCH 28 39
ATOM     39  CB  GLU G 499     -10.607 -37.687  17.849  1.00 61.39 LIG 0.04  C 
BRANCH 39 40
ATOM     40  CG  GLU G 499     -10.969 -36.305  17.330  1.00 60.98 LIG 0.12  C 
BRANCH 40 41
ATOM     41  CD  GLU G 499     -12.438 -35.976  17.522  1.00 61.07 LIG 0.17  C 
ATOM     42 OE2  GLU G 499     -13.220 -36.174  16.569  1.00 60.51 LIG-0.65  OA
ATOM     43 OE1  GLU G 499     -12.813 -35.527  18.626  1.00 60.30 LIG-0.65  OA
ENDBRANCH 40 41
ENDBRANCH 39 40
ENDBRANCH 28 39
ENDBRANCH 25 28
ENDBRANCH 1 24
TORSDOF 16
ENDMDL
MODEL 21
USER: ADFR SOLUTION from run 111
USER: SCORE 18.369202 LL:  -4.409 LR: -15.119 RR:   0.000 FEB: -10.347
USER: RMSD 6.003808
USER: SEED 110
USER: STATUS no improvement in best in 7 clusters for 5 generations
USER: GENES 18
USER: genes 0 Translation |==|  0.48047 0.53653 0.43848
USER: genes 1 Rotation |==|  0.27059 0.51286 0.72229 0.88443
USER: genes 2 Torsion [N]-CA--C-[N] |==|  0.79648
USER: genes 3 Torsion [C]-N--CA-[CB] |==|  0.34276
USER: genes 4 Torsion [N]-CA--CB-[CG] |==|  0.68793
USER: genes 5 Torsion [CA]-CB--CG-[OD2] |==|  0.17678
USER: genes 6 Torsion [N]-CA--C-[O] |==|  0.08944
USER: genes 7 Torsion [C]-CA--CB-[CG] |==|  0.66879
USER: genes 8 Torsion [CA]-CB--CG-[CD2] |==|  0.22515
USER: genes 9 Torsion [C]-CA--N-[C] |==|  0.72634
USER: genes 10 Torsion [N]-C--CA-[N] |==|  0.85521
USER: genes 11 Torsion [C]-CA--N-[C] |==|  0.61848
USER: genes 12 Torsion [N]-C--CA-[N] |==|  0.85121
USER: genes 13 Torsion [C]-CA--CB-[CG] |==|  0.75348
USER: genes 14 Torsion [CA]-CB--CG-[OD2] |==|  0.55624
USER: genes 15 Torsion [C]-CA--CB-[CG] |==|  0.74768
USER: genes 16 Torsion [CA]-CB--CG-[CD] |==|  0.74229
USER: genes 17 Torsion [CB]-CG--CD-[OE2] |==|  0.99599
ROOT
ATOM      1  CA  TRP G 500     -10.121 -41.454  19.071  1.00 57.70 LIG 0.18  C 
ENDROOT
BRANCH 1 2
ATOM      2  C   TRP G 500      -9.904 -41.790  20.544  1.00 58.91 LIG 0.24  C 
ATOM      3 O    TRP G 500     -10.225 -42.896  20.978  1.00 59.13 LIG-0.27  OA
ATOM      4  N   ASP G 501      -9.358 -40.850  21.309  1.00 60.05 LIG-0.35  N 
ATOM      5 H    ASP G 501      -9.130 -40.068  21.031  1.00 60.05 LIG 0.16  HD
BRANCH 4 6
ATOM      6  CA  ASP G 501      -9.104 -41.096  22.726  1.00 61.20 LIG 0.17  C 
BRANCH 6 7
ATOM      7  CB  ASP G 501      -7.626 -40.874  23.054  1.00 62.64 LIG 0.15  C 
BRANCH 7 8
ATOM      8  CG  ASP G 501      -6.912 -42.163  23.428  1.00 64.46 LIG 0.17  C 
ATOM      9 OD2  ASP G 501      -6.813 -43.065  22.567  1.00 65.00 LIG-0.65  OA
ATOM     10 OD1  ASP G 501      -6.438 -42.270  24.581  1.00 64.87 LIG-0.65  OA
ENDBRANCH 7 8
ENDBRANCH 6 7
BRANCH 6 11
ATOM     11  C   ASP G 501      -9.960 -40.181  23.601  1.00 61.58 LIG 0.22  C 
ATOM     12 O    ASP G 501     -11.088 -39.859  23.167  1.00 60.92 LIG-0.29  OA
ENDBRANCH 6 11
ENDBRANCH 4 6
ENDBRANCH 1 2
BRANCH 1 13
ATOM     13  CB  TRP G 500      -8.823 -40.915  18.462  1.00 52.85 LIG 0.07  C 
BRANCH 13 14
ATOM     14  CG  TRP G 500      -8.960 -39.517  17.938  1.00 47.47 LIG-0.03  A 
ATOM     15  CD2 TRP G 500      -8.904 -38.307  18.703  1.00 44.29 LIG-0.00  A 
ATOM     16  CE3 TRP G 500      -8.734 -38.024  20.066  1.00 42.43 LIG 0.01  A 
ATOM     17  CE2 TRP G 500      -9.068 -37.231  17.797  1.00 43.87 LIG 0.04  A 
ATOM     18  CZ3 TRP G 500      -8.732 -36.689  20.480  1.00 40.94 LIG 0.00  A 
ATOM     19  CH2 TRP G 500      -8.898 -35.641  19.553  1.00 40.39 LIG 0.00  A 
ATOM     20  CZ2 TRP G 500      -9.067 -35.890  18.213  1.00 41.47 LIG 0.03  A 
ATOM     21  NE1 TRP G 500      -9.213 -37.768  16.544  1.00 44.24 LIG-0.36  N 
ATOM     22  CD1 TRP G 500      -9.149 -39.140  16.637  1.00 45.90 LIG 0.10  A 
ATOM     23 HE1  TRP G 500      -9.326 -37.320  15.818  1.00 44.24 LIG 0.17  HD
ENDBRANCH 13 14
ENDBRANCH 1 13
BRANCH 1 24
ATOM     24  N   TRP G 500     -11.213 -40.526  18.818  1.00 59.87 LIG-0.35  N 
ATOM     25  C   GLU G 499     -12.415 -40.950  18.440  1.00 62.14 LIG 0.24  C 
ATOM     26 O    GLU G 499     -12.693 -42.143  18.291  1.00 62.68 LIG-0.27  OA
ATOM     27 H    TRP G 500     -11.010 -39.698  18.934  1.00 59.87 LIG 0.16  HD
BRANCH 25 28
ATOM     28  CA  GLU G 499     -13.462 -39.866  18.197  1.00 62.75 LIG 0.18  C 
BRANCH 28 29
ATOM     29  N   GLU G 499     -13.552 -38.977  19.350  1.00 64.36 LIG-0.35  N 
ATOM     30 H    GLU G 499     -12.793 -38.752  19.687  1.00 64.36 LIG 0.16  HD
ATOM     31  C   ASP G 498     -14.727 -38.564  19.817  1.00 65.69 LIG 0.26  C 
ATOM     32 O    ASP G 498     -15.801 -38.901  19.316  1.00 66.78 LIG-0.27  OA
BRANCH 31 33
ATOM     33  CA  ASP G 498     -14.692 -37.633  21.028  1.00 65.54 LIG 0.41  C 
ATOM     34  N   ASP G 498     -13.885 -38.262  22.113  1.00 65.34 LIG 0.61  N 
BRANCH 33 35
ATOM     35  CB  ASP G 498     -14.075 -36.288  20.628  1.00 65.84 LIG 0.16  C 
BRANCH 35 36
ATOM     36  CG  ASP G 498     -12.564 -36.268  20.782  1.00 65.00 LIG 0.17  C 
ATOM     37 OD2  ASP G 498     -11.998 -35.157  20.864  1.00 65.16 LIG-0.65  OA
ATOM     38 OD1  ASP G 498     -11.945 -37.353  20.817  1.00 63.97 LIG-0.65  OA
ENDBRANCH 35 36
ENDBRANCH 33 35
ENDBRANCH 31 33
ENDBRANCH 28 29
BRANCH 28 39
ATOM     39  CB  GLU G 499     -13.088 -39.068  16.945  1.00 61.39 LIG 0.04  C 
BRANCH 39 40
ATOM     40  CG  GLU G 499     -12.221 -37.850  17.220  1.00 60.98 LIG 0.12  C 
BRANCH 40 41
ATOM     41  CD  GLU G 499     -13.035 -36.585  17.416  1.00 61.07 LIG 0.17  C 
ATOM     42 OE2  GLU G 499     -14.277 -36.656  17.310  1.00 60.51 LIG-0.65  OA
ATOM     43 OE1  GLU G 499     -12.436 -35.522  17.685  1.00 60.30 LIG-0.65  OA
ENDBRANCH 40 41
ENDBRANCH 39 40
ENDBRANCH 28 39
ENDBRANCH 25 28
ENDBRANCH 1 24
TORSDOF 16
ENDMDL
MODEL 22
USER: ADFR SOLUTION from run 30
USER: SCORE 18.820624 LL:  -3.766 LR: -15.110 RR:   0.000 FEB: -10.337
USER: RMSD 7.951786
USER: SEED 29
USER: STATUS no improvement in best in 2 clusters for 5 generations
USER: GENES 18
USER: genes 0 Translation |==|  0.52878 0.61049 0.46330
USER: genes 1 Rotation |==|  0.24692 0.61485 0.90699 0.58439
USER: genes 2 Torsion [N]-CA--C-[N] |==|  0.91858
USER: genes 3 Torsion [C]-N--CA-[CB] |==|  0.83794
USER: genes 4 Torsion [N]-CA--CB-[CG] |==|  0.32690
USER: genes 5 Torsion [CA]-CB--CG-[OD2] |==|  0.73955
USER: genes 6 Torsion [N]-CA--C-[O] |==|  0.32691
USER: genes 7 Torsion [C]-CA--CB-[CG] |==|  0.79064
USER: genes 8 Torsion [CA]-CB--CG-[CD2] |==|  0.76970
USER: genes 9 Torsion [C]-CA--N-[C] |==|  0.81989
USER: genes 10 Torsion [N]-C--CA-[N] |==|  0.89418
USER: genes 11 Torsion [C]-CA--N-[C] |==|  0.82629
USER: genes 12 Torsion [N]-C--CA-[N] |==|  0.17486
USER: genes 13 Torsion [C]-CA--CB-[CG] |==|  0.22484
USER: genes 14 Torsion [CA]-CB--CG-[OD2] |==|  0.17128
USER: genes 15 Torsion [C]-CA--CB-[CG] |==|  0.01349
USER: genes 16 Torsion [CA]-CB--CG-[CD] |==|  0.55467
USER: genes 17 Torsion [CB]-CG--CD-[OE2] |==|  0.06094
ROOT
ATOM      1  CA  TRP G 500      -9.360 -39.790  19.574  1.00 57.70 LIG 0.18  C 
ENDROOT
BRANCH 1 2
ATOM      2  C   TRP G 500      -8.811 -38.513  20.203  1.00 58.91 LIG 0.24  C 
ATOM      3 O    TRP G 500      -7.595 -38.335  20.277  1.00 59.13 LIG-0.27  OA
ATOM      4  N   ASP G 501      -9.694 -37.625  20.650  1.00 60.05 LIG-0.35  N 
ATOM      5 H    ASP G 501     -10.547 -37.728  20.615  1.00 60.05 LIG 0.16  HD
BRANCH 4 6
ATOM      6  CA  ASP G 501      -9.251 -36.371  21.252  1.00 61.20 LIG 0.17  C 
BRANCH 6 7
ATOM      7  CB  ASP G 501      -8.353 -36.642  22.461  1.00 62.64 LIG 0.15  C 
BRANCH 7 8
ATOM      8  CG  ASP G 501      -6.945 -36.099  22.274  1.00 64.46 LIG 0.17  C 
ATOM      9 OD2  ASP G 501      -6.063 -36.863  21.823  1.00 65.00 LIG-0.65  OA
ATOM     10 OD1  ASP G 501      -6.722 -34.903  22.567  1.00 64.87 LIG-0.65  OA
ENDBRANCH 7 8
ENDBRANCH 6 7
BRANCH 6 11
ATOM     11  C   ASP G 501      -8.490 -35.518  20.238  1.00 61.58 LIG 0.22  C 
ATOM     12 O    ASP G 501      -8.976 -34.403  19.942  1.00 60.92 LIG-0.29  OA
ENDBRANCH 6 11
ENDBRANCH 4 6
ENDBRANCH 1 2
BRANCH 1 13
ATOM     13  CB  TRP G 500      -9.437 -39.631  18.053  1.00 52.85 LIG 0.07  C 
BRANCH 13 14
ATOM     14  CG  TRP G 500     -10.581 -38.768  17.612  1.00 47.47 LIG-0.03  A 
ATOM     15  CD2 TRP G 500     -11.943 -39.177  17.434  1.00 44.29 LIG-0.00  A 
ATOM     16  CE3 TRP G 500     -12.619 -40.398  17.578  1.00 42.43 LIG 0.01  A 
ATOM     17  CE2 TRP G 500     -12.673 -38.036  17.024  1.00 43.87 LIG 0.04  A 
ATOM     18  CZ3 TRP G 500     -13.990 -40.441  17.311  1.00 40.94 LIG 0.00  A 
ATOM     19  CH2 TRP G 500     -14.687 -39.286  16.904  1.00 40.39 LIG 0.00  A 
ATOM     20  CZ2 TRP G 500     -14.051 -38.080  16.756  1.00 41.47 LIG 0.03  A 
ATOM     21  NE1 TRP G 500     -11.793 -36.986  16.961  1.00 44.24 LIG-0.36  N 
ATOM     22  CD1 TRP G 500     -10.540 -37.434  17.314  1.00 45.90 LIG 0.10  A 
ATOM     23 HE1  TRP G 500     -11.992 -36.180  16.738  1.00 44.24 LIG 0.17  HD
ENDBRANCH 13 14
ENDBRANCH 1 13
BRANCH 1 24
ATOM     24  N   TRP G 500     -10.650 -40.214  20.096  1.00 59.87 LIG-0.35  N 
ATOM     25  C   GLU G 499     -10.800 -40.596  21.361  1.00 62.14 LIG 0.24  C 
ATOM     26 O    GLU G 499      -9.873 -40.606  22.176  1.00 62.68 LIG-0.27  OA
ATOM     27 H    TRP G 500     -11.290 -40.194  19.521  1.00 59.87 LIG 0.16  HD
BRANCH 25 28
ATOM     28  CA  GLU G 499     -12.206 -41.027  21.769  1.00 62.75 LIG 0.18  C 
BRANCH 28 29
ATOM     29  N   GLU G 499     -13.205 -40.180  21.126  1.00 64.36 LIG-0.35  N 
ATOM     30 H    GLU G 499     -13.735 -40.597  20.592  1.00 64.36 LIG 0.16  HD
ATOM     31  C   ASP G 498     -13.266 -38.874  21.367  1.00 65.69 LIG 0.26  C 
ATOM     32 O    ASP G 498     -12.494 -38.300  22.138  1.00 66.78 LIG-0.27  OA
BRANCH 31 33
ATOM     33  CA  ASP G 498     -14.357 -38.094  20.636  1.00 65.54 LIG 0.41  C 
ATOM     34  N   ASP G 498     -15.695 -38.593  21.067  1.00 65.34 LIG 0.61  N 
BRANCH 33 35
ATOM     35  CB  ASP G 498     -14.228 -36.601  20.954  1.00 65.84 LIG 0.16  C 
BRANCH 35 36
ATOM     36  CG  ASP G 498     -13.163 -35.914  20.116  1.00 65.00 LIG 0.17  C 
ATOM     37 OD2  ASP G 498     -13.310 -35.901  18.875  1.00 65.16 LIG-0.65  OA
ATOM     38 OD1  ASP G 498     -12.183 -35.394  20.692  1.00 63.97 LIG-0.65  OA
ENDBRANCH 35 36
ENDBRANCH 33 35
ENDBRANCH 31 33
ENDBRANCH 28 29
BRANCH 28 39
ATOM     39  CB  GLU G 499     -12.425 -42.490  21.376  1.00 61.39 LIG 0.04  C 
BRANCH 39 40
ATOM     40  CG  GLU G 499     -11.193 -43.172  20.804  1.00 60.98 LIG 0.12  C 
BRANCH 40 41
ATOM     41  CD  GLU G 499     -11.531 -44.414  20.002  1.00 61.07 LIG 0.17  C 
ATOM     42 OE2  GLU G 499     -12.685 -44.526  19.539  1.00 60.51 LIG-0.65  OA
ATOM     43 OE1  GLU G 499     -10.643 -45.275  19.826  1.00 60.30 LIG-0.65  OA
ENDBRANCH 40 41
ENDBRANCH 39 40
ENDBRANCH 28 39
ENDBRANCH 25 28
ENDBRANCH 1 24
TORSDOF 16
ENDMDL
MODEL 23
USER: ADFR SOLUTION from run 165
USER: SCORE 17.086208 LL:  -2.876 LR: -15.073 RR:   0.000 FEB: -10.300
USER: RMSD 8.426825
USER: SEED 164
USER: STATUS no improvement in best in 15 clusters for 5 generations
USER: GENES 18
USER: genes 0 Translation |==|  0.34307 0.50799 0.50180
USER: genes 1 Rotation |==|  0.88962 0.63897 0.78084 0.50302
USER: genes 2 Torsion [N]-CA--C-[N] |==|  0.41717
USER: genes 3 Torsion [C]-N--CA-[CB] |==|  0.86758
USER: genes 4 Torsion [N]-CA--CB-[CG] |==|  0.62884
USER: genes 5 Torsion [CA]-CB--CG-[OD2] |==|  0.48302
USER: genes 6 Torsion [N]-CA--C-[O] |==|  0.50320
USER: genes 7 Torsion [C]-CA--CB-[CG] |==|  0.09965
USER: genes 8 Torsion [CA]-CB--CG-[CD2] |==|  0.74218
USER: genes 9 Torsion [C]-CA--N-[C] |==|  0.73079
USER: genes 10 Torsion [N]-C--CA-[N] |==|  0.67222
USER: genes 11 Torsion [C]-CA--N-[C] |==|  0.63894
USER: genes 12 Torsion [N]-C--CA-[N] |==|  0.09762
USER: genes 13 Torsion [C]-CA--CB-[CG] |==|  0.78326
USER: genes 14 Torsion [CA]-CB--CG-[OD2] |==|  0.30077
USER: genes 15 Torsion [C]-CA--CB-[CG] |==|  0.24484
USER: genes 16 Torsion [CA]-CB--CG-[CD] |==|  0.34250
USER: genes 17 Torsion [CB]-CG--CD-[OE2] |==|  0.26208
ROOT
ATOM      1  CA  TRP G 500     -12.285 -42.096  20.353  1.00 57.70 LIG 0.18  C 
ENDROOT
BRANCH 1 2
ATOM      2  C   TRP G 500     -12.504 -41.236  19.113  1.00 58.91 LIG 0.24  C 
ATOM      3 O    TRP G 500     -11.549 -40.674  18.576  1.00 59.13 LIG-0.27  OA
ATOM      4  N   ASP G 501     -13.747 -41.134  18.653  1.00 60.05 LIG-0.35  N 
ATOM      5 H    ASP G 501     -14.431 -41.512  19.013  1.00 60.05 LIG 0.16  HD
BRANCH 4 6
ATOM      6  CA  ASP G 501     -14.040 -40.342  17.462  1.00 61.20 LIG 0.17  C 
BRANCH 6 7
ATOM      7  CB  ASP G 501     -13.368 -38.970  17.549  1.00 62.64 LIG 0.15  C 
BRANCH 7 8
ATOM      8  CG  ASP G 501     -14.307 -37.836  17.171  1.00 64.46 LIG 0.17  C 
ATOM      9 OD2  ASP G 501     -13.912 -36.657  17.314  1.00 65.00 LIG-0.65  OA
ATOM     10 OD1  ASP G 501     -15.438 -38.123  16.720  1.00 64.87 LIG-0.65  OA
ENDBRANCH 7 8
ENDBRANCH 6 7
BRANCH 6 11
ATOM     11  C   ASP G 501     -13.563 -41.059  16.199  1.00 61.58 LIG 0.22  C 
ATOM     12 O    ASP G 501     -13.734 -40.475  15.106  1.00 60.92 LIG-0.29  OA
ENDBRANCH 6 11
ENDBRANCH 4 6
ENDBRANCH 1 2
BRANCH 1 13
ATOM     13  CB  TRP G 500     -12.538 -41.267  21.615  1.00 52.85 LIG 0.07  C 
BRANCH 13 14
ATOM     14  CG  TRP G 500     -13.652 -40.277  21.451  1.00 47.47 LIG-0.03  A 
ATOM     15  CD2 TRP G 500     -13.527 -38.908  21.045  1.00 44.29 LIG-0.00  A 
ATOM     16  CE3 TRP G 500     -12.440 -38.088  20.705  1.00 42.43 LIG 0.01  A 
ATOM     17  CE2 TRP G 500     -14.832 -38.360  21.014  1.00 43.87 LIG 0.04  A 
ATOM     18  CZ3 TRP G 500     -12.687 -36.760  20.349  1.00 40.94 LIG 0.00  A 
ATOM     19  CH2 TRP G 500     -13.998 -36.245  20.329  1.00 40.39 LIG 0.00  A 
ATOM     20  CZ2 TRP G 500     -15.079 -37.025  20.656  1.00 41.47 LIG 0.03  A 
ATOM     21  NE1 TRP G 500     -15.703 -39.353  21.382  1.00 44.24 LIG-0.36  N 
ATOM     22  CD1 TRP G 500     -14.987 -40.499  21.644  1.00 45.90 LIG 0.10  A 
ATOM     23 HE1  TRP G 500     -16.558 -39.272  21.439  1.00 44.24 LIG 0.17  HD
ENDBRANCH 13 14
ENDBRANCH 1 13
BRANCH 1 24
ATOM     24  N   TRP G 500     -10.975 -42.728  20.427  1.00 59.87 LIG-0.35  N 
ATOM     25  C   GLU G 499     -10.783 -43.983  20.031  1.00 62.14 LIG 0.24  C 
ATOM     26 O    GLU G 499     -11.683 -44.688  19.567  1.00 62.68 LIG-0.27  OA
ATOM     27 H    TRP G 500     -10.355 -42.223  20.743  1.00 59.87 LIG 0.16  HD
BRANCH 25 28
ATOM     28  CA  GLU G 499      -9.362 -44.520  20.176  1.00 62.75 LIG 0.18  C 
BRANCH 28 29
ATOM     29  N   GLU G 499      -8.815 -44.873  18.870  1.00 64.36 LIG-0.35  N 
ATOM     30 H    GLU G 499      -8.894 -44.259  18.273  1.00 64.36 LIG 0.16  HD
ATOM     31  C   ASP G 498      -8.246 -46.055  18.654  1.00 65.69 LIG 0.26  C 
ATOM     32 O    ASP G 498      -8.145 -46.919  19.528  1.00 66.78 LIG-0.27  OA
BRANCH 31 33
ATOM     33  CA  ASP G 498      -7.707 -46.307  17.247  1.00 65.54 LIG 0.41  C 
ATOM     34  N   ASP G 498      -7.162 -45.035  16.691  1.00 65.34 LIG 0.61  N 
BRANCH 33 35
ATOM     35  CB  ASP G 498      -6.606 -47.371  17.296  1.00 65.84 LIG 0.16  C 
BRANCH 35 36
ATOM     36  CG  ASP G 498      -5.279 -46.819  17.788  1.00 65.00 LIG 0.17  C 
ATOM     37 OD2  ASP G 498      -4.892 -47.151  18.929  1.00 65.16 LIG-0.65  OA
ATOM     38 OD1  ASP G 498      -4.628 -46.056  17.042  1.00 63.97 LIG-0.65  OA
ENDBRANCH 35 36
ENDBRANCH 33 35
ENDBRANCH 31 33
ENDBRANCH 28 29
BRANCH 28 39
ATOM     39  CB  GLU G 499      -8.482 -43.462  20.846  1.00 61.39 LIG 0.04  C 
BRANCH 39 40
ATOM     40  CG  GLU G 499      -8.484 -43.523  22.365  1.00 60.98 LIG 0.12  C 
BRANCH 40 41
ATOM     41  CD  GLU G 499      -7.092 -43.687  22.945  1.00 61.07 LIG 0.17  C 
ATOM     42 OE2  GLU G 499      -6.469 -42.663  23.293  1.00 60.51 LIG-0.65  OA
ATOM     43 OE1  GLU G 499      -6.622 -44.839  23.061  1.00 60.30 LIG-0.65  OA
ENDBRANCH 40 41
ENDBRANCH 39 40
ENDBRANCH 28 39
ENDBRANCH 25 28
ENDBRANCH 1 24
TORSDOF 16
ENDMDL
MODEL 24
USER: ADFR SOLUTION from run 174
USER: SCORE 18.193075 LL:  -3.705 LR: -15.053 RR:   0.000 FEB: -10.281
USER: RMSD 6.546831
USER: SEED 173
USER: STATUS no improvement in best in 7 clusters for 5 generations
USER: GENES 18
USER: genes 0 Translation |==|  0.49547 0.64244 0.37740
USER: genes 1 Rotation |==|  0.49995 0.34036 0.37751 0.95773
USER: genes 2 Torsion [N]-CA--C-[N] |==|  0.13806
USER: genes 3 Torsion [C]-N--CA-[CB] |==|  0.52845
USER: genes 4 Torsion [N]-CA--CB-[CG] |==|  0.89374
USER: genes 5 Torsion [CA]-CB--CG-[OD2] |==|  0.23626
USER: genes 6 Torsion [N]-CA--C-[O] |==|  0.72166
USER: genes 7 Torsion [C]-CA--CB-[CG] |==|  0.22488
USER: genes 8 Torsion [CA]-CB--CG-[CD2] |==|  0.61919
USER: genes 9 Torsion [C]-CA--N-[C] |==|  0.70689
USER: genes 10 Torsion [N]-C--CA-[N] |==|  0.89233
USER: genes 11 Torsion [C]-CA--N-[C] |==|  0.81709
USER: genes 12 Torsion [N]-C--CA-[N] |==|  0.52313
USER: genes 13 Torsion [C]-CA--CB-[CG] |==|  0.86194
USER: genes 14 Torsion [CA]-CB--CG-[OD2] |==|  0.33796
USER: genes 15 Torsion [C]-CA--CB-[CG] |==|  0.71314
USER: genes 16 Torsion [CA]-CB--CG-[CD] |==|  0.51208
USER: genes 17 Torsion [CB]-CG--CD-[OE2] |==|  0.66494
ROOT
ATOM      1  CA  TRP G 500      -9.884 -39.071  17.834  1.00 57.70 LIG 0.18  C 
ENDROOT
BRANCH 1 2
ATOM      2  C   TRP G 500     -11.246 -39.726  17.624  1.00 58.91 LIG 0.24  C 
ATOM      3 O    TRP G 500     -11.359 -40.950  17.692  1.00 59.13 LIG-0.27  OA
ATOM      4  N   ASP G 501     -12.277 -38.923  17.377  1.00 60.05 LIG-0.35  N 
ATOM      5 H    ASP G 501     -12.223 -38.066  17.320  1.00 60.05 LIG 0.16  HD
BRANCH 4 6
ATOM      6  CA  ASP G 501     -13.617 -39.469  17.179  1.00 61.20 LIG 0.17  C 
BRANCH 6 7
ATOM      7  CB  ASP G 501     -14.568 -38.387  16.664  1.00 62.64 LIG 0.15  C 
BRANCH 7 8
ATOM      8  CG  ASP G 501     -14.314 -37.033  17.308  1.00 64.46 LIG 0.17  C 
ATOM      9 OD2  ASP G 501     -13.434 -36.292  16.816  1.00 65.00 LIG-0.65  OA
ATOM     10 OD1  ASP G 501     -15.002 -36.705  18.300  1.00 64.87 LIG-0.65  OA
ENDBRANCH 7 8
ENDBRANCH 6 7
BRANCH 6 11
ATOM     11  C   ASP G 501     -13.591 -40.632  16.187  1.00 61.58 LIG 0.22  C 
ATOM     12 O    ASP G 501     -13.938 -40.393  15.009  1.00 60.92 LIG-0.29  OA
ENDBRANCH 6 11
ENDBRANCH 4 6
ENDBRANCH 1 2
BRANCH 1 13
ATOM     13  CB  TRP G 500      -8.856 -40.127  18.248  1.00 52.85 LIG 0.07  C 
BRANCH 13 14
ATOM     14  CG  TRP G 500      -8.310 -40.899  17.085  1.00 47.47 LIG-0.03  A 
ATOM     15  CD2 TRP G 500      -8.087 -42.314  17.025  1.00 44.29 LIG-0.00  A 
ATOM     16  CE3 TRP G 500      -8.266 -43.367  17.935  1.00 42.43 LIG 0.01  A 
ATOM     17  CE2 TRP G 500      -7.576 -42.603  15.737  1.00 43.87 LIG 0.04  A 
ATOM     18  CZ3 TRP G 500      -7.934 -44.663  17.534  1.00 40.94 LIG 0.00  A 
ATOM     19  CH2 TRP G 500      -7.427 -44.918  16.244  1.00 40.39 LIG 0.00  A 
ATOM     20  CZ2 TRP G 500      -7.242 -43.907  15.335  1.00 41.47 LIG 0.03  A 
ATOM     21  NE1 TRP G 500      -7.498 -41.419  15.051  1.00 44.24 LIG-0.36  N 
ATOM     22  CD1 TRP G 500      -7.938 -40.401  15.867  1.00 45.90 LIG 0.10  A 
ATOM     23 HE1  TRP G 500      -7.220 -41.327  14.242  1.00 44.24 LIG 0.17  HD
ENDBRANCH 13 14
ENDBRANCH 1 13
BRANCH 1 24
ATOM     24  N   TRP G 500      -9.883 -37.973  18.790  1.00 59.87 LIG-0.35  N 
ATOM     25  C   GLU G 499      -9.799 -36.706  18.397  1.00 62.14 LIG 0.24  C 
ATOM     26 O    GLU G 499      -9.730 -36.372  17.210  1.00 62.68 LIG-0.27  OA
ATOM     27 H    TRP G 500      -9.941 -38.218  19.613  1.00 59.87 LIG 0.16  HD
BRANCH 25 28
ATOM     28  CA  GLU G 499      -9.796 -35.658  19.507  1.00 62.75 LIG 0.18  C 
BRANCH 28 29
ATOM     29  N   GLU G 499     -10.724 -36.037  20.567  1.00 64.36 LIG-0.35  N 
ATOM     30 H    GLU G 499     -10.350 -36.217  21.320  1.00 64.36 LIG 0.16  HD
ATOM     31  C   ASP G 498     -12.035 -36.090  20.354  1.00 65.69 LIG 0.26  C 
ATOM     32 O    ASP G 498     -12.547 -35.827  19.264  1.00 66.78 LIG-0.27  OA
BRANCH 31 33
ATOM     33  CA  ASP G 498     -12.904 -36.497  21.543  1.00 65.54 LIG 0.41  C 
ATOM     34  N   ASP G 498     -14.308 -36.700  21.083  1.00 65.34 LIG 0.61  N 
BRANCH 33 35
ATOM     35  CB  ASP G 498     -12.362 -37.790  22.162  1.00 65.84 LIG 0.16  C 
BRANCH 35 36
ATOM     36  CG  ASP G 498     -12.116 -38.875  21.129  1.00 65.00 LIG 0.17  C 
ATOM     37 OD2  ASP G 498     -10.960 -39.340  21.030  1.00 65.16 LIG-0.65  OA
ATOM     38 OD1  ASP G 498     -13.069 -39.261  20.417  1.00 63.97 LIG-0.65  OA
ENDBRANCH 35 36
ENDBRANCH 33 35
ENDBRANCH 31 33
ENDBRANCH 28 29
BRANCH 28 39
ATOM     39  CB  GLU G 499      -8.380 -35.518  20.072  1.00 61.39 LIG 0.04  C 
BRANCH 39 40
ATOM     40  CG  GLU G 499      -8.176 -36.202  21.414  1.00 60.98 LIG 0.12  C 
BRANCH 40 41
ATOM     41  CD  GLU G 499      -6.796 -35.954  21.992  1.00 61.07 LIG 0.17  C 
ATOM     42 OE2  GLU G 499      -6.063 -36.938  22.223  1.00 60.51 LIG-0.65  OA
ATOM     43 OE1  GLU G 499      -6.438 -34.776  22.208  1.00 60.30 LIG-0.65  OA
ENDBRANCH 40 41
ENDBRANCH 39 40
ENDBRANCH 28 39
ENDBRANCH 25 28
ENDBRANCH 1 24
TORSDOF 16
ENDMDL
MODEL 25
USER: ADFR SOLUTION from run 84
USER: SCORE 17.090697 LL:  -2.918 LR: -15.047 RR:   0.000 FEB: -10.274
USER: RMSD 6.558244
USER: SEED 83
USER: STATUS no improvement in best in 3 clusters for 5 generations
USER: GENES 18
USER: genes 0 Translation |==|  0.48940 0.61658 0.46186
USER: genes 1 Rotation |==|  0.57073 0.43399 0.23375 0.91201
USER: genes 2 Torsion [N]-CA--C-[N] |==|  0.38504
USER: genes 3 Torsion [C]-N--CA-[CB] |==|  0.22349
USER: genes 4 Torsion [N]-CA--CB-[CG] |==|  0.12991
USER: genes 5 Torsion [CA]-CB--CG-[OD2] |==|  0.65612
USER: genes 6 Torsion [N]-CA--C-[O] |==|  0.20132
USER: genes 7 Torsion [C]-CA--CB-[CG] |==|  0.31483
USER: genes 8 Torsion [CA]-CB--CG-[CD2] |==|  0.48820
USER: genes 9 Torsion [C]-CA--N-[C] |==|  0.56309
USER: genes 10 Torsion [N]-C--CA-[N] |==|  0.80891
USER: genes 11 Torsion [C]-CA--N-[C] |==|  0.73742
USER: genes 12 Torsion [N]-C--CA-[N] |==|  0.89178
USER: genes 13 Torsion [C]-CA--CB-[CG] |==|  0.70097
USER: genes 14 Torsion [CA]-CB--CG-[OD2] |==|  0.31805
USER: genes 15 Torsion [C]-CA--CB-[CG] |==|  0.11877
USER: genes 16 Torsion [CA]-CB--CG-[CD] |==|  0.34357
USER: genes 17 Torsion [CB]-CG--CD-[OE2] |==|  0.49938
ROOT
ATOM      1  CA  TRP G 500      -9.980 -39.653  19.545  1.00 57.70 LIG 0.18  C 
ENDROOT
BRANCH 1 2
ATOM      2  C   TRP G 500     -11.497 -39.495  19.525  1.00 58.91 LIG 0.24  C 
ATOM      3 O    TRP G 500     -12.171 -39.887  20.478  1.00 59.13 LIG-0.27  OA
ATOM      4  N   ASP G 501     -12.036 -38.920  18.454  1.00 60.05 LIG-0.35  N 
ATOM      5 H    ASP G 501     -11.588 -38.642  17.774  1.00 60.05 LIG 0.16  HD
BRANCH 4 6
ATOM      6  CA  ASP G 501     -13.479 -38.717  18.363  1.00 61.20 LIG 0.17  C 
BRANCH 6 7
ATOM      7  CB  ASP G 501     -13.900 -37.476  19.153  1.00 62.64 LIG 0.15  C 
BRANCH 7 8
ATOM      8  CG  ASP G 501     -13.011 -36.276  18.870  1.00 64.46 LIG 0.17  C 
ATOM      9 OD2  ASP G 501     -12.438 -35.714  19.830  1.00 65.00 LIG-0.65  OA
ATOM     10 OD1  ASP G 501     -12.874 -35.901  17.684  1.00 64.87 LIG-0.65  OA
ENDBRANCH 7 8
ENDBRANCH 6 7
BRANCH 6 11
ATOM     11  C   ASP G 501     -13.918 -38.563  16.907  1.00 61.58 LIG 0.22  C 
ATOM     12 O    ASP G 501     -13.909 -39.588  16.191  1.00 60.92 LIG-0.29  OA
ENDBRANCH 6 11
ENDBRANCH 4 6
ENDBRANCH 1 2
BRANCH 1 13
ATOM     13  CB  TRP G 500      -9.596 -41.062  19.084  1.00 52.85 LIG 0.07  C 
BRANCH 13 14
ATOM     14  CG  TRP G 500      -8.862 -41.070  17.776  1.00 47.47 LIG-0.03  A 
ATOM     15  CD2 TRP G 500      -8.295 -42.211  17.121  1.00 44.29 LIG-0.00  A 
ATOM     16  CE3 TRP G 500      -8.217 -43.576  17.434  1.00 42.43 LIG 0.01  A 
ATOM     17  CE2 TRP G 500      -7.714 -41.753  15.913  1.00 43.87 LIG 0.04  A 
ATOM     18  CZ3 TRP G 500      -7.570 -44.434  16.542  1.00 40.94 LIG 0.00  A 
ATOM     19  CH2 TRP G 500      -7.001 -43.947  15.349  1.00 40.39 LIG 0.00  A 
ATOM     20  CZ2 TRP G 500      -7.063 -42.616  15.017  1.00 41.47 LIG 0.03  A 
ATOM     21  NE1 TRP G 500      -7.924 -40.400  15.843  1.00 44.24 LIG-0.36  N 
ATOM     22  CD1 TRP G 500      -8.612 -39.998  16.966  1.00 45.90 LIG 0.10  A 
ATOM     23 HE1  TRP G 500      -7.668 -39.887  15.202  1.00 44.24 LIG 0.17  HD
ENDBRANCH 13 14
ENDBRANCH 1 13
BRANCH 1 24
ATOM     24  N   TRP G 500      -9.359 -39.362  20.828  1.00 59.87 LIG-0.35  N 
ATOM     25  C   GLU G 499      -8.078 -39.018  20.922  1.00 62.14 LIG 0.24  C 
ATOM     26 O    GLU G 499      -7.337 -38.909  19.941  1.00 62.68 LIG-0.27  OA
ATOM     27 H    TRP G 500      -9.888 -39.432  21.503  1.00 59.87 LIG 0.16  HD
BRANCH 25 28
ATOM     28  CA  GLU G 499      -7.556 -38.753  22.331  1.00 62.75 LIG 0.18  C 
BRANCH 28 29
ATOM     29  N   GLU G 499      -8.151 -37.537  22.875  1.00 64.36 LIG-0.35  N 
ATOM     30 H    GLU G 499      -8.916 -37.652  23.252  1.00 64.36 LIG 0.16  HD
ATOM     31  C   ASP G 498      -7.536 -36.362  22.780  1.00 65.69 LIG 0.26  C 
ATOM     32 O    ASP G 498      -6.439 -36.224  22.234  1.00 66.78 LIG-0.27  OA
BRANCH 31 33
ATOM     33  CA  ASP G 498      -8.257 -35.162  23.390  1.00 65.54 LIG 0.41  C 
ATOM     34  N   ASP G 498      -9.719 -35.275  23.122  1.00 65.34 LIG 0.61  N 
BRANCH 33 35
ATOM     35  CB  ASP G 498      -8.003 -35.119  24.901  1.00 65.84 LIG 0.16  C 
BRANCH 35 36
ATOM     36  CG  ASP G 498      -9.226 -35.506  25.712  1.00 65.00 LIG 0.17  C 
ATOM     37 OD2  ASP G 498      -9.173 -36.554  26.391  1.00 65.16 LIG-0.65  OA
ATOM     38 OD1  ASP G 498     -10.237 -34.771  25.671  1.00 63.97 LIG-0.65  OA
ENDBRANCH 35 36
ENDBRANCH 33 35
ENDBRANCH 31 33
ENDBRANCH 28 29
BRANCH 28 39
ATOM     39  CB  GLU G 499      -7.887 -39.948  23.230  1.00 61.39 LIG 0.04  C 
BRANCH 39 40
ATOM     40  CG  GLU G 499      -7.648 -41.301  22.580  1.00 60.98 LIG 0.12  C 
BRANCH 40 41
ATOM     41  CD  GLU G 499      -6.701 -42.175  23.381  1.00 61.07 LIG 0.17  C 
ATOM     42 OE2  GLU G 499      -6.433 -43.314  22.945  1.00 60.51 LIG-0.65  OA
ATOM     43 OE1  GLU G 499      -6.219 -41.723  24.441  1.00 60.30 LIG-0.65  OA
ENDBRANCH 40 41
ENDBRANCH 39 40
ENDBRANCH 28 39
ENDBRANCH 25 28
ENDBRANCH 1 24
TORSDOF 16
ENDMDL
MODEL 26
USER: ADFR SOLUTION from run 63
USER: SCORE 18.092153 LL:  -3.179 LR: -15.046 RR:   0.000 FEB: -10.273
USER: RMSD 6.225678
USER: SEED 62
USER: STATUS no improvement in best in 7 clusters for 5 generations
USER: GENES 18
USER: genes 0 Translation |==|  0.50800 0.55289 0.42616
USER: genes 1 Rotation |==|  0.73096 0.35624 0.22932 0.82050
USER: genes 2 Torsion [N]-CA--C-[N] |==|  0.95654
USER: genes 3 Torsion [C]-N--CA-[CB] |==|  0.86503
USER: genes 4 Torsion [N]-CA--CB-[CG] |==|  0.57454
USER: genes 5 Torsion [CA]-CB--CG-[OD2] |==|  0.93291
USER: genes 6 Torsion [N]-CA--C-[O] |==|  0.66433
USER: genes 7 Torsion [C]-CA--CB-[CG] |==|  0.21893
USER: genes 8 Torsion [CA]-CB--CG-[CD2] |==|  0.52912
USER: genes 9 Torsion [C]-CA--N-[C] |==|  0.73262
USER: genes 10 Torsion [N]-C--CA-[N] |==|  0.99320
USER: genes 11 Torsion [C]-CA--N-[C] |==|  0.77453
USER: genes 12 Torsion [N]-C--CA-[N] |==|  0.54045
USER: genes 13 Torsion [C]-CA--CB-[CG] |==|  0.80942
USER: genes 14 Torsion [CA]-CB--CG-[OD2] |==|  0.44417
USER: genes 15 Torsion [C]-CA--CB-[CG] |==|  0.92128
USER: genes 16 Torsion [CA]-CB--CG-[CD] |==|  0.60585
USER: genes 17 Torsion [CB]-CG--CD-[OE2] |==|  0.80922
ROOT
ATOM      1  CA  TRP G 500      -9.687 -41.086  18.822  1.00 57.70 LIG 0.18  C 
ENDROOT
BRANCH 1 2
ATOM      2  C   TRP G 500     -10.853 -40.498  18.033  1.00 58.91 LIG 0.24  C 
ATOM      3 O    TRP G 500     -10.646 -39.918  16.967  1.00 59.13 LIG-0.27  OA
ATOM      4  N   ASP G 501     -12.072 -40.649  18.543  1.00 60.05 LIG-0.35  N 
ATOM      5 H    ASP G 501     -12.242 -41.046  19.287  1.00 60.05 LIG 0.16  HD
BRANCH 4 6
ATOM      6  CA  ASP G 501     -13.243 -40.129  17.843  1.00 61.20 LIG 0.17  C 
BRANCH 6 7
ATOM      7  CB  ASP G 501     -13.014 -38.679  17.413  1.00 62.64 LIG 0.15  C 
BRANCH 7 8
ATOM      8  CG  ASP G 501     -14.311 -37.895  17.291  1.00 64.46 LIG 0.17  C 
ATOM      9 OD2  ASP G 501     -15.373 -38.523  17.083  1.00 65.00 LIG-0.65  OA
ATOM     10 OD1  ASP G 501     -14.271 -36.651  17.415  1.00 64.87 LIG-0.65  OA
ENDBRANCH 7 8
ENDBRANCH 6 7
BRANCH 6 11
ATOM     11  C   ASP G 501     -13.563 -40.976  16.612  1.00 61.58 LIG 0.22  C 
ATOM     12 O    ASP G 501     -13.563 -40.401  15.500  1.00 60.92 LIG-0.29  OA
ENDBRANCH 6 11
ENDBRANCH 4 6
ENDBRANCH 1 2
BRANCH 1 13
ATOM     13  CB  TRP G 500      -9.129 -42.312  18.094  1.00 52.85 LIG 0.07  C 
BRANCH 13 14
ATOM     14  CG  TRP G 500      -8.238 -41.954  16.943  1.00 47.47 LIG-0.03  A 
ATOM     15  CD2 TRP G 500      -7.732 -42.845  15.942  1.00 44.29 LIG-0.00  A 
ATOM     16  CE3 TRP G 500      -7.862 -44.223  15.709  1.00 42.43 LIG 0.01  A 
ATOM     17  CE2 TRP G 500      -6.948 -42.073  15.051  1.00 43.87 LIG 0.04  A 
ATOM     18  CZ3 TRP G 500      -7.212 -44.782  14.606  1.00 40.94 LIG 0.00  A 
ATOM     19  CH2 TRP G 500      -6.438 -43.986  13.739  1.00 40.39 LIG 0.00  A 
ATOM     20  CZ2 TRP G 500      -6.295 -42.636  13.942  1.00 41.47 LIG 0.03  A 
ATOM     21  NE1 TRP G 500      -6.982 -40.776  15.493  1.00 44.24 LIG-0.36  N 
ATOM     22  CD1 TRP G 500      -7.756 -40.713  16.629  1.00 45.90 LIG 0.10  A 
ATOM     23 HE1  TRP G 500      -6.584 -40.110  15.120  1.00 44.24 LIG 0.17  HD
ENDBRANCH 13 14
ENDBRANCH 1 13
BRANCH 1 24
ATOM     24  N   TRP G 500     -10.002 -41.427  20.201  1.00 59.87 LIG-0.35  N 
ATOM     25  C   GLU G 499      -9.735 -40.595  21.204  1.00 62.14 LIG 0.24  C 
ATOM     26 O    GLU G 499      -9.221 -39.485  21.039  1.00 62.68 LIG-0.27  OA
ATOM     27 H    TRP G 500     -10.368 -42.198  20.302  1.00 59.87 LIG 0.16  HD
BRANCH 25 28
ATOM     28  CA  GLU G 499     -10.108 -41.086  22.600  1.00 62.75 LIG 0.18  C 
BRANCH 28 29
ATOM     29  N   GLU G 499     -10.753 -42.392  22.525  1.00 64.36 LIG-0.35  N 
ATOM     30 H    GLU G 499     -10.233 -43.057  22.689  1.00 64.36 LIG 0.16  HD
ATOM     31  C   ASP G 498     -12.043 -42.512  22.225  1.00 65.69 LIG 0.26  C 
ATOM     32 O    ASP G 498     -12.768 -41.542  21.993  1.00 66.78 LIG-0.27  OA
BRANCH 31 33
ATOM     33  CA  ASP G 498     -12.605 -43.931  22.180  1.00 65.54 LIG 0.41  C 
ATOM     34  N   ASP G 498     -13.932 -43.917  21.499  1.00 65.34 LIG 0.61  N 
BRANCH 33 35
ATOM     35  CB  ASP G 498     -11.637 -44.848  21.424  1.00 65.84 LIG 0.16  C 
BRANCH 35 36
ATOM     36  CG  ASP G 498     -11.563 -44.526  19.942  1.00 65.00 LIG 0.17  C 
ATOM     37 OD2  ASP G 498     -10.563 -44.922  19.305  1.00 65.16 LIG-0.65  OA
ATOM     38 OD1  ASP G 498     -12.494 -43.879  19.416  1.00 63.97 LIG-0.65  OA
ENDBRANCH 35 36
ENDBRANCH 33 35
ENDBRANCH 31 33
ENDBRANCH 28 29
BRANCH 28 39
ATOM     39  CB  GLU G 499      -8.846 -41.172  23.463  1.00 61.39 LIG 0.04  C 
BRANCH 39 40
ATOM     40  CG  GLU G 499      -7.572 -41.436  22.678  1.00 60.98 LIG 0.12  C 
BRANCH 40 41
ATOM     41  CD  GLU G 499      -6.621 -42.370  23.403  1.00 61.07 LIG 0.17  C 
ATOM     42 OE2  GLU G 499      -6.063 -41.959  24.442  1.00 60.51 LIG-0.65  OA
ATOM     43 OE1  GLU G 499      -6.438 -43.516  22.942  1.00 60.30 LIG-0.65  OA
ENDBRANCH 40 41
ENDBRANCH 39 40
ENDBRANCH 28 39
ENDBRANCH 25 28
ENDBRANCH 1 24
TORSDOF 16
ENDMDL
MODEL 27
USER: ADFR SOLUTION from run 74
USER: SCORE 17.923684 LL:  -3.688 LR: -15.038 RR:   0.000 FEB: -10.265
USER: RMSD 5.534848
USER: SEED 73
USER: STATUS no improvement in best in 5 clusters for 5 generations
USER: GENES 18
USER: genes 0 Translation |==|  0.47595 0.51930 0.41246
USER: genes 1 Rotation |==|  0.31518 0.45059 0.69745 0.91763
USER: genes 2 Torsion [N]-CA--C-[N] |==|  0.48843
USER: genes 3 Torsion [C]-N--CA-[CB] |==|  0.83282
USER: genes 4 Torsion [N]-CA--CB-[CG] |==|  0.73330
USER: genes 5 Torsion [CA]-CB--CG-[OD2] |==|  0.85845
USER: genes 6 Torsion [N]-CA--C-[O] |==|  0.06470
USER: genes 7 Torsion [C]-CA--CB-[CG] |==|  0.75968
USER: genes 8 Torsion [CA]-CB--CG-[CD2] |==|  0.75681
USER: genes 9 Torsion [C]-CA--N-[C] |==|  0.78874
USER: genes 10 Torsion [N]-C--CA-[N] |==|  0.82343
USER: genes 11 Torsion [C]-CA--N-[C] |==|  0.60556
USER: genes 12 Torsion [N]-C--CA-[N] |==|  0.88203
USER: genes 13 Torsion [C]-CA--CB-[CG] |==|  0.79566
USER: genes 14 Torsion [CA]-CB--CG-[OD2] |==|  0.97124
USER: genes 15 Torsion [C]-CA--CB-[CG] |==|  0.46820
USER: genes 16 Torsion [CA]-CB--CG-[CD] |==|  0.26812
USER: genes 17 Torsion [CB]-CG--CD-[OE2] |==|  0.19560
ROOT
ATOM      1  CA  TRP G 500     -10.192 -41.842  18.544  1.00 57.70 LIG 0.18  C 
ENDROOT
BRANCH 1 2
ATOM      2  C   TRP G 500     -10.218 -42.614  19.860  1.00 58.91 LIG 0.24  C 
ATOM      3 O    TRP G 500     -11.024 -42.308  20.739  1.00 59.13 LIG-0.27  OA
ATOM      4  N   ASP G 501      -9.350 -43.611  19.999  1.00 60.05 LIG-0.35  N 
ATOM      5 H    ASP G 501      -8.774 -43.841  19.402  1.00 60.05 LIG 0.16  HD
BRANCH 4 6
ATOM      6  CA  ASP G 501      -9.320 -44.409  21.221  1.00 61.20 LIG 0.17  C 
BRANCH 6 7
ATOM      7  CB  ASP G 501      -9.015 -43.527  22.433  1.00 62.64 LIG 0.15  C 
BRANCH 7 8
ATOM      8  CG  ASP G 501      -7.540 -43.533  22.802  1.00 64.46 LIG 0.17  C 
ATOM      9 OD2  ASP G 501      -6.962 -44.633  22.942  1.00 65.00 LIG-0.65  OA
ATOM     10 OD1  ASP G 501      -6.955 -42.435  22.942  1.00 64.87 LIG-0.65  OA
ENDBRANCH 7 8
ENDBRANCH 6 7
BRANCH 6 11
ATOM     11  C   ASP G 501     -10.653 -45.124  21.438  1.00 61.58 LIG 0.22  C 
ATOM     12 O    ASP G 501     -11.370 -45.324  20.433  1.00 60.92 LIG-0.29  OA
ENDBRANCH 6 11
ENDBRANCH 4 6
ENDBRANCH 1 2
BRANCH 1 13
ATOM     13  CB  TRP G 500      -8.812 -41.211  18.337  1.00 52.85 LIG 0.07  C 
BRANCH 13 14
ATOM     14  CG  TRP G 500      -8.680 -39.867  18.988  1.00 47.47 LIG-0.03  A 
ATOM     15  CD2 TRP G 500      -9.025 -38.600  18.414  1.00 44.29 LIG-0.00  A 
ATOM     16  CE3 TRP G 500      -9.542 -38.202  17.173  1.00 42.43 LIG 0.01  A 
ATOM     17  CE2 TRP G 500      -8.746 -37.610  19.388  1.00 43.87 LIG 0.04  A 
ATOM     18  CZ3 TRP G 500      -9.762 -36.842  16.942  1.00 40.94 LIG 0.00  A 
ATOM     19  CH2 TRP G 500      -9.473 -35.881  17.931  1.00 40.39 LIG 0.00  A 
ATOM     20  CZ2 TRP G 500      -8.968 -36.242  19.155  1.00 41.47 LIG 0.03  A 
ATOM     21  NE1 TRP G 500      -8.258 -38.250  20.497  1.00 44.24 LIG-0.36  N 
ATOM     22  CD1 TRP G 500      -8.219 -39.604  20.249  1.00 45.90 LIG 0.10  A 
ATOM     23 HE1  TRP G 500      -8.016 -37.869  21.229  1.00 44.24 LIG 0.17  HD
ENDBRANCH 13 14
ENDBRANCH 1 13
BRANCH 1 24
ATOM     24  N   TRP G 500     -11.228 -40.827  18.419  1.00 59.87 LIG-0.35  N 
ATOM     25  C   GLU G 499     -12.491 -41.148  18.157  1.00 62.14 LIG 0.24  C 
ATOM     26 O    GLU G 499     -12.875 -42.313  18.017  1.00 62.68 LIG-0.27  OA
ATOM     27 H    TRP G 500     -10.950 -40.020  18.528  1.00 59.87 LIG 0.16  HD
BRANCH 25 28
ATOM     28  CA  GLU G 499     -13.469 -39.982  18.041  1.00 62.75 LIG 0.18  C 
BRANCH 28 29
ATOM     29  N   GLU G 499     -13.572 -39.274  19.312  1.00 64.36 LIG-0.35  N 
ATOM     30 H    GLU G 499     -12.830 -39.203  19.742  1.00 64.36 LIG 0.16  HD
ATOM     31  C   ASP G 498     -14.733 -38.791  19.744  1.00 65.69 LIG 0.26  C 
ATOM     32 O    ASP G 498     -15.784 -38.907  19.108  1.00 66.78 LIG-0.27  OA
BRANCH 31 33
ATOM     33  CA  ASP G 498     -14.714 -38.066  21.088  1.00 65.54 LIG 0.41  C 
ATOM     34  N   ASP G 498     -13.865 -38.828  22.049  1.00 65.34 LIG 0.61  N 
BRANCH 33 35
ATOM     35  CB  ASP G 498     -14.158 -36.650  20.906  1.00 65.84 LIG 0.16  C 
BRANCH 35 36
ATOM     36  CG  ASP G 498     -12.657 -36.635  20.678  1.00 65.00 LIG 0.17  C 
ATOM     37 OD2  ASP G 498     -12.025 -37.698  20.857  1.00 65.16 LIG-0.65  OA
ATOM     38 OD1  ASP G 498     -12.110 -35.568  20.324  1.00 63.97 LIG-0.65  OA
ENDBRANCH 35 36
ENDBRANCH 33 35
ENDBRANCH 31 33
ENDBRANCH 28 29
BRANCH 28 39
ATOM     39  CB  GLU G 499     -12.992 -39.025  16.944  1.00 61.39 LIG 0.04  C 
BRANCH 39 40
ATOM     40  CG  GLU G 499     -14.017 -37.976  16.546  1.00 60.98 LIG 0.12  C 
BRANCH 40 41
ATOM     41  CD  GLU G 499     -13.805 -36.653  17.256  1.00 61.07 LIG 0.17  C 
ATOM     42 OE2  GLU G 499     -12.813 -35.963  16.942  1.00 60.51 LIG-0.65  OA
ATOM     43 OE1  GLU G 499     -14.633 -36.296  18.122  1.00 60.30 LIG-0.65  OA
ENDBRANCH 40 41
ENDBRANCH 39 40
ENDBRANCH 28 39
ENDBRANCH 25 28
ENDBRANCH 1 24
TORSDOF 16
ENDMDL
MODEL 28
USER: ADFR SOLUTION from run 90
USER: SCORE 16.594730 LL:  -2.143 LR: -15.008 RR:   0.000 FEB: -10.235
USER: RMSD 4.515116
USER: SEED 89
USER: STATUS no improvement in best in 9 clusters for 5 generations
USER: GENES 18
USER: genes 0 Translation |==|  0.54899 0.52378 0.39945
USER: genes 1 Rotation |==|  0.39084 0.49827 0.63448 0.96904
USER: genes 2 Torsion [N]-CA--C-[N] |==|  0.96323
USER: genes 3 Torsion [C]-N--CA-[CB] |==|  0.76318
USER: genes 4 Torsion [N]-CA--CB-[CG] |==|  0.17238
USER: genes 5 Torsion [CA]-CB--CG-[OD2] |==|  0.18339
USER: genes 6 Torsion [N]-CA--C-[O] |==|  0.29624
USER: genes 7 Torsion [C]-CA--CB-[CG] |==|  0.31518
USER: genes 8 Torsion [CA]-CB--CG-[CD2] |==|  0.80672
USER: genes 9 Torsion [C]-CA--N-[C] |==|  0.70802
USER: genes 10 Torsion [N]-C--CA-[N] |==|  0.16077
USER: genes 11 Torsion [C]-CA--N-[C] |==|  0.78332
USER: genes 12 Torsion [N]-C--CA-[N] |==|  0.94369
USER: genes 13 Torsion [C]-CA--CB-[CG] |==|  0.20871
USER: genes 14 Torsion [CA]-CB--CG-[OD2] |==|  0.16205
USER: genes 15 Torsion [C]-CA--CB-[CG] |==|  0.44741
USER: genes 16 Torsion [CA]-CB--CG-[CD] |==|  0.16460
USER: genes 17 Torsion [CB]-CG--CD-[OE2] |==|  0.66591
ROOT
ATOM      1  CA  TRP G 500      -9.041 -41.741  18.281  1.00 57.70 LIG 0.18  C 
ENDROOT
BRANCH 1 2
ATOM      2  C   TRP G 500      -9.134 -42.833  19.342  1.00 58.91 LIG 0.24  C 
ATOM      3 O    TRP G 500      -8.864 -43.999  19.053  1.00 59.13 LIG-0.27  OA
ATOM      4  N   ASP G 501      -9.507 -42.465  20.564  1.00 60.05 LIG-0.35  N 
ATOM      5 H    ASP G 501      -9.706 -41.660  20.790  1.00 60.05 LIG 0.16  HD
BRANCH 4 6
ATOM      6  CA  ASP G 501      -9.606 -43.447  21.641  1.00 61.20 LIG 0.17  C 
BRANCH 6 7
ATOM      7  CB  ASP G 501     -10.973 -44.134  21.619  1.00 62.64 LIG 0.15  C 
BRANCH 7 8
ATOM      8  CG  ASP G 501     -11.216 -44.909  20.333  1.00 64.46 LIG 0.17  C 
ATOM      9 OD2  ASP G 501     -10.505 -45.909  20.093  1.00 65.00 LIG-0.65  OA
ATOM     10 OD1  ASP G 501     -12.127 -44.523  19.567  1.00 64.87 LIG-0.65  OA
ENDBRANCH 7 8
ENDBRANCH 6 7
BRANCH 6 11
ATOM     11  C   ASP G 501      -8.508 -44.503  21.519  1.00 61.58 LIG 0.22  C 
ATOM     12 O    ASP G 501      -7.563 -44.448  22.338  1.00 60.92 LIG-0.29  OA
ENDBRANCH 6 11
ENDBRANCH 4 6
ENDBRANCH 1 2
BRANCH 1 13
ATOM     13  CB  TRP G 500      -7.578 -41.511  17.895  1.00 52.85 LIG 0.07  C 
BRANCH 13 14
ATOM     14  CG  TRP G 500      -7.276 -41.910  16.481  1.00 47.47 LIG-0.03  A 
ATOM     15  CD2 TRP G 500      -7.243 -43.243  15.956  1.00 44.29 LIG-0.00  A 
ATOM     16  CE3 TRP G 500      -7.444 -44.514  16.514  1.00 42.43 LIG 0.01  A 
ATOM     17  CE2 TRP G 500      -6.930 -43.143  14.579  1.00 43.87 LIG 0.04  A 
ATOM     18  CZ3 TRP G 500      -7.328 -45.635  15.689  1.00 40.94 LIG 0.00  A 
ATOM     19  CH2 TRP G 500      -7.015 -45.502  14.321  1.00 40.39 LIG 0.00  A 
ATOM     20  CZ2 TRP G 500      -6.814 -44.270  13.749  1.00 41.47 LIG 0.03  A 
ATOM     21  NE1 TRP G 500      -6.785 -41.811  14.287  1.00 44.24 LIG-0.36  N 
ATOM     22  CD1 TRP G 500      -6.992 -41.078  15.433  1.00 45.90 LIG 0.10  A 
ATOM     23 HE1  TRP G 500      -6.596 -41.487  13.513  1.00 44.24 LIG 0.17  HD
ENDBRANCH 13 14
ENDBRANCH 1 13
BRANCH 1 24
ATOM     24  N   TRP G 500      -9.661 -40.479  18.657  1.00 59.87 LIG-0.35  N 
ATOM     25  C   GLU G 499     -10.828 -40.095  18.148  1.00 62.14 LIG 0.24  C 
ATOM     26 O    GLU G 499     -11.467 -40.776  17.341  1.00 62.68 LIG-0.27  OA
ATOM     27 H    TRP G 500      -9.210 -40.018  19.227  1.00 59.87 LIG 0.16  HD
BRANCH 25 28
ATOM     28  CA  GLU G 499     -11.354 -38.743  18.622  1.00 62.75 LIG 0.18  C 
BRANCH 28 29
ATOM     29  N   GLU G 499     -10.389 -37.689  18.328  1.00 64.36 LIG-0.35  N 
ATOM     30 H    GLU G 499     -10.583 -37.210  17.641  1.00 64.36 LIG 0.16  HD
ATOM     31  C   ASP G 498      -9.308 -37.509  19.082  1.00 65.69 LIG 0.26  C 
ATOM     32 O    ASP G 498      -9.053 -38.210  20.063  1.00 66.78 LIG-0.27  OA
BRANCH 31 33
ATOM     33  CA  ASP G 498      -8.374 -36.370  18.675  1.00 65.54 LIG 0.41  C 
ATOM     34  N   ASP G 498      -8.618 -36.017  17.247  1.00 65.34 LIG 0.61  N 
BRANCH 33 35
ATOM     35  CB  ASP G 498      -8.626 -35.151  19.568  1.00 65.84 LIG 0.16  C 
BRANCH 35 36
ATOM     36  CG  ASP G 498      -8.048 -35.316  20.962  1.00 65.00 LIG 0.17  C 
ATOM     37 OD2  ASP G 498      -6.820 -35.526  21.067  1.00 65.16 LIG-0.65  OA
ATOM     38 OD1  ASP G 498      -8.813 -35.239  21.948  1.00 63.97 LIG-0.65  OA
ENDBRANCH 35 36
ENDBRANCH 33 35
ENDBRANCH 31 33
ENDBRANCH 28 29
BRANCH 28 39
ATOM     39  CB  GLU G 499     -12.687 -38.444  17.931  1.00 61.39 LIG 0.04  C 
BRANCH 39 40
ATOM     40  CG  GLU G 499     -13.525 -37.384  18.628  1.00 60.98 LIG 0.12  C 
BRANCH 40 41
ATOM     41  CD  GLU G 499     -12.808 -36.052  18.739  1.00 61.07 LIG 0.17  C 
ATOM     42 OE2  GLU G 499     -12.605 -35.580  19.877  1.00 60.51 LIG-0.65  OA
ATOM     43 OE1  GLU G 499     -12.438 -35.480  17.691  1.00 60.30 LIG-0.65  OA
ENDBRANCH 40 41
ENDBRANCH 39 40
ENDBRANCH 28 39
ENDBRANCH 25 28
ENDBRANCH 1 24
TORSDOF 16
ENDMDL
MODEL 29
USER: ADFR SOLUTION from run 3
USER: SCORE 17.571010 LL:  -2.988 LR: -14.971 RR:   0.000 FEB: -10.198
USER: RMSD 5.209709
USER: SEED 64177
USER: STATUS no improvement in best in 8 clusters for 5 generations
USER: GENES 18
USER: genes 0 Translation |==|  0.50679 0.46563 0.43256
USER: genes 1 Rotation |==|  0.36501 0.43867 0.68482 0.94029
USER: genes 2 Torsion [N]-CA--C-[N] |==|  0.88118
USER: genes 3 Torsion [C]-N--CA-[CB] |==|  0.35004
USER: genes 4 Torsion [N]-CA--CB-[CG] |==|  0.88938
USER: genes 5 Torsion [CA]-CB--CG-[OD2] |==|  0.68680
USER: genes 6 Torsion [N]-CA--C-[O] |==|  0.07770
USER: genes 7 Torsion [C]-CA--CB-[CG] |==|  0.41561
USER: genes 8 Torsion [CA]-CB--CG-[CD2] |==|  0.79542
USER: genes 9 Torsion [C]-CA--N-[C] |==|  0.81610
USER: genes 10 Torsion [N]-C--CA-[N] |==|  0.02222
USER: genes 11 Torsion [C]-CA--N-[C] |==|  0.18479
USER: genes 12 Torsion [N]-C--CA-[N] |==|  0.55603
USER: genes 13 Torsion [C]-CA--CB-[CG] |==|  0.76044
USER: genes 14 Torsion [CA]-CB--CG-[OD2] |==|  0.77252
USER: genes 15 Torsion [C]-CA--CB-[CG] |==|  0.55040
USER: genes 16 Torsion [CA]-CB--CG-[CD] |==|  0.38056
USER: genes 17 Torsion [CB]-CG--CD-[OE2] |==|  0.45535
ROOT
ATOM      1  CA  TRP G 500      -9.706 -43.049  18.951  1.00 57.70 LIG 0.18  C 
ENDROOT
BRANCH 1 2
ATOM      2  C   TRP G 500      -9.734 -44.094  20.063  1.00 58.91 LIG 0.24  C 
ATOM      3 O    TRP G 500      -9.618 -45.288  19.790  1.00 59.13 LIG-0.27  OA
ATOM      4  N   ASP G 501      -9.880 -43.653  21.309  1.00 60.05 LIG-0.35  N 
ATOM      5 H    ASP G 501      -9.967 -42.825  21.525  1.00 60.05 LIG 0.16  HD
BRANCH 4 6
ATOM      6  CA  ASP G 501      -9.901 -44.586  22.432  1.00 61.20 LIG 0.17  C 
BRANCH 6 7
ATOM      7  CB  ASP G 501      -8.859 -44.191  23.481  1.00 62.64 LIG 0.15  C 
BRANCH 7 8
ATOM      8  CG  ASP G 501      -7.558 -43.713  22.858  1.00 64.46 LIG 0.17  C 
ATOM      9 OD2  ASP G 501      -6.530 -44.410  23.006  1.00 65.00 LIG-0.65  OA
ATOM     10 OD1  ASP G 501      -7.565 -42.644  22.208  1.00 64.87 LIG-0.65  OA
ENDBRANCH 7 8
ENDBRANCH 6 7
BRANCH 6 11
ATOM     11  C   ASP G 501     -11.283 -44.625  23.083  1.00 61.58 LIG 0.22  C 
ATOM     12 O    ASP G 501     -12.269 -44.363  22.358  1.00 60.92 LIG-0.29  OA
ENDBRANCH 6 11
ENDBRANCH 4 6
ENDBRANCH 1 2
BRANCH 1 13
ATOM     13  CB  TRP G 500      -8.306 -42.440  18.843  1.00 52.85 LIG 0.07  C 
BRANCH 13 14
ATOM     14  CG  TRP G 500      -7.964 -42.006  17.449  1.00 47.47 LIG-0.03  A 
ATOM     15  CD2 TRP G 500      -7.640 -42.857  16.343  1.00 44.29 LIG-0.00  A 
ATOM     16  CE3 TRP G 500      -7.525 -44.246  16.184  1.00 42.43 LIG 0.01  A 
ATOM     17  CE2 TRP G 500      -7.400 -42.019  15.226  1.00 43.87 LIG 0.04  A 
ATOM     18  CZ3 TRP G 500      -7.180 -44.752  14.928  1.00 40.94 LIG 0.00  A 
ATOM     19  CH2 TRP G 500      -6.947 -43.891  13.837  1.00 40.39 LIG 0.00  A 
ATOM     20  CZ2 TRP G 500      -7.053 -42.529  13.964  1.00 41.47 LIG 0.03  A 
ATOM     21  NE1 TRP G 500      -7.575 -40.724  15.639  1.00 44.24 LIG-0.36  N 
ATOM     22  CD1 TRP G 500      -7.911 -40.724  16.974  1.00 45.90 LIG 0.10  A 
ATOM     23 HE1  TRP G 500      -7.489 -40.026  15.145  1.00 44.24 LIG 0.17  HD
ENDBRANCH 13 14
ENDBRANCH 1 13
BRANCH 1 24
ATOM     24  N   TRP G 500     -10.699 -41.994  19.089  1.00 59.87 LIG-0.35  N 
ATOM     25  C   GLU G 499     -12.002 -42.245  18.993  1.00 62.14 LIG 0.24  C 
ATOM     26 O    GLU G 499     -12.457 -43.376  18.798  1.00 62.68 LIG-0.27  OA
ATOM     27 H    TRP G 500     -10.370 -41.213  19.234  1.00 59.87 LIG 0.16  HD
BRANCH 25 28
ATOM     28  CA  GLU G 499     -12.929 -41.043  19.146  1.00 62.75 LIG 0.18  C 
BRANCH 28 29
ATOM     29  N   GLU G 499     -12.157 -39.805  19.183  1.00 64.36 LIG-0.35  N 
ATOM     30 H    GLU G 499     -12.182 -39.392  19.937  1.00 64.36 LIG 0.16  HD
ATOM     31  C   ASP G 498     -11.479 -39.379  18.121  1.00 65.69 LIG 0.26  C 
ATOM     32 O    ASP G 498     -11.459 -39.991  17.051  1.00 66.78 LIG-0.27  OA
BRANCH 31 33
ATOM     33  CA  ASP G 498     -10.707 -38.071  18.283  1.00 65.54 LIG 0.41  C 
ATOM     34  N   ASP G 498     -10.428 -37.491  16.938  1.00 65.34 LIG 0.61  N 
BRANCH 33 35
ATOM     35  CB  ASP G 498     -11.529 -37.085  19.120  1.00 65.84 LIG 0.16  C 
BRANCH 35 36
ATOM     36  CG  ASP G 498     -12.503 -36.275  18.282  1.00 65.00 LIG 0.17  C 
ATOM     37 OD2  ASP G 498     -12.066 -35.271  17.679  1.00 65.16 LIG-0.65  OA
ATOM     38 OD1  ASP G 498     -13.698 -36.636  18.226  1.00 63.97 LIG-0.65  OA
ENDBRANCH 35 36
ENDBRANCH 33 35
ENDBRANCH 31 33
ENDBRANCH 28 29
BRANCH 28 39
ATOM     39  CB  GLU G 499     -13.918 -41.010  17.977  1.00 61.39 LIG 0.04  C 
BRANCH 39 40
ATOM     40  CG  GLU G 499     -14.591 -39.663  17.770  1.00 60.98 LIG 0.12  C 
BRANCH 40 41
ATOM     41  CD  GLU G 499     -14.667 -39.267  16.308  1.00 61.07 LIG 0.17  C 
ATOM     42 OE2  GLU G 499     -15.452 -38.352  15.981  1.00 60.51 LIG-0.65  OA
ATOM     43 OE1  GLU G 499     -13.938 -39.862  15.486  1.00 60.30 LIG-0.65  OA
ENDBRANCH 40 41
ENDBRANCH 39 40
ENDBRANCH 28 39
ENDBRANCH 25 28
ENDBRANCH 1 24
TORSDOF 16
ENDMDL
MODEL 30
USER: ADFR SOLUTION from run 32
USER: SCORE 16.714199 LL:  -2.695 LR: -14.924 RR:   0.000 FEB: -10.151
USER: RMSD 7.730696
USER: SEED 31
USER: STATUS no improvement in best in 9 clusters for 5 generations
USER: GENES 18
USER: genes 0 Translation |==|  0.38205 0.49743 0.45013
USER: genes 1 Rotation |==|  0.37174 0.28729 0.11394 0.69814
USER: genes 2 Torsion [N]-CA--C-[N] |==|  0.64795
USER: genes 3 Torsion [C]-N--CA-[CB] |==|  0.80665
USER: genes 4 Torsion [N]-CA--CB-[CG] |==|  0.48542
USER: genes 5 Torsion [CA]-CB--CG-[OD2] |==|  0.57451
USER: genes 6 Torsion [N]-CA--C-[O] |==|  0.20321
USER: genes 7 Torsion [C]-CA--CB-[CG] |==|  0.79536
USER: genes 8 Torsion [CA]-CB--CG-[CD2] |==|  0.56785
USER: genes 9 Torsion [C]-CA--N-[C] |==|  0.67864
USER: genes 10 Torsion [N]-C--CA-[N] |==|  0.89559
USER: genes 11 Torsion [C]-CA--N-[C] |==|  0.75563
USER: genes 12 Torsion [N]-C--CA-[N] |==|  0.16269
USER: genes 13 Torsion [C]-CA--CB-[CG] |==|  0.73412
USER: genes 14 Torsion [CA]-CB--CG-[OD2] |==|  0.12602
USER: genes 15 Torsion [C]-CA--CB-[CG] |==|  0.53809
USER: genes 16 Torsion [CA]-CB--CG-[CD] |==|  0.79040
USER: genes 17 Torsion [CB]-CG--CD-[OE2] |==|  0.44606
ROOT
ATOM      1  CA  TRP G 500     -11.671 -42.334  19.307  1.00 57.70 LIG 0.18  C 
ENDROOT
BRANCH 1 2
ATOM      2  C   TRP G 500     -12.237 -41.191  18.470  1.00 58.91 LIG 0.24  C 
ATOM      3 O    TRP G 500     -11.477 -40.403  17.907  1.00 59.13 LIG-0.27  OA
ATOM      4  N   ASP G 501     -13.560 -41.099  18.380  1.00 60.05 LIG-0.35  N 
ATOM      5 H    ASP G 501     -14.112 -41.633  18.768  1.00 60.05 LIG 0.16  HD
BRANCH 4 6
ATOM      6  CA  ASP G 501     -14.182 -40.043  17.586  1.00 61.20 LIG 0.17  C 
BRANCH 6 7
ATOM      7  CB  ASP G 501     -13.978 -38.679  18.250  1.00 62.64 LIG 0.15  C 
BRANCH 7 8
ATOM      8  CG  ASP G 501     -14.497 -37.533  17.397  1.00 64.46 LIG 0.17  C 
ATOM      9 OD2  ASP G 501     -13.978 -36.403  17.531  1.00 65.00 LIG-0.65  OA
ATOM     10 OD1  ASP G 501     -15.418 -37.765  16.582  1.00 64.87 LIG-0.65  OA
ENDBRANCH 7 8
ENDBRANCH 6 7
BRANCH 6 11
ATOM     11  C   ASP G 501     -13.602 -40.009  16.173  1.00 61.58 LIG 0.22  C 
ATOM     12 O    ASP G 501     -13.937 -40.926  15.390  1.00 60.92 LIG-0.29  OA
ENDBRANCH 6 11
ENDBRANCH 4 6
ENDBRANCH 1 2
BRANCH 1 13
ATOM     13  CB  TRP G 500     -12.813 -43.135  19.938  1.00 52.85 LIG 0.07  C 
BRANCH 13 14
ATOM     14  CG  TRP G 500     -13.477 -42.413  21.072  1.00 47.47 LIG-0.03  A 
ATOM     15  CD2 TRP G 500     -14.201 -43.005  22.157  1.00 44.29 LIG-0.00  A 
ATOM     16  CE3 TRP G 500     -14.526 -44.324  22.505  1.00 42.43 LIG 0.01  A 
ATOM     17  CE2 TRP G 500     -14.640 -41.950  22.993  1.00 43.87 LIG 0.04  A 
ATOM     18  CZ3 TRP G 500     -15.270 -44.549  23.666  1.00 40.94 LIG 0.00  A 
ATOM     19  CH2 TRP G 500     -15.693 -43.476  24.477  1.00 40.39 LIG 0.00  A 
ATOM     20  CZ2 TRP G 500     -15.389 -42.176  24.160  1.00 41.47 LIG 0.03  A 
ATOM     21  NE1 TRP G 500     -14.199 -40.776  22.439  1.00 44.24 LIG-0.36  N 
ATOM     22  CD1 TRP G 500     -13.503 -41.062  21.286  1.00 45.90 LIG 0.10  A 
ATOM     23 HE1  TRP G 500     -14.333 -39.990  22.760  1.00 44.24 LIG 0.17  HD
ENDBRANCH 13 14
ENDBRANCH 1 13
BRANCH 1 24
ATOM     24  N   TRP G 500     -10.726 -41.920  20.335  1.00 59.87 LIG-0.35  N 
ATOM     25  C   GLU G 499      -9.451 -42.295  20.302  1.00 62.14 LIG 0.24  C 
ATOM     26 O    GLU G 499      -8.979 -42.999  19.405  1.00 62.68 LIG-0.27  OA
ATOM     27 H    TRP G 500     -11.065 -41.422  20.949  1.00 59.87 LIG 0.16  HD
BRANCH 25 28
ATOM     28  CA  GLU G 499      -8.577 -41.797  21.450  1.00 62.75 LIG 0.18  C 
BRANCH 28 29
ATOM     29  N   GLU G 499      -8.949 -40.436  21.821  1.00 64.36 LIG-0.35  N 
ATOM     30 H    GLU G 499      -9.536 -40.386  22.447  1.00 64.36 LIG 0.16  HD
ATOM     31  C   ASP G 498      -8.404 -39.381  21.222  1.00 65.69 LIG 0.26  C 
ATOM     32 O    ASP G 498      -7.563 -39.481  20.326  1.00 66.78 LIG-0.27  OA
BRANCH 31 33
ATOM     33  CA  ASP G 498      -8.872 -38.008  21.699  1.00 65.54 LIG 0.41  C 
ATOM     34  N   ASP G 498      -8.594 -37.870  23.158  1.00 65.34 LIG 0.61  N 
BRANCH 33 35
ATOM     35  CB  ASP G 498      -8.138 -36.911  20.920  1.00 65.84 LIG 0.16  C 
BRANCH 35 36
ATOM     36  CG  ASP G 498      -6.918 -36.386  21.656  1.00 65.00 LIG 0.17  C 
ATOM     37 OD2  ASP G 498      -6.144 -37.217  22.177  1.00 65.16 LIG-0.65  OA
ATOM     38 OD1  ASP G 498      -6.734 -35.151  21.718  1.00 63.97 LIG-0.65  OA
ENDBRANCH 35 36
ENDBRANCH 33 35
ENDBRANCH 31 33
ENDBRANCH 28 29
BRANCH 28 39
ATOM     39  CB  GLU G 499      -8.734 -42.732  22.652  1.00 61.39 LIG 0.04  C 
BRANCH 39 40
ATOM     40  CG  GLU G 499      -8.180 -42.172  23.952  1.00 60.98 LIG 0.12  C 
BRANCH 40 41
ATOM     41  CD  GLU G 499      -6.665 -42.219  24.010  1.00 61.07 LIG 0.17  C 
ATOM     42 OE2  GLU G 499      -6.079 -41.478  24.826  1.00 60.51 LIG-0.65  OA
ATOM     43 OE1  GLU G 499      -6.059 -43.002  23.247  1.00 60.30 LIG-0.65  OA
ENDBRANCH 40 41
ENDBRANCH 39 40
ENDBRANCH 28 39
ENDBRANCH 25 28
ENDBRANCH 1 24
TORSDOF 16
ENDMDL
MODEL 31
USER: ADFR SOLUTION from run 31
USER: SCORE 17.967431 LL:  -3.394 LR: -14.878 RR:   0.000 FEB: -10.105
USER: RMSD 6.348276
USER: SEED 30
USER: STATUS no improvement in best in 5 clusters for 5 generations
USER: GENES 18
USER: genes 0 Translation |==|  0.52356 0.59143 0.43553
USER: genes 1 Rotation |==|  0.68642 0.33086 0.23765 0.84324
USER: genes 2 Torsion [N]-CA--C-[N] |==|  0.98631
USER: genes 3 Torsion [C]-N--CA-[CB] |==|  0.85351
USER: genes 4 Torsion [N]-CA--CB-[CG] |==|  0.71261
USER: genes 5 Torsion [CA]-CB--CG-[OD2] |==|  0.29428
USER: genes 6 Torsion [N]-CA--C-[O] |==|  0.65955
USER: genes 7 Torsion [C]-CA--CB-[CG] |==|  0.20197
USER: genes 8 Torsion [CA]-CB--CG-[CD2] |==|  0.53054
USER: genes 9 Torsion [C]-CA--N-[C] |==|  0.64801
USER: genes 10 Torsion [N]-C--CA-[N] |==|  0.96738
USER: genes 11 Torsion [C]-CA--N-[C] |==|  0.78275
USER: genes 12 Torsion [N]-C--CA-[N] |==|  0.55260
USER: genes 13 Torsion [C]-CA--CB-[CG] |==|  0.80446
USER: genes 14 Torsion [CA]-CB--CG-[OD2] |==|  0.82854
USER: genes 15 Torsion [C]-CA--CB-[CG] |==|  0.85912
USER: genes 16 Torsion [CA]-CB--CG-[CD] |==|  0.48587
USER: genes 17 Torsion [CB]-CG--CD-[OE2] |==|  0.52605
ROOT
ATOM      1  CA  TRP G 500      -9.442 -40.219  19.012  1.00 57.70 LIG 0.18  C 
ENDROOT
BRANCH 1 2
ATOM      2  C   TRP G 500     -10.629 -39.781  18.158  1.00 58.91 LIG 0.24  C 
ATOM      3 O    TRP G 500     -10.497 -39.645  16.942  1.00 59.13 LIG-0.27  OA
ATOM      4  N   ASP G 501     -11.782 -39.566  18.784  1.00 60.05 LIG-0.35  N 
ATOM      5 H    ASP G 501     -11.899 -39.650  19.632  1.00 60.05 LIG 0.16  HD
BRANCH 4 6
ATOM      6  CA  ASP G 501     -12.970 -39.160  18.038  1.00 61.20 LIG 0.17  C 
BRANCH 6 7
ATOM      7  CB  ASP G 501     -12.669 -37.934  17.172  1.00 62.64 LIG 0.15  C 
BRANCH 7 8
ATOM      8  CG  ASP G 501     -13.230 -36.651  17.764  1.00 64.46 LIG 0.17  C 
ATOM      9 OD2  ASP G 501     -12.438 -35.838  18.291  1.00 65.00 LIG-0.65  OA
ATOM     10 OD1  ASP G 501     -14.462 -36.449  17.692  1.00 64.87 LIG-0.65  OA
ENDBRANCH 7 8
ENDBRANCH 6 7
BRANCH 6 11
ATOM     11  C   ASP G 501     -13.472 -40.297  17.148  1.00 61.58 LIG 0.22  C 
ATOM     12 O    ASP G 501     -13.563 -40.071  15.921  1.00 60.92 LIG-0.29  OA
ENDBRANCH 6 11
ENDBRANCH 4 6
ENDBRANCH 1 2
BRANCH 1 13
ATOM     13  CB  TRP G 500      -8.945 -41.592  18.550  1.00 52.85 LIG 0.07  C 
BRANCH 13 14
ATOM     14  CG  TRP G 500      -8.223 -41.541  17.237  1.00 47.47 LIG-0.03  A 
ATOM     15  CD2 TRP G 500      -7.833 -42.660  16.431  1.00 44.29 LIG-0.00  A 
ATOM     16  CE3 TRP G 500      -7.959 -44.050  16.569  1.00 42.43 LIG 0.01  A 
ATOM     17  CE2 TRP G 500      -7.191 -42.143  15.280  1.00 43.87 LIG 0.04  A 
ATOM     18  CZ3 TRP G 500      -7.447 -44.874  15.563  1.00 40.94 LIG 0.00  A 
ATOM     19  CH2 TRP G 500      -6.814 -44.327  14.429  1.00 40.39 LIG 0.00  A 
ATOM     20  CZ2 TRP G 500      -6.677 -42.971  14.269  1.00 41.47 LIG 0.03  A 
ATOM     21  NE1 TRP G 500      -7.197 -40.776  15.385  1.00 44.24 LIG-0.36  N 
ATOM     22  CD1 TRP G 500      -7.816 -40.423  16.563  1.00 45.90 LIG 0.10  A 
ATOM     23 HE1  TRP G 500      -6.868 -40.228  14.809  1.00 44.24 LIG 0.17  HD
ENDBRANCH 13 14
ENDBRANCH 1 13
BRANCH 1 24
ATOM     24  N   TRP G 500      -9.702 -40.239  20.443  1.00 59.87 LIG-0.35  N 
ATOM     25  C   GLU G 499      -8.919 -39.595  21.304  1.00 62.14 LIG 0.24  C 
ATOM     26 O    GLU G 499      -7.938 -38.932  20.956  1.00 62.68 LIG-0.27  OA
ATOM     27 H    TRP G 500     -10.394 -40.696  20.672  1.00 59.87 LIG 0.16  HD
BRANCH 25 28
ATOM     28  CA  GLU G 499      -9.304 -39.712  22.776  1.00 62.75 LIG 0.18  C 
BRANCH 28 29
ATOM     29  N   GLU G 499     -10.634 -40.297  22.911  1.00 64.36 LIG-0.35  N 
ATOM     30 H    GLU G 499     -10.637 -41.129  23.129  1.00 64.36 LIG 0.16  HD
ATOM     31  C   ASP G 498     -11.732 -39.574  22.708  1.00 65.69 LIG 0.26  C 
ATOM     32 O    ASP G 498     -11.700 -38.382  22.397  1.00 66.78 LIG-0.27  OA
BRANCH 31 33
ATOM     33  CA  ASP G 498     -13.066 -40.297  22.882  1.00 65.54 LIG 0.41  C 
ATOM     34  N   ASP G 498     -14.140 -39.525  22.194  1.00 65.34 LIG 0.61  N 
BRANCH 33 35
ATOM     35  CB  ASP G 498     -12.973 -41.707  22.290  1.00 65.84 LIG 0.16  C 
BRANCH 35 36
ATOM     36  CG  ASP G 498     -12.894 -41.702  20.774  1.00 65.00 LIG 0.17  C 
ATOM     37 OD2  ASP G 498     -13.856 -41.220  20.137  1.00 65.16 LIG-0.65  OA
ATOM     38 OD1  ASP G 498     -11.879 -42.177  20.219  1.00 63.97 LIG-0.65  OA
ENDBRANCH 35 36
ENDBRANCH 33 35
ENDBRANCH 31 33
ENDBRANCH 28 29
BRANCH 28 39
ATOM     39  CB  GLU G 499      -8.272 -40.579  23.505  1.00 61.39 LIG 0.04  C 
BRANCH 39 40
ATOM     40  CG  GLU G 499      -7.990 -41.910  22.828  1.00 60.98 LIG 0.12  C 
BRANCH 40 41
ATOM     41  CD  GLU G 499      -6.878 -42.687  23.507  1.00 61.07 LIG 0.17  C 
ATOM     42 OE2  GLU G 499      -6.436 -43.708  22.942  1.00 60.51 LIG-0.65  OA
ATOM     43 OE1  GLU G 499      -6.438 -42.272  24.601  1.00 60.30 LIG-0.65  OA
ENDBRANCH 40 41
ENDBRANCH 39 40
ENDBRANCH 28 39
ENDBRANCH 25 28
ENDBRANCH 1 24
TORSDOF 16
ENDMDL
MODEL 32
USER: ADFR SOLUTION from run 132
USER: SCORE 18.017164 LL:  -3.845 LR: -14.868 RR:   0.000 FEB: -10.095
USER: RMSD 5.591970
USER: SEED 131
USER: STATUS no improvement in best in 4 clusters for 5 generations
USER: GENES 18
USER: genes 0 Translation |==|  0.54233 0.51297 0.40843
USER: genes 1 Rotation |==|  0.23606 0.52163 0.64189 0.89967
USER: genes 2 Torsion [N]-CA--C-[N] |==|  0.82510
USER: genes 3 Torsion [C]-N--CA-[CB] |==|  0.36455
USER: genes 4 Torsion [N]-CA--CB-[CG] |==|  0.71009
USER: genes 5 Torsion [CA]-CB--CG-[OD2] |==|  0.62186
USER: genes 6 Torsion [N]-CA--C-[O] |==|  0.15237
USER: genes 7 Torsion [C]-CA--CB-[CG] |==|  0.45799
USER: genes 8 Torsion [CA]-CB--CG-[CD2] |==|  0.75622
USER: genes 9 Torsion [C]-CA--N-[C] |==|  0.20244
USER: genes 10 Torsion [N]-C--CA-[N] |==|  0.10639
USER: genes 11 Torsion [C]-CA--N-[C] |==|  0.16045
USER: genes 12 Torsion [N]-C--CA-[N] |==|  0.80124
USER: genes 13 Torsion [C]-CA--CB-[CG] |==|  0.76519
USER: genes 14 Torsion [CA]-CB--CG-[OD2] |==|  0.85564
USER: genes 15 Torsion [C]-CA--CB-[CG] |==|  0.49094
USER: genes 16 Torsion [CA]-CB--CG-[CD] |==|  0.21859
USER: genes 17 Torsion [CB]-CG--CD-[OE2] |==|  0.70486
ROOT
ATOM      1  CA  TRP G 500      -9.146 -41.984  18.463  1.00 57.70 LIG 0.18  C 
ENDROOT
BRANCH 1 2
ATOM      2  C   TRP G 500      -9.285 -42.177  19.970  1.00 58.91 LIG 0.24  C 
ATOM      3 O    TRP G 500      -9.821 -43.192  20.415  1.00 59.13 LIG-0.27  OA
ATOM      4  N   ASP G 501      -8.802 -41.217  20.754  1.00 60.05 LIG-0.35  N 
ATOM      5 H    ASP G 501      -8.428 -40.498  20.467  1.00 60.05 LIG 0.16  HD
BRANCH 4 6
ATOM      6  CA  ASP G 501      -8.881 -41.332  22.207  1.00 61.20 LIG 0.17  C 
BRANCH 6 7
ATOM      7  CB  ASP G 501      -7.524 -41.030  22.846  1.00 62.64 LIG 0.15  C 
BRANCH 7 8
ATOM      8  CG  ASP G 501      -6.811 -42.287  23.320  1.00 64.46 LIG 0.17  C 
ATOM      9 OD2  ASP G 501      -6.258 -42.276  24.442  1.00 65.00 LIG-0.65  OA
ATOM     10 OD1  ASP G 501      -6.813 -43.291  22.574  1.00 64.87 LIG-0.65  OA
ENDBRANCH 7 8
ENDBRANCH 6 7
BRANCH 6 11
ATOM     11  C   ASP G 501      -9.930 -40.375  22.774  1.00 61.58 LIG 0.22  C 
ATOM     12 O    ASP G 501     -11.090 -40.453  22.311  1.00 60.92 LIG-0.29  OA
ENDBRANCH 6 11
ENDBRANCH 4 6
ENDBRANCH 1 2
BRANCH 1 13
ATOM     13  CB  TRP G 500      -7.666 -41.902  18.081  1.00 52.85 LIG 0.07  C 
BRANCH 13 14
ATOM     14  CG  TRP G 500      -7.431 -42.074  16.610  1.00 47.47 LIG-0.03  A 
ATOM     15  CD2 TRP G 500      -7.239 -43.312  15.913  1.00 44.29 LIG-0.00  A 
ATOM     16  CE3 TRP G 500      -7.194 -44.656  16.311  1.00 42.43 LIG 0.01  A 
ATOM     17  CE2 TRP G 500      -7.066 -42.998  14.543  1.00 43.87 LIG 0.04  A 
ATOM     18  CZ3 TRP G 500      -6.980 -45.637  15.340  1.00 40.94 LIG 0.00  A 
ATOM     19  CH2 TRP G 500      -6.811 -45.292  13.984  1.00 40.39 LIG 0.00  A 
ATOM     20  CZ2 TRP G 500      -6.851 -43.985  13.567  1.00 41.47 LIG 0.03  A 
ATOM     21  NE1 TRP G 500      -7.153 -41.636  14.420  1.00 44.24 LIG-0.36  N 
ATOM     22  CD1 TRP G 500      -7.370 -41.088  15.664  1.00 45.90 LIG 0.10  A 
ATOM     23 HE1  TRP G 500      -7.083 -41.195  13.684  1.00 44.24 LIG 0.17  HD
ENDBRANCH 13 14
ENDBRANCH 1 13
BRANCH 1 24
ATOM     24  N   TRP G 500      -9.862 -40.833  17.933  1.00 59.87 LIG-0.35  N 
ATOM     25  C   GLU G 499      -9.440 -39.590  18.144  1.00 62.14 LIG 0.24  C 
ATOM     26 O    GLU G 499      -8.418 -39.326  18.784  1.00 62.68 LIG-0.27  OA
ATOM     27 H    TRP G 500     -10.567 -41.031  17.481  1.00 59.87 LIG 0.16  HD
BRANCH 25 28
ATOM     28  CA  GLU G 499     -10.295 -38.480  17.540  1.00 62.75 LIG 0.18  C 
BRANCH 28 29
ATOM     29  N   GLU G 499     -11.712 -38.809  17.653  1.00 64.36 LIG-0.35  N 
ATOM     30 H    GLU G 499     -12.133 -38.832  16.903  1.00 64.36 LIG 0.16  HD
ATOM     31  C   ASP G 498     -12.276 -39.048  18.833  1.00 65.69 LIG 0.26  C 
ATOM     32 O    ASP G 498     -11.649 -39.008  19.894  1.00 66.78 LIG-0.27  OA
BRANCH 31 33
ATOM     33  CA  ASP G 498     -13.766 -39.384  18.822  1.00 65.54 LIG 0.41  C 
ATOM     34  N   ASP G 498     -14.548 -38.157  18.498  1.00 65.34 LIG 0.61  N 
BRANCH 33 35
ATOM     35  CB  ASP G 498     -14.043 -40.473  17.780  1.00 65.84 LIG 0.16  C 
BRANCH 35 36
ATOM     36  CG  ASP G 498     -14.234 -39.912  16.383  1.00 65.00 LIG 0.17  C 
ATOM     37 OD2  ASP G 498     -15.063 -38.990  16.228  1.00 65.16 LIG-0.65  OA
ATOM     38 OD1  ASP G 498     -13.563 -40.390  15.442  1.00 63.97 LIG-0.65  OA
ENDBRANCH 35 36
ENDBRANCH 33 35
ENDBRANCH 31 33
ENDBRANCH 28 29
BRANCH 28 39
ATOM     39  CB  GLU G 499     -10.002 -37.162  18.262  1.00 61.39 LIG 0.04  C 
BRANCH 39 40
ATOM     40  CG  GLU G 499     -10.742 -35.963  17.691  1.00 60.98 LIG 0.12  C 
BRANCH 40 41
ATOM     41  CD  GLU G 499     -12.189 -35.901  18.141  1.00 61.07 LIG 0.17  C 
ATOM     42 OE2  GLU G 499     -13.080 -36.194  17.317  1.00 60.51 LIG-0.65  OA
ATOM     43 OE1  GLU G 499     -12.438 -35.569  19.320  1.00 60.30 LIG-0.65  OA
ENDBRANCH 40 41
ENDBRANCH 39 40
ENDBRANCH 28 39
ENDBRANCH 25 28
ENDBRANCH 1 24
TORSDOF 16
ENDMDL
MODEL 33
USER: ADFR SOLUTION from run 101
USER: SCORE 16.746891 LL:  -2.655 LR: -14.871 RR:   0.000 FEB: -10.098
USER: RMSD 6.868683
USER: SEED 100
USER: STATUS no improvement in best in 11 clusters for 5 generations
USER: GENES 18
USER: genes 0 Translation |==|  0.59204 0.57830 0.43334
USER: genes 1 Rotation |==|  0.83960 0.39404 0.14872 0.49319
USER: genes 2 Torsion [N]-CA--C-[N] |==|  0.80876
USER: genes 3 Torsion [C]-N--CA-[CB] |==|  0.11560
USER: genes 4 Torsion [N]-CA--CB-[CG] |==|  0.60469
USER: genes 5 Torsion [CA]-CB--CG-[OD2] |==|  0.89434
USER: genes 6 Torsion [N]-CA--C-[O] |==|  0.96225
USER: genes 7 Torsion [C]-CA--CB-[CG] |==|  0.49540
USER: genes 8 Torsion [CA]-CB--CG-[CD2] |==|  0.51954
USER: genes 9 Torsion [C]-CA--N-[C] |==|  0.20396
USER: genes 10 Torsion [N]-C--CA-[N] |==|  0.04988
USER: genes 11 Torsion [C]-CA--N-[C] |==|  0.70455
USER: genes 12 Torsion [N]-C--CA-[N] |==|  0.48556
USER: genes 13 Torsion [C]-CA--CB-[CG] |==|  0.82439
USER: genes 14 Torsion [CA]-CB--CG-[OD2] |==|  0.44767
USER: genes 15 Torsion [C]-CA--CB-[CG] |==|  0.28312
USER: genes 16 Torsion [CA]-CB--CG-[CD] |==|  0.72334
USER: genes 17 Torsion [CB]-CG--CD-[OE2] |==|  0.39152
ROOT
ATOM      1  CA  TRP G 500      -8.363 -40.514  18.967  1.00 57.70 LIG 0.18  C 
ENDROOT
BRANCH 1 2
ATOM      2  C   TRP G 500      -8.430 -39.036  19.340  1.00 58.91 LIG 0.24  C 
ATOM      3 O    TRP G 500      -7.781 -38.611  20.296  1.00 59.13 LIG-0.27  OA
ATOM      4  N   ASP G 501      -9.202 -38.253  18.592  1.00 60.05 LIG-0.35  N 
ATOM      5 H    ASP G 501      -9.669 -38.527  17.923  1.00 60.05 LIG 0.16  HD
BRANCH 4 6
ATOM      6  CA  ASP G 501      -9.310 -36.824  18.873  1.00 61.20 LIG 0.17  C 
BRANCH 6 7
ATOM      7  CB  ASP G 501      -7.939 -36.239  19.218  1.00 62.64 LIG 0.15  C 
BRANCH 7 8
ATOM      8  CG  ASP G 501      -8.014 -35.187  20.314  1.00 64.46 LIG 0.17  C 
ATOM      9 OD2  ASP G 501      -8.987 -34.402  20.325  1.00 65.00 LIG-0.65  OA
ATOM     10 OD1  ASP G 501      -7.103 -35.153  21.172  1.00 64.87 LIG-0.65  OA
ENDBRANCH 7 8
ENDBRANCH 6 7
BRANCH 6 11
ATOM     11  C   ASP G 501      -9.892 -36.075  17.675  1.00 61.58 LIG 0.22  C 
ATOM     12 O    ASP G 501      -9.943 -36.685  16.583  1.00 60.92 LIG-0.29  OA
ENDBRANCH 6 11
ENDBRANCH 4 6
ENDBRANCH 1 2
BRANCH 1 13
ATOM     13  CB  TRP G 500      -7.934 -40.665  17.505  1.00 52.85 LIG 0.07  C 
BRANCH 13 14
ATOM     14  CG  TRP G 500      -7.808 -42.097  17.078  1.00 47.47 LIG-0.03  A 
ATOM     15  CD2 TRP G 500      -7.294 -42.574  15.828  1.00 44.29 LIG-0.00  A 
ATOM     16  CE3 TRP G 500      -6.792 -41.948  14.678  1.00 42.43 LIG 0.01  A 
ATOM     17  CE2 TRP G 500      -7.352 -43.989  15.865  1.00 43.87 LIG 0.04  A 
ATOM     18  CZ3 TRP G 500      -6.366 -42.743  13.612  1.00 40.94 LIG 0.00  A 
ATOM     19  CH2 TRP G 500      -6.438 -44.148  13.680  1.00 40.39 LIG 0.00  A 
ATOM     20  CZ2 TRP G 500      -6.924 -44.788  14.793  1.00 41.47 LIG 0.03  A 
ATOM     21  NE1 TRP G 500      -7.873 -44.347  17.082  1.00 44.24 LIG-0.36  N 
ATOM     22  CD1 TRP G 500      -8.146 -43.206  17.802  1.00 45.90 LIG 0.10  A 
ATOM     23 HE1  TRP G 500      -8.007 -45.153  17.351  1.00 44.24 LIG 0.17  HD
ENDBRANCH 13 14
ENDBRANCH 1 13
BRANCH 1 24
ATOM     24  N   TRP G 500      -9.595 -41.253  19.203  1.00 59.87 LIG-0.35  N 
ATOM     25  C   GLU G 499     -10.661 -41.100  18.423  1.00 62.14 LIG 0.24  C 
ATOM     26 O    GLU G 499     -10.679 -40.342  17.448  1.00 62.68 LIG-0.27  OA
ATOM     27 H    TRP G 500      -9.567 -41.785  19.879  1.00 59.87 LIG 0.16  HD
BRANCH 25 28
ATOM     28  CA  GLU G 499     -11.888 -41.928  18.794  1.00 62.75 LIG 0.18  C 
BRANCH 28 29
ATOM     29  N   GLU G 499     -11.785 -42.404  20.169  1.00 64.36 LIG-0.35  N 
ATOM     30 H    GLU G 499     -11.911 -41.798  20.766  1.00 64.36 LIG 0.16  HD
ATOM     31  C   ASP G 498     -11.516 -43.677  20.443  1.00 65.69 LIG 0.26  C 
ATOM     32 O    ASP G 498     -11.338 -44.527  19.568  1.00 66.78 LIG-0.27  OA
BRANCH 31 33
ATOM     33  CA  ASP G 498     -11.436 -44.055  21.921  1.00 65.54 LIG 0.41  C 
ATOM     34  N   ASP G 498     -11.255 -45.530  22.046  1.00 65.34 LIG 0.61  N 
BRANCH 33 35
ATOM     35  CB  ASP G 498     -10.261 -43.325  22.580  1.00 65.84 LIG 0.16  C 
BRANCH 35 36
ATOM     36  CG  ASP G 498      -8.919 -43.729  21.995  1.00 65.00 LIG 0.17  C 
ATOM     37 OD2  ASP G 498      -7.945 -42.969  22.182  1.00 65.16 LIG-0.65  OA
ATOM     38 OD1  ASP G 498      -8.837 -44.796  21.349  1.00 63.97 LIG-0.65  OA
ENDBRANCH 35 36
ENDBRANCH 33 35
ENDBRANCH 31 33
ENDBRANCH 28 29
BRANCH 28 39
ATOM     39  CB  GLU G 499     -13.148 -41.076  18.625  1.00 61.39 LIG 0.04  C 
BRANCH 39 40
ATOM     40  CG  GLU G 499     -13.930 -41.366  17.355  1.00 60.98 LIG 0.12  C 
BRANCH 40 41
ATOM     41  CD  GLU G 499     -13.652 -40.360  16.254  1.00 61.07 LIG 0.17  C 
ATOM     42 OE2  GLU G 499     -13.564 -40.773  15.080  1.00 60.51 LIG-0.65  OA
ATOM     43 OE1  GLU G 499     -13.529 -39.154  16.560  1.00 60.30 LIG-0.65  OA
ENDBRANCH 40 41
ENDBRANCH 39 40
ENDBRANCH 28 39
ENDBRANCH 25 28
ENDBRANCH 1 24
TORSDOF 16
ENDMDL
MODEL 34
USER: ADFR SOLUTION from run 53
USER: SCORE 17.707329 LL:  -3.329 LR: -14.844 RR:   0.000 FEB: -10.071
USER: RMSD 5.486967
USER: SEED 52
USER: STATUS no improvement in best in 5 clusters for 5 generations
USER: GENES 18
USER: genes 0 Translation |==|  0.52753 0.52894 0.45404
USER: genes 1 Rotation |==|  0.27687 0.59786 0.67387 0.90051
USER: genes 2 Torsion [N]-CA--C-[N] |==|  0.99370
USER: genes 3 Torsion [C]-N--CA-[CB] |==|  0.22138
USER: genes 4 Torsion [N]-CA--CB-[CG] |==|  0.65512
USER: genes 5 Torsion [CA]-CB--CG-[OD2] |==|  0.76887
USER: genes 6 Torsion [N]-CA--C-[O] |==|  0.94999
USER: genes 7 Torsion [C]-CA--CB-[CG] |==|  0.31025
USER: genes 8 Torsion [CA]-CB--CG-[CD2] |==|  0.40754
USER: genes 9 Torsion [C]-CA--N-[C] |==|  0.63621
USER: genes 10 Torsion [N]-C--CA-[N] |==|  0.08903
USER: genes 11 Torsion [C]-CA--N-[C] |==|  0.14608
USER: genes 12 Torsion [N]-C--CA-[N] |==|  0.82654
USER: genes 13 Torsion [C]-CA--CB-[CG] |==|  0.72207
USER: genes 14 Torsion [CA]-CB--CG-[OD2] |==|  0.61684
USER: genes 15 Torsion [C]-CA--CB-[CG] |==|  0.43127
USER: genes 16 Torsion [CA]-CB--CG-[CD] |==|  0.13759
USER: genes 17 Torsion [CB]-CG--CD-[OE2] |==|  0.21816
ROOT
ATOM      1  CA  TRP G 500      -9.379 -41.625  19.386  1.00 57.70 LIG 0.18  C 
ENDROOT
BRANCH 1 2
ATOM      2  C   TRP G 500      -8.996 -41.903  20.837  1.00 58.91 LIG 0.24  C 
ATOM      3 O    TRP G 500      -8.377 -42.927  21.126  1.00 59.13 LIG-0.27  OA
ATOM      4  N   ASP G 501      -9.353 -41.000  21.745  1.00 60.05 LIG-0.35  N 
ATOM      5 H    ASP G 501      -9.790 -40.280  21.570  1.00 60.05 LIG 0.16  HD
BRANCH 4 6
ATOM      6  CA  ASP G 501      -9.012 -41.184  23.153  1.00 61.20 LIG 0.17  C 
BRANCH 6 7
ATOM      7  CB  ASP G 501      -7.556 -40.787  23.411  1.00 62.64 LIG 0.15  C 
BRANCH 7 8
ATOM      8  CG  ASP G 501      -6.751 -41.908  24.047  1.00 64.46 LIG 0.17  C 
ATOM      9 OD2  ASP G 501      -6.813 -42.062  25.287  1.00 65.00 LIG-0.65  OA
ATOM     10 OD1  ASP G 501      -6.063 -42.645  23.306  1.00 64.87 LIG-0.65  OA
ENDBRANCH 7 8
ENDBRANCH 6 7
BRANCH 6 11
ATOM     11  C   ASP G 501      -9.929 -40.352  24.050  1.00 61.58 LIG 0.22  C 
ATOM     12 O    ASP G 501     -10.561 -39.414  23.515  1.00 60.92 LIG-0.29  OA
ENDBRANCH 6 11
ENDBRANCH 4 6
ENDBRANCH 1 2
BRANCH 1 13
ATOM     13  CB  TRP G 500      -8.124 -41.602  18.510  1.00 52.85 LIG 0.07  C 
BRANCH 13 14
ATOM     14  CG  TRP G 500      -8.056 -42.757  17.556  1.00 47.47 LIG-0.03  A 
ATOM     15  CD2 TRP G 500      -7.489 -42.748  16.240  1.00 44.29 LIG-0.00  A 
ATOM     16  CE3 TRP G 500      -6.874 -41.765  15.452  1.00 42.43 LIG 0.01  A 
ATOM     17  CE2 TRP G 500      -7.634 -44.054  15.713  1.00 43.87 LIG 0.04  A 
ATOM     18  CZ3 TRP G 500      -6.426 -42.111  14.175  1.00 40.94 LIG 0.00  A 
ATOM     19  CH2 TRP G 500      -6.586 -43.420  13.679  1.00 40.39 LIG 0.00  A 
ATOM     20  CZ2 TRP G 500      -7.184 -44.402  14.428  1.00 41.47 LIG 0.03  A 
ATOM     21  NE1 TRP G 500      -8.257 -44.816  16.667  1.00 44.24 LIG-0.36  N 
ATOM     22  CD1 TRP G 500      -8.509 -44.030  17.770  1.00 45.90 LIG 0.10  A 
ATOM     23 HE1  TRP G 500      -8.458 -45.649  16.590  1.00 44.24 LIG 0.17  HD
ENDBRANCH 13 14
ENDBRANCH 1 13
BRANCH 1 24
ATOM     24  N   TRP G 500     -10.147 -40.405  19.188  1.00 59.87 LIG-0.35  N 
ATOM     25  C   GLU G 499     -11.267 -40.394  18.471  1.00 62.14 LIG 0.24  C 
ATOM     26 O    GLU G 499     -11.738 -41.404  17.941  1.00 62.68 LIG-0.27  OA
ATOM     27 H    TRP G 500      -9.815 -39.709  19.570  1.00 59.87 LIG 0.16  HD
BRANCH 25 28
ATOM     28  CA  GLU G 499     -11.963 -39.042  18.336  1.00 62.75 LIG 0.18  C 
BRANCH 28 29
ATOM     29  N   GLU G 499     -10.983 -37.961  18.337  1.00 64.36 LIG-0.35  N 
ATOM     30 H    GLU G 499     -11.138 -37.340  18.911  1.00 64.36 LIG 0.16  HD
ATOM     31  C   ASP G 498      -9.945 -37.967  17.505  1.00 65.69 LIG 0.26  C 
ATOM     32 O    ASP G 498      -9.746 -38.870  16.690  1.00 66.78 LIG-0.27  OA
BRANCH 31 33
ATOM     33  CA  ASP G 498      -8.986 -36.782  17.602  1.00 65.54 LIG 0.41  C 
ATOM     34  N   ASP G 498      -9.714 -35.526  17.262  1.00 65.34 LIG 0.61  N 
BRANCH 33 35
ATOM     35  CB  ASP G 498      -8.418 -36.691  19.023  1.00 65.84 LIG 0.16  C 
BRANCH 35 36
ATOM     36  CG  ASP G 498      -9.118 -35.641  19.867  1.00 65.00 LIG 0.17  C 
ATOM     37 OD2  ASP G 498      -8.415 -34.912  20.599  1.00 65.16 LIG-0.65  OA
ATOM     38 OD1  ASP G 498     -10.363 -35.546  19.804  1.00 63.97 LIG-0.65  OA
ENDBRANCH 35 36
ENDBRANCH 33 35
ENDBRANCH 31 33
ENDBRANCH 28 29
BRANCH 28 39
ATOM     39  CB  GLU G 499     -12.775 -39.014  17.038  1.00 61.39 LIG 0.04  C 
BRANCH 39 40
ATOM     40  CG  GLU G 499     -13.939 -38.037  17.054  1.00 60.98 LIG 0.12  C 
BRANCH 40 41
ATOM     41  CD  GLU G 499     -13.535 -36.654  17.526  1.00 61.07 LIG 0.17  C 
ATOM     42 OE2  GLU G 499     -12.948 -35.900  16.722  1.00 60.51 LIG-0.65  OA
ATOM     43 OE1  GLU G 499     -13.809 -36.315  18.697  1.00 60.30 LIG-0.65  OA
ENDBRANCH 40 41
ENDBRANCH 39 40
ENDBRANCH 28 39
ENDBRANCH 25 28
ENDBRANCH 1 24
TORSDOF 16
ENDMDL
MODEL 35
USER: ADFR SOLUTION from run 3
USER: SCORE 16.443479 LL:  -2.542 LR: -14.771 RR:   0.000 FEB:  -9.998
USER: RMSD 4.493039
USER: SEED 64177
USER: STATUS no improvement in best in 8 clusters for 5 generations
USER: GENES 18
USER: genes 0 Translation |==|  0.50030 0.48192 0.42458
USER: genes 1 Rotation |==|  0.35485 0.51464 0.53387 0.97704
USER: genes 2 Torsion [N]-CA--C-[N] |==|  0.82763
USER: genes 3 Torsion [C]-N--CA-[CB] |==|  0.34747
USER: genes 4 Torsion [N]-CA--CB-[CG] |==|  0.09209
USER: genes 5 Torsion [CA]-CB--CG-[OD2] |==|  0.05577
USER: genes 6 Torsion [N]-CA--C-[O] |==|  0.03005
USER: genes 7 Torsion [C]-CA--CB-[CG] |==|  0.48781
USER: genes 8 Torsion [CA]-CB--CG-[CD2] |==|  0.67716
USER: genes 9 Torsion [C]-CA--N-[C] |==|  0.19495
USER: genes 10 Torsion [N]-C--CA-[N] |==|  0.19822
USER: genes 11 Torsion [C]-CA--N-[C] |==|  0.77108
USER: genes 12 Torsion [N]-C--CA-[N] |==|  0.04277
USER: genes 13 Torsion [C]-CA--CB-[CG] |==|  0.85144
USER: genes 14 Torsion [CA]-CB--CG-[OD2] |==|  0.86373
USER: genes 15 Torsion [C]-CA--CB-[CG] |==|  0.45811
USER: genes 16 Torsion [CA]-CB--CG-[CD] |==|  0.48006
USER: genes 17 Torsion [CB]-CG--CD-[OE2] |==|  0.58448
ROOT
ATOM      1  CA  TRP G 500      -9.808 -42.683  18.790  1.00 57.70 LIG 0.18  C 
ENDROOT
BRANCH 1 2
ATOM      2  C   TRP G 500     -10.363 -43.477  19.968  1.00 58.91 LIG 0.24  C 
ATOM      3 O    TRP G 500     -11.320 -44.234  19.807  1.00 59.13 LIG-0.27  OA
ATOM      4  N   ASP G 501      -9.767 -43.315  21.146  1.00 60.05 LIG-0.35  N 
ATOM      5 H    ASP G 501      -9.101 -42.790  21.286  1.00 60.05 LIG 0.16  HD
BRANCH 4 6
ATOM      6  CA  ASP G 501     -10.227 -44.049  22.322  1.00 61.20 LIG 0.17  C 
BRANCH 6 7
ATOM      7  CB  ASP G 501      -9.074 -44.830  22.955  1.00 62.64 LIG 0.15  C 
BRANCH 7 8
ATOM      8  CG  ASP G 501      -7.739 -44.116  22.811  1.00 64.46 LIG 0.17  C 
ATOM      9 OD2  ASP G 501      -7.739 -42.887  22.579  1.00 65.00 LIG-0.65  OA
ATOM     10 OD1  ASP G 501      -6.688 -44.783  22.942  1.00 64.87 LIG-0.65  OA
ENDBRANCH 7 8
ENDBRANCH 6 7
BRANCH 6 11
ATOM     11  C   ASP G 501     -10.825 -43.099  23.359  1.00 61.58 LIG 0.22  C 
ATOM     12 O    ASP G 501     -11.033 -41.917  23.006  1.00 60.92 LIG-0.29  OA
ENDBRANCH 6 11
ENDBRANCH 4 6
ENDBRANCH 1 2
BRANCH 1 13
ATOM     13  CB  TRP G 500      -8.361 -43.100  18.514  1.00 52.85 LIG 0.07  C 
BRANCH 13 14
ATOM     14  CG  TRP G 500      -7.782 -42.436  17.301  1.00 47.47 LIG-0.03  A 
ATOM     15  CD2 TRP G 500      -7.349 -43.081  16.097  1.00 44.29 LIG-0.00  A 
ATOM     16  CE3 TRP G 500      -7.303 -44.416  15.670  1.00 42.43 LIG 0.01  A 
ATOM     17  CE2 TRP G 500      -6.887 -42.067  15.222  1.00 43.87 LIG 0.04  A 
ATOM     18  CZ3 TRP G 500      -6.803 -44.697  14.396  1.00 40.94 LIG 0.00  A 
ATOM     19  CH2 TRP G 500      -6.350 -43.665  13.550  1.00 40.39 LIG 0.00  A 
ATOM     20  CZ2 TRP G 500      -6.385 -42.350  13.942  1.00 41.47 LIG 0.03  A 
ATOM     21  NE1 TRP G 500      -7.038 -40.867  15.868  1.00 44.24 LIG-0.36  N 
ATOM     22  CD1 TRP G 500      -7.573 -41.097  17.115  1.00 45.90 LIG 0.10  A 
ATOM     23 HE1  TRP G 500      -6.832 -40.097  15.546  1.00 44.24 LIG 0.17  HD
ENDBRANCH 13 14
ENDBRANCH 1 13
BRANCH 1 24
ATOM     24  N   TRP G 500      -9.890 -41.238  18.943  1.00 59.87 LIG-0.35  N 
ATOM     25  C   GLU G 499      -9.130 -40.585  19.817  1.00 62.14 LIG 0.24  C 
ATOM     26 O    GLU G 499      -8.304 -41.146  20.542  1.00 62.68 LIG-0.27  OA
ATOM     27 H    TRP G 500     -10.462 -40.857  18.425  1.00 59.87 LIG 0.16  HD
BRANCH 25 28
ATOM     28  CA  GLU G 499      -9.329 -39.073  19.880  1.00 62.75 LIG 0.18  C 
BRANCH 28 29
ATOM     29  N   GLU G 499     -10.611 -38.753  20.498  1.00 64.36 LIG-0.35  N 
ATOM     30 H    GLU G 499     -10.565 -38.558  21.334  1.00 64.36 LIG 0.16  HD
ATOM     31  C   ASP G 498     -11.742 -38.770  19.798  1.00 65.69 LIG 0.26  C 
ATOM     32 O    ASP G 498     -11.781 -39.053  18.599  1.00 66.78 LIG-0.27  OA
BRANCH 31 33
ATOM     33  CA  ASP G 498     -13.020 -38.413  20.555  1.00 65.54 LIG 0.41  C 
ATOM     34  N   ASP G 498     -12.663 -37.761  21.848  1.00 65.34 LIG 0.61  N 
BRANCH 33 35
ATOM     35  CB  ASP G 498     -13.876 -37.466  19.708  1.00 65.84 LIG 0.16  C 
BRANCH 35 36
ATOM     36  CG  ASP G 498     -13.110 -36.241  19.242  1.00 65.00 LIG 0.17  C 
ATOM     37 OD2  ASP G 498     -12.454 -35.601  20.092  1.00 65.16 LIG-0.65  OA
ATOM     38 OD1  ASP G 498     -13.163 -35.917  18.036  1.00 63.97 LIG-0.65  OA
ENDBRANCH 35 36
ENDBRANCH 33 35
ENDBRANCH 31 33
ENDBRANCH 28 29
BRANCH 28 39
ATOM     39  CB  GLU G 499      -8.187 -38.441  20.681  1.00 61.39 LIG 0.04  C 
BRANCH 39 40
ATOM     40  CG  GLU G 499      -8.069 -36.935  20.514  1.00 60.98 LIG 0.12  C 
BRANCH 40 41
ATOM     41  CD  GLU G 499      -7.045 -36.322  21.450  1.00 61.07 LIG 0.17  C 
ATOM     42 OE2  GLU G 499      -7.227 -35.151  21.843  1.00 60.51 LIG-0.65  OA
ATOM     43 OE1  GLU G 499      -6.063 -37.011  21.799  1.00 60.30 LIG-0.65  OA
ENDBRANCH 40 41
ENDBRANCH 39 40
ENDBRANCH 28 39
ENDBRANCH 25 28
ENDBRANCH 1 24
TORSDOF 16
ENDMDL
MODEL 36
USER: ADFR SOLUTION from run 16
USER: SCORE 16.798748 LL:  -3.202 LR: -14.755 RR:   0.000 FEB:  -9.982
USER: RMSD 5.630673
USER: SEED 601192
USER: STATUS no improvement in best in 4 clusters for 5 generations
USER: GENES 18
USER: genes 0 Translation |==|  0.46558 0.57621 0.41823
USER: genes 1 Rotation |==|  0.47078 0.31023 0.26902 0.89973
USER: genes 2 Torsion [N]-CA--C-[N] |==|  0.07545
USER: genes 3 Torsion [C]-N--CA-[CB] |==|  0.45093
USER: genes 4 Torsion [N]-CA--CB-[CG] |==|  0.15601
USER: genes 5 Torsion [CA]-CB--CG-[OD2] |==|  0.68011
USER: genes 6 Torsion [N]-CA--C-[O] |==|  0.16598
USER: genes 7 Torsion [C]-CA--CB-[CG] |==|  0.30616
USER: genes 8 Torsion [CA]-CB--CG-[CD2] |==|  0.02829
USER: genes 9 Torsion [C]-CA--N-[C] |==|  0.53652
USER: genes 10 Torsion [N]-C--CA-[N] |==|  0.32119
USER: genes 11 Torsion [C]-CA--N-[C] |==|  0.78428
USER: genes 12 Torsion [N]-C--CA-[N] |==|  0.52708
USER: genes 13 Torsion [C]-CA--CB-[CG] |==|  0.72407
USER: genes 14 Torsion [CA]-CB--CG-[OD2] |==|  0.79313
USER: genes 15 Torsion [C]-CA--CB-[CG] |==|  0.44296
USER: genes 16 Torsion [CA]-CB--CG-[CD] |==|  0.24038
USER: genes 17 Torsion [CB]-CG--CD-[OE2] |==|  0.47762
ROOT
ATOM      1  CA  TRP G 500     -10.355 -40.561  18.661  1.00 57.70 LIG 0.18  C 
ENDROOT
BRANCH 1 2
ATOM      2  C   TRP G 500     -11.815 -40.498  18.223  1.00 58.91 LIG 0.24  C 
ATOM      3 O    TRP G 500     -12.384 -41.514  17.824  1.00 59.13 LIG-0.27  OA
ATOM      4  N   ASP G 501     -12.423 -39.318  18.298  1.00 60.05 LIG-0.35  N 
ATOM      5 H    ASP G 501     -12.047 -38.593  18.568  1.00 60.05 LIG 0.16  HD
BRANCH 4 6
ATOM      6  CA  ASP G 501     -13.824 -39.175  17.912  1.00 61.20 LIG 0.17  C 
BRANCH 6 7
ATOM      7  CB  ASP G 501     -14.411 -37.882  18.482  1.00 62.64 LIG 0.15  C 
BRANCH 7 8
ATOM      8  CG  ASP G 501     -13.622 -36.651  18.066  1.00 64.46 LIG 0.17  C 
ATOM      9 OD2  ASP G 501     -13.032 -35.991  18.949  1.00 65.00 LIG-0.65  OA
ATOM     10 OD1  ASP G 501     -13.582 -36.350  16.852  1.00 64.87 LIG-0.65  OA
ENDBRANCH 7 8
ENDBRANCH 6 7
BRANCH 6 11
ATOM     11  C   ASP G 501     -13.973 -39.170  16.391  1.00 61.58 LIG 0.22  C 
ATOM     12 O    ASP G 501     -13.574 -40.181  15.770  1.00 60.92 LIG-0.29  OA
ENDBRANCH 6 11
ENDBRANCH 4 6
ENDBRANCH 1 2
BRANCH 1 13
ATOM     13  CB  TRP G 500     -10.027 -41.963  19.182  1.00 52.85 LIG 0.07  C 
BRANCH 13 14
ATOM     14  CG  TRP G 500      -9.109 -42.725  18.272  1.00 47.47 LIG-0.03  A 
ATOM     15  CD2 TRP G 500      -8.396 -42.204  17.145  1.00 44.29 LIG-0.00  A 
ATOM     16  CE3 TRP G 500      -8.315 -40.939  16.543  1.00 42.43 LIG 0.01  A 
ATOM     17  CE2 TRP G 500      -7.648 -43.272  16.593  1.00 43.87 LIG 0.04  A 
ATOM     18  CZ3 TRP G 500      -7.499 -40.780  15.421  1.00 40.94 LIG 0.00  A 
ATOM     19  CH2 TRP G 500      -6.767 -41.863  14.895  1.00 40.39 LIG 0.00  A 
ATOM     20  CZ2 TRP G 500      -6.827 -43.111  15.464  1.00 41.47 LIG 0.03  A 
ATOM     21  NE1 TRP G 500      -7.896 -44.384  17.354  1.00 44.24 LIG-0.36  N 
ATOM     22  CD1 TRP G 500      -8.776 -44.048  18.359  1.00 45.90 LIG 0.10  A 
ATOM     23 HE1  TRP G 500      -7.558 -45.164  17.226  1.00 44.24 LIG 0.17  HD
ENDBRANCH 13 14
ENDBRANCH 1 13
BRANCH 1 24
ATOM     24  N   TRP G 500      -9.977 -39.562  19.649  1.00 59.87 LIG-0.35  N 
ATOM     25  C   GLU G 499      -8.704 -39.316  19.941  1.00 62.14 LIG 0.24  C 
ATOM     26 O    GLU G 499      -7.763 -39.898  19.394  1.00 62.68 LIG-0.27  OA
ATOM     27 H    TRP G 500     -10.642 -39.157  20.017  1.00 59.87 LIG 0.16  HD
BRANCH 25 28
ATOM     28  CA  GLU G 499      -8.454 -38.251  21.005  1.00 62.75 LIG 0.18  C 
BRANCH 28 29
ATOM     29  N   GLU G 499      -7.820 -38.841  22.179  1.00 64.36 LIG-0.35  N 
ATOM     30 H    GLU G 499      -6.975 -38.696  22.239  1.00 64.36 LIG 0.16  HD
ATOM     31  C   ASP G 498      -8.521 -39.542  23.066  1.00 65.69 LIG 0.26  C 
ATOM     32 O    ASP G 498      -9.734 -39.736  22.957  1.00 66.78 LIG-0.27  OA
BRANCH 31 33
ATOM     33  CA  ASP G 498      -7.747 -40.108  24.255  1.00 65.54 LIG 0.41  C 
ATOM     34  N   ASP G 498      -8.621 -41.050  25.011  1.00 65.34 LIG 0.61  N 
BRANCH 33 35
ATOM     35  CB  ASP G 498      -6.495 -40.839  23.757  1.00 65.84 LIG 0.16  C 
BRANCH 35 36
ATOM     36  CG  ASP G 498      -6.683 -42.344  23.691  1.00 65.00 LIG 0.17  C 
ATOM     37 OD2  ASP G 498      -6.685 -42.983  24.765  1.00 65.16 LIG-0.65  OA
ATOM     38 OD1  ASP G 498      -6.825 -42.888  22.575  1.00 63.97 LIG-0.65  OA
ENDBRANCH 35 36
ENDBRANCH 33 35
ENDBRANCH 31 33
ENDBRANCH 28 29
BRANCH 28 39
ATOM     39  CB  GLU G 499      -7.563 -37.149  20.425  1.00 61.39 LIG 0.04  C 
BRANCH 39 40
ATOM     40  CG  GLU G 499      -7.637 -35.829  21.175  1.00 60.98 LIG 0.12  C 
BRANCH 40 41
ATOM     41  CD  GLU G 499      -6.675 -35.766  22.345  1.00 61.07 LIG 0.17  C 
ATOM     42 OE2  GLU G 499      -6.536 -34.679  22.942  1.00 60.51 LIG-0.65  OA
ATOM     43 OE1  GLU G 499      -6.063 -36.805  22.676  1.00 60.30 LIG-0.65  OA
ENDBRANCH 40 41
ENDBRANCH 39 40
ENDBRANCH 28 39
ENDBRANCH 25 28
ENDBRANCH 1 24
TORSDOF 16
ENDMDL
MODEL 37
USER: ADFR SOLUTION from run 60
USER: SCORE 18.403030 LL:  -3.687 LR: -14.748 RR:   0.000 FEB:  -9.976
USER: RMSD 6.452423
USER: SEED 59
USER: STATUS no improvement in best in 5 clusters for 5 generations
USER: GENES 18
USER: genes 0 Translation |==|  0.39343 0.54497 0.44542
USER: genes 1 Rotation |==|  0.47691 0.91047 0.41706 0.77221
USER: genes 2 Torsion [N]-CA--C-[N] |==|  0.94046
USER: genes 3 Torsion [C]-N--CA-[CB] |==|  0.85122
USER: genes 4 Torsion [N]-CA--CB-[CG] |==|  0.62514
USER: genes 5 Torsion [CA]-CB--CG-[OD2] |==|  0.29202
USER: genes 6 Torsion [N]-CA--C-[O] |==|  0.00101
USER: genes 7 Torsion [C]-CA--CB-[CG] |==|  0.48538
USER: genes 8 Torsion [CA]-CB--CG-[CD2] |==|  0.88936
USER: genes 9 Torsion [C]-CA--N-[C] |==|  0.78924
USER: genes 10 Torsion [N]-C--CA-[N] |==|  0.93999
USER: genes 11 Torsion [C]-CA--N-[C] |==|  0.82222
USER: genes 12 Torsion [N]-C--CA-[N] |==|  0.24509
USER: genes 13 Torsion [C]-CA--CB-[CG] |==|  0.57680
USER: genes 14 Torsion [CA]-CB--CG-[OD2] |==|  0.91145
USER: genes 15 Torsion [C]-CA--CB-[CG] |==|  0.90707
USER: genes 16 Torsion [CA]-CB--CG-[CD] |==|  0.39615
USER: genes 17 Torsion [CB]-CG--CD-[OE2] |==|  0.32544
ROOT
ATOM      1  CA  TRP G 500     -11.491 -41.264  19.212  1.00 57.70 LIG 0.18  C 
ENDROOT
BRANCH 1 2
ATOM      2  C   TRP G 500     -10.839 -42.336  20.079  1.00 58.91 LIG 0.24  C 
ATOM      3 O    TRP G 500     -11.456 -42.824  21.026  1.00 59.13 LIG-0.27  OA
ATOM      4  N   ASP G 501      -9.603 -42.709  19.760  1.00 60.05 LIG-0.35  N 
ATOM      5 H    ASP G 501      -9.149 -42.381  19.107  1.00 60.05 LIG 0.16  HD
BRANCH 4 6
ATOM      6  CA  ASP G 501      -8.913 -43.740  20.530  1.00 61.20 LIG 0.17  C 
BRANCH 6 7
ATOM      7  CB  ASP G 501      -8.914 -43.391  22.020  1.00 62.64 LIG 0.15  C 
BRANCH 7 8
ATOM      8  CG  ASP G 501      -7.555 -43.602  22.669  1.00 64.46 LIG 0.17  C 
ATOM      9 OD2  ASP G 501      -6.859 -42.600  22.942  1.00 65.00 LIG-0.65  OA
ATOM     10 OD1  ASP G 501      -7.188 -44.772  22.917  1.00 64.87 LIG-0.65  OA
ENDBRANCH 7 8
ENDBRANCH 6 7
BRANCH 6 11
ATOM     11  C   ASP G 501      -9.573 -45.104  20.331  1.00 61.58 LIG 0.22  C 
ATOM     12 O    ASP G 501     -10.563 -45.159  19.567  1.00 60.92 LIG-0.29  OA
ENDBRANCH 6 11
ENDBRANCH 4 6
ENDBRANCH 1 2
BRANCH 1 13
ATOM     13  CB  TRP G 500     -12.500 -41.908  18.256  1.00 52.85 LIG 0.07  C 
BRANCH 13 14
ATOM     14  CG  TRP G 500     -13.273 -40.902  17.457  1.00 47.47 LIG-0.03  A 
ATOM     15  CD2 TRP G 500     -13.790 -39.651  17.927  1.00 44.29 LIG-0.00  A 
ATOM     16  CE3 TRP G 500     -13.774 -38.995  19.167  1.00 42.43 LIG 0.01  A 
ATOM     17  CE2 TRP G 500     -14.437 -39.028  16.833  1.00 43.87 LIG 0.04  A 
ATOM     18  CZ3 TRP G 500     -14.396 -37.749  19.275  1.00 40.94 LIG 0.00  A 
ATOM     19  CH2 TRP G 500     -15.032 -37.155  18.166  1.00 40.39 LIG 0.00  A 
ATOM     20  CZ2 TRP G 500     -15.063 -37.775  16.942  1.00 41.47 LIG 0.03  A 
ATOM     21  NE1 TRP G 500     -14.313 -39.863  15.753  1.00 44.24 LIG-0.36  N 
ATOM     22  CD1 TRP G 500     -13.615 -40.986  16.136  1.00 45.90 LIG 0.10  A 
ATOM     23 HE1  TRP G 500     -14.620 -39.710  14.964  1.00 44.24 LIG 0.17  HD
ENDBRANCH 13 14
ENDBRANCH 1 13
BRANCH 1 24
ATOM     24  N   TRP G 500     -10.554 -40.438  18.465  1.00 59.87 LIG-0.35  N 
ATOM     25  C   GLU G 499      -9.848 -39.478  19.053  1.00 62.14 LIG 0.24  C 
ATOM     26 O    GLU G 499      -9.924 -39.229  20.260  1.00 62.68 LIG-0.27  OA
ATOM     27 H    TRP G 500     -10.503 -40.628  17.627  1.00 59.87 LIG 0.16  HD
BRANCH 25 28
ATOM     28  CA  GLU G 499      -8.912 -38.683  18.146  1.00 62.75 LIG 0.18  C 
BRANCH 28 29
ATOM     29  N   GLU G 499      -8.601 -39.444  16.941  1.00 64.36 LIG-0.35  N 
ATOM     30 H    GLU G 499      -8.884 -39.088  16.212  1.00 64.36 LIG 0.16  HD
ATOM     31  C   ASP G 498      -7.933 -40.592  17.000  1.00 65.69 LIG 0.26  C 
ATOM     32 O    ASP G 498      -7.539 -41.083  18.060  1.00 66.78 LIG-0.27  OA
BRANCH 31 33
ATOM     33  CA  ASP G 498      -7.665 -41.296  15.671  1.00 65.54 LIG 0.41  C 
ATOM     34  N   ASP G 498      -6.386 -40.792  15.094  1.00 65.34 LIG 0.61  N 
BRANCH 33 35
ATOM     35  CB  ASP G 498      -7.580 -42.810  15.894  1.00 65.84 LIG 0.16  C 
BRANCH 35 36
ATOM     36  CG  ASP G 498      -6.701 -43.504  14.870  1.00 65.00 LIG 0.17  C 
ATOM     37 OD2  ASP G 498      -6.654 -43.026  13.716  1.00 65.16 LIG-0.65  OA
ATOM     38 OD1  ASP G 498      -6.063 -44.524  15.212  1.00 63.97 LIG-0.65  OA
ENDBRANCH 35 36
ENDBRANCH 33 35
ENDBRANCH 31 33
ENDBRANCH 28 29
BRANCH 28 39
ATOM     39  CB  GLU G 499      -9.574 -37.353  17.772  1.00 61.39 LIG 0.04  C 
BRANCH 39 40
ATOM     40  CG  GLU G 499     -11.086 -37.428  17.636  1.00 60.98 LIG 0.12  C 
BRANCH 40 41
ATOM     41  CD  GLU G 499     -11.782 -36.184  18.154  1.00 61.07 LIG 0.17  C 
ATOM     42 OE2  GLU G 499     -12.438 -35.491  17.349  1.00 60.51 LIG-0.65  OA
ATOM     43 OE1  GLU G 499     -11.681 -35.901  19.367  1.00 60.30 LIG-0.65  OA
ENDBRANCH 40 41
ENDBRANCH 39 40
ENDBRANCH 28 39
ENDBRANCH 25 28
ENDBRANCH 1 24
TORSDOF 16
ENDMDL
MODEL 38
USER: ADFR SOLUTION from run 87
USER: SCORE 17.233026 LL:  -3.124 LR: -14.747 RR:   0.000 FEB:  -9.974
USER: RMSD 6.453589
USER: SEED 86
USER: STATUS no improvement in best in 3 clusters for 5 generations
USER: GENES 18
USER: genes 0 Translation |==|  0.53353 0.62648 0.41708
USER: genes 1 Rotation |==|  0.78031 0.51280 0.30918 0.86722
USER: genes 2 Torsion [N]-CA--C-[N] |==|  0.24030
USER: genes 3 Torsion [C]-N--CA-[CB] |==|  0.51246
USER: genes 4 Torsion [N]-CA--CB-[CG] |==|  0.14537
USER: genes 5 Torsion [CA]-CB--CG-[OD2] |==|  0.17485
USER: genes 6 Torsion [N]-CA--C-[O] |==|  0.28919
USER: genes 7 Torsion [C]-CA--CB-[CG] |==|  0.79551
USER: genes 8 Torsion [CA]-CB--CG-[CD2] |==|  0.47091
USER: genes 9 Torsion [C]-CA--N-[C] |==|  0.78331
USER: genes 10 Torsion [N]-C--CA-[N] |==|  0.89828
USER: genes 11 Torsion [C]-CA--N-[C] |==|  0.69229
USER: genes 12 Torsion [N]-C--CA-[N] |==|  0.57627
USER: genes 13 Torsion [C]-CA--CB-[CG] |==|  0.65998
USER: genes 14 Torsion [CA]-CB--CG-[OD2] |==|  0.66039
USER: genes 15 Torsion [C]-CA--CB-[CG] |==|  0.45584
USER: genes 16 Torsion [CA]-CB--CG-[CD] |==|  0.21025
USER: genes 17 Torsion [CB]-CG--CD-[OE2] |==|  0.06831
ROOT
ATOM      1  CA  TRP G 500      -9.285 -39.430  18.638  1.00 57.70 LIG 0.18  C 
ENDROOT
BRANCH 1 2
ATOM      2  C   TRP G 500     -10.740 -39.572  18.201  1.00 58.91 LIG 0.24  C 
ATOM      3 O    TRP G 500     -11.058 -40.444  17.392  1.00 59.13 LIG-0.27  OA
ATOM      4  N   ASP G 501     -11.621 -38.731  18.733  1.00 60.05 LIG-0.35  N 
ATOM      5 H    ASP G 501     -11.423 -38.111  19.296  1.00 60.05 LIG 0.16  HD
BRANCH 4 6
ATOM      6  CA  ASP G 501     -13.035 -38.810  18.379  1.00 61.20 LIG 0.17  C 
BRANCH 6 7
ATOM      7  CB  ASP G 501     -13.819 -37.670  19.034  1.00 62.64 LIG 0.15  C 
BRANCH 7 8
ATOM      8  CG  ASP G 501     -13.208 -36.307  18.754  1.00 64.46 LIG 0.17  C 
ATOM      9 OD2  ASP G 501     -13.158 -35.903  17.570  1.00 65.00 LIG-0.65  OA
ATOM     10 OD1  ASP G 501     -12.787 -35.631  19.719  1.00 64.87 LIG-0.65  OA
ENDBRANCH 7 8
ENDBRANCH 6 7
BRANCH 6 11
ATOM     11  C   ASP G 501     -13.223 -38.747  16.863  1.00 61.58 LIG 0.22  C 
ATOM     12 O    ASP G 501     -13.488 -39.816  16.271  1.00 60.92 LIG-0.29  OA
ENDBRANCH 6 11
ENDBRANCH 4 6
ENDBRANCH 1 2
BRANCH 1 13
ATOM     13  CB  TRP G 500      -8.354 -39.845  17.495  1.00 52.85 LIG 0.07  C 
BRANCH 13 14
ATOM     14  CG  TRP G 500      -8.318 -41.328  17.278  1.00 47.47 LIG-0.03  A 
ATOM     15  CD2 TRP G 500      -7.722 -42.017  16.173  1.00 44.29 LIG-0.00  A 
ATOM     16  CE3 TRP G 500      -7.043 -41.601  15.018  1.00 42.43 LIG 0.01  A 
ATOM     17  CE2 TRP G 500      -7.916 -43.403  16.390  1.00 43.87 LIG 0.04  A 
ATOM     18  CZ3 TRP G 500      -6.583 -42.571  14.124  1.00 40.94 LIG 0.00  A 
ATOM     19  CH2 TRP G 500      -6.794 -43.943  14.368  1.00 40.39 LIG 0.00  A 
ATOM     20  CZ2 TRP G 500      -7.454 -44.377  15.490  1.00 41.47 LIG 0.03  A 
ATOM     21  NE1 TRP G 500      -8.596 -43.542  17.572  1.00 44.24 LIG-0.36  N 
ATOM     22  CD1 TRP G 500      -8.835 -42.293  18.098  1.00 45.90 LIG 0.10  A 
ATOM     23 HE1  TRP G 500      -8.833 -44.289  17.927  1.00 44.24 LIG 0.17  HD
ENDBRANCH 13 14
ENDBRANCH 1 13
BRANCH 1 24
ATOM     24  N   TRP G 500      -8.944 -40.162  19.849  1.00 59.87 LIG-0.35  N 
ATOM     25  C   GLU G 499      -9.271 -39.707  21.055  1.00 62.14 LIG 0.24  C 
ATOM     26 O    GLU G 499      -9.890 -38.654  21.232  1.00 62.68 LIG-0.27  OA
ATOM     27 H    TRP G 500      -8.521 -40.899  19.711  1.00 59.87 LIG 0.16  HD
BRANCH 25 28
ATOM     28  CA  GLU G 499      -8.839 -40.571  22.236  1.00 62.75 LIG 0.18  C 
BRANCH 28 29
ATOM     29  N   GLU G 499      -8.949 -41.987  21.900  1.00 64.36 LIG-0.35  N 
ATOM     30 H    GLU G 499      -8.379 -42.260  21.317  1.00 64.36 LIG 0.16  HD
ATOM     31  C   ASP G 498      -9.867 -42.764  22.467  1.00 65.69 LIG 0.26  C 
ATOM     32 O    ASP G 498     -10.674 -42.347  23.301  1.00 66.78 LIG-0.27  OA
BRANCH 31 33
ATOM     33  CA  ASP G 498      -9.882 -44.230  22.036  1.00 65.54 LIG 0.41  C 
ATOM     34  N   ASP G 498     -11.260 -44.778  22.191  1.00 65.34 LIG 0.61  N 
BRANCH 33 35
ATOM     35  CB  ASP G 498      -9.433 -44.344  20.575  1.00 65.84 LIG 0.16  C 
BRANCH 35 36
ATOM     36  CG  ASP G 498     -10.470 -45.018  19.695  1.00 65.00 LIG 0.17  C 
ATOM     37 OD2  ASP G 498     -10.132 -46.047  19.072  1.00 65.16 LIG-0.65  OA
ATOM     38 OD1  ASP G 498     -11.616 -44.522  19.622  1.00 63.97 LIG-0.65  OA
ENDBRANCH 35 36
ENDBRANCH 33 35
ENDBRANCH 31 33
ENDBRANCH 28 29
BRANCH 28 39
ATOM     39  CB  GLU G 499      -7.395 -40.231  22.616  1.00 61.39 LIG 0.04  C 
BRANCH 39 40
ATOM     40  CG  GLU G 499      -6.979 -40.733  23.989  1.00 60.98 LIG 0.12  C 
BRANCH 40 41
ATOM     41  CD  GLU G 499      -6.714 -42.226  24.010  1.00 61.07 LIG 0.17  C 
ATOM     42 OE2  GLU G 499      -6.396 -42.788  22.942  1.00 60.51 LIG-0.65  OA
ATOM     43 OE1  GLU G 499      -6.815 -42.838  25.095  1.00 60.30 LIG-0.65  OA
ENDBRANCH 40 41
ENDBRANCH 39 40
ENDBRANCH 28 39
ENDBRANCH 25 28
ENDBRANCH 1 24
TORSDOF 16
ENDMDL
MODEL 39
USER: ADFR SOLUTION from run 14
USER: SCORE 17.162695 LL:  -3.068 LR: -14.744 RR:   0.000 FEB:  -9.971
USER: RMSD 8.120790
USER: SEED 115708
USER: STATUS no improvement in best in 9 clusters for 5 generations
USER: GENES 18
USER: genes 0 Translation |==|  0.27973 0.56379 0.59751
USER: genes 1 Rotation |==|  0.19148 0.28668 0.22359 0.68141
USER: genes 2 Torsion [N]-CA--C-[N] |==|  0.01075
USER: genes 3 Torsion [C]-N--CA-[CB] |==|  0.34634
USER: genes 4 Torsion [N]-CA--CB-[CG] |==|  0.22733
USER: genes 5 Torsion [CA]-CB--CG-[OD2] |==|  0.19123
USER: genes 6 Torsion [N]-CA--C-[O] |==|  0.28725
USER: genes 7 Torsion [C]-CA--CB-[CG] |==|  0.27703
USER: genes 8 Torsion [CA]-CB--CG-[CD2] |==|  0.07329
USER: genes 9 Torsion [C]-CA--N-[C] |==|  0.74782
USER: genes 10 Torsion [N]-C--CA-[N] |==|  0.80650
USER: genes 11 Torsion [C]-CA--N-[C] |==|  0.60025
USER: genes 12 Torsion [N]-C--CA-[N] |==|  0.87043
USER: genes 13 Torsion [C]-CA--CB-[CG] |==|  0.21267
USER: genes 14 Torsion [CA]-CB--CG-[OD2] |==|  0.89640
USER: genes 15 Torsion [C]-CA--CB-[CG] |==|  0.44434
USER: genes 16 Torsion [CA]-CB--CG-[CD] |==|  0.69379
USER: genes 17 Torsion [CB]-CG--CD-[OE2] |==|  0.18415
ROOT
ATOM      1  CA  TRP G 500     -13.282 -40.841  22.292  1.00 57.70 LIG 0.18  C 
ENDROOT
BRANCH 1 2
ATOM      2  C   TRP G 500     -14.237 -39.997  21.452  1.00 58.91 LIG 0.24  C 
ATOM      3 O    TRP G 500     -15.444 -40.238  21.460  1.00 59.13 LIG-0.27  OA
ATOM      4  N   ASP G 501     -13.708 -39.008  20.737  1.00 60.05 LIG-0.35  N 
ATOM      5 H    ASP G 501     -12.868 -38.822  20.711  1.00 60.05 LIG 0.16  HD
BRANCH 4 6
ATOM      6  CA  ASP G 501     -14.554 -38.144  19.919  1.00 61.20 LIG 0.17  C 
BRANCH 6 7
ATOM      7  CB  ASP G 501     -14.343 -36.675  20.291  1.00 62.64 LIG 0.15  C 
BRANCH 7 8
ATOM      8  CG  ASP G 501     -13.116 -36.075  19.623  1.00 64.46 LIG 0.17  C 
ATOM      9 OD2  ASP G 501     -13.133 -35.901  18.384  1.00 65.00 LIG-0.65  OA
ATOM     10 OD1  ASP G 501     -12.137 -35.766  20.339  1.00 64.87 LIG-0.65  OA
ENDBRANCH 7 8
ENDBRANCH 6 7
BRANCH 6 11
ATOM     11  C   ASP G 501     -14.255 -38.337  18.433  1.00 61.58 LIG 0.22  C 
ATOM     12 O    ASP G 501     -15.069 -39.013  17.764  1.00 60.92 LIG-0.29  OA
ENDBRANCH 6 11
ENDBRANCH 4 6
ENDBRANCH 1 2
BRANCH 1 13
ATOM     13  CB  TRP G 500     -13.784 -40.916  23.736  1.00 52.85 LIG 0.07  C 
BRANCH 13 14
ATOM     14  CG  TRP G 500     -14.510 -42.193  24.038  1.00 47.47 LIG-0.03  A 
ATOM     15  CD2 TRP G 500     -14.328 -43.455  23.385  1.00 44.29 LIG-0.00  A 
ATOM     16  CE3 TRP G 500     -13.509 -43.900  22.337  1.00 42.43 LIG 0.01  A 
ATOM     17  CE2 TRP G 500     -15.210 -44.376  24.001  1.00 43.87 LIG 0.04  A 
ATOM     18  CZ3 TRP G 500     -13.593 -45.237  21.940  1.00 40.94 LIG 0.00  A 
ATOM     19  CH2 TRP G 500     -14.482 -46.128  22.574  1.00 40.39 LIG 0.00  A 
ATOM     20  CZ2 TRP G 500     -15.294 -45.720  23.602  1.00 41.47 LIG 0.03  A 
ATOM     21  NE1 TRP G 500     -15.889 -43.700  24.982  1.00 44.24 LIG-0.36  N 
ATOM     22  CD1 TRP G 500     -15.465 -42.391  24.997  1.00 45.90 LIG 0.10  A 
ATOM     23 HE1  TRP G 500     -16.483 -44.040  25.503  1.00 44.24 LIG 0.17  HD
ENDBRANCH 13 14
ENDBRANCH 1 13
BRANCH 1 24
ATOM     24  N   TRP G 500     -11.898 -40.391  22.268  1.00 59.87 LIG-0.35  N 
ATOM     25  C   GLU G 499     -11.031 -40.851  21.371  1.00 62.14 LIG 0.24  C 
ATOM     26 O    GLU G 499     -11.334 -41.669  20.498  1.00 62.68 LIG-0.27  OA
ATOM     27 H    TRP G 500     -11.702 -39.814  22.875  1.00 59.87 LIG 0.16  HD
BRANCH 25 28
ATOM     28  CA  GLU G 499      -9.610 -40.302  21.471  1.00 62.75 LIG 0.18  C 
BRANCH 28 29
ATOM     29  N   GLU G 499      -9.578 -38.896  21.082  1.00 64.36 LIG-0.35  N 
ATOM     30 H    GLU G 499     -10.271 -38.446  21.318  1.00 64.36 LIG 0.16  HD
ATOM     31  C   ASP G 498      -8.546 -38.384  20.418  1.00 65.69 LIG 0.26  C 
ATOM     32 O    ASP G 498      -7.563 -39.053  20.091  1.00 66.78 LIG-0.27  OA
BRANCH 31 33
ATOM     33  CA  ASP G 498      -8.627 -36.899  20.070  1.00 65.54 LIG 0.41  C 
ATOM     34  N   ASP G 498      -9.971 -36.597  19.500  1.00 65.34 LIG 0.61  N 
BRANCH 33 35
ATOM     35  CB  ASP G 498      -8.390 -36.058  21.329  1.00 65.84 LIG 0.16  C 
BRANCH 35 36
ATOM     36  CG  ASP G 498      -6.926 -35.997  21.726  1.00 65.00 LIG 0.17  C 
ATOM     37 OD2  ASP G 498      -6.232 -37.026  21.572  1.00 65.16 LIG-0.65  OA
ATOM     38 OD1  ASP G 498      -6.469 -34.931  22.192  1.00 63.97 LIG-0.65  OA
ENDBRANCH 35 36
ENDBRANCH 33 35
ENDBRANCH 31 33
ENDBRANCH 28 29
BRANCH 28 39
ATOM     39  CB  GLU G 499      -9.101 -40.462  22.906  1.00 61.39 LIG 0.04  C 
BRANCH 39 40
ATOM     40  CG  GLU G 499      -7.588 -40.411  23.038  1.00 60.98 LIG 0.12  C 
BRANCH 40 41
ATOM     41  CD  GLU G 499      -6.987 -41.756  23.401  1.00 61.07 LIG 0.17  C 
ATOM     42 OE2  GLU G 499      -7.062 -42.684  22.570  1.00 60.51 LIG-0.65  OA
ATOM     43 OE1  GLU G 499      -6.432 -41.885  24.514  1.00 60.30 LIG-0.65  OA
ENDBRANCH 40 41
ENDBRANCH 39 40
ENDBRANCH 28 39
ENDBRANCH 25 28
ENDBRANCH 1 24
TORSDOF 16
ENDMDL
MODEL 40
USER: ADFR SOLUTION from run 108
USER: SCORE 17.031280 LL:  -2.657 LR: -14.733 RR:   0.000 FEB:  -9.960
USER: RMSD 6.569652
USER: SEED 107
USER: STATUS no improvement in best in 12 clusters for 5 generations
USER: GENES 18
USER: genes 0 Translation |==|  0.54119 0.55907 0.44462
USER: genes 1 Rotation |==|  0.60309 0.27294 0.15357 0.76039
USER: genes 2 Torsion [N]-CA--C-[N] |==|  0.18089
USER: genes 3 Torsion [C]-N--CA-[CB] |==|  0.16375
USER: genes 4 Torsion [N]-CA--CB-[CG] |==|  0.34459
USER: genes 5 Torsion [CA]-CB--CG-[OD2] |==|  0.25717
USER: genes 6 Torsion [N]-CA--C-[O] |==|  0.97325
USER: genes 7 Torsion [C]-CA--CB-[CG] |==|  0.26778
USER: genes 8 Torsion [CA]-CB--CG-[CD2] |==|  0.89170
USER: genes 9 Torsion [C]-CA--N-[C] |==|  0.77520
USER: genes 10 Torsion [N]-C--CA-[N] |==|  0.96670
USER: genes 11 Torsion [C]-CA--N-[C] |==|  0.73511
USER: genes 12 Torsion [N]-C--CA-[N] |==|  0.80654
USER: genes 13 Torsion [C]-CA--CB-[CG] |==|  0.19522
USER: genes 14 Torsion [CA]-CB--CG-[OD2] |==|  0.29113
USER: genes 15 Torsion [C]-CA--CB-[CG] |==|  0.92042
USER: genes 16 Torsion [CA]-CB--CG-[CD] |==|  0.66989
USER: genes 17 Torsion [CB]-CG--CD-[OE2] |==|  0.40847
ROOT
ATOM      1  CA  TRP G 500      -9.164 -40.947  19.196  1.00 57.70 LIG 0.18  C 
ENDROOT
BRANCH 1 2
ATOM      2  C   TRP G 500      -9.936 -39.992  18.290  1.00 58.91 LIG 0.24  C 
ATOM      3 O    TRP G 500     -10.871 -40.410  17.607  1.00 59.13 LIG-0.27  OA
ATOM      4  N   ASP G 501      -9.557 -38.718  18.284  1.00 60.05 LIG-0.35  N 
ATOM      5 H    ASP G 501      -8.904 -38.402  18.747  1.00 60.05 LIG 0.16  HD
BRANCH 4 6
ATOM      6  CA  ASP G 501     -10.252 -37.737  17.456  1.00 61.20 LIG 0.17  C 
BRANCH 6 7
ATOM      7  CB  ASP G 501     -11.734 -37.669  17.831  1.00 62.64 LIG 0.15  C 
BRANCH 7 8
ATOM      8  CG  ASP G 501     -12.177 -36.264  18.208  1.00 64.46 LIG 0.17  C 
ATOM      9 OD2  ASP G 501     -12.653 -35.526  17.317  1.00 65.00 LIG-0.65  OA
ATOM     10 OD1  ASP G 501     -12.059 -35.901  19.399  1.00 64.87 LIG-0.65  OA
ENDBRANCH 7 8
ENDBRANCH 6 7
BRANCH 6 11
ATOM     11  C   ASP G 501      -9.628 -36.350  17.612  1.00 61.58 LIG 0.22  C 
ATOM     12 O    ASP G 501      -8.779 -36.199  18.518  1.00 60.92 LIG-0.29  OA
ENDBRANCH 6 11
ENDBRANCH 4 6
ENDBRANCH 1 2
BRANCH 1 13
ATOM     13  CB  TRP G 500      -9.574 -42.392  18.900  1.00 52.85 LIG 0.07  C 
BRANCH 13 14
ATOM     14  CG  TRP G 500      -8.638 -43.084  17.954  1.00 47.47 LIG-0.03  A 
ATOM     15  CD2 TRP G 500      -8.006 -42.510  16.803  1.00 44.29 LIG-0.00  A 
ATOM     16  CE3 TRP G 500      -8.040 -41.241  16.205  1.00 42.43 LIG 0.01  A 
ATOM     17  CE2 TRP G 500      -7.204 -43.519  16.219  1.00 43.87 LIG 0.04  A 
ATOM     18  CZ3 TRP G 500      -7.279 -41.021  15.054  1.00 40.94 LIG 0.00  A 
ATOM     19  CH2 TRP G 500      -6.491 -42.048  14.497  1.00 40.39 LIG 0.00  A 
ATOM     20  CZ2 TRP G 500      -6.439 -43.298  15.062  1.00 41.47 LIG 0.03  A 
ATOM     21  NE1 TRP G 500      -7.343 -44.648  16.984  1.00 44.24 LIG-0.36  N 
ATOM     22  CD1 TRP G 500      -8.206 -44.379  18.022  1.00 45.90 LIG 0.10  A 
ATOM     23 HE1  TRP G 500      -6.953 -45.402  16.839  1.00 44.24 LIG 0.17  HD
ENDBRANCH 13 14
ENDBRANCH 1 13
BRANCH 1 24
ATOM     24  N   TRP G 500      -9.300 -40.672  20.618  1.00 59.87 LIG-0.35  N 
ATOM     25  C   GLU G 499      -8.582 -39.727  21.218  1.00 62.14 LIG 0.24  C 
ATOM     26 O    GLU G 499      -7.771 -39.015  20.619  1.00 62.68 LIG-0.27  OA
ATOM     27 H    TRP G 500      -9.875 -41.168  21.023  1.00 59.87 LIG 0.16  HD
BRANCH 25 28
ATOM     28  CA  GLU G 499      -8.818 -39.555  22.716  1.00 62.75 LIG 0.18  C 
BRANCH 28 29
ATOM     29  N   GLU G 499     -10.006 -40.293  23.133  1.00 64.36 LIG-0.35  N 
ATOM     30 H    GLU G 499      -9.866 -41.123  23.307  1.00 64.36 LIG 0.16  HD
ATOM     31  C   ASP G 498     -11.193 -39.700  23.226  1.00 65.69 LIG 0.26  C 
ATOM     32 O    ASP G 498     -11.366 -38.507  22.970  1.00 66.78 LIG-0.27  OA
BRANCH 31 33
ATOM     33  CA  ASP G 498     -12.360 -40.576  23.676  1.00 65.54 LIG 0.41  C 
ATOM     34  N   ASP G 498     -12.690 -41.553  22.598  1.00 65.34 LIG 0.61  N 
BRANCH 33 35
ATOM     35  CB  ASP G 498     -11.983 -41.321  24.961  1.00 65.84 LIG 0.16  C 
BRANCH 35 36
ATOM     36  CG  ASP G 498     -11.887 -40.401  26.165  1.00 65.00 LIG 0.17  C 
ATOM     37 OD2  ASP G 498     -12.815 -40.429  27.001  1.00 65.16 LIG-0.65  OA
ATOM     38 OD1  ASP G 498     -10.893 -39.651  26.275  1.00 63.97 LIG-0.65  OA
ENDBRANCH 35 36
ENDBRANCH 33 35
ENDBRANCH 31 33
ENDBRANCH 28 29
BRANCH 28 39
ATOM     39  CB  GLU G 499      -7.592 -40.054  23.485  1.00 61.39 LIG 0.04  C 
BRANCH 39 40
ATOM     40  CG  GLU G 499      -6.816 -41.151  22.775  1.00 60.98 LIG 0.12  C 
BRANCH 40 41
ATOM     41  CD  GLU G 499      -6.772 -42.443  23.568  1.00 61.07 LIG 0.17  C 
ATOM     42 OE2  GLU G 499      -6.758 -43.524  22.942  1.00 60.51 LIG-0.65  OA
ATOM     43 OE1  GLU G 499      -6.742 -42.381  24.815  1.00 60.30 LIG-0.65  OA
ENDBRANCH 40 41
ENDBRANCH 39 40
ENDBRANCH 28 39
ENDBRANCH 25 28
ENDBRANCH 1 24
TORSDOF 16
ENDMDL
MODEL 41
USER: ADFR SOLUTION from run 156
USER: SCORE 17.432776 LL:  -2.896 LR: -14.706 RR:   0.000 FEB:  -9.934
USER: RMSD 5.442845
USER: SEED 155
USER: STATUS no improvement in best in 7 clusters for 5 generations
USER: GENES 18
USER: genes 0 Translation |==|  0.57729 0.53998 0.33589
USER: genes 1 Rotation |==|  0.35011 0.50808 0.66418 0.94779
USER: genes 2 Torsion [N]-CA--C-[N] |==|  0.08133
USER: genes 3 Torsion [C]-N--CA-[CB] |==|  0.28521
USER: genes 4 Torsion [N]-CA--CB-[CG] |==|  0.68845
USER: genes 5 Torsion [CA]-CB--CG-[OD2] |==|  0.39099
USER: genes 6 Torsion [N]-CA--C-[O] |==|  0.18041
USER: genes 7 Torsion [C]-CA--CB-[CG] |==|  0.27184
USER: genes 8 Torsion [CA]-CB--CG-[CD2] |==|  0.90154
USER: genes 9 Torsion [C]-CA--N-[C] |==|  0.16401
USER: genes 10 Torsion [N]-C--CA-[N] |==|  0.13263
USER: genes 11 Torsion [C]-CA--N-[C] |==|  0.15233
USER: genes 12 Torsion [N]-C--CA-[N] |==|  0.88467
USER: genes 13 Torsion [C]-CA--CB-[CG] |==|  0.71442
USER: genes 14 Torsion [CA]-CB--CG-[OD2] |==|  0.36862
USER: genes 15 Torsion [C]-CA--CB-[CG] |==|  0.20530
USER: genes 16 Torsion [CA]-CB--CG-[CD] |==|  0.43588
USER: genes 17 Torsion [CB]-CG--CD-[OE2] |==|  0.86300
ROOT
ATOM      1  CA  TRP G 500      -8.596 -41.376  16.994  1.00 57.70 LIG 0.18  C 
ENDROOT
BRANCH 1 2
ATOM      2  C   TRP G 500      -8.543 -42.260  18.236  1.00 58.91 LIG 0.24  C 
ATOM      3 O    TRP G 500      -7.563 -42.977  18.442  1.00 59.13 LIG-0.27  OA
ATOM      4  N   ASP G 501      -9.581 -42.209  19.065  1.00 60.05 LIG-0.35  N 
ATOM      5 H    ASP G 501     -10.279 -41.721  18.942  1.00 60.05 LIG 0.16  HD
BRANCH 4 6
ATOM      6  CA  ASP G 501      -9.602 -43.012  20.285  1.00 61.20 LIG 0.17  C 
BRANCH 6 7
ATOM      7  CB  ASP G 501      -9.284 -42.146  21.505  1.00 62.64 LIG 0.15  C 
BRANCH 7 8
ATOM      8  CG  ASP G 501      -7.946 -42.498  22.136  1.00 64.46 LIG 0.17  C 
ATOM      9 OD2  ASP G 501      -7.222 -41.571  22.562  1.00 65.00 LIG-0.65  OA
ATOM     10 OD1  ASP G 501      -7.623 -43.704  22.217  1.00 64.87 LIG-0.65  OA
ENDBRANCH 7 8
ENDBRANCH 6 7
BRANCH 6 11
ATOM     11  C   ASP G 501     -10.966 -43.676  20.477  1.00 61.58 LIG 0.22  C 
ATOM     12 O    ASP G 501     -11.317 -44.527  19.630  1.00 60.92 LIG-0.29  OA
ENDBRANCH 6 11
ENDBRANCH 4 6
ENDBRANCH 1 2
BRANCH 1 13
ATOM     13  CB  TRP G 500      -7.175 -41.043  16.529  1.00 52.85 LIG 0.07  C 
BRANCH 13 14
ATOM     14  CG  TRP G 500      -6.701 -41.929  15.416  1.00 47.47 LIG-0.03  A 
ATOM     15  CD2 TRP G 500      -7.002 -43.319  15.242  1.00 44.29 LIG-0.00  A 
ATOM     16  CE3 TRP G 500      -7.752 -44.252  15.972  1.00 42.43 LIG 0.01  A 
ATOM     17  CE2 TRP G 500      -6.355 -43.741  14.055  1.00 43.87 LIG 0.04  A 
ATOM     18  CZ3 TRP G 500      -7.834 -45.565  15.501  1.00 40.94 LIG 0.00  A 
ATOM     19  CH2 TRP G 500      -7.178 -45.953  14.316  1.00 40.39 LIG 0.00  A 
ATOM     20  CZ2 TRP G 500      -6.438 -45.061  13.581  1.00 41.47 LIG 0.03  A 
ATOM     21  NE1 TRP G 500      -5.698 -42.656  13.536  1.00 44.24 LIG-0.36  N 
ATOM     22  CD1 TRP G 500      -5.909 -41.573  14.360  1.00 45.90 LIG 0.10  A 
ATOM     23 HE1  TRP G 500      -5.231 -42.652  12.814  1.00 44.24 LIG 0.17  HD
ENDBRANCH 13 14
ENDBRANCH 1 13
BRANCH 1 24
ATOM     24  N   TRP G 500      -9.367 -40.152  17.155  1.00 59.87 LIG-0.35  N 
ATOM     25  C   GLU G 499      -9.056 -39.249  18.079  1.00 62.14 LIG 0.24  C 
ATOM     26 O    GLU G 499      -8.097 -39.373  18.847  1.00 62.68 LIG-0.27  OA
ATOM     27 H    TRP G 500     -10.026 -40.073  16.608  1.00 59.87 LIG 0.16  HD
BRANCH 25 28
ATOM     28  CA  GLU G 499      -9.958 -38.019  18.144  1.00 62.75 LIG 0.18  C 
BRANCH 28 29
ATOM     29  N   GLU G 499     -11.362 -38.415  18.139  1.00 64.36 LIG-0.35  N 
ATOM     30 H    GLU G 499     -11.833 -38.050  17.520  1.00 64.36 LIG 0.16  HD
ATOM     31  C   ASP G 498     -11.842 -39.275  19.033  1.00 65.69 LIG 0.26  C 
ATOM     32 O    ASP G 498     -11.145 -39.786  19.912  1.00 66.78 LIG-0.27  OA
BRANCH 31 33
ATOM     33  CA  ASP G 498     -13.328 -39.615  18.923  1.00 65.54 LIG 0.41  C 
ATOM     34  N   ASP G 498     -14.099 -38.373  18.630  1.00 65.34 LIG 0.61  N 
BRANCH 33 35
ATOM     35  CB  ASP G 498     -13.543 -40.642  17.806  1.00 65.84 LIG 0.16  C 
BRANCH 35 36
ATOM     36  CG  ASP G 498     -14.096 -40.019  16.537  1.00 65.00 LIG 0.17  C 
ATOM     37 OD2  ASP G 498     -13.555 -40.320  15.451  1.00 65.16 LIG-0.65  OA
ATOM     38 OD1  ASP G 498     -15.063 -39.231  16.621  1.00 63.97 LIG-0.65  OA
ENDBRANCH 35 36
ENDBRANCH 33 35
ENDBRANCH 31 33
ENDBRANCH 28 29
BRANCH 28 39
ATOM     39  CB  GLU G 499      -9.642 -37.222  19.413  1.00 61.39 LIG 0.04  C 
BRANCH 39 40
ATOM     40  CG  GLU G 499      -8.333 -36.452  19.353  1.00 60.98 LIG 0.12  C 
BRANCH 40 41
ATOM     41  CD  GLU G 499      -8.300 -35.279  20.315  1.00 61.07 LIG 0.17  C 
ATOM     42 OE2  GLU G 499      -9.266 -34.489  20.320  1.00 60.51 LIG-0.65  OA
ATOM     43 OE1  GLU G 499      -7.314 -35.151  21.072  1.00 60.30 LIG-0.65  OA
ENDBRANCH 40 41
ENDBRANCH 39 40
ENDBRANCH 28 39
ENDBRANCH 25 28
ENDBRANCH 1 24
TORSDOF 16
ENDMDL
MODEL 42
USER: ADFR SOLUTION from run 189
USER: SCORE 17.557924 LL:  -3.056 LR: -14.622 RR:   0.000 FEB:  -9.850
USER: RMSD 8.294668
USER: SEED 188
USER: STATUS no improvement in best in 17 clusters for 5 generations
USER: GENES 18
USER: genes 0 Translation |==|  0.36988 0.50050 0.46627
USER: genes 1 Rotation |==|  0.09099 0.36873 0.24419 0.50608
USER: genes 2 Torsion [N]-CA--C-[N] |==|  0.43128
USER: genes 3 Torsion [C]-N--CA-[CB] |==|  0.84268
USER: genes 4 Torsion [N]-CA--CB-[CG] |==|  0.63719
USER: genes 5 Torsion [CA]-CB--CG-[OD2] |==|  0.45997
USER: genes 6 Torsion [N]-CA--C-[O] |==|  0.48942
USER: genes 7 Torsion [C]-CA--CB-[CG] |==|  0.24653
USER: genes 8 Torsion [CA]-CB--CG-[CD2] |==|  0.18184
USER: genes 9 Torsion [C]-CA--N-[C] |==|  0.64355
USER: genes 10 Torsion [N]-C--CA-[N] |==|  0.35809
USER: genes 11 Torsion [C]-CA--N-[C] |==|  0.83012
USER: genes 12 Torsion [N]-C--CA-[N] |==|  0.10944
USER: genes 13 Torsion [C]-CA--CB-[CG] |==|  0.82150
USER: genes 14 Torsion [CA]-CB--CG-[OD2] |==|  0.89984
USER: genes 15 Torsion [C]-CA--CB-[CG] |==|  0.39897
USER: genes 16 Torsion [CA]-CB--CG-[CD] |==|  0.22374
USER: genes 17 Torsion [CB]-CG--CD-[OE2] |==|  0.49806
ROOT
ATOM      1  CA  TRP G 500     -11.862 -42.265  19.634  1.00 57.70 LIG 0.18  C 
ENDROOT
BRANCH 1 2
ATOM      2  C   TRP G 500     -12.219 -41.374  18.447  1.00 58.91 LIG 0.24  C 
ATOM      3 O    TRP G 500     -11.328 -40.901  17.742  1.00 59.13 LIG-0.27  OA
ATOM      4  N   ASP G 501     -13.510 -41.150  18.220  1.00 60.05 LIG-0.35  N 
ATOM      5 H    ASP G 501     -14.150 -41.465  18.700  1.00 60.05 LIG 0.16  HD
BRANCH 4 6
ATOM      6  CA  ASP G 501     -13.935 -40.321  17.096  1.00 61.20 LIG 0.17  C 
BRANCH 6 7
ATOM      7  CB  ASP G 501     -13.294 -38.934  17.175  1.00 62.64 LIG 0.15  C 
BRANCH 7 8
ATOM      8  CG  ASP G 501     -14.307 -37.813  17.008  1.00 64.46 LIG 0.17  C 
ATOM      9 OD2  ASP G 501     -13.971 -36.649  17.321  1.00 65.00 LIG-0.65  OA
ATOM     10 OD1  ASP G 501     -15.438 -38.094  16.552  1.00 64.87 LIG-0.65  OA
ENDBRANCH 7 8
ENDBRANCH 6 7
BRANCH 6 11
ATOM     11  C   ASP G 501     -13.564 -40.974  15.765  1.00 61.58 LIG 0.22  C 
ATOM     12 O    ASP G 501     -13.938 -40.401  14.717  1.00 60.92 LIG-0.29  OA
ENDBRANCH 6 11
ENDBRANCH 4 6
ENDBRANCH 1 2
BRANCH 1 13
ATOM     13  CB  TRP G 500     -11.926 -41.455  20.932  1.00 52.85 LIG 0.07  C 
BRANCH 13 14
ATOM     14  CG  TRP G 500     -13.288 -41.459  21.558  1.00 47.47 LIG-0.03  A 
ATOM     15  CD2 TRP G 500     -13.975 -42.591  22.106  1.00 44.29 LIG-0.00  A 
ATOM     16  CE3 TRP G 500     -13.663 -43.953  22.230  1.00 42.43 LIG 0.01  A 
ATOM     17  CE2 TRP G 500     -15.220 -42.128  22.596  1.00 43.87 LIG 0.04  A 
ATOM     18  CZ3 TRP G 500     -14.593 -44.803  22.833  1.00 40.94 LIG 0.00  A 
ATOM     19  CH2 TRP G 500     -15.824 -44.311  23.310  1.00 40.39 LIG 0.00  A 
ATOM     20  CZ2 TRP G 500     -16.155 -42.983  23.203  1.00 41.47 LIG 0.03  A 
ATOM     21  NE1 TRP G 500     -15.280 -40.780  22.357  1.00 44.24 LIG-0.36  N 
ATOM     22  CD1 TRP G 500     -14.118 -40.386  21.732  1.00 45.90 LIG 0.10  A 
ATOM     23 HE1  TRP G 500     -15.936 -40.264  22.565  1.00 44.24 LIG 0.17  HD
ENDBRANCH 13 14
ENDBRANCH 1 13
BRANCH 1 24
ATOM     24  N   TRP G 500     -10.572 -42.930  19.524  1.00 59.87 LIG-0.35  N 
ATOM     25  C   GLU G 499     -10.447 -44.242  19.695  1.00 62.14 LIG 0.24  C 
ATOM     26 O    GLU G 499     -11.403 -44.984  19.942  1.00 62.68 LIG-0.27  OA
ATOM     27 H    TRP G 500      -9.916 -42.404  19.343  1.00 59.87 LIG 0.16  HD
BRANCH 25 28
ATOM     28  CA  GLU G 499      -9.034 -44.803  19.563  1.00 62.75 LIG 0.18  C 
BRANCH 28 29
ATOM     29  N   GLU G 499      -8.704 -45.630  20.719  1.00 64.36 LIG-0.35  N 
ATOM     30 H    GLU G 499      -8.531 -46.451  20.533  1.00 64.36 LIG 0.16  HD
ATOM     31  C   ASP G 498      -8.680 -45.124  21.949  1.00 65.69 LIG 0.26  C 
ATOM     32 O    ASP G 498      -8.933 -43.941  22.190  1.00 66.78 LIG-0.27  OA
BRANCH 31 33
ATOM     33  CA  ASP G 498      -8.317 -46.087  23.077  1.00 65.54 LIG 0.41  C 
ATOM     34  N   ASP G 498      -7.229 -46.998  22.620  1.00 65.34 LIG 0.61  N 
BRANCH 33 35
ATOM     35  CB  ASP G 498      -7.856 -45.295  24.306  1.00 65.84 LIG 0.16  C 
BRANCH 35 36
ATOM     36  CG  ASP G 498      -6.579 -44.515  24.054  1.00 65.00 LIG 0.17  C 
ATOM     37 OD2  ASP G 498      -5.711 -45.031  23.317  1.00 65.16 LIG-0.65  OA
ATOM     38 OD1  ASP G 498      -6.438 -43.394  24.590  1.00 63.97 LIG-0.65  OA
ENDBRANCH 35 36
ENDBRANCH 33 35
ENDBRANCH 31 33
ENDBRANCH 28 29
BRANCH 28 39
ATOM     39  CB  GLU G 499      -8.932 -45.631  18.279  1.00 61.39 LIG 0.04  C 
BRANCH 39 40
ATOM     40  CG  GLU G 499      -7.592 -45.517  17.571  1.00 60.98 LIG 0.12  C 
BRANCH 40 41
ATOM     41  CD  GLU G 499      -6.526 -46.401  18.190  1.00 61.07 LIG 0.17  C 
ATOM     42 OE2  GLU G 499      -5.386 -46.401  17.682  1.00 60.51 LIG-0.65  OA
ATOM     43 OE1  GLU G 499      -6.824 -47.090  19.189  1.00 60.30 LIG-0.65  OA
ENDBRANCH 40 41
ENDBRANCH 39 40
ENDBRANCH 28 39
ENDBRANCH 25 28
ENDBRANCH 1 24
TORSDOF 16
ENDMDL
MODEL 43
USER: ADFR SOLUTION from run 66
USER: SCORE 16.971740 LL:  -2.732 LR: -14.595 RR:   0.000 FEB:  -9.822
USER: RMSD 7.040033
USER: SEED 65
USER: STATUS no improvement in best in 6 clusters for 5 generations
USER: GENES 18
USER: genes 0 Translation |==|  0.60039 0.57399 0.41384
USER: genes 1 Rotation |==|  0.47379 0.30704 0.15543 0.80554
USER: genes 2 Torsion [N]-CA--C-[N] |==|  0.07923
USER: genes 3 Torsion [C]-N--CA-[CB] |==|  0.22309
USER: genes 4 Torsion [N]-CA--CB-[CG] |==|  0.42483
USER: genes 5 Torsion [CA]-CB--CG-[OD2] |==|  0.67150
USER: genes 6 Torsion [N]-CA--C-[O] |==|  0.02240
USER: genes 7 Torsion [C]-CA--CB-[CG] |==|  0.29071
USER: genes 8 Torsion [CA]-CB--CG-[CD2] |==|  0.94659
USER: genes 9 Torsion [C]-CA--N-[C] |==|  0.15400
USER: genes 10 Torsion [N]-C--CA-[N] |==|  0.36005
USER: genes 11 Torsion [C]-CA--N-[C] |==|  0.67528
USER: genes 12 Torsion [N]-C--CA-[N] |==|  0.96465
USER: genes 13 Torsion [C]-CA--CB-[CG] |==|  0.40570
USER: genes 14 Torsion [CA]-CB--CG-[OD2] |==|  0.57384
USER: genes 15 Torsion [C]-CA--CB-[CG] |==|  0.08559
USER: genes 16 Torsion [CA]-CB--CG-[CD] |==|  0.38325
USER: genes 17 Torsion [CB]-CG--CD-[OE2] |==|  0.58262
ROOT
ATOM      1  CA  TRP G 500      -8.232 -40.611  18.572  1.00 57.70 LIG 0.18  C 
ENDROOT
BRANCH 1 2
ATOM      2  C   TRP G 500      -9.333 -39.751  17.960  1.00 58.91 LIG 0.24  C 
ATOM      3 O    TRP G 500     -10.241 -40.277  17.317  1.00 59.13 LIG-0.27  OA
ATOM      4  N   ASP G 501      -9.263 -38.438  18.160  1.00 60.05 LIG-0.35  N 
ATOM      5 H    ASP G 501      -8.637 -38.046  18.600  1.00 60.05 LIG 0.16  HD
BRANCH 4 6
ATOM      6  CA  ASP G 501     -10.285 -37.546  17.620  1.00 61.20 LIG 0.17  C 
BRANCH 6 7
ATOM      7  CB  ASP G 501     -11.527 -37.547  18.514  1.00 62.64 LIG 0.15  C 
BRANCH 7 8
ATOM      8  CG  ASP G 501     -12.310 -36.246  18.425  1.00 64.46 LIG 0.17  C 
ATOM      9 OD2  ASP G 501     -12.441 -35.553  19.458  1.00 65.00 LIG-0.65  OA
ATOM     10 OD1  ASP G 501     -12.785 -35.911  17.317  1.00 64.87 LIG-0.65  OA
ENDBRANCH 7 8
ENDBRANCH 6 7
BRANCH 6 11
ATOM     11  C   ASP G 501      -9.753 -36.119  17.495  1.00 61.58 LIG 0.22  C 
ATOM     12 O    ASP G 501      -8.532 -35.939  17.704  1.00 60.92 LIG-0.29  OA
ENDBRANCH 6 11
ENDBRANCH 4 6
ENDBRANCH 1 2
BRANCH 1 13
ATOM     13  CB  TRP G 500      -8.763 -42.021  18.847  1.00 52.85 LIG 0.07  C 
BRANCH 13 14
ATOM     14  CG  TRP G 500      -8.272 -43.034  17.856  1.00 47.47 LIG-0.03  A 
ATOM     15  CD2 TRP G 500      -7.733 -42.767  16.556  1.00 44.29 LIG-0.00  A 
ATOM     16  CE3 TRP G 500      -7.506 -41.597  15.816  1.00 42.43 LIG 0.01  A 
ATOM     17  CE2 TRP G 500      -7.391 -44.015  15.980  1.00 43.87 LIG 0.04  A 
ATOM     18  CZ3 TRP G 500      -6.950 -41.706  14.539  1.00 40.94 LIG 0.00  A 
ATOM     19  CH2 TRP G 500      -6.622 -42.963  13.995  1.00 40.39 LIG 0.00  A 
ATOM     20  CZ2 TRP G 500      -6.832 -44.124  14.696  1.00 41.47 LIG 0.03  A 
ATOM     21  NE1 TRP G 500      -7.706 -44.988  16.893  1.00 44.24 LIG-0.36  N 
ATOM     22  CD1 TRP G 500      -8.236 -44.392  18.015  1.00 45.90 LIG 0.10  A 
ATOM     23 HE1  TRP G 500      -7.591 -45.834  16.783  1.00 44.24 LIG 0.17  HD
ENDBRANCH 13 14
ENDBRANCH 1 13
BRANCH 1 24
ATOM     24  N   TRP G 500      -7.636 -40.060  19.780  1.00 59.87 LIG-0.35  N 
ATOM     25  C   GLU G 499      -8.374 -39.732  20.836  1.00 62.14 LIG 0.24  C 
ATOM     26 O    GLU G 499      -9.599 -39.881  20.873  1.00 62.68 LIG-0.27  OA
ATOM     27 H    TRP G 500      -6.781 -39.970  19.745  1.00 59.87 LIG 0.16  HD
BRANCH 25 28
ATOM     28  CA  GLU G 499      -7.619 -39.153  22.029  1.00 62.75 LIG 0.18  C 
BRANCH 28 29
ATOM     29  N   GLU G 499      -8.243 -37.912  22.475  1.00 64.36 LIG-0.35  N 
ATOM     30 H    GLU G 499      -9.048 -38.001  22.763  1.00 64.36 LIG 0.16  HD
ATOM     31  C   ASP G 498      -7.592 -36.753  22.426  1.00 65.69 LIG 0.26  C 
ATOM     32 O    ASP G 498      -6.437 -36.651  22.007  1.00 66.78 LIG-0.27  OA
BRANCH 31 33
ATOM     33  CA  ASP G 498      -8.350 -35.523  22.923  1.00 65.54 LIG 0.41  C 
ATOM     34  N   ASP G 498      -9.794 -35.861  23.078  1.00 65.34 LIG 0.61  N 
BRANCH 33 35
ATOM     35  CB  ASP G 498      -7.771 -35.067  24.267  1.00 65.84 LIG 0.16  C 
BRANCH 35 36
ATOM     36  CG  ASP G 498      -7.813 -33.560  24.442  1.00 65.00 LIG 0.17  C 
ATOM     37 OD2  ASP G 498      -6.967 -33.032  25.195  1.00 65.16 LIG-0.65  OA
ATOM     38 OD1  ASP G 498      -8.688 -32.904  23.835  1.00 63.97 LIG-0.65  OA
ENDBRANCH 35 36
ENDBRANCH 33 35
ENDBRANCH 31 33
ENDBRANCH 28 29
BRANCH 28 39
ATOM     39  CB  GLU G 499      -7.607 -40.175  23.169  1.00 61.39 LIG 0.04  C 
BRANCH 39 40
ATOM     40  CG  GLU G 499      -7.619 -41.623  22.707  1.00 60.98 LIG 0.12  C 
BRANCH 40 41
ATOM     41  CD  GLU G 499      -6.675 -42.500  23.506  1.00 61.07 LIG 0.17  C 
ATOM     42 OE2  GLU G 499      -6.161 -43.488  22.942  1.00 60.51 LIG-0.65  OA
ATOM     43 OE1  GLU G 499      -6.438 -42.198  24.696  1.00 60.30 LIG-0.65  OA
ENDBRANCH 40 41
ENDBRANCH 39 40
ENDBRANCH 28 39
ENDBRANCH 25 28
ENDBRANCH 1 24
TORSDOF 16
ENDMDL
MODEL 44
USER: ADFR SOLUTION from run 92
USER: SCORE 16.882072 LL:  -2.682 LR: -14.577 RR:   0.000 FEB:  -9.804
USER: RMSD 5.690977
USER: SEED 91
USER: STATUS no improvement in best in 4 clusters for 5 generations
USER: GENES 18
USER: genes 0 Translation |==|  0.53742 0.57520 0.48983
USER: genes 1 Rotation |==|  0.25735 0.64204 0.72208 0.84875
USER: genes 2 Torsion [N]-CA--C-[N] |==|  0.35000
USER: genes 3 Torsion [C]-N--CA-[CB] |==|  0.47286
USER: genes 4 Torsion [N]-CA--CB-[CG] |==|  0.27697
USER: genes 5 Torsion [CA]-CB--CG-[OD2] |==|  0.82400
USER: genes 6 Torsion [N]-CA--C-[O] |==|  0.45045
USER: genes 7 Torsion [C]-CA--CB-[CG] |==|  0.31286
USER: genes 8 Torsion [CA]-CB--CG-[CD2] |==|  0.42652
USER: genes 9 Torsion [C]-CA--N-[C] |==|  0.79135
USER: genes 10 Torsion [N]-C--CA-[N] |==|  0.29152
USER: genes 11 Torsion [C]-CA--N-[C] |==|  0.64246
USER: genes 12 Torsion [N]-C--CA-[N] |==|  0.53372
USER: genes 13 Torsion [C]-CA--CB-[CG] |==|  0.81807
USER: genes 14 Torsion [CA]-CB--CG-[OD2] |==|  0.74393
USER: genes 15 Torsion [C]-CA--CB-[CG] |==|  0.45689
USER: genes 16 Torsion [CA]-CB--CG-[CD] |==|  0.87076
USER: genes 17 Torsion [CB]-CG--CD-[OE2] |==|  0.31463
ROOT
ATOM      1  CA  TRP G 500      -9.224 -40.584  20.111  1.00 57.70 LIG 0.18  C 
ENDROOT
BRANCH 1 2
ATOM      2  C   TRP G 500      -8.483 -40.517  21.443  1.00 58.91 LIG 0.24  C 
ATOM      3 O    TRP G 500      -7.927 -39.474  21.788  1.00 59.13 LIG-0.27  OA
ATOM      4  N   ASP G 501      -8.476 -41.616  22.193  1.00 60.05 LIG-0.35  N 
ATOM      5 H    ASP G 501      -8.852 -42.357  21.972  1.00 60.05 LIG 0.16  HD
BRANCH 4 6
ATOM      6  CA  ASP G 501      -7.802 -41.630  23.488  1.00 61.20 LIG 0.17  C 
BRANCH 6 7
ATOM      7  CB  ASP G 501      -8.138 -42.911  24.255  1.00 62.64 LIG 0.15  C 
BRANCH 7 8
ATOM      8  CG  ASP G 501      -7.039 -43.956  24.153  1.00 64.46 LIG 0.17  C 
ATOM      9 OD2  ASP G 501      -6.767 -44.432  23.028  1.00 65.00 LIG-0.65  OA
ATOM     10 OD1  ASP G 501      -6.437 -44.294  25.196  1.00 64.87 LIG-0.65  OA
ENDBRANCH 7 8
ENDBRANCH 6 7
BRANCH 6 11
ATOM     11  C   ASP G 501      -6.287 -41.526  23.316  1.00 61.58 LIG 0.22  C 
ATOM     12 O    ASP G 501      -5.615 -41.187  24.316  1.00 60.92 LIG-0.29  OA
ENDBRANCH 6 11
ENDBRANCH 4 6
ENDBRANCH 1 2
BRANCH 1 13
ATOM     13  CB  TRP G 500      -8.221 -40.559  18.954  1.00 52.85 LIG 0.07  C 
BRANCH 13 14
ATOM     14  CG  TRP G 500      -8.175 -41.850  18.193  1.00 47.47 LIG-0.03  A 
ATOM     15  CD2 TRP G 500      -7.796 -42.022  16.821  1.00 44.29 LIG-0.00  A 
ATOM     16  CE3 TRP G 500      -7.391 -41.143  15.806  1.00 42.43 LIG 0.01  A 
ATOM     17  CE2 TRP G 500      -7.887 -43.405  16.532  1.00 43.87 LIG 0.04  A 
ATOM     18  CZ3 TRP G 500      -7.091 -41.666  14.546  1.00 40.94 LIG 0.00  A 
ATOM     19  CH2 TRP G 500      -7.192 -43.048  14.290  1.00 40.39 LIG 0.00  A 
ATOM     20  CZ2 TRP G 500      -7.586 -43.930  15.265  1.00 41.47 LIG 0.03  A 
ATOM     21  NE1 TRP G 500      -8.298 -44.037  17.676  1.00 44.24 LIG-0.36  N 
ATOM     22  CD1 TRP G 500      -8.471 -43.098  18.668  1.00 45.90 LIG 0.10  A 
ATOM     23 HE1  TRP G 500      -8.427 -44.884  17.761  1.00 44.24 LIG 0.17  HD
ENDBRANCH 13 14
ENDBRANCH 1 13
BRANCH 1 24
ATOM     24  N   TRP G 500     -10.225 -39.545  19.924  1.00 59.87 LIG-0.35  N 
ATOM     25  C   GLU G 499     -11.398 -39.586  20.550  1.00 62.14 LIG 0.24  C 
ATOM     26 O    GLU G 499     -11.713 -40.486  21.333  1.00 62.68 LIG-0.27  OA
ATOM     27 H    TRP G 500      -9.991 -38.918  19.384  1.00 59.87 LIG 0.16  HD
BRANCH 25 28
ATOM     28  CA  GLU G 499     -12.357 -38.436  20.251  1.00 62.75 LIG 0.18  C 
BRANCH 28 29
ATOM     29  N   GLU G 499     -13.427 -38.882  19.366  1.00 64.36 LIG-0.35  N 
ATOM     30 H    GLU G 499     -13.831 -39.596  19.626  1.00 64.36 LIG 0.16  HD
ATOM     31  C   ASP G 498     -13.729 -38.218  18.254  1.00 65.69 LIG 0.26  C 
ATOM     32 O    ASP G 498     -13.133 -37.197  17.903  1.00 66.78 LIG-0.27  OA
BRANCH 31 33
ATOM     33  CA  ASP G 498     -14.871 -38.781  17.410  1.00 65.54 LIG 0.41  C 
ATOM     34  N   ASP G 498     -14.882 -38.107  16.080  1.00 65.34 LIG 0.61  N 
BRANCH 33 35
ATOM     35  CB  ASP G 498     -14.686 -40.292  17.231  1.00 65.84 LIG 0.16  C 
BRANCH 35 36
ATOM     36  CG  ASP G 498     -13.449 -40.638  16.421  1.00 65.00 LIG 0.17  C 
ATOM     37 OD2  ASP G 498     -13.576 -40.776  15.185  1.00 65.16 LIG-0.65  OA
ATOM     38 OD1  ASP G 498     -12.357 -40.775  17.013  1.00 63.97 LIG-0.65  OA
ENDBRANCH 35 36
ENDBRANCH 33 35
ENDBRANCH 31 33
ENDBRANCH 28 29
BRANCH 28 39
ATOM     39  CB  GLU G 499     -12.945 -37.910  21.563  1.00 61.39 LIG 0.04  C 
BRANCH 39 40
ATOM     40  CG  GLU G 499     -13.613 -36.550  21.443  1.00 60.98 LIG 0.12  C 
BRANCH 40 41
ATOM     41  CD  GLU G 499     -12.771 -35.551  20.674  1.00 61.07 LIG 0.17  C 
ATOM     42 OE2  GLU G 499     -13.188 -35.150  19.567  1.00 60.51 LIG-0.65  OA
ATOM     43 OE1  GLU G 499     -11.696 -35.158  21.177  1.00 60.30 LIG-0.65  OA
ENDBRANCH 40 41
ENDBRANCH 39 40
ENDBRANCH 28 39
ENDBRANCH 25 28
ENDBRANCH 1 24
TORSDOF 16
ENDMDL
MODEL 45
USER: ADFR SOLUTION from run 65
USER: SCORE 17.996729 LL:  -3.512 LR: -14.578 RR:   0.000 FEB:  -9.805
USER: RMSD 7.785009
USER: SEED 64
USER: STATUS no improvement in best in 6 clusters for 5 generations
USER: GENES 18
USER: genes 0 Translation |==|  0.38291 0.75181 0.47762
USER: genes 1 Rotation |==|  0.41966 0.68607 0.07129 0.65854
USER: genes 2 Torsion [N]-CA--C-[N] |==|  0.02225
USER: genes 3 Torsion [C]-N--CA-[CB] |==|  0.51812
USER: genes 4 Torsion [N]-CA--CB-[CG] |==|  0.12148
USER: genes 5 Torsion [CA]-CB--CG-[OD2] |==|  0.05928
USER: genes 6 Torsion [N]-CA--C-[O] |==|  0.52728
USER: genes 7 Torsion [C]-CA--CB-[CG] |==|  0.45110
USER: genes 8 Torsion [CA]-CB--CG-[CD2] |==|  0.23952
USER: genes 9 Torsion [C]-CA--N-[C] |==|  0.70400
USER: genes 10 Torsion [N]-C--CA-[N] |==|  0.95197
USER: genes 11 Torsion [C]-CA--N-[C] |==|  0.77026
USER: genes 12 Torsion [N]-C--CA-[N] |==|  0.08679
USER: genes 13 Torsion [C]-CA--CB-[CG] |==|  0.62237
USER: genes 14 Torsion [CA]-CB--CG-[OD2] |==|  0.63573
USER: genes 15 Torsion [C]-CA--CB-[CG] |==|  0.44076
USER: genes 16 Torsion [CA]-CB--CG-[CD] |==|  0.10562
USER: genes 17 Torsion [CB]-CG--CD-[OE2] |==|  0.26493
ROOT
ATOM      1  CA  TRP G 500     -11.657 -36.610  19.864  1.00 57.70 LIG 0.18  C 
ENDROOT
BRANCH 1 2
ATOM      2  C   TRP G 500     -11.345 -35.758  21.090  1.00 58.91 LIG 0.24  C 
ATOM      3 O    TRP G 500     -12.126 -34.874  21.442  1.00 59.13 LIG-0.27  OA
ATOM      4  N   ASP G 501     -10.217 -36.020  21.743  1.00 60.05 LIG-0.35  N 
ATOM      5 H    ASP G 501      -9.653 -36.628  21.515  1.00 60.05 LIG 0.16  HD
BRANCH 4 6
ATOM      6  CA  ASP G 501      -9.852 -35.260  22.936  1.00 61.20 LIG 0.17  C 
BRANCH 6 7
ATOM      7  CB  ASP G 501      -8.446 -35.638  23.406  1.00 62.64 LIG 0.15  C 
BRANCH 7 8
ATOM      8  CG  ASP G 501      -7.456 -35.742  22.257  1.00 64.46 LIG 0.17  C 
ATOM      9 OD2  ASP G 501      -7.716 -35.151  21.185  1.00 65.00 LIG-0.65  OA
ATOM     10 OD1  ASP G 501      -6.409 -36.405  22.428  1.00 64.87 LIG-0.65  OA
ENDBRANCH 7 8
ENDBRANCH 6 7
BRANCH 6 11
ATOM     11  C   ASP G 501      -9.907 -33.758  22.663  1.00 61.58 LIG 0.22  C 
ATOM     12 O    ASP G 501      -9.438 -32.996  23.538  1.00 60.92 LIG-0.29  OA
ENDBRANCH 6 11
ENDBRANCH 4 6
ENDBRANCH 1 2
BRANCH 1 13
ATOM     13  CB  TRP G 500     -13.106 -37.101  19.924  1.00 52.85 LIG 0.07  C 
BRANCH 13 14
ATOM     14  CG  TRP G 500     -13.619 -37.576  18.598  1.00 47.47 LIG-0.03  A 
ATOM     15  CD2 TRP G 500     -13.475 -38.891  18.046  1.00 44.29 LIG-0.00  A 
ATOM     16  CE3 TRP G 500     -12.862 -40.072  18.489  1.00 42.43 LIG 0.01  A 
ATOM     17  CE2 TRP G 500     -14.121 -38.888  16.786  1.00 43.87 LIG 0.04  A 
ATOM     18  CZ3 TRP G 500     -12.912 -41.203  17.671  1.00 40.94 LIG 0.00  A 
ATOM     19  CH2 TRP G 500     -13.563 -41.168  16.422  1.00 40.39 LIG 0.00  A 
ATOM     20  CZ2 TRP G 500     -14.172 -40.026  15.963  1.00 41.47 LIG 0.03  A 
ATOM     21  NE1 TRP G 500     -14.633 -37.632  16.589  1.00 44.24 LIG-0.36  N 
ATOM     22  CD1 TRP G 500     -14.326 -36.850  17.680  1.00 45.90 LIG 0.10  A 
ATOM     23 HE1  TRP G 500     -15.075 -37.375  15.897  1.00 44.24 LIG 0.17  HD
ENDBRANCH 13 14
ENDBRANCH 1 13
BRANCH 1 24
ATOM     24  N   TRP G 500     -10.757 -37.737  19.666  1.00 59.87 LIG-0.35  N 
ATOM     25  C   GLU G 499      -9.838 -37.735  18.706  1.00 62.14 LIG 0.24  C 
ATOM     26 O    GLU G 499      -9.673 -36.788  17.932  1.00 62.68 LIG-0.27  OA
ATOM     27 H    TRP G 500     -10.875 -38.387  20.218  1.00 59.87 LIG 0.16  HD
BRANCH 25 28
ATOM     28  CA  GLU G 499      -8.971 -38.988  18.606  1.00 62.75 LIG 0.18  C 
BRANCH 28 29
ATOM     29  N   GLU G 499      -9.056 -39.766  19.837  1.00 64.36 LIG-0.35  N 
ATOM     30 H    GLU G 499      -9.617 -40.417  19.809  1.00 64.36 LIG 0.16  HD
ATOM     31  C   ASP G 498      -8.312 -39.467  20.899  1.00 65.69 LIG 0.26  C 
ATOM     32 O    ASP G 498      -7.515 -38.526  20.913  1.00 66.78 LIG-0.27  OA
BRANCH 31 33
ATOM     33  CA  ASP G 498      -8.488 -40.356  22.128  1.00 65.54 LIG 0.41  C 
ATOM     34  N   ASP G 498      -8.838 -41.739  21.692  1.00 65.34 LIG 0.61  N 
BRANCH 33 35
ATOM     35  CB  ASP G 498      -7.189 -40.376  22.942  1.00 65.84 LIG 0.16  C 
BRANCH 35 36
ATOM     36  CG  ASP G 498      -6.812 -41.770  23.410  1.00 65.00 LIG 0.17  C 
ATOM     37 OD2  ASP G 498      -6.511 -41.925  24.613  1.00 65.16 LIG-0.65  OA
ATOM     38 OD1  ASP G 498      -6.813 -42.707  22.582  1.00 63.97 LIG-0.65  OA
ENDBRANCH 35 36
ENDBRANCH 33 35
ENDBRANCH 31 33
ENDBRANCH 28 29
BRANCH 28 39
ATOM     39  CB  GLU G 499      -9.433 -39.834  17.417  1.00 61.39 LIG 0.04  C 
BRANCH 39 40
ATOM     40  CG  GLU G 499      -8.383 -40.803  16.898  1.00 60.98 LIG 0.12  C 
BRANCH 40 41
ATOM     41  CD  GLU G 499      -7.563 -41.427  18.011  1.00 61.07 LIG 0.17  C 
ATOM     42 OE2  GLU G 499      -7.910 -42.544  18.449  1.00 60.51 LIG-0.65  OA
ATOM     43 OE1  GLU G 499      -6.568 -40.808  18.444  1.00 60.30 LIG-0.65  OA
ENDBRANCH 40 41
ENDBRANCH 39 40
ENDBRANCH 28 39
ENDBRANCH 25 28
ENDBRANCH 1 24
TORSDOF 16
ENDMDL
