MODEL 1
USER: ADFR SOLUTION from run 120
USER: SCORE 11.534496 LL:  -2.215 LR: -11.608 RR:   0.000 FEB:  -6.537
USER: RMSD 8.698311
USER: SEED 119
USER: STATUS no improvement in best in 16 clusters for 5 generations
USER: GENES 19
USER: genes 0 Translation |==|  0.46573 0.41674 0.40654
USER: genes 1 Rotation |==|  0.58487 0.79919 0.59116 0.88075
USER: genes 2 Torsion [C]-CA--CB-[CG] |==|  0.34898
USER: genes 3 Torsion [CA]-CB--CG-[CD2] |==|  0.93627
USER: genes 4 Torsion [N]-CA--C-[N] |==|  0.96384
USER: genes 5 Torsion [C]-N--CA-[C] |==|  0.24758
USER: genes 6 Torsion [N]-CA--C-[N] |==|  0.60837
USER: genes 7 Torsion [C]-N--CA-[CB] |==|  0.30023
USER: genes 8 Torsion [N]-CA--CB-[CG] |==|  0.48536
USER: genes 9 Torsion [CA]-CB--CG-[CD] |==|  0.34392
USER: genes 10 Torsion [CB]-CG--CD-[OE2] |==|  0.04838
USER: genes 11 Torsion [N]-CA--C-[OXT] |==|  0.93238
USER: genes 12 Torsion [CB]-CA--N-[C] |==|  0.38120
USER: genes 13 Torsion [N]-C--CA-[N] |==|  0.88226
USER: genes 14 Torsion [C]-CA--N-[C] |==|  0.70189
USER: genes 15 Torsion [N]-C--CA-[N] |==|  0.82204
USER: genes 16 Torsion [C]-CA--CB-[CG] |==|  0.21470
USER: genes 17 Torsion [CA]-CB--CG-[CD] |==|  0.49664
USER: genes 18 Torsion [CB]-CG--CD-[NE2] |==|  0.49814
ROOT
ATOM      1  CA  HIS G 812     -26.712  32.212  19.420  1.00 98.11 LIG 0.18  C 
ENDROOT
BRANCH 1 2
ATOM      2  CB  HIS G 812     -26.761  31.068  18.397  1.00 96.29 LIG 0.10  C 
BRANCH 2 3
ATOM      3  CG  HIS G 812     -27.822  30.031  18.642  1.00 94.00 LIG 0.06  A 
ATOM      4  CD2 HIS G 812     -28.474  29.675  19.766  1.00 93.71 LIG 0.14  A 
ATOM      5 NE2  HIS G 812     -29.196  28.535  19.481  1.00 93.19 LIG-0.25  NA
ATOM      6  CE1 HIS G 812     -28.995  28.219  18.212  1.00 92.78 LIG 0.23  A 
ATOM      7 ND1  HIS G 812     -28.177  29.104  17.681  1.00 93.58 LIG-0.24  NA
ENDBRANCH 2 3
ENDBRANCH 1 2
BRANCH 1 8
ATOM      8  C   HIS G 812     -25.281  32.256  19.946  1.00 99.25 LIG 0.24  C 
ATOM      9  N   GLY G 813     -24.483  33.207  19.477  1.00100.26 LIG-0.35  N 
ATOM     10 H    GLY G 813     -24.708  33.795  18.892  1.00100.26 LIG 0.16  HD
ATOM     11 O    HIS G 812     -24.914  31.443  20.797  1.00 99.52 LIG-0.27  OA
BRANCH 9 12
ATOM     12  CA  GLY G 813     -23.115  33.301  19.958  1.00101.48 LIG 0.23  C 
BRANCH 12 13
ATOM     13  C   GLY G 813     -22.139  32.468  19.146  1.00102.44 LIG 0.24  C 
ATOM     14 O    GLY G 813     -22.253  32.407  17.923  1.00102.98 LIG-0.27  OA
ATOM     15  N   GLU G 814     -21.176  31.833  19.812  1.00102.70 LIG-0.34  N 
ATOM     16 H    GLU G 814     -21.069  31.874  20.664  1.00102.70 LIG 0.16  HD
BRANCH 15 17
ATOM     17  CA  GLU G 814     -20.200  30.992  19.115  1.00102.89 LIG 0.19  C 
BRANCH 17 18
ATOM     18  CB  GLU G 814     -18.820  31.663  19.087  1.00101.97 LIG 0.05  C 
BRANCH 18 19
ATOM     19  CG  GLU G 814     -17.709  30.816  18.497  1.00100.63 LIG 0.12  C 
BRANCH 19 20
ATOM     20  CD  GLU G 814     -17.002  31.502  17.337  1.00100.36 LIG 0.17  C 
ATOM     21 OE1  GLU G 814     -16.315  30.803  16.560  1.00 99.71 LIG-0.65  OA
ATOM     22 OE2  GLU G 814     -17.137  32.736  17.196  1.00 99.42 LIG-0.65  OA
ENDBRANCH 19 20
ENDBRANCH 18 19
ENDBRANCH 17 18
BRANCH 17 23
ATOM     23  C   GLU G 814     -20.075  29.626  19.798  1.00103.78 LIG 0.20  C 
ATOM     24 OXT  GLU G 814     -20.379  29.529  21.009  1.00104.07 LIG-0.65  OA
ATOM     25 O    GLU G 814     -19.677  28.661  19.108  1.00104.32 LIG-0.65  OA
ENDBRANCH 17 23
ENDBRANCH 15 17
ENDBRANCH 12 13
ENDBRANCH 9 12
ENDBRANCH 1 8
BRANCH 1 26
ATOM     26  N   HIS G 812     -26.816  33.513  18.746  1.00 98.48 LIG-0.35  N 
ATOM     27  C   GLY G 811     -27.556  34.544  19.158  1.00 98.46 LIG 0.24  C 
ATOM     28 O    GLY G 811     -28.292  34.522  20.152  1.00 98.78 LIG-0.27  OA
ATOM     29 H    HIS G 812     -26.337  33.553  18.033  1.00 98.48 LIG 0.16  HD
BRANCH 27 30
ATOM     30  CA  GLY G 811     -27.443  35.790  18.292  1.00 98.06 LIG 0.23  C 
BRANCH 30 31
ATOM     31  N   GLY G 811     -26.111  36.150  17.839  1.00 97.66 LIG-0.35  N 
ATOM     32 H    GLY G 811     -25.786  35.641  17.227  1.00 97.66 LIG 0.16  HD
ATOM     33  C   GLN G 810     -25.480  37.199  18.362  1.00 97.43 LIG 0.26  C 
ATOM     34 O    GLN G 810     -25.967  37.896  19.254  1.00 97.76 LIG-0.27  OA
BRANCH 33 35
ATOM     35  CA  GLN G 810     -24.086  37.504  17.813  1.00 96.79 LIG 0.40  C 
ATOM     36  N   GLN G 810     -23.147  36.387  18.124  1.00 96.61 LIG 0.61  N 
BRANCH 35 37
ATOM     37  CB  GLN G 810     -24.185  37.708  16.304  1.00 96.38 LIG 0.06  C 
BRANCH 37 38
ATOM     38  CG  GLN G 810     -24.735  39.054  15.859  1.00 95.56 LIG 0.10  C 
BRANCH 38 39
ATOM     39  CD  GLN G 810     -24.772  39.184  14.353  1.00 95.11 LIG 0.21  C 
ATOM     40  NE2 GLN G 810     -25.252  40.326  13.873  1.00 94.31 LIG-0.37  N 
ATOM     41 21HE GLN G 810     -25.522  40.939  14.412  1.00 94.31 LIG 0.16  HD
ATOM     42 22HE GLN G 810     -25.294  40.452  13.023  1.00 94.31 LIG 0.16  HD
ATOM     43 OE1  GLN G 810     -24.372  38.273  13.626  1.00 94.65 LIG-0.27  OA
ENDBRANCH 38 39
ENDBRANCH 37 38
ENDBRANCH 35 37
ENDBRANCH 33 35
ENDBRANCH 30 31
ENDBRANCH 27 30
ENDBRANCH 1 26
TORSDOF 17
ENDMDL
MODEL 2
USER: ADFR SOLUTION from run 61
USER: SCORE 11.594841 LL:  -2.312 LR: -11.390 RR:   0.000 FEB:  -6.319
USER: RMSD 10.482750
USER: SEED 60
USER: STATUS no improvement in best in 40 clusters for 5 generations
USER: GENES 19
USER: genes 0 Translation |==|  0.49460 0.35770 0.43354
USER: genes 1 Rotation |==|  0.70182 0.83960 0.79234 0.59208
USER: genes 2 Torsion [C]-CA--CB-[CG] |==|  0.36823
USER: genes 3 Torsion [CA]-CB--CG-[CD2] |==|  0.15003
USER: genes 4 Torsion [N]-CA--C-[N] |==|  0.46707
USER: genes 5 Torsion [C]-N--CA-[C] |==|  0.33749
USER: genes 6 Torsion [N]-CA--C-[N] |==|  0.28126
USER: genes 7 Torsion [C]-N--CA-[CB] |==|  0.79769
USER: genes 8 Torsion [N]-CA--CB-[CG] |==|  0.77490
USER: genes 9 Torsion [CA]-CB--CG-[CD] |==|  0.78261
USER: genes 10 Torsion [CB]-CG--CD-[OE2] |==|  0.95633
USER: genes 11 Torsion [N]-CA--C-[OXT] |==|  0.09704
USER: genes 12 Torsion [CB]-CA--N-[C] |==|  0.14451
USER: genes 13 Torsion [N]-C--CA-[N] |==|  0.84300
USER: genes 14 Torsion [C]-CA--N-[C] |==|  0.24971
USER: genes 15 Torsion [N]-C--CA-[N] |==|  0.77007
USER: genes 16 Torsion [C]-CA--CB-[CG] |==|  0.25992
USER: genes 17 Torsion [CA]-CB--CG-[CD] |==|  0.72237
USER: genes 18 Torsion [CB]-CG--CD-[NE2] |==|  0.78074
ROOT
ATOM      1  CA  HIS G 812     -26.149  31.105  20.088  1.00 98.11 LIG 0.18  C 
ENDROOT
BRANCH 1 2
ATOM      2  CB  HIS G 812     -26.999  31.204  18.813  1.00 96.29 LIG 0.10  C 
BRANCH 2 3
ATOM      3  CG  HIS G 812     -27.480  29.893  18.257  1.00 94.00 LIG 0.06  A 
ATOM      4  CD2 HIS G 812     -28.169  28.885  18.828  1.00 93.71 LIG 0.14  A 
ATOM      5 NE2  HIS G 812     -28.174  27.832  17.936  1.00 93.19 LIG-0.25  NA
ATOM      6  CE1 HIS G 812     -27.516  28.201  16.850  1.00 92.78 LIG 0.23  A 
ATOM      7 ND1  HIS G 812     -27.092  29.438  17.013  1.00 93.58 LIG-0.24  NA
ENDBRANCH 2 3
ENDBRANCH 1 2
BRANCH 1 8
ATOM      8  C   HIS G 812     -24.928  31.990  19.860  1.00 99.25 LIG 0.24  C 
ATOM      9  N   GLY G 813     -23.971  31.524  19.068  1.00100.26 LIG-0.35  N 
ATOM     10 H    GLY G 813     -23.982  30.757  18.680  1.00100.26 LIG 0.16  HD
ATOM     11 O    HIS G 812     -24.871  33.105  20.383  1.00 99.52 LIG-0.27  OA
BRANCH 9 12
ATOM     12  CA  GLY G 813     -22.794  32.335  18.806  1.00101.48 LIG 0.23  C 
BRANCH 12 13
ATOM     13  C   GLY G 813     -21.499  31.655  19.214  1.00102.44 LIG 0.24  C 
ATOM     14 O    GLY G 813     -21.165  31.629  20.398  1.00102.98 LIG-0.27  OA
ATOM     15  N   GLU G 814     -20.770  31.097  18.249  1.00102.70 LIG-0.34  N 
ATOM     16 H    GLU G 814     -20.992  31.089  17.419  1.00102.70 LIG 0.16  HD
BRANCH 15 17
ATOM     17  CA  GLU G 814     -19.498  30.434  18.547  1.00102.89 LIG 0.19  C 
BRANCH 17 18
ATOM     18  CB  GLU G 814     -18.410  31.464  18.881  1.00101.97 LIG 0.05  C 
BRANCH 18 19
ATOM     19  CG  GLU G 814     -17.757  32.118  17.679  1.00100.63 LIG 0.12  C 
BRANCH 19 20
ATOM     20  CD  GLU G 814     -16.721  31.222  17.015  1.00100.36 LIG 0.17  C 
ATOM     21 OE1  GLU G 814     -16.329  31.515  15.864  1.00 99.71 LIG-0.65  OA
ATOM     22 OE2  GLU G 814     -16.294  30.229  17.642  1.00 99.42 LIG-0.65  OA
ENDBRANCH 19 20
ENDBRANCH 18 19
ENDBRANCH 17 18
BRANCH 17 23
ATOM     23  C   GLU G 814     -19.651  29.471  19.728  1.00103.78 LIG 0.20  C 
ATOM     24 OXT  GLU G 814     -20.730  28.850  19.862  1.00104.07 LIG-0.65  OA
ATOM     25 O    GLU G 814     -18.682  29.344  20.509  1.00104.32 LIG-0.65  OA
ENDBRANCH 17 23
ENDBRANCH 15 17
ENDBRANCH 12 13
ENDBRANCH 9 12
ENDBRANCH 1 8
BRANCH 1 26
ATOM     26  N   HIS G 812     -26.808  31.797  21.204  1.00 98.48 LIG-0.35  N 
ATOM     27  C   GLY G 811     -28.066  31.603  21.605  1.00 98.46 LIG 0.24  C 
ATOM     28 O    GLY G 811     -28.863  30.834  21.054  1.00 98.78 LIG-0.27  OA
ATOM     29 H    HIS G 812     -26.289  32.362  21.592  1.00 98.48 LIG 0.16  HD
BRANCH 27 30
ATOM     30  CA  GLY G 811     -28.477  32.423  22.818  1.00 98.06 LIG 0.23  C 
BRANCH 30 31
ATOM     31  N   GLY G 811     -27.669  32.268  24.014  1.00 97.66 LIG-0.35  N 
ATOM     32 H    GLY G 811     -27.930  31.649  24.551  1.00 97.66 LIG 0.16  HD
ATOM     33  C   GLN G 810     -26.611  33.050  24.221  1.00 97.43 LIG 0.26  C 
ATOM     34 O    GLN G 810     -26.277  33.943  23.441  1.00 97.76 LIG-0.27  OA
BRANCH 33 35
ATOM     35  CA  GLN G 810     -25.818  32.803  25.504  1.00 96.79 LIG 0.40  C 
ATOM     36  N   GLN G 810     -26.461  33.498  26.658  1.00 96.61 LIG 0.61  N 
BRANCH 35 37
ATOM     37  CB  GLN G 810     -25.752  31.300  25.762  1.00 96.38 LIG 0.06  C 
BRANCH 37 38
ATOM     38  CG  GLN G 810     -24.520  30.595  25.214  1.00 95.56 LIG 0.10  C 
BRANCH 38 39
ATOM     39  CD  GLN G 810     -24.805  29.889  23.907  1.00 95.11 LIG 0.21  C 
ATOM     40  NE2 GLN G 810     -25.425  28.717  23.996  1.00 94.31 LIG-0.37  N 
ATOM     41 21HE GLN G 810     -25.640  28.402  24.767  1.00 94.31 LIG 0.16  HD
ATOM     42 22HE GLN G 810     -25.612  28.274  23.283  1.00 94.31 LIG 0.16  HD
ATOM     43 OE1  GLN G 810     -24.475  30.386  22.830  1.00 94.65 LIG-0.27  OA
ENDBRANCH 38 39
ENDBRANCH 37 38
ENDBRANCH 35 37
ENDBRANCH 33 35
ENDBRANCH 30 31
ENDBRANCH 27 30
ENDBRANCH 1 26
TORSDOF 17
ENDMDL
MODEL 3
USER: ADFR SOLUTION from run 141
USER: SCORE 11.636208 LL:  -2.295 LR: -11.350 RR:   0.000 FEB:  -6.279
USER: RMSD 10.312072
USER: SEED 140
USER: STATUS no improvement in best in 28 clusters for 5 generations
USER: GENES 19
USER: genes 0 Translation |==|  0.53702 0.37605 0.41619
USER: genes 1 Rotation |==|  0.70453 0.83137 0.80248 0.58289
USER: genes 2 Torsion [C]-CA--CB-[CG] |==|  0.38613
USER: genes 3 Torsion [CA]-CB--CG-[CD2] |==|  0.24832
USER: genes 4 Torsion [N]-CA--C-[N] |==|  0.45174
USER: genes 5 Torsion [C]-N--CA-[C] |==|  0.31477
USER: genes 6 Torsion [N]-CA--C-[N] |==|  0.33225
USER: genes 7 Torsion [C]-N--CA-[CB] |==|  0.17666
USER: genes 8 Torsion [N]-CA--CB-[CG] |==|  0.71637
USER: genes 9 Torsion [CA]-CB--CG-[CD] |==|  0.68113
USER: genes 10 Torsion [CB]-CG--CD-[OE2] |==|  0.16629
USER: genes 11 Torsion [N]-CA--C-[OXT] |==|  0.06732
USER: genes 12 Torsion [CB]-CA--N-[C] |==|  0.18891
USER: genes 13 Torsion [N]-C--CA-[N] |==|  0.75000
USER: genes 14 Torsion [C]-CA--N-[C] |==|  0.23512
USER: genes 15 Torsion [N]-C--CA-[N] |==|  0.04881
USER: genes 16 Torsion [C]-CA--CB-[CG] |==|  0.74697
USER: genes 17 Torsion [CA]-CB--CG-[CD] |==|  0.14714
USER: genes 18 Torsion [CB]-CG--CD-[NE2] |==|  0.68577
ROOT
ATOM      1  CA  HIS G 812     -25.322  31.449  19.659  1.00 98.11 LIG 0.18  C 
ENDROOT
BRANCH 1 2
ATOM      2  CB  HIS G 812     -26.184  31.622  18.400  1.00 96.29 LIG 0.10  C 
BRANCH 2 3
ATOM      3  CG  HIS G 812     -26.785  30.356  17.853  1.00 94.00 LIG 0.06  A 
ATOM      4  CD2 HIS G 812     -27.954  29.742  18.117  1.00 93.71 LIG 0.14  A 
ATOM      5 NE2  HIS G 812     -27.923  28.511  17.495  1.00 93.19 LIG-0.25  NA
ATOM      6  CE1 HIS G 812     -26.769  28.393  16.860  1.00 92.78 LIG 0.23  A 
ATOM      7 ND1  HIS G 812     -26.066  29.490  17.054  1.00 93.58 LIG-0.24  NA
ENDBRANCH 2 3
ENDBRANCH 1 2
BRANCH 1 8
ATOM      8  C   HIS G 812     -24.110  32.357  19.477  1.00 99.25 LIG 0.24  C 
ATOM      9  N   GLY G 813     -23.107  31.902  18.738  1.00100.26 LIG-0.35  N 
ATOM     10 H    GLY G 813     -23.083  31.130  18.360  1.00100.26 LIG 0.16  HD
ATOM     11 O    HIS G 812     -24.102  33.480  19.987  1.00 99.52 LIG-0.27  OA
BRANCH 9 12
ATOM     12  CA  GLY G 813     -21.936  32.734  18.521  1.00101.48 LIG 0.23  C 
BRANCH 12 13
ATOM     13  C   GLY G 813     -20.681  32.180  19.173  1.00102.44 LIG 0.24  C 
ATOM     14 O    GLY G 813     -20.646  32.011  20.391  1.00102.98 LIG-0.27  OA
ATOM     15  N   GLU G 814     -19.655  31.888  18.376  1.00102.70 LIG-0.34  N 
ATOM     16 H    GLU G 814     -19.664  31.983  17.521  1.00102.70 LIG 0.16  HD
BRANCH 15 17
ATOM     17  CA  GLU G 814     -18.399  31.365  18.918  1.00102.89 LIG 0.19  C 
BRANCH 17 18
ATOM     18  CB  GLU G 814     -18.615  29.997  19.580  1.00101.97 LIG 0.05  C 
BRANCH 18 19
ATOM     19  CG  GLU G 814     -18.677  30.023  21.095  1.00100.63 LIG 0.12  C 
BRANCH 19 20
ATOM     20  CD  GLU G 814     -17.520  29.277  21.742  1.00100.36 LIG 0.17  C 
ATOM     21 OE1  GLU G 814     -17.778  28.303  22.483  1.00 99.71 LIG-0.65  OA
ATOM     22 OE2  GLU G 814     -16.353  29.658  21.508  1.00 99.42 LIG-0.65  OA
ENDBRANCH 19 20
ENDBRANCH 18 19
ENDBRANCH 17 18
BRANCH 17 23
ATOM     23  C   GLU G 814     -17.349  31.222  17.811  1.00103.78 LIG 0.20  C 
ATOM     24 OXT  GLU G 814     -17.455  31.933  16.785  1.00104.07 LIG-0.65  OA
ATOM     25 O    GLU G 814     -16.423  30.398  17.986  1.00104.32 LIG-0.65  OA
ENDBRANCH 17 23
ENDBRANCH 15 17
ENDBRANCH 12 13
ENDBRANCH 9 12
ENDBRANCH 1 8
BRANCH 1 26
ATOM     26  N   HIS G 812     -25.976  32.063  20.822  1.00 98.48 LIG-0.35  N 
ATOM     27  C   GLY G 811     -27.098  31.631  21.401  1.00 98.46 LIG 0.24  C 
ATOM     28 O    GLY G 811     -27.762  30.667  21.001  1.00 98.78 LIG-0.27  OA
ATOM     29 H    HIS G 812     -25.554  32.755  21.109  1.00 98.48 LIG 0.16  HD
BRANCH 27 30
ATOM     30  CA  GLY G 811     -27.529  32.431  22.621  1.00 98.06 LIG 0.23  C 
BRANCH 30 31
ATOM     31  N   GLY G 811     -27.018  31.988  23.906  1.00 97.66 LIG-0.35  N 
ATOM     32 H    GLY G 811     -27.542  31.468  24.345  1.00 97.66 LIG 0.16  HD
ATOM     33  C   GLN G 810     -25.819  32.385  24.328  1.00 97.43 LIG 0.26  C 
ATOM     34 O    GLN G 810     -25.101  33.148  23.680  1.00 97.76 LIG-0.27  OA
BRANCH 33 35
ATOM     35  CA  GLN G 810     -25.364  31.858  25.688  1.00 96.79 LIG 0.40  C 
ATOM     36  N   GLN G 810     -26.174  30.670  26.087  1.00 96.61 LIG 0.61  N 
BRANCH 35 37
ATOM     37  CB  GLN G 810     -23.885  31.486  25.604  1.00 96.38 LIG 0.06  C 
BRANCH 37 38
ATOM     38  CG  GLN G 810     -23.593  30.046  25.214  1.00 95.56 LIG 0.10  C 
BRANCH 38 39
ATOM     39  CD  GLN G 810     -24.299  29.648  23.937  1.00 95.11 LIG 0.21  C 
ATOM     40  NE2 GLN G 810     -25.254  28.732  24.055  1.00 94.31 LIG-0.37  N 
ATOM     41 21HE GLN G 810     -25.437  28.399  24.827  1.00 94.31 LIG 0.16  HD
ATOM     42 22HE GLN G 810     -25.688  28.471  23.360  1.00 94.31 LIG 0.16  HD
ATOM     43 OE1  GLN G 810     -23.996  30.157  22.857  1.00 94.65 LIG-0.27  OA
ENDBRANCH 38 39
ENDBRANCH 37 38
ENDBRANCH 35 37
ENDBRANCH 33 35
ENDBRANCH 30 31
ENDBRANCH 27 30
ENDBRANCH 1 26
TORSDOF 17
ENDMDL
MODEL 4
USER: ADFR SOLUTION from run 26
USER: SCORE 12.220727 LL:  -2.462 LR: -11.317 RR:   0.000 FEB:  -6.246
USER: RMSD 9.259451
USER: SEED 25
USER: STATUS no improvement in best in 15 clusters for 5 generations
USER: GENES 19
USER: genes 0 Translation |==|  0.50144 0.37222 0.42153
USER: genes 1 Rotation |==|  0.64541 0.84608 0.79109 0.65605
USER: genes 2 Torsion [C]-CA--CB-[CG] |==|  0.39706
USER: genes 3 Torsion [CA]-CB--CG-[CD2] |==|  0.66998
USER: genes 4 Torsion [N]-CA--C-[N] |==|  0.52687
USER: genes 5 Torsion [C]-N--CA-[C] |==|  0.33106
USER: genes 6 Torsion [N]-CA--C-[N] |==|  0.11079
USER: genes 7 Torsion [C]-N--CA-[CB] |==|  0.86135
USER: genes 8 Torsion [N]-CA--CB-[CG] |==|  0.81853
USER: genes 9 Torsion [CA]-CB--CG-[CD] |==|  0.53193
USER: genes 10 Torsion [CB]-CG--CD-[OE2] |==|  0.86084
USER: genes 11 Torsion [N]-CA--C-[OXT] |==|  0.56271
USER: genes 12 Torsion [CB]-CA--N-[C] |==|  0.21111
USER: genes 13 Torsion [N]-C--CA-[N] |==|  0.00976
USER: genes 14 Torsion [C]-CA--N-[C] |==|  0.24976
USER: genes 15 Torsion [N]-C--CA-[N] |==|  0.91642
USER: genes 16 Torsion [C]-CA--CB-[CG] |==|  0.07908
USER: genes 17 Torsion [CA]-CB--CG-[CD] |==|  0.24085
USER: genes 18 Torsion [CB]-CG--CD-[NE2] |==|  0.64665
ROOT
ATOM      1  CA  HIS G 812     -26.016  31.377  19.791  1.00 98.11 LIG 0.18  C 
ENDROOT
BRANCH 1 2
ATOM      2  CB  HIS G 812     -26.450  31.240  18.324  1.00 96.29 LIG 0.10  C 
BRANCH 2 3
ATOM      3  CG  HIS G 812     -26.992  29.892  17.936  1.00 94.00 LIG 0.06  A 
ATOM      4  CD2 HIS G 812     -26.562  28.989  17.034  1.00 93.71 LIG 0.14  A 
ATOM      5 NE2  HIS G 812     -27.534  28.016  16.930  1.00 93.19 LIG-0.25  NA
ATOM      6  CE1 HIS G 812     -28.518  28.318  17.760  1.00 92.78 LIG 0.23  A 
ATOM      7 ND1  HIS G 812     -28.217  29.439  18.382  1.00 93.58 LIG-0.24  NA
ENDBRANCH 2 3
ENDBRANCH 1 2
BRANCH 1 8
ATOM      8  C   HIS G 812     -24.772  32.260  19.790  1.00 99.25 LIG 0.24  C 
ATOM      9  N   GLY G 813     -23.756  31.889  19.020  1.00100.26 LIG-0.35  N 
ATOM     10 H    GLY G 813     -23.742  31.185  18.529  1.00100.26 LIG 0.16  HD
ATOM     11 O    HIS G 812     -24.749  33.289  20.468  1.00 99.52 LIG-0.27  OA
BRANCH 9 12
ATOM     12  CA  GLY G 813     -22.554  32.704  18.973  1.00101.48 LIG 0.23  C 
BRANCH 12 13
ATOM     13  C   GLY G 813     -21.313  31.963  19.438  1.00102.44 LIG 0.24  C 
ATOM     14 O    GLY G 813     -20.480  32.539  20.137  1.00102.98 LIG-0.27  OA
ATOM     15  N   GLU G 814     -21.184  30.690  19.066  1.00102.70 LIG-0.34  N 
ATOM     16 H    GLU G 814     -21.761  30.265  18.591  1.00102.70 LIG 0.16  HD
BRANCH 15 17
ATOM     17  CA  GLU G 814     -20.011  29.902  19.453  1.00102.89 LIG 0.19  C 
BRANCH 17 18
ATOM     18  CB  GLU G 814     -18.714  30.658  19.133  1.00101.97 LIG 0.05  C 
BRANCH 18 19
ATOM     19  CG  GLU G 814     -18.457  30.889  17.656  1.00100.63 LIG 0.12  C 
BRANCH 19 20
ATOM     20  CD  GLU G 814     -17.045  31.384  17.378  1.00100.36 LIG 0.17  C 
ATOM     21 OE1  GLU G 814     -16.373  30.806  16.496  1.00 99.71 LIG-0.65  OA
ATOM     22 OE2  GLU G 814     -16.608  32.354  18.034  1.00 99.42 LIG-0.65  OA
ENDBRANCH 19 20
ENDBRANCH 18 19
ENDBRANCH 17 18
BRANCH 17 23
ATOM     23  C   GLU G 814     -20.043  29.582  20.951  1.00103.78 LIG 0.20  C 
ATOM     24 OXT  GLU G 814     -18.968  29.309  21.531  1.00104.07 LIG-0.65  OA
ATOM     25 O    GLU G 814     -21.151  29.614  21.532  1.00104.32 LIG-0.65  OA
ENDBRANCH 17 23
ENDBRANCH 15 17
ENDBRANCH 12 13
ENDBRANCH 9 12
ENDBRANCH 1 8
BRANCH 1 26
ATOM     26  N   HIS G 812     -26.967  32.212  20.536  1.00 98.48 LIG-0.35  N 
ATOM     27  C   GLY G 811     -28.174  31.829  20.958  1.00 98.46 LIG 0.24  C 
ATOM     28 O    GLY G 811     -28.669  30.718  20.737  1.00 98.78 LIG-0.27  OA
ATOM     29 H    HIS G 812     -26.664  33.004  20.682  1.00 98.48 LIG 0.16  HD
BRANCH 27 30
ATOM     30  CA  GLY G 811     -28.933  32.885  21.747  1.00 98.06 LIG 0.23  C 
BRANCH 30 31
ATOM     31  N   GLY G 811     -28.298  34.185  21.875  1.00 97.66 LIG-0.35  N 
ATOM     32 H    GLY G 811     -27.789  34.275  22.561  1.00 97.66 LIG 0.16  HD
ATOM     33  C   GLN G 810     -28.521  35.136  20.969  1.00 97.43 LIG 0.26  C 
ATOM     34 O    GLN G 810     -29.274  34.981  20.007  1.00 97.76 LIG-0.27  OA
BRANCH 33 35
ATOM     35  CA  GLN G 810     -27.801  36.467  21.185  1.00 96.79 LIG 0.40  C 
ATOM     36  N   GLN G 810     -27.586  36.716  22.640  1.00 96.61 LIG 0.61  N 
BRANCH 35 37
ATOM     37  CB  GLN G 810     -26.462  36.428  20.451  1.00 96.38 LIG 0.06  C 
BRANCH 37 38
ATOM     38  CG  GLN G 810     -26.414  35.533  19.223  1.00 95.56 LIG 0.10  C 
BRANCH 38 39
ATOM     39  CD  GLN G 810     -26.879  36.252  17.977  1.00 95.11 LIG 0.21  C 
ATOM     40  NE2 GLN G 810     -27.836  35.653  17.276  1.00 94.31 LIG-0.37  N 
ATOM     41 21HE GLN G 810     -28.153  34.898  17.539  1.00 94.31 LIG 0.16  HD
ATOM     42 22HE GLN G 810     -28.138  36.020  16.559  1.00 94.31 LIG 0.16  HD
ATOM     43 OE1  GLN G 810     -26.390  37.333  17.646  1.00 94.65 LIG-0.27  OA
ENDBRANCH 38 39
ENDBRANCH 37 38
ENDBRANCH 35 37
ENDBRANCH 33 35
ENDBRANCH 30 31
ENDBRANCH 27 30
ENDBRANCH 1 26
TORSDOF 17
ENDMDL
MODEL 5
USER: ADFR SOLUTION from run 158
USER: SCORE 10.648426 LL:  -1.863 LR: -11.282 RR:   0.000 FEB:  -6.211
USER: RMSD 10.311852
USER: SEED 157
USER: STATUS no improvement in best in 27 clusters for 5 generations
USER: GENES 19
USER: genes 0 Translation |==|  0.50009 0.35999 0.42541
USER: genes 1 Rotation |==|  0.65943 0.84290 0.80241 0.62467
USER: genes 2 Torsion [C]-CA--CB-[CG] |==|  0.39540
USER: genes 3 Torsion [CA]-CB--CG-[CD2] |==|  0.70265
USER: genes 4 Torsion [N]-CA--C-[N] |==|  0.50758
USER: genes 5 Torsion [C]-N--CA-[C] |==|  0.32313
USER: genes 6 Torsion [N]-CA--C-[N] |==|  0.14436
USER: genes 7 Torsion [C]-N--CA-[CB] |==|  0.85065
USER: genes 8 Torsion [N]-CA--CB-[CG] |==|  0.83895
USER: genes 9 Torsion [CA]-CB--CG-[CD] |==|  0.65773
USER: genes 10 Torsion [CB]-CG--CD-[OE2] |==|  0.50938
USER: genes 11 Torsion [N]-CA--C-[OXT] |==|  0.05304
USER: genes 12 Torsion [CB]-CA--N-[C] |==|  0.22887
USER: genes 13 Torsion [N]-C--CA-[N] |==|  0.32981
USER: genes 14 Torsion [C]-CA--N-[C] |==|  0.67226
USER: genes 15 Torsion [N]-C--CA-[N] |==|  0.25011
USER: genes 16 Torsion [C]-CA--CB-[CG] |==|  0.77169
USER: genes 17 Torsion [CA]-CB--CG-[CD] |==|  0.61223
USER: genes 18 Torsion [CB]-CG--CD-[NE2] |==|  0.71644
ROOT
ATOM      1  CA  HIS G 812     -26.042  31.148  19.887  1.00 98.11 LIG 0.18  C 
ENDROOT
BRANCH 1 2
ATOM      2  CB  HIS G 812     -26.621  31.123  18.465  1.00 96.29 LIG 0.10  C 
BRANCH 2 3
ATOM      3  CG  HIS G 812     -27.133  29.787  18.002  1.00 94.00 LIG 0.06  A 
ATOM      4  CD2 HIS G 812     -26.635  28.904  17.115  1.00 93.71 LIG 0.14  A 
ATOM      5 NE2  HIS G 812     -27.598  27.937  16.910  1.00 93.19 LIG-0.25  NA
ATOM      6  CE1 HIS G 812     -28.645  28.224  17.665  1.00 92.78 LIG 0.23  A 
ATOM      7 ND1  HIS G 812     -28.391  29.329  18.337  1.00 93.58 LIG-0.24  NA
ENDBRANCH 2 3
ENDBRANCH 1 2
BRANCH 1 8
ATOM      8  C   HIS G 812     -24.841  32.087  19.845  1.00 99.25 LIG 0.24  C 
ATOM      9  N   GLY G 813     -23.833  31.760  19.047  1.00100.26 LIG-0.35  N 
ATOM     10 H    GLY G 813     -23.801  31.055  18.557  1.00100.26 LIG 0.16  HD
ATOM     11 O    HIS G 812     -24.845  33.120  20.519  1.00 99.52 LIG-0.27  OA
BRANCH 9 12
ATOM     12  CA  GLY G 813     -22.672  32.629  18.960  1.00101.48 LIG 0.23  C 
BRANCH 12 13
ATOM     13  C   GLY G 813     -21.396  31.972  19.455  1.00102.44 LIG 0.24  C 
ATOM     14 O    GLY G 813     -20.704  32.535  20.302  1.00102.98 LIG-0.27  OA
ATOM     15  N   GLU G 814     -21.082  30.782  18.944  1.00102.70 LIG-0.34  N 
ATOM     16 H    GLU G 814     -21.559  30.364  18.363  1.00102.70 LIG 0.16  HD
BRANCH 15 17
ATOM     17  CA  GLU G 814     -19.861  30.081  19.349  1.00102.89 LIG 0.19  C 
BRANCH 17 18
ATOM     18  CB  GLU G 814     -18.629  30.979  19.169  1.00101.97 LIG 0.05  C 
BRANCH 18 19
ATOM     19  CG  GLU G 814     -18.411  31.490  17.758  1.00100.63 LIG 0.12  C 
BRANCH 19 20
ATOM     20  CD  GLU G 814     -17.044  31.117  17.204  1.00100.36 LIG 0.17  C 
ATOM     21 OE1  GLU G 814     -16.294  30.398  17.900  1.00 99.71 LIG-0.65  OA
ATOM     22 OE2  GLU G 814     -16.719  31.536  16.073  1.00 99.42 LIG-0.65  OA
ENDBRANCH 19 20
ENDBRANCH 18 19
ENDBRANCH 17 18
BRANCH 17 23
ATOM     23  C   GLU G 814     -19.948  29.644  20.814  1.00103.78 LIG 0.20  C 
ATOM     24 OXT  GLU G 814     -21.075  29.579  21.357  1.00104.07 LIG-0.65  OA
ATOM     25 O    GLU G 814     -18.882  29.364  21.406  1.00104.32 LIG-0.65  OA
ENDBRANCH 17 23
ENDBRANCH 15 17
ENDBRANCH 12 13
ENDBRANCH 9 12
ENDBRANCH 1 8
BRANCH 1 26
ATOM     26  N   HIS G 812     -26.943  31.865  20.799  1.00 98.48 LIG-0.35  N 
ATOM     27  C   GLY G 811     -28.018  31.347  21.396  1.00 98.46 LIG 0.24  C 
ATOM     28 O    GLY G 811     -28.423  30.191  21.223  1.00 98.78 LIG-0.27  OA
ATOM     29 H    HIS G 812     -26.706  32.682  20.919  1.00 98.48 LIG 0.16  HD
BRANCH 27 30
ATOM     30  CA  GLY G 811     -28.747  32.303  22.328  1.00 98.06 LIG 0.23  C 
BRANCH 30 31
ATOM     31  N   GLY G 811     -30.124  32.617  21.993  1.00 97.66 LIG-0.35  N 
ATOM     32 H    GLY G 811     -30.661  31.945  21.996  1.00 97.66 LIG 0.16  HD
ATOM     33  C   GLN G 810     -30.482  33.868  21.710  1.00 97.43 LIG 0.26  C 
ATOM     34 O    GLN G 810     -29.682  34.805  21.695  1.00 97.76 LIG-0.27  OA
BRANCH 33 35
ATOM     35  CA  GLN G 810     -31.956  34.100  21.379  1.00 96.79 LIG 0.40  C 
ATOM     36  N   GLN G 810     -32.727  34.410  22.618  1.00 96.61 LIG 0.61  N 
BRANCH 35 37
ATOM     37  CB  GLN G 810     -32.063  35.255  20.386  1.00 96.38 LIG 0.06  C 
BRANCH 37 38
ATOM     38  CG  GLN G 810     -32.016  36.648  20.994  1.00 95.56 LIG 0.10  C 
BRANCH 38 39
ATOM     39  CD  GLN G 810     -33.002  37.588  20.335  1.00 95.11 LIG 0.21  C 
ATOM     40  NE2 GLN G 810     -32.496  38.447  19.457  1.00 94.31 LIG-0.37  N 
ATOM     41 21HE GLN G 810     -31.652  38.448  19.293  1.00 94.31 LIG 0.16  HD
ATOM     42 22HE GLN G 810     -33.013  39.003  19.053  1.00 94.31 LIG 0.16  HD
ATOM     43 OE1  GLN G 810     -34.202  37.544  20.608  1.00 94.65 LIG-0.27  OA
ENDBRANCH 38 39
ENDBRANCH 37 38
ENDBRANCH 35 37
ENDBRANCH 33 35
ENDBRANCH 30 31
ENDBRANCH 27 30
ENDBRANCH 1 26
TORSDOF 17
ENDMDL
MODEL 6
USER: ADFR SOLUTION from run 171
USER: SCORE 11.691356 LL:  -2.160 LR: -11.257 RR:   0.000 FEB:  -6.186
USER: RMSD 8.737420
USER: SEED 170
USER: STATUS no improvement in best in 12 clusters for 5 generations
USER: GENES 19
USER: genes 0 Translation |==|  0.50374 0.40182 0.41199
USER: genes 1 Rotation |==|  0.56108 0.80114 0.66792 0.85692
USER: genes 2 Torsion [C]-CA--CB-[CG] |==|  0.43221
USER: genes 3 Torsion [CA]-CB--CG-[CD2] |==|  0.96239
USER: genes 4 Torsion [N]-CA--C-[N] |==|  0.90368
USER: genes 5 Torsion [C]-N--CA-[C] |==|  0.21667
USER: genes 6 Torsion [N]-CA--C-[N] |==|  0.01059
USER: genes 7 Torsion [C]-N--CA-[CB] |==|  0.86944
USER: genes 8 Torsion [N]-CA--CB-[CG] |==|  0.40850
USER: genes 9 Torsion [CA]-CB--CG-[CD] |==|  0.48168
USER: genes 10 Torsion [CB]-CG--CD-[OE2] |==|  0.65539
USER: genes 11 Torsion [N]-CA--C-[OXT] |==|  0.41901
USER: genes 12 Torsion [CB]-CA--N-[C] |==|  0.38178
USER: genes 13 Torsion [N]-C--CA-[N] |==|  0.95045
USER: genes 14 Torsion [C]-CA--N-[C] |==|  0.63845
USER: genes 15 Torsion [N]-C--CA-[N] |==|  0.46691
USER: genes 16 Torsion [C]-CA--CB-[CG] |==|  0.49380
USER: genes 17 Torsion [CA]-CB--CG-[CD] |==|  0.46046
USER: genes 18 Torsion [CB]-CG--CD-[NE2] |==|  0.29344
ROOT
ATOM      1  CA  HIS G 812     -25.971  31.932  19.555  1.00 98.11 LIG 0.18  C 
ENDROOT
BRANCH 1 2
ATOM      2  CB  HIS G 812     -25.682  30.965  18.398  1.00 96.29 LIG 0.10  C 
BRANCH 2 3
ATOM      3  CG  HIS G 812     -26.792  30.007  18.066  1.00 94.00 LIG 0.06  A 
ATOM      4  CD2 HIS G 812     -27.909  29.674  18.742  1.00 93.71 LIG 0.14  A 
ATOM      5 NE2  HIS G 812     -28.481  28.601  18.090  1.00 93.19 LIG-0.25  NA
ATOM      6  CE1 HIS G 812     -27.735  28.304  17.040  1.00 92.78 LIG 0.23  A 
ATOM      7 ND1  HIS G 812     -26.715  29.137  16.997  1.00 93.58 LIG-0.24  NA
ENDBRANCH 2 3
ENDBRANCH 1 2
BRANCH 1 8
ATOM      8  C   HIS G 812     -24.615  32.344  20.120  1.00 99.25 LIG 0.24  C 
ATOM      9  N   GLY G 813     -23.949  33.300  19.484  1.00100.26 LIG-0.35  N 
ATOM     10 H    GLY G 813     -24.220  33.699  18.772  1.00100.26 LIG 0.16  HD
ATOM     11 O    HIS G 812     -24.190  31.810  21.146  1.00 99.52 LIG-0.27  OA
BRANCH 9 12
ATOM     12  CA  GLY G 813     -22.660  33.739  19.990  1.00101.48 LIG 0.23  C 
BRANCH 12 13
ATOM     13  C   GLY G 813     -21.529  32.784  19.649  1.00102.44 LIG 0.24  C 
ATOM     14 O    GLY G 813     -20.398  32.994  20.083  1.00102.98 LIG-0.27  OA
ATOM     15  N   GLU G 814     -21.824  31.734  18.884  1.00102.70 LIG-0.34  N 
ATOM     16 H    GLU G 814     -22.611  31.561  18.583  1.00102.70 LIG 0.16  HD
BRANCH 15 17
ATOM     17  CA  GLU G 814     -20.794  30.771  18.489  1.00102.89 LIG 0.19  C 
BRANCH 17 18
ATOM     18  CB  GLU G 814     -19.537  31.490  17.981  1.00101.97 LIG 0.05  C 
BRANCH 18 19
ATOM     19  CG  GLU G 814     -18.230  30.780  18.277  1.00100.63 LIG 0.12  C 
BRANCH 19 20
ATOM     20  CD  GLU G 814     -17.035  31.451  17.615  1.00100.36 LIG 0.17  C 
ATOM     21 OE1  GLU G 814     -16.821  32.660  17.856  1.00 99.71 LIG-0.65  OA
ATOM     22 OE2  GLU G 814     -16.307  30.773  16.861  1.00 99.42 LIG-0.65  OA
ENDBRANCH 19 20
ENDBRANCH 18 19
ENDBRANCH 17 18
BRANCH 17 23
ATOM     23  C   GLU G 814     -20.410  29.874  19.670  1.00103.78 LIG 0.20  C 
ATOM     24 OXT  GLU G 814     -20.009  28.710  19.437  1.00104.07 LIG-0.65  OA
ATOM     25 O    GLU G 814     -20.509  30.349  20.823  1.00104.32 LIG-0.65  OA
ENDBRANCH 17 23
ENDBRANCH 15 17
ENDBRANCH 12 13
ENDBRANCH 9 12
ENDBRANCH 1 8
BRANCH 1 26
ATOM     26  N   HIS G 812     -26.476  33.213  19.044  1.00 98.48 LIG-0.35  N 
ATOM     27  C   GLY G 811     -27.488  33.912  19.563  1.00 98.46 LIG 0.24  C 
ATOM     28 O    GLY G 811     -28.166  33.544  20.529  1.00 98.78 LIG-0.27  OA
ATOM     29 H    HIS G 812     -26.044  33.485  18.352  1.00 98.48 LIG 0.16  HD
BRANCH 27 30
ATOM     30  CA  GLY G 811     -27.772  35.230  18.860  1.00 98.06 LIG 0.23  C 
BRANCH 30 31
ATOM     31  N   GLY G 811     -26.717  35.759  18.014  1.00 97.66 LIG-0.35  N 
ATOM     32 H    GLY G 811     -26.389  35.199  17.450  1.00 97.66 LIG 0.16  HD
ATOM     33  C   GLN G 810     -26.321  37.025  18.140  1.00 97.43 LIG 0.26  C 
ATOM     34 O    GLN G 810     -26.799  37.795  18.973  1.00 97.76 LIG-0.27  OA
BRANCH 33 35
ATOM     35  CA  GLN G 810     -25.211  37.491  17.198  1.00 96.79 LIG 0.40  C 
ATOM     36  N   GLN G 810     -25.072  38.976  17.249  1.00 96.61 LIG 0.61  N 
BRANCH 35 37
ATOM     37  CB  GLN G 810     -23.902  36.822  17.609  1.00 96.38 LIG 0.06  C 
BRANCH 37 38
ATOM     38  CG  GLN G 810     -22.700  37.141  16.734  1.00 95.56 LIG 0.10  C 
BRANCH 38 39
ATOM     39  CD  GLN G 810     -21.398  36.734  17.388  1.00 95.11 LIG 0.21  C 
ATOM     40  NE2 GLN G 810     -20.810  35.648  16.898  1.00 94.31 LIG-0.37  N 
ATOM     41 21HE GLN G 810     -21.173  35.219  16.248  1.00 94.31 LIG 0.16  HD
ATOM     42 22HE GLN G 810     -20.067  35.373  17.233  1.00 94.31 LIG 0.16  HD
ATOM     43 OE1  GLN G 810     -20.922  37.386  18.319  1.00 94.65 LIG-0.27  OA
ENDBRANCH 38 39
ENDBRANCH 37 38
ENDBRANCH 35 37
ENDBRANCH 33 35
ENDBRANCH 30 31
ENDBRANCH 27 30
ENDBRANCH 1 26
TORSDOF 17
ENDMDL
MODEL 7
USER: ADFR SOLUTION from run 178
USER: SCORE 10.915437 LL:  -1.774 LR: -11.244 RR:   0.000 FEB:  -6.173
USER: RMSD 9.657016
USER: SEED 177
USER: STATUS no improvement in best in 28 clusters for 5 generations
USER: GENES 19
USER: genes 0 Translation |==|  0.46467 0.42346 0.40371
USER: genes 1 Rotation |==|  0.59363 0.79798 0.59998 0.87742
USER: genes 2 Torsion [C]-CA--CB-[CG] |==|  0.33721
USER: genes 3 Torsion [CA]-CB--CG-[CD2] |==|  0.94436
USER: genes 4 Torsion [N]-CA--C-[N] |==|  0.96111
USER: genes 5 Torsion [C]-N--CA-[C] |==|  0.23625
USER: genes 6 Torsion [N]-CA--C-[N] |==|  0.65236
USER: genes 7 Torsion [C]-N--CA-[CB] |==|  0.21161
USER: genes 8 Torsion [N]-CA--CB-[CG] |==|  0.57350
USER: genes 9 Torsion [CA]-CB--CG-[CD] |==|  0.59190
USER: genes 10 Torsion [CB]-CG--CD-[OE2] |==|  0.57799
USER: genes 11 Torsion [N]-CA--C-[OXT] |==|  0.54289
USER: genes 12 Torsion [CB]-CA--N-[C] |==|  0.38272
USER: genes 13 Torsion [N]-C--CA-[N] |==|  0.46076
USER: genes 14 Torsion [C]-CA--N-[C] |==|  0.41842
USER: genes 15 Torsion [N]-C--CA-[N] |==|  0.67865
USER: genes 16 Torsion [C]-CA--CB-[CG] |==|  0.53500
USER: genes 17 Torsion [CA]-CB--CG-[CD] |==|  0.36001
USER: genes 18 Torsion [CB]-CG--CD-[NE2] |==|  0.82490
ROOT
ATOM      1  CA  HIS G 812     -26.733  32.338  19.350  1.00 98.11 LIG 0.18  C 
ENDROOT
BRANCH 1 2
ATOM      2  CB  HIS G 812     -26.779  31.247  18.270  1.00 96.29 LIG 0.10  C 
BRANCH 2 3
ATOM      3  CG  HIS G 812     -27.763  30.137  18.517  1.00 94.00 LIG 0.06  A 
ATOM      4  CD2 HIS G 812     -28.364  29.719  19.648  1.00 93.71 LIG 0.14  A 
ATOM      5 NE2  HIS G 812     -29.015  28.538  19.357  1.00 93.19 LIG-0.25  NA
ATOM      6  CE1 HIS G 812     -28.822  28.260  18.079  1.00 92.78 LIG 0.23  A 
ATOM      7 ND1  HIS G 812     -28.077  29.207  17.547  1.00 93.58 LIG-0.24  NA
ENDBRANCH 2 3
ENDBRANCH 1 2
BRANCH 1 8
ATOM      8  C   HIS G 812     -25.300  32.366  19.871  1.00 99.25 LIG 0.24  C 
ATOM      9  N   GLY G 813     -24.505  33.334  19.432  1.00100.26 LIG-0.35  N 
ATOM     10 H    GLY G 813     -24.734  33.941  18.869  1.00100.26 LIG 0.16  HD
ATOM     11 O    HIS G 812     -24.928  31.524  20.691  1.00 99.52 LIG-0.27  OA
BRANCH 9 12
ATOM     12  CA  GLY G 813     -23.136  33.414  19.910  1.00101.48 LIG 0.23  C 
BRANCH 12 13
ATOM     13  C   GLY G 813     -22.178  32.534  19.126  1.00102.44 LIG 0.24  C 
ATOM     14 O    GLY G 813     -22.095  32.653  17.905  1.00102.98 LIG-0.27  OA
ATOM     15  N   GLU G 814     -21.448  31.658  19.815  1.00102.70 LIG-0.34  N 
ATOM     16 H    GLU G 814     -21.479  31.570  20.670  1.00102.70 LIG 0.16  HD
BRANCH 15 17
ATOM     17  CA  GLU G 814     -20.511  30.756  19.142  1.00102.89 LIG 0.19  C 
BRANCH 17 18
ATOM     18  CB  GLU G 814     -19.237  31.503  18.723  1.00101.97 LIG 0.05  C 
BRANCH 18 19
ATOM     19  CG  GLU G 814     -18.510  30.909  17.532  1.00100.63 LIG 0.12  C 
BRANCH 19 20
ATOM     20  CD  GLU G 814     -17.001  31.085  17.618  1.00100.36 LIG 0.17  C 
ATOM     21 OE1  GLU G 814     -16.473  31.154  18.750  1.00 99.71 LIG-0.65  OA
ATOM     22 OE2  GLU G 814     -16.342  31.148  16.559  1.00 99.42 LIG-0.65  OA
ENDBRANCH 19 20
ENDBRANCH 18 19
ENDBRANCH 17 18
BRANCH 17 23
ATOM     23  C   GLU G 814     -20.125  29.592  20.060  1.00103.78 LIG 0.20  C 
ATOM     24 OXT  GLU G 814     -19.125  28.897  19.764  1.00104.07 LIG-0.65  OA
ATOM     25 O    GLU G 814     -20.828  29.388  21.074  1.00104.32 LIG-0.65  OA
ENDBRANCH 17 23
ENDBRANCH 15 17
ENDBRANCH 12 13
ENDBRANCH 9 12
ENDBRANCH 1 8
BRANCH 1 26
ATOM     26  N   HIS G 812     -26.850  33.670  18.744  1.00 98.48 LIG-0.35  N 
ATOM     27  C   GLY G 811     -27.587  34.677  19.216  1.00 98.46 LIG 0.24  C 
ATOM     28 O    GLY G 811     -28.310  34.603  20.217  1.00 98.78 LIG-0.27  OA
ATOM     29 H    HIS G 812     -26.381  33.748  18.027  1.00 98.48 LIG 0.16  HD
BRANCH 27 30
ATOM     30  CA  GLY G 811     -27.489  35.965  18.413  1.00 98.06 LIG 0.23  C 
BRANCH 30 31
ATOM     31  N   GLY G 811     -28.492  36.980  18.682  1.00 97.66 LIG-0.35  N 
ATOM     32 H    GLY G 811     -29.253  36.678  18.945  1.00 97.66 LIG 0.16  HD
ATOM     33  C   GLN G 810     -28.207  38.271  18.520  1.00 97.43 LIG 0.26  C 
ATOM     34 O    GLN G 810     -27.112  38.668  18.121  1.00 97.76 LIG-0.27  OA
BRANCH 33 35
ATOM     35  CA  GLN G 810     -29.325  39.264  18.838  1.00 96.79 LIG 0.40  C 
ATOM     36  N   GLN G 810     -29.736  40.000  17.607  1.00 96.61 LIG 0.61  N 
BRANCH 35 37
ATOM     37  CB  GLN G 810     -30.512  38.500  19.420  1.00 96.38 LIG 0.06  C 
BRANCH 37 38
ATOM     38  CG  GLN G 810     -31.812  39.283  19.515  1.00 95.56 LIG 0.10  C 
BRANCH 38 39
ATOM     39  CD  GLN G 810     -32.975  38.528  18.910  1.00 95.11 LIG 0.21  C 
ATOM     40  NE2 GLN G 810     -32.896  38.273  17.609  1.00 94.31 LIG-0.37  N 
ATOM     41 21HE GLN G 810     -32.211  38.535  17.160  1.00 94.31 LIG 0.16  HD
ATOM     42 22HE GLN G 810     -33.530  37.845  17.215  1.00 94.31 LIG 0.16  HD
ATOM     43 OE1  GLN G 810     -33.933  38.176  19.600  1.00 94.65 LIG-0.27  OA
ENDBRANCH 38 39
ENDBRANCH 37 38
ENDBRANCH 35 37
ENDBRANCH 33 35
ENDBRANCH 30 31
ENDBRANCH 27 30
ENDBRANCH 1 26
TORSDOF 17
ENDMDL
MODEL 8
USER: ADFR SOLUTION from run 75
USER: SCORE 12.166982 LL:  -2.543 LR: -11.165 RR:   0.000 FEB:  -6.094
USER: RMSD 9.255335
USER: SEED 74
USER: STATUS no improvement in best in 12 clusters for 5 generations
USER: GENES 19
USER: genes 0 Translation |==|  0.51580 0.37150 0.41132
USER: genes 1 Rotation |==|  0.64579 0.85222 0.79126 0.64091
USER: genes 2 Torsion [C]-CA--CB-[CG] |==|  0.41211
USER: genes 3 Torsion [CA]-CB--CG-[CD2] |==|  0.69526
USER: genes 4 Torsion [N]-CA--C-[N] |==|  0.50594
USER: genes 5 Torsion [C]-N--CA-[C] |==|  0.32944
USER: genes 6 Torsion [N]-CA--C-[N] |==|  0.33334
USER: genes 7 Torsion [C]-N--CA-[CB] |==|  0.18438
USER: genes 8 Torsion [N]-CA--CB-[CG] |==|  0.72577
USER: genes 9 Torsion [CA]-CB--CG-[CD] |==|  0.74888
USER: genes 10 Torsion [CB]-CG--CD-[OE2] |==|  0.61836
USER: genes 11 Torsion [N]-CA--C-[OXT] |==|  0.13123
USER: genes 12 Torsion [CB]-CA--N-[C] |==|  0.23786
USER: genes 13 Torsion [N]-C--CA-[N] |==|  0.97853
USER: genes 14 Torsion [C]-CA--N-[C] |==|  0.27582
USER: genes 15 Torsion [N]-C--CA-[N] |==|  0.12025
USER: genes 16 Torsion [C]-CA--CB-[CG] |==|  0.76364
USER: genes 17 Torsion [CA]-CB--CG-[CD] |==|  0.18541
USER: genes 18 Torsion [CB]-CG--CD-[NE2] |==|  0.27969
ROOT
ATOM      1  CA  HIS G 812     -25.736  31.364  19.538  1.00 98.11 LIG 0.18  C 
ENDROOT
BRANCH 1 2
ATOM      2  CB  HIS G 812     -26.237  31.214  18.095  1.00 96.29 LIG 0.10  C 
BRANCH 2 3
ATOM      3  CG  HIS G 812     -26.858  29.885  17.763  1.00 94.00 LIG 0.06  A 
ATOM      4  CD2 HIS G 812     -26.427  28.872  16.986  1.00 93.71 LIG 0.14  A 
ATOM      5 NE2  HIS G 812     -27.468  27.976  16.863  1.00 93.19 LIG-0.25  NA
ATOM      6  CE1 HIS G 812     -28.496  28.430  17.559  1.00 92.78 LIG 0.23  A 
ATOM      7 ND1  HIS G 812     -28.156  29.575  18.116  1.00 93.58 LIG-0.24  NA
ENDBRANCH 2 3
ENDBRANCH 1 2
BRANCH 1 8
ATOM      8  C   HIS G 812     -24.531  32.298  19.480  1.00 99.25 LIG 0.24  C 
ATOM      9  N   GLY G 813     -23.478  31.898  18.778  1.00100.26 LIG-0.35  N 
ATOM     10 H    GLY G 813     -23.419  31.149  18.361  1.00100.26 LIG 0.16  HD
ATOM     11 O    HIS G 812     -24.572  33.389  20.050  1.00 99.52 LIG-0.27  OA
BRANCH 9 12
ATOM     12  CA  GLY G 813     -22.311  32.757  18.679  1.00101.48 LIG 0.23  C 
BRANCH 12 13
ATOM     13  C   GLY G 813     -21.057  32.130  19.262  1.00102.44 LIG 0.24  C 
ATOM     14 O    GLY G 813     -21.029  31.798  20.446  1.00102.98 LIG-0.27  OA
ATOM     15  N   GLU G 814     -20.021  31.955  18.442  1.00102.70 LIG-0.34  N 
ATOM     16 H    GLU G 814     -20.025  32.165  17.607  1.00102.70 LIG 0.16  HD
BRANCH 15 17
ATOM     17  CA  GLU G 814     -18.765  31.374  18.920  1.00102.89 LIG 0.19  C 
BRANCH 17 18
ATOM     18  CB  GLU G 814     -18.959  29.907  19.324  1.00101.97 LIG 0.05  C 
BRANCH 18 19
ATOM     19  CG  GLU G 814     -19.141  29.672  20.812  1.00100.63 LIG 0.12  C 
BRANCH 19 20
ATOM     20  CD  GLU G 814     -17.822  29.428  21.532  1.00100.36 LIG 0.17  C 
ATOM     21 OE1  GLU G 814     -16.842  30.149  21.242  1.00 99.71 LIG-0.65  OA
ATOM     22 OE2  GLU G 814     -17.765  28.523  22.391  1.00 99.42 LIG-0.65  OA
ENDBRANCH 19 20
ENDBRANCH 18 19
ENDBRANCH 17 18
BRANCH 17 23
ATOM     23  C   GLU G 814     -17.685  31.452  17.836  1.00103.78 LIG 0.20  C 
ATOM     24 OXT  GLU G 814     -17.518  32.535  17.229  1.00104.07 LIG-0.65  OA
ATOM     25 O    GLU G 814     -17.009  30.424  17.608  1.00104.32 LIG-0.65  OA
ENDBRANCH 17 23
ENDBRANCH 15 17
ENDBRANCH 12 13
ENDBRANCH 9 12
ENDBRANCH 1 8
BRANCH 1 26
ATOM     26  N   HIS G 812     -26.682  32.156  20.334  1.00 98.48 LIG-0.35  N 
ATOM     27  C   GLY G 811     -27.757  31.680  20.966  1.00 98.46 LIG 0.24  C 
ATOM     28 O    GLY G 811     -28.122  30.499  20.927  1.00 98.78 LIG-0.27  OA
ATOM     29 H    HIS G 812     -26.473  32.990  20.359  1.00 98.48 LIG 0.16  HD
BRANCH 27 30
ATOM     30  CA  GLY G 811     -28.538  32.718  21.756  1.00 98.06 LIG 0.23  C 
BRANCH 30 31
ATOM     31  N   GLY G 811     -27.940  34.036  21.872  1.00 97.66 LIG-0.35  N 
ATOM     32 H    GLY G 811     -27.333  34.107  22.477  1.00 97.66 LIG 0.16  HD
ATOM     33  C   GLN G 810     -28.335  35.029  21.078  1.00 97.43 LIG 0.26  C 
ATOM     34 O    GLN G 810     -29.223  34.898  20.235  1.00 97.76 LIG-0.27  OA
BRANCH 33 35
ATOM     35  CA  GLN G 810     -27.639  36.376  21.269  1.00 96.79 LIG 0.40  C 
ATOM     36  N   GLN G 810     -26.168  36.187  21.432  1.00 96.61 LIG 0.61  N 
BRANCH 35 37
ATOM     37  CB  GLN G 810     -27.928  37.258  20.056  1.00 96.38 LIG 0.06  C 
BRANCH 37 38
ATOM     38  CG  GLN G 810     -27.000  37.061  18.867  1.00 95.56 LIG 0.10  C 
BRANCH 38 39
ATOM     39  CD  GLN G 810     -27.167  35.697  18.236  1.00 95.11 LIG 0.21  C 
ATOM     40  NE2 GLN G 810     -27.899  35.648  17.129  1.00 94.31 LIG-0.37  N 
ATOM     41 21HE GLN G 810     -28.248  36.367  16.812  1.00 94.31 LIG 0.16  HD
ATOM     42 22HE GLN G 810     -28.024  34.897  16.729  1.00 94.31 LIG 0.16  HD
ATOM     43 OE1  GLN G 810     -26.644  34.698  18.733  1.00 94.65 LIG-0.27  OA
ENDBRANCH 38 39
ENDBRANCH 37 38
ENDBRANCH 35 37
ENDBRANCH 33 35
ENDBRANCH 30 31
ENDBRANCH 27 30
ENDBRANCH 1 26
TORSDOF 17
ENDMDL
MODEL 9
USER: ADFR SOLUTION from run 169
USER: SCORE 11.260438 LL:  -2.006 LR: -11.132 RR:   0.000 FEB:  -6.061
USER: RMSD 10.652380
USER: SEED 168
USER: STATUS no improvement in best in 17 clusters for 5 generations
USER: GENES 19
USER: genes 0 Translation |==|  0.53995 0.37606 0.42335
USER: genes 1 Rotation |==|  0.72830 0.81806 0.80719 0.54856
USER: genes 2 Torsion [C]-CA--CB-[CG] |==|  0.43202
USER: genes 3 Torsion [CA]-CB--CG-[CD2] |==|  0.17245
USER: genes 4 Torsion [N]-CA--C-[N] |==|  0.43608
USER: genes 5 Torsion [C]-N--CA-[C] |==|  0.30374
USER: genes 6 Torsion [N]-CA--C-[N] |==|  0.31584
USER: genes 7 Torsion [C]-N--CA-[CB] |==|  0.20475
USER: genes 8 Torsion [N]-CA--CB-[CG] |==|  0.74132
USER: genes 9 Torsion [CA]-CB--CG-[CD] |==|  0.72107
USER: genes 10 Torsion [CB]-CG--CD-[OE2] |==|  0.71742
USER: genes 11 Torsion [N]-CA--C-[OXT] |==|  0.62107
USER: genes 12 Torsion [CB]-CA--N-[C] |==|  0.46111
USER: genes 13 Torsion [N]-C--CA-[N] |==|  0.13220
USER: genes 14 Torsion [C]-CA--N-[C] |==|  0.78052
USER: genes 15 Torsion [N]-C--CA-[N] |==|  0.71863
USER: genes 16 Torsion [C]-CA--CB-[CG] |==|  0.24638
USER: genes 17 Torsion [CA]-CB--CG-[CD] |==|  0.54130
USER: genes 18 Torsion [CB]-CG--CD-[NE2] |==|  0.11063
ROOT
ATOM      1  CA  HIS G 812     -25.265  31.449  19.836  1.00 98.11 LIG 0.18  C 
ENDROOT
BRANCH 1 2
ATOM      2  CB  HIS G 812     -26.284  31.759  18.730  1.00 96.29 LIG 0.10  C 
BRANCH 2 3
ATOM      3  CG  HIS G 812     -27.230  30.639  18.394  1.00 94.00 LIG 0.06  A 
ATOM      4  CD2 HIS G 812     -28.157  30.006  19.139  1.00 93.71 LIG 0.14  A 
ATOM      5 NE2  HIS G 812     -28.602  28.923  18.410  1.00 93.19 LIG-0.25  NA
ATOM      6  CE1 HIS G 812     -27.968  28.911  17.249  1.00 92.78 LIG 0.23  A 
ATOM      7 ND1  HIS G 812     -27.140  29.935  17.210  1.00 93.58 LIG-0.24  NA
ENDBRANCH 2 3
ENDBRANCH 1 2
BRANCH 1 8
ATOM      8  C   HIS G 812     -24.082  32.384  19.603  1.00 99.25 LIG 0.24  C 
ATOM      9  N   GLY G 813     -23.129  31.974  18.776  1.00100.26 LIG-0.35  N 
ATOM     10 H    GLY G 813     -23.123  31.218  18.367  1.00100.26 LIG 0.16  HD
ATOM     11 O    HIS G 812     -24.051  33.485  20.156  1.00 99.52 LIG-0.27  OA
BRANCH 9 12
ATOM     12  CA  GLY G 813     -21.988  32.833  18.509  1.00101.48 LIG 0.23  C 
BRANCH 12 13
ATOM     13  C   GLY G 813     -20.699  32.322  19.128  1.00102.44 LIG 0.24  C 
ATOM     14 O    GLY G 813     -20.582  32.277  20.352  1.00102.98 LIG-0.27  OA
ATOM     15  N   GLU G 814     -19.734  31.929  18.297  1.00102.70 LIG-0.34  N 
ATOM     16 H    GLU G 814     -19.802  31.938  17.440  1.00102.70 LIG 0.16  HD
BRANCH 15 17
ATOM     17  CA  GLU G 814     -18.451  31.439  18.804  1.00102.89 LIG 0.19  C 
BRANCH 17 18
ATOM     18  CB  GLU G 814     -18.597  30.031  19.396  1.00101.97 LIG 0.05  C 
BRANCH 18 19
ATOM     19  CG  GLU G 814     -18.862  29.990  20.888  1.00100.63 LIG 0.12  C 
BRANCH 19 20
ATOM     20  CD  GLU G 814     -17.611  29.679  21.697  1.00100.36 LIG 0.17  C 
ATOM     21 OE1  GLU G 814     -16.787  30.599  21.898  1.00 99.71 LIG-0.65  OA
ATOM     22 OE2  GLU G 814     -17.452  28.521  22.137  1.00 99.42 LIG-0.65  OA
ENDBRANCH 19 20
ENDBRANCH 18 19
ENDBRANCH 17 18
BRANCH 17 23
ATOM     23  C   GLU G 814     -17.405  31.401  17.684  1.00103.78 LIG 0.20  C 
ATOM     24 OXT  GLU G 814     -16.659  30.399  17.591  1.00104.07 LIG-0.65  OA
ATOM     25 O    GLU G 814     -17.347  32.378  16.904  1.00104.32 LIG-0.65  OA
ENDBRANCH 17 23
ENDBRANCH 15 17
ENDBRANCH 12 13
ENDBRANCH 9 12
ENDBRANCH 1 8
BRANCH 1 26
ATOM     26  N   HIS G 812     -25.756  31.918  21.138  1.00 98.48 LIG-0.35  N 
ATOM     27  C   GLY G 811     -25.252  31.580  22.327  1.00 98.46 LIG 0.24  C 
ATOM     28 O    GLY G 811     -24.318  30.785  22.488  1.00 98.78 LIG-0.27  OA
ATOM     29 H    HIS G 812     -26.426  32.452  21.064  1.00 98.48 LIG 0.16  HD
BRANCH 27 30
ATOM     30  CA  GLY G 811     -25.927  32.250  23.514  1.00 98.06 LIG 0.23  C 
BRANCH 30 31
ATOM     31  N   GLY G 811     -27.379  32.229  23.535  1.00 97.66 LIG-0.35  N 
ATOM     32 H    GLY G 811     -27.726  31.635  24.051  1.00 97.66 LIG 0.16  HD
ATOM     33  C   GLN G 810     -28.077  33.086  22.793  1.00 97.43 LIG 0.26  C 
ATOM     34 O    GLN G 810     -27.547  33.911  22.048  1.00 97.76 LIG-0.27  OA
BRANCH 33 35
ATOM     35  CA  GLN G 810     -29.600  32.993  22.890  1.00 96.79 LIG 0.40  C 
ATOM     36  N   GLN G 810     -30.156  32.264  21.713  1.00 96.61 LIG 0.61  N 
BRANCH 35 37
ATOM     37  CB  GLN G 810     -29.968  32.269  24.183  1.00 96.38 LIG 0.06  C 
BRANCH 37 38
ATOM     38  CG  GLN G 810     -30.127  33.156  25.409  1.00 95.56 LIG 0.10  C 
BRANCH 38 39
ATOM     39  CD  GLN G 810     -30.131  32.356  26.692  1.00 95.11 LIG 0.21  C 
ATOM     40  NE2 GLN G 810     -29.272  31.344  26.756  1.00 94.31 LIG-0.37  N 
ATOM     41 21HE GLN G 810     -28.756  31.176  26.089  1.00 94.31 LIG 0.16  HD
ATOM     42 22HE GLN G 810     -29.233  30.858  27.464  1.00 94.31 LIG 0.16  HD
ATOM     43 OE1  GLN G 810     -30.893  32.641  27.617  1.00 94.65 LIG-0.27  OA
ENDBRANCH 38 39
ENDBRANCH 37 38
ENDBRANCH 35 37
ENDBRANCH 33 35
ENDBRANCH 30 31
ENDBRANCH 27 30
ENDBRANCH 1 26
TORSDOF 17
ENDMDL
MODEL 10
USER: ADFR SOLUTION from run 136
USER: SCORE 11.282046 LL:  -2.457 LR: -11.060 RR:   0.000 FEB:  -5.989
USER: RMSD 6.001391
USER: SEED 135
USER: STATUS no improvement in best in 16 clusters for 5 generations
USER: GENES 19
USER: genes 0 Translation |==|  0.38553 0.37698 0.45867
USER: genes 1 Rotation |==|  0.45670 0.45623 0.42345 0.99025
USER: genes 2 Torsion [C]-CA--CB-[CG] |==|  0.42335
USER: genes 3 Torsion [CA]-CB--CG-[CD2] |==|  0.72262
USER: genes 4 Torsion [N]-CA--C-[N] |==|  0.46729
USER: genes 5 Torsion [C]-N--CA-[C] |==|  0.36090
USER: genes 6 Torsion [N]-CA--C-[N] |==|  0.14050
USER: genes 7 Torsion [C]-N--CA-[CB] |==|  0.30977
USER: genes 8 Torsion [N]-CA--CB-[CG] |==|  0.70917
USER: genes 9 Torsion [CA]-CB--CG-[CD] |==|  0.71231
USER: genes 10 Torsion [CB]-CG--CD-[OE2] |==|  0.22377
USER: genes 11 Torsion [N]-CA--C-[OXT] |==|  0.44684
USER: genes 12 Torsion [CB]-CA--N-[C] |==|  0.20556
USER: genes 13 Torsion [N]-C--CA-[N] |==|  0.79121
USER: genes 14 Torsion [C]-CA--N-[C] |==|  0.22218
USER: genes 15 Torsion [N]-C--CA-[N] |==|  0.80200
USER: genes 16 Torsion [C]-CA--CB-[CG] |==|  0.22355
USER: genes 17 Torsion [CA]-CB--CG-[CD] |==|  0.71724
USER: genes 18 Torsion [CB]-CG--CD-[NE2] |==|  0.92353
ROOT
ATOM      1  CA  HIS G 812     -28.276  31.466  20.710  1.00 98.11 LIG 0.18  C 
ENDROOT
BRANCH 1 2
ATOM      2  CB  HIS G 812     -28.422  29.939  20.758  1.00 96.29 LIG 0.10  C 
BRANCH 2 3
ATOM      3  CG  HIS G 812     -28.840  29.291  19.467  1.00 94.00 LIG 0.06  A 
ATOM      4  CD2 HIS G 812     -30.041  28.853  19.041  1.00 93.71 LIG 0.14  A 
ATOM      5 NE2  HIS G 812     -29.835  28.160  17.867  1.00 93.19 LIG-0.25  NA
ATOM      6  CE1 HIS G 812     -28.543  28.191  17.585  1.00 92.78 LIG 0.23  A 
ATOM      7 ND1  HIS G 812     -27.921  28.869  18.527  1.00 93.58 LIG-0.24  NA
ENDBRANCH 2 3
ENDBRANCH 1 2
BRANCH 1 8
ATOM      8  C   HIS G 812     -28.545  31.968  22.125  1.00 99.25 LIG 0.24  C 
ATOM      9  N   GLY G 813     -29.807  32.001  22.536  1.00100.26 LIG-0.35  N 
ATOM     10 H    GLY G 813     -30.486  31.770  22.061  1.00100.26 LIG 0.16  HD
ATOM     11 O    HIS G 812     -27.604  32.298  22.850  1.00 99.52 LIG-0.27  OA
BRANCH 9 12
ATOM     12  CA  GLY G 813     -30.116  32.456  23.880  1.00101.48 LIG 0.23  C 
BRANCH 12 13
ATOM     13  C   GLY G 813     -31.205  33.513  23.917  1.00102.44 LIG 0.24  C 
ATOM     14 O    GLY G 813     -31.022  34.563  24.530  1.00102.98 LIG-0.27  OA
ATOM     15  N   GLU G 814     -32.334  33.252  23.260  1.00102.70 LIG-0.34  N 
ATOM     16 H    GLU G 814     -32.477  32.531  22.812  1.00102.70 LIG 0.16  HD
BRANCH 15 17
ATOM     17  CA  GLU G 814     -33.447  34.205  23.254  1.00102.89 LIG 0.19  C 
BRANCH 17 18
ATOM     18  CB  GLU G 814     -33.640  34.812  21.858  1.00101.97 LIG 0.05  C 
BRANCH 18 19
ATOM     19  CG  GLU G 814     -33.147  36.238  21.708  1.00100.63 LIG 0.12  C 
BRANCH 19 20
ATOM     20  CD  GLU G 814     -34.281  37.253  21.706  1.00100.36 LIG 0.17  C 
ATOM     21 OE1  GLU G 814     -34.686  37.693  20.608  1.00 99.71 LIG-0.65  OA
ATOM     22 OE2  GLU G 814     -34.771  37.608  22.799  1.00 99.42 LIG-0.65  OA
ENDBRANCH 19 20
ENDBRANCH 18 19
ENDBRANCH 17 18
BRANCH 17 23
ATOM     23  C   GLU G 814     -34.748  33.521  23.683  1.00103.78 LIG 0.20  C 
ATOM     24 OXT  GLU G 814     -35.700  34.232  24.081  1.00104.07 LIG-0.65  OA
ATOM     25 O    GLU G 814     -34.805  32.273  23.612  1.00104.32 LIG-0.65  OA
ENDBRANCH 17 23
ENDBRANCH 15 17
ENDBRANCH 12 13
ENDBRANCH 9 12
ENDBRANCH 1 8
BRANCH 1 26
ATOM     26  N   HIS G 812     -26.869  31.846  20.528  1.00 98.48 LIG-0.35  N 
ATOM     27  C   GLY G 811     -26.175  31.738  19.393  1.00 98.46 LIG 0.24  C 
ATOM     28 O    GLY G 811     -26.624  31.259  18.345  1.00 98.78 LIG-0.27  OA
ATOM     29 H    HIS G 812     -26.517  32.157  21.248  1.00 98.48 LIG 0.16  HD
BRANCH 27 30
ATOM     30  CA  GLY G 811     -24.745  32.249  19.475  1.00 98.06 LIG 0.23  C 
BRANCH 30 31
ATOM     31  N   GLY G 811     -24.567  33.691  19.483  1.00 97.66 LIG-0.35  N 
ATOM     32 H    GLY G 811     -24.344  34.033  18.727  1.00 97.66 LIG 0.16  HD
ATOM     33  C   GLN G 810     -24.747  34.386  20.604  1.00 97.43 LIG 0.26  C 
ATOM     34 O    GLN G 810     -25.047  33.861  21.677  1.00 97.76 LIG-0.27  OA
BRANCH 33 35
ATOM     35  CA  GLN G 810     -24.546  35.899  20.510  1.00 96.79 LIG 0.40  C 
ATOM     36  N   GLN G 810     -23.100  36.225  20.342  1.00 96.61 LIG 0.61  N 
BRANCH 35 37
ATOM     37  CB  GLN G 810     -25.350  36.431  19.326  1.00 96.38 LIG 0.06  C 
BRANCH 37 38
ATOM     38  CG  GLN G 810     -26.835  36.641  19.583  1.00 95.56 LIG 0.10  C 
BRANCH 38 39
ATOM     39  CD  GLN G 810     -27.675  35.525  19.004  1.00 95.11 LIG 0.21  C 
ATOM     40  NE2 GLN G 810     -27.169  34.896  17.948  1.00 94.31 LIG-0.37  N 
ATOM     41 21HE GLN G 810     -26.405  35.133  17.632  1.00 94.31 LIG 0.16  HD
ATOM     42 22HE GLN G 810     -27.605  34.253  17.580  1.00 94.31 LIG 0.16  HD
ATOM     43 OE1  GLN G 810     -28.764  35.227  19.496  1.00 94.65 LIG-0.27  OA
ENDBRANCH 38 39
ENDBRANCH 37 38
ENDBRANCH 35 37
ENDBRANCH 33 35
ENDBRANCH 30 31
ENDBRANCH 27 30
ENDBRANCH 1 26
TORSDOF 17
ENDMDL
MODEL 11
USER: ADFR SOLUTION from run 10
USER: SCORE 12.269157 LL:  -2.372 LR: -11.038 RR:   0.000 FEB:  -5.967
USER: RMSD 11.132264
USER: SEED 702197
USER: STATUS no improvement in best in 8 clusters for 5 generations
USER: GENES 19
USER: genes 0 Translation |==|  0.71933 0.66479 0.17943
USER: genes 1 Rotation |==|  0.67355 0.63478 0.86710 0.75875
USER: genes 2 Torsion [C]-CA--CB-[CG] |==|  0.21497
USER: genes 3 Torsion [CA]-CB--CG-[CD2] |==|  0.12658
USER: genes 4 Torsion [N]-CA--C-[N] |==|  0.11726
USER: genes 5 Torsion [C]-N--CA-[C] |==|  0.62500
USER: genes 6 Torsion [N]-CA--C-[N] |==|  0.39484
USER: genes 7 Torsion [C]-N--CA-[CB] |==|  0.41731
USER: genes 8 Torsion [N]-CA--CB-[CG] |==|  0.85126
USER: genes 9 Torsion [CA]-CB--CG-[CD] |==|  0.45862
USER: genes 10 Torsion [CB]-CG--CD-[OE2] |==|  0.57946
USER: genes 11 Torsion [N]-CA--C-[OXT] |==|  0.26094
USER: genes 12 Torsion [CB]-CA--N-[C] |==|  0.15407
USER: genes 13 Torsion [N]-C--CA-[N] |==|  0.81268
USER: genes 14 Torsion [C]-CA--N-[C] |==|  0.19556
USER: genes 15 Torsion [N]-C--CA-[N] |==|  0.47799
USER: genes 16 Torsion [C]-CA--CB-[CG] |==|  0.35926
USER: genes 17 Torsion [CA]-CB--CG-[CD] |==|  0.05618
USER: genes 18 Torsion [CB]-CG--CD-[NE2] |==|  0.79002
ROOT
ATOM      1  CA  HIS G 812     -21.767  36.863  13.799  1.00 98.11 LIG 0.18  C 
ENDROOT
BRANCH 1 2
ATOM      2  CB  HIS G 812     -21.169  37.620  12.605  1.00 96.29 LIG 0.10  C 
BRANCH 2 3
ATOM      3  CG  HIS G 812     -20.273  36.808  11.711  1.00 94.00 LIG 0.06  A 
ATOM      4  CD2 HIS G 812     -20.422  35.574  11.189  1.00 93.71 LIG 0.14  A 
ATOM      5 NE2  HIS G 812     -19.220  35.225  10.608  1.00 93.19 LIG-0.25  NA
ATOM      6  CE1 HIS G 812     -18.374  36.229  10.764  1.00 92.78 LIG 0.23  A 
ATOM      7 ND1  HIS G 812     -18.981  37.197  11.419  1.00 93.58 LIG-0.24  NA
ENDBRANCH 2 3
ENDBRANCH 1 2
BRANCH 1 8
ATOM      8  C   HIS G 812     -20.655  36.751  14.837  1.00 99.25 LIG 0.24  C 
ATOM      9  N   GLY G 813     -21.012  36.552  16.100  1.00100.26 LIG-0.35  N 
ATOM     10 H    GLY G 813     -21.822  36.490  16.379  1.00100.26 LIG 0.16  HD
ATOM     11 O    HIS G 812     -19.476  36.819  14.484  1.00 99.52 LIG-0.27  OA
BRANCH 9 12
ATOM     12  CA  GLY G 813     -19.991  36.423  17.125  1.00101.48 LIG 0.23  C 
BRANCH 12 13
ATOM     13  C   GLY G 813     -20.249  35.273  18.083  1.00102.44 LIG 0.24  C 
ATOM     14 O    GLY G 813     -21.399  35.013  18.435  1.00102.98 LIG-0.27  OA
ATOM     15  N   GLU G 814     -19.193  34.577  18.502  1.00102.70 LIG-0.34  N 
ATOM     16 H    GLU G 814     -18.384  34.732  18.257  1.00102.70 LIG 0.16  HD
BRANCH 15 17
ATOM     17  CA  GLU G 814     -19.344  33.462  19.441  1.00102.89 LIG 0.19  C 
BRANCH 17 18
ATOM     18  CB  GLU G 814     -18.250  32.409  19.220  1.00101.97 LIG 0.05  C 
BRANCH 18 19
ATOM     19  CG  GLU G 814     -18.132  31.899  17.797  1.00100.63 LIG 0.12  C 
BRANCH 19 20
ATOM     20  CD  GLU G 814     -16.831  31.149  17.549  1.00100.36 LIG 0.17  C 
ATOM     21 OE1  GLU G 814     -16.294  30.553  18.509  1.00 99.71 LIG-0.65  OA
ATOM     22 OE2  GLU G 814     -16.347  31.148  16.398  1.00 99.42 LIG-0.65  OA
ENDBRANCH 19 20
ENDBRANCH 18 19
ENDBRANCH 17 18
BRANCH 17 23
ATOM     23  C   GLU G 814     -19.272  33.959  20.888  1.00103.78 LIG 0.20  C 
ATOM     24 OXT  GLU G 814     -20.339  34.233  21.485  1.00104.07 LIG-0.65  OA
ATOM     25 O    GLU G 814     -18.142  34.064  21.415  1.00104.32 LIG-0.65  OA
ENDBRANCH 17 23
ENDBRANCH 15 17
ENDBRANCH 12 13
ENDBRANCH 9 12
ENDBRANCH 1 8
BRANCH 1 26
ATOM     26  N   HIS G 812     -22.744  37.701  14.506  1.00 98.48 LIG-0.35  N 
ATOM     27  C   GLY G 811     -23.810  38.286  13.955  1.00 98.46 LIG 0.24  C 
ATOM     28 O    GLY G 811     -24.092  38.230  12.752  1.00 98.78 LIG-0.27  OA
ATOM     29 H    HIS G 812     -22.561  37.785  15.342  1.00 98.48 LIG 0.16  HD
BRANCH 27 30
ATOM     30  CA  GLY G 811     -24.681  39.062  14.930  1.00 98.06 LIG 0.23  C 
BRANCH 30 31
ATOM     31  N   GLY G 811     -25.396  38.285  15.927  1.00 97.66 LIG-0.35  N 
ATOM     32 H    GLY G 811     -26.247  38.247  15.816  1.00 97.66 LIG 0.16  HD
ATOM     33  C   GLN G 810     -24.737  37.694  16.922  1.00 97.43 LIG 0.26  C 
ATOM     34 O    GLN G 810     -23.517  37.786  17.064  1.00 97.76 LIG-0.27  OA
BRANCH 33 35
ATOM     35  CA  GLN G 810     -25.575  36.890  17.916  1.00 96.79 LIG 0.40  C 
ATOM     36  N   GLN G 810     -24.694  36.134  18.853  1.00 96.61 LIG 0.61  N 
BRANCH 35 37
ATOM     37  CB  GLN G 810     -26.475  37.850  18.691  1.00 96.38 LIG 0.06  C 
BRANCH 37 38
ATOM     38  CG  GLN G 810     -27.948  37.475  18.737  1.00 95.56 LIG 0.10  C 
BRANCH 38 39
ATOM     39  CD  GLN G 810     -28.171  36.010  18.437  1.00 95.11 LIG 0.21  C 
ATOM     40  NE2 GLN G 810     -28.062  35.648  17.163  1.00 94.31 LIG-0.37  N 
ATOM     41 21HE GLN G 810     -27.876  36.236  16.563  1.00 94.31 LIG 0.16  HD
ATOM     42 22HE GLN G 810     -28.178  34.826  16.937  1.00 94.31 LIG 0.16  HD
ATOM     43 OE1  GLN G 810     -28.435  35.209  19.335  1.00 94.65 LIG-0.27  OA
ENDBRANCH 38 39
ENDBRANCH 37 38
ENDBRANCH 35 37
ENDBRANCH 33 35
ENDBRANCH 30 31
ENDBRANCH 27 30
ENDBRANCH 1 26
TORSDOF 17
ENDMDL
MODEL 12
USER: ADFR SOLUTION from run 129
USER: SCORE 11.136114 LL:  -1.886 LR: -10.986 RR:   0.000 FEB:  -5.915
USER: RMSD 10.645230
USER: SEED 128
USER: STATUS no improvement in best in 20 clusters for 5 generations
USER: GENES 19
USER: genes 0 Translation |==|  0.48379 0.35987 0.42518
USER: genes 1 Rotation |==|  0.67282 0.85228 0.78926 0.61116
USER: genes 2 Torsion [C]-CA--CB-[CG] |==|  0.35924
USER: genes 3 Torsion [CA]-CB--CG-[CD2] |==|  0.73994
USER: genes 4 Torsion [N]-CA--C-[N] |==|  0.48152
USER: genes 5 Torsion [C]-N--CA-[C] |==|  0.32740
USER: genes 6 Torsion [N]-CA--C-[N] |==|  0.39409
USER: genes 7 Torsion [C]-N--CA-[CB] |==|  0.15768
USER: genes 8 Torsion [N]-CA--CB-[CG] |==|  0.69023
USER: genes 9 Torsion [CA]-CB--CG-[CD] |==|  0.76492
USER: genes 10 Torsion [CB]-CG--CD-[OE2] |==|  0.09076
USER: genes 11 Torsion [N]-CA--C-[OXT] |==|  0.70680
USER: genes 12 Torsion [CB]-CA--N-[C] |==|  0.17110
USER: genes 13 Torsion [N]-C--CA-[N] |==|  0.36265
USER: genes 14 Torsion [C]-CA--N-[C] |==|  0.74558
USER: genes 15 Torsion [N]-C--CA-[N] |==|  0.87096
USER: genes 16 Torsion [C]-CA--CB-[CG] |==|  0.57669
USER: genes 17 Torsion [CA]-CB--CG-[CD] |==|  0.26225
USER: genes 18 Torsion [CB]-CG--CD-[NE2] |==|  0.38954
ROOT
ATOM      1  CA  HIS G 812     -26.360  31.146  19.881  1.00 98.11 LIG 0.18  C 
ENDROOT
BRANCH 1 2
ATOM      2  CB  HIS G 812     -27.072  31.085  18.522  1.00 96.29 LIG 0.10  C 
BRANCH 2 3
ATOM      3  CG  HIS G 812     -27.360  29.701  18.008  1.00 94.00 LIG 0.06  A 
ATOM      4  CD2 HIS G 812     -26.661  28.897  17.183  1.00 93.71 LIG 0.14  A 
ATOM      5 NE2  HIS G 812     -27.467  27.821  16.875  1.00 93.19 LIG-0.25  NA
ATOM      6  CE1 HIS G 812     -28.619  27.967  17.509  1.00 92.78 LIG 0.23  A 
ATOM      7 ND1  HIS G 812     -28.580  29.087  18.202  1.00 93.58 LIG-0.24  NA
ENDBRANCH 2 3
ENDBRANCH 1 2
BRANCH 1 8
ATOM      8  C   HIS G 812     -25.165  32.076  19.699  1.00 99.25 LIG 0.24  C 
ATOM      9  N   GLY G 813     -24.150  31.635  18.966  1.00100.26 LIG-0.35  N 
ATOM     10 H    GLY G 813     -24.111  30.862  18.593  1.00100.26 LIG 0.16  HD
ATOM     11 O    HIS G 812     -25.179  33.201  20.202  1.00 99.52 LIG-0.27  OA
BRANCH 9 12
ATOM     12  CA  GLY G 813     -22.994  32.488  18.749  1.00101.48 LIG 0.23  C 
BRANCH 12 13
ATOM     13  C   GLY G 813     -21.710  31.908  19.314  1.00102.44 LIG 0.24  C 
ATOM     14 O    GLY G 813     -21.730  31.296  20.381  1.00102.98 LIG-0.27  OA
ATOM     15  N   GLU G 814     -20.595  32.085  18.607  1.00102.70 LIG-0.34  N 
ATOM     16 H    GLU G 814     -20.561  32.495  17.852  1.00102.70 LIG 0.16  HD
BRANCH 15 17
ATOM     17  CA  GLU G 814     -19.307  31.575  19.082  1.00102.89 LIG 0.19  C 
BRANCH 17 18
ATOM     18  CB  GLU G 814     -19.374  30.062  19.330  1.00101.97 LIG 0.05  C 
BRANCH 18 19
ATOM     19  CG  GLU G 814     -19.280  29.648  20.786  1.00100.63 LIG 0.12  C 
BRANCH 19 20
ATOM     20  CD  GLU G 814     -17.842  29.534  21.271  1.00100.36 LIG 0.17  C 
ATOM     21 OE1  GLU G 814     -17.571  28.669  22.134  1.00 99.71 LIG-0.65  OA
ATOM     22 OE2  GLU G 814     -16.982  30.301  20.789  1.00 99.42 LIG-0.65  OA
ENDBRANCH 19 20
ENDBRANCH 18 19
ENDBRANCH 17 18
BRANCH 17 23
ATOM     23  C   GLU G 814     -18.200  31.863  18.062  1.00103.78 LIG 0.20  C 
ATOM     24 OXT  GLU G 814     -17.762  30.918  17.367  1.00104.07 LIG-0.65  OA
ATOM     25 O    GLU G 814     -17.785  33.039  17.966  1.00104.32 LIG-0.65  OA
ENDBRANCH 17 23
ENDBRANCH 15 17
ENDBRANCH 12 13
ENDBRANCH 9 12
ENDBRANCH 1 8
BRANCH 1 26
ATOM     26  N   HIS G 812     -27.167  31.893  20.854  1.00 98.48 LIG-0.35  N 
ATOM     27  C   GLY G 811     -28.389  31.558  21.273  1.00 98.46 LIG 0.24  C 
ATOM     28 O    GLY G 811     -29.024  30.581  20.858  1.00 98.78 LIG-0.27  OA
ATOM     29 H    HIS G 812     -26.765  32.597  21.143  1.00 98.48 LIG 0.16  HD
BRANCH 27 30
ATOM     30  CA  GLY G 811     -28.976  32.489  22.322  1.00 98.06 LIG 0.23  C 
BRANCH 30 31
ATOM     31  N   GLY G 811     -30.325  32.972  22.083  1.00 97.66 LIG-0.35  N 
ATOM     32 H    GLY G 811     -30.951  32.467  22.389  1.00 97.66 LIG 0.16  HD
ATOM     33  C   GLN G 810     -30.527  34.117  21.434  1.00 97.43 LIG 0.26  C 
ATOM     34 O    GLN G 810     -29.607  34.805  20.990  1.00 97.76 LIG-0.27  OA
BRANCH 33 35
ATOM     35  CA  GLN G 810     -31.981  34.546  21.240  1.00 96.79 LIG 0.40  C 
ATOM     36  N   GLN G 810     -32.805  33.398  20.759  1.00 96.61 LIG 0.61  N 
BRANCH 35 37
ATOM     37  CB  GLN G 810     -32.523  35.067  22.569  1.00 96.38 LIG 0.06  C 
BRANCH 37 38
ATOM     38  CG  GLN G 810     -34.024  34.922  22.766  1.00 95.56 LIG 0.10  C 
BRANCH 38 39
ATOM     39  CD  GLN G 810     -34.380  33.655  23.511  1.00 95.11 LIG 0.21  C 
ATOM     40  NE2 GLN G 810     -35.356  33.755  24.407  1.00 94.31 LIG-0.37  N 
ATOM     41 21HE GLN G 810     -35.744  34.512  24.538  1.00 94.31 LIG 0.16  HD
ATOM     42 22HE GLN G 810     -35.598  33.064  24.858  1.00 94.31 LIG 0.16  HD
ATOM     43 OE1  GLN G 810     -33.790  32.597  23.285  1.00 94.65 LIG-0.27  OA
ENDBRANCH 38 39
ENDBRANCH 37 38
ENDBRANCH 35 37
ENDBRANCH 33 35
ENDBRANCH 30 31
ENDBRANCH 27 30
ENDBRANCH 1 26
TORSDOF 17
ENDMDL
MODEL 13
USER: ADFR SOLUTION from run 67
USER: SCORE 10.346439 LL:  -1.096 LR: -10.992 RR:   0.000 FEB:  -5.920
USER: RMSD 11.559788
USER: SEED 66
USER: STATUS no improvement in best in 31 clusters for 5 generations
USER: GENES 19
USER: genes 0 Translation |==|  0.48890 0.36614 0.48021
USER: genes 1 Rotation |==|  0.17936 0.34110 0.16514 0.59905
USER: genes 2 Torsion [C]-CA--CB-[CG] |==|  0.13939
USER: genes 3 Torsion [CA]-CB--CG-[CD2] |==|  0.03198
USER: genes 4 Torsion [N]-CA--C-[N] |==|  0.32671
USER: genes 5 Torsion [C]-N--CA-[C] |==|  0.33303
USER: genes 6 Torsion [N]-CA--C-[N] |==|  0.17616
USER: genes 7 Torsion [C]-N--CA-[CB] |==|  0.83681
USER: genes 8 Torsion [N]-CA--CB-[CG] |==|  0.72341
USER: genes 9 Torsion [CA]-CB--CG-[CD] |==|  0.62739
USER: genes 10 Torsion [CB]-CG--CD-[OE2] |==|  0.50991
USER: genes 11 Torsion [N]-CA--C-[OXT] |==|  0.62382
USER: genes 12 Torsion [CB]-CA--N-[C] |==|  0.59454
USER: genes 13 Torsion [N]-C--CA-[N] |==|  0.92197
USER: genes 14 Torsion [C]-CA--N-[C] |==|  0.62222
USER: genes 15 Torsion [N]-C--CA-[N] |==|  0.95136
USER: genes 16 Torsion [C]-CA--CB-[CG] |==|  0.56825
USER: genes 17 Torsion [CA]-CB--CG-[CD] |==|  0.50460
USER: genes 18 Torsion [CB]-CG--CD-[NE2] |==|  0.87362
ROOT
ATOM      1  CA  HIS G 812     -26.261  31.263  21.243  1.00 98.11 LIG 0.18  C 
ENDROOT
BRANCH 1 2
ATOM      2  CB  HIS G 812     -27.462  32.218  21.297  1.00 96.29 LIG 0.10  C 
BRANCH 2 3
ATOM      3  CG  HIS G 812     -27.502  33.264  20.218  1.00 94.00 LIG 0.06  A 
ATOM      4  CD2 HIS G 812     -26.784  33.400  19.086  1.00 93.71 LIG 0.14  A 
ATOM      5 NE2  HIS G 812     -27.078  34.640  18.558  1.00 93.19 LIG-0.25  NA
ATOM      6  CE1 HIS G 812     -27.960  35.231  19.345  1.00 92.78 LIG 0.23  A 
ATOM      7 ND1  HIS G 812     -28.238  34.424  20.349  1.00 93.58 LIG-0.24  NA
ENDBRANCH 2 3
ENDBRANCH 1 2
BRANCH 1 8
ATOM      8  C   HIS G 812     -25.019  32.141  21.124  1.00 99.25 LIG 0.24  C 
ATOM      9  N   GLY G 813     -24.182  31.890  20.126  1.00100.26 LIG-0.35  N 
ATOM     10 H    GLY G 813     -24.281  31.264  19.546  1.00100.26 LIG 0.16  HD
ATOM     11 O    HIS G 812     -24.839  33.062  21.924  1.00 99.52 LIG-0.27  OA
BRANCH 9 12
ATOM     12  CA  GLY G 813     -22.992  32.707  19.960  1.00101.48 LIG 0.23  C 
BRANCH 12 13
ATOM     13  C   GLY G 813     -21.703  31.909  20.046  1.00102.44 LIG 0.24  C 
ATOM     14 O    GLY G 813     -20.905  32.128  20.955  1.00102.98 LIG-0.27  OA
ATOM     15  N   GLU G 814     -21.495  30.980  19.114  1.00102.70 LIG-0.34  N 
ATOM     16 H    GLU G 814     -22.047  30.800  18.479  1.00102.70 LIG 0.16  HD
BRANCH 15 17
ATOM     17  CA  GLU G 814     -20.273  30.174  19.107  1.00102.89 LIG 0.19  C 
BRANCH 17 18
ATOM     18  CB  GLU G 814     -19.029  31.066  18.998  1.00101.97 LIG 0.05  C 
BRANCH 18 19
ATOM     19  CG  GLU G 814     -18.438  31.173  17.606  1.00100.63 LIG 0.12  C 
BRANCH 19 20
ATOM     20  CD  GLU G 814     -16.925  31.013  17.597  1.00100.36 LIG 0.17  C 
ATOM     21 OE1  GLU G 814     -16.347  30.746  18.673  1.00 99.71 LIG-0.65  OA
ATOM     22 OE2  GLU G 814     -16.313  31.149  16.516  1.00 99.42 LIG-0.65  OA
ENDBRANCH 19 20
ENDBRANCH 18 19
ENDBRANCH 17 18
BRANCH 17 23
ATOM     23  C   GLU G 814     -20.170  29.332  20.383  1.00103.78 LIG 0.20  C 
ATOM     24 OXT  GLU G 814     -19.071  29.277  20.981  1.00104.07 LIG-0.65  OA
ATOM     25 O    GLU G 814     -21.199  28.737  20.775  1.00104.32 LIG-0.65  OA
ENDBRANCH 17 23
ENDBRANCH 15 17
ENDBRANCH 12 13
ENDBRANCH 9 12
ENDBRANCH 1 8
BRANCH 1 26
ATOM     26  N   HIS G 812     -26.045  30.628  22.550  1.00 98.48 LIG-0.35  N 
ATOM     27  C   GLY G 811     -24.861  30.296  23.067  1.00 98.46 LIG 0.24  C 
ATOM     28 O    GLY G 811     -23.779  30.445  22.486  1.00 98.78 LIG-0.27  OA
ATOM     29 H    HIS G 812     -26.782  30.483  22.970  1.00 98.48 LIG 0.16  HD
BRANCH 27 30
ATOM     30  CA  GLY G 811     -24.926  29.691  24.461  1.00 98.06 LIG 0.23  C 
BRANCH 30 31
ATOM     31  N   GLY G 811     -26.044  30.094  25.295  1.00 97.66 LIG-0.35  N 
ATOM     32 H    GLY G 811     -26.806  30.110  24.898  1.00 97.66 LIG 0.16  HD
ATOM     33  C   GLN G 810     -25.853  30.406  26.575  1.00 97.43 LIG 0.26  C 
ATOM     34 O    GLN G 810     -24.743  30.392  27.108  1.00 97.76 LIG-0.27  OA
BRANCH 33 35
ATOM     35  CA  GLN G 810     -27.092  30.809  27.374  1.00 96.79 LIG 0.40  C 
ATOM     36  N   GLN G 810     -28.210  31.175  26.455  1.00 96.61 LIG 0.61  N 
BRANCH 35 37
ATOM     37  CB  GLN G 810     -27.503  29.643  28.269  1.00 96.38 LIG 0.06  C 
BRANCH 37 38
ATOM     38  CG  GLN G 810     -28.968  29.613  28.676  1.00 95.56 LIG 0.10  C 
BRANCH 38 39
ATOM     39  CD  GLN G 810     -29.280  28.451  29.592  1.00 95.11 LIG 0.21  C 
ATOM     40  NE2 GLN G 810     -28.780  27.272  29.236  1.00 94.31 LIG-0.37  N 
ATOM     41 21HE GLN G 810     -28.311  27.203  28.519  1.00 94.31 LIG 0.16  HD
ATOM     42 22HE GLN G 810     -28.927  26.578  29.723  1.00 94.31 LIG 0.16  HD
ATOM     43 OE1  GLN G 810     -29.959  28.606  30.608  1.00 94.65 LIG-0.27  OA
ENDBRANCH 38 39
ENDBRANCH 37 38
ENDBRANCH 35 37
ENDBRANCH 33 35
ENDBRANCH 30 31
ENDBRANCH 27 30
ENDBRANCH 1 26
TORSDOF 17
ENDMDL
MODEL 14
USER: ADFR SOLUTION from run 169
USER: SCORE 10.996003 LL:  -1.969 LR: -10.948 RR:   0.000 FEB:  -5.877
USER: RMSD 10.224610
USER: SEED 168
USER: STATUS no improvement in best in 17 clusters for 5 generations
USER: GENES 19
USER: genes 0 Translation |==|  0.54397 0.37890 0.42473
USER: genes 1 Rotation |==|  0.72866 0.81535 0.81051 0.54300
USER: genes 2 Torsion [C]-CA--CB-[CG] |==|  0.43073
USER: genes 3 Torsion [CA]-CB--CG-[CD2] |==|  0.17728
USER: genes 4 Torsion [N]-CA--C-[N] |==|  0.43842
USER: genes 5 Torsion [C]-N--CA-[C] |==|  0.30007
USER: genes 6 Torsion [N]-CA--C-[N] |==|  0.29672
USER: genes 7 Torsion [C]-N--CA-[CB] |==|  0.21781
USER: genes 8 Torsion [N]-CA--CB-[CG] |==|  0.74339
USER: genes 9 Torsion [CA]-CB--CG-[CD] |==|  0.71390
USER: genes 10 Torsion [CB]-CG--CD-[OE2] |==|  0.71344
USER: genes 11 Torsion [N]-CA--C-[OXT] |==|  0.61693
USER: genes 12 Torsion [CB]-CA--N-[C] |==|  0.46295
USER: genes 13 Torsion [N]-C--CA-[N] |==|  0.14220
USER: genes 14 Torsion [C]-CA--N-[C] |==|  0.78859
USER: genes 15 Torsion [N]-C--CA-[N] |==|  0.18857
USER: genes 16 Torsion [C]-CA--CB-[CG] |==|  0.54983
USER: genes 17 Torsion [CA]-CB--CG-[CD] |==|  0.52879
USER: genes 18 Torsion [CB]-CG--CD-[NE2] |==|  0.86267
ROOT
ATOM      1  CA  HIS G 812     -25.187  31.502  19.870  1.00 98.11 LIG 0.18  C 
ENDROOT
BRANCH 1 2
ATOM      2  CB  HIS G 812     -26.217  31.831  18.780  1.00 96.29 LIG 0.10  C 
BRANCH 2 3
ATOM      3  CG  HIS G 812     -27.148  30.707  18.416  1.00 94.00 LIG 0.06  A 
ATOM      4  CD2 HIS G 812     -28.082  30.059  19.138  1.00 93.71 LIG 0.14  A 
ATOM      5 NE2  HIS G 812     -28.507  28.981  18.389  1.00 93.19 LIG-0.25  NA
ATOM      6  CE1 HIS G 812     -27.854  28.988  17.239  1.00 92.78 LIG 0.23  A 
ATOM      7 ND1  HIS G 812     -27.034  30.018  17.225  1.00 93.58 LIG-0.24  NA
ENDBRANCH 2 3
ENDBRANCH 1 2
BRANCH 1 8
ATOM      8  C   HIS G 812     -24.014  32.453  19.652  1.00 99.25 LIG 0.24  C 
ATOM      9  N   GLY G 813     -23.072  32.081  18.794  1.00100.26 LIG-0.35  N 
ATOM     10 H    GLY G 813     -23.068  31.340  18.358  1.00100.26 LIG 0.16  HD
ATOM     11 O    HIS G 812     -23.981  33.534  20.244  1.00 99.52 LIG-0.27  OA
BRANCH 9 12
ATOM     12  CA  GLY G 813     -21.942  32.957  18.540  1.00101.48 LIG 0.23  C 
BRANCH 12 13
ATOM     13  C   GLY G 813     -20.645  32.450  19.145  1.00102.44 LIG 0.24  C 
ATOM     14 O    GLY G 813     -20.475  32.501  20.362  1.00102.98 LIG-0.27  OA
ATOM     15  N   GLU G 814     -19.734  31.952  18.311  1.00102.70 LIG-0.34  N 
ATOM     16 H    GLU G 814     -19.839  31.893  17.459  1.00102.70 LIG 0.16  HD
BRANCH 15 17
ATOM     17  CA  GLU G 814     -18.446  31.456  18.803  1.00102.89 LIG 0.19  C 
BRANCH 17 18
ATOM     18  CB  GLU G 814     -18.597  30.056  19.413  1.00101.97 LIG 0.05  C 
BRANCH 18 19
ATOM     19  CG  GLU G 814     -18.856  30.035  20.907  1.00100.63 LIG 0.12  C 
BRANCH 19 20
ATOM     20  CD  GLU G 814     -17.617  29.668  21.712  1.00100.36 LIG 0.17  C 
ATOM     21 OE1  GLU G 814     -16.736  30.539  21.881  1.00 99.71 LIG-0.65  OA
ATOM     22 OE2  GLU G 814     -17.525  28.513  22.180  1.00 99.42 LIG-0.65  OA
ENDBRANCH 19 20
ENDBRANCH 18 19
ENDBRANCH 17 18
BRANCH 17 23
ATOM     23  C   GLU G 814     -17.419  31.395  17.668  1.00103.78 LIG 0.20  C 
ATOM     24 OXT  GLU G 814     -16.665  30.398  17.591  1.00104.07 LIG-0.65  OA
ATOM     25 O    GLU G 814     -17.384  32.349  16.859  1.00104.32 LIG-0.65  OA
ENDBRANCH 17 23
ENDBRANCH 15 17
ENDBRANCH 12 13
ENDBRANCH 9 12
ENDBRANCH 1 8
BRANCH 1 26
ATOM     26  N   HIS G 812     -25.671  31.933  21.187  1.00 98.48 LIG-0.35  N 
ATOM     27  C   GLY G 811     -25.147  31.580  22.363  1.00 98.46 LIG 0.24  C 
ATOM     28 O    GLY G 811     -24.196  30.800  22.496  1.00 98.78 LIG-0.27  OA
ATOM     29 H    HIS G 812     -26.352  32.456  21.132  1.00 98.48 LIG 0.16  HD
BRANCH 27 30
ATOM     30  CA  GLY G 811     -25.821  32.211  23.572  1.00 98.06 LIG 0.23  C 
BRANCH 30 31
ATOM     31  N   GLY G 811     -27.266  32.090  23.649  1.00 97.66 LIG-0.35  N 
ATOM     32 H    GLY G 811     -27.552  31.505  24.210  1.00 97.66 LIG 0.16  HD
ATOM     33  C   GLN G 810     -28.048  32.852  22.887  1.00 97.43 LIG 0.26  C 
ATOM     34 O    GLN G 810     -27.604  33.667  22.078  1.00 97.76 LIG-0.27  OA
BRANCH 33 35
ATOM     35  CA  GLN G 810     -29.556  32.659  23.047  1.00 96.79 LIG 0.40  C 
ATOM     36  N   GLN G 810     -30.004  33.130  24.390  1.00 96.61 LIG 0.61  N 
BRANCH 35 37
ATOM     37  CB  GLN G 810     -30.273  33.439  21.947  1.00 96.38 LIG 0.06  C 
BRANCH 37 38
ATOM     38  CG  GLN G 810     -31.749  33.711  22.191  1.00 95.56 LIG 0.10  C 
BRANCH 38 39
ATOM     39  CD  GLN G 810     -32.437  34.258  20.961  1.00 95.11 LIG 0.21  C 
ATOM     40  NE2 GLN G 810     -31.836  35.278  20.357  1.00 94.31 LIG-0.37  N 
ATOM     41 21HE GLN G 810     -31.099  35.590  20.671  1.00 94.31 LIG 0.16  HD
ATOM     42 22HE GLN G 810     -32.185  35.626  19.652  1.00 94.31 LIG 0.16  HD
ATOM     43 OE1  GLN G 810     -33.494  33.773  20.554  1.00 94.65 LIG-0.27  OA
ENDBRANCH 38 39
ENDBRANCH 37 38
ENDBRANCH 35 37
ENDBRANCH 33 35
ENDBRANCH 30 31
ENDBRANCH 27 30
ENDBRANCH 1 26
TORSDOF 17
ENDMDL
MODEL 15
USER: ADFR SOLUTION from run 24
USER: SCORE 11.405695 LL:  -2.091 LR: -10.948 RR:   0.000 FEB:  -5.877
USER: RMSD 5.617153
USER: SEED 23
USER: STATUS no improvement in best in 20 clusters for 5 generations
USER: GENES 19
USER: genes 0 Translation |==|  0.38266 0.39373 0.45466
USER: genes 1 Rotation |==|  0.46157 0.47816 0.52267 0.99753
USER: genes 2 Torsion [C]-CA--CB-[CG] |==|  0.44519
USER: genes 3 Torsion [CA]-CB--CG-[CD2] |==|  0.67200
USER: genes 4 Torsion [N]-CA--C-[N] |==|  0.42273
USER: genes 5 Torsion [C]-N--CA-[C] |==|  0.34420
USER: genes 6 Torsion [N]-CA--C-[N] |==|  0.09424
USER: genes 7 Torsion [C]-N--CA-[CB] |==|  0.36438
USER: genes 8 Torsion [N]-CA--CB-[CG] |==|  0.71557
USER: genes 9 Torsion [CA]-CB--CG-[CD] |==|  0.67350
USER: genes 10 Torsion [CB]-CG--CD-[OE2] |==|  0.69361
USER: genes 11 Torsion [N]-CA--C-[OXT] |==|  0.95891
USER: genes 12 Torsion [CB]-CA--N-[C] |==|  0.49008
USER: genes 13 Torsion [N]-C--CA-[N] |==|  0.36438
USER: genes 14 Torsion [C]-CA--N-[C] |==|  0.26215
USER: genes 15 Torsion [N]-C--CA-[N] |==|  0.44049
USER: genes 16 Torsion [C]-CA--CB-[CG] |==|  0.39773
USER: genes 17 Torsion [CA]-CB--CG-[CD] |==|  0.16818
USER: genes 18 Torsion [CB]-CG--CD-[NE2] |==|  0.55207
ROOT
ATOM      1  CA  HIS G 812     -28.332  31.780  20.611  1.00 98.11 LIG 0.18  C 
ENDROOT
BRANCH 1 2
ATOM      2  CB  HIS G 812     -27.881  30.313  20.639  1.00 96.29 LIG 0.10  C 
BRANCH 2 3
ATOM      3  CG  HIS G 812     -28.001  29.577  19.334  1.00 94.00 LIG 0.06  A 
ATOM      4  CD2 HIS G 812     -28.728  28.498  18.987  1.00 93.71 LIG 0.14  A 
ATOM      5 NE2  HIS G 812     -28.318  28.111  17.728  1.00 93.19 LIG-0.25  NA
ATOM      6  CE1 HIS G 812     -27.376  28.945  17.321  1.00 92.78 LIG 0.23  A 
ATOM      7 ND1  HIS G 812     -27.168  29.841  18.265  1.00 93.58 LIG-0.24  NA
ENDBRANCH 2 3
ENDBRANCH 1 2
BRANCH 1 8
ATOM      8  C   HIS G 812     -28.603  32.174  22.059  1.00 99.25 LIG 0.24  C 
ATOM      9  N   GLY G 813     -29.841  32.026  22.515  1.00100.26 LIG-0.35  N 
ATOM     10 H    GLY G 813     -30.504  31.733  22.053  1.00100.26 LIG 0.16  HD
ATOM     11 O    HIS G 812     -27.682  32.587  22.766  1.00 99.52 LIG-0.27  OA
BRANCH 9 12
ATOM     12  CA  GLY G 813     -30.148  32.373  23.892  1.00101.48 LIG 0.23  C 
BRANCH 12 13
ATOM     13  C   GLY G 813     -31.267  33.392  24.015  1.00102.44 LIG 0.24  C 
ATOM     14 O    GLY G 813     -31.242  34.225  24.919  1.00102.98 LIG-0.27  OA
ATOM     15  N   GLU G 814     -32.245  33.340  23.111  1.00102.70 LIG-0.34  N 
ATOM     16 H    GLU G 814     -32.274  32.776  22.463  1.00102.70 LIG 0.16  HD
BRANCH 15 17
ATOM     17  CA  GLU G 814     -33.374  34.271  23.162  1.00102.89 LIG 0.19  C 
BRANCH 17 18
ATOM     18  CB  GLU G 814     -33.623  34.904  21.786  1.00101.97 LIG 0.05  C 
BRANCH 18 19
ATOM     19  CG  GLU G 814     -33.113  36.324  21.635  1.00100.63 LIG 0.12  C 
BRANCH 19 20
ATOM     20  CD  GLU G 814     -34.229  37.323  21.364  1.00100.36 LIG 0.17  C 
ATOM     21 OE1  GLU G 814     -35.031  37.585  22.287  1.00 99.71 LIG-0.65  OA
ATOM     22 OE2  GLU G 814     -34.302  37.850  20.234  1.00 99.42 LIG-0.65  OA
ENDBRANCH 19 20
ENDBRANCH 18 19
ENDBRANCH 17 18
BRANCH 17 23
ATOM     23  C   GLU G 814     -34.649  33.553  23.616  1.00103.78 LIG 0.20  C 
ATOM     24 OXT  GLU G 814     -34.670  32.300  23.608  1.00104.07 LIG-0.65  OA
ATOM     25 O    GLU G 814     -35.617  34.255  23.983  1.00104.32 LIG-0.65  OA
ENDBRANCH 17 23
ENDBRANCH 15 17
ENDBRANCH 12 13
ENDBRANCH 9 12
ENDBRANCH 1 8
BRANCH 1 26
ATOM     26  N   HIS G 812     -27.207  32.662  20.274  1.00 98.48 LIG-0.35  N 
ATOM     27  C   GLY G 811     -27.278  33.983  20.102  1.00 98.46 LIG 0.24  C 
ATOM     28 O    GLY G 811     -28.325  34.639  20.165  1.00 98.78 LIG-0.27  OA
ATOM     29 H    HIS G 812     -26.466  32.232  20.194  1.00 98.48 LIG 0.16  HD
BRANCH 27 30
ATOM     30  CA  GLY G 811     -25.947  34.656  19.803  1.00 98.06 LIG 0.23  C 
BRANCH 30 31
ATOM     31  N   GLY G 811     -25.917  35.569  18.674  1.00 97.66 LIG-0.35  N 
ATOM     32 H    GLY G 811     -25.776  35.199  17.911  1.00 97.66 LIG 0.16  HD
ATOM     33  C   GLN G 810     -26.100  36.875  18.858  1.00 97.43 LIG 0.26  C 
ATOM     34 O    GLN G 810     -26.280  37.375  19.969  1.00 97.76 LIG-0.27  OA
BRANCH 33 35
ATOM     35  CA  GLN G 810     -26.061  37.754  17.608  1.00 96.79 LIG 0.40  C 
ATOM     36  N   GLN G 810     -26.767  39.045  17.854  1.00 96.61 LIG 0.61  N 
BRANCH 35 37
ATOM     37  CB  GLN G 810     -24.603  38.011  17.231  1.00 96.38 LIG 0.06  C 
BRANCH 37 38
ATOM     38  CG  GLN G 810     -24.309  38.052  15.740  1.00 95.56 LIG 0.10  C 
BRANCH 38 39
ATOM     39  CD  GLN G 810     -25.079  39.150  15.040  1.00 95.11 LIG 0.21  C 
ATOM     40  NE2 GLN G 810     -25.198  39.034  13.721  1.00 94.31 LIG-0.37  N 
ATOM     41 21HE GLN G 810     -24.846  38.363  13.315  1.00 94.31 LIG 0.16  HD
ATOM     42 22HE GLN G 810     -25.628  39.631  13.274  1.00 94.31 LIG 0.16  HD
ATOM     43 OE1  GLN G 810     -25.563  40.090  15.672  1.00 94.65 LIG-0.27  OA
ENDBRANCH 38 39
ENDBRANCH 37 38
ENDBRANCH 35 37
ENDBRANCH 33 35
ENDBRANCH 30 31
ENDBRANCH 27 30
ENDBRANCH 1 26
TORSDOF 17
ENDMDL
MODEL 16
USER: ADFR SOLUTION from run 29
USER: SCORE 10.958928 LL:  -1.913 LR: -10.852 RR:   0.000 FEB:  -5.781
USER: RMSD 10.913970
USER: SEED 28
USER: STATUS no improvement in best in 13 clusters for 5 generations
USER: GENES 19
USER: genes 0 Translation |==|  0.53802 0.36865 0.42196
USER: genes 1 Rotation |==|  0.72019 0.82848 0.80372 0.53705
USER: genes 2 Torsion [C]-CA--CB-[CG] |==|  0.42549
USER: genes 3 Torsion [CA]-CB--CG-[CD2] |==|  0.67246
USER: genes 4 Torsion [N]-CA--C-[N] |==|  0.41604
USER: genes 5 Torsion [C]-N--CA-[C] |==|  0.31782
USER: genes 6 Torsion [N]-CA--C-[N] |==|  0.30612
USER: genes 7 Torsion [C]-N--CA-[CB] |==|  0.19057
USER: genes 8 Torsion [N]-CA--CB-[CG] |==|  0.62138
USER: genes 9 Torsion [CA]-CB--CG-[CD] |==|  0.45400
USER: genes 10 Torsion [CB]-CG--CD-[OE2] |==|  0.32687
USER: genes 11 Torsion [N]-CA--C-[OXT] |==|  0.62495
USER: genes 12 Torsion [CB]-CA--N-[C] |==|  0.47416
USER: genes 13 Torsion [N]-C--CA-[N] |==|  0.32482
USER: genes 14 Torsion [C]-CA--N-[C] |==|  0.34413
USER: genes 15 Torsion [N]-C--CA-[N] |==|  0.38487
USER: genes 16 Torsion [C]-CA--CB-[CG] |==|  0.15208
USER: genes 17 Torsion [CA]-CB--CG-[CD] |==|  0.42171
USER: genes 18 Torsion [CB]-CG--CD-[NE2] |==|  0.83061
ROOT
ATOM      1  CA  HIS G 812     -25.303  31.310  19.802  1.00 98.11 LIG 0.18  C 
ENDROOT
BRANCH 1 2
ATOM      2  CB  HIS G 812     -26.361  31.532  18.712  1.00 96.29 LIG 0.10  C 
BRANCH 2 3
ATOM      3  CG  HIS G 812     -27.199  30.331  18.374  1.00 94.00 LIG 0.06  A 
ATOM      4  CD2 HIS G 812     -27.337  29.638  17.227  1.00 93.71 LIG 0.14  A 
ATOM      5 NE2  HIS G 812     -28.381  28.754  17.401  1.00 93.19 LIG-0.25  NA
ATOM      6  CE1 HIS G 812     -28.852  28.901  18.628  1.00 92.78 LIG 0.23  A 
ATOM      7 ND1  HIS G 812     -28.157  29.839  19.238  1.00 93.58 LIG-0.24  NA
ENDBRANCH 2 3
ENDBRANCH 1 2
BRANCH 1 8
ATOM      8  C   HIS G 812     -24.189  32.317  19.530  1.00 99.25 LIG 0.24  C 
ATOM      9  N   GLY G 813     -23.153  31.908  18.809  1.00100.26 LIG-0.35  N 
ATOM     10 H    GLY G 813     -23.058  31.115  18.490  1.00100.26 LIG 0.16  HD
ATOM     11 O    HIS G 812     -24.287  33.470  19.955  1.00 99.52 LIG-0.27  OA
BRANCH 9 12
ATOM     12  CA  GLY G 813     -22.074  32.832  18.509  1.00101.48 LIG 0.23  C 
BRANCH 12 13
ATOM     13  C   GLY G 813     -20.757  32.441  19.156  1.00102.44 LIG 0.24  C 
ATOM     14 O    GLY G 813     -20.625  32.519  20.377  1.00102.98 LIG-0.27  OA
ATOM     15  N   GLU G 814     -19.783  32.013  18.353  1.00102.70 LIG-0.34  N 
ATOM     16 H    GLU G 814     -19.859  31.936  17.500  1.00102.70 LIG 0.16  HD
BRANCH 15 17
ATOM     17  CA  GLU G 814     -18.474  31.631  18.886  1.00102.89 LIG 0.19  C 
BRANCH 17 18
ATOM     18  CB  GLU G 814     -18.576  30.346  19.720  1.00101.97 LIG 0.05  C 
BRANCH 18 19
ATOM     19  CG  GLU G 814     -17.807  30.369  21.026  1.00100.63 LIG 0.12  C 
BRANCH 19 20
ATOM     20  CD  GLU G 814     -18.247  29.273  21.986  1.00100.36 LIG 0.17  C 
ATOM     21 OE1  GLU G 814     -19.429  29.278  22.395  1.00 99.71 LIG-0.65  OA
ATOM     22 OE2  GLU G 814     -17.417  28.404  22.326  1.00 99.42 LIG-0.65  OA
ENDBRANCH 19 20
ENDBRANCH 18 19
ENDBRANCH 17 18
BRANCH 17 23
ATOM     23  C   GLU G 814     -17.470  31.408  17.750  1.00103.78 LIG 0.20  C 
ATOM     24 OXT  GLU G 814     -16.730  30.398  17.790  1.00104.07 LIG-0.65  OA
ATOM     25 O    GLU G 814     -17.439  32.248  16.824  1.00104.32 LIG-0.65  OA
ENDBRANCH 17 23
ENDBRANCH 15 17
ENDBRANCH 12 13
ENDBRANCH 9 12
ENDBRANCH 1 8
BRANCH 1 26
ATOM     26  N   HIS G 812     -25.799  31.768  21.106  1.00 98.48 LIG-0.35  N 
ATOM     27  C   GLY G 811     -25.202  31.559  22.282  1.00 98.46 LIG 0.24  C 
ATOM     28 O    GLY G 811     -24.161  30.909  22.429  1.00 98.78 LIG-0.27  OA
ATOM     29 H    HIS G 812     -26.539  32.200  21.042  1.00 98.48 LIG 0.16  HD
BRANCH 27 30
ATOM     30  CA  GLY G 811     -25.914  32.184  23.472  1.00 98.06 LIG 0.23  C 
BRANCH 30 31
ATOM     31  N   GLY G 811     -26.420  31.272  24.482  1.00 97.66 LIG-0.35  N 
ATOM     32 H    GLY G 811     -26.958  30.669  24.189  1.00 97.66 LIG 0.16  HD
ATOM     33  C   GLN G 810     -26.049  31.400  25.754  1.00 97.43 LIG 0.26  C 
ATOM     34 O    GLN G 810     -25.291  32.289  26.143  1.00 97.76 LIG-0.27  OA
BRANCH 33 35
ATOM     35  CA  GLN G 810     -26.627  30.386  26.741  1.00 96.79 LIG 0.40  C 
ATOM     36  N   GLN G 810     -25.580  29.940  27.706  1.00 96.61 LIG 0.61  N 
BRANCH 35 37
ATOM     37  CB  GLN G 810     -27.793  31.033  27.486  1.00 96.38 LIG 0.06  C 
BRANCH 37 38
ATOM     38  CG  GLN G 810     -28.890  31.615  26.607  1.00 95.56 LIG 0.10  C 
BRANCH 38 39
ATOM     39  CD  GLN G 810     -30.235  31.604  27.298  1.00 95.11 LIG 0.21  C 
ATOM     40  NE2 GLN G 810     -30.708  30.412  27.644  1.00 94.31 LIG-0.37  N 
ATOM     41 21HE GLN G 810     -30.254  29.702  27.472  1.00 94.31 LIG 0.16  HD
ATOM     42 22HE GLN G 810     -31.469  30.349  28.041  1.00 94.31 LIG 0.16  HD
ATOM     43 OE1  GLN G 810     -30.844  32.652  27.520  1.00 94.65 LIG-0.27  OA
ENDBRANCH 38 39
ENDBRANCH 37 38
ENDBRANCH 35 37
ENDBRANCH 33 35
ENDBRANCH 30 31
ENDBRANCH 27 30
ENDBRANCH 1 26
TORSDOF 17
ENDMDL
MODEL 17
USER: ADFR SOLUTION from run 110
USER: SCORE 11.382459 LL:  -1.970 LR: -10.834 RR:   0.000 FEB:  -5.763
USER: RMSD 6.406303
USER: SEED 109
USER: STATUS no improvement in best in 23 clusters for 5 generations
USER: GENES 19
USER: genes 0 Translation |==|  0.38300 0.38476 0.45623
USER: genes 1 Rotation |==|  0.47753 0.47137 0.48566 0.99847
USER: genes 2 Torsion [C]-CA--CB-[CG] |==|  0.47537
USER: genes 3 Torsion [CA]-CB--CG-[CD2] |==|  0.64099
USER: genes 4 Torsion [N]-CA--C-[N] |==|  0.41178
USER: genes 5 Torsion [C]-N--CA-[C] |==|  0.37396
USER: genes 6 Torsion [N]-CA--C-[N] |==|  0.11521
USER: genes 7 Torsion [C]-N--CA-[CB] |==|  0.33800
USER: genes 8 Torsion [N]-CA--CB-[CG] |==|  0.70056
USER: genes 9 Torsion [CA]-CB--CG-[CD] |==|  0.64083
USER: genes 10 Torsion [CB]-CG--CD-[OE2] |==|  0.24728
USER: genes 11 Torsion [N]-CA--C-[OXT] |==|  0.96316
USER: genes 12 Torsion [CB]-CA--N-[C] |==|  0.50622
USER: genes 13 Torsion [N]-C--CA-[N] |==|  0.05808
USER: genes 14 Torsion [C]-CA--N-[C] |==|  0.73775
USER: genes 15 Torsion [N]-C--CA-[N] |==|  0.12601
USER: genes 16 Torsion [C]-CA--CB-[CG] |==|  0.64464
USER: genes 17 Torsion [CA]-CB--CG-[CD] |==|  0.78302
USER: genes 18 Torsion [CB]-CG--CD-[NE2] |==|  0.30895
ROOT
ATOM      1  CA  HIS G 812     -28.326  31.612  20.650  1.00 98.11 LIG 0.18  C 
ENDROOT
BRANCH 1 2
ATOM      2  CB  HIS G 812     -28.087  30.097  20.583  1.00 96.29 LIG 0.10  C 
BRANCH 2 3
ATOM      3  CG  HIS G 812     -28.004  29.518  19.198  1.00 94.00 LIG 0.06  A 
ATOM      4  CD2 HIS G 812     -28.637  28.471  18.634  1.00 93.71 LIG 0.14  A 
ATOM      5 NE2  HIS G 812     -28.048  28.246  17.407  1.00 93.19 LIG-0.25  NA
ATOM      6  CE1 HIS G 812     -27.093  29.144  17.230  1.00 92.78 LIG 0.23  A 
ATOM      7 ND1  HIS G 812     -27.048  29.926  18.290  1.00 93.58 LIG-0.24  NA
ENDBRANCH 2 3
ENDBRANCH 1 2
BRANCH 1 8
ATOM      8  C   HIS G 812     -28.597  31.940  22.114  1.00 99.25 LIG 0.24  C 
ATOM      9  N   GLY G 813     -29.864  32.019  22.502  1.00100.26 LIG-0.35  N 
ATOM     10 H    GLY G 813     -30.544  31.908  21.989  1.00100.26 LIG 0.16  HD
ATOM     11 O    HIS G 812     -27.654  32.095  22.894  1.00 99.52 LIG-0.27  OA
BRANCH 9 12
ATOM     12  CA  GLY G 813     -30.175  32.314  23.890  1.00101.48 LIG 0.23  C 
BRANCH 12 13
ATOM     13  C   GLY G 813     -31.264  33.360  24.047  1.00102.44 LIG 0.24  C 
ATOM     14 O    GLY G 813     -31.153  34.238  24.902  1.00102.98 LIG-0.27  OA
ATOM     15  N   GLU G 814     -32.311  33.282  23.227  1.00102.70 LIG-0.34  N 
ATOM     16 H    GLU G 814     -32.401  32.687  22.613  1.00102.70 LIG 0.16  HD
BRANCH 15 17
ATOM     17  CA  GLU G 814     -33.418  34.238  23.318  1.00102.89 LIG 0.19  C 
BRANCH 17 18
ATOM     18  CB  GLU G 814     -33.612  34.978  21.987  1.00101.97 LIG 0.05  C 
BRANCH 18 19
ATOM     19  CG  GLU G 814     -33.178  36.431  21.996  1.00100.63 LIG 0.12  C 
BRANCH 19 20
ATOM     20  CD  GLU G 814     -34.251  37.366  21.457  1.00100.36 LIG 0.17  C 
ATOM     21 OE1  GLU G 814     -34.255  37.627  20.233  1.00 99.71 LIG-0.65  OA
ATOM     22 OE2  GLU G 814     -35.093  37.836  22.251  1.00 99.42 LIG-0.65  OA
ENDBRANCH 19 20
ENDBRANCH 18 19
ENDBRANCH 17 18
BRANCH 17 23
ATOM     23  C   GLU G 814     -34.723  33.523  23.683  1.00103.78 LIG 0.20  C 
ATOM     24 OXT  GLU G 814     -34.766  32.273  23.608  1.00104.07 LIG-0.65  OA
ATOM     25 O    GLU G 814     -35.692  34.224  24.048  1.00104.32 LIG-0.65  OA
ENDBRANCH 17 23
ENDBRANCH 15 17
ENDBRANCH 12 13
ENDBRANCH 9 12
ENDBRANCH 1 8
BRANCH 1 26
ATOM     26  N   HIS G 812     -27.075  32.344  20.413  1.00 98.48 LIG-0.35  N 
ATOM     27  C   GLY G 811     -26.932  33.671  20.445  1.00 98.46 LIG 0.24  C 
ATOM     28 O    GLY G 811     -27.858  34.467  20.641  1.00 98.78 LIG-0.27  OA
ATOM     29 H    HIS G 812     -26.414  31.820  20.245  1.00 98.48 LIG 0.16  HD
BRANCH 27 30
ATOM     30  CA  GLY G 811     -25.512  34.160  20.207  1.00 98.06 LIG 0.23  C 
BRANCH 30 31
ATOM     31  N   GLY G 811     -24.610  33.244  19.531  1.00 97.66 LIG-0.35  N 
ATOM     32 H    GLY G 811     -24.645  33.267  18.672  1.00 97.66 LIG 0.16  HD
ATOM     33  C   GLN G 810     -23.809  32.445  20.233  1.00 97.43 LIG 0.26  C 
ATOM     34 O    GLN G 810     -23.799  32.422  21.464  1.00 97.76 LIG-0.27  OA
BRANCH 33 35
ATOM     35  CA  GLN G 810     -22.890  31.523  19.432  1.00 96.79 LIG 0.40  C 
ATOM     36  N   GLN G 810     -22.238  32.273  18.318  1.00 96.61 LIG 0.61  N 
BRANCH 35 37
ATOM     37  CB  GLN G 810     -21.833  30.944  20.369  1.00 96.38 LIG 0.06  C 
BRANCH 37 38
ATOM     38  CG  GLN G 810     -20.392  31.103  19.911  1.00 95.56 LIG 0.10  C 
BRANCH 38 39
ATOM     39  CD  GLN G 810     -20.020  30.098  18.845  1.00 95.11 LIG 0.21  C 
ATOM     40  NE2 GLN G 810     -19.806  30.585  17.628  1.00 94.31 LIG-0.37  N 
ATOM     41 21HE GLN G 810     -19.884  31.429  17.482  1.00 94.31 LIG 0.16  HD
ATOM     42 22HE GLN G 810     -19.591  30.056  16.984  1.00 94.31 LIG 0.16  HD
ATOM     43 OE1  GLN G 810     -19.922  28.898  19.108  1.00 94.65 LIG-0.27  OA
ENDBRANCH 38 39
ENDBRANCH 37 38
ENDBRANCH 35 37
ENDBRANCH 33 35
ENDBRANCH 30 31
ENDBRANCH 27 30
ENDBRANCH 1 26
TORSDOF 17
ENDMDL
MODEL 18
USER: ADFR SOLUTION from run 149
USER: SCORE 12.805966 LL:  -2.598 LR: -10.808 RR:   0.000 FEB:  -5.737
USER: RMSD 10.583488
USER: SEED 148
USER: STATUS no improvement in best in 10 clusters for 5 generations
USER: GENES 19
USER: genes 0 Translation |==|  0.66083 0.65165 0.27085
USER: genes 1 Rotation |==|  0.69702 0.49786 0.89409 0.73637
USER: genes 2 Torsion [C]-CA--CB-[CG] |==|  0.30077
USER: genes 3 Torsion [CA]-CB--CG-[CD2] |==|  0.25347
USER: genes 4 Torsion [N]-CA--C-[N] |==|  0.12034
USER: genes 5 Torsion [C]-N--CA-[C] |==|  0.72423
USER: genes 6 Torsion [N]-CA--C-[N] |==|  0.38343
USER: genes 7 Torsion [C]-N--CA-[CB] |==|  0.35037
USER: genes 8 Torsion [N]-CA--CB-[CG] |==|  0.17845
USER: genes 9 Torsion [CA]-CB--CG-[CD] |==|  0.57221
USER: genes 10 Torsion [CB]-CG--CD-[OE2] |==|  0.30156
USER: genes 11 Torsion [N]-CA--C-[OXT] |==|  0.48711
USER: genes 12 Torsion [CB]-CA--N-[C] |==|  0.17221
USER: genes 13 Torsion [N]-C--CA-[N] |==|  0.93347
USER: genes 14 Torsion [C]-CA--N-[C] |==|  0.80929
USER: genes 15 Torsion [N]-C--CA-[N] |==|  0.20577
USER: genes 16 Torsion [C]-CA--CB-[CG] |==|  0.32819
USER: genes 17 Torsion [CA]-CB--CG-[CD] |==|  0.51415
USER: genes 18 Torsion [CB]-CG--CD-[NE2] |==|  0.37801
ROOT
ATOM      1  CA  HIS G 812     -22.908  36.617  16.061  1.00 98.11 LIG 0.18  C 
ENDROOT
BRANCH 1 2
ATOM      2  CB  HIS G 812     -22.014  37.755  15.550  1.00 96.29 LIG 0.10  C 
BRANCH 2 3
ATOM      3  CG  HIS G 812     -21.497  37.588  14.148  1.00 94.00 LIG 0.06  A 
ATOM      4  CD2 HIS G 812     -21.998  37.988  12.963  1.00 93.71 LIG 0.14  A 
ATOM      5 NE2  HIS G 812     -21.236  37.402  11.974  1.00 93.19 LIG-0.25  NA
ATOM      6  CE1 HIS G 812     -20.291  36.676  12.549  1.00 92.78 LIG 0.23  A 
ATOM      7 ND1  HIS G 812     -20.421  36.774  13.856  1.00 93.58 LIG-0.24  NA
ENDBRANCH 2 3
ENDBRANCH 1 2
BRANCH 1 8
ATOM      8  C   HIS G 812     -22.085  35.857  17.097  1.00 99.25 LIG 0.24  C 
ATOM      9  N   GLY G 813     -22.742  35.115  17.980  1.00100.26 LIG-0.35  N 
ATOM     10 H    GLY G 813     -23.597  35.036  18.017  1.00100.26 LIG 0.16  HD
ATOM     11 O    HIS G 812     -20.855  35.927  17.076  1.00 99.52 LIG-0.27  OA
BRANCH 9 12
ATOM     12  CA  GLY G 813     -22.004  34.360  18.978  1.00101.48 LIG 0.23  C 
BRANCH 12 13
ATOM     13  C   GLY G 813     -21.833  32.896  18.612  1.00102.44 LIG 0.24  C 
ATOM     14 O    GLY G 813     -22.771  32.273  18.118  1.00102.98 LIG-0.27  OA
ATOM     15  N   GLU G 814     -20.643  32.343  18.842  1.00102.70 LIG-0.34  N 
ATOM     16 H    GLU G 814     -19.970  32.764  19.172  1.00102.70 LIG 0.16  HD
BRANCH 15 17
ATOM     17  CA  GLU G 814     -20.391  30.933  18.538  1.00102.89 LIG 0.19  C 
BRANCH 17 18
ATOM     18  CB  GLU G 814     -19.161  30.779  17.633  1.00101.97 LIG 0.05  C 
BRANCH 18 19
ATOM     19  CG  GLU G 814     -17.851  31.222  18.255  1.00100.63 LIG 0.12  C 
BRANCH 19 20
ATOM     20  CD  GLU G 814     -16.824  31.652  17.216  1.00100.36 LIG 0.17  C 
ATOM     21 OE1  GLU G 814     -16.300  30.773  16.497  1.00 99.71 LIG-0.65  OA
ATOM     22 OE2  GLU G 814     -16.545  32.865  17.113  1.00 99.42 LIG-0.65  OA
ENDBRANCH 19 20
ENDBRANCH 18 19
ENDBRANCH 17 18
BRANCH 17 23
ATOM     23  C   GLU G 814     -20.165  30.133  19.824  1.00103.78 LIG 0.20  C 
ATOM     24 OXT  GLU G 814     -20.023  28.891  19.744  1.00104.07 LIG-0.65  OA
ATOM     25 O    GLU G 814     -20.126  30.761  20.905  1.00104.32 LIG-0.65  OA
ENDBRANCH 17 23
ENDBRANCH 15 17
ENDBRANCH 12 13
ENDBRANCH 9 12
ENDBRANCH 1 8
BRANCH 1 26
ATOM     26  N   HIS G 812     -24.000  37.147  16.887  1.00 98.48 LIG-0.35  N 
ATOM     27  C   GLY G 811     -24.954  37.983  16.471  1.00 98.46 LIG 0.24  C 
ATOM     28 O    GLY G 811     -25.017  38.456  15.330  1.00 98.78 LIG-0.27  OA
ATOM     29 H    HIS G 812     -23.969  36.860  17.697  1.00 98.48 LIG 0.16  HD
BRANCH 27 30
ATOM     30  CA  GLY G 811     -25.989  38.338  17.527  1.00 98.06 LIG 0.23  C 
BRANCH 30 31
ATOM     31  N   GLY G 811     -26.164  37.390  18.613  1.00 97.66 LIG-0.35  N 
ATOM     32 H    GLY G 811     -25.897  37.666  19.382  1.00 97.66 LIG 0.16  HD
ATOM     33  C   GLN G 810     -26.704  36.194  18.385  1.00 97.43 LIG 0.26  C 
ATOM     34 O    GLN G 810     -27.058  35.823  17.265  1.00 97.76 LIG-0.27  OA
BRANCH 33 35
ATOM     35  CA  GLN G 810     -26.856  35.270  19.593  1.00 96.79 LIG 0.40  C 
ATOM     36  N   GLN G 810     -27.975  35.730  20.466  1.00 96.61 LIG 0.61  N 
BRANCH 35 37
ATOM     37  CB  GLN G 810     -27.119  33.850  19.098  1.00 96.38 LIG 0.06  C 
BRANCH 37 38
ATOM     38  CG  GLN G 810     -26.071  32.817  19.483  1.00 95.56 LIG 0.10  C 
BRANCH 38 39
ATOM     39  CD  GLN G 810     -26.343  31.470  18.851  1.00 95.11 LIG 0.21  C 
ATOM     40  NE2 GLN G 810     -25.294  30.844  18.329  1.00 94.31 LIG-0.37  N 
ATOM     41 21HE GLN G 810     -24.516  31.208  18.361  1.00 94.31 LIG 0.16  HD
ATOM     42 22HE GLN G 810     -25.393  30.074  17.959  1.00 94.31 LIG 0.16  HD
ATOM     43 OE1  GLN G 810     -27.479  30.994  18.833  1.00 94.65 LIG-0.27  OA
ENDBRANCH 38 39
ENDBRANCH 37 38
ENDBRANCH 35 37
ENDBRANCH 33 35
ENDBRANCH 30 31
ENDBRANCH 27 30
ENDBRANCH 1 26
TORSDOF 17
ENDMDL
MODEL 19
USER: ADFR SOLUTION from run 110
USER: SCORE 11.753749 LL:  -2.573 LR: -10.796 RR:   0.000 FEB:  -5.725
USER: RMSD 7.301120
USER: SEED 109
USER: STATUS no improvement in best in 23 clusters for 5 generations
USER: GENES 19
USER: genes 0 Translation |==|  0.39728 0.37726 0.45299
USER: genes 1 Rotation |==|  0.46639 0.42383 0.41524 0.98568
USER: genes 2 Torsion [C]-CA--CB-[CG] |==|  0.40616
USER: genes 3 Torsion [CA]-CB--CG-[CD2] |==|  0.68167
USER: genes 4 Torsion [N]-CA--C-[N] |==|  0.48333
USER: genes 5 Torsion [C]-N--CA-[C] |==|  0.32691
USER: genes 6 Torsion [N]-CA--C-[N] |==|  0.24064
USER: genes 7 Torsion [C]-N--CA-[CB] |==|  0.25502
USER: genes 8 Torsion [N]-CA--CB-[CG] |==|  0.71437
USER: genes 9 Torsion [CA]-CB--CG-[CD] |==|  0.71897
USER: genes 10 Torsion [CB]-CG--CD-[OE2] |==|  0.69610
USER: genes 11 Torsion [N]-CA--C-[OXT] |==|  0.96654
USER: genes 12 Torsion [CB]-CA--N-[C] |==|  0.22087
USER: genes 13 Torsion [N]-C--CA-[N] |==|  0.99234
USER: genes 14 Torsion [C]-CA--N-[C] |==|  0.28258
USER: genes 15 Torsion [N]-C--CA-[N] |==|  0.07284
USER: genes 16 Torsion [C]-CA--CB-[CG] |==|  0.77048
USER: genes 17 Torsion [CA]-CB--CG-[CD] |==|  0.22446
USER: genes 18 Torsion [CB]-CG--CD-[NE2] |==|  0.28565
ROOT
ATOM      1  CA  HIS G 812     -28.047  31.472  20.570  1.00 98.11 LIG 0.18  C 
ENDROOT
BRANCH 1 2
ATOM      2  CB  HIS G 812     -28.227  29.947  20.565  1.00 96.29 LIG 0.10  C 
BRANCH 2 3
ATOM      3  CG  HIS G 812     -28.620  29.349  19.242  1.00 94.00 LIG 0.06  A 
ATOM      4  CD2 HIS G 812     -29.743  28.716  18.853  1.00 93.71 LIG 0.14  A 
ATOM      5 NE2  HIS G 812     -29.507  28.190  17.600  1.00 93.19 LIG-0.25  NA
ATOM      6  CE1 HIS G 812     -28.275  28.509  17.238  1.00 92.78 LIG 0.23  A 
ATOM      7 ND1  HIS G 812     -27.720  29.211  18.205  1.00 93.58 LIG-0.24  NA
ENDBRANCH 2 3
ENDBRANCH 1 2
BRANCH 1 8
ATOM      8  C   HIS G 812     -28.498  31.953  21.945  1.00 99.25 LIG 0.24  C 
ATOM      9  N   GLY G 813     -29.795  31.896  22.220  1.00100.26 LIG-0.35  N 
ATOM     10 H    GLY G 813     -30.402  31.616  21.680  1.00100.26 LIG 0.16  HD
ATOM     11 O    HIS G 812     -27.665  32.351  22.761  1.00 99.52 LIG-0.27  OA
BRANCH 9 12
ATOM     12  CA  GLY G 813     -30.275  32.328  23.522  1.00101.48 LIG 0.23  C 
BRANCH 12 13
ATOM     13  C   GLY G 813     -31.223  33.512  23.445  1.00102.44 LIG 0.24  C 
ATOM     14 O    GLY G 813     -30.785  34.657  23.551  1.00102.98 LIG-0.27  OA
ATOM     15  N   GLU G 814     -32.515  33.251  23.252  1.00102.70 LIG-0.34  N 
ATOM     16 H    GLU G 814     -32.839  32.459  23.160  1.00102.70 LIG 0.16  HD
BRANCH 15 17
ATOM     17  CA  GLU G 814     -33.505  34.328  23.183  1.00102.89 LIG 0.19  C 
BRANCH 17 18
ATOM     18  CB  GLU G 814     -33.714  34.786  21.733  1.00101.97 LIG 0.05  C 
BRANCH 18 19
ATOM     19  CG  GLU G 814     -33.029  36.089  21.369  1.00100.63 LIG 0.12  C 
BRANCH 19 20
ATOM     20  CD  GLU G 814     -33.987  37.272  21.358  1.00100.36 LIG 0.17  C 
ATOM     21 OE1  GLU G 814     -34.430  37.691  22.450  1.00 99.71 LIG-0.65  OA
ATOM     22 OE2  GLU G 814     -34.293  37.787  20.262  1.00 99.42 LIG-0.65  OA
ENDBRANCH 19 20
ENDBRANCH 18 19
ENDBRANCH 17 18
BRANCH 17 23
ATOM     23  C   GLU G 814     -34.848  33.868  23.758  1.00103.78 LIG 0.20  C 
ATOM     24 OXT  GLU G 814     -35.020  32.648  23.983  1.00104.07 LIG-0.65  OA
ATOM     25 O    GLU G 814     -35.717  34.739  23.983  1.00104.32 LIG-0.65  OA
ENDBRANCH 17 23
ENDBRANCH 15 17
ENDBRANCH 12 13
ENDBRANCH 9 12
ENDBRANCH 1 8
BRANCH 1 26
ATOM     26  N   HIS G 812     -26.622  31.824  20.590  1.00 98.48 LIG-0.35  N 
ATOM     27  C   GLY G 811     -25.804  31.820  19.534  1.00 98.46 LIG 0.24  C 
ATOM     28 O    GLY G 811     -26.139  31.475  18.395  1.00 98.78 LIG-0.27  OA
ATOM     29 H    HIS G 812     -26.348  32.042  21.375  1.00 98.48 LIG 0.16  HD
BRANCH 27 30
ATOM     30  CA  GLY G 811     -24.384  32.273  19.832  1.00 98.06 LIG 0.23  C 
BRANCH 30 31
ATOM     31  N   GLY G 811     -24.109  32.707  21.191  1.00 97.66 LIG-0.35  N 
ATOM     32 H    GLY G 811     -24.378  33.501  21.380  1.00 97.66 LIG 0.16  HD
ATOM     33  C   GLN G 810     -23.482  31.899  22.043  1.00 97.43 LIG 0.26  C 
ATOM     34 O    GLN G 810     -23.090  30.773  21.733  1.00 97.76 LIG-0.27  OA
BRANCH 33 35
ATOM     35  CA  GLN G 810     -23.247  32.441  23.453  1.00 96.79 LIG 0.40  C 
ATOM     36  N   GLN G 810     -24.273  33.469  23.796  1.00 96.61 LIG 0.61  N 
BRANCH 35 37
ATOM     37  CB  GLN G 810     -23.307  31.281  24.444  1.00 96.38 LIG 0.06  C 
BRANCH 37 38
ATOM     38  CG  GLN G 810     -24.703  30.868  24.885  1.00 95.56 LIG 0.10  C 
BRANCH 38 39
ATOM     39  CD  GLN G 810     -25.380  29.977  23.867  1.00 95.11 LIG 0.21  C 
ATOM     40  NE2 GLN G 810     -25.413  28.680  24.153  1.00 94.31 LIG-0.37  N 
ATOM     41 21HE GLN G 810     -25.060  28.391  24.882  1.00 94.31 LIG 0.16  HD
ATOM     42 22HE GLN G 810     -25.787  28.129  23.608  1.00 94.31 LIG 0.16  HD
ATOM     43 OE1  GLN G 810     -25.869  30.445  22.838  1.00 94.65 LIG-0.27  OA
ENDBRANCH 38 39
ENDBRANCH 37 38
ENDBRANCH 35 37
ENDBRANCH 33 35
ENDBRANCH 30 31
ENDBRANCH 27 30
ENDBRANCH 1 26
TORSDOF 17
ENDMDL
MODEL 20
USER: ADFR SOLUTION from run 115
USER: SCORE 10.908381 LL:  -1.637 LR: -10.778 RR:   0.000 FEB:  -5.707
USER: RMSD 7.455602
USER: SEED 114
USER: STATUS no improvement in best in 18 clusters for 5 generations
USER: GENES 19
USER: genes 0 Translation |==|  0.40449 0.38197 0.44310
USER: genes 1 Rotation |==|  0.44670 0.41633 0.44335 0.98677
USER: genes 2 Torsion [C]-CA--CB-[CG] |==|  0.39032
USER: genes 3 Torsion [CA]-CB--CG-[CD2] |==|  0.16181
USER: genes 4 Torsion [N]-CA--C-[N] |==|  0.51460
USER: genes 5 Torsion [C]-N--CA-[C] |==|  0.27053
USER: genes 6 Torsion [N]-CA--C-[N] |==|  0.04916
USER: genes 7 Torsion [C]-N--CA-[CB] |==|  0.38481
USER: genes 8 Torsion [N]-CA--CB-[CG] |==|  0.63221
USER: genes 9 Torsion [CA]-CB--CG-[CD] |==|  0.71098
USER: genes 10 Torsion [CB]-CG--CD-[OE2] |==|  0.22725
USER: genes 11 Torsion [N]-CA--C-[OXT] |==|  0.80562
USER: genes 12 Torsion [CB]-CA--N-[C] |==|  0.20000
USER: genes 13 Torsion [N]-C--CA-[N] |==|  0.38517
USER: genes 14 Torsion [C]-CA--N-[C] |==|  0.71649
USER: genes 15 Torsion [N]-C--CA-[N] |==|  0.04319
USER: genes 16 Torsion [C]-CA--CB-[CG] |==|  0.20663
USER: genes 17 Torsion [CA]-CB--CG-[CD] |==|  0.43225
USER: genes 18 Torsion [CB]-CG--CD-[NE2] |==|  0.16806
ROOT
ATOM      1  CA  HIS G 812     -27.907  31.560  20.325  1.00 98.11 LIG 0.18  C 
ENDROOT
BRANCH 1 2
ATOM      2  CB  HIS G 812     -27.934  30.032  20.470  1.00 96.29 LIG 0.10  C 
BRANCH 2 3
ATOM      3  CG  HIS G 812     -28.379  29.277  19.248  1.00 94.00 LIG 0.06  A 
ATOM      4  CD2 HIS G 812     -27.889  29.251  17.993  1.00 93.71 LIG 0.14  A 
ATOM      5 NE2  HIS G 812     -28.789  28.553  17.214  1.00 93.19 LIG-0.25  NA
ATOM      6  CE1 HIS G 812     -29.789  28.157  17.983  1.00 92.78 LIG 0.23  A 
ATOM      7 ND1  HIS G 812     -29.567  28.574  19.213  1.00 93.58 LIG-0.24  NA
ENDBRANCH 2 3
ENDBRANCH 1 2
BRANCH 1 8
ATOM      8  C   HIS G 812     -28.421  32.126  21.645  1.00 99.25 LIG 0.24  C 
ATOM      9  N   GLY G 813     -29.641  31.775  22.030  1.00100.26 LIG-0.35  N 
ATOM     10 H    GLY G 813     -30.168  31.259  21.588  1.00100.26 LIG 0.16  HD
ATOM     11 O    HIS G 812     -27.698  32.859  22.322  1.00 99.52 LIG-0.27  OA
BRANCH 9 12
ATOM     12  CA  GLY G 813     -30.172  32.274  23.286  1.00101.48 LIG 0.23  C 
BRANCH 12 13
ATOM     13  C   GLY G 813     -31.067  33.489  23.115  1.00102.44 LIG 0.24  C 
ATOM     14 O    GLY G 813     -31.313  34.212  24.079  1.00102.98 LIG-0.27  OA
ATOM     15  N   GLU G 814     -31.550  33.726  21.896  1.00102.70 LIG-0.34  N 
ATOM     16 H    GLU G 814     -31.378  33.243  21.206  1.00102.70 LIG 0.16  HD
BRANCH 15 17
ATOM     17  CA  GLU G 814     -32.436  34.864  21.640  1.00102.89 LIG 0.19  C 
BRANCH 17 18
ATOM     18  CB  GLU G 814     -32.075  35.552  20.316  1.00101.97 LIG 0.05  C 
BRANCH 18 19
ATOM     19  CG  GLU G 814     -31.965  37.062  20.389  1.00100.63 LIG 0.12  C 
BRANCH 19 20
ATOM     20  CD  GLU G 814     -33.169  37.768  19.783  1.00100.36 LIG 0.17  C 
ATOM     21 OE1  GLU G 814     -33.083  38.189  18.608  1.00 99.71 LIG-0.65  OA
ATOM     22 OE2  GLU G 814     -34.201  37.898  20.474  1.00 99.42 LIG-0.65  OA
ENDBRANCH 19 20
ENDBRANCH 18 19
ENDBRANCH 17 18
BRANCH 17 23
ATOM     23  C   GLU G 814     -33.898  34.411  21.582  1.00103.78 LIG 0.20  C 
ATOM     24 OXT  GLU G 814     -34.275  33.719  20.608  1.00104.07 LIG-0.65  OA
ATOM     25 O    GLU G 814     -34.654  34.750  22.519  1.00104.32 LIG-0.65  OA
ENDBRANCH 17 23
ENDBRANCH 15 17
ENDBRANCH 12 13
ENDBRANCH 9 12
ENDBRANCH 1 8
BRANCH 1 26
ATOM     26  N   HIS G 812     -26.523  32.054  20.314  1.00 98.48 LIG-0.35  N 
ATOM     27  C   GLY G 811     -25.652  31.903  19.315  1.00 98.46 LIG 0.24  C 
ATOM     28 O    GLY G 811     -25.888  31.283  18.271  1.00 98.78 LIG-0.27  OA
ATOM     29 H    HIS G 812     -26.316  32.466  21.039  1.00 98.48 LIG 0.16  HD
BRANCH 27 30
ATOM     30  CA  GLY G 811     -24.298  32.554  19.552  1.00 98.06 LIG 0.23  C 
BRANCH 30 31
ATOM     31  N   GLY G 811     -23.129  31.798  19.140  1.00 97.66 LIG-0.35  N 
ATOM     32 H    GLY G 811     -22.968  31.810  18.296  1.00 97.66 LIG 0.16  HD
ATOM     33  C   GLN G 810     -22.393  31.149  20.041  1.00 97.43 LIG 0.26  C 
ATOM     34 O    GLN G 810     -22.666  31.136  21.242  1.00 97.76 LIG-0.27  OA
BRANCH 33 35
ATOM     35  CA  GLN G 810     -21.177  30.389  19.512  1.00 96.79 LIG 0.40  C 
ATOM     36  N   GLN G 810     -20.846  30.833  18.126  1.00 96.61 LIG 0.61  N 
BRANCH 35 37
ATOM     37  CB  GLN G 810     -19.995  30.639  20.445  1.00 96.38 LIG 0.06  C 
BRANCH 37 38
ATOM     38  CG  GLN G 810     -20.046  29.908  21.778  1.00 95.56 LIG 0.10  C 
BRANCH 38 39
ATOM     39  CD  GLN G 810     -18.669  29.711  22.371  1.00 95.11 LIG 0.21  C 
ATOM     40  NE2 GLN G 810     -17.980  30.816  22.634  1.00 94.31 LIG-0.37  N 
ATOM     41 21HE GLN G 810     -18.322  31.587  22.465  1.00 94.31 LIG 0.16  HD
ATOM     42 22HE GLN G 810     -17.191  30.761  22.974  1.00 94.31 LIG 0.16  HD
ATOM     43 OE1  GLN G 810     -18.226  28.583  22.592  1.00 94.65 LIG-0.27  OA
ENDBRANCH 38 39
ENDBRANCH 37 38
ENDBRANCH 35 37
ENDBRANCH 33 35
ENDBRANCH 30 31
ENDBRANCH 27 30
ENDBRANCH 1 26
TORSDOF 17
ENDMDL
MODEL 21
USER: ADFR SOLUTION from run 4
USER: SCORE 11.493634 LL:  -1.919 LR: -10.778 RR:   0.000 FEB:  -5.707
USER: RMSD 11.127959
USER: SEED 870682
USER: STATUS no improvement in best in 32 clusters for 5 generations
USER: GENES 19
USER: genes 0 Translation |==|  0.49999 0.34202 0.46831
USER: genes 1 Rotation |==|  0.22139 0.22891 0.18902 0.54668
USER: genes 2 Torsion [C]-CA--CB-[CG] |==|  0.38267
USER: genes 3 Torsion [CA]-CB--CG-[CD2] |==|  0.27853
USER: genes 4 Torsion [N]-CA--C-[N] |==|  0.37380
USER: genes 5 Torsion [C]-N--CA-[C] |==|  0.34515
USER: genes 6 Torsion [N]-CA--C-[N] |==|  0.20100
USER: genes 7 Torsion [C]-N--CA-[CB] |==|  0.84871
USER: genes 8 Torsion [N]-CA--CB-[CG] |==|  0.54220
USER: genes 9 Torsion [CA]-CB--CG-[CD] |==|  0.33153
USER: genes 10 Torsion [CB]-CG--CD-[OE2] |==|  0.64533
USER: genes 11 Torsion [N]-CA--C-[OXT] |==|  0.61911
USER: genes 12 Torsion [CB]-CA--N-[C] |==|  0.53353
USER: genes 13 Torsion [N]-C--CA-[N] |==|  0.98693
USER: genes 14 Torsion [C]-CA--N-[C] |==|  0.75556
USER: genes 15 Torsion [N]-C--CA-[N] |==|  0.72026
USER: genes 16 Torsion [C]-CA--CB-[CG] |==|  0.30534
USER: genes 17 Torsion [CA]-CB--CG-[CD] |==|  0.31354
USER: genes 18 Torsion [CB]-CG--CD-[NE2] |==|  0.27576
ROOT
ATOM      1  CA  HIS G 812     -26.044  30.811  20.949  1.00 98.11 LIG 0.18  C 
ENDROOT
BRANCH 1 2
ATOM      2  CB  HIS G 812     -27.364  31.366  20.394  1.00 96.29 LIG 0.10  C 
BRANCH 2 3
ATOM      3  CG  HIS G 812     -28.230  30.370  19.674  1.00 94.00 LIG 0.06  A 
ATOM      4  CD2 HIS G 812     -29.318  29.686  20.075  1.00 93.71 LIG 0.14  A 
ATOM      5 NE2  HIS G 812     -29.605  28.757  19.097  1.00 93.19 LIG-0.25  NA
ATOM      6  CE1 HIS G 812     -28.719  28.887  18.124  1.00 92.78 LIG 0.23  A 
ATOM      7 ND1  HIS G 812     -27.883  29.854  18.441  1.00 93.58 LIG-0.24  NA
ENDBRANCH 2 3
ENDBRANCH 1 2
BRANCH 1 8
ATOM      8  C   HIS G 812     -24.977  31.858  20.646  1.00 99.25 LIG 0.24  C 
ATOM      9  N   GLY G 813     -24.070  31.562  19.723  1.00100.26 LIG-0.35  N 
ATOM     10 H    GLY G 813     -24.033  30.822  19.289  1.00100.26 LIG 0.16  HD
ATOM     11 O    HIS G 812     -24.996  32.942  21.233  1.00 99.52 LIG-0.27  OA
BRANCH 9 12
ATOM     12  CA  GLY G 813     -23.042  32.531  19.388  1.00101.48 LIG 0.23  C 
BRANCH 12 13
ATOM     13  C   GLY G 813     -21.633  31.984  19.540  1.00102.44 LIG 0.24  C 
ATOM     14 O    GLY G 813     -20.928  32.355  20.477  1.00102.98 LIG-0.27  OA
ATOM     15  N   GLU G 814     -21.220  31.098  18.635  1.00102.70 LIG-0.34  N 
ATOM     16 H    GLU G 814     -21.702  30.813  17.982  1.00102.70 LIG 0.16  HD
BRANCH 15 17
ATOM     17  CA  GLU G 814     -19.871  30.529  18.692  1.00102.89 LIG 0.19  C 
BRANCH 17 18
ATOM     18  CB  GLU G 814     -18.811  31.637  18.723  1.00101.97 LIG 0.05  C 
BRANCH 18 19
ATOM     19  CG  GLU G 814     -17.397  31.178  18.421  1.00100.63 LIG 0.12  C 
BRANCH 19 20
ATOM     20  CD  GLU G 814     -16.810  31.858  17.192  1.00100.36 LIG 0.17  C 
ATOM     21 OE1  GLU G 814     -16.831  33.108  17.135  1.00 99.71 LIG-0.65  OA
ATOM     22 OE2  GLU G 814     -16.323  31.148  16.288  1.00 99.42 LIG-0.65  OA
ENDBRANCH 19 20
ENDBRANCH 18 19
ENDBRANCH 17 18
BRANCH 17 23
ATOM     23  C   GLU G 814     -19.707  29.647  19.934  1.00103.78 LIG 0.20  C 
ATOM     24 OXT  GLU G 814     -18.648  29.735  20.598  1.00104.07 LIG-0.65  OA
ATOM     25 O    GLU G 814     -20.646  28.877  20.234  1.00104.32 LIG-0.65  OA
ENDBRANCH 17 23
ENDBRANCH 15 17
ENDBRANCH 12 13
ENDBRANCH 9 12
ENDBRANCH 1 8
BRANCH 1 26
ATOM     26  N   HIS G 812     -26.055  30.820  22.417  1.00 98.48 LIG-0.35  N 
ATOM     27  C   GLY G 811     -24.995  30.622  23.204  1.00 98.46 LIG 0.24  C 
ATOM     28 O    GLY G 811     -23.860  30.360  22.790  1.00 98.78 LIG-0.27  OA
ATOM     29 H    HIS G 812     -26.838  30.972  22.739  1.00 98.48 LIG 0.16  HD
BRANCH 27 30
ATOM     30  CA  GLY G 811     -25.284  30.731  24.693  1.00 98.06 LIG 0.23  C 
BRANCH 30 31
ATOM     31  N   GLY G 811     -26.626  31.136  25.070  1.00 97.66 LIG-0.35  N 
ATOM     32 H    GLY G 811     -27.177  30.489  25.202  1.00 97.66 LIG 0.16  HD
ATOM     33  C   GLN G 810     -26.934  32.426  25.189  1.00 97.43 LIG 0.26  C 
ATOM     34 O    GLN G 810     -26.125  33.329  24.971  1.00 97.76 LIG-0.27  OA
BRANCH 33 35
ATOM     35  CA  GLN G 810     -28.370  32.752  25.598  1.00 96.79 LIG 0.40  C 
ATOM     36  N   GLN G 810     -29.176  33.151  24.408  1.00 96.61 LIG 0.61  N 
BRANCH 35 37
ATOM     37  CB  GLN G 810     -28.983  31.524  26.266  1.00 96.38 LIG 0.06  C 
BRANCH 37 38
ATOM     38  CG  GLN G 810     -29.225  31.643  27.763  1.00 95.56 LIG 0.10  C 
BRANCH 38 39
ATOM     39  CD  GLN G 810     -30.699  31.648  28.101  1.00 95.11 LIG 0.21  C 
ATOM     40  NE2 GLN G 810     -31.210  30.494  28.515  1.00 94.31 LIG-0.37  N 
ATOM     41 21HE GLN G 810     -30.708  29.798  28.577  1.00 94.31 LIG 0.16  HD
ATOM     42 22HE GLN G 810     -32.043  30.441  28.722  1.00 94.31 LIG 0.16  HD
ATOM     43 OE1  GLN G 810     -31.373  32.674  27.995  1.00 94.65 LIG-0.27  OA
ENDBRANCH 38 39
ENDBRANCH 37 38
ENDBRANCH 35 37
ENDBRANCH 33 35
ENDBRANCH 30 31
ENDBRANCH 27 30
ENDBRANCH 1 26
TORSDOF 17
ENDMDL
MODEL 22
USER: ADFR SOLUTION from run 179
USER: SCORE 13.255974 LL:  -2.753 LR: -10.762 RR:   0.000 FEB:  -5.691
USER: RMSD 6.172039
USER: SEED 178
USER: STATUS no improvement in best in 12 clusters for 5 generations
USER: GENES 19
USER: genes 0 Translation |==|  0.36634 0.32368 0.41492
USER: genes 1 Rotation |==|  0.46788 0.44050 0.44490 0.99233
USER: genes 2 Torsion [C]-CA--CB-[CG] |==|  0.34485
USER: genes 3 Torsion [CA]-CB--CG-[CD2] |==|  0.28161
USER: genes 4 Torsion [N]-CA--C-[N] |==|  0.10785
USER: genes 5 Torsion [C]-N--CA-[C] |==|  0.81977
USER: genes 6 Torsion [N]-CA--C-[N] |==|  0.89474
USER: genes 7 Torsion [C]-N--CA-[CB] |==|  0.18981
USER: genes 8 Torsion [N]-CA--CB-[CG] |==|  0.52514
USER: genes 9 Torsion [CA]-CB--CG-[CD] |==|  0.18160
USER: genes 10 Torsion [CB]-CG--CD-[OE2] |==|  0.38003
USER: genes 11 Torsion [N]-CA--C-[OXT] |==|  0.89649
USER: genes 12 Torsion [CB]-CA--N-[C] |==|  0.16582
USER: genes 13 Torsion [N]-C--CA-[N] |==|  0.93553
USER: genes 14 Torsion [C]-CA--N-[C] |==|  0.25825
USER: genes 15 Torsion [N]-C--CA-[N] |==|  0.82146
USER: genes 16 Torsion [C]-CA--CB-[CG] |==|  0.75567
USER: genes 17 Torsion [CA]-CB--CG-[CD] |==|  0.34227
USER: genes 18 Torsion [CB]-CG--CD-[NE2] |==|  0.65814
ROOT
ATOM      1  CA  HIS G 812     -28.650  30.467  19.627  1.00 98.11 LIG 0.18  C 
ENDROOT
BRANCH 1 2
ATOM      2  CB  HIS G 812     -28.652  28.932  19.628  1.00 96.29 LIG 0.10  C 
BRANCH 2 3
ATOM      3  CG  HIS G 812     -29.527  28.288  18.588  1.00 94.00 LIG 0.06  A 
ATOM      4  CD2 HIS G 812     -29.228  27.726  17.401  1.00 93.71 LIG 0.14  A 
ATOM      5 NE2  HIS G 812     -30.419  27.472  16.753  1.00 93.19 LIG-0.25  NA
ATOM      6  CE1 HIS G 812     -31.411  27.859  17.536  1.00 92.78 LIG 0.23  A 
ATOM      7 ND1  HIS G 812     -30.905  28.350  18.649  1.00 93.58 LIG-0.24  NA
ENDBRANCH 2 3
ENDBRANCH 1 2
BRANCH 1 8
ATOM      8  C   HIS G 812     -29.049  30.898  21.035  1.00 99.25 LIG 0.24  C 
ATOM      9  N   GLY G 813     -28.641  32.090  21.452  1.00100.26 LIG-0.35  N 
ATOM     10 H    GLY G 813     -28.161  32.635  20.991  1.00100.26 LIG 0.16  HD
ATOM     11 O    HIS G 812     -29.749  30.158  21.729  1.00 99.52 LIG-0.27  OA
BRANCH 9 12
ATOM     12  CA  GLY G 813     -29.007  32.554  22.779  1.00101.48 LIG 0.23  C 
BRANCH 12 13
ATOM     13  C   GLY G 813     -30.501  32.763  22.946  1.00102.44 LIG 0.24  C 
ATOM     14 O    GLY G 813     -31.046  32.477  24.012  1.00102.98 LIG-0.27  OA
ATOM     15  N   GLU G 814     -31.169  33.268  21.910  1.00102.70 LIG-0.34  N 
ATOM     16 H    GLU G 814     -30.805  33.489  21.162  1.00102.70 LIG 0.16  HD
BRANCH 15 17
ATOM     17  CA  GLU G 814     -32.616  33.488  21.973  1.00102.89 LIG 0.19  C 
BRANCH 17 18
ATOM     18  CB  GLU G 814     -32.955  34.615  22.958  1.00101.97 LIG 0.05  C 
BRANCH 18 19
ATOM     19  CG  GLU G 814     -34.432  34.778  23.259  1.00100.63 LIG 0.12  C 
BRANCH 19 20
ATOM     20  CD  GLU G 814     -35.017  33.578  23.990  1.00100.36 LIG 0.17  C 
ATOM     21 OE1  GLU G 814     -34.694  32.431  23.608  1.00 99.71 LIG-0.65  OA
ATOM     22 OE2  GLU G 814     -35.794  33.777  24.947  1.00 99.42 LIG-0.65  OA
ENDBRANCH 19 20
ENDBRANCH 18 19
ENDBRANCH 17 18
BRANCH 17 23
ATOM     23  C   GLU G 814     -33.170  33.850  20.592  1.00103.78 LIG 0.20  C 
ATOM     24 OXT  GLU G 814     -32.481  34.575  19.838  1.00104.07 LIG-0.65  OA
ATOM     25 O    GLU G 814     -34.293  33.398  20.275  1.00104.32 LIG-0.65  OA
ENDBRANCH 17 23
ENDBRANCH 15 17
ENDBRANCH 12 13
ENDBRANCH 9 12
ENDBRANCH 1 8
BRANCH 1 26
ATOM     26  N   HIS G 812     -27.278  30.982  19.542  1.00 98.48 LIG-0.35  N 
ATOM     27  C   GLY G 811     -26.417  30.742  18.550  1.00 98.46 LIG 0.24  C 
ATOM     28 O    GLY G 811     -26.656  30.010  17.582  1.00 98.78 LIG-0.27  OA
ATOM     29 H    HIS G 812     -27.069  31.474  20.216  1.00 98.48 LIG 0.16  HD
BRANCH 27 30
ATOM     30  CA  GLY G 811     -25.074  31.441  18.694  1.00 98.06 LIG 0.23  C 
BRANCH 30 31
ATOM     31  N   GLY G 811     -25.044  32.630  19.527  1.00 97.66 LIG-0.35  N 
ATOM     32 H    GLY G 811     -25.237  33.363  19.120  1.00 97.66 LIG 0.16  HD
ATOM     33  C   GLN G 810     -24.734  32.542  20.819  1.00 97.43 LIG 0.26  C 
ATOM     34 O    GLN G 810     -24.441  31.478  21.365  1.00 97.76 LIG-0.27  OA
BRANCH 33 35
ATOM     35  CA  GLN G 810     -24.738  33.848  21.614  1.00 96.79 LIG 0.40  C 
ATOM     36  N   GLN G 810     -23.683  34.773  21.105  1.00 96.61 LIG 0.61  N 
BRANCH 35 37
ATOM     37  CB  GLN G 810     -26.115  34.496  21.490  1.00 96.38 LIG 0.06  C 
BRANCH 37 38
ATOM     38  CG  GLN G 810     -26.301  35.417  20.294  1.00 95.56 LIG 0.10  C 
BRANCH 38 39
ATOM     39  CD  GLN G 810     -27.463  34.992  19.425  1.00 95.11 LIG 0.21  C 
ATOM     40  NE2 GLN G 810     -27.184  34.750  18.149  1.00 94.31 LIG-0.37  N 
ATOM     41 21HE GLN G 810     -26.379  34.841  17.860  1.00 94.31 LIG 0.16  HD
ATOM     42 22HE GLN G 810     -27.808  34.504  17.611  1.00 94.31 LIG 0.16  HD
ATOM     43 OE1  GLN G 810     -28.598  34.878  19.891  1.00 94.65 LIG-0.27  OA
ENDBRANCH 38 39
ENDBRANCH 37 38
ENDBRANCH 35 37
ENDBRANCH 33 35
ENDBRANCH 30 31
ENDBRANCH 27 30
ENDBRANCH 1 26
TORSDOF 17
ENDMDL
MODEL 23
USER: ADFR SOLUTION from run 156
USER: SCORE 12.077847 LL:  -2.197 LR: -10.765 RR:   0.000 FEB:  -5.693
USER: RMSD 9.653612
USER: SEED 155
USER: STATUS no improvement in best in 19 clusters for 5 generations
USER: GENES 19
USER: genes 0 Translation |==|  0.45228 0.30374 0.39238
USER: genes 1 Rotation |==|  0.69763 0.87128 0.75436 0.59163
USER: genes 2 Torsion [C]-CA--CB-[CG] |==|  0.27003
USER: genes 3 Torsion [CA]-CB--CG-[CD2] |==|  0.33727
USER: genes 4 Torsion [N]-CA--C-[N] |==|  0.14596
USER: genes 5 Torsion [C]-N--CA-[C] |==|  0.65432
USER: genes 6 Torsion [N]-CA--C-[N] |==|  0.40061
USER: genes 7 Torsion [C]-N--CA-[CB] |==|  0.41629
USER: genes 8 Torsion [N]-CA--CB-[CG] |==|  0.30674
USER: genes 9 Torsion [CA]-CB--CG-[CD] |==|  0.39342
USER: genes 10 Torsion [CB]-CG--CD-[OE2] |==|  0.30356
USER: genes 11 Torsion [N]-CA--C-[OXT] |==|  0.42764
USER: genes 12 Torsion [CB]-CA--N-[C] |==|  0.15376
USER: genes 13 Torsion [N]-C--CA-[N] |==|  0.00246
USER: genes 14 Torsion [C]-CA--N-[C] |==|  0.32600
USER: genes 15 Torsion [N]-C--CA-[N] |==|  0.05310
USER: genes 16 Torsion [C]-CA--CB-[CG] |==|  0.77806
USER: genes 17 Torsion [CA]-CB--CG-[CD] |==|  0.27416
USER: genes 18 Torsion [CB]-CG--CD-[NE2] |==|  0.49276
ROOT
ATOM      1  CA  HIS G 812     -26.974  30.093  19.069  1.00 98.11 LIG 0.18  C 
ENDROOT
BRANCH 1 2
ATOM      2  CB  HIS G 812     -27.918  29.937  17.868  1.00 96.29 LIG 0.10  C 
BRANCH 2 3
ATOM      3  CG  HIS G 812     -27.751  28.667  17.079  1.00 94.00 LIG 0.06  A 
ATOM      4  CD2 HIS G 812     -28.620  27.678  16.795  1.00 93.71 LIG 0.14  A 
ATOM      5 NE2  HIS G 812     -27.902  26.654  16.213  1.00 93.19 LIG-0.25  NA
ATOM      6  CE1 HIS G 812     -26.635  27.022  16.137  1.00 92.78 LIG 0.23  A 
ATOM      7 ND1  HIS G 812     -26.515  28.231  16.646  1.00 93.58 LIG-0.24  NA
ENDBRANCH 2 3
ENDBRANCH 1 2
BRANCH 1 8
ATOM      8  C   HIS G 812     -25.812  30.957  18.592  1.00 99.25 LIG 0.24  C 
ATOM      9  N   GLY G 813     -24.982  31.433  19.512  1.00100.26 LIG-0.35  N 
ATOM     10 H    GLY G 813     -25.054  31.298  20.358  1.00100.26 LIG 0.16  HD
ATOM     11 O    HIS G 812     -25.657  31.168  17.388  1.00 99.52 LIG-0.27  OA
BRANCH 9 12
ATOM     12  CA  GLY G 813     -23.850  32.249  19.108  1.00101.48 LIG 0.23  C 
BRANCH 12 13
ATOM     13  C   GLY G 813     -22.519  31.709  19.602  1.00102.44 LIG 0.24  C 
ATOM     14 O    GLY G 813     -22.449  31.162  20.702  1.00102.98 LIG-0.27  OA
ATOM     15  N   GLU G 814     -21.465  31.849  18.800  1.00102.70 LIG-0.34  N 
ATOM     16 H    GLU G 814     -21.495  32.214  18.022  1.00102.70 LIG 0.16  HD
BRANCH 15 17
ATOM     17  CA  GLU G 814     -20.138  31.376  19.200  1.00102.89 LIG 0.19  C 
BRANCH 17 18
ATOM     18  CB  GLU G 814     -19.316  30.953  17.976  1.00101.97 LIG 0.05  C 
BRANCH 18 19
ATOM     19  CG  GLU G 814     -18.146  31.860  17.647  1.00100.63 LIG 0.12  C 
BRANCH 19 20
ATOM     20  CD  GLU G 814     -16.921  31.090  17.175  1.00100.36 LIG 0.17  C 
ATOM     21 OE1  GLU G 814     -16.294  30.398  18.007  1.00 99.71 LIG-0.65  OA
ATOM     22 OE2  GLU G 814     -16.587  31.169  15.974  1.00 99.42 LIG-0.65  OA
ENDBRANCH 19 20
ENDBRANCH 18 19
ENDBRANCH 17 18
BRANCH 17 23
ATOM     23  C   GLU G 814     -19.378  32.469  19.956  1.00103.78 LIG 0.20  C 
ATOM     24 OXT  GLU G 814     -18.491  32.130  20.774  1.00104.07 LIG-0.65  OA
ATOM     25 O    GLU G 814     -19.674  33.661  19.717  1.00104.32 LIG-0.65  OA
ENDBRANCH 17 23
ENDBRANCH 15 17
ENDBRANCH 12 13
ENDBRANCH 9 12
ENDBRANCH 1 8
BRANCH 1 26
ATOM     26  N   HIS G 812     -27.579  30.956  20.093  1.00 98.48 LIG-0.35  N 
ATOM     27  C   GLY G 811     -28.770  30.766  20.665  1.00 98.46 LIG 0.24  C 
ATOM     28 O    GLY G 811     -29.546  29.848  20.372  1.00 98.78 LIG-0.27  OA
ATOM     29 H    HIS G 812     -27.076  31.622  20.300  1.00 98.48 LIG 0.16  HD
BRANCH 27 30
ATOM     30  CA  GLY G 811     -29.130  31.790  21.730  1.00 98.06 LIG 0.23  C 
BRANCH 30 31
ATOM     31  N   GLY G 811     -28.162  32.844  21.976  1.00 97.66 LIG-0.35  N 
ATOM     32 H    GLY G 811     -27.400  32.575  22.269  1.00 97.66 LIG 0.16  HD
ATOM     33  C   GLN G 810     -28.478  34.117  21.750  1.00 97.43 LIG 0.26  C 
ATOM     34 O    GLN G 810     -29.587  34.470  21.350  1.00 97.76 LIG-0.27  OA
BRANCH 33 35
ATOM     35  CA  GLN G 810     -27.388  35.152  22.030  1.00 96.79 LIG 0.40  C 
ATOM     36  N   GLN G 810     -26.046  34.502  22.067  1.00 96.61 LIG 0.61  N 
BRANCH 35 37
ATOM     37  CB  GLN G 810     -27.430  36.220  20.940  1.00 96.38 LIG 0.06  C 
BRANCH 37 38
ATOM     38  CG  GLN G 810     -26.758  35.844  19.628  1.00 95.56 LIG 0.10  C 
BRANCH 38 39
ATOM     39  CD  GLN G 810     -27.755  35.371  18.594  1.00 95.11 LIG 0.21  C 
ATOM     40  NE2 GLN G 810     -27.262  35.072  17.397  1.00 94.31 LIG-0.37  N 
ATOM     41 21HE GLN G 810     -26.419  35.153  17.247  1.00 94.31 LIG 0.16  HD
ATOM     42 22HE GLN G 810     -27.786  34.797  16.772  1.00 94.31 LIG 0.16  HD
ATOM     43 OE1  GLN G 810     -28.953  35.273  18.863  1.00 94.65 LIG-0.27  OA
ENDBRANCH 38 39
ENDBRANCH 37 38
ENDBRANCH 35 37
ENDBRANCH 33 35
ENDBRANCH 30 31
ENDBRANCH 27 30
ENDBRANCH 1 26
TORSDOF 17
ENDMDL
MODEL 24
USER: ADFR SOLUTION from run 24
USER: SCORE 11.158021 LL:  -2.096 LR: -10.749 RR:   0.000 FEB:  -5.678
USER: RMSD 11.885890
USER: SEED 23
USER: STATUS no improvement in best in 20 clusters for 5 generations
USER: GENES 19
USER: genes 0 Translation |==|  0.59856 0.43306 0.42416
USER: genes 1 Rotation |==|  0.21718 0.82430 0.42115 0.74213
USER: genes 2 Torsion [C]-CA--CB-[CG] |==|  0.45352
USER: genes 3 Torsion [CA]-CB--CG-[CD2] |==|  0.90273
USER: genes 4 Torsion [N]-CA--C-[N] |==|  0.44328
USER: genes 5 Torsion [C]-N--CA-[C] |==|  0.23583
USER: genes 6 Torsion [N]-CA--C-[N] |==|  0.57016
USER: genes 7 Torsion [C]-N--CA-[CB] |==|  0.20681
USER: genes 8 Torsion [N]-CA--CB-[CG] |==|  0.14684
USER: genes 9 Torsion [CA]-CB--CG-[CD] |==|  0.54244
USER: genes 10 Torsion [CB]-CG--CD-[OE2] |==|  0.18977
USER: genes 11 Torsion [N]-CA--C-[OXT] |==|  0.87717
USER: genes 12 Torsion [CB]-CA--N-[C] |==|  0.27213
USER: genes 13 Torsion [N]-C--CA-[N] |==|  0.38343
USER: genes 14 Torsion [C]-CA--N-[C] |==|  0.36987
USER: genes 15 Torsion [N]-C--CA-[N] |==|  0.90195
USER: genes 16 Torsion [C]-CA--CB-[CG] |==|  0.27646
USER: genes 17 Torsion [CA]-CB--CG-[CD] |==|  0.16158
USER: genes 18 Torsion [CB]-CG--CD-[NE2] |==|  0.36755
ROOT
ATOM      1  CA  HIS G 812     -24.122  32.518  19.856  1.00 98.11 LIG 0.18  C 
ENDROOT
BRANCH 1 2
ATOM      2  CB  HIS G 812     -23.413  31.704  20.948  1.00 96.29 LIG 0.10  C 
BRANCH 2 3
ATOM      3  CG  HIS G 812     -24.283  31.272  22.096  1.00 94.00 LIG 0.06  A 
ATOM      4  CD2 HIS G 812     -25.318  31.882  22.704  1.00 93.71 LIG 0.14  A 
ATOM      5 NE2  HIS G 812     -25.629  31.146  23.828  1.00 93.19 LIG-0.25  NA
ATOM      6  CE1 HIS G 812     -24.809  30.110  23.888  1.00 92.78 LIG 0.23  A 
ATOM      7 ND1  HIS G 812     -23.992  30.157  22.857  1.00 93.58 LIG-0.24  NA
ENDBRANCH 2 3
ENDBRANCH 1 2
BRANCH 1 8
ATOM      8  C   HIS G 812     -23.023  33.195  19.043  1.00 99.25 LIG 0.24  C 
ATOM      9  N   GLY G 813     -22.545  34.347  19.496  1.00100.26 LIG-0.35  N 
ATOM     10 H    GLY G 813     -22.814  34.746  20.209  1.00100.26 LIG 0.16  HD
ATOM     11 O    HIS G 812     -22.594  32.656  18.021  1.00 99.52 LIG-0.27  OA
BRANCH 9 12
ATOM     12  CA  GLY G 813     -21.487  35.025  18.767  1.00101.48 LIG 0.23  C 
BRANCH 12 13
ATOM     13  C   GLY G 813     -22.006  35.900  17.639  1.00102.44 LIG 0.24  C 
ATOM     14 O    GLY G 813     -23.145  36.360  17.694  1.00102.98 LIG-0.27  OA
ATOM     15  N   GLU G 814     -21.180  36.141  16.622  1.00102.70 LIG-0.34  N 
ATOM     16 H    GLU G 814     -20.375  35.842  16.572  1.00102.70 LIG 0.16  HD
BRANCH 15 17
ATOM     17  CA  GLU G 814     -21.600  36.959  15.482  1.00102.89 LIG 0.19  C 
BRANCH 17 18
ATOM     18  CB  GLU G 814     -21.640  38.446  15.861  1.00101.97 LIG 0.05  C 
BRANCH 18 19
ATOM     19  CG  GLU G 814     -20.365  38.983  16.480  1.00100.63 LIG 0.12  C 
BRANCH 19 20
ATOM     20  CD  GLU G 814     -20.567  40.325  17.168  1.00100.36 LIG 0.17  C 
ATOM     21 OE1  GLU G 814     -20.036  41.339  16.663  1.00 99.71 LIG-0.65  OA
ATOM     22 OE2  GLU G 814     -21.259  40.371  18.207  1.00 99.42 LIG-0.65  OA
ENDBRANCH 19 20
ENDBRANCH 18 19
ENDBRANCH 17 18
BRANCH 17 23
ATOM     23  C   GLU G 814     -20.643  36.773  14.300  1.00103.78 LIG 0.20  C 
ATOM     24 OXT  GLU G 814     -19.409  36.773  14.518  1.00104.07 LIG-0.65  OA
ATOM     25 O    GLU G 814     -21.141  36.623  13.162  1.00104.32 LIG-0.65  OA
ENDBRANCH 17 23
ENDBRANCH 15 17
ENDBRANCH 12 13
ENDBRANCH 9 12
ENDBRANCH 1 8
BRANCH 1 26
ATOM     26  N   HIS G 812     -24.721  31.628  18.853  1.00 98.48 LIG-0.35  N 
ATOM     27  C   GLY G 811     -26.000  31.247  18.816  1.00 98.46 LIG 0.24  C 
ATOM     28 O    GLY G 811     -26.847  31.567  19.658  1.00 98.78 LIG-0.27  OA
ATOM     29 H    HIS G 812     -24.151  31.362  18.267  1.00 98.48 LIG 0.16  HD
BRANCH 27 30
ATOM     30  CA  GLY G 811     -26.360  30.354  17.639  1.00 98.06 LIG 0.23  C 
BRANCH 30 31
ATOM     31  N   GLY G 811     -27.231  29.226  17.918  1.00 97.66 LIG-0.35  N 
ATOM     32 H    GLY G 811     -27.014  28.762  18.608  1.00 97.66 LIG 0.16  HD
ATOM     33  C   GLN G 810     -28.277  28.971  17.134  1.00 97.43 LIG 0.26  C 
ATOM     34 O    GLN G 810     -28.548  29.646  16.141  1.00 97.76 LIG-0.27  OA
BRANCH 33 35
ATOM     35  CA  GLN G 810     -29.140  27.768  17.515  1.00 96.79 LIG 0.40  C 
ATOM     36  N   GLN G 810     -28.294  26.675  18.078  1.00 96.61 LIG 0.61  N 
BRANCH 35 37
ATOM     37  CB  GLN G 810     -30.181  28.213  18.540  1.00 96.38 LIG 0.06  C 
BRANCH 37 38
ATOM     38  CG  GLN G 810     -31.570  28.490  17.984  1.00 95.56 LIG 0.10  C 
BRANCH 38 39
ATOM     39  CD  GLN G 810     -32.154  27.283  17.285  1.00 95.11 LIG 0.21  C 
ATOM     40  NE2 GLN G 810     -33.403  26.965  17.608  1.00 94.31 LIG-0.37  N 
ATOM     41 21HE GLN G 810     -33.830  27.436  18.187  1.00 94.31 LIG 0.16  HD
ATOM     42 22HE GLN G 810     -33.783  26.288  17.239  1.00 94.31 LIG 0.16  HD
ATOM     43 OE1  GLN G 810     -31.495  26.644  16.463  1.00 94.65 LIG-0.27  OA
ENDBRANCH 38 39
ENDBRANCH 37 38
ENDBRANCH 35 37
ENDBRANCH 33 35
ENDBRANCH 30 31
ENDBRANCH 27 30
ENDBRANCH 1 26
TORSDOF 17
ENDMDL
MODEL 25
USER: ADFR SOLUTION from run 138
USER: SCORE 10.740095 LL:  -1.911 LR: -10.755 RR:   0.000 FEB:  -5.684
USER: RMSD 10.595706
USER: SEED 137
USER: STATUS no improvement in best in 9 clusters for 5 generations
USER: GENES 19
USER: genes 0 Translation |==|  0.50915 0.36388 0.42780
USER: genes 1 Rotation |==|  0.70994 0.84410 0.78387 0.58329
USER: genes 2 Torsion [C]-CA--CB-[CG] |==|  0.37661
USER: genes 3 Torsion [CA]-CB--CG-[CD2] |==|  0.70283
USER: genes 4 Torsion [N]-CA--C-[N] |==|  0.41686
USER: genes 5 Torsion [C]-N--CA-[C] |==|  0.35617
USER: genes 6 Torsion [N]-CA--C-[N] |==|  0.14923
USER: genes 7 Torsion [C]-N--CA-[CB] |==|  0.85578
USER: genes 8 Torsion [N]-CA--CB-[CG] |==|  0.85397
USER: genes 9 Torsion [CA]-CB--CG-[CD] |==|  0.55036
USER: genes 10 Torsion [CB]-CG--CD-[OE2] |==|  0.35848
USER: genes 11 Torsion [N]-CA--C-[OXT] |==|  0.01345
USER: genes 12 Torsion [CB]-CA--N-[C] |==|  0.49631
USER: genes 13 Torsion [N]-C--CA-[N] |==|  0.14312
USER: genes 14 Torsion [C]-CA--N-[C] |==|  0.74001
USER: genes 15 Torsion [N]-C--CA-[N] |==|  0.18539
USER: genes 16 Torsion [C]-CA--CB-[CG] |==|  0.68704
USER: genes 17 Torsion [CA]-CB--CG-[CD] |==|  0.78308
USER: genes 18 Torsion [CB]-CG--CD-[NE2] |==|  0.52200
ROOT
ATOM      1  CA  HIS G 812     -25.866  31.221  19.946  1.00 98.11 LIG 0.18  C 
ENDROOT
BRANCH 1 2
ATOM      2  CB  HIS G 812     -26.790  31.303  18.723  1.00 96.29 LIG 0.10  C 
BRANCH 2 3
ATOM      3  CG  HIS G 812     -27.361  29.992  18.257  1.00 94.00 LIG 0.06  A 
ATOM      4  CD2 HIS G 812     -27.079  29.234  17.180  1.00 93.71 LIG 0.14  A 
ATOM      5 NE2  HIS G 812     -28.030  28.237  17.118  1.00 93.19 LIG-0.25  NA
ATOM      6  CE1 HIS G 812     -28.856  28.383  18.139  1.00 92.78 LIG 0.23  A 
ATOM      7 ND1  HIS G 812     -28.475  29.428  18.845  1.00 93.58 LIG-0.24  NA
ENDBRANCH 2 3
ENDBRANCH 1 2
BRANCH 1 8
ATOM      8  C   HIS G 812     -24.660  32.102  19.634  1.00 99.25 LIG 0.24  C 
ATOM      9  N   GLY G 813     -23.592  31.517  19.107  1.00100.26 LIG-0.35  N 
ATOM     10 H    GLY G 813     -23.524  30.677  18.937  1.00100.26 LIG 0.16  HD
ATOM     11 O    HIS G 812     -24.714  33.314  19.847  1.00 99.52 LIG-0.27  OA
BRANCH 9 12
ATOM     12  CA  GLY G 813     -22.423  32.314  18.777  1.00101.48 LIG 0.23  C 
BRANCH 12 13
ATOM     13  C   GLY G 813     -21.137  31.760  19.365  1.00102.44 LIG 0.24  C 
ATOM     14 O    GLY G 813     -20.419  32.479  20.058  1.00102.98 LIG-0.27  OA
ATOM     15  N   GLU G 814     -20.844  30.487  19.105  1.00102.70 LIG-0.34  N 
ATOM     16 H    GLU G 814     -21.339  29.963  18.636  1.00102.70 LIG 0.16  HD
BRANCH 15 17
ATOM     17  CA  GLU G 814     -19.616  29.872  19.615  1.00102.89 LIG 0.19  C 
BRANCH 17 18
ATOM     18  CB  GLU G 814     -18.389  30.723  19.260  1.00101.97 LIG 0.05  C 
BRANCH 18 19
ATOM     19  CG  GLU G 814     -18.261  31.078  17.791  1.00100.63 LIG 0.12  C 
BRANCH 19 20
ATOM     20  CD  GLU G 814     -16.854  31.522  17.416  1.00100.36 LIG 0.17  C 
ATOM     21 OE1  GLU G 814     -16.305  32.409  18.106  1.00 99.71 LIG-0.65  OA
ATOM     22 OE2  GLU G 814     -16.294  30.982  16.439  1.00 99.42 LIG-0.65  OA
ENDBRANCH 19 20
ENDBRANCH 18 19
ENDBRANCH 17 18
BRANCH 17 23
ATOM     23  C   GLU G 814     -19.684  29.708  21.137  1.00103.78 LIG 0.20  C 
ATOM     24 OXT  GLU G 814     -20.747  30.006  21.727  1.00104.07 LIG-0.65  OA
ATOM     25 O    GLU G 814     -18.668  29.275  21.725  1.00104.32 LIG-0.65  OA
ENDBRANCH 17 23
ENDBRANCH 15 17
ENDBRANCH 12 13
ENDBRANCH 9 12
ENDBRANCH 1 8
BRANCH 1 26
ATOM     26  N   HIS G 812     -26.456  31.928  21.090  1.00 98.48 LIG-0.35  N 
ATOM     27  C   GLY G 811     -25.918  32.022  22.308  1.00 98.46 LIG 0.24  C 
ATOM     28 O    GLY G 811     -24.857  31.483  22.645  1.00 98.78 LIG-0.27  OA
ATOM     29 H    HIS G 812     -27.211  32.292  20.897  1.00 98.48 LIG 0.16  HD
BRANCH 27 30
ATOM     30  CA  GLY G 811     -26.724  32.854  23.293  1.00 98.06 LIG 0.23  C 
BRANCH 30 31
ATOM     31  N   GLY G 811     -28.130  32.519  23.432  1.00 97.66 LIG-0.35  N 
ATOM     32 H    GLY G 811     -28.300  31.898  24.002  1.00 97.66 LIG 0.16  HD
ATOM     33  C   GLN G 810     -29.051  33.154  22.710  1.00 97.43 LIG 0.26  C 
ATOM     34 O    GLN G 810     -28.770  34.026  21.886  1.00 97.76 LIG-0.27  OA
BRANCH 33 35
ATOM     35  CA  GLN G 810     -30.504  32.738  22.934  1.00 96.79 LIG 0.40  C 
ATOM     36  N   GLN G 810     -30.949  33.112  24.308  1.00 96.61 LIG 0.61  N 
BRANCH 35 37
ATOM     37  CB  GLN G 810     -31.381  33.423  21.889  1.00 96.38 LIG 0.06  C 
BRANCH 37 38
ATOM     38  CG  GLN G 810     -32.346  34.468  22.426  1.00 95.56 LIG 0.10  C 
BRANCH 38 39
ATOM     39  CD  GLN G 810     -33.567  33.840  23.061  1.00 95.11 LIG 0.21  C 
ATOM     40  NE2 GLN G 810     -34.540  34.673  23.412  1.00 94.31 LIG-0.37  N 
ATOM     41 21HE GLN G 810     -34.454  35.518  23.275  1.00 94.31 LIG 0.16  HD
ATOM     42 22HE GLN G 810     -35.257  34.368  23.776  1.00 94.31 LIG 0.16  HD
ATOM     43 OE1  GLN G 810     -33.639  32.622  23.235  1.00 94.65 LIG-0.27  OA
ENDBRANCH 38 39
ENDBRANCH 37 38
ENDBRANCH 35 37
ENDBRANCH 33 35
ENDBRANCH 30 31
ENDBRANCH 27 30
ENDBRANCH 1 26
TORSDOF 17
ENDMDL
MODEL 26
USER: ADFR SOLUTION from run 3
USER: SCORE 10.555986 LL:  -1.867 LR: -10.741 RR:   0.000 FEB:  -5.670
USER: RMSD 9.296362
USER: SEED 446272
USER: STATUS no improvement in best in 41 clusters for 5 generations
USER: GENES 19
USER: genes 0 Translation |==|  0.46767 0.42296 0.40445
USER: genes 1 Rotation |==|  0.59712 0.77570 0.59333 0.89477
USER: genes 2 Torsion [C]-CA--CB-[CG] |==|  0.32734
USER: genes 3 Torsion [CA]-CB--CG-[CD2] |==|  0.98988
USER: genes 4 Torsion [N]-CA--C-[N] |==|  0.93629
USER: genes 5 Torsion [C]-N--CA-[C] |==|  0.27628
USER: genes 6 Torsion [N]-CA--C-[N] |==|  0.61111
USER: genes 7 Torsion [C]-N--CA-[CB] |==|  0.22424
USER: genes 8 Torsion [N]-CA--CB-[CG] |==|  0.62019
USER: genes 9 Torsion [CA]-CB--CG-[CD] |==|  0.62571
USER: genes 10 Torsion [CB]-CG--CD-[OE2] |==|  0.05798
USER: genes 11 Torsion [N]-CA--C-[OXT] |==|  0.62068
USER: genes 12 Torsion [CB]-CA--N-[C] |==|  0.36586
USER: genes 13 Torsion [N]-C--CA-[N] |==|  0.41451
USER: genes 14 Torsion [C]-CA--N-[C] |==|  0.21668
USER: genes 15 Torsion [N]-C--CA-[N] |==|  0.29696
USER: genes 16 Torsion [C]-CA--CB-[CG] |==|  0.08740
USER: genes 17 Torsion [CA]-CB--CG-[CD] |==|  0.22320
USER: genes 18 Torsion [CB]-CG--CD-[NE2] |==|  0.76338
ROOT
ATOM      1  CA  HIS G 812     -26.674  32.329  19.368  1.00 98.11 LIG 0.18  C 
ENDROOT
BRANCH 1 2
ATOM      2  CB  HIS G 812     -26.675  31.238  18.287  1.00 96.29 LIG 0.10  C 
BRANCH 2 3
ATOM      3  CG  HIS G 812     -27.689  30.144  18.477  1.00 94.00 LIG 0.06  A 
ATOM      4  CD2 HIS G 812     -28.566  29.910  19.472  1.00 93.71 LIG 0.14  A 
ATOM      5 NE2  HIS G 812     -29.117  28.664  19.251  1.00 93.19 LIG-0.25  NA
ATOM      6  CE1 HIS G 812     -28.593  28.166  18.143  1.00 92.78 LIG 0.23  A 
ATOM      7 ND1  HIS G 812     -27.735  29.037  17.653  1.00 93.58 LIG-0.24  NA
ENDBRANCH 2 3
ENDBRANCH 1 2
BRANCH 1 8
ATOM      8  C   HIS G 812     -25.302  32.274  20.032  1.00 99.25 LIG 0.24  C 
ATOM      9  N   GLY G 813     -24.355  33.071  19.551  1.00100.26 LIG-0.35  N 
ATOM     10 H    GLY G 813     -24.454  33.609  18.889  1.00100.26 LIG 0.16  HD
ATOM     11 O    HIS G 812     -25.114  31.528  20.994  1.00 99.52 LIG-0.27  OA
BRANCH 9 12
ATOM     12  CA  GLY G 813     -23.035  33.068  20.158  1.00101.48 LIG 0.23  C 
BRANCH 12 13
ATOM     13  C   GLY G 813     -22.028  32.232  19.389  1.00102.44 LIG 0.24  C 
ATOM     14 O    GLY G 813     -22.018  32.259  18.159  1.00102.98 LIG-0.27  OA
ATOM     15  N   GLU G 814     -21.173  31.496  20.098  1.00102.70 LIG-0.34  N 
ATOM     16 H    GLU G 814     -21.152  31.475  20.958  1.00102.70 LIG 0.16  HD
BRANCH 15 17
ATOM     17  CA  GLU G 814     -20.178  30.645  19.442  1.00102.89 LIG 0.19  C 
BRANCH 17 18
ATOM     18  CB  GLU G 814     -18.963  31.469  18.995  1.00101.97 LIG 0.05  C 
BRANCH 18 19
ATOM     19  CG  GLU G 814     -18.445  31.143  17.608  1.00100.63 LIG 0.12  C 
BRANCH 19 20
ATOM     20  CD  GLU G 814     -16.929  31.013  17.564  1.00100.36 LIG 0.17  C 
ATOM     21 OE1  GLU G 814     -16.351  31.148  16.463  1.00 99.71 LIG-0.65  OA
ATOM     22 OE2  GLU G 814     -16.314  30.784  18.626  1.00 99.42 LIG-0.65  OA
ENDBRANCH 19 20
ENDBRANCH 18 19
ENDBRANCH 17 18
BRANCH 17 23
ATOM     23  C   GLU G 814     -19.706  29.536  20.387  1.00103.78 LIG 0.20  C 
ATOM     24 OXT  GLU G 814     -18.482  29.273  20.443  1.00104.07 LIG-0.65  OA
ATOM     25 O    GLU G 814     -20.570  28.942  21.070  1.00104.32 LIG-0.65  OA
ENDBRANCH 17 23
ENDBRANCH 15 17
ENDBRANCH 12 13
ENDBRANCH 9 12
ENDBRANCH 1 8
BRANCH 1 26
ATOM     26  N   HIS G 812     -26.651  33.664  18.757  1.00 98.48 LIG-0.35  N 
ATOM     27  C   GLY G 811     -27.452  34.681  19.080  1.00 98.46 LIG 0.24  C 
ATOM     28 O    GLY G 811     -28.358  34.616  19.920  1.00 98.78 LIG-0.27  OA
ATOM     29 H    HIS G 812     -26.049  33.735  18.146  1.00 98.48 LIG 0.16  HD
BRANCH 27 30
ATOM     30  CA  GLY G 811     -27.180  35.968  18.317  1.00 98.06 LIG 0.23  C 
BRANCH 30 31
ATOM     31  N   GLY G 811     -28.319  36.834  18.072  1.00 97.66 LIG-0.35  N 
ATOM     32 H    GLY G 811     -28.641  36.794  17.276  1.00 97.66 LIG 0.16  HD
ATOM     33  C   GLN G 810     -28.794  37.615  19.041  1.00 97.43 LIG 0.26  C 
ATOM     34 O    GLN G 810     -28.295  37.663  20.165  1.00 97.76 LIG-0.27  OA
BRANCH 33 35
ATOM     35  CA  GLN G 810     -30.001  38.484  18.689  1.00 96.79 LIG 0.40  C 
ATOM     36  N   GLN G 810     -31.236  37.950  19.336  1.00 96.61 LIG 0.61  N 
BRANCH 35 37
ATOM     37  CB  GLN G 810     -29.734  39.913  19.156  1.00 96.38 LIG 0.06  C 
BRANCH 37 38
ATOM     38  CG  GLN G 810     -28.277  40.349  19.129  1.00 95.56 LIG 0.10  C 
BRANCH 38 39
ATOM     39  CD  GLN G 810     -27.832  40.755  17.742  1.00 95.11 LIG 0.21  C 
ATOM     40  NE2 GLN G 810     -27.419  39.773  16.947  1.00 94.31 LIG-0.37  N 
ATOM     41 21HE GLN G 810     -27.415  38.962  17.233  1.00 94.31 LIG 0.16  HD
ATOM     42 22HE GLN G 810     -27.156  39.949  16.147  1.00 94.31 LIG 0.16  HD
ATOM     43 OE1  GLN G 810     -27.859  41.933  17.384  1.00 94.65 LIG-0.27  OA
ENDBRANCH 38 39
ENDBRANCH 37 38
ENDBRANCH 35 37
ENDBRANCH 33 35
ENDBRANCH 30 31
ENDBRANCH 27 30
ENDBRANCH 1 26
TORSDOF 17
ENDMDL
MODEL 27
USER: ADFR SOLUTION from run 50
USER: SCORE 10.287473 LL:  -2.320 LR: -10.743 RR:   0.000 FEB:  -5.672
USER: RMSD 11.795671
USER: SEED 49
USER: STATUS no improvement in best in 39 clusters for 5 generations
USER: GENES 19
USER: genes 0 Translation |==|  0.50715 0.33843 0.50707
USER: genes 1 Rotation |==|  0.78946 0.77325 0.80063 0.53417
USER: genes 2 Torsion [C]-CA--CB-[CG] |==|  0.28031
USER: genes 3 Torsion [CA]-CB--CG-[CD2] |==|  0.71548
USER: genes 4 Torsion [N]-CA--C-[N] |==|  0.67547
USER: genes 5 Torsion [C]-N--CA-[C] |==|  0.21529
USER: genes 6 Torsion [N]-CA--C-[N] |==|  0.74943
USER: genes 7 Torsion [C]-N--CA-[CB] |==|  0.25632
USER: genes 8 Torsion [N]-CA--CB-[CG] |==|  0.56076
USER: genes 9 Torsion [CA]-CB--CG-[CD] |==|  0.60685
USER: genes 10 Torsion [CB]-CG--CD-[OE2] |==|  0.50998
USER: genes 11 Torsion [N]-CA--C-[OXT] |==|  0.44115
USER: genes 12 Torsion [CB]-CA--N-[C] |==|  0.42214
USER: genes 13 Torsion [N]-C--CA-[N] |==|  0.43333
USER: genes 14 Torsion [C]-CA--N-[C] |==|  0.66454
USER: genes 15 Torsion [N]-C--CA-[N] |==|  0.13084
USER: genes 16 Torsion [C]-CA--CB-[CG] |==|  0.30983
USER: genes 17 Torsion [CA]-CB--CG-[CD] |==|  0.63501
USER: genes 18 Torsion [CB]-CG--CD-[NE2] |==|  0.10539
ROOT
ATOM      1  CA  HIS G 812     -25.905  30.744  21.908  1.00 98.11 LIG 0.18  C 
ENDROOT
BRANCH 1 2
ATOM      2  CB  HIS G 812     -27.001  31.414  21.068  1.00 96.29 LIG 0.10  C 
BRANCH 2 3
ATOM      3  CG  HIS G 812     -27.413  30.664  19.831  1.00 94.00 LIG 0.06  A 
ATOM      4  CD2 HIS G 812     -27.108  30.857  18.533  1.00 93.71 LIG 0.14  A 
ATOM      5 NE2  HIS G 812     -27.910  30.014  17.791  1.00 93.19 LIG-0.25  NA
ATOM      6  CE1 HIS G 812     -28.669  29.321  18.623  1.00 92.78 LIG 0.23  A 
ATOM      7 ND1  HIS G 812     -28.388  29.687  19.856  1.00 93.58 LIG-0.24  NA
ENDBRANCH 2 3
ENDBRANCH 1 2
BRANCH 1 8
ATOM      8  C   HIS G 812     -24.603  31.462  21.567  1.00 99.25 LIG 0.24  C 
ATOM      9  N   GLY G 813     -24.656  32.434  20.665  1.00100.26 LIG-0.35  N 
ATOM     10 H    GLY G 813     -25.367  32.684  20.252  1.00100.26 LIG 0.16  HD
ATOM     11 O    HIS G 812     -23.559  31.149  22.144  1.00 99.52 LIG-0.27  OA
BRANCH 9 12
ATOM     12  CA  GLY G 813     -23.447  33.160  20.317  1.00101.48 LIG 0.23  C 
BRANCH 12 13
ATOM     13  C   GLY G 813     -22.536  32.386  19.380  1.00102.44 LIG 0.24  C 
ATOM     14 O    GLY G 813     -22.664  32.504  18.162  1.00102.98 LIG-0.27  OA
ATOM     15  N   GLU G 814     -21.612  31.602  19.933  1.00102.70 LIG-0.34  N 
ATOM     16 H    GLU G 814     -21.495  31.517  20.781  1.00102.70 LIG 0.16  HD
BRANCH 15 17
ATOM     17  CA  GLU G 814     -20.701  30.805  19.109  1.00102.89 LIG 0.19  C 
BRANCH 17 18
ATOM     18  CB  GLU G 814     -19.402  31.573  18.828  1.00101.97 LIG 0.05  C 
BRANCH 18 19
ATOM     19  CG  GLU G 814     -18.633  31.104  17.608  1.00100.63 LIG 0.12  C 
BRANCH 19 20
ATOM     20  CD  GLU G 814     -17.127  31.121  17.823  1.00100.36 LIG 0.17  C 
ATOM     21 OE1  GLU G 814     -16.689  31.429  18.953  1.00 99.71 LIG-0.65  OA
ATOM     22 OE2  GLU G 814     -16.380  30.821  16.867  1.00 99.42 LIG-0.65  OA
ENDBRANCH 19 20
ENDBRANCH 18 19
ENDBRANCH 17 18
BRANCH 17 23
ATOM     23  C   GLU G 814     -20.357  29.483  19.803  1.00103.78 LIG 0.20  C 
ATOM     24 OXT  GLU G 814     -19.939  28.529  19.108  1.00104.07 LIG-0.65  OA
ATOM     25 O    GLU G 814     -20.506  29.418  21.044  1.00104.32 LIG-0.65  OA
ENDBRANCH 17 23
ENDBRANCH 15 17
ENDBRANCH 12 13
ENDBRANCH 9 12
ENDBRANCH 1 8
BRANCH 1 26
ATOM     26  N   HIS G 812     -26.062  31.082  23.328  1.00 98.48 LIG-0.35  N 
ATOM     27  C   GLY G 811     -25.675  30.323  24.356  1.00 98.46 LIG 0.24  C 
ATOM     28 O    GLY G 811     -25.163  29.203  24.242  1.00 98.78 LIG-0.27  OA
ATOM     29 H    HIS G 812     -26.442  31.845  23.445  1.00 98.48 LIG 0.16  HD
BRANCH 27 30
ATOM     30  CA  GLY G 811     -25.920  30.939  25.725  1.00 98.06 LIG 0.23  C 
BRANCH 30 31
ATOM     31  N   GLY G 811     -26.037  30.019  26.842  1.00 97.66 LIG-0.35  N 
ATOM     32 H    GLY G 811     -25.350  29.520  26.975  1.00 97.66 LIG 0.16  HD
ATOM     33  C   GLN G 810     -27.147  29.988  27.577  1.00 97.43 LIG 0.26  C 
ATOM     34 O    GLN G 810     -28.122  30.703  27.346  1.00 97.76 LIG-0.27  OA
BRANCH 33 35
ATOM     35  CA  GLN G 810     -27.172  28.993  28.737  1.00 96.79 LIG 0.40  C 
ATOM     36  N   GLN G 810     -25.910  29.081  29.529  1.00 96.61 LIG 0.61  N 
BRANCH 35 37
ATOM     37  CB  GLN G 810     -28.376  29.298  29.624  1.00 96.38 LIG 0.06  C 
BRANCH 37 38
ATOM     38  CG  GLN G 810     -29.482  28.254  29.612  1.00 95.56 LIG 0.10  C 
BRANCH 38 39
ATOM     39  CD  GLN G 810     -30.846  28.873  29.406  1.00 95.11 LIG 0.21  C 
ATOM     40  NE2 GLN G 810     -30.906  29.893  28.557  1.00 94.31 LIG-0.37  N 
ATOM     41 21HE GLN G 810     -30.192  30.167  28.163  1.00 94.31 LIG 0.16  HD
ATOM     42 22HE GLN G 810     -31.658  30.281  28.403  1.00 94.31 LIG 0.16  HD
ATOM     43 OE1  GLN G 810     -31.836  28.441  29.998  1.00 94.65 LIG-0.27  OA
ENDBRANCH 38 39
ENDBRANCH 37 38
ENDBRANCH 35 37
ENDBRANCH 33 35
ENDBRANCH 30 31
ENDBRANCH 27 30
ENDBRANCH 1 26
TORSDOF 17
ENDMDL
MODEL 28
USER: ADFR SOLUTION from run 59
USER: SCORE 12.484676 LL:  -2.682 LR: -10.720 RR:   0.000 FEB:  -5.649
USER: RMSD 10.221497
USER: SEED 58
USER: STATUS no improvement in best in 22 clusters for 5 generations
USER: GENES 19
USER: genes 0 Translation |==|  0.46287 0.29997 0.38479
USER: genes 1 Rotation |==|  0.67344 0.87405 0.76947 0.58597
USER: genes 2 Torsion [C]-CA--CB-[CG] |==|  0.28731
USER: genes 3 Torsion [CA]-CB--CG-[CD2] |==|  0.32769
USER: genes 4 Torsion [N]-CA--C-[N] |==|  0.17747
USER: genes 5 Torsion [C]-N--CA-[C] |==|  0.63016
USER: genes 6 Torsion [N]-CA--C-[N] |==|  0.41368
USER: genes 7 Torsion [C]-N--CA-[CB] |==|  0.36147
USER: genes 8 Torsion [N]-CA--CB-[CG] |==|  0.30958
USER: genes 9 Torsion [CA]-CB--CG-[CD] |==|  0.39778
USER: genes 10 Torsion [CB]-CG--CD-[OE2] |==|  0.84202
USER: genes 11 Torsion [N]-CA--C-[OXT] |==|  0.93765
USER: genes 12 Torsion [CB]-CA--N-[C] |==|  0.14058
USER: genes 13 Torsion [N]-C--CA-[N] |==|  0.95000
USER: genes 14 Torsion [C]-CA--N-[C] |==|  0.23741
USER: genes 15 Torsion [N]-C--CA-[N] |==|  0.84226
USER: genes 16 Torsion [C]-CA--CB-[CG] |==|  0.75011
USER: genes 17 Torsion [CA]-CB--CG-[CD] |==|  0.34719
USER: genes 18 Torsion [CB]-CG--CD-[NE2] |==|  0.66693
ROOT
ATOM      1  CA  HIS G 812     -26.768  30.022  18.881  1.00 98.11 LIG 0.18  C 
ENDROOT
BRANCH 1 2
ATOM      2  CB  HIS G 812     -27.627  29.814  17.626  1.00 96.29 LIG 0.10  C 
BRANCH 2 3
ATOM      3  CG  HIS G 812     -27.393  28.522  16.893  1.00 94.00 LIG 0.06  A 
ATOM      4  CD2 HIS G 812     -28.215  27.486  16.637  1.00 93.71 LIG 0.14  A 
ATOM      5 NE2  HIS G 812     -27.445  26.470  16.109  1.00 93.19 LIG-0.25  NA
ATOM      6  CE1 HIS G 812     -26.193  26.889  16.037  1.00 92.78 LIG 0.23  A 
ATOM      7 ND1  HIS G 812     -26.133  28.122  16.497  1.00 93.58 LIG-0.24  NA
ENDBRANCH 2 3
ENDBRANCH 1 2
BRANCH 1 8
ATOM      8  C   HIS G 812     -25.673  31.012  18.494  1.00 99.25 LIG 0.24  C 
ATOM      9  N   GLY G 813     -24.799  31.358  19.430  1.00100.26 LIG-0.35  N 
ATOM     10 H    GLY G 813     -24.808  31.075  20.241  1.00100.26 LIG 0.16  HD
ATOM     11 O    HIS G 812     -25.610  31.437  17.339  1.00 99.52 LIG-0.27  OA
BRANCH 9 12
ATOM     12  CA  GLY G 813     -23.728  32.286  19.108  1.00101.48 LIG 0.23  C 
BRANCH 12 13
ATOM     13  C   GLY G 813     -22.370  31.824  19.605  1.00102.44 LIG 0.24  C 
ATOM     14 O    GLY G 813     -22.289  31.142  20.625  1.00102.98 LIG-0.27  OA
ATOM     15  N   GLU G 814     -21.303  32.181  18.891  1.00102.70 LIG-0.34  N 
ATOM     16 H    GLU G 814     -21.339  32.644  18.167  1.00102.70 LIG 0.16  HD
BRANCH 15 17
ATOM     17  CA  GLU G 814     -19.951  31.796  19.304  1.00102.89 LIG 0.19  C 
BRANCH 17 18
ATOM     18  CB  GLU G 814     -19.181  31.166  18.136  1.00101.97 LIG 0.05  C 
BRANCH 18 19
ATOM     19  CG  GLU G 814     -18.028  31.997  17.608  1.00100.63 LIG 0.12  C 
BRANCH 19 20
ATOM     20  CD  GLU G 814     -16.837  31.148  17.187  1.00100.36 LIG 0.17  C 
ATOM     21 OE1  GLU G 814     -16.413  31.255  16.015  1.00 99.71 LIG-0.65  OA
ATOM     22 OE2  GLU G 814     -16.321  30.379  18.025  1.00 99.42 LIG-0.65  OA
ENDBRANCH 19 20
ENDBRANCH 18 19
ENDBRANCH 17 18
BRANCH 17 23
ATOM     23  C   GLU G 814     -19.173  33.014  19.813  1.00103.78 LIG 0.20  C 
ATOM     24 OXT  GLU G 814     -19.534  34.156  19.447  1.00104.07 LIG-0.65  OA
ATOM     25 O    GLU G 814     -18.208  32.811  20.583  1.00104.32 LIG-0.65  OA
ENDBRANCH 17 23
ENDBRANCH 15 17
ENDBRANCH 12 13
ENDBRANCH 9 12
ENDBRANCH 1 8
BRANCH 1 26
ATOM     26  N   HIS G 812     -27.508  30.787  19.893  1.00 98.48 LIG-0.35  N 
ATOM     27  C   GLY G 811     -28.740  30.513  20.328  1.00 98.46 LIG 0.24  C 
ATOM     28 O    GLY G 811     -29.442  29.590  19.898  1.00 98.78 LIG-0.27  OA
ATOM     29 H    HIS G 812     -27.059  31.456  20.194  1.00 98.48 LIG 0.16  HD
BRANCH 27 30
ATOM     30  CA  GLY G 811     -29.249  31.445  21.416  1.00 98.06 LIG 0.23  C 
BRANCH 30 31
ATOM     31  N   GLY G 811     -28.252  32.227  22.125  1.00 97.66 LIG-0.35  N 
ATOM     32 H    GLY G 811     -27.972  31.879  22.859  1.00 97.66 LIG 0.16  HD
ATOM     33  C   GLN G 810     -27.833  33.392  21.633  1.00 97.43 LIG 0.26  C 
ATOM     34 O    GLN G 810     -28.271  33.872  20.587  1.00 97.76 LIG-0.27  OA
BRANCH 33 35
ATOM     35  CA  GLN G 810     -26.774  34.137  22.446  1.00 96.79 LIG 0.40  C 
ATOM     36  N   GLN G 810     -27.259  34.382  23.836  1.00 96.61 LIG 0.61  N 
BRANCH 35 37
ATOM     37  CB  GLN G 810     -25.495  33.303  22.470  1.00 96.38 LIG 0.06  C 
BRANCH 37 38
ATOM     38  CG  GLN G 810     -25.379  32.315  23.621  1.00 95.56 LIG 0.10  C 
BRANCH 38 39
ATOM     39  CD  GLN G 810     -25.131  30.905  23.135  1.00 95.11 LIG 0.21  C 
ATOM     40  NE2 GLN G 810     -26.044  29.999  23.469  1.00 94.31 LIG-0.37  N 
ATOM     41 21HE GLN G 810     -26.727  30.230  23.938  1.00 94.31 LIG 0.16  HD
ATOM     42 22HE GLN G 810     -25.952  29.182  23.217  1.00 94.31 LIG 0.16  HD
ATOM     43 OE1  GLN G 810     -24.134  30.628  22.466  1.00 94.65 LIG-0.27  OA
ENDBRANCH 38 39
ENDBRANCH 37 38
ENDBRANCH 35 37
ENDBRANCH 33 35
ENDBRANCH 30 31
ENDBRANCH 27 30
ENDBRANCH 1 26
TORSDOF 17
ENDMDL
MODEL 29
USER: ADFR SOLUTION from run 142
USER: SCORE 12.007893 LL:  -2.299 LR: -10.696 RR:   0.000 FEB:  -5.625
USER: RMSD 10.038675
USER: SEED 141
USER: STATUS no improvement in best in 16 clusters for 5 generations
USER: GENES 19
USER: genes 0 Translation |==|  0.50003 0.34155 0.46269
USER: genes 1 Rotation |==|  0.21725 0.23153 0.18967 0.54090
USER: genes 2 Torsion [C]-CA--CB-[CG] |==|  0.39482
USER: genes 3 Torsion [CA]-CB--CG-[CD2] |==|  0.26774
USER: genes 4 Torsion [N]-CA--C-[N] |==|  0.39320
USER: genes 5 Torsion [C]-N--CA-[C] |==|  0.30273
USER: genes 6 Torsion [N]-CA--C-[N] |==|  0.13065
USER: genes 7 Torsion [C]-N--CA-[CB] |==|  0.87248
USER: genes 8 Torsion [N]-CA--CB-[CG] |==|  0.73990
USER: genes 9 Torsion [CA]-CB--CG-[CD] |==|  0.61290
USER: genes 10 Torsion [CB]-CG--CD-[OE2] |==|  0.47939
USER: genes 11 Torsion [N]-CA--C-[OXT] |==|  0.00316
USER: genes 12 Torsion [CB]-CA--N-[C] |==|  0.54031
USER: genes 13 Torsion [N]-C--CA-[N] |==|  0.97667
USER: genes 14 Torsion [C]-CA--N-[C] |==|  0.75973
USER: genes 15 Torsion [N]-C--CA-[N] |==|  0.43677
USER: genes 16 Torsion [C]-CA--CB-[CG] |==|  0.90549
USER: genes 17 Torsion [CA]-CB--CG-[CD] |==|  0.53704
USER: genes 18 Torsion [CB]-CG--CD-[NE2] |==|  0.88722
ROOT
ATOM      1  CA  HIS G 812     -26.043  30.802  20.810  1.00 98.11 LIG 0.18  C 
ENDROOT
BRANCH 1 2
ATOM      2  CB  HIS G 812     -27.347  31.390  20.250  1.00 96.29 LIG 0.10  C 
BRANCH 2 3
ATOM      3  CG  HIS G 812     -28.288  30.395  19.630  1.00 94.00 LIG 0.06  A 
ATOM      4  CD2 HIS G 812     -29.361  29.755  20.133  1.00 93.71 LIG 0.14  A 
ATOM      5 NE2  HIS G 812     -29.743  28.802  19.211  1.00 93.19 LIG-0.25  NA
ATOM      6  CE1 HIS G 812     -28.928  28.877  18.172  1.00 92.78 LIG 0.23  A 
ATOM      7 ND1  HIS G 812     -28.046  29.829  18.394  1.00 93.58 LIG-0.24  NA
ENDBRANCH 2 3
ENDBRANCH 1 2
BRANCH 1 8
ATOM      8  C   HIS G 812     -24.946  31.815  20.497  1.00 99.25 LIG 0.24  C 
ATOM      9  N   GLY G 813     -24.135  31.548  19.482  1.00100.26 LIG-0.35  N 
ATOM     10 H    GLY G 813     -24.174  30.843  18.992  1.00100.26 LIG 0.16  HD
ATOM     11 O    HIS G 812     -24.857  32.848  21.163  1.00 99.52 LIG-0.27  OA
BRANCH 9 12
ATOM     12  CA  GLY G 813     -23.083  32.488  19.134  1.00101.48 LIG 0.23  C 
BRANCH 12 13
ATOM     13  C   GLY G 813     -21.693  31.981  19.476  1.00102.44 LIG 0.24  C 
ATOM     14 O    GLY G 813     -20.902  32.713  20.070  1.00102.98 LIG-0.27  OA
ATOM     15  N   GLU G 814     -21.390  30.735  19.117  1.00102.70 LIG-0.34  N 
ATOM     16 H    GLU G 814     -21.933  30.202  18.716  1.00102.70 LIG 0.16  HD
BRANCH 15 17
ATOM     17  CA  GLU G 814     -20.068  30.167  19.390  1.00102.89 LIG 0.19  C 
BRANCH 17 18
ATOM     18  CB  GLU G 814     -18.958  31.156  19.008  1.00101.97 LIG 0.05  C 
BRANCH 18 19
ATOM     19  CG  GLU G 814     -18.401  30.983  17.608  1.00100.63 LIG 0.12  C 
BRANCH 19 20
ATOM     20  CD  GLU G 814     -16.889  31.149  17.554  1.00100.36 LIG 0.17  C 
ATOM     21 OE1  GLU G 814     -16.294  31.532  18.585  1.00 99.71 LIG-0.65  OA
ATOM     22 OE2  GLU G 814     -16.294  30.892  16.486  1.00 99.42 LIG-0.65  OA
ENDBRANCH 19 20
ENDBRANCH 18 19
ENDBRANCH 17 18
BRANCH 17 23
ATOM     23  C   GLU G 814     -19.926  29.810  20.873  1.00103.78 LIG 0.20  C 
ATOM     24 OXT  GLU G 814     -20.900  30.007  21.635  1.00104.07 LIG-0.65  OA
ATOM     25 O    GLU G 814     -18.838  29.328  21.257  1.00104.32 LIG-0.65  OA
ENDBRANCH 17 23
ENDBRANCH 15 17
ENDBRANCH 12 13
ENDBRANCH 9 12
ENDBRANCH 1 8
BRANCH 1 26
ATOM     26  N   HIS G 812     -26.054  30.825  22.278  1.00 98.48 LIG-0.35  N 
ATOM     27  C   GLY G 811     -24.991  30.649  23.066  1.00 98.46 LIG 0.24  C 
ATOM     28 O    GLY G 811     -23.852  30.398  22.654  1.00 98.78 LIG-0.27  OA
ATOM     29 H    HIS G 812     -26.838  30.969  22.599  1.00 98.48 LIG 0.16  HD
BRANCH 27 30
ATOM     30  CA  GLY G 811     -25.280  30.768  24.554  1.00 98.06 LIG 0.23  C 
BRANCH 30 31
ATOM     31  N   GLY G 811     -26.602  31.238  24.926  1.00 97.66 LIG-0.35  N 
ATOM     32 H    GLY G 811     -27.179  30.619  25.074  1.00 97.66 LIG 0.16  HD
ATOM     33  C   GLN G 810     -26.854  32.543  25.018  1.00 97.43 LIG 0.26  C 
ATOM     34 O    GLN G 810     -26.008  33.405  24.779  1.00 97.76 LIG-0.27  OA
BRANCH 33 35
ATOM     35  CA  GLN G 810     -28.273  32.939  25.426  1.00 96.79 LIG 0.40  C 
ATOM     36  N   GLN G 810     -28.285  34.311  26.013  1.00 96.61 LIG 0.61  N 
BRANCH 35 37
ATOM     37  CB  GLN G 810     -29.173  32.882  24.194  1.00 96.38 LIG 0.06  C 
BRANCH 37 38
ATOM     38  CG  GLN G 810     -28.512  33.267  22.880  1.00 95.56 LIG 0.10  C 
BRANCH 38 39
ATOM     39  CD  GLN G 810     -29.524  33.498  21.780  1.00 95.11 LIG 0.21  C 
ATOM     40  NE2 GLN G 810     -30.544  32.648  21.733  1.00 94.31 LIG-0.37  N 
ATOM     41 21HE GLN G 810     -30.599  32.010  22.308  1.00 94.31 LIG 0.16  HD
ATOM     42 22HE GLN G 810     -31.149  32.735  21.128  1.00 94.31 LIG 0.16  HD
ATOM     43 OE1  GLN G 810     -29.397  34.429  20.983  1.00 94.65 LIG-0.27  OA
ENDBRANCH 38 39
ENDBRANCH 37 38
ENDBRANCH 35 37
ENDBRANCH 33 35
ENDBRANCH 30 31
ENDBRANCH 27 30
ENDBRANCH 1 26
TORSDOF 17
ENDMDL
MODEL 30
USER: ADFR SOLUTION from run 24
USER: SCORE 10.969207 LL:  -2.145 LR: -10.696 RR:   0.000 FEB:  -5.625
USER: RMSD 11.695909
USER: SEED 23
USER: STATUS no improvement in best in 20 clusters for 5 generations
USER: GENES 19
USER: genes 0 Translation |==|  0.60845 0.44276 0.42750
USER: genes 1 Rotation |==|  0.22690 0.83827 0.42310 0.73467
USER: genes 2 Torsion [C]-CA--CB-[CG] |==|  0.46612
USER: genes 3 Torsion [CA]-CB--CG-[CD2] |==|  0.90642
USER: genes 4 Torsion [N]-CA--C-[N] |==|  0.44254
USER: genes 5 Torsion [C]-N--CA-[C] |==|  0.23376
USER: genes 6 Torsion [N]-CA--C-[N] |==|  0.58323
USER: genes 7 Torsion [C]-N--CA-[CB] |==|  0.18435
USER: genes 8 Torsion [N]-CA--CB-[CG] |==|  0.14758
USER: genes 9 Torsion [CA]-CB--CG-[CD] |==|  0.53841
USER: genes 10 Torsion [CB]-CG--CD-[OE2] |==|  0.19026
USER: genes 11 Torsion [N]-CA--C-[OXT] |==|  0.86936
USER: genes 12 Torsion [CB]-CA--N-[C] |==|  0.27778
USER: genes 13 Torsion [N]-C--CA-[N] |==|  0.33991
USER: genes 14 Torsion [C]-CA--N-[C] |==|  0.38795
USER: genes 15 Torsion [N]-C--CA-[N] |==|  0.45455
USER: genes 16 Torsion [C]-CA--CB-[CG] |==|  0.84010
USER: genes 17 Torsion [CA]-CB--CG-[CD] |==|  0.39206
USER: genes 18 Torsion [CB]-CG--CD-[NE2] |==|  0.42573
ROOT
ATOM      1  CA  HIS G 812     -23.929  32.700  19.939  1.00 98.11 LIG 0.18  C 
ENDROOT
BRANCH 1 2
ATOM      2  CB  HIS G 812     -23.221  31.828  20.985  1.00 96.29 LIG 0.10  C 
BRANCH 2 3
ATOM      3  CG  HIS G 812     -24.091  31.339  22.110  1.00 94.00 LIG 0.06  A 
ATOM      4  CD2 HIS G 812     -25.139  31.910  22.735  1.00 93.71 LIG 0.14  A 
ATOM      5 NE2  HIS G 812     -25.444  31.125  23.828  1.00 93.19 LIG-0.25  NA
ATOM      6  CE1 HIS G 812     -24.610  30.100  23.853  1.00 92.78 LIG 0.23  A 
ATOM      7 ND1  HIS G 812     -23.787  30.199  22.829  1.00 93.58 LIG-0.24  NA
ENDBRANCH 2 3
ENDBRANCH 1 2
BRANCH 1 8
ATOM      8  C   HIS G 812     -22.830  33.327  19.087  1.00 99.25 LIG 0.24  C 
ATOM      9  N   GLY G 813     -22.270  34.445  19.532  1.00100.26 LIG-0.35  N 
ATOM     10 H    GLY G 813     -22.486  34.848  20.260  1.00100.26 LIG 0.16  HD
ATOM     11 O    HIS G 812     -22.475  32.779  18.042  1.00 99.52 LIG-0.27  OA
BRANCH 9 12
ATOM     12  CA  GLY G 813     -21.208  35.073  18.766  1.00101.48 LIG 0.23  C 
BRANCH 12 13
ATOM     13  C   GLY G 813     -21.725  35.976  17.660  1.00102.44 LIG 0.24  C 
ATOM     14 O    GLY G 813     -22.799  36.560  17.795  1.00102.98 LIG-0.27  OA
ATOM     15  N   GLU G 814     -20.968  36.105  16.571  1.00102.70 LIG-0.34  N 
ATOM     16 H    GLU G 814     -20.207  35.718  16.462  1.00102.70 LIG 0.16  HD
BRANCH 15 17
ATOM     17  CA  GLU G 814     -21.394  36.940  15.446  1.00102.89 LIG 0.19  C 
BRANCH 17 18
ATOM     18  CB  GLU G 814     -21.433  38.421  15.848  1.00101.97 LIG 0.05  C 
BRANCH 18 19
ATOM     19  CG  GLU G 814     -20.152  38.950  16.463  1.00100.63 LIG 0.12  C 
BRANCH 19 20
ATOM     20  CD  GLU G 814     -20.341  40.299  17.143  1.00100.36 LIG 0.17  C 
ATOM     21 OE1  GLU G 814     -19.805  41.305  16.630  1.00 99.71 LIG-0.65  OA
ATOM     22 OE2  GLU G 814     -21.029  40.355  18.184  1.00 99.42 LIG-0.65  OA
ENDBRANCH 19 20
ENDBRANCH 18 19
ENDBRANCH 17 18
BRANCH 17 23
ATOM     23  C   GLU G 814     -20.444  36.773  14.256  1.00103.78 LIG 0.20  C 
ATOM     24 OXT  GLU G 814     -19.209  36.823  14.460  1.00104.07 LIG-0.65  OA
ATOM     25 O    GLU G 814     -20.947  36.588  13.126  1.00104.32 LIG-0.65  OA
ENDBRANCH 17 23
ENDBRANCH 15 17
ENDBRANCH 12 13
ENDBRANCH 9 12
ENDBRANCH 1 8
BRANCH 1 26
ATOM     26  N   HIS G 812     -24.622  31.863  18.951  1.00 98.48 LIG-0.35  N 
ATOM     27  C   GLY G 811     -25.928  31.587  18.945  1.00 98.46 LIG 0.24  C 
ATOM     28 O    GLY G 811     -26.727  31.975  19.807  1.00 98.78 LIG-0.27  OA
ATOM     29 H    HIS G 812     -24.090  31.552  18.351  1.00 98.48 LIG 0.16  HD
BRANCH 27 30
ATOM     30  CA  GLY G 811     -26.389  30.729  17.777  1.00 98.06 LIG 0.23  C 
BRANCH 30 31
ATOM     31  N   GLY G 811     -27.050  29.479  18.107  1.00 97.66 LIG-0.35  N 
ATOM     32 H    GLY G 811     -26.704  29.048  18.766  1.00 97.66 LIG 0.16  HD
ATOM     33  C   GLN G 810     -28.110  29.071  17.412  1.00 97.43 LIG 0.26  C 
ATOM     34 O    GLN G 810     -28.567  29.703  16.459  1.00 97.76 LIG-0.27  OA
BRANCH 33 35
ATOM     35  CA  GLN G 810     -28.742  27.748  17.841  1.00 96.79 LIG 0.40  C 
ATOM     36  N   GLN G 810     -30.111  27.611  17.264  1.00 96.61 LIG 0.61  N 
BRANCH 35 37
ATOM     37  CB  GLN G 810     -27.852  26.600  17.370  1.00 96.38 LIG 0.06  C 
BRANCH 37 38
ATOM     38  CG  GLN G 810     -27.587  26.548  15.873  1.00 95.56 LIG 0.10  C 
BRANCH 38 39
ATOM     39  CD  GLN G 810     -26.163  26.144  15.563  1.00 95.11 LIG 0.21  C 
ATOM     40  NE2 GLN G 810     -25.964  25.548  14.392  1.00 94.31 LIG-0.37  N 
ATOM     41 21HE GLN G 810     -26.626  25.410  13.862  1.00 94.31 LIG 0.16  HD
ATOM     42 22HE GLN G 810     -25.172  25.299  14.165  1.00 94.31 LIG 0.16  HD
ATOM     43 OE1  GLN G 810     -25.250  26.365  16.360  1.00 94.65 LIG-0.27  OA
ENDBRANCH 38 39
ENDBRANCH 37 38
ENDBRANCH 35 37
ENDBRANCH 33 35
ENDBRANCH 30 31
ENDBRANCH 27 30
ENDBRANCH 1 26
TORSDOF 17
ENDMDL
MODEL 31
USER: ADFR SOLUTION from run 20
USER: SCORE 11.063201 LL:  -2.236 LR: -10.670 RR:   0.000 FEB:  -5.599
USER: RMSD 10.281711
USER: SEED 19
USER: STATUS no improvement in best in 41 clusters for 5 generations
USER: GENES 19
USER: genes 0 Translation |==|  0.48787 0.33576 0.40837
USER: genes 1 Rotation |==|  0.62043 0.82460 0.83501 0.63381
USER: genes 2 Torsion [C]-CA--CB-[CG] |==|  0.41189
USER: genes 3 Torsion [CA]-CB--CG-[CD2] |==|  0.22654
USER: genes 4 Torsion [N]-CA--C-[N] |==|  0.51490
USER: genes 5 Torsion [C]-N--CA-[C] |==|  0.34997
USER: genes 6 Torsion [N]-CA--C-[N] |==|  0.10408
USER: genes 7 Torsion [C]-N--CA-[CB] |==|  0.84659
USER: genes 8 Torsion [N]-CA--CB-[CG] |==|  0.77685
USER: genes 9 Torsion [CA]-CB--CG-[CD] |==|  0.57928
USER: genes 10 Torsion [CB]-CG--CD-[OE2] |==|  0.37377
USER: genes 11 Torsion [N]-CA--C-[OXT] |==|  0.54474
USER: genes 12 Torsion [CB]-CA--N-[C] |==|  0.21477
USER: genes 13 Torsion [N]-C--CA-[N] |==|  0.91111
USER: genes 14 Torsion [C]-CA--N-[C] |==|  0.25688
USER: genes 15 Torsion [N]-C--CA-[N] |==|  0.37623
USER: genes 16 Torsion [C]-CA--CB-[CG] |==|  0.04665
USER: genes 17 Torsion [CA]-CB--CG-[CD] |==|  0.18988
USER: genes 18 Torsion [CB]-CG--CD-[NE2] |==|  0.63881
ROOT
ATOM      1  CA  HIS G 812     -26.281  30.694  19.465  1.00 98.11 LIG 0.18  C 
ENDROOT
BRANCH 1 2
ATOM      2  CB  HIS G 812     -26.597  30.748  17.964  1.00 96.29 LIG 0.10  C 
BRANCH 2 3
ATOM      3  CG  HIS G 812     -27.019  29.444  17.347  1.00 94.00 LIG 0.06  A 
ATOM      4  CD2 HIS G 812     -28.211  28.817  17.324  1.00 93.71 LIG 0.14  A 
ATOM      5 NE2  HIS G 812     -28.005  27.557  16.801  1.00 93.19 LIG-0.25  NA
ATOM      6  CE1 HIS G 812     -26.722  27.433  16.504  1.00 92.78 LIG 0.23  A 
ATOM      7 ND1  HIS G 812     -26.106  28.554  16.817  1.00 93.58 LIG-0.24  NA
ENDBRANCH 2 3
ENDBRANCH 1 2
BRANCH 1 8
ATOM      8  C   HIS G 812     -25.192  31.733  19.713  1.00 99.25 LIG 0.24  C 
ATOM      9  N   GLY G 813     -24.051  31.598  19.048  1.00100.26 LIG-0.35  N 
ATOM     10 H    GLY G 813     -23.875  30.964  18.495  1.00100.26 LIG 0.16  HD
ATOM     11 O    HIS G 812     -25.401  32.669  20.487  1.00 99.52 LIG-0.27  OA
BRANCH 9 12
ATOM     12  CA  GLY G 813     -22.988  32.569  19.237  1.00101.48 LIG 0.23  C 
BRANCH 12 13
ATOM     13  C   GLY G 813     -21.663  31.936  19.626  1.00102.44 LIG 0.24  C 
ATOM     14 O    GLY G 813     -20.932  32.495  20.443  1.00102.98 LIG-0.27  OA
ATOM     15  N   GLU G 814     -21.350  30.773  19.057  1.00102.70 LIG-0.34  N 
ATOM     16 H    GLU G 814     -21.853  30.358  18.496  1.00102.70 LIG 0.16  HD
BRANCH 15 17
ATOM     17  CA  GLU G 814     -20.086  30.098  19.358  1.00102.89 LIG 0.19  C 
BRANCH 17 18
ATOM     18  CB  GLU G 814     -18.893  31.025  19.092  1.00101.97 LIG 0.05  C 
BRANCH 18 19
ATOM     19  CG  GLU G 814     -18.477  31.130  17.638  1.00100.63 LIG 0.12  C 
BRANCH 19 20
ATOM     20  CD  GLU G 814     -16.995  31.437  17.472  1.00100.36 LIG 0.17  C 
ATOM     21 OE1  GLU G 814     -16.487  32.328  18.188  1.00 99.71 LIG-0.65  OA
ATOM     22 OE2  GLU G 814     -16.337  30.787  16.633  1.00 99.42 LIG-0.65  OA
ENDBRANCH 19 20
ENDBRANCH 18 19
ENDBRANCH 17 18
BRANCH 17 23
ATOM     23  C   GLU G 814     -20.047  29.646  20.822  1.00103.78 LIG 0.20  C 
ATOM     24 OXT  GLU G 814     -18.945  29.333  21.326  1.00104.07 LIG-0.65  OA
ATOM     25 O    GLU G 814     -21.127  29.615  21.453  1.00104.32 LIG-0.65  OA
ENDBRANCH 17 23
ENDBRANCH 15 17
ENDBRANCH 12 13
ENDBRANCH 9 12
ENDBRANCH 1 8
BRANCH 1 26
ATOM     26  N   HIS G 812     -27.394  31.244  20.249  1.00 98.48 LIG-0.35  N 
ATOM     27  C   GLY G 811     -28.540  30.616  20.519  1.00 98.46 LIG 0.24  C 
ATOM     28 O    GLY G 811     -28.832  29.488  20.104  1.00 98.78 LIG-0.27  OA
ATOM     29 H    HIS G 812     -27.235  32.041  20.530  1.00 98.48 LIG 0.16  HD
BRANCH 27 30
ATOM     30  CA  GLY G 811     -29.503  31.405  21.392  1.00 98.06 LIG 0.23  C 
BRANCH 30 31
ATOM     31  N   GLY G 811     -28.913  32.298  22.373  1.00 97.66 LIG-0.35  N 
ATOM     32 H    GLY G 811     -28.732  31.936  23.131  1.00 97.66 LIG 0.16  HD
ATOM     33  C   GLN G 810     -28.687  33.576  22.072  1.00 97.43 LIG 0.26  C 
ATOM     34 O    GLN G 810     -28.978  34.068  20.981  1.00 97.76 LIG-0.27  OA
BRANCH 33 35
ATOM     35  CA  GLN G 810     -28.054  34.435  23.167  1.00 96.79 LIG 0.40  C 
ATOM     36  N   GLN G 810     -26.963  35.281  22.601  1.00 96.61 LIG 0.61  N 
BRANCH 35 37
ATOM     37  CB  GLN G 810     -29.135  35.312  23.793  1.00 96.38 LIG 0.06  C 
BRANCH 37 38
ATOM     38  CG  GLN G 810     -30.568  34.883  23.518  1.00 95.56 LIG 0.10  C 
BRANCH 38 39
ATOM     39  CD  GLN G 810     -30.913  33.581  24.206  1.00 95.11 LIG 0.21  C 
ATOM     40  NE2 GLN G 810     -31.476  32.647  23.447  1.00 94.31 LIG-0.37  N 
ATOM     41 21HE GLN G 810     -31.626  32.802  22.615  1.00 94.31 LIG 0.16  HD
ATOM     42 22HE GLN G 810     -31.691  31.888  23.789  1.00 94.31 LIG 0.16  HD
ATOM     43 OE1  GLN G 810     -30.676  33.412  25.404  1.00 94.65 LIG-0.27  OA
ENDBRANCH 38 39
ENDBRANCH 37 38
ENDBRANCH 35 37
ENDBRANCH 33 35
ENDBRANCH 30 31
ENDBRANCH 27 30
ENDBRANCH 1 26
TORSDOF 17
ENDMDL
MODEL 32
USER: ADFR SOLUTION from run 114
USER: SCORE 12.077005 LL:  -2.883 LR: -10.673 RR:   0.000 FEB:  -5.602
USER: RMSD 10.350031
USER: SEED 113
USER: STATUS no improvement in best in 29 clusters for 5 generations
USER: GENES 19
USER: genes 0 Translation |==|  0.69650 0.62345 0.30547
USER: genes 1 Rotation |==|  0.67355 0.60959 0.94679 0.59085
USER: genes 2 Torsion [C]-CA--CB-[CG] |==|  0.29397
USER: genes 3 Torsion [CA]-CB--CG-[CD2] |==|  0.36422
USER: genes 4 Torsion [N]-CA--C-[N] |==|  0.32222
USER: genes 5 Torsion [C]-N--CA-[C] |==|  0.41103
USER: genes 6 Torsion [N]-CA--C-[N] |==|  0.07595
USER: genes 7 Torsion [C]-N--CA-[CB] |==|  0.21030
USER: genes 8 Torsion [N]-CA--CB-[CG] |==|  0.47181
USER: genes 9 Torsion [CA]-CB--CG-[CD] |==|  0.24794
USER: genes 10 Torsion [CB]-CG--CD-[OE2] |==|  0.39719
USER: genes 11 Torsion [N]-CA--C-[OXT] |==|  0.78747
USER: genes 12 Torsion [CB]-CA--N-[C] |==|  0.89250
USER: genes 13 Torsion [N]-C--CA-[N] |==|  0.99607
USER: genes 14 Torsion [C]-CA--N-[C] |==|  0.29411
USER: genes 15 Torsion [N]-C--CA-[N] |==|  0.90557
USER: genes 16 Torsion [C]-CA--CB-[CG] |==|  0.16128
USER: genes 17 Torsion [CA]-CB--CG-[CD] |==|  0.68531
USER: genes 18 Torsion [CB]-CG--CD-[NE2] |==|  0.81791
ROOT
ATOM      1  CA  HIS G 812     -22.212  36.088  16.918  1.00 98.11 LIG 0.18  C 
ENDROOT
BRANCH 1 2
ATOM      2  CB  HIS G 812     -22.332  37.418  16.161  1.00 96.29 LIG 0.10  C 
BRANCH 2 3
ATOM      3  CG  HIS G 812     -21.769  37.418  14.767  1.00 94.00 LIG 0.06  A 
ATOM      4  CD2 HIS G 812     -22.291  37.839  13.598  1.00 93.71 LIG 0.14  A 
ATOM      5 NE2  HIS G 812     -21.442  37.425  12.594  1.00 93.19 LIG-0.25  NA
ATOM      6  CE1 HIS G 812     -20.426  36.781  13.144  1.00 92.78 LIG 0.23  A 
ATOM      7 ND1  HIS G 812     -20.594  36.766  14.451  1.00 93.58 LIG-0.24  NA
ENDBRANCH 2 3
ENDBRANCH 1 2
BRANCH 1 8
ATOM      8  C   HIS G 812     -21.107  36.280  17.952  1.00 99.25 LIG 0.24  C 
ATOM      9  N   GLY G 813     -20.132  35.380  17.984  1.00100.26 LIG-0.35  N 
ATOM     10 H    GLY G 813     -20.081  34.692  17.473  1.00100.26 LIG 0.16  HD
ATOM     11 O    HIS G 812     -21.129  37.260  18.699  1.00 99.52 LIG-0.27  OA
BRANCH 9 12
ATOM     12  CA  GLY G 813     -19.048  35.527  18.940  1.00101.48 LIG 0.23  C 
BRANCH 12 13
ATOM     13  C   GLY G 813     -18.489  34.198  19.416  1.00102.44 LIG 0.24  C 
ATOM     14 O    GLY G 813     -17.974  34.112  20.530  1.00102.98 LIG-0.27  OA
ATOM     15  N   GLU G 814     -18.592  33.159  18.589  1.00102.70 LIG-0.34  N 
ATOM     16 H    GLU G 814     -18.962  33.193  17.813  1.00102.70 LIG 0.16  HD
BRANCH 15 17
ATOM     17  CA  GLU G 814     -18.065  31.842  18.955  1.00102.89 LIG 0.19  C 
BRANCH 17 18
ATOM     18  CB  GLU G 814     -18.983  31.149  19.971  1.00101.97 LIG 0.05  C 
BRANCH 18 19
ATOM     19  CG  GLU G 814     -18.660  29.690  20.233  1.00100.63 LIG 0.12  C 
BRANCH 19 20
ATOM     20  CD  GLU G 814     -17.657  29.506  21.362  1.00100.36 LIG 0.17  C 
ATOM     21 OE1  GLU G 814     -16.731  30.339  21.480  1.00 99.71 LIG-0.65  OA
ATOM     22 OE2  GLU G 814     -17.794  28.534  22.136  1.00 99.42 LIG-0.65  OA
ENDBRANCH 19 20
ENDBRANCH 18 19
ENDBRANCH 17 18
BRANCH 17 23
ATOM     23  C   GLU G 814     -17.929  30.949  17.718  1.00103.78 LIG 0.20  C 
ATOM     24 OXT  GLU G 814     -18.961  30.431  17.233  1.00104.07 LIG-0.65  OA
ATOM     25 O    GLU G 814     -16.785  30.781  17.241  1.00104.32 LIG-0.65  OA
ENDBRANCH 17 23
ENDBRANCH 15 17
ENDBRANCH 12 13
ENDBRANCH 9 12
ENDBRANCH 1 8
BRANCH 1 26
ATOM     26  N   HIS G 812     -23.383  35.875  17.778  1.00 98.48 LIG-0.35  N 
ATOM     27  C   GLY G 811     -24.012  36.817  18.483  1.00 98.46 LIG 0.24  C 
ATOM     28 O    GLY G 811     -23.659  38.002  18.535  1.00 98.78 LIG-0.27  OA
ATOM     29 H    HIS G 812     -23.639  35.053  17.788  1.00 98.48 LIG 0.16  HD
BRANCH 27 30
ATOM     30  CA  GLY G 811     -25.228  36.326  19.255  1.00 98.06 LIG 0.23  C 
BRANCH 30 31
ATOM     31  N   GLY G 811     -25.569  34.922  19.108  1.00 97.66 LIG-0.35  N 
ATOM     32 H    GLY G 811     -25.928  34.713  18.355  1.00 97.66 LIG 0.16  HD
ATOM     33  C   GLN G 810     -25.326  34.062  20.095  1.00 97.43 LIG 0.26  C 
ATOM     34 O    GLN G 810     -24.829  34.400  21.170  1.00 97.76 LIG-0.27  OA
BRANCH 33 35
ATOM     35  CA  GLN G 810     -25.712  32.605  19.842  1.00 96.79 LIG 0.40  C 
ATOM     36  N   GLN G 810     -26.938  32.528  18.995  1.00 96.61 LIG 0.61  N 
BRANCH 35 37
ATOM     37  CB  GLN G 810     -24.547  31.898  19.153  1.00 96.38 LIG 0.06  C 
BRANCH 37 38
ATOM     38  CG  GLN G 810     -23.228  31.916  19.911  1.00 95.56 LIG 0.10  C 
BRANCH 38 39
ATOM     39  CD  GLN G 810     -22.175  32.736  19.200  1.00 95.11 LIG 0.21  C 
ATOM     40  NE2 GLN G 810     -21.766  32.273  18.024  1.00 94.31 LIG-0.37  N 
ATOM     41 21HE GLN G 810     -22.097  31.544  17.710  1.00 94.31 LIG 0.16  HD
ATOM     42 22HE GLN G 810     -21.169  32.702  17.577  1.00 94.31 LIG 0.16  HD
ATOM     43 OE1  GLN G 810     -21.735  33.774  19.696  1.00 94.65 LIG-0.27  OA
ENDBRANCH 38 39
ENDBRANCH 37 38
ENDBRANCH 35 37
ENDBRANCH 33 35
ENDBRANCH 30 31
ENDBRANCH 27 30
ENDBRANCH 1 26
TORSDOF 17
ENDMDL
MODEL 33
USER: ADFR SOLUTION from run 142
USER: SCORE 11.428846 LL:  -2.119 LR: -10.658 RR:   0.000 FEB:  -5.587
USER: RMSD 11.010748
USER: SEED 141
USER: STATUS no improvement in best in 16 clusters for 5 generations
USER: GENES 19
USER: genes 0 Translation |==|  0.50041 0.34009 0.46447
USER: genes 1 Rotation |==|  0.20939 0.23761 0.19339 0.55182
USER: genes 2 Torsion [C]-CA--CB-[CG] |==|  0.39955
USER: genes 3 Torsion [CA]-CB--CG-[CD2] |==|  0.26569
USER: genes 4 Torsion [N]-CA--C-[N] |==|  0.38545
USER: genes 5 Torsion [C]-N--CA-[C] |==|  0.29837
USER: genes 6 Torsion [N]-CA--C-[N] |==|  0.13107
USER: genes 7 Torsion [C]-N--CA-[CB] |==|  0.87265
USER: genes 8 Torsion [N]-CA--CB-[CG] |==|  0.73914
USER: genes 9 Torsion [CA]-CB--CG-[CD] |==|  0.61453
USER: genes 10 Torsion [CB]-CG--CD-[OE2] |==|  0.47930
USER: genes 11 Torsion [N]-CA--C-[OXT] |==|  0.00283
USER: genes 12 Torsion [CB]-CA--N-[C] |==|  0.53195
USER: genes 13 Torsion [N]-C--CA-[N] |==|  0.40472
USER: genes 14 Torsion [C]-CA--N-[C] |==|  0.22222
USER: genes 15 Torsion [N]-C--CA-[N] |==|  0.34079
USER: genes 16 Torsion [C]-CA--CB-[CG] |==|  0.10194
USER: genes 17 Torsion [CA]-CB--CG-[CD] |==|  0.23690
USER: genes 18 Torsion [CB]-CG--CD-[NE2] |==|  0.78364
ROOT
ATOM      1  CA  HIS G 812     -26.036  30.775  20.854  1.00 98.11 LIG 0.18  C 
ENDROOT
BRANCH 1 2
ATOM      2  CB  HIS G 812     -27.365  31.381  20.382  1.00 96.29 LIG 0.10  C 
BRANCH 2 3
ATOM      3  CG  HIS G 812     -28.357  30.400  19.821  1.00 94.00 LIG 0.06  A 
ATOM      4  CD2 HIS G 812     -29.395  29.761  20.394  1.00 93.71 LIG 0.14  A 
ATOM      5 NE2  HIS G 812     -29.851  28.823  19.491  1.00 93.19 LIG-0.25  NA
ATOM      6  CE1 HIS G 812     -29.114  28.904  18.396  1.00 92.78 LIG 0.23  A 
ATOM      7 ND1  HIS G 812     -28.211  29.848  18.564  1.00 93.58 LIG-0.24  NA
ENDBRANCH 2 3
ENDBRANCH 1 2
BRANCH 1 8
ATOM      8  C   HIS G 812     -24.954  31.795  20.513  1.00 99.25 LIG 0.24  C 
ATOM      9  N   GLY G 813     -24.162  31.529  19.482  1.00100.26 LIG-0.35  N 
ATOM     10 H    GLY G 813     -24.206  30.821  18.997  1.00100.26 LIG 0.16  HD
ATOM     11 O    HIS G 812     -24.859  32.833  21.171  1.00 99.52 LIG-0.27  OA
BRANCH 9 12
ATOM     12  CA  GLY G 813     -23.125  32.475  19.107  1.00101.48 LIG 0.23  C 
BRANCH 12 13
ATOM     13  C   GLY G 813     -21.727  31.998  19.458  1.00102.44 LIG 0.24  C 
ATOM     14 O    GLY G 813     -20.946  32.755  20.032  1.00102.98 LIG-0.27  OA
ATOM     15  N   GLU G 814     -21.405  30.748  19.126  1.00102.70 LIG-0.34  N 
ATOM     16 H    GLU G 814     -21.941  30.198  18.738  1.00102.70 LIG 0.16  HD
BRANCH 15 17
ATOM     17  CA  GLU G 814     -20.074  30.208  19.408  1.00102.89 LIG 0.19  C 
BRANCH 17 18
ATOM     18  CB  GLU G 814     -18.980  31.205  19.003  1.00101.97 LIG 0.05  C 
BRANCH 18 19
ATOM     19  CG  GLU G 814     -18.419  31.006  17.608  1.00100.63 LIG 0.12  C 
BRANCH 19 20
ATOM     20  CD  GLU G 814     -16.908  31.182  17.554  1.00100.36 LIG 0.17  C 
ATOM     21 OE1  GLU G 814     -16.318  31.592  18.578  1.00 99.71 LIG-0.65  OA
ATOM     22 OE2  GLU G 814     -16.308  30.906  16.493  1.00 99.42 LIG-0.65  OA
ENDBRANCH 19 20
ENDBRANCH 18 19
ENDBRANCH 17 18
BRANCH 17 23
ATOM     23  C   GLU G 814     -19.924  29.885  20.898  1.00103.78 LIG 0.20  C 
ATOM     24 OXT  GLU G 814     -20.899  30.086  21.659  1.00104.07 LIG-0.65  OA
ATOM     25 O    GLU G 814     -18.828  29.426  21.291  1.00104.32 LIG-0.65  OA
ENDBRANCH 17 23
ENDBRANCH 15 17
ENDBRANCH 12 13
ENDBRANCH 9 12
ENDBRANCH 1 8
BRANCH 1 26
ATOM     26  N   HIS G 812     -25.968  30.755  22.321  1.00 98.48 LIG-0.35  N 
ATOM     27  C   GLY G 811     -24.877  30.498  23.045  1.00 98.46 LIG 0.24  C 
ATOM     28 O    GLY G 811     -23.776  30.199  22.566  1.00 98.78 LIG-0.27  OA
ATOM     29 H    HIS G 812     -26.725  30.932  22.687  1.00 98.48 LIG 0.16  HD
BRANCH 27 30
ATOM     30  CA  GLY G 811     -25.080  30.589  24.549  1.00 98.06 LIG 0.23  C 
BRANCH 30 31
ATOM     31  N   GLY G 811     -24.317  29.663  25.368  1.00 97.66 LIG-0.35  N 
ATOM     32 H    GLY G 811     -24.753  28.973  25.637  1.00 97.66 LIG 0.16  HD
ATOM     33  C   GLN G 810     -23.039  29.908  25.652  1.00 97.43 LIG 0.26  C 
ATOM     34 O    GLN G 810     -22.450  30.919  25.265  1.00 97.76 LIG-0.27  OA
BRANCH 33 35
ATOM     35  CA  GLN G 810     -22.318  28.870  26.511  1.00 96.79 LIG 0.40  C 
ATOM     36  N   GLN G 810     -21.113  28.350  25.802  1.00 96.61 LIG 0.61  N 
BRANCH 35 37
ATOM     37  CB  GLN G 810     -21.915  29.519  27.833  1.00 96.38 LIG 0.06  C 
BRANCH 37 38
ATOM     38  CG  GLN G 810     -22.908  30.522  28.401  1.00 95.56 LIG 0.10  C 
BRANCH 38 39
ATOM     39  CD  GLN G 810     -23.987  29.850  29.222  1.00 95.11 LIG 0.21  C 
ATOM     40  NE2 GLN G 810     -24.959  29.256  28.539  1.00 94.31 LIG-0.37  N 
ATOM     41 21HE GLN G 810     -24.952  29.270  27.679  1.00 94.31 LIG 0.16  HD
ATOM     42 22HE GLN G 810     -25.597  28.858  28.957  1.00 94.31 LIG 0.16  HD
ATOM     43 OE1  GLN G 810     -23.949  29.861  30.453  1.00 94.65 LIG-0.27  OA
ENDBRANCH 38 39
ENDBRANCH 37 38
ENDBRANCH 35 37
ENDBRANCH 33 35
ENDBRANCH 30 31
ENDBRANCH 27 30
ENDBRANCH 1 26
TORSDOF 17
ENDMDL
MODEL 34
USER: ADFR SOLUTION from run 140
USER: SCORE 12.259566 LL:  -2.504 LR: -10.645 RR:   0.000 FEB:  -5.574
USER: RMSD 7.554082
USER: SEED 139
USER: STATUS no improvement in best in 13 clusters for 5 generations
USER: GENES 19
USER: genes 0 Translation |==|  0.49206 0.59573 0.41551
USER: genes 1 Rotation |==|  0.76614 0.42711 0.16466 0.74780
USER: genes 2 Torsion [C]-CA--CB-[CG] |==|  0.20547
USER: genes 3 Torsion [CA]-CB--CG-[CD2] |==|  0.18479
USER: genes 4 Torsion [N]-CA--C-[N] |==|  0.41324
USER: genes 5 Torsion [C]-N--CA-[C] |==|  0.78332
USER: genes 6 Torsion [N]-CA--C-[N] |==|  0.57948
USER: genes 7 Torsion [C]-N--CA-[CB] |==|  0.33136
USER: genes 8 Torsion [N]-CA--CB-[CG] |==|  0.09048
USER: genes 9 Torsion [CA]-CB--CG-[CD] |==|  0.46708
USER: genes 10 Torsion [CB]-CG--CD-[OE2] |==|  0.74827
USER: genes 11 Torsion [N]-CA--C-[OXT] |==|  0.42772
USER: genes 12 Torsion [CB]-CA--N-[C] |==|  0.51240
USER: genes 13 Torsion [N]-C--CA-[N] |==|  0.90015
USER: genes 14 Torsion [C]-CA--N-[C] |==|  0.82388
USER: genes 15 Torsion [N]-C--CA-[N] |==|  0.15703
USER: genes 16 Torsion [C]-CA--CB-[CG] |==|  0.53194
USER: genes 17 Torsion [CA]-CB--CG-[CD] |==|  0.22323
USER: genes 18 Torsion [CB]-CG--CD-[NE2] |==|  0.22899
ROOT
ATOM      1  CA  HIS G 812     -26.199  35.568  19.642  1.00 98.11 LIG 0.18  C 
ENDROOT
BRANCH 1 2
ATOM      2  CB  HIS G 812     -26.738  36.086  18.301  1.00 96.29 LIG 0.10  C 
BRANCH 2 3
ATOM      3  CG  HIS G 812     -27.460  37.403  18.363  1.00 94.00 LIG 0.06  A 
ATOM      4  CD2 HIS G 812     -27.019  38.644  18.647  1.00 93.71 LIG 0.14  A 
ATOM      5 NE2  HIS G 812     -28.127  39.458  18.764  1.00 93.19 LIG-0.25  NA
ATOM      6  CE1 HIS G 812     -29.207  38.728  18.542  1.00 92.78 LIG 0.23  A 
ATOM      7 ND1  HIS G 812     -28.836  37.489  18.293  1.00 93.58 LIG-0.24  NA
ENDBRANCH 2 3
ENDBRANCH 1 2
BRANCH 1 8
ATOM      8  C   HIS G 812     -27.409  35.076  20.430  1.00 99.25 LIG 0.24  C 
ATOM      9  N   GLY G 813     -27.960  35.915  21.297  1.00100.26 LIG-0.35  N 
ATOM     10 H    GLY G 813     -27.682  36.713  21.456  1.00100.26 LIG 0.16  HD
ATOM     11 O    HIS G 812     -27.854  33.944  20.228  1.00 99.52 LIG-0.27  OA
BRANCH 9 12
ATOM     12  CA  GLY G 813     -29.123  35.500  22.062  1.00101.48 LIG 0.23  C 
BRANCH 12 13
ATOM     13  C   GLY G 813     -30.412  35.550  21.261  1.00102.44 LIG 0.24  C 
ATOM     14 O    GLY G 813     -30.385  35.384  20.042  1.00102.98 LIG-0.27  OA
ATOM     15  N   GLU G 814     -31.542  35.768  21.932  1.00102.70 LIG-0.34  N 
ATOM     16 H    GLU G 814     -31.586  35.871  22.785  1.00102.70 LIG 0.16  HD
BRANCH 15 17
ATOM     17  CA  GLU G 814     -32.831  35.851  21.241  1.00102.89 LIG 0.19  C 
BRANCH 17 18
ATOM     18  CB  GLU G 814     -33.789  34.759  21.737  1.00101.97 LIG 0.05  C 
BRANCH 18 19
ATOM     19  CG  GLU G 814     -33.624  34.379  23.196  1.00100.63 LIG 0.12  C 
BRANCH 19 20
ATOM     20  CD  GLU G 814     -34.767  33.516  23.710  1.00100.36 LIG 0.17  C 
ATOM     21 OE1  GLU G 814     -34.669  32.273  23.608  1.00 99.71 LIG-0.65  OA
ATOM     22 OE2  GLU G 814     -35.760  34.076  24.220  1.00 99.42 LIG-0.65  OA
ENDBRANCH 19 20
ENDBRANCH 18 19
ENDBRANCH 17 18
BRANCH 17 23
ATOM     23  C   GLU G 814     -33.479  37.220  21.465  1.00103.78 LIG 0.20  C 
ATOM     24 OXT  GLU G 814     -34.283  37.653  20.607  1.00104.07 LIG-0.65  OA
ATOM     25 O    GLU G 814     -33.179  37.847  22.505  1.00104.32 LIG-0.65  OA
ENDBRANCH 17 23
ENDBRANCH 15 17
ENDBRANCH 12 13
ENDBRANCH 9 12
ENDBRANCH 1 8
BRANCH 1 26
ATOM     26  N   HIS G 812     -25.447  34.321  19.450  1.00 98.48 LIG-0.35  N 
ATOM     27  C   GLY G 811     -24.922  33.572  20.423  1.00 98.46 LIG 0.24  C 
ATOM     28 O    GLY G 811     -24.968  33.859  21.625  1.00 98.78 LIG-0.27  OA
ATOM     29 H    HIS G 812     -25.372  34.106  18.621  1.00 98.48 LIG 0.16  HD
BRANCH 27 30
ATOM     30  CA  GLY G 811     -24.232  32.305  19.943  1.00 98.06 LIG 0.23  C 
BRANCH 30 31
ATOM     31  N   GLY G 811     -24.828  31.628  18.805  1.00 97.66 LIG-0.35  N 
ATOM     32 H    GLY G 811     -24.334  31.594  18.103  1.00 97.66 LIG 0.16  HD
ATOM     33  C   GLN G 810     -26.054  31.115  18.892  1.00 97.43 LIG 0.26  C 
ATOM     34 O    GLN G 810     -26.745  31.200  19.908  1.00 97.76 LIG-0.27  OA
BRANCH 33 35
ATOM     35  CA  GLN G 810     -26.592  30.413  17.645  1.00 96.79 LIG 0.40  C 
ATOM     36  N   GLN G 810     -25.669  29.319  17.221  1.00 96.61 LIG 0.61  N 
BRANCH 35 37
ATOM     37  CB  GLN G 810     -27.976  29.848  17.954  1.00 96.38 LIG 0.06  C 
BRANCH 37 38
ATOM     38  CG  GLN G 810     -28.539  28.889  16.917  1.00 95.56 LIG 0.10  C 
BRANCH 38 39
ATOM     39  CD  GLN G 810     -27.973  27.494  17.067  1.00 95.11 LIG 0.21  C 
ATOM     40  NE2 GLN G 810     -28.548  26.723  17.983  1.00 94.31 LIG-0.37  N 
ATOM     41 21HE GLN G 810     -29.202  27.026  18.452  1.00 94.31 LIG 0.16  HD
ATOM     42 22HE GLN G 810     -28.265  25.920  18.108  1.00 94.31 LIG 0.16  HD
ATOM     43 OE1  GLN G 810     -27.033  27.111  16.368  1.00 94.65 LIG-0.27  OA
ENDBRANCH 38 39
ENDBRANCH 37 38
ENDBRANCH 35 37
ENDBRANCH 33 35
ENDBRANCH 30 31
ENDBRANCH 27 30
ENDBRANCH 1 26
TORSDOF 17
ENDMDL
MODEL 35
USER: ADFR SOLUTION from run 113
USER: SCORE 10.788123 LL:  -1.961 LR: -10.645 RR:   0.000 FEB:  -5.573
USER: RMSD 7.294339
USER: SEED 112
USER: STATUS no improvement in best in 20 clusters for 5 generations
USER: GENES 19
USER: genes 0 Translation |==|  0.48128 0.43232 0.39645
USER: genes 1 Rotation |==|  0.59190 0.82262 0.64163 0.84265
USER: genes 2 Torsion [C]-CA--CB-[CG] |==|  0.34552
USER: genes 3 Torsion [CA]-CB--CG-[CD2] |==|  0.47767
USER: genes 4 Torsion [N]-CA--C-[N] |==|  0.62318
USER: genes 5 Torsion [C]-N--CA-[C] |==|  0.22712
USER: genes 6 Torsion [N]-CA--C-[N] |==|  0.49446
USER: genes 7 Torsion [C]-N--CA-[CB] |==|  0.23460
USER: genes 8 Torsion [N]-CA--CB-[CG] |==|  0.43922
USER: genes 9 Torsion [CA]-CB--CG-[CD] |==|  0.60658
USER: genes 10 Torsion [CB]-CG--CD-[OE2] |==|  0.70713
USER: genes 11 Torsion [N]-CA--C-[OXT] |==|  0.90481
USER: genes 12 Torsion [CB]-CA--N-[C] |==|  0.37012
USER: genes 13 Torsion [N]-C--CA-[N] |==|  0.96822
USER: genes 14 Torsion [C]-CA--N-[C] |==|  0.79134
USER: genes 15 Torsion [N]-C--CA-[N] |==|  0.21473
USER: genes 16 Torsion [C]-CA--CB-[CG] |==|  0.50900
USER: genes 17 Torsion [CA]-CB--CG-[CD] |==|  0.66589
USER: genes 18 Torsion [CB]-CG--CD-[NE2] |==|  0.91375
ROOT
ATOM      1  CA  HIS G 812     -26.409  32.504  19.170  1.00 98.11 LIG 0.18  C 
ENDROOT
BRANCH 1 2
ATOM      2  CB  HIS G 812     -26.413  31.523  17.989  1.00 96.29 LIG 0.10  C 
BRANCH 2 3
ATOM      3  CG  HIS G 812     -27.212  30.267  18.198  1.00 94.00 LIG 0.06  A 
ATOM      4  CD2 HIS G 812     -27.549  29.277  17.348  1.00 93.71 LIG 0.14  A 
ATOM      5 NE2  HIS G 812     -28.459  28.468  17.997  1.00 93.19 LIG-0.25  NA
ATOM      6  CE1 HIS G 812     -28.655  28.951  19.212  1.00 92.78 LIG 0.23  A 
ATOM      7 ND1  HIS G 812     -27.914  30.030  19.363  1.00 93.58 LIG-0.24  NA
ENDBRANCH 2 3
ENDBRANCH 1 2
BRANCH 1 8
ATOM      8  C   HIS G 812     -24.945  32.745  19.524  1.00 99.25 LIG 0.24  C 
ATOM      9  N   GLY G 813     -24.058  31.849  19.110  1.00100.26 LIG-0.35  N 
ATOM     10 H    GLY G 813     -24.246  31.138  18.666  1.00100.26 LIG 0.16  HD
ATOM     11 O    HIS G 812     -24.622  33.758  20.148  1.00 99.52 LIG-0.27  OA
BRANCH 9 12
ATOM     12  CA  GLY G 813     -22.649  32.040  19.408  1.00101.48 LIG 0.23  C 
BRANCH 12 13
ATOM     13  C   GLY G 813     -22.268  31.590  20.808  1.00102.44 LIG 0.24  C 
ATOM     14 O    GLY G 813     -23.130  31.148  21.566  1.00102.98 LIG-0.27  OA
ATOM     15  N   GLU G 814     -20.986  31.690  21.156  1.00102.70 LIG-0.34  N 
ATOM     16 H    GLU G 814     -20.366  31.981  20.636  1.00102.70 LIG 0.16  HD
BRANCH 15 17
ATOM     17  CA  GLU G 814     -20.530  31.297  22.491  1.00102.89 LIG 0.19  C 
BRANCH 17 18
ATOM     18  CB  GLU G 814     -20.259  29.787  22.555  1.00101.97 LIG 0.05  C 
BRANCH 18 19
ATOM     19  CG  GLU G 814     -19.321  29.353  23.664  1.00100.63 LIG 0.12  C 
BRANCH 19 20
ATOM     20  CD  GLU G 814     -18.380  28.237  23.233  1.00100.36 LIG 0.17  C 
ATOM     21 OE1  GLU G 814     -17.419  28.523  22.485  1.00 99.71 LIG-0.65  OA
ATOM     22 OE2  GLU G 814     -18.595  27.077  23.644  1.00 99.42 LIG-0.65  OA
ENDBRANCH 19 20
ENDBRANCH 18 19
ENDBRANCH 17 18
BRANCH 17 23
ATOM     23  C   GLU G 814     -19.250  32.048  22.869  1.00103.78 LIG 0.20  C 
ATOM     24 OXT  GLU G 814     -18.423  32.320  21.969  1.00104.07 LIG-0.65  OA
ATOM     25 O    GLU G 814     -19.090  32.364  24.069  1.00104.32 LIG-0.65  OA
ENDBRANCH 17 23
ENDBRANCH 15 17
ENDBRANCH 12 13
ENDBRANCH 9 12
ENDBRANCH 1 8
BRANCH 1 26
ATOM     26  N   HIS G 812     -26.828  33.842  18.733  1.00 98.48 LIG-0.35  N 
ATOM     27  C   GLY G 811     -27.721  34.618  19.351  1.00 98.46 LIG 0.24  C 
ATOM     28 O    GLY G 811     -28.348  34.287  20.365  1.00 98.78 LIG-0.27  OA
ATOM     29 H    HIS G 812     -26.431  34.092  18.012  1.00 98.48 LIG 0.16  HD
BRANCH 27 30
ATOM     30  CA  GLY G 811     -27.933  35.978  18.704  1.00 98.06 LIG 0.23  C 
BRANCH 30 31
ATOM     31  N   GLY G 811     -26.983  36.367  17.677  1.00 97.66 LIG-0.35  N 
ATOM     32 H    GLY G 811     -27.280  36.319  16.872  1.00 97.66 LIG 0.16  HD
ATOM     33  C   GLN G 810     -25.755  36.761  18.009  1.00 97.43 LIG 0.26  C 
ATOM     34 O    GLN G 810     -25.356  36.797  19.173  1.00 97.76 LIG-0.27  OA
BRANCH 33 35
ATOM     35  CA  GLN G 810     -24.831  37.159  16.858  1.00 96.79 LIG 0.40  C 
ATOM     36  N   GLN G 810     -25.177  38.522  16.358  1.00 96.61 LIG 0.61  N 
BRANCH 35 37
ATOM     37  CB  GLN G 810     -23.387  37.128  17.352  1.00 96.38 LIG 0.06  C 
BRANCH 37 38
ATOM     38  CG  GLN G 810     -22.339  37.576  16.344  1.00 95.56 LIG 0.10  C 
BRANCH 38 39
ATOM     39  CD  GLN G 810     -21.331  36.488  16.051  1.00 95.11 LIG 0.21  C 
ATOM     40  NE2 GLN G 810     -21.068  35.648  17.047  1.00 94.31 LIG-0.37  N 
ATOM     41 21HE GLN G 810     -21.462  35.743  17.805  1.00 94.31 LIG 0.16  HD
ATOM     42 22HE GLN G 810     -20.502  35.010  16.933  1.00 94.31 LIG 0.16  HD
ATOM     43 OE1  GLN G 810     -20.794  36.398  14.946  1.00 94.65 LIG-0.27  OA
ENDBRANCH 38 39
ENDBRANCH 37 38
ENDBRANCH 35 37
ENDBRANCH 33 35
ENDBRANCH 30 31
ENDBRANCH 27 30
ENDBRANCH 1 26
TORSDOF 17
ENDMDL
MODEL 36
USER: ADFR SOLUTION from run 23
USER: SCORE 10.801288 LL:  -2.460 LR: -10.611 RR:   0.000 FEB:  -5.540
USER: RMSD 6.383508
USER: SEED 22
USER: STATUS no improvement in best in 26 clusters for 5 generations
USER: GENES 19
USER: genes 0 Translation |==|  0.36773 0.35958 0.44462
USER: genes 1 Rotation |==|  0.43937 0.48293 0.38559 0.98264
USER: genes 2 Torsion [C]-CA--CB-[CG] |==|  0.47925
USER: genes 3 Torsion [CA]-CB--CG-[CD2] |==|  0.70809
USER: genes 4 Torsion [N]-CA--C-[N] |==|  0.46483
USER: genes 5 Torsion [C]-N--CA-[C] |==|  0.39244
USER: genes 6 Torsion [N]-CA--C-[N] |==|  0.13570
USER: genes 7 Torsion [C]-N--CA-[CB] |==|  0.27034
USER: genes 8 Torsion [N]-CA--CB-[CG] |==|  0.62804
USER: genes 9 Torsion [CA]-CB--CG-[CD] |==|  0.50956
USER: genes 10 Torsion [CB]-CG--CD-[OE2] |==|  0.79715
USER: genes 11 Torsion [N]-CA--C-[OXT] |==|  0.46869
USER: genes 12 Torsion [CB]-CA--N-[C] |==|  0.23660
USER: genes 13 Torsion [N]-C--CA-[N] |==|  0.86598
USER: genes 14 Torsion [C]-CA--N-[C] |==|  0.24181
USER: genes 15 Torsion [N]-C--CA-[N] |==|  0.45701
USER: genes 16 Torsion [C]-CA--CB-[CG] |==|  0.94756
USER: genes 17 Torsion [CA]-CB--CG-[CD] |==|  0.34650
USER: genes 18 Torsion [CB]-CG--CD-[NE2] |==|  0.65292
ROOT
ATOM      1  CA  HIS G 812     -28.623  31.140  20.362  1.00 98.11 LIG 0.18  C 
ENDROOT
BRANCH 1 2
ATOM      2  CB  HIS G 812     -29.014  29.662  20.499  1.00 96.29 LIG 0.10  C 
BRANCH 2 3
ATOM      3  CG  HIS G 812     -29.215  28.926  19.203  1.00 94.00 LIG 0.06  A 
ATOM      4  CD2 HIS G 812     -30.336  28.523  18.575  1.00 93.71 LIG 0.14  A 
ATOM      5 NE2  HIS G 812     -29.953  27.716  17.524  1.00 93.19 LIG-0.25  NA
ATOM      6  CE1 HIS G 812     -28.632  27.646  17.511  1.00 92.78 LIG 0.23  A 
ATOM      7 ND1  HIS G 812     -28.161  28.368  18.507  1.00 93.58 LIG-0.24  NA
ENDBRANCH 2 3
ENDBRANCH 1 2
BRANCH 1 8
ATOM      8  C   HIS G 812     -28.659  31.726  21.771  1.00 99.25 LIG 0.24  C 
ATOM      9  N   GLY G 813     -29.848  32.003  22.290  1.00100.26 LIG-0.35  N 
ATOM     10 H    GLY G 813     -30.600  31.886  21.891  1.00100.26 LIG 0.16  HD
ATOM     11 O    HIS G 812     -27.608  31.899  22.391  1.00 99.52 LIG-0.27  OA
BRANCH 9 12
ATOM     12  CA  GLY G 813     -29.938  32.548  23.634  1.00101.48 LIG 0.23  C 
BRANCH 12 13
ATOM     13  C   GLY G 813     -31.014  33.610  23.776  1.00102.44 LIG 0.24  C 
ATOM     14 O    GLY G 813     -30.748  34.686  24.310  1.00102.98 LIG-0.27  OA
ATOM     15  N   GLU G 814     -32.224  33.323  23.298  1.00102.70 LIG-0.34  N 
ATOM     16 H    GLU G 814     -32.427  32.584  22.908  1.00102.70 LIG 0.16  HD
BRANCH 15 17
ATOM     17  CA  GLU G 814     -33.328  34.279  23.407  1.00102.89 LIG 0.19  C 
BRANCH 17 18
ATOM     18  CB  GLU G 814     -33.488  35.081  22.108  1.00101.97 LIG 0.05  C 
BRANCH 18 19
ATOM     19  CG  GLU G 814     -33.660  36.576  22.296  1.00100.63 LIG 0.12  C 
BRANCH 19 20
ATOM     20  CD  GLU G 814     -33.897  37.308  20.983  1.00100.36 LIG 0.17  C 
ATOM     21 OE1  GLU G 814     -35.044  37.746  20.743  1.00 99.71 LIG-0.65  OA
ATOM     22 OE2  GLU G 814     -32.940  37.453  20.194  1.00 99.42 LIG-0.65  OA
ENDBRANCH 19 20
ENDBRANCH 18 19
ENDBRANCH 17 18
BRANCH 17 23
ATOM     23  C   GLU G 814     -34.644  33.556  23.710  1.00103.78 LIG 0.20  C 
ATOM     24 OXT  GLU G 814     -35.642  34.235  24.044  1.00104.07 LIG-0.65  OA
ATOM     25 O    GLU G 814     -34.664  32.309  23.603  1.00104.32 LIG-0.65  OA
ENDBRANCH 17 23
ENDBRANCH 15 17
ENDBRANCH 12 13
ENDBRANCH 9 12
ENDBRANCH 1 8
BRANCH 1 26
ATOM     26  N   HIS G 812     -27.199  31.270  20.028  1.00 98.48 LIG-0.35  N 
ATOM     27  C   GLY G 811     -26.680  31.215  18.800  1.00 98.46 LIG 0.24  C 
ATOM     28 O    GLY G 811     -27.339  31.004  17.774  1.00 98.78 LIG-0.27  OA
ATOM     29 H    HIS G 812     -26.708  31.389  20.724  1.00 98.48 LIG 0.16  HD
BRANCH 27 30
ATOM     30  CA  GLY G 811     -25.175  31.425  18.738  1.00 98.06 LIG 0.23  C 
BRANCH 30 31
ATOM     31  N   GLY G 811     -24.645  32.562  19.470  1.00 97.66 LIG-0.35  N 
ATOM     32 H    GLY G 811     -24.564  33.283  19.010  1.00 97.66 LIG 0.16  HD
ATOM     33  C   GLN G 810     -24.323  32.445  20.757  1.00 97.43 LIG 0.26  C 
ATOM     34 O    GLN G 810     -24.433  31.389  21.380  1.00 97.76 LIG-0.27  OA
BRANCH 33 35
ATOM     35  CA  GLN G 810     -23.782  33.699  21.443  1.00 96.79 LIG 0.40  C 
ATOM     36  N   GLN G 810     -23.819  33.541  22.926  1.00 96.61 LIG 0.61  N 
BRANCH 35 37
ATOM     37  CB  GLN G 810     -22.350  33.941  20.971  1.00 96.38 LIG 0.06  C 
BRANCH 37 38
ATOM     38  CG  GLN G 810     -21.653  32.740  20.350  1.00 95.56 LIG 0.10  C 
BRANCH 38 39
ATOM     39  CD  GLN G 810     -21.132  33.040  18.963  1.00 95.11 LIG 0.21  C 
ATOM     40  NE2 GLN G 810     -21.536  32.226  17.994  1.00 94.31 LIG-0.37  N 
ATOM     41 21HE GLN G 810     -22.064  31.571  18.176  1.00 94.31 LIG 0.16  HD
ATOM     42 22HE GLN G 810     -21.270  32.352  17.186  1.00 94.31 LIG 0.16  HD
ATOM     43 OE1  GLN G 810     -20.377  33.993  18.759  1.00 94.65 LIG-0.27  OA
ENDBRANCH 38 39
ENDBRANCH 37 38
ENDBRANCH 35 37
ENDBRANCH 33 35
ENDBRANCH 30 31
ENDBRANCH 27 30
ENDBRANCH 1 26
TORSDOF 17
ENDMDL
MODEL 37
USER: ADFR SOLUTION from run 171
USER: SCORE 11.117231 LL:  -1.959 LR: -10.549 RR:   0.000 FEB:  -5.478
USER: RMSD 9.951904
USER: SEED 170
USER: STATUS no improvement in best in 12 clusters for 5 generations
USER: GENES 19
USER: genes 0 Translation |==|  0.50167 0.39374 0.40938
USER: genes 1 Rotation |==|  0.56487 0.78626 0.66609 0.86914
USER: genes 2 Torsion [C]-CA--CB-[CG] |==|  0.42673
USER: genes 3 Torsion [CA]-CB--CG-[CD2] |==|  0.97295
USER: genes 4 Torsion [N]-CA--C-[N] |==|  0.90824
USER: genes 5 Torsion [C]-N--CA-[C] |==|  0.22859
USER: genes 6 Torsion [N]-CA--C-[N] |==|  0.01754
USER: genes 7 Torsion [C]-N--CA-[CB] |==|  0.86619
USER: genes 8 Torsion [N]-CA--CB-[CG] |==|  0.39856
USER: genes 9 Torsion [CA]-CB--CG-[CD] |==|  0.44285
USER: genes 10 Torsion [CB]-CG--CD-[OE2] |==|  0.74533
USER: genes 11 Torsion [N]-CA--C-[OXT] |==|  0.92852
USER: genes 12 Torsion [CB]-CA--N-[C] |==|  0.45111
USER: genes 13 Torsion [N]-C--CA-[N] |==|  0.49807
USER: genes 14 Torsion [C]-CA--N-[C] |==|  0.78877
USER: genes 15 Torsion [N]-C--CA-[N] |==|  0.21282
USER: genes 16 Torsion [C]-CA--CB-[CG] |==|  0.17723
USER: genes 17 Torsion [CA]-CB--CG-[CD] |==|  0.68020
USER: genes 18 Torsion [CB]-CG--CD-[NE2] |==|  0.36961
ROOT
ATOM      1  CA  HIS G 812     -26.011  31.781  19.490  1.00 98.11 LIG 0.18  C 
ENDROOT
BRANCH 1 2
ATOM      2  CB  HIS G 812     -25.682  30.825  18.334  1.00 96.29 LIG 0.10  C 
BRANCH 2 3
ATOM      3  CG  HIS G 812     -26.788  29.886  17.940  1.00 94.00 LIG 0.06  A 
ATOM      4  CD2 HIS G 812     -27.968  29.608  18.528  1.00 93.71 LIG 0.14  A 
ATOM      5 NE2  HIS G 812     -28.514  28.527  17.866  1.00 93.19 LIG-0.25  NA
ATOM      6  CE1 HIS G 812     -27.689  28.172  16.895  1.00 92.78 LIG 0.23  A 
ATOM      7 ND1  HIS G 812     -26.645  28.975  16.913  1.00 93.58 LIG-0.24  NA
ENDBRANCH 2 3
ENDBRANCH 1 2
BRANCH 1 8
ATOM      8  C   HIS G 812     -24.682  32.129  20.151  1.00 99.25 LIG 0.24  C 
ATOM      9  N   GLY G 813     -23.955  33.093  19.600  1.00100.26 LIG-0.35  N 
ATOM     10 H    GLY G 813     -24.173  33.531  18.894  1.00100.26 LIG 0.16  HD
ATOM     11 O    HIS G 812     -24.331  31.538  21.175  1.00 99.52 LIG-0.27  OA
BRANCH 9 12
ATOM     12  CA  GLY G 813     -22.688  33.473  20.201  1.00101.48 LIG 0.23  C 
BRANCH 12 13
ATOM     13  C   GLY G 813     -21.541  32.562  19.798  1.00102.44 LIG 0.24  C 
ATOM     14 O    GLY G 813     -20.439  32.692  20.329  1.00102.98 LIG-0.27  OA
ATOM     15  N   GLU G 814     -21.790  31.637  18.873  1.00102.70 LIG-0.34  N 
ATOM     16 H    GLU G 814     -22.556  31.519  18.501  1.00102.70 LIG 0.16  HD
BRANCH 15 17
ATOM     17  CA  GLU G 814     -20.740  30.726  18.410  1.00102.89 LIG 0.19  C 
BRANCH 17 18
ATOM     18  CB  GLU G 814     -19.459  31.498  18.064  1.00101.97 LIG 0.05  C 
BRANCH 18 19
ATOM     19  CG  GLU G 814     -18.168  30.782  18.411  1.00100.63 LIG 0.12  C 
BRANCH 19 20
ATOM     20  CD  GLU G 814     -16.975  31.315  17.631  1.00100.36 LIG 0.17  C 
ATOM     21 OE1  GLU G 814     -16.330  32.274  18.109  1.00 99.71 LIG-0.65  OA
ATOM     22 OE2  GLU G 814     -16.676  30.773  16.546  1.00 99.42 LIG-0.65  OA
ENDBRANCH 19 20
ENDBRANCH 18 19
ENDBRANCH 17 18
BRANCH 17 23
ATOM     23  C   GLU G 814     -20.416  29.682  19.483  1.00103.78 LIG 0.20  C 
ATOM     24 OXT  GLU G 814     -20.636  29.964  20.683  1.00104.07 LIG-0.65  OA
ATOM     25 O    GLU G 814     -19.948  28.584  19.108  1.00104.32 LIG-0.65  OA
ENDBRANCH 17 23
ENDBRANCH 15 17
ENDBRANCH 12 13
ENDBRANCH 9 12
ENDBRANCH 1 8
BRANCH 1 26
ATOM     26  N   HIS G 812     -26.433  33.090  18.976  1.00 98.48 LIG-0.35  N 
ATOM     27  C   GLY G 811     -27.094  34.021  19.667  1.00 98.46 LIG 0.24  C 
ATOM     28 O    GLY G 811     -27.476  33.882  20.835  1.00 98.78 LIG-0.27  OA
ATOM     29 H    HIS G 812     -26.208  33.208  18.154  1.00 98.48 LIG 0.16  HD
BRANCH 27 30
ATOM     30  CA  GLY G 811     -27.365  35.305  18.899  1.00 98.06 LIG 0.23  C 
BRANCH 30 31
ATOM     31  N   GLY G 811     -28.095  36.344  19.604  1.00 97.66 LIG-0.35  N 
ATOM     32 H    GLY G 811     -27.615  37.002  19.879  1.00 97.66 LIG 0.16  HD
ATOM     33  C   GLN G 810     -29.410  36.241  19.785  1.00 97.43 LIG 0.26  C 
ATOM     34 O    GLN G 810     -30.065  35.273  19.396  1.00 97.76 LIG-0.27  OA
BRANCH 33 35
ATOM     35  CA  GLN G 810     -30.091  37.389  20.530  1.00 96.79 LIG 0.40  C 
ATOM     36  N   GLN G 810     -30.252  38.571  19.633  1.00 96.61 LIG 0.61  N 
BRANCH 35 37
ATOM     37  CB  GLN G 810     -31.453  36.914  21.030  1.00 96.38 LIG 0.06  C 
BRANCH 37 38
ATOM     38  CG  GLN G 810     -31.420  35.789  22.053  1.00 95.56 LIG 0.10  C 
BRANCH 38 39
ATOM     39  CD  GLN G 810     -32.048  34.520  21.523  1.00 95.11 LIG 0.21  C 
ATOM     40  NE2 GLN G 810     -31.362  33.399  21.717  1.00 94.31 LIG-0.37  N 
ATOM     41 21HE GLN G 810     -30.604  33.424  22.123  1.00 94.31 LIG 0.16  HD
ATOM     42 22HE GLN G 810     -31.675  32.649  21.436  1.00 94.31 LIG 0.16  HD
ATOM     43 OE1  GLN G 810     -33.138  34.542  20.948  1.00 94.65 LIG-0.27  OA
ENDBRANCH 38 39
ENDBRANCH 37 38
ENDBRANCH 35 37
ENDBRANCH 33 35
ENDBRANCH 30 31
ENDBRANCH 27 30
ENDBRANCH 1 26
TORSDOF 17
ENDMDL
MODEL 38
USER: ADFR SOLUTION from run 62
USER: SCORE 11.543679 LL:  -2.099 LR: -10.521 RR:   0.000 FEB:  -5.450
USER: RMSD 5.630561
USER: SEED 61
USER: STATUS no improvement in best in 7 clusters for 5 generations
USER: GENES 19
USER: genes 0 Translation |==|  0.38095 0.39428 0.45460
USER: genes 1 Rotation |==|  0.45973 0.48190 0.54027 0.99642
USER: genes 2 Torsion [C]-CA--CB-[CG] |==|  0.43752
USER: genes 3 Torsion [CA]-CB--CG-[CD2] |==|  0.67518
USER: genes 4 Torsion [N]-CA--C-[N] |==|  0.42194
USER: genes 5 Torsion [C]-N--CA-[C] |==|  0.33332
USER: genes 6 Torsion [N]-CA--C-[N] |==|  0.08889
USER: genes 7 Torsion [C]-N--CA-[CB] |==|  0.37286
USER: genes 8 Torsion [N]-CA--CB-[CG] |==|  0.71238
USER: genes 9 Torsion [CA]-CB--CG-[CD] |==|  0.69696
USER: genes 10 Torsion [CB]-CG--CD-[OE2] |==|  0.70030
USER: genes 11 Torsion [N]-CA--C-[OXT] |==|  0.45092
USER: genes 12 Torsion [CB]-CA--N-[C] |==|  0.50596
USER: genes 13 Torsion [N]-C--CA-[N] |==|  0.00514
USER: genes 14 Torsion [C]-CA--N-[C] |==|  0.74829
USER: genes 15 Torsion [N]-C--CA-[N] |==|  0.90145
USER: genes 16 Torsion [C]-CA--CB-[CG] |==|  0.98285
USER: genes 17 Torsion [CA]-CB--CG-[CD] |==|  0.71255
USER: genes 18 Torsion [CB]-CG--CD-[NE2] |==|  0.86682
ROOT
ATOM      1  CA  HIS G 812     -28.365  31.791  20.609  1.00 98.11 LIG 0.18  C 
ENDROOT
BRANCH 1 2
ATOM      2  CB  HIS G 812     -27.813  30.359  20.644  1.00 96.29 LIG 0.10  C 
BRANCH 2 3
ATOM      3  CG  HIS G 812     -27.967  29.578  19.368  1.00 94.00 LIG 0.06  A 
ATOM      4  CD2 HIS G 812     -28.656  28.454  19.093  1.00 93.71 LIG 0.14  A 
ATOM      5 NE2  HIS G 812     -28.295  28.050  17.824  1.00 93.19 LIG-0.25  NA
ATOM      6  CE1 HIS G 812     -27.421  28.917  17.342  1.00 92.78 LIG 0.23  A 
ATOM      7 ND1  HIS G 812     -27.208  29.850  18.248  1.00 93.58 LIG-0.24  NA
ENDBRANCH 2 3
ENDBRANCH 1 2
BRANCH 1 8
ATOM      8  C   HIS G 812     -28.635  32.183  22.059  1.00 99.25 LIG 0.24  C 
ATOM      9  N   GLY G 813     -29.852  31.961  22.539  1.00100.26 LIG-0.35  N 
ATOM     10 H    GLY G 813     -30.503  31.621  22.093  1.00100.26 LIG 0.16  HD
ATOM     11 O    HIS G 812     -27.729  32.661  22.744  1.00 99.52 LIG-0.27  OA
BRANCH 9 12
ATOM     12  CA  GLY G 813     -30.156  32.302  23.918  1.00101.48 LIG 0.23  C 
BRANCH 12 13
ATOM     13  C   GLY G 813     -31.274  33.321  24.048  1.00102.44 LIG 0.24  C 
ATOM     14 O    GLY G 813     -31.264  34.129  24.976  1.00102.98 LIG-0.27  OA
ATOM     15  N   GLU G 814     -32.233  33.299  23.123  1.00102.70 LIG-0.34  N 
ATOM     16 H    GLU G 814     -32.251  32.754  22.458  1.00102.70 LIG 0.16  HD
BRANCH 15 17
ATOM     17  CA  GLU G 814     -33.360  34.233  23.178  1.00102.89 LIG 0.19  C 
BRANCH 17 18
ATOM     18  CB  GLU G 814     -33.627  34.849  21.798  1.00101.97 LIG 0.05  C 
BRANCH 18 19
ATOM     19  CG  GLU G 814     -33.141  36.276  21.630  1.00100.63 LIG 0.12  C 
BRANCH 19 20
ATOM     20  CD  GLU G 814     -34.282  37.280  21.562  1.00100.36 LIG 0.17  C 
ATOM     21 OE1  GLU G 814     -34.914  37.538  22.610  1.00 99.71 LIG-0.65  OA
ATOM     22 OE2  GLU G 814     -34.545  37.817  20.465  1.00 99.42 LIG-0.65  OA
ENDBRANCH 19 20
ENDBRANCH 18 19
ENDBRANCH 17 18
BRANCH 17 23
ATOM     23  C   GLU G 814     -34.630  33.523  23.658  1.00103.78 LIG 0.20  C 
ATOM     24 OXT  GLU G 814     -35.584  34.215  24.080  1.00104.07 LIG-0.65  OA
ATOM     25 O    GLU G 814     -34.658  32.273  23.603  1.00104.32 LIG-0.65  OA
ENDBRANCH 17 23
ENDBRANCH 15 17
ENDBRANCH 12 13
ENDBRANCH 9 12
ENDBRANCH 1 8
BRANCH 1 26
ATOM     26  N   HIS G 812     -27.310  32.743  20.240  1.00 98.48 LIG-0.35  N 
ATOM     27  C   GLY G 811     -27.451  34.068  20.160  1.00 98.46 LIG 0.24  C 
ATOM     28 O    GLY G 811     -28.516  34.668  20.350  1.00 98.78 LIG-0.27  OA
ATOM     29 H    HIS G 812     -26.561  32.355  20.074  1.00 98.48 LIG 0.16  HD
BRANCH 27 30
ATOM     30  CA  GLY G 811     -26.179  34.819  19.799  1.00 98.06 LIG 0.23  C 
BRANCH 30 31
ATOM     31  N   GLY G 811     -24.996  34.016  19.548  1.00 97.66 LIG-0.35  N 
ATOM     32 H    GLY G 811     -24.894  33.765  18.732  1.00 97.66 LIG 0.16  HD
ATOM     33  C   GLN G 810     -24.161  33.715  20.541  1.00 97.43 LIG 0.26  C 
ATOM     34 O    GLN G 810     -24.349  34.074  21.704  1.00 97.76 LIG-0.27  OA
BRANCH 33 35
ATOM     35  CA  GLN G 810     -22.939  32.873  20.176  1.00 96.79 LIG 0.40  C 
ATOM     36  N   GLN G 810     -23.285  31.881  19.116  1.00 96.61 LIG 0.61  N 
BRANCH 35 37
ATOM     37  CB  GLN G 810     -21.828  33.801  19.690  1.00 96.38 LIG 0.06  C 
BRANCH 37 38
ATOM     38  CG  GLN G 810     -22.214  35.264  19.540  1.00 95.56 LIG 0.10  C 
BRANCH 38 39
ATOM     39  CD  GLN G 810     -22.427  35.650  18.093  1.00 95.11 LIG 0.21  C 
ATOM     40  NE2 GLN G 810     -21.481  35.272  17.240  1.00 94.31 LIG-0.37  N 
ATOM     41 21HE GLN G 810     -20.796  34.835  17.523  1.00 94.31 LIG 0.16  HD
ATOM     42 22HE GLN G 810     -21.553  35.465  16.405  1.00 94.31 LIG 0.16  HD
ATOM     43 OE1  GLN G 810     -23.427  36.277  17.742  1.00 94.65 LIG-0.27  OA
ENDBRANCH 38 39
ENDBRANCH 37 38
ENDBRANCH 35 37
ENDBRANCH 33 35
ENDBRANCH 30 31
ENDBRANCH 27 30
ENDBRANCH 1 26
TORSDOF 17
ENDMDL
MODEL 39
USER: ADFR SOLUTION from run 162
USER: SCORE 11.810107 LL:  -2.638 LR: -10.495 RR:   0.000 FEB:  -5.424
USER: RMSD 9.302928
USER: SEED 161
USER: STATUS no improvement in best in 10 clusters for 5 generations
USER: GENES 19
USER: genes 0 Translation |==|  0.45697 0.28927 0.38239
USER: genes 1 Rotation |==|  0.67068 0.87406 0.77248 0.58187
USER: genes 2 Torsion [C]-CA--CB-[CG] |==|  0.28924
USER: genes 3 Torsion [CA]-CB--CG-[CD2] |==|  0.33656
USER: genes 4 Torsion [N]-CA--C-[N] |==|  0.15692
USER: genes 5 Torsion [C]-N--CA-[C] |==|  0.61666
USER: genes 6 Torsion [N]-CA--C-[N] |==|  0.19280
USER: genes 7 Torsion [C]-N--CA-[CB] |==|  0.23908
USER: genes 8 Torsion [N]-CA--CB-[CG] |==|  0.60364
USER: genes 9 Torsion [CA]-CB--CG-[CD] |==|  0.68892
USER: genes 10 Torsion [CB]-CG--CD-[OE2] |==|  0.26217
USER: genes 11 Torsion [N]-CA--C-[OXT] |==|  0.26579
USER: genes 12 Torsion [CB]-CA--N-[C] |==|  0.13441
USER: genes 13 Torsion [N]-C--CA-[N] |==|  0.94004
USER: genes 14 Torsion [C]-CA--N-[C] |==|  0.27080
USER: genes 15 Torsion [N]-C--CA-[N] |==|  0.65316
USER: genes 16 Torsion [C]-CA--CB-[CG] |==|  0.31718
USER: genes 17 Torsion [CA]-CB--CG-[CD] |==|  0.74177
USER: genes 18 Torsion [CB]-CG--CD-[NE2] |==|  0.87917
ROOT
ATOM      1  CA  HIS G 812     -26.883  29.822  18.822  1.00 98.11 LIG 0.18  C 
ENDROOT
BRANCH 1 2
ATOM      2  CB  HIS G 812     -27.740  29.613  17.565  1.00 96.29 LIG 0.10  C 
BRANCH 2 3
ATOM      3  CG  HIS G 812     -27.495  28.328  16.825  1.00 94.00 LIG 0.06  A 
ATOM      4  CD2 HIS G 812     -28.322  27.310  16.515  1.00 93.71 LIG 0.14  A 
ATOM      5 NE2  HIS G 812     -27.546  26.288  16.008  1.00 93.19 LIG-0.25  NA
ATOM      6  CE1 HIS G 812     -26.285  26.685  16.001  1.00 92.78 LIG 0.23  A 
ATOM      7 ND1  HIS G 812     -26.225  27.910  16.482  1.00 93.58 LIG-0.24  NA
ENDBRANCH 2 3
ENDBRANCH 1 2
BRANCH 1 8
ATOM      8  C   HIS G 812     -25.809  30.837  18.445  1.00 99.25 LIG 0.24  C 
ATOM      9  N   GLY G 813     -25.034  31.302  19.417  1.00100.26 LIG-0.35  N 
ATOM     10 H    GLY G 813     -25.098  31.081  20.246  1.00100.26 LIG 0.16  HD
ATOM     11 O    HIS G 812     -25.669  31.174  17.268  1.00 99.52 LIG-0.27  OA
BRANCH 9 12
ATOM     12  CA  GLY G 813     -23.986  32.259  19.108  1.00101.48 LIG 0.23  C 
BRANCH 12 13
ATOM     13  C   GLY G 813     -22.686  31.977  19.842  1.00102.44 LIG 0.24  C 
ATOM     14 O    GLY G 813     -22.310  32.733  20.736  1.00102.98 LIG-0.27  OA
ATOM     15  N   GLU G 814     -22.001  30.894  19.480  1.00102.70 LIG-0.34  N 
ATOM     16 H    GLU G 814     -22.254  30.344  18.868  1.00102.70 LIG 0.16  HD
BRANCH 15 17
ATOM     17  CA  GLU G 814     -20.728  30.553  20.119  1.00102.89 LIG 0.19  C 
BRANCH 17 18
ATOM     18  CB  GLU G 814     -20.959  29.734  21.396  1.00101.97 LIG 0.05  C 
BRANCH 18 19
ATOM     19  CG  GLU G 814     -20.010  30.048  22.537  1.00100.63 LIG 0.12  C 
BRANCH 19 20
ATOM     20  CD  GLU G 814     -19.061  28.898  22.842  1.00100.36 LIG 0.17  C 
ATOM     21 OE1  GLU G 814     -19.450  27.991  23.610  1.00 99.71 LIG-0.65  OA
ATOM     22 OE2  GLU G 814     -17.930  28.896  22.312  1.00 99.42 LIG-0.65  OA
ENDBRANCH 19 20
ENDBRANCH 18 19
ENDBRANCH 17 18
BRANCH 17 23
ATOM     23  C   GLU G 814     -19.842  29.746  19.165  1.00103.78 LIG 0.20  C 
ATOM     24 OXT  GLU G 814     -18.978  30.351  18.489  1.00104.07 LIG-0.65  OA
ATOM     25 O    GLU G 814     -20.018  28.508  19.108  1.00104.32 LIG-0.65  OA
ENDBRANCH 17 23
ENDBRANCH 15 17
ENDBRANCH 12 13
ENDBRANCH 9 12
ENDBRANCH 1 8
BRANCH 1 26
ATOM     26  N   HIS G 812     -27.636  30.559  19.845  1.00 98.48 LIG-0.35  N 
ATOM     27  C   GLY G 811     -28.877  30.281  20.249  1.00 98.46 LIG 0.24  C 
ATOM     28 O    GLY G 811     -29.578  29.377  19.777  1.00 98.78 LIG-0.27  OA
ATOM     29 H    HIS G 812     -27.187  31.214  20.175  1.00 98.48 LIG 0.16  HD
BRANCH 27 30
ATOM     30  CA  GLY G 811     -29.399  31.181  21.358  1.00 98.06 LIG 0.23  C 
BRANCH 30 31
ATOM     31  N   GLY G 811     -28.404  31.870  22.161  1.00 97.66 LIG-0.35  N 
ATOM     32 H    GLY G 811     -28.066  31.403  22.799  1.00 97.66 LIG 0.16  HD
ATOM     33  C   GLN G 810     -28.074  33.132  21.891  1.00 97.43 LIG 0.26  C 
ATOM     34 O    GLN G 810     -28.594  33.779  20.981  1.00 97.76 LIG-0.27  OA
BRANCH 33 35
ATOM     35  CA  GLN G 810     -27.010  33.767  22.786  1.00 96.79 LIG 0.40  C 
ATOM     36  N   GLN G 810     -27.523  35.032  23.390  1.00 96.61 LIG 0.61  N 
BRANCH 35 37
ATOM     37  CB  GLN G 810     -26.630  32.774  23.881  1.00 96.38 LIG 0.06  C 
BRANCH 37 38
ATOM     38  CG  GLN G 810     -25.202  32.252  23.825  1.00 95.56 LIG 0.10  C 
BRANCH 38 39
ATOM     39  CD  GLN G 810     -25.100  30.959  23.048  1.00 95.11 LIG 0.21  C 
ATOM     40  NE2 GLN G 810     -26.040  30.052  23.292  1.00 94.31 LIG-0.37  N 
ATOM     41 21HE GLN G 810     -26.660  30.218  23.865  1.00 94.31 LIG 0.16  HD
ATOM     42 22HE GLN G 810     -26.030  29.299  22.876  1.00 94.31 LIG 0.16  HD
ATOM     43 OE1  GLN G 810     -24.191  30.773  22.238  1.00 94.65 LIG-0.27  OA
ENDBRANCH 38 39
ENDBRANCH 37 38
ENDBRANCH 35 37
ENDBRANCH 33 35
ENDBRANCH 30 31
ENDBRANCH 27 30
ENDBRANCH 1 26
TORSDOF 17
ENDMDL
MODEL 40
USER: ADFR SOLUTION from run 140
USER: SCORE 12.020353 LL:  -2.288 LR: -10.496 RR:   0.000 FEB:  -5.425
USER: RMSD 11.070838
USER: SEED 139
USER: STATUS no improvement in best in 13 clusters for 5 generations
USER: GENES 19
USER: genes 0 Translation |==|  0.58195 0.42244 0.40154
USER: genes 1 Rotation |==|  0.38026 0.68042 0.09677 0.70129
USER: genes 2 Torsion [C]-CA--CB-[CG] |==|  0.42641
USER: genes 3 Torsion [CA]-CB--CG-[CD2] |==|  0.86992
USER: genes 4 Torsion [N]-CA--C-[N] |==|  0.14443
USER: genes 5 Torsion [C]-N--CA-[C] |==|  0.68648
USER: genes 6 Torsion [N]-CA--C-[N] |==|  0.89513
USER: genes 7 Torsion [C]-N--CA-[CB] |==|  0.87261
USER: genes 8 Torsion [N]-CA--CB-[CG] |==|  0.79304
USER: genes 9 Torsion [CA]-CB--CG-[CD] |==|  0.24683
USER: genes 10 Torsion [CB]-CG--CD-[OE2] |==|  0.18175
USER: genes 11 Torsion [N]-CA--C-[OXT] |==|  0.36804
USER: genes 12 Torsion [CB]-CA--N-[C] |==|  0.15088
USER: genes 13 Torsion [N]-C--CA-[N] |==|  0.38571
USER: genes 14 Torsion [C]-CA--N-[C] |==|  0.82989
USER: genes 15 Torsion [N]-C--CA-[N] |==|  0.68140
USER: genes 16 Torsion [C]-CA--CB-[CG] |==|  0.43458
USER: genes 17 Torsion [CA]-CB--CG-[CD] |==|  0.18492
USER: genes 18 Torsion [CB]-CG--CD-[NE2] |==|  0.63222
ROOT
ATOM      1  CA  HIS G 812     -24.446  32.319  19.296  1.00 98.11 LIG 0.18  C 
ENDROOT
BRANCH 1 2
ATOM      2  CB  HIS G 812     -25.485  32.774  20.331  1.00 96.29 LIG 0.10  C 
BRANCH 2 3
ATOM      3  CG  HIS G 812     -26.398  33.881  19.883  1.00 94.00 LIG 0.06  A 
ATOM      4  CD2 HIS G 812     -26.140  35.049  19.264  1.00 93.71 LIG 0.14  A 
ATOM      5 NE2  HIS G 812     -27.307  35.784  19.266  1.00 93.19 LIG-0.25  NA
ATOM      6  CE1 HIS G 812     -28.249  35.070  19.860  1.00 92.78 LIG 0.23  A 
ATOM      7 ND1  HIS G 812     -27.732  33.919  20.237  1.00 93.58 LIG-0.24  NA
ENDBRANCH 2 3
ENDBRANCH 1 2
BRANCH 1 8
ATOM      8  C   HIS G 812     -23.272  31.750  20.087  1.00 99.25 LIG 0.24  C 
ATOM      9  N   GLY G 813     -22.354  31.065  19.416  1.00100.26 LIG-0.35  N 
ATOM     10 H    GLY G 813     -22.375  30.910  18.571  1.00100.26 LIG 0.16  HD
ATOM     11 O    HIS G 812     -23.190  31.957  21.299  1.00 99.52 LIG-0.27  OA
BRANCH 9 12
ATOM     12  CA  GLY G 813     -21.209  30.515  20.121  1.00101.48 LIG 0.23  C 
BRANCH 12 13
ATOM     13  C   GLY G 813     -19.897  31.171  19.729  1.00102.44 LIG 0.24  C 
ATOM     14 O    GLY G 813     -19.031  31.369  20.581  1.00102.98 LIG-0.27  OA
ATOM     15  N   GLU G 814     -19.736  31.503  18.449  1.00102.70 LIG-0.34  N 
ATOM     16 H    GLU G 814     -20.321  31.360  17.836  1.00102.70 LIG 0.16  HD
BRANCH 15 17
ATOM     17  CA  GLU G 814     -18.511  32.156  17.983  1.00102.89 LIG 0.19  C 
BRANCH 17 18
ATOM     18  CB  GLU G 814     -18.108  33.300  18.924  1.00101.97 LIG 0.05  C 
BRANCH 18 19
ATOM     19  CG  GLU G 814     -18.956  34.551  18.809  1.00100.63 LIG 0.12  C 
BRANCH 19 20
ATOM     20  CD  GLU G 814     -20.170  34.523  19.726  1.00100.36 LIG 0.17  C 
ATOM     21 OE1  GLU G 814     -21.308  34.487  19.208  1.00 99.71 LIG-0.65  OA
ATOM     22 OE2  GLU G 814     -19.991  34.529  20.962  1.00 99.42 LIG-0.65  OA
ENDBRANCH 19 20
ENDBRANCH 18 19
ENDBRANCH 17 18
BRANCH 17 23
ATOM     23  C   GLU G 814     -17.358  31.151  17.900  1.00103.78 LIG 0.20  C 
ATOM     24 OXT  GLU G 814     -16.654  31.125  16.865  1.00104.07 LIG-0.65  OA
ATOM     25 O    GLU G 814     -17.166  30.398  18.881  1.00104.32 LIG-0.65  OA
ENDBRANCH 17 23
ENDBRANCH 15 17
ENDBRANCH 12 13
ENDBRANCH 9 12
ENDBRANCH 1 8
BRANCH 1 26
ATOM     26  N   HIS G 812     -24.919  31.129  18.577  1.00 98.48 LIG-0.35  N 
ATOM     27  C   GLY G 811     -26.081  31.022  17.930  1.00 98.46 LIG 0.24  C 
ATOM     28 O    GLY G 811     -26.939  31.911  17.887  1.00 98.78 LIG-0.27  OA
ATOM     29 H    HIS G 812     -24.356  30.479  18.611  1.00 98.48 LIG 0.16  HD
BRANCH 27 30
ATOM     30  CA  GLY G 811     -26.297  29.688  17.233  1.00 98.06 LIG 0.23  C 
BRANCH 30 31
ATOM     31  N   GLY G 811     -27.627  29.112  17.325  1.00 97.66 LIG-0.35  N 
ATOM     32 H    GLY G 811     -28.028  29.002  16.572  1.00 97.66 LIG 0.16  HD
ATOM     33  C   GLN G 810     -28.144  28.793  18.510  1.00 97.43 LIG 0.26  C 
ATOM     34 O    GLN G 810     -27.550  28.983  19.571  1.00 97.76 LIG-0.27  OA
BRANCH 33 35
ATOM     35  CA  GLN G 810     -29.546  28.184  18.503  1.00 96.79 LIG 0.40  C 
ATOM     36  N   GLN G 810     -30.517  29.097  19.174  1.00 96.61 LIG 0.61  N 
BRANCH 35 37
ATOM     37  CB  GLN G 810     -29.968  27.933  17.057  1.00 96.38 LIG 0.06  C 
BRANCH 37 38
ATOM     38  CG  GLN G 810     -31.031  26.864  16.860  1.00 95.56 LIG 0.10  C 
BRANCH 38 39
ATOM     39  CD  GLN G 810     -32.362  27.271  17.450  1.00 95.11 LIG 0.21  C 
ATOM     40  NE2 GLN G 810     -32.971  26.364  18.207  1.00 94.31 LIG-0.37  N 
ATOM     41 21HE GLN G 810     -32.606  25.596  18.335  1.00 94.31 LIG 0.16  HD
ATOM     42 22HE GLN G 810     -33.731  26.545  18.568  1.00 94.31 LIG 0.16  HD
ATOM     43 OE1  GLN G 810     -32.840  28.386  17.234  1.00 94.65 LIG-0.27  OA
ENDBRANCH 38 39
ENDBRANCH 37 38
ENDBRANCH 35 37
ENDBRANCH 33 35
ENDBRANCH 30 31
ENDBRANCH 27 30
ENDBRANCH 1 26
TORSDOF 17
ENDMDL
MODEL 41
USER: ADFR SOLUTION from run 2
USER: SCORE 12.186410 LL:  -2.512 LR: -10.490 RR:   0.000 FEB:  -5.419
USER: RMSD 7.074212
USER: SEED 102184
USER: STATUS no improvement in best in 22 clusters for 5 generations
USER: GENES 19
USER: genes 0 Translation |==|  0.37968 0.32293 0.41556
USER: genes 1 Rotation |==|  0.47413 0.40874 0.45675 0.98901
USER: genes 2 Torsion [C]-CA--CB-[CG] |==|  0.34385
USER: genes 3 Torsion [CA]-CB--CG-[CD2] |==|  0.29492
USER: genes 4 Torsion [N]-CA--C-[N] |==|  0.09532
USER: genes 5 Torsion [C]-N--CA-[C] |==|  0.70721
USER: genes 6 Torsion [N]-CA--C-[N] |==|  0.14259
USER: genes 7 Torsion [C]-N--CA-[CB] |==|  0.87191
USER: genes 8 Torsion [N]-CA--CB-[CG] |==|  0.63235
USER: genes 9 Torsion [CA]-CB--CG-[CD] |==|  0.27411
USER: genes 10 Torsion [CB]-CG--CD-[OE2] |==|  0.88846
USER: genes 11 Torsion [N]-CA--C-[OXT] |==|  0.03066
USER: genes 12 Torsion [CB]-CA--N-[C] |==|  0.18237
USER: genes 13 Torsion [N]-C--CA-[N] |==|  0.97912
USER: genes 14 Torsion [C]-CA--N-[C] |==|  0.30541
USER: genes 15 Torsion [N]-C--CA-[N] |==|  0.95814
USER: genes 16 Torsion [C]-CA--CB-[CG] |==|  0.97541
USER: genes 17 Torsion [CA]-CB--CG-[CD] |==|  0.29501
USER: genes 18 Torsion [CB]-CG--CD-[NE2] |==|  0.31922
ROOT
ATOM      1  CA  HIS G 812     -28.390  30.453  19.643  1.00 98.11 LIG 0.18  C 
ENDROOT
BRANCH 1 2
ATOM      2  CB  HIS G 812     -28.306  28.920  19.643  1.00 96.29 LIG 0.10  C 
BRANCH 2 3
ATOM      3  CG  HIS G 812     -29.012  28.236  18.505  1.00 94.00 LIG 0.06  A 
ATOM      4  CD2 HIS G 812     -28.535  27.626  17.402  1.00 93.71 LIG 0.14  A 
ATOM      5 NE2  HIS G 812     -29.612  27.348  16.587  1.00 93.19 LIG-0.25  NA
ATOM      6  CE1 HIS G 812     -30.712  27.768  17.189  1.00 92.78 LIG 0.23  A 
ATOM      7 ND1  HIS G 812     -30.382  28.302  18.347  1.00 93.58 LIG-0.24  NA
ENDBRANCH 2 3
ENDBRANCH 1 2
BRANCH 1 8
ATOM      8  C   HIS G 812     -28.987  30.850  20.989  1.00 99.25 LIG 0.24  C 
ATOM      9  N   GLY G 813     -28.630  32.022  21.498  1.00100.26 LIG-0.35  N 
ATOM     10 H    GLY G 813     -28.080  32.572  21.131  1.00100.26 LIG 0.16  HD
ATOM     11 O    HIS G 812     -29.791  30.102  21.550  1.00 99.52 LIG-0.27  OA
BRANCH 9 12
ATOM     12  CA  GLY G 813     -29.181  32.454  22.771  1.00101.48 LIG 0.23  C 
BRANCH 12 13
ATOM     13  C   GLY G 813     -30.236  33.537  22.627  1.00102.44 LIG 0.24  C 
ATOM     14 O    GLY G 813     -30.144  34.574  23.283  1.00102.98 LIG-0.27  OA
ATOM     15  N   GLU G 814     -31.231  33.314  21.770  1.00102.70 LIG-0.34  N 
ATOM     16 H    GLU G 814     -31.305  32.604  21.291  1.00102.70 LIG 0.16  HD
BRANCH 15 17
ATOM     17  CA  GLU G 814     -32.302  34.294  21.579  1.00102.89 LIG 0.19  C 
BRANCH 17 18
ATOM     18  CB  GLU G 814     -32.821  34.808  22.929  1.00101.97 LIG 0.05  C 
BRANCH 18 19
ATOM     19  CG  GLU G 814     -34.331  34.819  23.070  1.00100.63 LIG 0.12  C 
BRANCH 19 20
ATOM     20  CD  GLU G 814     -34.858  33.609  23.828  1.00100.36 LIG 0.17  C 
ATOM     21 OE1  GLU G 814     -35.794  33.776  24.641  1.00 99.71 LIG-0.65  OA
ATOM     22 OE2  GLU G 814     -34.344  32.492  23.608  1.00 99.42 LIG-0.65  OA
ENDBRANCH 19 20
ENDBRANCH 18 19
ENDBRANCH 17 18
BRANCH 17 23
ATOM     23  C   GLU G 814     -31.806  35.484  20.751  1.00103.78 LIG 0.20  C 
ATOM     24 OXT  GLU G 814     -30.695  35.399  20.180  1.00104.07 LIG-0.65  OA
ATOM     25 O    GLU G 814     -32.542  36.493  20.679  1.00104.32 LIG-0.65  OA
ENDBRANCH 17 23
ENDBRANCH 15 17
ENDBRANCH 12 13
ENDBRANCH 9 12
ENDBRANCH 1 8
BRANCH 1 26
ATOM     26  N   HIS G 812     -27.049  31.045  19.732  1.00 98.48 LIG-0.35  N 
ATOM     27  C   GLY G 811     -26.096  30.953  18.802  1.00 98.46 LIG 0.24  C 
ATOM     28 O    GLY G 811     -26.207  30.313  17.750  1.00 98.78 LIG-0.27  OA
ATOM     29 H    HIS G 812     -26.928  31.475  20.466  1.00 98.48 LIG 0.16  HD
BRANCH 27 30
ATOM     30  CA  GLY G 811     -24.814  31.701  19.134  1.00 98.06 LIG 0.23  C 
BRANCH 30 31
ATOM     31  N   GLY G 811     -24.840  32.549  20.313  1.00 97.66 LIG-0.35  N 
ATOM     32 H    GLY G 811     -25.323  33.256  20.241  1.00 97.66 LIG 0.16  HD
ATOM     33  C   GLN G 810     -24.151  32.212  21.402  1.00 97.43 LIG 0.26  C 
ATOM     34 O    GLN G 810     -23.451  31.200  21.464  1.00 97.76 LIG-0.27  OA
BRANCH 33 35
ATOM     35  CA  GLN G 810     -24.249  33.162  22.595  1.00 96.79 LIG 0.40  C 
ATOM     36  N   GLN G 810     -24.821  34.474  22.173  1.00 96.61 LIG 0.61  N 
BRANCH 35 37
ATOM     37  CB  GLN G 810     -25.129  32.521  23.665  1.00 96.38 LIG 0.06  C 
BRANCH 37 38
ATOM     38  CG  GLN G 810     -25.851  31.250  23.244  1.00 95.56 LIG 0.10  C 
BRANCH 38 39
ATOM     39  CD  GLN G 810     -25.235  30.015  23.863  1.00 95.11 LIG 0.21  C 
ATOM     40  NE2 GLN G 810     -25.998  29.345  24.719  1.00 94.31 LIG-0.37  N 
ATOM     41 21HE GLN G 810     -26.793  29.621  24.895  1.00 94.31 LIG 0.16  HD
ATOM     42 22HE GLN G 810     -25.697  28.634  25.099  1.00 94.31 LIG 0.16  HD
ATOM     43 OE1  GLN G 810     -24.090  29.664  23.576  1.00 94.65 LIG-0.27  OA
ENDBRANCH 38 39
ENDBRANCH 37 38
ENDBRANCH 35 37
ENDBRANCH 33 35
ENDBRANCH 30 31
ENDBRANCH 27 30
ENDBRANCH 1 26
TORSDOF 17
ENDMDL
MODEL 42
USER: ADFR SOLUTION from run 169
USER: SCORE 11.823650 LL:  -2.828 LR: -10.460 RR:   0.000 FEB:  -5.389
USER: RMSD 9.305983
USER: SEED 168
USER: STATUS no improvement in best in 17 clusters for 5 generations
USER: GENES 19
USER: genes 0 Translation |==|  0.54849 0.38002 0.42184
USER: genes 1 Rotation |==|  0.74373 0.81670 0.79874 0.53244
USER: genes 2 Torsion [C]-CA--CB-[CG] |==|  0.41989
USER: genes 3 Torsion [CA]-CB--CG-[CD2] |==|  0.17830
USER: genes 4 Torsion [N]-CA--C-[N] |==|  0.40365
USER: genes 5 Torsion [C]-N--CA-[C] |==|  0.31317
USER: genes 6 Torsion [N]-CA--C-[N] |==|  0.33480
USER: genes 7 Torsion [C]-N--CA-[CB] |==|  0.17699
USER: genes 8 Torsion [N]-CA--CB-[CG] |==|  0.62569
USER: genes 9 Torsion [CA]-CB--CG-[CD] |==|  0.44642
USER: genes 10 Torsion [CB]-CG--CD-[OE2] |==|  0.83434
USER: genes 11 Torsion [N]-CA--C-[OXT] |==|  0.64632
USER: genes 12 Torsion [CB]-CA--N-[C] |==|  0.47239
USER: genes 13 Torsion [N]-C--CA-[N] |==|  0.90397
USER: genes 14 Torsion [C]-CA--N-[C] |==|  0.84009
USER: genes 15 Torsion [N]-C--CA-[N] |==|  0.47027
USER: genes 16 Torsion [C]-CA--CB-[CG] |==|  0.83711
USER: genes 17 Torsion [CA]-CB--CG-[CD] |==|  0.44286
USER: genes 18 Torsion [CB]-CG--CD-[NE2] |==|  0.49062
ROOT
ATOM      1  CA  HIS G 812     -25.098  31.523  19.798  1.00 98.11 LIG 0.18  C 
ENDROOT
BRANCH 1 2
ATOM      2  CB  HIS G 812     -26.215  31.857  18.799  1.00 96.29 LIG 0.10  C 
BRANCH 2 3
ATOM      3  CG  HIS G 812     -27.134  30.717  18.455  1.00 94.00 LIG 0.06  A 
ATOM      4  CD2 HIS G 812     -27.997  30.014  19.213  1.00 93.71 LIG 0.14  A 
ATOM      5 NE2  HIS G 812     -28.438  28.949  18.455  1.00 93.19 LIG-0.25  NA
ATOM      6  CE1 HIS G 812     -27.864  29.017  17.266  1.00 92.78 LIG 0.23  A 
ATOM      7 ND1  HIS G 812     -27.078  30.073  17.236  1.00 93.58 LIG-0.24  NA
ENDBRANCH 2 3
ENDBRANCH 1 2
BRANCH 1 8
ATOM      8  C   HIS G 812     -23.937  32.456  19.472  1.00 99.25 LIG 0.24  C 
ATOM      9  N   GLY G 813     -22.945  31.968  18.737  1.00100.26 LIG-0.35  N 
ATOM     10 H    GLY G 813     -22.903  31.164  18.439  1.00100.26 LIG 0.16  HD
ATOM     11 O    HIS G 812     -23.957  33.624  19.866  1.00 99.52 LIG-0.27  OA
BRANCH 9 12
ATOM     12  CA  GLY G 813     -21.822  32.820  18.386  1.00101.48 LIG 0.23  C 
BRANCH 12 13
ATOM     13  C   GLY G 813     -20.521  32.395  19.044  1.00102.44 LIG 0.24  C 
ATOM     14 O    GLY G 813     -20.441  32.346  20.270  1.00102.98 LIG-0.27  OA
ATOM     15  N   GLU G 814     -19.505  32.078  18.243  1.00102.70 LIG-0.34  N 
ATOM     16 H    GLU G 814     -19.545  32.090  17.383  1.00102.70 LIG 0.16  HD
BRANCH 15 17
ATOM     17  CA  GLU G 814     -18.207  31.673  18.788  1.00102.89 LIG 0.19  C 
BRANCH 17 18
ATOM     18  CB  GLU G 814     -18.331  30.365  19.580  1.00101.97 LIG 0.05  C 
BRANCH 18 19
ATOM     19  CG  GLU G 814     -17.616  30.358  20.918  1.00100.63 LIG 0.12  C 
BRANCH 19 20
ATOM     20  CD  GLU G 814     -18.132  29.273  21.853  1.00100.36 LIG 0.17  C 
ATOM     21 OE1  GLU G 814     -17.326  28.410  22.266  1.00 99.71 LIG-0.65  OA
ATOM     22 OE2  GLU G 814     -19.337  29.284  22.180  1.00 99.42 LIG-0.65  OA
ENDBRANCH 19 20
ENDBRANCH 18 19
ENDBRANCH 17 18
BRANCH 17 23
ATOM     23  C   GLU G 814     -17.184  31.478  17.664  1.00103.78 LIG 0.20  C 
ATOM     24 OXT  GLU G 814     -16.553  30.398  17.605  1.00104.07 LIG-0.65  OA
ATOM     25 O    GLU G 814     -17.028  32.412  16.846  1.00104.32 LIG-0.65  OA
ENDBRANCH 17 23
ENDBRANCH 15 17
ENDBRANCH 12 13
ENDBRANCH 9 12
ENDBRANCH 1 8
BRANCH 1 26
ATOM     26  N   HIS G 812     -25.462  31.972  21.149  1.00 98.48 LIG-0.35  N 
ATOM     27  C   GLY G 811     -24.805  31.672  22.271  1.00 98.46 LIG 0.24  C 
ATOM     28 O    GLY G 811     -23.814  30.934  22.323  1.00 98.78 LIG-0.27  OA
ATOM     29 H    HIS G 812     -26.167  32.465  21.153  1.00 98.48 LIG 0.16  HD
BRANCH 27 30
ATOM     30  CA  GLY G 811     -25.377  32.309  23.528  1.00 98.06 LIG 0.23  C 
BRANCH 30 31
ATOM     31  N   GLY G 811     -25.949  33.636  23.385  1.00 97.66 LIG-0.35  N 
ATOM     32 H    GLY G 811     -26.772  33.704  23.625  1.00 97.66 LIG 0.16  HD
ATOM     33  C   GLN G 810     -25.214  34.640  22.912  1.00 97.43 LIG 0.26  C 
ATOM     34 O    GLN G 810     -24.043  34.502  22.557  1.00 97.76 LIG-0.27  OA
BRANCH 33 35
ATOM     35  CA  GLN G 810     -25.902  36.001  22.807  1.00 96.79 LIG 0.40  C 
ATOM     36  N   GLN G 810     -24.903  37.071  22.514  1.00 96.61 LIG 0.61  N 
BRANCH 35 37
ATOM     37  CB  GLN G 810     -26.952  35.939  21.700  1.00 96.38 LIG 0.06  C 
BRANCH 37 38
ATOM     38  CG  GLN G 810     -26.428  35.576  20.319  1.00 95.56 LIG 0.10  C 
BRANCH 38 39
ATOM     39  CD  GLN G 810     -27.522  35.054  19.416  1.00 95.11 LIG 0.21  C 
ATOM     40  NE2 GLN G 810     -27.169  34.777  18.165  1.00 94.31 LIG-0.37  N 
ATOM     41 21HE GLN G 810     -26.357  34.899  17.911  1.00 94.31 LIG 0.16  HD
ATOM     42 22HE GLN G 810     -27.753  34.476  17.610  1.00 94.31 LIG 0.16  HD
ATOM     43 OE1  GLN G 810     -28.671  34.898  19.833  1.00 94.65 LIG-0.27  OA
ENDBRANCH 38 39
ENDBRANCH 37 38
ENDBRANCH 35 37
ENDBRANCH 33 35
ENDBRANCH 30 31
ENDBRANCH 27 30
ENDBRANCH 1 26
TORSDOF 17
ENDMDL
MODEL 43
USER: ADFR SOLUTION from run 37
USER: SCORE 11.327324 LL:  -1.895 LR: -10.459 RR:   0.000 FEB:  -5.388
USER: RMSD 5.353703
USER: SEED 36
USER: STATUS no improvement in best in 14 clusters for 5 generations
USER: GENES 19
USER: genes 0 Translation |==|  0.42336 0.44069 0.40905
USER: genes 1 Rotation |==|  0.45689 0.48421 0.64851 0.97522
USER: genes 2 Torsion [C]-CA--CB-[CG] |==|  0.35337
USER: genes 3 Torsion [CA]-CB--CG-[CD2] |==|  0.30870
USER: genes 4 Torsion [N]-CA--C-[N] |==|  0.38355
USER: genes 5 Torsion [C]-N--CA-[C] |==|  0.28697
USER: genes 6 Torsion [N]-CA--C-[N] |==|  0.25594
USER: genes 7 Torsion [C]-N--CA-[CB] |==|  0.21896
USER: genes 8 Torsion [N]-CA--CB-[CG] |==|  0.68054
USER: genes 9 Torsion [CA]-CB--CG-[CD] |==|  0.69721
USER: genes 10 Torsion [CB]-CG--CD-[OE2] |==|  0.28883
USER: genes 11 Torsion [N]-CA--C-[OXT] |==|  0.97863
USER: genes 12 Torsion [CB]-CA--N-[C] |==|  0.53474
USER: genes 13 Torsion [N]-C--CA-[N] |==|  0.99699
USER: genes 14 Torsion [C]-CA--N-[C] |==|  0.71112
USER: genes 15 Torsion [N]-C--CA-[N] |==|  0.77623
USER: genes 16 Torsion [C]-CA--CB-[CG] |==|  0.34128
USER: genes 17 Torsion [CA]-CB--CG-[CD] |==|  0.26943
USER: genes 18 Torsion [CB]-CG--CD-[NE2] |==|  0.80590
ROOT
ATOM      1  CA  HIS G 812     -27.538  32.661  19.482  1.00 98.11 LIG 0.18  C 
ENDROOT
BRANCH 1 2
ATOM      2  CB  HIS G 812     -26.429  31.601  19.527  1.00 96.29 LIG 0.10  C 
BRANCH 2 3
ATOM      3  CG  HIS G 812     -26.679  30.371  18.700  1.00 94.00 LIG 0.06  A 
ATOM      4  CD2 HIS G 812     -26.084  29.918  17.579  1.00 93.71 LIG 0.14  A 
ATOM      5 NE2  HIS G 812     -26.829  28.852  17.118  1.00 93.19 LIG-0.25  NA
ATOM      6  CE1 HIS G 812     -27.840  28.660  17.948  1.00 92.78 LIG 0.23  A 
ATOM      7 ND1  HIS G 812     -27.773  29.555  18.912  1.00 93.58 LIG-0.24  NA
ENDBRANCH 2 3
ENDBRANCH 1 2
BRANCH 1 8
ATOM      8  C   HIS G 812     -27.903  32.962  20.932  1.00 99.25 LIG 0.24  C 
ATOM      9  N   GLY G 813     -29.054  32.483  21.389  1.00100.26 LIG-0.35  N 
ATOM     10 H    GLY G 813     -29.613  32.023  20.927  1.00100.26 LIG 0.16  HD
ATOM     11 O    HIS G 812     -27.126  33.607  21.640  1.00 99.52 LIG-0.27  OA
BRANCH 9 12
ATOM     12  CA  GLY G 813     -29.440  32.730  22.767  1.00101.48 LIG 0.23  C 
BRANCH 12 13
ATOM     13  C   GLY G 813     -30.498  33.810  22.906  1.00102.44 LIG 0.24  C 
ATOM     14 O    GLY G 813     -30.163  34.990  22.997  1.00102.98 LIG-0.27  OA
ATOM     15  N   GLU G 814     -31.773  33.422  22.914  1.00102.70 LIG-0.34  N 
ATOM     16 H    GLU G 814     -32.029  32.605  22.836  1.00102.70 LIG 0.16  HD
BRANCH 15 17
ATOM     17  CA  GLU G 814     -32.860  34.392  23.061  1.00102.89 LIG 0.19  C 
BRANCH 17 18
ATOM     18  CB  GLU G 814     -33.136  35.111  21.734  1.00101.97 LIG 0.05  C 
BRANCH 18 19
ATOM     19  CG  GLU G 814     -32.846  36.599  21.741  1.00100.63 LIG 0.12  C 
BRANCH 19 20
ATOM     20  CD  GLU G 814     -34.111  37.444  21.695  1.00100.36 LIG 0.17  C 
ATOM     21 OE1  GLU G 814     -34.721  37.546  20.608  1.00 99.71 LIG-0.65  OA
ATOM     22 OE2  GLU G 814     -34.500  38.000  22.744  1.00 99.42 LIG-0.65  OA
ENDBRANCH 19 20
ENDBRANCH 18 19
ENDBRANCH 17 18
BRANCH 17 23
ATOM     23  C   GLU G 814     -34.145  33.700  23.527  1.00103.78 LIG 0.20  C 
ATOM     24 OXT  GLU G 814     -34.169  32.448  23.579  1.00104.07 LIG-0.65  OA
ATOM     25 O    GLU G 814     -35.117  34.421  23.843  1.00104.32 LIG-0.65  OA
ENDBRANCH 17 23
ENDBRANCH 15 17
ENDBRANCH 12 13
ENDBRANCH 9 12
ENDBRANCH 1 8
BRANCH 1 26
ATOM     26  N   HIS G 812     -27.001  33.954  19.041  1.00 98.48 LIG-0.35  N 
ATOM     27  C   GLY G 811     -27.635  35.127  19.117  1.00 98.46 LIG 0.24  C 
ATOM     28 O    GLY G 811     -28.789  35.269  19.537  1.00 98.78 LIG-0.27  OA
ATOM     29 H    HIS G 812     -26.208  33.887  18.715  1.00 98.48 LIG 0.16  HD
BRANCH 27 30
ATOM     30  CA  GLY G 811     -26.825  36.317  18.627  1.00 98.06 LIG 0.23  C 
BRANCH 30 31
ATOM     31  N   GLY G 811     -25.475  36.042  18.167  1.00 97.66 LIG-0.35  N 
ATOM     32 H    GLY G 811     -25.423  35.680  17.389  1.00 97.66 LIG 0.16  HD
ATOM     33  C   GLN G 810     -24.427  36.347  18.931  1.00 97.43 LIG 0.26  C 
ATOM     34 O    GLN G 810     -24.538  36.847  20.050  1.00 97.76 LIG-0.27  OA
BRANCH 33 35
ATOM     35  CA  GLN G 810     -23.047  36.029  18.356  1.00 96.79 LIG 0.40  C 
ATOM     36  N   GLN G 810     -22.724  34.584  18.540  1.00 96.61 LIG 0.61  N 
BRANCH 35 37
ATOM     37  CB  GLN G 810     -23.035  36.389  16.872  1.00 96.38 LIG 0.06  C 
BRANCH 37 38
ATOM     38  CG  GLN G 810     -21.967  37.385  16.448  1.00 95.56 LIG 0.10  C 
BRANCH 38 39
ATOM     39  CD  GLN G 810     -20.744  36.700  15.880  1.00 95.11 LIG 0.21  C 
ATOM     40  NE2 GLN G 810     -19.997  36.023  16.745  1.00 94.31 LIG-0.37  N 
ATOM     41 21HE GLN G 810     -20.218  35.995  17.576  1.00 94.31 LIG 0.16  HD
ATOM     42 22HE GLN G 810     -19.290  35.613  16.475  1.00 94.31 LIG 0.16  HD
ATOM     43 OE1  GLN G 810     -20.473  36.773  14.681  1.00 94.65 LIG-0.27  OA
ENDBRANCH 38 39
ENDBRANCH 37 38
ENDBRANCH 35 37
ENDBRANCH 33 35
ENDBRANCH 30 31
ENDBRANCH 27 30
ENDBRANCH 1 26
TORSDOF 17
ENDMDL
MODEL 44
USER: ADFR SOLUTION from run 57
USER: SCORE 11.269329 LL:  -2.220 LR: -10.427 RR:   0.000 FEB:  -5.356
USER: RMSD 9.214678
USER: SEED 56
USER: STATUS no improvement in best in 29 clusters for 5 generations
USER: GENES 19
USER: genes 0 Translation |==|  0.54021 0.40100 0.50260
USER: genes 1 Rotation |==|  0.46355 0.55113 0.00432 0.51903
USER: genes 2 Torsion [C]-CA--CB-[CG] |==|  0.67817
USER: genes 3 Torsion [CA]-CB--CG-[CD2] |==|  0.67052
USER: genes 4 Torsion [N]-CA--C-[N] |==|  0.12526
USER: genes 5 Torsion [C]-N--CA-[C] |==|  0.78987
USER: genes 6 Torsion [N]-CA--C-[N] |==|  0.92250
USER: genes 7 Torsion [C]-N--CA-[CB] |==|  0.34821
USER: genes 8 Torsion [N]-CA--CB-[CG] |==|  0.59499
USER: genes 9 Torsion [CA]-CB--CG-[CD] |==|  0.61196
USER: genes 10 Torsion [CB]-CG--CD-[OE2] |==|  0.12114
USER: genes 11 Torsion [N]-CA--C-[OXT] |==|  0.97143
USER: genes 12 Torsion [CB]-CA--N-[C] |==|  0.22053
USER: genes 13 Torsion [N]-C--CA-[N] |==|  0.64239
USER: genes 14 Torsion [C]-CA--N-[C] |==|  0.59920
USER: genes 15 Torsion [N]-C--CA-[N] |==|  0.50009
USER: genes 16 Torsion [C]-CA--CB-[CG] |==|  0.29706
USER: genes 17 Torsion [CA]-CB--CG-[CD] |==|  0.27928
USER: genes 18 Torsion [CB]-CG--CD-[NE2] |==|  0.44145
ROOT
ATOM      1  CA  HIS G 812     -25.260  31.917  21.797  1.00 98.11 LIG 0.18  C 
ENDROOT
BRANCH 1 2
ATOM      2  CB  HIS G 812     -25.689  33.386  21.923  1.00 96.29 LIG 0.10  C 
BRANCH 2 3
ATOM      3  CG  HIS G 812     -27.122  33.671  21.566  1.00 94.00 LIG 0.06  A 
ATOM      4  CD2 HIS G 812     -27.660  34.451  20.609  1.00 93.71 LIG 0.14  A 
ATOM      5 NE2  HIS G 812     -29.017  34.517  20.845  1.00 93.19 LIG-0.25  NA
ATOM      6  CE1 HIS G 812     -29.292  33.783  21.910  1.00 92.78 LIG 0.23  A 
ATOM      7 ND1  HIS G 812     -28.172  33.258  22.362  1.00 93.58 LIG-0.24  NA
ENDBRANCH 2 3
ENDBRANCH 1 2
BRANCH 1 8
ATOM      8  C   HIS G 812     -24.905  31.451  23.206  1.00 99.25 LIG 0.24  C 
ATOM      9  N   GLY G 813     -24.880  30.143  23.432  1.00100.26 LIG-0.35  N 
ATOM     10 H    GLY G 813     -25.057  29.539  22.848  1.00100.26 LIG 0.16  HD
ATOM     11 O    HIS G 812     -24.630  32.279  24.076  1.00 99.52 LIG-0.27  OA
BRANCH 9 12
ATOM     12  CA  GLY G 813     -24.534  29.648  24.753  1.00101.48 LIG 0.23  C 
BRANCH 12 13
ATOM     13  C   GLY G 813     -23.047  29.733  25.051  1.00102.44 LIG 0.24  C 
ATOM     14 O    GLY G 813     -22.659  29.845  26.213  1.00102.98 LIG-0.27  OA
ATOM     15  N   GLU G 814     -22.211  29.672  24.016  1.00102.70 LIG-0.34  N 
ATOM     16 H    GLU G 814     -22.460  29.579  23.198  1.00102.70 LIG 0.16  HD
BRANCH 15 17
ATOM     17  CA  GLU G 814     -20.761  29.764  24.205  1.00102.89 LIG 0.19  C 
BRANCH 17 18
ATOM     18  CB  GLU G 814     -20.049  28.561  23.572  1.00101.97 LIG 0.05  C 
BRANCH 18 19
ATOM     19  CG  GLU G 814     -18.812  28.089  24.311  1.00100.63 LIG 0.12  C 
BRANCH 19 20
ATOM     20  CD  GLU G 814     -17.680  27.699  23.371  1.00100.36 LIG 0.17  C 
ATOM     21 OE1  GLU G 814     -17.045  26.648  23.607  1.00 99.71 LIG-0.65  OA
ATOM     22 OE2  GLU G 814     -17.429  28.437  22.395  1.00 99.42 LIG-0.65  OA
ENDBRANCH 19 20
ENDBRANCH 18 19
ENDBRANCH 17 18
BRANCH 17 23
ATOM     23  C   GLU G 814     -20.213  31.051  23.580  1.00103.78 LIG 0.20  C 
ATOM     24 OXT  GLU G 814     -20.967  31.734  22.849  1.00104.07 LIG-0.65  OA
ATOM     25 O    GLU G 814     -19.030  31.368  23.835  1.00104.32 LIG-0.65  OA
ENDBRANCH 17 23
ENDBRANCH 15 17
ENDBRANCH 12 13
ENDBRANCH 9 12
ENDBRANCH 1 8
BRANCH 1 26
ATOM     26  N   HIS G 812     -26.416  31.065  21.490  1.00 98.48 LIG-0.35  N 
ATOM     27  C   GLY G 811     -26.972  30.914  20.286  1.00 98.46 LIG 0.24  C 
ATOM     28 O    GLY G 811     -26.606  31.514  19.268  1.00 98.78 LIG-0.27  OA
ATOM     29 H    HIS G 812     -26.715  30.653  22.183  1.00 98.48 LIG 0.16  HD
BRANCH 27 30
ATOM     30  CA  GLY G 811     -28.133  29.932  20.244  1.00 98.06 LIG 0.23  C 
BRANCH 30 31
ATOM     31  N   GLY G 811     -28.075  28.897  19.227  1.00 97.66 LIG-0.35  N 
ATOM     32 H    GLY G 811     -27.287  28.597  19.059  1.00 97.66 LIG 0.16  HD
ATOM     33  C   GLN G 810     -29.188  28.479  18.626  1.00 97.43 LIG 0.26  C 
ATOM     34 O    GLN G 810     -30.299  28.947  18.875  1.00 97.76 LIG-0.27  OA
BRANCH 33 35
ATOM     35  CA  GLN G 810     -29.026  27.379  17.576  1.00 96.79 LIG 0.40  C 
ATOM     36  N   GLN G 810     -30.349  27.015  16.992  1.00 96.61 LIG 0.61  N 
BRANCH 35 37
ATOM     37  CB  GLN G 810     -28.083  27.876  16.483  1.00 96.38 LIG 0.06  C 
BRANCH 37 38
ATOM     38  CG  GLN G 810     -26.693  27.258  16.485  1.00 95.56 LIG 0.10  C 
BRANCH 38 39
ATOM     39  CD  GLN G 810     -26.554  26.169  15.445  1.00 95.11 LIG 0.21  C 
ATOM     40  NE2 GLN G 810     -25.315  25.874  15.066  1.00 94.31 LIG-0.37  N 
ATOM     41 21HE GLN G 810     -24.649  26.296  15.409  1.00 94.31 LIG 0.16  HD
ATOM     42 22HE GLN G 810     -25.180  25.261  14.478  1.00 94.31 LIG 0.16  HD
ATOM     43 OE1  GLN G 810     -27.544  25.597  14.987  1.00 94.65 LIG-0.27  OA
ENDBRANCH 38 39
ENDBRANCH 37 38
ENDBRANCH 35 37
ENDBRANCH 33 35
ENDBRANCH 30 31
ENDBRANCH 27 30
ENDBRANCH 1 26
TORSDOF 17
ENDMDL
MODEL 45
USER: ADFR SOLUTION from run 37
USER: SCORE 11.988034 LL:  -2.542 LR: -10.435 RR:   0.000 FEB:  -5.363
USER: RMSD 5.935150
USER: SEED 36
USER: STATUS no improvement in best in 14 clusters for 5 generations
USER: GENES 19
USER: genes 0 Translation |==|  0.42315 0.43688 0.40910
USER: genes 1 Rotation |==|  0.45763 0.48194 0.63730 0.97857
USER: genes 2 Torsion [C]-CA--CB-[CG] |==|  0.34782
USER: genes 3 Torsion [CA]-CB--CG-[CD2] |==|  0.30667
USER: genes 4 Torsion [N]-CA--C-[N] |==|  0.38889
USER: genes 5 Torsion [C]-N--CA-[C] |==|  0.28763
USER: genes 6 Torsion [N]-CA--C-[N] |==|  0.25892
USER: genes 7 Torsion [C]-N--CA-[CB] |==|  0.21766
USER: genes 8 Torsion [N]-CA--CB-[CG] |==|  0.67974
USER: genes 9 Torsion [CA]-CB--CG-[CD] |==|  0.69848
USER: genes 10 Torsion [CB]-CG--CD-[OE2] |==|  0.28957
USER: genes 11 Torsion [N]-CA--C-[OXT] |==|  0.97905
USER: genes 12 Torsion [CB]-CA--N-[C] |==|  0.53437
USER: genes 13 Torsion [N]-C--CA-[N] |==|  0.96995
USER: genes 14 Torsion [C]-CA--N-[C] |==|  0.74282
USER: genes 15 Torsion [N]-C--CA-[N] |==|  0.42295
USER: genes 16 Torsion [C]-CA--CB-[CG] |==|  0.95428
USER: genes 17 Torsion [CA]-CB--CG-[CD] |==|  0.48815
USER: genes 18 Torsion [CB]-CG--CD-[NE2] |==|  0.86540
ROOT
ATOM      1  CA  HIS G 812     -27.543  32.590  19.483  1.00 98.11 LIG 0.18  C 
ENDROOT
BRANCH 1 2
ATOM      2  CB  HIS G 812     -26.483  31.480  19.532  1.00 96.29 LIG 0.10  C 
BRANCH 2 3
ATOM      3  CG  HIS G 812     -26.802  30.249  18.728  1.00 94.00 LIG 0.06  A 
ATOM      4  CD2 HIS G 812     -26.252  29.757  17.601  1.00 93.71 LIG 0.14  A 
ATOM      5 NE2  HIS G 812     -27.050  28.716  17.174  1.00 93.19 LIG-0.25  NA
ATOM      6  CE1 HIS G 812     -28.048  28.576  18.029  1.00 92.78 LIG 0.23  A 
ATOM      7 ND1  HIS G 812     -27.922  29.481  18.978  1.00 93.58 LIG-0.24  NA
ENDBRANCH 2 3
ENDBRANCH 1 2
BRANCH 1 8
ATOM      8  C   HIS G 812     -27.910  32.896  20.932  1.00 99.25 LIG 0.24  C 
ATOM      9  N   GLY G 813     -29.069  32.433  21.383  1.00100.26 LIG-0.35  N 
ATOM     10 H    GLY G 813     -29.633  31.981  20.918  1.00100.26 LIG 0.16  HD
ATOM     11 O    HIS G 812     -27.127  33.530  21.643  1.00 99.52 LIG-0.27  OA
BRANCH 9 12
ATOM     12  CA  GLY G 813     -29.458  32.685  22.759  1.00101.48 LIG 0.23  C 
BRANCH 12 13
ATOM     13  C   GLY G 813     -30.506  33.776  22.893  1.00102.44 LIG 0.24  C 
ATOM     14 O    GLY G 813     -30.160  34.954  22.964  1.00102.98 LIG-0.27  OA
ATOM     15  N   GLU G 814     -31.783  33.399  22.919  1.00102.70 LIG-0.34  N 
ATOM     16 H    GLU G 814     -32.047  32.583  22.855  1.00102.70 LIG 0.16  HD
BRANCH 15 17
ATOM     17  CA  GLU G 814     -32.861  34.380  23.063  1.00102.89 LIG 0.19  C 
BRANCH 17 18
ATOM     18  CB  GLU G 814     -33.136  35.090  21.731  1.00101.97 LIG 0.05  C 
BRANCH 18 19
ATOM     19  CG  GLU G 814     -32.839  36.577  21.726  1.00100.63 LIG 0.12  C 
BRANCH 19 20
ATOM     20  CD  GLU G 814     -34.100  37.428  21.689  1.00100.36 LIG 0.17  C 
ATOM     21 OE1  GLU G 814     -34.723  37.523  20.608  1.00 99.71 LIG-0.65  OA
ATOM     22 OE2  GLU G 814     -34.474  37.995  22.737  1.00 99.42 LIG-0.65  OA
ENDBRANCH 19 20
ENDBRANCH 18 19
ENDBRANCH 17 18
BRANCH 17 23
ATOM     23  C   GLU G 814     -34.150  33.703  23.540  1.00103.78 LIG 0.20  C 
ATOM     24 OXT  GLU G 814     -34.185  32.452  23.604  1.00104.07 LIG-0.65  OA
ATOM     25 O    GLU G 814     -35.115  34.435  23.851  1.00104.32 LIG-0.65  OA
ENDBRANCH 17 23
ENDBRANCH 15 17
ENDBRANCH 12 13
ENDBRANCH 9 12
ENDBRANCH 1 8
BRANCH 1 26
ATOM     26  N   HIS G 812     -26.942  33.860  19.059  1.00 98.48 LIG-0.35  N 
ATOM     27  C   GLY G 811     -27.523  35.059  19.135  1.00 98.46 LIG 0.24  C 
ATOM     28 O    GLY G 811     -28.675  35.251  19.542  1.00 98.78 LIG-0.27  OA
ATOM     29 H    HIS G 812     -26.148  33.760  18.743  1.00 98.48 LIG 0.16  HD
BRANCH 27 30
ATOM     30  CA  GLY G 811     -26.653  36.215  18.665  1.00 98.06 LIG 0.23  C 
BRANCH 30 31
ATOM     31  N   GLY G 811     -25.251  35.923  18.429  1.00 97.66 LIG-0.35  N 
ATOM     32 H    GLY G 811     -25.068  35.637  17.639  1.00 97.66 LIG 0.16  HD
ATOM     33  C   GLN G 810     -24.352  36.100  19.396  1.00 97.43 LIG 0.26  C 
ATOM     34 O    GLN G 810     -24.653  36.492  20.524  1.00 97.76 LIG-0.27  OA
BRANCH 33 35
ATOM     35  CA  GLN G 810     -22.900  35.773  19.048  1.00 96.79 LIG 0.40  C 
ATOM     36  N   GLN G 810     -21.967  36.591  19.878  1.00 96.61 LIG 0.61  N 
BRANCH 35 37
ATOM     37  CB  GLN G 810     -22.658  34.285  19.290  1.00 96.38 LIG 0.06  C 
BRANCH 37 38
ATOM     38  CG  GLN G 810     -23.699  33.583  20.147  1.00 95.56 LIG 0.10  C 
BRANCH 38 39
ATOM     39  CD  GLN G 810     -23.439  32.096  20.251  1.00 95.11 LIG 0.21  C 
ATOM     40  NE2 GLN G 810     -23.203  31.461  19.108  1.00 94.31 LIG-0.37  N 
ATOM     41 21HE GLN G 810     -23.206  31.895  18.366  1.00 94.31 LIG 0.16  HD
ATOM     42 22HE GLN G 810     -23.049  30.614  19.110  1.00 94.31 LIG 0.16  HD
ATOM     43 OE1  GLN G 810     -23.448  31.523  21.341  1.00 94.65 LIG-0.27  OA
ENDBRANCH 38 39
ENDBRANCH 37 38
ENDBRANCH 35 37
ENDBRANCH 33 35
ENDBRANCH 30 31
ENDBRANCH 27 30
ENDBRANCH 1 26
TORSDOF 17
ENDMDL
MODEL 46
USER: ADFR SOLUTION from run 157
USER: SCORE 10.050205 LL:  -1.824 LR: -10.429 RR:   0.000 FEB:  -5.358
USER: RMSD 11.020422
USER: SEED 156
USER: STATUS no improvement in best in 15 clusters for 5 generations
USER: GENES 19
USER: genes 0 Translation |==|  0.50001 0.35849 0.41927
USER: genes 1 Rotation |==|  0.64636 0.83132 0.80256 0.66511
USER: genes 2 Torsion [C]-CA--CB-[CG] |==|  0.40986
USER: genes 3 Torsion [CA]-CB--CG-[CD2] |==|  0.15491
USER: genes 4 Torsion [N]-CA--C-[N] |==|  0.58775
USER: genes 5 Torsion [C]-N--CA-[C] |==|  0.25832
USER: genes 6 Torsion [N]-CA--C-[N] |==|  0.11604
USER: genes 7 Torsion [C]-N--CA-[CB] |==|  0.85173
USER: genes 8 Torsion [N]-CA--CB-[CG] |==|  0.83469
USER: genes 9 Torsion [CA]-CB--CG-[CD] |==|  0.58148
USER: genes 10 Torsion [CB]-CG--CD-[OE2] |==|  0.48493
USER: genes 11 Torsion [N]-CA--C-[OXT] |==|  0.05371
USER: genes 12 Torsion [CB]-CA--N-[C] |==|  0.23889
USER: genes 13 Torsion [N]-C--CA-[N] |==|  0.78219
USER: genes 14 Torsion [C]-CA--N-[C] |==|  0.67306
USER: genes 15 Torsion [N]-C--CA-[N] |==|  0.15018
USER: genes 16 Torsion [C]-CA--CB-[CG] |==|  0.37344
USER: genes 17 Torsion [CA]-CB--CG-[CD] |==|  0.64292
USER: genes 18 Torsion [CB]-CG--CD-[NE2] |==|  0.78172
ROOT
ATOM      1  CA  HIS G 812     -26.044  31.120  19.735  1.00 98.11 LIG 0.18  C 
ENDROOT
BRANCH 1 2
ATOM      2  CB  HIS G 812     -26.399  31.077  18.242  1.00 96.29 LIG 0.10  C 
BRANCH 2 3
ATOM      3  CG  HIS G 812     -27.052  29.807  17.771  1.00 94.00 LIG 0.06  A 
ATOM      4  CD2 HIS G 812     -28.162  29.171  18.192  1.00 93.71 LIG 0.14  A 
ATOM      5 NE2  HIS G 812     -28.201  27.946  17.558  1.00 93.19 LIG-0.25  NA
ATOM      6  CE1 HIS G 812     -27.147  27.853  16.765  1.00 92.78 LIG 0.23  A 
ATOM      7 ND1  HIS G 812     -26.441  28.960  16.869  1.00 93.58 LIG-0.24  NA
ENDBRANCH 2 3
ENDBRANCH 1 2
BRANCH 1 8
ATOM      8  C   HIS G 812     -24.780  31.966  19.852  1.00 99.25 LIG 0.24  C 
ATOM      9  N   GLY G 813     -23.913  31.918  18.848  1.00100.26 LIG-0.35  N 
ATOM     10 H    GLY G 813     -24.006  31.439  18.140  1.00100.26 LIG 0.16  HD
ATOM     11 O    HIS G 812     -24.608  32.680  20.842  1.00 99.52 LIG-0.27  OA
BRANCH 9 12
ATOM     12  CA  GLY G 813     -22.701  32.716  18.904  1.00101.48 LIG 0.23  C 
BRANCH 12 13
ATOM     13  C   GLY G 813     -21.518  31.964  19.487  1.00102.44 LIG 0.24  C 
ATOM     14 O    GLY G 813     -20.765  32.526  20.281  1.00102.98 LIG-0.27  OA
ATOM     15  N   GLU G 814     -21.350  30.698  19.108  1.00102.70 LIG-0.34  N 
ATOM     16 H    GLU G 814     -21.873  30.282  18.566  1.00102.70 LIG 0.16  HD
BRANCH 15 17
ATOM     17  CA  GLU G 814     -20.227  29.900  19.605  1.00102.89 LIG 0.19  C 
BRANCH 17 18
ATOM     18  CB  GLU G 814     -18.894  30.621  19.362  1.00101.97 LIG 0.05  C 
BRANCH 18 19
ATOM     19  CG  GLU G 814     -18.588  30.925  17.908  1.00100.63 LIG 0.12  C 
BRANCH 19 20
ATOM     20  CD  GLU G 814     -17.094  30.955  17.617  1.00100.36 LIG 0.17  C 
ATOM     21 OE1  GLU G 814     -16.298  30.834  18.574  1.00 99.71 LIG-0.65  OA
ATOM     22 OE2  GLU G 814     -16.715  31.094  16.435  1.00 99.42 LIG-0.65  OA
ENDBRANCH 19 20
ENDBRANCH 18 19
ENDBRANCH 17 18
BRANCH 17 23
ATOM     23  C   GLU G 814     -20.377  29.627  21.104  1.00103.78 LIG 0.20  C 
ATOM     24 OXT  GLU G 814     -21.509  29.748  21.628  1.00104.07 LIG-0.65  OA
ATOM     25 O    GLU G 814     -19.357  29.286  21.743  1.00104.32 LIG-0.65  OA
ENDBRANCH 17 23
ENDBRANCH 15 17
ENDBRANCH 12 13
ENDBRANCH 9 12
ENDBRANCH 1 8
BRANCH 1 26
ATOM     26  N   HIS G 812     -27.013  31.938  20.474  1.00 98.48 LIG-0.35  N 
ATOM     27  C   GLY G 811     -28.175  31.509  20.972  1.00 98.46 LIG 0.24  C 
ATOM     28 O    GLY G 811     -28.609  30.358  20.836  1.00 98.78 LIG-0.27  OA
ATOM     29 H    HIS G 812     -26.755  32.754  20.562  1.00 98.48 LIG 0.16  HD
BRANCH 27 30
ATOM     30  CA  GLY G 811     -28.965  32.561  21.734  1.00 98.06 LIG 0.23  C 
BRANCH 30 31
ATOM     31  N   GLY G 811     -28.530  32.848  23.089  1.00 97.66 LIG-0.35  N 
ATOM     32 H    GLY G 811     -27.734  33.166  23.156  1.00 97.66 LIG 0.16  HD
ATOM     33  C   GLN G 810     -29.341  32.619  24.121  1.00 97.43 LIG 0.26  C 
ATOM     34 O    GLN G 810     -30.470  32.144  23.991  1.00 97.76 LIG-0.27  OA
BRANCH 33 35
ATOM     35  CA  GLN G 810     -28.797  32.962  25.508  1.00 96.79 LIG 0.40  C 
ATOM     36  N   GLN G 810     -28.324  34.377  25.548  1.00 96.61 LIG 0.61  N 
BRANCH 35 37
ATOM     37  CB  GLN G 810     -29.902  32.743  26.538  1.00 96.38 LIG 0.06  C 
BRANCH 37 38
ATOM     38  CG  GLN G 810     -29.486  31.996  27.796  1.00 95.56 LIG 0.10  C 
BRANCH 38 39
ATOM     39  CD  GLN G 810     -30.405  30.832  28.095  1.00 95.11 LIG 0.21  C 
ATOM     40  NE2 GLN G 810     -31.569  31.133  28.661  1.00 94.31 LIG-0.37  N 
ATOM     41 21HE GLN G 810     -31.762  31.952  28.838  1.00 94.31 LIG 0.16  HD
ATOM     42 22HE GLN G 810     -32.129  30.508  28.850  1.00 94.31 LIG 0.16  HD
ATOM     43 OE1  GLN G 810     -30.077  29.676  27.820  1.00 94.65 LIG-0.27  OA
ENDBRANCH 38 39
ENDBRANCH 37 38
ENDBRANCH 35 37
ENDBRANCH 33 35
ENDBRANCH 30 31
ENDBRANCH 27 30
ENDBRANCH 1 26
TORSDOF 17
ENDMDL
MODEL 47
USER: ADFR SOLUTION from run 31
USER: SCORE 10.520760 LL:  -1.914 LR: -10.423 RR:   0.000 FEB:  -5.352
USER: RMSD 8.950028
USER: SEED 30
USER: STATUS no improvement in best in 13 clusters for 5 generations
USER: GENES 19
USER: genes 0 Translation |==|  0.54967 0.48418 0.43902
USER: genes 1 Rotation |==|  0.19333 0.71017 0.81164 0.62111
USER: genes 2 Torsion [C]-CA--CB-[CG] |==|  0.52886
USER: genes 3 Torsion [CA]-CB--CG-[CD2] |==|  0.80209
USER: genes 4 Torsion [N]-CA--C-[N] |==|  0.88839
USER: genes 5 Torsion [C]-N--CA-[C] |==|  0.79948
USER: genes 6 Torsion [N]-CA--C-[N] |==|  0.52046
USER: genes 7 Torsion [C]-N--CA-[CB] |==|  0.12823
USER: genes 8 Torsion [N]-CA--CB-[CG] |==|  0.48105
USER: genes 9 Torsion [CA]-CB--CG-[CD] |==|  0.20982
USER: genes 10 Torsion [CB]-CG--CD-[OE2] |==|  0.90245
USER: genes 11 Torsion [N]-CA--C-[OXT] |==|  0.91338
USER: genes 12 Torsion [CB]-CA--N-[C] |==|  0.38846
USER: genes 13 Torsion [N]-C--CA-[N] |==|  0.57200
USER: genes 14 Torsion [C]-CA--N-[C] |==|  0.51133
USER: genes 15 Torsion [N]-C--CA-[N] |==|  0.08610
USER: genes 16 Torsion [C]-CA--CB-[CG] |==|  0.43859
USER: genes 17 Torsion [CA]-CB--CG-[CD] |==|  0.25319
USER: genes 18 Torsion [CB]-CG--CD-[NE2] |==|  0.59479
ROOT
ATOM      1  CA  HIS G 812     -25.075  33.476  20.224  1.00 98.11 LIG 0.18  C 
ENDROOT
BRANCH 1 2
ATOM      2  CB  HIS G 812     -23.770  34.006  19.613  1.00 96.29 LIG 0.10  C 
BRANCH 2 3
ATOM      3  CG  HIS G 812     -22.737  32.960  19.296  1.00 94.00 LIG 0.06  A 
ATOM      4  CD2 HIS G 812     -21.956  32.211  20.099  1.00 93.71 LIG 0.14  A 
ATOM      5 NE2  HIS G 812     -21.044  31.559  19.296  1.00 93.19 LIG-0.25  NA
ATOM      6  CE1 HIS G 812     -21.278  31.896  18.039  1.00 92.78 LIG 0.23  A 
ATOM      7 ND1  HIS G 812     -22.294  32.734  18.009  1.00 93.58 LIG-0.24  NA
ENDBRANCH 2 3
ENDBRANCH 1 2
BRANCH 1 8
ATOM      8  C   HIS G 812     -26.057  34.644  20.217  1.00 99.25 LIG 0.24  C 
ATOM      9  N   GLY G 813     -26.607  34.977  19.056  1.00100.26 LIG-0.35  N 
ATOM     10 H    GLY G 813     -26.446  34.591  18.306  1.00100.26 LIG 0.16  HD
ATOM     11 O    HIS G 812     -26.332  35.222  21.271  1.00 99.52 LIG-0.27  OA
BRANCH 9 12
ATOM     12  CA  GLY G 813     -27.560  36.072  18.999  1.00101.48 LIG 0.23  C 
BRANCH 12 13
ATOM     13  C   GLY G 813     -28.902  35.729  19.622  1.00102.44 LIG 0.24  C 
ATOM     14 O    GLY G 813     -29.042  34.670  20.233  1.00102.98 LIG-0.27  OA
ATOM     15  N   GLU G 814     -29.886  36.616  19.483  1.00102.70 LIG-0.34  N 
ATOM     16 H    GLU G 814     -29.805  37.368  19.074  1.00102.70 LIG 0.16  HD
BRANCH 15 17
ATOM     17  CA  GLU G 814     -31.219  36.362  20.036  1.00102.89 LIG 0.19  C 
BRANCH 17 18
ATOM     18  CB  GLU G 814     -31.124  35.843  21.477  1.00101.97 LIG 0.05  C 
BRANCH 18 19
ATOM     19  CG  GLU G 814     -32.452  35.703  22.195  1.00100.63 LIG 0.12  C 
BRANCH 19 20
ATOM     20  CD  GLU G 814     -33.244  34.488  21.733  1.00100.36 LIG 0.17  C 
ATOM     21 OE1  GLU G 814     -33.939  33.875  22.573  1.00 99.71 LIG-0.65  OA
ATOM     22 OE2  GLU G 814     -33.177  34.148  20.533  1.00 99.42 LIG-0.65  OA
ENDBRANCH 19 20
ENDBRANCH 18 19
ENDBRANCH 17 18
BRANCH 17 23
ATOM     23  C   GLU G 814     -32.063  37.640  20.023  1.00103.78 LIG 0.20  C 
ATOM     24 OXT  GLU G 814     -31.486  38.744  20.155  1.00104.07 LIG-0.65  OA
ATOM     25 O    GLU G 814     -33.300  37.523  19.874  1.00104.32 LIG-0.65  OA
ENDBRANCH 17 23
ENDBRANCH 15 17
ENDBRANCH 12 13
ENDBRANCH 9 12
ENDBRANCH 1 8
BRANCH 1 26
ATOM     26  N   HIS G 812     -25.732  32.537  19.306  1.00 98.48 LIG-0.35  N 
ATOM     27  C   GLY G 811     -26.342  31.403  19.659  1.00 98.46 LIG 0.24  C 
ATOM     28 O    GLY G 811     -26.398  30.973  20.817  1.00 98.78 LIG-0.27  OA
ATOM     29 H    HIS G 812     -25.687  32.793  18.486  1.00 98.48 LIG 0.16  HD
BRANCH 27 30
ATOM     30  CA  GLY G 811     -26.979  30.642  18.506  1.00 98.06 LIG 0.23  C 
BRANCH 30 31
ATOM     31  N   GLY G 811     -28.099  29.778  18.835  1.00 97.66 LIG-0.35  N 
ATOM     32 H    GLY G 811     -28.351  29.807  19.656  1.00 97.66 LIG 0.16  HD
ATOM     33  C   GLN G 810     -28.660  29.016  17.899  1.00 97.43 LIG 0.26  C 
ATOM     34 O    GLN G 810     -28.260  28.983  16.734  1.00 97.76 LIG-0.27  OA
BRANCH 33 35
ATOM     35  CA  GLN G 810     -29.839  28.148  18.339  1.00 96.79 LIG 0.40  C 
ATOM     36  N   GLN G 810     -30.594  28.812  19.442  1.00 96.61 LIG 0.61  N 
BRANCH 35 37
ATOM     37  CB  GLN G 810     -30.753  27.911  17.139  1.00 96.38 LIG 0.06  C 
BRANCH 37 38
ATOM     38  CG  GLN G 810     -31.654  26.689  17.233  1.00 95.56 LIG 0.10  C 
BRANCH 38 39
ATOM     39  CD  GLN G 810     -32.996  27.019  17.846  1.00 95.11 LIG 0.21  C 
ATOM     40  NE2 GLN G 810     -33.548  26.070  18.595  1.00 94.31 LIG-0.37  N 
ATOM     41 21HE GLN G 810     -33.143  25.320  18.706  1.00 94.31 LIG 0.16  HD
ATOM     42 22HE GLN G 810     -34.311  26.206  18.969  1.00 94.31 LIG 0.16  HD
ATOM     43 OE1  GLN G 810     -33.533  28.111  17.655  1.00 94.65 LIG-0.27  OA
ENDBRANCH 38 39
ENDBRANCH 37 38
ENDBRANCH 35 37
ENDBRANCH 33 35
ENDBRANCH 30 31
ENDBRANCH 27 30
ENDBRANCH 1 26
TORSDOF 17
ENDMDL
MODEL 48
USER: ADFR SOLUTION from run 184
USER: SCORE 11.978088 LL:  -2.606 LR: -10.411 RR:   0.000 FEB:  -5.340
USER: RMSD 10.501046
USER: SEED 183
USER: STATUS no improvement in best in 16 clusters for 5 generations
USER: GENES 19
USER: genes 0 Translation |==|  0.55828 0.67257 0.33108
USER: genes 1 Rotation |==|  0.81048 0.42508 0.88467 0.50425
USER: genes 2 Torsion [C]-CA--CB-[CG] |==|  0.29601
USER: genes 3 Torsion [CA]-CB--CG-[CD2] |==|  0.80338
USER: genes 4 Torsion [N]-CA--C-[N] |==|  0.06767
USER: genes 5 Torsion [C]-N--CA-[C] |==|  0.53059
USER: genes 6 Torsion [N]-CA--C-[N] |==|  0.49763
USER: genes 7 Torsion [C]-N--CA-[CB] |==|  0.42120
USER: genes 8 Torsion [N]-CA--CB-[CG] |==|  0.03032
USER: genes 9 Torsion [CA]-CB--CG-[CD] |==|  0.46568
USER: genes 10 Torsion [CB]-CG--CD-[OE2] |==|  0.30842
USER: genes 11 Torsion [N]-CA--C-[OXT] |==|  0.15301
USER: genes 12 Torsion [CB]-CA--N-[C] |==|  0.15778
USER: genes 13 Torsion [N]-C--CA-[N] |==|  0.82579
USER: genes 14 Torsion [C]-CA--N-[C] |==|  0.28028
USER: genes 15 Torsion [N]-C--CA-[N] |==|  0.35950
USER: genes 16 Torsion [C]-CA--CB-[CG] |==|  0.20130
USER: genes 17 Torsion [CA]-CB--CG-[CD] |==|  0.75774
USER: genes 18 Torsion [CB]-CG--CD-[NE2] |==|  0.45544
ROOT
ATOM      1  CA  HIS G 812     -24.908  37.009  17.552  1.00 98.11 LIG 0.18  C 
ENDROOT
BRANCH 1 2
ATOM      2  CB  HIS G 812     -24.904  38.431  18.131  1.00 96.29 LIG 0.10  C 
BRANCH 2 3
ATOM      3  CG  HIS G 812     -25.002  39.538  17.119  1.00 94.00 LIG 0.06  A 
ATOM      4  CD2 HIS G 812     -24.116  39.991  16.211  1.00 93.71 LIG 0.14  A 
ATOM      5 NE2  HIS G 812     -24.633  41.153  15.676  1.00 93.19 LIG-0.25  NA
ATOM      6  CE1 HIS G 812     -25.806  41.387  16.239  1.00 92.78 LIG 0.23  A 
ATOM      7 ND1  HIS G 812     -26.056  40.429  17.108  1.00 93.58 LIG-0.24  NA
ENDBRANCH 2 3
ENDBRANCH 1 2
BRANCH 1 8
ATOM      8  C   HIS G 812     -23.479  36.490  17.680  1.00 99.25 LIG 0.24  C 
ATOM      9  N   GLY G 813     -23.315  35.222  18.037  1.00100.26 LIG-0.35  N 
ATOM     10 H    GLY G 813     -23.953  34.673  18.211  1.00100.26 LIG 0.16  HD
ATOM     11 O    HIS G 812     -22.530  37.235  17.428  1.00 99.52 LIG-0.27  OA
BRANCH 9 12
ATOM     12  CA  GLY G 813     -21.975  34.675  18.158  1.00101.48 LIG 0.23  C 
BRANCH 12 13
ATOM     13  C   GLY G 813     -21.959  33.164  18.311  1.00102.44 LIG 0.24  C 
ATOM     14 O    GLY G 813     -23.017  32.538  18.330  1.00102.98 LIG-0.27  OA
ATOM     15  N   GLU G 814     -20.770  32.572  18.411  1.00102.70 LIG-0.34  N 
ATOM     16 H    GLU G 814     -20.018  32.989  18.384  1.00102.70 LIG 0.16  HD
BRANCH 15 17
ATOM     17  CA  GLU G 814     -20.657  31.121  18.579  1.00102.89 LIG 0.19  C 
BRANCH 17 18
ATOM     18  CB  GLU G 814     -19.339  30.602  17.988  1.00101.97 LIG 0.05  C 
BRANCH 18 19
ATOM     19  CG  GLU G 814     -18.342  31.679  17.608  1.00100.63 LIG 0.12  C 
BRANCH 19 20
ATOM     20  CD  GLU G 814     -16.957  31.119  17.315  1.00100.36 LIG 0.17  C 
ATOM     21 OE1  GLU G 814     -16.294  30.642  18.262  1.00 99.71 LIG-0.65  OA
ATOM     22 OE2  GLU G 814     -16.534  31.148  16.140  1.00 99.42 LIG-0.65  OA
ENDBRANCH 19 20
ENDBRANCH 18 19
ENDBRANCH 17 18
BRANCH 17 23
ATOM     23  C   GLU G 814     -20.722  30.740  20.061  1.00103.78 LIG 0.20  C 
ATOM     24 OXT  GLU G 814     -21.704  31.121  20.739  1.00104.07 LIG-0.65  OA
ATOM     25 O    GLU G 814     -19.786  30.056  20.531  1.00104.32 LIG-0.65  OA
ENDBRANCH 17 23
ENDBRANCH 15 17
ENDBRANCH 12 13
ENDBRANCH 9 12
ENDBRANCH 1 8
BRANCH 1 26
ATOM     26  N   HIS G 812     -25.632  36.090  18.440  1.00 98.48 LIG-0.35  N 
ATOM     27  C   GLY G 811     -26.897  36.234  18.843  1.00 98.46 LIG 0.24  C 
ATOM     28 O    GLY G 811     -27.617  37.195  18.548  1.00 98.78 LIG-0.27  OA
ATOM     29 H    HIS G 812     -25.150  35.423  18.688  1.00 98.48 LIG 0.16  HD
BRANCH 27 30
ATOM     30  CA  GLY G 811     -27.412  35.108  19.726  1.00 98.06 LIG 0.23  C 
BRANCH 30 31
ATOM     31  N   GLY G 811     -27.467  33.785  19.130  1.00 97.66 LIG-0.35  N 
ATOM     32 H    GLY G 811     -28.141  33.647  18.615  1.00 97.66 LIG 0.16  HD
ATOM     33  C   GLN G 810     -26.520  32.886  19.392  1.00 97.43 LIG 0.26  C 
ATOM     34 O    GLN G 810     -25.577  33.111  20.152  1.00 97.76 LIG-0.27  OA
BRANCH 33 35
ATOM     35  CA  GLN G 810     -26.660  31.526  18.710  1.00 96.79 LIG 0.40  C 
ATOM     36  N   GLN G 810     -25.387  31.147  18.031  1.00 96.61 LIG 0.61  N 
BRANCH 35 37
ATOM     37  CB  GLN G 810     -27.030  30.483  19.762  1.00 96.38 LIG 0.06  C 
BRANCH 37 38
ATOM     38  CG  GLN G 810     -28.453  30.564  20.295  1.00 95.56 LIG 0.10  C 
BRANCH 38 39
ATOM     39  CD  GLN G 810     -28.567  31.516  21.464  1.00 95.11 LIG 0.21  C 
ATOM     40  NE2 GLN G 810     -29.796  31.908  21.784  1.00 94.31 LIG-0.37  N 
ATOM     41 21HE GLN G 810     -30.470  31.621  21.333  1.00 94.31 LIG 0.16  HD
ATOM     42 22HE GLN G 810     -29.918  32.448  22.442  1.00 94.31 LIG 0.16  HD
ATOM     43 OE1  GLN G 810     -27.568  31.896  22.076  1.00 94.65 LIG-0.27  OA
ENDBRANCH 38 39
ENDBRANCH 37 38
ENDBRANCH 35 37
ENDBRANCH 33 35
ENDBRANCH 30 31
ENDBRANCH 27 30
ENDBRANCH 1 26
TORSDOF 17
ENDMDL
MODEL 49
USER: ADFR SOLUTION from run 140
USER: SCORE 11.274650 LL:  -2.046 LR: -10.408 RR:   0.000 FEB:  -5.337
USER: RMSD 6.849106
USER: SEED 139
USER: STATUS no improvement in best in 13 clusters for 5 generations
USER: GENES 19
USER: genes 0 Translation |==|  0.37954 0.32481 0.41739
USER: genes 1 Rotation |==|  0.51693 0.37953 0.46592 0.98378
USER: genes 2 Torsion [C]-CA--CB-[CG] |==|  0.28078
USER: genes 3 Torsion [CA]-CB--CG-[CD2] |==|  0.32571
USER: genes 4 Torsion [N]-CA--C-[N] |==|  0.13333
USER: genes 5 Torsion [C]-N--CA-[C] |==|  0.63028
USER: genes 6 Torsion [N]-CA--C-[N] |==|  0.36272
USER: genes 7 Torsion [C]-N--CA-[CB] |==|  0.16037
USER: genes 8 Torsion [N]-CA--CB-[CG] |==|  0.53723
USER: genes 9 Torsion [CA]-CB--CG-[CD] |==|  0.40466
USER: genes 10 Torsion [CB]-CG--CD-[OE2] |==|  0.36909
USER: genes 11 Torsion [N]-CA--C-[OXT] |==|  0.47046
USER: genes 12 Torsion [CB]-CA--N-[C] |==|  0.17764
USER: genes 13 Torsion [N]-C--CA-[N] |==|  0.49662
USER: genes 14 Torsion [C]-CA--N-[C] |==|  0.47704
USER: genes 15 Torsion [N]-C--CA-[N] |==|  0.38372
USER: genes 16 Torsion [C]-CA--CB-[CG] |==|  0.21616
USER: genes 17 Torsion [CA]-CB--CG-[CD] |==|  0.65064
USER: genes 18 Torsion [CB]-CG--CD-[NE2] |==|  0.42410
ROOT
ATOM      1  CA  HIS G 812     -28.393  30.488  19.688  1.00 98.11 LIG 0.18  C 
ENDROOT
BRANCH 1 2
ATOM      2  CB  HIS G 812     -28.186  28.981  19.479  1.00 96.29 LIG 0.10  C 
BRANCH 2 3
ATOM      3  CG  HIS G 812     -29.108  28.337  18.482  1.00 94.00 LIG 0.06  A 
ATOM      4  CD2 HIS G 812     -28.858  27.719  17.311  1.00 93.71 LIG 0.14  A 
ATOM      5 NE2  HIS G 812     -30.073  27.491  16.698  1.00 93.19 LIG-0.25  NA
ATOM      6  CE1 HIS G 812     -31.031  27.948  17.486  1.00 92.78 LIG 0.23  A 
ATOM      7 ND1  HIS G 812     -30.481  28.458  18.569  1.00 93.58 LIG-0.24  NA
ENDBRANCH 2 3
ENDBRANCH 1 2
BRANCH 1 8
ATOM      8  C   HIS G 812     -29.183  30.637  20.985  1.00 99.25 LIG 0.24  C 
ATOM      9  N   GLY G 813     -29.207  31.835  21.556  1.00100.26 LIG-0.35  N 
ATOM     10 H    GLY G 813     -28.804  32.531  21.255  1.00100.26 LIG 0.16  HD
ATOM     11 O    HIS G 812     -29.791  29.670  21.448  1.00 99.52 LIG-0.27  OA
BRANCH 9 12
ATOM     12  CA  GLY G 813     -29.958  32.032  22.783  1.00101.48 LIG 0.23  C 
BRANCH 12 13
ATOM     13  C   GLY G 813     -30.831  33.274  22.755  1.00102.44 LIG 0.24  C 
ATOM     14 O    GLY G 813     -30.356  34.351  22.397  1.00102.98 LIG-0.27  OA
ATOM     15  N   GLU G 814     -32.105  33.136  23.120  1.00102.70 LIG-0.34  N 
ATOM     16 H    GLU G 814     -32.461  32.390  23.359  1.00102.70 LIG 0.16  HD
BRANCH 15 17
ATOM     17  CA  GLU G 814     -33.017  34.282  23.141  1.00102.89 LIG 0.19  C 
BRANCH 17 18
ATOM     18  CB  GLU G 814     -33.097  34.943  21.758  1.00101.97 LIG 0.05  C 
BRANCH 18 19
ATOM     19  CG  GLU G 814     -33.753  36.310  21.740  1.00100.63 LIG 0.12  C 
BRANCH 19 20
ATOM     20  CD  GLU G 814     -33.135  37.243  20.709  1.00100.36 LIG 0.17  C 
ATOM     21 OE1  GLU G 814     -31.888  37.325  20.649  1.00 99.71 LIG-0.65  OA
ATOM     22 OE2  GLU G 814     -33.892  37.889  19.954  1.00 99.42 LIG-0.65  OA
ENDBRANCH 19 20
ENDBRANCH 18 19
ENDBRANCH 17 18
BRANCH 17 23
ATOM     23  C   GLU G 814     -34.423  33.848  23.567  1.00103.78 LIG 0.20  C 
ATOM     24 OXT  GLU G 814     -35.272  34.731  23.831  1.00104.07 LIG-0.65  OA
ATOM     25 O    GLU G 814     -34.664  32.622  23.627  1.00104.32 LIG-0.65  OA
ENDBRANCH 17 23
ENDBRANCH 15 17
ENDBRANCH 12 13
ENDBRANCH 9 12
ENDBRANCH 1 8
BRANCH 1 26
ATOM     26  N   HIS G 812     -27.126  31.141  20.042  1.00 98.48 LIG-0.35  N 
ATOM     27  C   GLY G 811     -26.048  31.223  19.259  1.00 98.46 LIG 0.24  C 
ATOM     28 O    GLY G 811     -25.964  30.716  18.134  1.00 98.78 LIG-0.27  OA
ATOM     29 H    HIS G 812     -27.140  31.480  20.832  1.00 98.48 LIG 0.16  HD
BRANCH 27 30
ATOM     30  CA  GLY G 811     -24.885  31.996  19.862  1.00 98.06 LIG 0.23  C 
BRANCH 30 31
ATOM     31  N   GLY G 811     -23.679  32.090  19.059  1.00 97.66 LIG-0.35  N 
ATOM     32 H    GLY G 811     -23.677  31.605  18.348  1.00 97.66 LIG 0.16  HD
ATOM     33  C   GLN G 810     -22.677  32.882  19.436  1.00 97.43 LIG 0.26  C 
ATOM     34 O    GLN G 810     -22.704  33.547  20.472  1.00 97.76 LIG-0.27  OA
BRANCH 33 35
ATOM     35  CA  GLN G 810     -21.454  32.921  18.520  1.00 96.79 LIG 0.40  C 
ATOM     36  N   GLN G 810     -20.955  34.319  18.373  1.00 96.61 LIG 0.61  N 
BRANCH 35 37
ATOM     37  CB  GLN G 810     -20.365  32.030  19.114  1.00 96.38 LIG 0.06  C 
BRANCH 37 38
ATOM     38  CG  GLN G 810     -20.553  30.536  18.903  1.00 95.56 LIG 0.10  C 
BRANCH 38 39
ATOM     39  CD  GLN G 810     -20.510  29.769  20.206  1.00 95.11 LIG 0.21  C 
ATOM     40  NE2 GLN G 810     -21.188  28.627  20.237  1.00 94.31 LIG-0.37  N 
ATOM     41 21HE GLN G 810     -21.620  28.363  19.541  1.00 94.31 LIG 0.16  HD
ATOM     42 22HE GLN G 810     -21.196  28.150  20.953  1.00 94.31 LIG 0.16  HD
ATOM     43 OE1  GLN G 810     -19.876  30.192  21.174  1.00 94.65 LIG-0.27  OA
ENDBRANCH 38 39
ENDBRANCH 37 38
ENDBRANCH 35 37
ENDBRANCH 33 35
ENDBRANCH 30 31
ENDBRANCH 27 30
ENDBRANCH 1 26
TORSDOF 17
ENDMDL
MODEL 50
USER: ADFR SOLUTION from run 89
USER: SCORE 10.829211 LL:  -2.447 LR: -10.400 RR:   0.000 FEB:  -5.329
USER: RMSD 8.816979
USER: SEED 88
USER: STATUS no improvement in best in 13 clusters for 5 generations
USER: GENES 19
USER: genes 0 Translation |==|  0.45309 0.33307 0.48217
USER: genes 1 Rotation |==|  0.43999 0.22771 0.24395 0.82664
USER: genes 2 Torsion [C]-CA--CB-[CG] |==|  0.30370
USER: genes 3 Torsion [CA]-CB--CG-[CD2] |==|  0.50272
USER: genes 4 Torsion [N]-CA--C-[N] |==|  0.94240
USER: genes 5 Torsion [C]-N--CA-[C] |==|  0.21279
USER: genes 6 Torsion [N]-CA--C-[N] |==|  0.71986
USER: genes 7 Torsion [C]-N--CA-[CB] |==|  0.21033
USER: genes 8 Torsion [N]-CA--CB-[CG] |==|  0.51254
USER: genes 9 Torsion [CA]-CB--CG-[CD] |==|  0.24191
USER: genes 10 Torsion [CB]-CG--CD-[OE2] |==|  0.84407
USER: genes 11 Torsion [N]-CA--C-[OXT] |==|  0.39143
USER: genes 12 Torsion [CB]-CA--N-[C] |==|  0.42343
USER: genes 13 Torsion [N]-C--CA-[N] |==|  0.87913
USER: genes 14 Torsion [C]-CA--N-[C] |==|  0.82283
USER: genes 15 Torsion [N]-C--CA-[N] |==|  0.75669
USER: genes 16 Torsion [C]-CA--CB-[CG] |==|  0.58861
USER: genes 17 Torsion [CA]-CB--CG-[CD] |==|  0.47099
USER: genes 18 Torsion [CB]-CG--CD-[NE2] |==|  0.14265
ROOT
ATOM      1  CA  HIS G 812     -26.959  30.643  21.292  1.00 98.11 LIG 0.18  C 
ENDROOT
BRANCH 1 2
ATOM      2  CB  HIS G 812     -28.046  29.647  20.865  1.00 96.29 LIG 0.10  C 
BRANCH 2 3
ATOM      3  CG  HIS G 812     -28.199  29.457  19.381  1.00 94.00 LIG 0.06  A 
ATOM      4  CD2 HIS G 812     -29.046  28.691  18.667  1.00 93.71 LIG 0.14  A 
ATOM      5 NE2  HIS G 812     -28.629  28.730  17.352  1.00 93.19 LIG-0.25  NA
ATOM      6  CE1 HIS G 812     -27.565  29.512  17.275  1.00 92.78 LIG 0.23  A 
ATOM      7 ND1  HIS G 812     -27.286  29.967  18.479  1.00 93.58 LIG-0.24  NA
ENDBRANCH 2 3
ENDBRANCH 1 2
BRANCH 1 8
ATOM      8  C   HIS G 812     -27.688  31.866  21.840  1.00 99.25 LIG 0.24  C 
ATOM      9  N   GLY G 813     -27.879  31.930  23.152  1.00100.26 LIG-0.35  N 
ATOM     10 H    GLY G 813     -27.630  31.331  23.716  1.00100.26 LIG 0.16  HD
ATOM     11 O    HIS G 812     -28.051  32.759  21.073  1.00 99.52 LIG-0.27  OA
BRANCH 9 12
ATOM     12  CA  GLY G 813     -28.554  33.081  23.726  1.00101.48 LIG 0.23  C 
BRANCH 12 13
ATOM     13  C   GLY G 813     -30.059  33.052  23.523  1.00102.44 LIG 0.24  C 
ATOM     14 O    GLY G 813     -30.763  32.355  24.252  1.00102.98 LIG-0.27  OA
ATOM     15  N   GLU G 814     -30.560  33.806  22.547  1.00102.70 LIG-0.34  N 
ATOM     16 H    GLU G 814     -30.088  34.312  22.036  1.00102.70 LIG 0.16  HD
BRANCH 15 17
ATOM     17  CA  GLU G 814     -31.997  33.828  22.266  1.00102.89 LIG 0.19  C 
BRANCH 17 18
ATOM     18  CB  GLU G 814     -32.748  34.656  23.318  1.00101.97 LIG 0.05  C 
BRANCH 18 19
ATOM     19  CG  GLU G 814     -34.258  34.652  23.177  1.00100.63 LIG 0.12  C 
BRANCH 19 20
ATOM     20  CD  GLU G 814     -34.911  33.482  23.899  1.00100.36 LIG 0.17  C 
ATOM     21 OE1  GLU G 814     -35.794  33.725  24.751  1.00 99.71 LIG-0.65  OA
ATOM     22 OE2  GLU G 814     -34.547  32.321  23.614  1.00 99.42 LIG-0.65  OA
ENDBRANCH 19 20
ENDBRANCH 18 19
ENDBRANCH 17 18
BRANCH 17 23
ATOM     23  C   GLU G 814     -32.271  34.419  20.880  1.00103.78 LIG 0.20  C 
ATOM     24 OXT  GLU G 814     -33.170  33.908  20.174  1.00104.07 LIG-0.65  OA
ATOM     25 O    GLU G 814     -31.581  35.397  20.514  1.00104.32 LIG-0.65  OA
ENDBRANCH 17 23
ENDBRANCH 15 17
ENDBRANCH 12 13
ENDBRANCH 9 12
ENDBRANCH 1 8
BRANCH 1 26
ATOM     26  N   HIS G 812     -26.256  30.161  22.488  1.00 98.48 LIG-0.35  N 
ATOM     27  C   GLY G 811     -24.997  30.453  22.821  1.00 98.46 LIG 0.24  C 
ATOM     28 O    GLY G 811     -24.237  31.144  22.133  1.00 98.78 LIG-0.27  OA
ATOM     29 H    HIS G 812     -26.749  29.652  22.976  1.00 98.48 LIG 0.16  HD
BRANCH 27 30
ATOM     30  CA  GLY G 811     -24.536  29.853  24.140  1.00 98.06 LIG 0.23  C 
BRANCH 30 31
ATOM     31  N   GLY G 811     -25.467  29.929  25.252  1.00 97.66 LIG-0.35  N 
ATOM     32 H    GLY G 811     -25.744  29.170  25.546  1.00 97.66 LIG 0.16  HD
ATOM     33  C   GLN G 810     -25.834  31.110  25.745  1.00 97.43 LIG 0.26  C 
ATOM     34 O    GLN G 810     -25.434  32.180  25.285  1.00 97.76 LIG-0.27  OA
BRANCH 33 35
ATOM     35  CA  GLN G 810     -26.810  31.087  26.921  1.00 96.79 LIG 0.40  C 
ATOM     36  N   GLN G 810     -28.220  31.057  26.431  1.00 96.61 LIG 0.61  N 
BRANCH 35 37
ATOM     37  CB  GLN G 810     -26.521  29.856  27.777  1.00 96.38 LIG 0.06  C 
BRANCH 37 38
ATOM     38  CG  GLN G 810     -27.728  29.243  28.472  1.00 95.56 LIG 0.10  C 
BRANCH 38 39
ATOM     39  CD  GLN G 810     -27.407  27.899  29.086  1.00 95.11 LIG 0.21  C 
ATOM     40  NE2 GLN G 810     -26.338  27.853  29.873  1.00 94.31 LIG-0.37  N 
ATOM     41 21HE GLN G 810     -25.871  28.563  30.007  1.00 94.31 LIG 0.16  HD
ATOM     42 22HE GLN G 810     -26.111  27.113  30.249  1.00 94.31 LIG 0.16  HD
ATOM     43 OE1  GLN G 810     -28.110  26.912  28.860  1.00 94.65 LIG-0.27  OA
ENDBRANCH 38 39
ENDBRANCH 37 38
ENDBRANCH 35 37
ENDBRANCH 33 35
ENDBRANCH 30 31
ENDBRANCH 27 30
ENDBRANCH 1 26
TORSDOF 17
ENDMDL
MODEL 51
USER: ADFR SOLUTION from run 131
USER: SCORE 11.322317 LL:  -2.126 LR: -10.405 RR:   0.000 FEB:  -5.333
USER: RMSD 10.584923
USER: SEED 130
USER: STATUS no improvement in best in 4 clusters for 5 generations
USER: GENES 19
USER: genes 0 Translation |==|  0.48072 0.35873 0.47593
USER: genes 1 Rotation |==|  0.17675 0.30732 0.18313 0.58935
USER: genes 2 Torsion [C]-CA--CB-[CG] |==|  0.73598
USER: genes 3 Torsion [CA]-CB--CG-[CD2] |==|  0.13198
USER: genes 4 Torsion [N]-CA--C-[N] |==|  0.32896
USER: genes 5 Torsion [C]-N--CA-[C] |==|  0.31425
USER: genes 6 Torsion [N]-CA--C-[N] |==|  0.16219
USER: genes 7 Torsion [C]-N--CA-[CB] |==|  0.84867
USER: genes 8 Torsion [N]-CA--CB-[CG] |==|  0.72917
USER: genes 9 Torsion [CA]-CB--CG-[CD] |==|  0.63621
USER: genes 10 Torsion [CB]-CG--CD-[OE2] |==|  0.01550
USER: genes 11 Torsion [N]-CA--C-[OXT] |==|  0.55791
USER: genes 12 Torsion [CB]-CA--N-[C] |==|  0.57778
USER: genes 13 Torsion [N]-C--CA-[N] |==|  0.45598
USER: genes 14 Torsion [C]-CA--N-[C] |==|  0.22372
USER: genes 15 Torsion [N]-C--CA-[N] |==|  0.90406
USER: genes 16 Torsion [C]-CA--CB-[CG] |==|  0.54291
USER: genes 17 Torsion [CA]-CB--CG-[CD] |==|  0.61257
USER: genes 18 Torsion [CB]-CG--CD-[NE2] |==|  0.21092
ROOT
ATOM      1  CA  HIS G 812     -26.420  31.124  21.137  1.00 98.11 LIG 0.18  C 
ENDROOT
BRANCH 1 2
ATOM      2  CB  HIS G 812     -27.687  31.990  21.080  1.00 96.29 LIG 0.10  C 
BRANCH 2 3
ATOM      3  CG  HIS G 812     -28.179  32.498  22.407  1.00 94.00 LIG 0.06  A 
ATOM      4  CD2 HIS G 812     -27.530  33.092  23.427  1.00 93.71 LIG 0.14  A 
ATOM      5 NE2  HIS G 812     -28.410  33.171  24.486  1.00 93.19 LIG-0.25  NA
ATOM      6  CE1 HIS G 812     -29.565  32.649  24.109  1.00 92.78 LIG 0.23  A 
ATOM      7 ND1  HIS G 812     -29.457  32.241  22.862  1.00 93.58 LIG-0.24  NA
ENDBRANCH 2 3
ENDBRANCH 1 2
BRANCH 1 8
ATOM      8  C   HIS G 812     -25.246  32.062  20.874  1.00 99.25 LIG 0.24  C 
ATOM      9  N   GLY G 813     -24.411  31.741  19.893  1.00100.26 LIG-0.35  N 
ATOM     10 H    GLY G 813     -24.476  31.040  19.401  1.00100.26 LIG 0.16  HD
ATOM     11 O    HIS G 812     -25.118  33.089  21.544  1.00 99.52 LIG-0.27  OA
BRANCH 9 12
ATOM     12  CA  GLY G 813     -23.286  32.609  19.592  1.00101.48 LIG 0.23  C 
BRANCH 12 13
ATOM     13  C   GLY G 813     -21.942  31.973  19.900  1.00102.44 LIG 0.24  C 
ATOM     14 O    GLY G 813     -21.177  32.511  20.699  1.00102.98 LIG-0.27  OA
ATOM     15  N   GLU G 814     -21.651  30.829  19.283  1.00102.70 LIG-0.34  N 
ATOM     16 H    GLU G 814     -22.177  30.428  18.733  1.00102.70 LIG 0.16  HD
BRANCH 15 17
ATOM     17  CA  GLU G 814     -20.371  30.152  19.505  1.00102.89 LIG 0.19  C 
BRANCH 17 18
ATOM     18  CB  GLU G 814     -19.196  31.100  19.230  1.00101.97 LIG 0.05  C 
BRANCH 18 19
ATOM     19  CG  GLU G 814     -18.575  30.966  17.852  1.00100.63 LIG 0.12  C 
BRANCH 19 20
ATOM     20  CD  GLU G 814     -17.058  30.852  17.901  1.00100.36 LIG 0.17  C 
ATOM     21 OE1  GLU G 814     -16.426  30.849  16.822  1.00 99.71 LIG-0.65  OA
ATOM     22 OE2  GLU G 814     -16.497  30.771  19.014  1.00 99.42 LIG-0.65  OA
ENDBRANCH 19 20
ENDBRANCH 18 19
ENDBRANCH 17 18
BRANCH 17 23
ATOM     23  C   GLU G 814     -20.270  29.641  20.945  1.00103.78 LIG 0.20  C 
ATOM     24 OXT  GLU G 814     -19.137  29.402  21.422  1.00104.07 LIG-0.65  OA
ATOM     25 O    GLU G 814     -21.333  29.489  21.588  1.00104.32 LIG-0.65  OA
ENDBRANCH 17 23
ENDBRANCH 15 17
ENDBRANCH 12 13
ENDBRANCH 9 12
ENDBRANCH 1 8
BRANCH 1 26
ATOM     26  N   HIS G 812     -26.148  30.695  22.515  1.00 98.48 LIG-0.35  N 
ATOM     27  C   GLY G 811     -24.944  30.414  23.018  1.00 98.46 LIG 0.24  C 
ATOM     28 O    GLY G 811     -23.893  30.439  22.367  1.00 98.78 LIG-0.27  OA
ATOM     29 H    HIS G 812     -26.863  30.639  22.989  1.00 98.48 LIG 0.16  HD
BRANCH 27 30
ATOM     30  CA  GLY G 811     -24.946  30.037  24.492  1.00 98.06 LIG 0.23  C 
BRANCH 30 31
ATOM     31  N   GLY G 811     -23.752  29.387  25.001  1.00 97.66 LIG-0.35  N 
ATOM     32 H    GLY G 811     -23.805  28.531  25.068  1.00 97.66 LIG 0.16  HD
ATOM     33  C   GLN G 810     -22.679  30.105  25.325  1.00 97.43 LIG 0.26  C 
ATOM     34 O    GLN G 810     -22.644  31.333  25.235  1.00 97.76 LIG-0.27  OA
BRANCH 33 35
ATOM     35  CA  GLN G 810     -21.467  29.330  25.842  1.00 96.79 LIG 0.40  C 
ATOM     36  N   GLN G 810     -21.905  28.148  26.641  1.00 96.61 LIG 0.61  N 
BRANCH 35 37
ATOM     37  CB  GLN G 810     -20.624  28.881  24.651  1.00 96.38 LIG 0.06  C 
BRANCH 37 38
ATOM     38  CG  GLN G 810     -19.594  27.801  24.947  1.00 95.56 LIG 0.10  C 
BRANCH 38 39
ATOM     39  CD  GLN G 810     -18.285  28.053  24.232  1.00 95.11 LIG 0.21  C 
ATOM     40  NE2 GLN G 810     -17.509  29.001  24.746  1.00 94.31 LIG-0.37  N 
ATOM     41 21HE GLN G 810     -17.763  29.433  25.445  1.00 94.31 LIG 0.16  HD
ATOM     42 22HE GLN G 810     -16.753  29.184  24.379  1.00 94.31 LIG 0.16  HD
ATOM     43 OE1  GLN G 810     -17.971  27.405  23.233  1.00 94.65 LIG-0.27  OA
ENDBRANCH 38 39
ENDBRANCH 37 38
ENDBRANCH 35 37
ENDBRANCH 33 35
ENDBRANCH 30 31
ENDBRANCH 27 30
ENDBRANCH 1 26
TORSDOF 17
ENDMDL
MODEL 52
USER: ADFR SOLUTION from run 51
USER: SCORE 11.812622 LL:  -2.245 LR: -10.401 RR:   0.000 FEB:  -5.330
USER: RMSD 10.634515
USER: SEED 50
USER: STATUS no improvement in best in 23 clusters for 5 generations
USER: GENES 19
USER: genes 0 Translation |==|  0.57100 0.48012 0.44808
USER: genes 1 Rotation |==|  0.24322 0.76163 0.29670 0.77254
USER: genes 2 Torsion [C]-CA--CB-[CG] |==|  0.82023
USER: genes 3 Torsion [CA]-CB--CG-[CD2] |==|  0.59115
USER: genes 4 Torsion [N]-CA--C-[N] |==|  0.04230
USER: genes 5 Torsion [C]-N--CA-[C] |==|  0.30477
USER: genes 6 Torsion [N]-CA--C-[N] |==|  0.55374
USER: genes 7 Torsion [C]-N--CA-[CB] |==|  0.87229
USER: genes 8 Torsion [N]-CA--CB-[CG] |==|  0.64495
USER: genes 9 Torsion [CA]-CB--CG-[CD] |==|  0.46615
USER: genes 10 Torsion [CB]-CG--CD-[OE2] |==|  0.83308
USER: genes 11 Torsion [N]-CA--C-[OXT] |==|  0.34352
USER: genes 12 Torsion [CB]-CA--N-[C] |==|  0.19329
USER: genes 13 Torsion [N]-C--CA-[N] |==|  0.52084
USER: genes 14 Torsion [C]-CA--N-[C] |==|  0.56124
USER: genes 15 Torsion [N]-C--CA-[N] |==|  0.48998
USER: genes 16 Torsion [C]-CA--CB-[CG] |==|  0.39958
USER: genes 17 Torsion [CA]-CB--CG-[CD] |==|  0.20871
USER: genes 18 Torsion [CB]-CG--CD-[NE2] |==|  0.42896
ROOT
ATOM      1  CA  HIS G 812     -24.660  33.400  20.448  1.00 98.11 LIG 0.18  C 
ENDROOT
BRANCH 1 2
ATOM      2  CB  HIS G 812     -24.712  32.856  21.883  1.00 96.29 LIG 0.10  C 
BRANCH 2 3
ATOM      3  CG  HIS G 812     -23.975  31.565  22.109  1.00 94.00 LIG 0.06  A 
ATOM      4  CD2 HIS G 812     -24.225  30.534  22.939  1.00 93.71 LIG 0.14  A 
ATOM      5 NE2  HIS G 812     -23.130  29.697  22.898  1.00 93.19 LIG-0.25  NA
ATOM      6  CE1 HIS G 812     -22.248  30.204  22.054  1.00 92.78 LIG 0.23  A 
ATOM      7 ND1  HIS G 812     -22.732  31.325  21.561  1.00 93.58 LIG-0.24  NA
ENDBRANCH 2 3
ENDBRANCH 1 2
BRANCH 1 8
ATOM      8  C   HIS G 812     -23.199  33.742  20.172  1.00 99.25 LIG 0.24  C 
ATOM      9  N   GLY G 813     -22.665  33.291  19.044  1.00100.26 LIG-0.35  N 
ATOM     10 H    GLY G 813     -23.078  32.813  18.460  1.00100.26 LIG 0.16  HD
ATOM     11 O    HIS G 812     -22.568  34.436  20.972  1.00 99.52 LIG-0.27  OA
BRANCH 9 12
ATOM     12  CA  GLY G 813     -21.282  33.601  18.726  1.00101.48 LIG 0.23  C 
BRANCH 12 13
ATOM     13  C   GLY G 813     -20.365  32.394  18.814  1.00102.44 LIG 0.24  C 
ATOM     14 O    GLY G 813     -20.837  31.259  18.764  1.00102.98 LIG-0.27  OA
ATOM     15  N   GLU G 814     -19.058  32.625  18.934  1.00102.70 LIG-0.34  N 
ATOM     16 H    GLU G 814     -18.706  33.410  18.955  1.00102.70 LIG 0.16  HD
BRANCH 15 17
ATOM     17  CA  GLU G 814     -18.100  31.523  19.043  1.00102.89 LIG 0.19  C 
BRANCH 17 18
ATOM     18  CB  GLU G 814     -18.587  30.472  20.049  1.00101.97 LIG 0.05  C 
BRANCH 18 19
ATOM     19  CG  GLU G 814     -17.582  30.101  21.123  1.00100.63 LIG 0.12  C 
BRANCH 19 20
ATOM     20  CD  GLU G 814     -18.203  29.292  22.253  1.00100.36 LIG 0.17  C 
ATOM     21 OE1  GLU G 814     -17.753  28.148  22.483  1.00 99.71 LIG-0.65  OA
ATOM     22 OE2  GLU G 814     -19.134  29.799  22.914  1.00 99.42 LIG-0.65  OA
ENDBRANCH 19 20
ENDBRANCH 18 19
ENDBRANCH 17 18
BRANCH 17 23
ATOM     23  C   GLU G 814     -17.891  30.850  17.682  1.00103.78 LIG 0.20  C 
ATOM     24 OXT  GLU G 814     -16.729  30.775  17.220  1.00104.07 LIG-0.65  OA
ATOM     25 O    GLU G 814     -18.897  30.398  17.092  1.00104.32 LIG-0.65  OA
ENDBRANCH 17 23
ENDBRANCH 15 17
ENDBRANCH 12 13
ENDBRANCH 9 12
ENDBRANCH 1 8
BRANCH 1 26
ATOM     26  N   HIS G 812     -24.897  32.324  19.478  1.00 98.48 LIG-0.35  N 
ATOM     27  C   GLY G 811     -26.057  31.695  19.282  1.00 98.46 LIG 0.24  C 
ATOM     28 O    GLY G 811     -27.087  31.913  19.932  1.00 98.78 LIG-0.27  OA
ATOM     29 H    HIS G 812     -24.191  32.126  19.027  1.00 98.48 LIG 0.16  HD
BRANCH 27 30
ATOM     30  CA  GLY G 811     -26.032  30.648  18.179  1.00 98.06 LIG 0.23  C 
BRANCH 30 31
ATOM     31  N   GLY G 811     -27.307  30.056  17.813  1.00 97.66 LIG-0.35  N 
ATOM     32 H    GLY G 811     -27.997  30.526  18.017  1.00 97.66 LIG 0.16  HD
ATOM     33  C   GLN G 810     -27.351  28.870  17.208  1.00 97.43 LIG 0.26  C 
ATOM     34 O    GLN G 810     -26.342  28.214  16.949  1.00 97.76 LIG-0.27  OA
BRANCH 33 35
ATOM     35  CA  GLN G 810     -28.738  28.334  16.854  1.00 96.79 LIG 0.40  C 
ATOM     36  N   GLN G 810     -28.626  27.047  16.108  1.00 96.61 LIG 0.61  N 
BRANCH 35 37
ATOM     37  CB  GLN G 810     -29.533  28.133  18.142  1.00 96.38 LIG 0.06  C 
BRANCH 37 38
ATOM     38  CG  GLN G 810     -31.019  28.444  18.051  1.00 95.56 LIG 0.10  C 
BRANCH 38 39
ATOM     39  CD  GLN G 810     -31.781  27.363  17.317  1.00 95.11 LIG 0.21  C 
ATOM     40  NE2 GLN G 810     -33.070  27.246  17.619  1.00 94.31 LIG-0.37  N 
ATOM     41 21HE GLN G 810     -33.423  27.768  18.204  1.00 94.31 LIG 0.16  HD
ATOM     42 22HE GLN G 810     -33.550  26.648  17.230  1.00 94.31 LIG 0.16  HD
ATOM     43 OE1  GLN G 810     -31.224  26.643  16.488  1.00 94.65 LIG-0.27  OA
ENDBRANCH 38 39
ENDBRANCH 37 38
ENDBRANCH 35 37
ENDBRANCH 33 35
ENDBRANCH 30 31
ENDBRANCH 27 30
ENDBRANCH 1 26
TORSDOF 17
ENDMDL
MODEL 53
USER: ADFR SOLUTION from run 68
USER: SCORE 12.372432 LL:  -2.519 LR: -10.380 RR:   0.000 FEB:  -5.309
USER: RMSD 7.070386
USER: SEED 67
USER: STATUS no improvement in best in 9 clusters for 5 generations
USER: GENES 19
USER: genes 0 Translation |==|  0.34804 0.31441 0.41083
USER: genes 1 Rotation |==|  0.48147 0.45326 0.44334 0.99423
USER: genes 2 Torsion [C]-CA--CB-[CG] |==|  0.34712
USER: genes 3 Torsion [CA]-CB--CG-[CD2] |==|  0.26771
USER: genes 4 Torsion [N]-CA--C-[N] |==|  0.14444
USER: genes 5 Torsion [C]-N--CA-[C] |==|  0.69931
USER: genes 6 Torsion [N]-CA--C-[N] |==|  0.94135
USER: genes 7 Torsion [C]-N--CA-[CB] |==|  0.42337
USER: genes 8 Torsion [N]-CA--CB-[CG] |==|  0.62435
USER: genes 9 Torsion [CA]-CB--CG-[CD] |==|  0.61757
USER: genes 10 Torsion [CB]-CG--CD-[OE2] |==|  0.28053
USER: genes 11 Torsion [N]-CA--C-[OXT] |==|  0.77119
USER: genes 12 Torsion [CB]-CA--N-[C] |==|  0.12948
USER: genes 13 Torsion [N]-C--CA-[N] |==|  0.94447
USER: genes 14 Torsion [C]-CA--N-[C] |==|  0.27136
USER: genes 15 Torsion [N]-C--CA-[N] |==|  0.60280
USER: genes 16 Torsion [C]-CA--CB-[CG] |==|  0.32132
USER: genes 17 Torsion [CA]-CB--CG-[CD] |==|  0.77933
USER: genes 18 Torsion [CB]-CG--CD-[NE2] |==|  0.82269
ROOT
ATOM      1  CA  HIS G 812     -29.007  30.293  19.526  1.00 98.11 LIG 0.18  C 
ENDROOT
BRANCH 1 2
ATOM      2  CB  HIS G 812     -29.015  28.761  19.435  1.00 96.29 LIG 0.10  C 
BRANCH 2 3
ATOM      3  CG  HIS G 812     -29.923  28.183  18.385  1.00 94.00 LIG 0.06  A 
ATOM      4  CD2 HIS G 812     -29.676  27.774  17.125  1.00 93.71 LIG 0.14  A 
ATOM      5 NE2  HIS G 812     -30.894  27.519  16.528  1.00 93.19 LIG-0.25  NA
ATOM      6  CE1 HIS G 812     -31.849  27.756  17.411  1.00 92.78 LIG 0.23  A 
ATOM      7 ND1  HIS G 812     -31.294  28.152  18.538  1.00 93.58 LIG-0.24  NA
ENDBRANCH 2 3
ENDBRANCH 1 2
BRANCH 1 8
ATOM      8  C   HIS G 812     -29.341  30.639  20.974  1.00 99.25 LIG 0.24  C 
ATOM      9  N   GLY G 813     -29.153  31.893  21.365  1.00100.26 LIG-0.35  N 
ATOM     10 H    GLY G 813     -28.849  32.523  20.868  1.00100.26 LIG 0.16  HD
ATOM     11 O    HIS G 812     -29.794  29.771  21.723  1.00 99.52 LIG-0.27  OA
BRANCH 9 12
ATOM     12  CA  GLY G 813     -29.470  32.276  22.730  1.00101.48 LIG 0.23  C 
BRANCH 12 13
ATOM     13  C   GLY G 813     -30.711  33.146  22.832  1.00102.44 LIG 0.24  C 
ATOM     14 O    GLY G 813     -31.315  33.231  23.901  1.00102.98 LIG-0.27  OA
ATOM     15  N   GLU G 814     -31.094  33.798  21.735  1.00102.70 LIG-0.34  N 
ATOM     16 H    GLU G 814     -30.678  33.764  20.983  1.00102.70 LIG 0.16  HD
BRANCH 15 17
ATOM     17  CA  GLU G 814     -32.288  34.646  21.735  1.00102.89 LIG 0.19  C 
BRANCH 17 18
ATOM     18  CB  GLU G 814     -32.164  35.766  20.693  1.00101.97 LIG 0.05  C 
BRANCH 18 19
ATOM     19  CG  GLU G 814     -32.588  37.139  21.177  1.00100.63 LIG 0.12  C 
BRANCH 19 20
ATOM     20  CD  GLU G 814     -33.408  37.898  20.144  1.00100.36 LIG 0.17  C 
ATOM     21 OE1  GLU G 814     -32.808  38.451  19.196  1.00 99.71 LIG-0.65  OA
ATOM     22 OE2  GLU G 814     -34.650  37.937  20.274  1.00 99.42 LIG-0.65  OA
ENDBRANCH 19 20
ENDBRANCH 18 19
ENDBRANCH 17 18
BRANCH 17 23
ATOM     23  C   GLU G 814     -33.540  33.818  21.428  1.00103.78 LIG 0.20  C 
ATOM     24 OXT  GLU G 814     -33.815  33.562  20.233  1.00104.07 LIG-0.65  OA
ATOM     25 O    GLU G 814     -34.234  33.427  22.393  1.00104.32 LIG-0.65  OA
ENDBRANCH 17 23
ENDBRANCH 15 17
ENDBRANCH 12 13
ENDBRANCH 9 12
ENDBRANCH 1 8
BRANCH 1 26
ATOM     26  N   HIS G 812     -27.638  30.812  19.410  1.00 98.48 LIG-0.35  N 
ATOM     27  C   GLY G 811     -26.740  30.438  18.497  1.00 98.46 LIG 0.24  C 
ATOM     28 O    GLY G 811     -26.935  29.563  17.644  1.00 98.78 LIG-0.27  OA
ATOM     29 H    HIS G 812     -27.459  31.403  20.008  1.00 98.48 LIG 0.16  HD
BRANCH 27 30
ATOM     30  CA  GLY G 811     -25.410  31.171  18.579  1.00 98.06 LIG 0.23  C 
BRANCH 30 31
ATOM     31  N   GLY G 811     -25.409  32.441  19.285  1.00 97.66 LIG-0.35  N 
ATOM     32 H    GLY G 811     -25.672  33.115  18.820  1.00 97.66 LIG 0.16  HD
ATOM     33  C   GLN G 810     -25.020  32.506  20.557  1.00 97.43 LIG 0.26  C 
ATOM     34 O    GLN G 810     -24.629  31.523  21.187  1.00 97.76 LIG-0.27  OA
BRANCH 33 35
ATOM     35  CA  GLN G 810     -25.062  33.885  21.215  1.00 96.79 LIG 0.40  C 
ATOM     36  N   GLN G 810     -23.906  34.057  22.143  1.00 96.61 LIG 0.61  N 
BRANCH 35 37
ATOM     37  CB  GLN G 810     -25.030  34.953  20.125  1.00 96.38 LIG 0.06  C 
BRANCH 37 38
ATOM     38  CG  GLN G 810     -26.274  35.822  20.023  1.00 95.56 LIG 0.10  C 
BRANCH 38 39
ATOM     39  CD  GLN G 810     -27.396  35.124  19.288  1.00 95.11 LIG 0.21  C 
ATOM     40  NE2 GLN G 810     -27.169  34.832  18.011  1.00 94.31 LIG-0.37  N 
ATOM     41 21HE GLN G 810     -26.418  35.042  17.649  1.00 94.31 LIG 0.16  HD
ATOM     42 22HE GLN G 810     -27.774  34.434  17.547  1.00 94.31 LIG 0.16  HD
ATOM     43 OE1  GLN G 810     -28.454  34.847  19.855  1.00 94.65 LIG-0.27  OA
ENDBRANCH 38 39
ENDBRANCH 37 38
ENDBRANCH 35 37
ENDBRANCH 33 35
ENDBRANCH 30 31
ENDBRANCH 27 30
ENDBRANCH 1 26
TORSDOF 17
ENDMDL
MODEL 54
USER: ADFR SOLUTION from run 149
USER: SCORE 12.055101 LL:  -2.324 LR: -10.305 RR:   0.000 FEB:  -5.234
USER: RMSD 10.492887
USER: SEED 148
USER: STATUS no improvement in best in 10 clusters for 5 generations
USER: GENES 19
USER: genes 0 Translation |==|  0.66025 0.65190 0.27071
USER: genes 1 Rotation |==|  0.69433 0.49522 0.89534 0.73648
USER: genes 2 Torsion [C]-CA--CB-[CG] |==|  0.30220
USER: genes 3 Torsion [CA]-CB--CG-[CD2] |==|  0.25318
USER: genes 4 Torsion [N]-CA--C-[N] |==|  0.11980
USER: genes 5 Torsion [C]-N--CA-[C] |==|  0.72595
USER: genes 6 Torsion [N]-CA--C-[N] |==|  0.38334
USER: genes 7 Torsion [C]-N--CA-[CB] |==|  0.35027
USER: genes 8 Torsion [N]-CA--CB-[CG] |==|  0.17907
USER: genes 9 Torsion [CA]-CB--CG-[CD] |==|  0.57025
USER: genes 10 Torsion [CB]-CG--CD-[OE2] |==|  0.30000
USER: genes 11 Torsion [N]-CA--C-[OXT] |==|  0.48706
USER: genes 12 Torsion [CB]-CA--N-[C] |==|  0.16038
USER: genes 13 Torsion [N]-C--CA-[N] |==|  0.92353
USER: genes 14 Torsion [C]-CA--N-[C] |==|  0.81852
USER: genes 15 Torsion [N]-C--CA-[N] |==|  0.83545
USER: genes 16 Torsion [C]-CA--CB-[CG] |==|  0.15626
USER: genes 17 Torsion [CA]-CB--CG-[CD] |==|  0.73171
USER: genes 18 Torsion [CB]-CG--CD-[NE2] |==|  0.26626
ROOT
ATOM      1  CA  HIS G 812     -22.919  36.621  16.058  1.00 98.11 LIG 0.18  C 
ENDROOT
BRANCH 1 2
ATOM      2  CB  HIS G 812     -22.015  37.759  15.564  1.00 96.29 LIG 0.10  C 
BRANCH 2 3
ATOM      3  CG  HIS G 812     -21.487  37.601  14.165  1.00 94.00 LIG 0.06  A 
ATOM      4  CD2 HIS G 812     -21.976  38.012  12.979  1.00 93.71 LIG 0.14  A 
ATOM      5 NE2  HIS G 812     -21.208  37.431  11.992  1.00 93.19 LIG-0.25  NA
ATOM      6  CE1 HIS G 812     -20.270  36.698  12.569  1.00 92.78 LIG 0.23  A 
ATOM      7 ND1  HIS G 812     -20.411  36.786  13.876  1.00 93.58 LIG-0.24  NA
ENDBRANCH 2 3
ENDBRANCH 1 2
BRANCH 1 8
ATOM      8  C   HIS G 812     -22.114  35.857  17.104  1.00 99.25 LIG 0.24  C 
ATOM      9  N   GLY G 813     -22.787  35.117  17.977  1.00100.26 LIG-0.35  N 
ATOM     10 H    GLY G 813     -23.642  35.042  18.002  1.00100.26 LIG 0.16  HD
ATOM     11 O    HIS G 812     -20.883  35.921  17.100  1.00 99.52 LIG-0.27  OA
BRANCH 9 12
ATOM     12  CA  GLY G 813     -22.066  34.357  18.984  1.00101.48 LIG 0.23  C 
BRANCH 12 13
ATOM     13  C   GLY G 813     -21.883  32.896  18.612  1.00102.44 LIG 0.24  C 
ATOM     14 O    GLY G 813     -22.810  32.274  18.096  1.00102.98 LIG-0.27  OA
ATOM     15  N   GLU G 814     -20.696  32.345  18.860  1.00102.70 LIG-0.34  N 
ATOM     16 H    GLU G 814     -20.030  32.766  19.206  1.00102.70 LIG 0.16  HD
BRANCH 15 17
ATOM     17  CA  GLU G 814     -20.434  30.938  18.551  1.00102.89 LIG 0.19  C 
BRANCH 17 18
ATOM     18  CB  GLU G 814     -19.187  30.794  17.668  1.00101.97 LIG 0.05  C 
BRANCH 18 19
ATOM     19  CG  GLU G 814     -17.889  31.232  18.319  1.00100.63 LIG 0.12  C 
BRANCH 19 20
ATOM     20  CD  GLU G 814     -16.838  31.656  17.303  1.00100.36 LIG 0.17  C 
ATOM     21 OE1  GLU G 814     -16.294  30.773  16.604  1.00 99.71 LIG-0.65  OA
ATOM     22 OE2  GLU G 814     -16.560  32.869  17.197  1.00 99.42 LIG-0.65  OA
ENDBRANCH 19 20
ENDBRANCH 18 19
ENDBRANCH 17 18
BRANCH 17 23
ATOM     23  C   GLU G 814     -20.228  30.130  19.837  1.00103.78 LIG 0.20  C 
ATOM     24 OXT  GLU G 814     -20.081  28.889  19.751  1.00104.07 LIG-0.65  OA
ATOM     25 O    GLU G 814     -20.211  30.752  20.922  1.00104.32 LIG-0.65  OA
ENDBRANCH 17 23
ENDBRANCH 15 17
ENDBRANCH 12 13
ENDBRANCH 9 12
ENDBRANCH 1 8
BRANCH 1 26
ATOM     26  N   HIS G 812     -24.023  37.152  16.869  1.00 98.48 LIG-0.35  N 
ATOM     27  C   GLY G 811     -24.922  38.052  16.464  1.00 98.46 LIG 0.24  C 
ATOM     28 O    GLY G 811     -24.915  38.593  15.352  1.00 98.78 LIG-0.27  OA
ATOM     29 H    HIS G 812     -24.040  36.817  17.661  1.00 98.48 LIG 0.16  HD
BRANCH 27 30
ATOM     30  CA  GLY G 811     -25.986  38.392  17.496  1.00 98.06 LIG 0.23  C 
BRANCH 30 31
ATOM     31  N   GLY G 811     -26.305  37.360  18.467  1.00 97.66 LIG-0.35  N 
ATOM     32 H    GLY G 811     -26.103  37.553  19.281  1.00 97.66 LIG 0.16  HD
ATOM     33  C   GLN G 810     -26.868  36.218  18.078  1.00 97.43 LIG 0.26  C 
ATOM     34 O    GLN G 810     -27.125  35.966  16.901  1.00 97.76 LIG-0.27  OA
BRANCH 33 35
ATOM     35  CA  GLN G 810     -27.175  35.198  19.175  1.00 96.79 LIG 0.40  C 
ATOM     36  N   GLN G 810     -25.925  34.810  19.893  1.00 96.61 LIG 0.61  N 
BRANCH 35 37
ATOM     37  CB  GLN G 810     -28.178  35.810  20.150  1.00 96.38 LIG 0.06  C 
BRANCH 37 38
ATOM     38  CG  GLN G 810     -29.478  36.300  19.532  1.00 95.56 LIG 0.10  C 
BRANCH 38 39
ATOM     39  CD  GLN G 810     -29.446  37.784  19.244  1.00 95.11 LIG 0.21  C 
ATOM     40  NE2 GLN G 810     -29.114  38.135  18.006  1.00 94.31 LIG-0.37  N 
ATOM     41 21HE GLN G 810     -28.931  37.531  17.422  1.00 94.31 LIG 0.16  HD
ATOM     42 22HE GLN G 810     -29.082  38.967  17.789  1.00 94.31 LIG 0.16  HD
ATOM     43 OE1  GLN G 810     -29.717  38.608  20.119  1.00 94.65 LIG-0.27  OA
ENDBRANCH 38 39
ENDBRANCH 37 38
ENDBRANCH 35 37
ENDBRANCH 33 35
ENDBRANCH 30 31
ENDBRANCH 27 30
ENDBRANCH 1 26
TORSDOF 17
ENDMDL
MODEL 55
USER: ADFR SOLUTION from run 79
USER: SCORE 11.204021 LL:  -2.155 LR: -10.299 RR:   0.000 FEB:  -5.228
USER: RMSD 6.462928
USER: SEED 78
USER: STATUS no improvement in best in 17 clusters for 5 generations
USER: GENES 19
USER: genes 0 Translation |==|  0.48372 0.36061 0.37140
USER: genes 1 Rotation |==|  0.57140 0.39129 0.44062 0.97912
USER: genes 2 Torsion [C]-CA--CB-[CG] |==|  0.16384
USER: genes 3 Torsion [CA]-CB--CG-[CD2] |==|  0.27947
USER: genes 4 Torsion [N]-CA--C-[N] |==|  0.29249
USER: genes 5 Torsion [C]-N--CA-[C] |==|  0.45745
USER: genes 6 Torsion [N]-CA--C-[N] |==|  0.41667
USER: genes 7 Torsion [C]-N--CA-[CB] |==|  0.22370
USER: genes 8 Torsion [N]-CA--CB-[CG] |==|  0.46864
USER: genes 9 Torsion [CA]-CB--CG-[CD] |==|  0.38644
USER: genes 10 Torsion [CB]-CG--CD-[OE2] |==|  0.92839
USER: genes 11 Torsion [N]-CA--C-[OXT] |==|  0.26406
USER: genes 12 Torsion [CB]-CA--N-[C] |==|  0.53557
USER: genes 13 Torsion [N]-C--CA-[N] |==|  0.95256
USER: genes 14 Torsion [C]-CA--N-[C] |==|  0.32420
USER: genes 15 Torsion [N]-C--CA-[N] |==|  0.36343
USER: genes 16 Torsion [C]-CA--CB-[CG] |==|  0.59131
USER: genes 17 Torsion [CA]-CB--CG-[CD] |==|  0.24173
USER: genes 18 Torsion [CB]-CG--CD-[NE2] |==|  0.99721
ROOT
ATOM      1  CA  HIS G 812     -26.361  31.159  18.550  1.00 98.11 LIG 0.18  C 
ENDROOT
BRANCH 1 2
ATOM      2  CB  HIS G 812     -26.232  29.739  17.983  1.00 96.29 LIG 0.10  C 
BRANCH 2 3
ATOM      3  CG  HIS G 812     -27.531  29.022  17.740  1.00 94.00 LIG 0.06  A 
ATOM      4  CD2 HIS G 812     -28.234  28.816  16.608  1.00 93.71 LIG 0.14  A 
ATOM      5 NE2  HIS G 812     -29.451  28.279  16.971  1.00 93.19 LIG-0.25  NA
ATOM      6  CE1 HIS G 812     -29.476  28.151  18.287  1.00 92.78 LIG 0.23  A 
ATOM      7 ND1  HIS G 812     -28.333  28.585  18.775  1.00 93.58 LIG-0.24  NA
ENDBRANCH 2 3
ENDBRANCH 1 2
BRANCH 1 8
ATOM      8  C   HIS G 812     -27.112  31.028  19.871  1.00 99.25 LIG 0.24  C 
ATOM      9  N   GLY G 813     -28.035  31.941  20.147  1.00100.26 LIG-0.35  N 
ATOM     10 H    GLY G 813     -28.236  32.606  19.641  1.00100.26 LIG 0.16  HD
ATOM     11 O    HIS G 812     -26.870  30.083  20.624  1.00 99.52 LIG-0.27  OA
BRANCH 9 12
ATOM     12  CA  GLY G 813     -28.789  31.852  21.385  1.00101.48 LIG 0.23  C 
BRANCH 12 13
ATOM     13  C   GLY G 813     -29.524  33.136  21.730  1.00102.44 LIG 0.24  C 
ATOM     14 O    GLY G 813     -29.069  34.220  21.368  1.00102.98 LIG-0.27  OA
ATOM     15  N   GLU G 814     -30.659  33.026  22.418  1.00102.70 LIG-0.34  N 
ATOM     16 H    GLU G 814     -31.002  32.278  22.668  1.00102.70 LIG 0.16  HD
BRANCH 15 17
ATOM     17  CA  GLU G 814     -31.426  34.210  22.811  1.00102.89 LIG 0.19  C 
BRANCH 17 18
ATOM     18  CB  GLU G 814     -32.280  34.721  21.642  1.00101.97 LIG 0.05  C 
BRANCH 18 19
ATOM     19  CG  GLU G 814     -33.308  35.772  22.014  1.00100.63 LIG 0.12  C 
BRANCH 19 20
ATOM     20  CD  GLU G 814     -33.405  36.888  20.983  1.00100.36 LIG 0.17  C 
ATOM     21 OE1  GLU G 814     -34.478  37.523  20.892  1.00 99.71 LIG-0.65  OA
ATOM     22 OE2  GLU G 814     -32.410  37.135  20.269  1.00 99.42 LIG-0.65  OA
ENDBRANCH 19 20
ENDBRANCH 18 19
ENDBRANCH 17 18
BRANCH 17 23
ATOM     23  C   GLU G 814     -32.344  33.894  23.996  1.00103.78 LIG 0.20  C 
ATOM     24 OXT  GLU G 814     -31.940  34.147  25.154  1.00104.07 LIG-0.65  OA
ATOM     25 O    GLU G 814     -33.466  33.398  23.751  1.00104.32 LIG-0.65  OA
ENDBRANCH 17 23
ENDBRANCH 15 17
ENDBRANCH 12 13
ENDBRANCH 9 12
ENDBRANCH 1 8
BRANCH 1 26
ATOM     26  N   HIS G 812     -25.056  31.656  19.004  1.00 98.48 LIG-0.35  N 
ATOM     27  C   GLY G 811     -24.855  32.739  19.757  1.00 98.46 LIG 0.24  C 
ATOM     28 O    GLY G 811     -25.754  33.498  20.141  1.00 98.78 LIG-0.27  OA
ATOM     29 H    HIS G 812     -24.404  31.166  18.730  1.00 98.48 LIG 0.16  HD
BRANCH 27 30
ATOM     30  CA  GLY G 811     -23.401  32.998  20.119  1.00 98.06 LIG 0.23  C 
BRANCH 30 31
ATOM     31  N   GLY G 811     -22.480  31.887  19.954  1.00 97.66 LIG-0.35  N 
ATOM     32 H    GLY G 811     -22.640  31.206  20.453  1.00 97.66 LIG 0.16  HD
ATOM     33  C   GLN G 810     -21.478  31.966  19.080  1.00 97.43 LIG 0.26  C 
ATOM     34 O    GLN G 810     -21.265  32.967  18.394  1.00 97.76 LIG-0.27  OA
BRANCH 33 35
ATOM     35  CA  GLN G 810     -20.568  30.742  18.971  1.00 96.79 LIG 0.40  C 
ATOM     36  N   GLN G 810     -20.386  30.352  17.542  1.00 96.61 LIG 0.61  N 
BRANCH 35 37
ATOM     37  CB  GLN G 810     -19.220  31.072  19.606  1.00 96.38 LIG 0.06  C 
BRANCH 37 38
ATOM     38  CG  GLN G 810     -18.014  30.398  18.971  1.00 95.56 LIG 0.10  C 
BRANCH 38 39
ATOM     39  CD  GLN G 810     -17.461  31.198  17.812  1.00 95.11 LIG 0.21  C 
ATOM     40  NE2 GLN G 810     -18.102  32.324  17.517  1.00 94.31 LIG-0.37  N 
ATOM     41 21HE GLN G 810     -18.792  32.558  17.975  1.00 94.31 LIG 0.16  HD
ATOM     42 22HE GLN G 810     -17.829  32.817  16.868  1.00 94.31 LIG 0.16  HD
ATOM     43 OE1  GLN G 810     -16.469  30.815  17.190  1.00 94.65 LIG-0.27  OA
ENDBRANCH 38 39
ENDBRANCH 37 38
ENDBRANCH 35 37
ENDBRANCH 33 35
ENDBRANCH 30 31
ENDBRANCH 27 30
ENDBRANCH 1 26
TORSDOF 17
ENDMDL
MODEL 56
USER: ADFR SOLUTION from run 114
USER: SCORE 11.022896 LL:  -2.002 LR: -10.274 RR:   0.000 FEB:  -5.203
USER: RMSD 10.720148
USER: SEED 113
USER: STATUS no improvement in best in 29 clusters for 5 generations
USER: GENES 19
USER: genes 0 Translation |==|  0.69562 0.62464 0.30307
USER: genes 1 Rotation |==|  0.67520 0.61888 0.94530 0.58296
USER: genes 2 Torsion [C]-CA--CB-[CG] |==|  0.28385
USER: genes 3 Torsion [CA]-CB--CG-[CD2] |==|  0.37769
USER: genes 4 Torsion [N]-CA--C-[N] |==|  0.33064
USER: genes 5 Torsion [C]-N--CA-[C] |==|  0.40252
USER: genes 6 Torsion [N]-CA--C-[N] |==|  0.06371
USER: genes 7 Torsion [C]-N--CA-[CB] |==|  0.20955
USER: genes 8 Torsion [N]-CA--CB-[CG] |==|  0.45228
USER: genes 9 Torsion [CA]-CB--CG-[CD] |==|  0.28330
USER: genes 10 Torsion [CB]-CG--CD-[OE2] |==|  0.39998
USER: genes 11 Torsion [N]-CA--C-[OXT] |==|  0.80963
USER: genes 12 Torsion [CB]-CA--N-[C] |==|  0.88333
USER: genes 13 Torsion [N]-C--CA-[N] |==|  0.98666
USER: genes 14 Torsion [C]-CA--N-[C] |==|  0.26640
USER: genes 15 Torsion [N]-C--CA-[N] |==|  0.30734
USER: genes 16 Torsion [C]-CA--CB-[CG] |==|  0.33227
USER: genes 17 Torsion [CA]-CB--CG-[CD] |==|  0.68305
USER: genes 18 Torsion [CB]-CG--CD-[NE2] |==|  0.52271
ROOT
ATOM      1  CA  HIS G 812     -22.229  36.110  16.859  1.00 98.11 LIG 0.18  C 
ENDROOT
BRANCH 1 2
ATOM      2  CB  HIS G 812     -22.417  37.417  16.075  1.00 96.29 LIG 0.10  C 
BRANCH 2 3
ATOM      3  CG  HIS G 812     -21.809  37.436  14.700  1.00 94.00 LIG 0.06  A 
ATOM      4  CD2 HIS G 812     -22.290  37.881  13.523  1.00 93.71 LIG 0.14  A 
ATOM      5 NE2  HIS G 812     -21.411  37.477  12.540  1.00 93.19 LIG-0.25  NA
ATOM      6  CE1 HIS G 812     -20.419  36.816  13.112  1.00 92.78 LIG 0.23  A 
ATOM      7 ND1  HIS G 812     -20.629  36.781  14.412  1.00 93.58 LIG-0.24  NA
ENDBRANCH 2 3
ENDBRANCH 1 2
BRANCH 1 8
ATOM      8  C   HIS G 812     -21.111  36.368  17.864  1.00 99.25 LIG 0.24  C 
ATOM      9  N   GLY G 813     -20.072  35.543  17.852  1.00100.26 LIG-0.35  N 
ATOM     10 H    GLY G 813     -19.985  34.868  17.328  1.00100.26 LIG 0.16  HD
ATOM     11 O    HIS G 812     -21.183  37.333  18.628  1.00 99.52 LIG-0.27  OA
BRANCH 9 12
ATOM     12  CA  GLY G 813     -18.974  35.755  18.779  1.00101.48 LIG 0.23  C 
BRANCH 12 13
ATOM     13  C   GLY G 813     -18.352  34.460  19.273  1.00102.44 LIG 0.24  C 
ATOM     14 O    GLY G 813     -17.739  34.441  20.339  1.00102.98 LIG-0.27  OA
ATOM     15  N   GLU G 814     -18.510  33.376  18.514  1.00102.70 LIG-0.34  N 
ATOM     16 H    GLU G 814     -18.948  33.364  17.774  1.00102.70 LIG 0.16  HD
BRANCH 15 17
ATOM     17  CA  GLU G 814     -17.931  32.088  18.902  1.00102.89 LIG 0.19  C 
BRANCH 17 18
ATOM     18  CB  GLU G 814     -18.739  31.443  20.036  1.00101.97 LIG 0.05  C 
BRANCH 18 19
ATOM     19  CG  GLU G 814     -18.489  29.961  20.236  1.00100.63 LIG 0.12  C 
BRANCH 19 20
ATOM     20  CD  GLU G 814     -17.574  29.675  21.418  1.00100.36 LIG 0.17  C 
ATOM     21 OE1  GLU G 814     -16.640  30.472  21.656  1.00 99.71 LIG-0.65  OA
ATOM     22 OE2  GLU G 814     -17.789  28.659  22.112  1.00 99.42 LIG-0.65  OA
ENDBRANCH 19 20
ENDBRANCH 18 19
ENDBRANCH 17 18
BRANCH 17 23
ATOM     23  C   GLU G 814     -17.896  31.129  17.708  1.00103.78 LIG 0.20  C 
ATOM     24 OXT  GLU G 814     -18.979  30.691  17.256  1.00104.07 LIG-0.65  OA
ATOM     25 O    GLU G 814     -16.779  30.828  17.232  1.00104.32 LIG-0.65  OA
ENDBRANCH 17 23
ENDBRANCH 15 17
ENDBRANCH 12 13
ENDBRANCH 9 12
ENDBRANCH 1 8
BRANCH 1 26
ATOM     26  N   HIS G 812     -23.373  35.872  17.749  1.00 98.48 LIG-0.35  N 
ATOM     27  C   GLY G 811     -23.984  36.795  18.494  1.00 98.46 LIG 0.24  C 
ATOM     28 O    GLY G 811     -23.634  37.980  18.562  1.00 98.78 LIG-0.27  OA
ATOM     29 H    HIS G 812     -23.625  35.050  17.748  1.00 98.48 LIG 0.16  HD
BRANCH 27 30
ATOM     30  CA  GLY G 811     -25.173  36.281  19.291  1.00 98.06 LIG 0.23  C 
BRANCH 30 31
ATOM     31  N   GLY G 811     -25.561  34.900  19.065  1.00 97.66 LIG-0.35  N 
ATOM     32 H    GLY G 811     -26.076  34.773  18.389  1.00 97.66 LIG 0.16  HD
ATOM     33  C   GLN G 810     -25.124  33.936  19.874  1.00 97.43 LIG 0.26  C 
ATOM     34 O    GLN G 810     -24.403  34.155  20.848  1.00 97.76 LIG-0.27  OA
BRANCH 33 35
ATOM     35  CA  GLN G 810     -25.579  32.513  19.549  1.00 96.79 LIG 0.40  C 
ATOM     36  N   GLN G 810     -24.429  31.694  19.065  1.00 96.61 LIG 0.61  N 
BRANCH 35 37
ATOM     37  CB  GLN G 810     -26.181  31.889  20.806  1.00 96.38 LIG 0.06  C 
BRANCH 37 38
ATOM     38  CG  GLN G 810     -27.636  31.462  20.693  1.00 95.56 LIG 0.10  C 
BRANCH 38 39
ATOM     39  CD  GLN G 810     -28.539  32.279  21.591  1.00 95.11 LIG 0.21  C 
ATOM     40  NE2 GLN G 810     -29.799  31.869  21.687  1.00 94.31 LIG-0.37  N 
ATOM     41 21HE GLN G 810     -30.060  31.176  21.249  1.00 94.31 LIG 0.16  HD
ATOM     42 22HE GLN G 810     -30.354  32.297  22.185  1.00 94.31 LIG 0.16  HD
ATOM     43 OE1  GLN G 810     -28.112  33.264  22.195  1.00 94.65 LIG-0.27  OA
ENDBRANCH 38 39
ENDBRANCH 37 38
ENDBRANCH 35 37
ENDBRANCH 33 35
ENDBRANCH 30 31
ENDBRANCH 27 30
ENDBRANCH 1 26
TORSDOF 17
ENDMDL
MODEL 57
USER: ADFR SOLUTION from run 192
USER: SCORE 10.932071 LL:  -2.200 LR: -10.228 RR:   0.000 FEB:  -5.157
USER: RMSD 9.672109
USER: SEED 191
USER: STATUS no improvement in best in 30 clusters for 5 generations
USER: GENES 19
USER: genes 0 Translation |==|  0.64630 0.42720 0.38814
USER: genes 1 Rotation |==|  0.70559 0.42341 0.94903 0.51529
USER: genes 2 Torsion [C]-CA--CB-[CG] |==|  0.25521
USER: genes 3 Torsion [CA]-CB--CG-[CD2] |==|  0.76823
USER: genes 4 Torsion [N]-CA--C-[N] |==|  0.17222
USER: genes 5 Torsion [C]-N--CA-[C] |==|  0.20720
USER: genes 6 Torsion [N]-CA--C-[N] |==|  0.54999
USER: genes 7 Torsion [C]-N--CA-[CB] |==|  0.34002
USER: genes 8 Torsion [N]-CA--CB-[CG] |==|  0.22181
USER: genes 9 Torsion [CA]-CB--CG-[CD] |==|  0.74268
USER: genes 10 Torsion [CB]-CG--CD-[OE2] |==|  0.18105
USER: genes 11 Torsion [N]-CA--C-[OXT] |==|  0.53877
USER: genes 12 Torsion [CB]-CA--N-[C] |==|  0.11604
USER: genes 13 Torsion [N]-C--CA-[N] |==|  0.79437
USER: genes 14 Torsion [C]-CA--N-[C] |==|  0.59116
USER: genes 15 Torsion [N]-C--CA-[N] |==|  0.53837
USER: genes 16 Torsion [C]-CA--CB-[CG] |==|  0.27594
USER: genes 17 Torsion [CA]-CB--CG-[CD] |==|  0.25366
USER: genes 18 Torsion [CB]-CG--CD-[NE2] |==|  0.47047
ROOT
ATOM      1  CA  HIS G 812     -23.191  32.408  18.964  1.00 98.11 LIG 0.18  C 
ENDROOT
BRANCH 1 2
ATOM      2  CB  HIS G 812     -23.296  33.870  19.423  1.00 96.29 LIG 0.10  C 
BRANCH 2 3
ATOM      3  CG  HIS G 812     -22.498  34.856  18.616  1.00 94.00 LIG 0.06  A 
ATOM      4  CD2 HIS G 812     -21.202  35.217  18.684  1.00 93.71 LIG 0.14  A 
ATOM      5 NE2  HIS G 812     -21.032  36.305  17.853  1.00 93.19 LIG-0.25  NA
ATOM      6  CE1 HIS G 812     -22.195  36.585  17.289  1.00 92.78 LIG 0.23  A 
ATOM      7 ND1  HIS G 812     -23.094  35.726  17.725  1.00 93.58 LIG-0.24  NA
ENDBRANCH 2 3
ENDBRANCH 1 2
BRANCH 1 8
ATOM      8  C   HIS G 812     -22.047  31.789  19.761  1.00 99.25 LIG 0.24  C 
ATOM      9  N   GLY G 813     -21.792  30.501  19.569  1.00100.26 LIG-0.35  N 
ATOM     10 H    GLY G 813     -22.228  29.986  19.037  1.00100.26 LIG 0.16  HD
ATOM     11 O    HIS G 812     -21.383  32.489  20.528  1.00 99.52 LIG-0.27  OA
BRANCH 9 12
ATOM     12  CA  GLY G 813     -20.703  29.867  20.293  1.00101.48 LIG 0.23  C 
BRANCH 12 13
ATOM     13  C   GLY G 813     -21.027  29.612  21.755  1.00102.44 LIG 0.24  C 
ATOM     14 O    GLY G 813     -22.197  29.614  22.134  1.00102.98 LIG-0.27  OA
ATOM     15  N   GLU G 814     -20.004  29.385  22.577  1.00102.70 LIG-0.34  N 
ATOM     16 H    GLU G 814     -19.180  29.364  22.331  1.00102.70 LIG 0.16  HD
BRANCH 15 17
ATOM     17  CA  GLU G 814     -20.219  29.148  24.007  1.00102.89 LIG 0.19  C 
BRANCH 17 18
ATOM     18  CB  GLU G 814     -19.635  27.793  24.430  1.00101.97 LIG 0.05  C 
BRANCH 18 19
ATOM     19  CG  GLU G 814     -18.135  27.786  24.656  1.00100.63 LIG 0.12  C 
BRANCH 19 20
ATOM     20  CD  GLU G 814     -17.357  27.386  23.411  1.00100.36 LIG 0.17  C 
ATOM     21 OE1  GLU G 814     -16.707  26.317  23.432  1.00 99.71 LIG-0.65  OA
ATOM     22 OE2  GLU G 814     -17.397  28.133  22.411  1.00 99.42 LIG-0.65  OA
ENDBRANCH 19 20
ENDBRANCH 18 19
ENDBRANCH 17 18
BRANCH 17 23
ATOM     23  C   GLU G 814     -19.568  30.253  24.844  1.00103.78 LIG 0.20  C 
ATOM     24 OXT  GLU G 814     -19.426  30.071  26.075  1.00104.07 LIG-0.65  OA
ATOM     25 O    GLU G 814     -19.200  31.293  24.255  1.00104.32 LIG-0.65  OA
ENDBRANCH 17 23
ENDBRANCH 15 17
ENDBRANCH 12 13
ENDBRANCH 9 12
ENDBRANCH 1 8
BRANCH 1 26
ATOM     26  N   HIS G 812     -24.339  31.631  19.449  1.00 98.48 LIG-0.35  N 
ATOM     27  C   GLY G 811     -25.608  32.044  19.461  1.00 98.46 LIG 0.24  C 
ATOM     28 O    GLY G 811     -25.980  33.167  19.099  1.00 98.78 LIG-0.27  OA
ATOM     29 H    HIS G 812     -24.112  30.852  19.735  1.00 98.48 LIG 0.16  HD
BRANCH 27 30
ATOM     30  CA  GLY G 811     -26.604  31.016  19.976  1.00 98.06 LIG 0.23  C 
BRANCH 30 31
ATOM     31  N   GLY G 811     -26.916  29.909  19.089  1.00 97.66 LIG-0.35  N 
ATOM     32 H    GLY G 811     -26.269  29.654  18.585  1.00 97.66 LIG 0.16  HD
ATOM     33  C   GLN G 810     -28.131  29.364  19.093  1.00 97.43 LIG 0.26  C 
ATOM     34 O    GLN G 810     -29.043  29.768  19.815  1.00 97.76 LIG-0.27  OA
BRANCH 33 35
ATOM     35  CA  GLN G 810     -28.361  28.198  18.131  1.00 96.79 LIG 0.40  C 
ATOM     36  N   GLN G 810     -29.819  27.910  17.997  1.00 96.61 LIG 0.61  N 
BRANCH 35 37
ATOM     37  CB  GLN G 810     -27.765  28.556  16.772  1.00 96.38 LIG 0.06  C 
BRANCH 37 38
ATOM     38  CG  GLN G 810     -26.392  27.970  16.483  1.00 95.56 LIG 0.10  C 
BRANCH 38 39
ATOM     39  CD  GLN G 810     -26.481  26.632  15.784  1.00 95.11 LIG 0.21  C 
ATOM     40  NE2 GLN G 810     -25.344  26.147  15.297  1.00 94.31 LIG-0.37  N 
ATOM     41 21HE GLN G 810     -24.613  26.591  15.388  1.00 94.31 LIG 0.16  HD
ATOM     42 22HE GLN G 810     -25.338  25.388  14.891  1.00 94.31 LIG 0.16  HD
ATOM     43 OE1  GLN G 810     -27.555  26.037  15.682  1.00 94.65 LIG-0.27  OA
ENDBRANCH 38 39
ENDBRANCH 37 38
ENDBRANCH 35 37
ENDBRANCH 33 35
ENDBRANCH 30 31
ENDBRANCH 27 30
ENDBRANCH 1 26
TORSDOF 17
ENDMDL
MODEL 58
USER: ADFR SOLUTION from run 33
USER: SCORE 11.490532 LL:  -2.301 LR: -10.213 RR:   0.000 FEB:  -5.142
USER: RMSD 8.552499
USER: SEED 32
USER: STATUS no improvement in best in 6 clusters for 5 generations
USER: GENES 19
USER: genes 0 Translation |==|  0.49356 0.43263 0.42046
USER: genes 1 Rotation |==|  0.61995 0.75496 0.57718 0.90577
USER: genes 2 Torsion [C]-CA--CB-[CG] |==|  0.30123
USER: genes 3 Torsion [CA]-CB--CG-[CD2] |==|  0.46667
USER: genes 4 Torsion [N]-CA--C-[N] |==|  0.94544
USER: genes 5 Torsion [C]-N--CA-[C] |==|  0.23255
USER: genes 6 Torsion [N]-CA--C-[N] |==|  0.48858
USER: genes 7 Torsion [C]-N--CA-[CB] |==|  0.21085
USER: genes 8 Torsion [N]-CA--CB-[CG] |==|  0.32180
USER: genes 9 Torsion [CA]-CB--CG-[CD] |==|  0.53496
USER: genes 10 Torsion [CB]-CG--CD-[OE2] |==|  0.68762
USER: genes 11 Torsion [N]-CA--C-[OXT] |==|  0.41167
USER: genes 12 Torsion [CB]-CA--N-[C] |==|  0.26111
USER: genes 13 Torsion [N]-C--CA-[N] |==|  0.04324
USER: genes 14 Torsion [C]-CA--N-[C] |==|  0.73913
USER: genes 15 Torsion [N]-C--CA-[N] |==|  0.82511
USER: genes 16 Torsion [C]-CA--CB-[CG] |==|  0.66504
USER: genes 17 Torsion [CA]-CB--CG-[CD] |==|  0.67848
USER: genes 18 Torsion [CB]-CG--CD-[NE2] |==|  0.90821
ROOT
ATOM      1  CA  HIS G 812     -26.170  32.510  19.764  1.00 98.11 LIG 0.18  C 
ENDROOT
BRANCH 1 2
ATOM      2  CB  HIS G 812     -26.238  31.472  18.635  1.00 96.29 LIG 0.10  C 
BRANCH 2 3
ATOM      3  CG  HIS G 812     -27.249  30.377  18.827  1.00 94.00 LIG 0.06  A 
ATOM      4  CD2 HIS G 812     -27.725  29.447  17.975  1.00 93.71 LIG 0.14  A 
ATOM      5 NE2  HIS G 812     -28.781  28.818  18.600  1.00 93.19 LIG-0.25  NA
ATOM      6  CE1 HIS G 812     -28.931  29.346  19.803  1.00 92.78 LIG 0.23  A 
ATOM      7 ND1  HIS G 812     -28.019  30.282  19.969  1.00 93.58 LIG-0.24  NA
ENDBRANCH 2 3
ENDBRANCH 1 2
BRANCH 1 8
ATOM      8  C   HIS G 812     -24.859  32.256  20.502  1.00 99.25 LIG 0.24  C 
ATOM      9  N   GLY G 813     -23.809  32.992  20.160  1.00100.26 LIG-0.35  N 
ATOM     10 H    GLY G 813     -23.809  33.596  19.548  1.00100.26 LIG 0.16  HD
ATOM     11 O    HIS G 812     -24.812  31.410  21.398  1.00 99.52 LIG-0.27  OA
BRANCH 9 12
ATOM     12  CA  GLY G 813     -22.541  32.800  20.843  1.00101.48 LIG 0.23  C 
BRANCH 12 13
ATOM     13  C   GLY G 813     -21.721  31.658  20.268  1.00102.44 LIG 0.24  C 
ATOM     14 O    GLY G 813     -22.184  30.964  19.364  1.00102.98 LIG-0.27  OA
ATOM     15  N   GLU G 814     -20.506  31.460  20.776  1.00102.70 LIG-0.34  N 
ATOM     16 H    GLU G 814     -20.157  31.942  21.397  1.00102.70 LIG 0.16  HD
BRANCH 15 17
ATOM     17  CA  GLU G 814     -19.651  30.372  20.297  1.00102.89 LIG 0.19  C 
BRANCH 17 18
ATOM     18  CB  GLU G 814     -19.041  30.717  18.931  1.00101.97 LIG 0.05  C 
BRANCH 18 19
ATOM     19  CG  GLU G 814     -17.530  30.848  18.921  1.00100.63 LIG 0.12  C 
BRANCH 19 20
ATOM     20  CD  GLU G 814     -17.005  31.481  17.640  1.00100.36 LIG 0.17  C 
ATOM     21 OE1  GLU G 814     -17.264  32.685  17.421  1.00 99.71 LIG-0.65  OA
ATOM     22 OE2  GLU G 814     -16.330  30.781  16.857  1.00 99.42 LIG-0.65  OA
ENDBRANCH 19 20
ENDBRANCH 18 19
ENDBRANCH 17 18
BRANCH 17 23
ATOM     23  C   GLU G 814     -18.519  30.093  21.291  1.00103.78 LIG 0.20  C 
ATOM     24 OXT  GLU G 814     -18.088  28.922  21.399  1.00104.07 LIG-0.65  OA
ATOM     25 O    GLU G 814     -18.070  31.056  21.951  1.00104.32 LIG-0.65  OA
ENDBRANCH 17 23
ENDBRANCH 15 17
ENDBRANCH 12 13
ENDBRANCH 9 12
ENDBRANCH 1 8
BRANCH 1 26
ATOM     26  N   HIS G 812     -25.942  33.854  19.219  1.00 98.48 LIG-0.35  N 
ATOM     27  C   GLY G 811     -26.892  34.745  18.926  1.00 98.46 LIG 0.24  C 
ATOM     28 O    GLY G 811     -28.105  34.534  19.041  1.00 98.78 LIG-0.27  OA
ATOM     29 H    HIS G 812     -25.108  34.024  19.100  1.00 98.48 LIG 0.16  HD
BRANCH 27 30
ATOM     30  CA  GLY G 811     -26.372  36.080  18.416  1.00 98.06 LIG 0.23  C 
BRANCH 30 31
ATOM     31  N   GLY G 811     -24.987  36.117  17.980  1.00 97.66 LIG-0.35  N 
ATOM     32 H    GLY G 811     -24.858  35.885  17.162  1.00 97.66 LIG 0.16  HD
ATOM     33  C   GLN G 810     -24.024  36.488  18.821  1.00 97.43 LIG 0.26  C 
ATOM     34 O    GLN G 810     -24.242  36.794  19.994  1.00 97.76 LIG-0.27  OA
BRANCH 33 35
ATOM     35  CA  GLN G 810     -22.600  36.504  18.267  1.00 96.79 LIG 0.40  C 
ATOM     36  N   GLN G 810     -22.180  35.130  17.864  1.00 96.61 LIG 0.61  N 
BRANCH 35 37
ATOM     37  CB  GLN G 810     -22.548  37.446  17.067  1.00 96.38 LIG 0.06  C 
BRANCH 37 38
ATOM     38  CG  GLN G 810     -22.116  36.812  15.753  1.00 95.56 LIG 0.10  C 
BRANCH 38 39
ATOM     39  CD  GLN G 810     -20.810  37.385  15.249  1.00 95.11 LIG 0.21  C 
ATOM     40  NE2 GLN G 810     -20.587  38.666  15.521  1.00 94.31 LIG-0.37  N 
ATOM     41 21HE GLN G 810     -21.171  39.121  15.960  1.00 94.31 LIG 0.16  HD
ATOM     42 22HE GLN G 810     -19.859  39.042  15.258  1.00 94.31 LIG 0.16  HD
ATOM     43 OE1  GLN G 810     -20.009  36.688  14.624  1.00 94.65 LIG-0.27  OA
ENDBRANCH 38 39
ENDBRANCH 37 38
ENDBRANCH 35 37
ENDBRANCH 33 35
ENDBRANCH 30 31
ENDBRANCH 27 30
ENDBRANCH 1 26
TORSDOF 17
ENDMDL
MODEL 59
USER: ADFR SOLUTION from run 96
USER: SCORE 10.858367 LL:  -3.181 LR: -10.193 RR:   0.000 FEB:  -5.122
USER: RMSD 6.646134
USER: SEED 95
USER: STATUS no improvement in best in 11 clusters for 5 generations
USER: GENES 19
USER: genes 0 Translation |==|  0.39621 0.23908 0.33506
USER: genes 1 Rotation |==|  0.49659 0.34328 0.45766 0.97290
USER: genes 2 Torsion [C]-CA--CB-[CG] |==|  0.49563
USER: genes 3 Torsion [CA]-CB--CG-[CD2] |==|  0.15028
USER: genes 4 Torsion [N]-CA--C-[N] |==|  0.99614
USER: genes 5 Torsion [C]-N--CA-[C] |==|  0.62218
USER: genes 6 Torsion [N]-CA--C-[N] |==|  0.45436
USER: genes 7 Torsion [C]-N--CA-[CB] |==|  0.32090
USER: genes 8 Torsion [N]-CA--CB-[CG] |==|  0.14213
USER: genes 9 Torsion [CA]-CB--CG-[CD] |==|  0.56795
USER: genes 10 Torsion [CB]-CG--CD-[OE2] |==|  0.25723
USER: genes 11 Torsion [N]-CA--C-[OXT] |==|  0.52753
USER: genes 12 Torsion [CB]-CA--N-[C] |==|  0.45174
USER: genes 13 Torsion [N]-C--CA-[N] |==|  0.63328
USER: genes 14 Torsion [C]-CA--N-[C] |==|  0.26111
USER: genes 15 Torsion [N]-C--CA-[N] |==|  0.70009
USER: genes 16 Torsion [C]-CA--CB-[CG] |==|  0.30291
USER: genes 17 Torsion [CA]-CB--CG-[CD] |==|  0.74025
USER: genes 18 Torsion [CB]-CG--CD-[NE2] |==|  0.90442
ROOT
ATOM      1  CA  HIS G 812     -28.068  28.881  17.651  1.00 98.11 LIG 0.18  C 
ENDROOT
BRANCH 1 2
ATOM      2  CB  HIS G 812     -27.931  27.353  17.587  1.00 96.29 LIG 0.10  C 
BRANCH 2 3
ATOM      3  CG  HIS G 812     -27.053  26.830  16.484  1.00 94.00 LIG 0.06  A 
ATOM      4  CD2 HIS G 812     -25.778  27.116  16.154  1.00 93.71 LIG 0.14  A 
ATOM      5 NE2  HIS G 812     -25.522  26.512  14.940  1.00 93.19 LIG-0.25  NA
ATOM      6  CE1 HIS G 812     -26.611  25.868  14.555  1.00 92.78 LIG 0.23  A 
ATOM      7 ND1  HIS G 812     -27.547  26.038  15.467  1.00 93.58 LIG-0.24  NA
ENDBRANCH 2 3
ENDBRANCH 1 2
BRANCH 1 8
ATOM      8  C   HIS G 812     -29.022  29.179  18.803  1.00 99.25 LIG 0.24  C 
ATOM      9  N   GLY G 813     -28.532  29.820  19.857  1.00100.26 LIG-0.35  N 
ATOM     10 H    GLY G 813     -27.715  30.072  19.943  1.00100.26 LIG 0.16  HD
ATOM     11 O    HIS G 812     -30.207  28.849  18.720  1.00 99.52 LIG-0.27  OA
BRANCH 9 12
ATOM     12  CA  GLY G 813     -29.403  30.141  20.974  1.00101.48 LIG 0.23  C 
BRANCH 12 13
ATOM     13  C   GLY G 813     -29.208  31.554  21.495  1.00102.44 LIG 0.24  C 
ATOM     14 O    GLY G 813     -28.201  32.188  21.187  1.00102.98 LIG-0.27  OA
ATOM     15  N   GLU G 814     -30.165  32.056  22.275  1.00102.70 LIG-0.34  N 
ATOM     16 H    GLU G 814     -30.883  31.635  22.490  1.00102.70 LIG 0.16  HD
BRANCH 15 17
ATOM     17  CA  GLU G 814     -30.054  33.403  22.838  1.00102.89 LIG 0.19  C 
BRANCH 17 18
ATOM     18  CB  GLU G 814     -31.155  34.319  22.285  1.00101.97 LIG 0.05  C 
BRANCH 18 19
ATOM     19  CG  GLU G 814     -32.562  33.763  22.390  1.00100.63 LIG 0.12  C 
BRANCH 19 20
ATOM     20  CD  GLU G 814     -33.507  34.361  21.358  1.00100.36 LIG 0.17  C 
ATOM     21 OE1  GLU G 814     -34.099  35.426  21.639  1.00 99.71 LIG-0.65  OA
ATOM     22 OE2  GLU G 814     -33.655  33.773  20.266  1.00 99.42 LIG-0.65  OA
ENDBRANCH 19 20
ENDBRANCH 18 19
ENDBRANCH 17 18
BRANCH 17 23
ATOM     23  C   GLU G 814     -30.162  33.363  24.366  1.00103.78 LIG 0.20  C 
ATOM     24 OXT  GLU G 814     -30.276  34.443  24.990  1.00104.07 LIG-0.65  OA
ATOM     25 O    GLU G 814     -30.136  32.244  24.925  1.00104.32 LIG-0.65  OA
ENDBRANCH 17 23
ENDBRANCH 15 17
ENDBRANCH 12 13
ENDBRANCH 9 12
ENDBRANCH 1 8
BRANCH 1 26
ATOM     26  N   HIS G 812     -26.824  29.491  18.136  1.00 98.48 LIG-0.35  N 
ATOM     27  C   GLY G 811     -26.485  30.776  18.006  1.00 98.46 LIG 0.24  C 
ATOM     28 O    GLY G 811     -27.169  31.620  17.414  1.00 98.78 LIG-0.27  OA
ATOM     29 H    HIS G 812     -26.310  28.924  18.529  1.00 98.48 LIG 0.16  HD
BRANCH 27 30
ATOM     30  CA  GLY G 811     -25.156  31.148  18.643  1.00 98.06 LIG 0.23  C 
BRANCH 30 31
ATOM     31  N   GLY G 811     -25.144  32.333  19.483  1.00 97.66 LIG-0.35  N 
ATOM     32 H    GLY G 811     -25.020  33.073  19.064  1.00 97.66 LIG 0.16  HD
ATOM     33  C   GLN G 810     -25.317  32.229  20.799  1.00 97.43 LIG 0.26  C 
ATOM     34 O    GLN G 810     -25.472  31.148  21.370  1.00 97.76 LIG-0.27  OA
BRANCH 33 35
ATOM     35  CA  GLN G 810     -25.298  33.532  21.597  1.00 96.79 LIG 0.40  C 
ATOM     36  N   GLN G 810     -24.043  33.638  22.397  1.00 96.61 LIG 0.61  N 
BRANCH 35 37
ATOM     37  CB  GLN G 810     -25.408  34.706  20.626  1.00 96.38 LIG 0.06  C 
BRANCH 37 38
ATOM     38  CG  GLN G 810     -26.731  35.455  20.651  1.00 95.56 LIG 0.10  C 
BRANCH 38 39
ATOM     39  CD  GLN G 810     -27.701  34.929  19.617  1.00 95.11 LIG 0.21  C 
ATOM     40  NE2 GLN G 810     -27.169  34.503  18.476  1.00 94.31 LIG-0.37  N 
ATOM     41 21HE GLN G 810     -26.318  34.538  18.359  1.00 94.31 LIG 0.16  HD
ATOM     42 22HE GLN G 810     -27.676  34.192  17.854  1.00 94.31 LIG 0.16  HD
ATOM     43 OE1  GLN G 810     -28.913  34.901  19.837  1.00 94.65 LIG-0.27  OA
ENDBRANCH 38 39
ENDBRANCH 37 38
ENDBRANCH 35 37
ENDBRANCH 33 35
ENDBRANCH 30 31
ENDBRANCH 27 30
ENDBRANCH 1 26
TORSDOF 17
ENDMDL
MODEL 60
USER: ADFR SOLUTION from run 59
USER: SCORE 11.169152 LL:  -1.956 LR: -10.190 RR:   0.000 FEB:  -5.119
USER: RMSD 10.942355
USER: SEED 58
USER: STATUS no improvement in best in 22 clusters for 5 generations
USER: GENES 19
USER: genes 0 Translation |==|  0.45957 0.31489 0.39992
USER: genes 1 Rotation |==|  0.71097 0.87104 0.74270 0.59446
USER: genes 2 Torsion [C]-CA--CB-[CG] |==|  0.26257
USER: genes 3 Torsion [CA]-CB--CG-[CD2] |==|  0.35362
USER: genes 4 Torsion [N]-CA--C-[N] |==|  0.14875
USER: genes 5 Torsion [C]-N--CA-[C] |==|  0.62760
USER: genes 6 Torsion [N]-CA--C-[N] |==|  0.45495
USER: genes 7 Torsion [C]-N--CA-[CB] |==|  0.30877
USER: genes 8 Torsion [N]-CA--CB-[CG] |==|  0.23066
USER: genes 9 Torsion [CA]-CB--CG-[CD] |==|  0.34925
USER: genes 10 Torsion [CB]-CG--CD-[OE2] |==|  0.95655
USER: genes 11 Torsion [N]-CA--C-[OXT] |==|  0.43653
USER: genes 12 Torsion [CB]-CA--N-[C] |==|  0.15556
USER: genes 13 Torsion [N]-C--CA-[N] |==|  0.40759
USER: genes 14 Torsion [C]-CA--N-[C] |==|  0.69377
USER: genes 15 Torsion [N]-C--CA-[N] |==|  0.74978
USER: genes 16 Torsion [C]-CA--CB-[CG] |==|  0.49414
USER: genes 17 Torsion [CA]-CB--CG-[CD] |==|  0.87949
USER: genes 18 Torsion [CB]-CG--CD-[NE2] |==|  0.70005
ROOT
ATOM      1  CA  HIS G 812     -26.832  30.302  19.256  1.00 98.11 LIG 0.18  C 
ENDROOT
BRANCH 1 2
ATOM      2  CB  HIS G 812     -27.828  30.164  18.095  1.00 96.29 LIG 0.10  C 
BRANCH 2 3
ATOM      3  CG  HIS G 812     -27.717  28.893  17.299  1.00 94.00 LIG 0.06  A 
ATOM      4  CD2 HIS G 812     -28.641  27.972  16.964  1.00 93.71 LIG 0.14  A 
ATOM      5 NE2  HIS G 812     -27.973  26.903  16.403  1.00 93.19 LIG-0.25  NA
ATOM      6  CE1 HIS G 812     -26.680  27.180  16.388  1.00 92.78 LIG 0.23  A 
ATOM      7 ND1  HIS G 812     -26.497  28.372  16.917  1.00 93.58 LIG-0.24  NA
ENDBRANCH 2 3
ENDBRANCH 1 2
BRANCH 1 8
ATOM      8  C   HIS G 812     -25.644  31.088  18.712  1.00 99.25 LIG 0.24  C 
ATOM      9  N   GLY G 813     -24.744  31.525  19.584  1.00100.26 LIG-0.35  N 
ATOM     10 H    GLY G 813     -24.785  31.407  20.434  1.00100.26 LIG 0.16  HD
ATOM     11 O    HIS G 812     -25.533  31.272  17.498  1.00 99.52 LIG-0.27  OA
BRANCH 9 12
ATOM     12  CA  GLY G 813     -23.586  32.265  19.115  1.00101.48 LIG 0.23  C 
BRANCH 12 13
ATOM     13  C   GLY G 813     -22.285  31.796  19.742  1.00102.44 LIG 0.24  C 
ATOM     14 O    GLY G 813     -22.307  31.094  20.751  1.00102.98 LIG-0.27  OA
ATOM     15  N   GLU G 814     -21.151  32.168  19.150  1.00102.70 LIG-0.34  N 
ATOM     16 H    GLU G 814     -21.113  32.646  18.435  1.00102.70 LIG 0.16  HD
BRANCH 15 17
ATOM     17  CA  GLU G 814     -19.848  31.778  19.693  1.00102.89 LIG 0.19  C 
BRANCH 17 18
ATOM     18  CB  GLU G 814     -19.148  30.774  18.767  1.00101.97 LIG 0.05  C 
BRANCH 18 19
ATOM     19  CG  GLU G 814     -18.396  31.392  17.604  1.00100.63 LIG 0.12  C 
BRANCH 19 20
ATOM     20  CD  GLU G 814     -16.942  30.948  17.543  1.00100.36 LIG 0.17  C 
ATOM     21 OE1  GLU G 814     -16.302  31.148  16.487  1.00 99.71 LIG-0.65  OA
ATOM     22 OE2  GLU G 814     -16.436  30.407  18.549  1.00 99.42 LIG-0.65  OA
ENDBRANCH 19 20
ENDBRANCH 18 19
ENDBRANCH 17 18
BRANCH 17 23
ATOM     23  C   GLU G 814     -18.945  33.003  19.870  1.00103.78 LIG 0.20  C 
ATOM     24 OXT  GLU G 814     -18.003  32.943  20.693  1.00104.07 LIG-0.65  OA
ATOM     25 O    GLU G 814     -19.189  34.015  19.176  1.00104.32 LIG-0.65  OA
ENDBRANCH 17 23
ENDBRANCH 15 17
ENDBRANCH 12 13
ENDBRANCH 9 12
ENDBRANCH 1 8
BRANCH 1 26
ATOM     26  N   HIS G 812     -27.351  31.224  20.275  1.00 98.48 LIG-0.35  N 
ATOM     27  C   GLY G 811     -28.522  31.110  20.904  1.00 98.46 LIG 0.24  C 
ATOM     28 O    GLY G 811     -29.351  30.221  20.676  1.00 98.78 LIG-0.27  OA
ATOM     29 H    HIS G 812     -26.809  31.873  20.437  1.00 98.48 LIG 0.16  HD
BRANCH 27 30
ATOM     30  CA  GLY G 811     -28.788  32.183  21.948  1.00 98.06 LIG 0.23  C 
BRANCH 30 31
ATOM     31  N   GLY G 811     -30.169  32.598  22.120  1.00 97.66 LIG-0.35  N 
ATOM     32 H    GLY G 811     -30.682  32.010  22.481  1.00 97.66 LIG 0.16  HD
ATOM     33  C   GLN G 810     -30.564  33.809  21.732  1.00 97.43 LIG 0.26  C 
ATOM     34 O    GLN G 810     -29.806  34.620  21.199  1.00 97.76 LIG-0.27  OA
BRANCH 33 35
ATOM     35  CA  GLN G 810     -32.034  34.156  21.964  1.00 96.79 LIG 0.40  C 
ATOM     36  N   GLN G 810     -32.856  33.768  20.780  1.00 96.61 LIG 0.61  N 
BRANCH 35 37
ATOM     37  CB  GLN G 810     -32.523  33.423  23.211  1.00 96.38 LIG 0.06  C 
BRANCH 37 38
ATOM     38  CG  GLN G 810     -33.963  33.702  23.613  1.00 95.56 LIG 0.10  C 
BRANCH 38 39
ATOM     39  CD  GLN G 810     -34.306  35.172  23.516  1.00 95.11 LIG 0.21  C 
ATOM     40  NE2 GLN G 810     -34.453  35.817  24.668  1.00 94.31 LIG-0.37  N 
ATOM     41 21HE GLN G 810     -34.355  35.397  25.412  1.00 94.31 LIG 0.16  HD
ATOM     42 22HE GLN G 810     -34.646  36.655  24.670  1.00 94.31 LIG 0.16  HD
ATOM     43 OE1  GLN G 810     -34.435  35.725  22.423  1.00 94.65 LIG-0.27  OA
ENDBRANCH 38 39
ENDBRANCH 37 38
ENDBRANCH 35 37
ENDBRANCH 33 35
ENDBRANCH 30 31
ENDBRANCH 27 30
ENDBRANCH 1 26
TORSDOF 17
ENDMDL
MODEL 61
USER: ADFR SOLUTION from run 139
USER: SCORE 11.349368 LL:  -2.298 LR: -10.173 RR:   0.000 FEB:  -5.102
USER: RMSD 7.321720
USER: SEED 138
USER: STATUS no improvement in best in 36 clusters for 5 generations
USER: GENES 19
USER: genes 0 Translation |==|  0.49665 0.36924 0.37522
USER: genes 1 Rotation |==|  0.57922 0.39450 0.40021 0.97184
USER: genes 2 Torsion [C]-CA--CB-[CG] |==|  0.14090
USER: genes 3 Torsion [CA]-CB--CG-[CD2] |==|  0.81375
USER: genes 4 Torsion [N]-CA--C-[N] |==|  0.35007
USER: genes 5 Torsion [C]-N--CA-[C] |==|  0.43283
USER: genes 6 Torsion [N]-CA--C-[N] |==|  0.39261
USER: genes 7 Torsion [C]-N--CA-[CB] |==|  0.24905
USER: genes 8 Torsion [N]-CA--CB-[CG] |==|  0.46787
USER: genes 9 Torsion [CA]-CB--CG-[CD] |==|  0.32946
USER: genes 10 Torsion [CB]-CG--CD-[OE2] |==|  0.38805
USER: genes 11 Torsion [N]-CA--C-[OXT] |==|  0.75582
USER: genes 12 Torsion [CB]-CA--N-[C] |==|  0.54341
USER: genes 13 Torsion [N]-C--CA-[N] |==|  0.63561
USER: genes 14 Torsion [C]-CA--N-[C] |==|  0.18139
USER: genes 15 Torsion [N]-C--CA-[N] |==|  0.16231
USER: genes 16 Torsion [C]-CA--CB-[CG] |==|  0.75909
USER: genes 17 Torsion [CA]-CB--CG-[CD] |==|  0.23160
USER: genes 18 Torsion [CB]-CG--CD-[NE2] |==|  0.25384
ROOT
ATOM      1  CA  HIS G 812     -26.109  31.321  18.645  1.00 98.11 LIG 0.18  C 
ENDROOT
BRANCH 1 2
ATOM      2  CB  HIS G 812     -26.206  29.942  17.978  1.00 96.29 LIG 0.10  C 
BRANCH 2 3
ATOM      3  CG  HIS G 812     -27.590  29.359  17.901  1.00 94.00 LIG 0.06  A 
ATOM      4  CD2 HIS G 812     -28.426  28.926  18.865  1.00 93.71 LIG 0.14  A 
ATOM      5 NE2  HIS G 812     -29.486  28.301  18.241  1.00 93.19 LIG-0.25  NA
ATOM      6  CE1 HIS G 812     -29.300  28.368  16.934  1.00 92.78 LIG 0.23  A 
ATOM      7 ND1  HIS G 812     -28.170  29.004  16.700  1.00 93.58 LIG-0.24  NA
ENDBRANCH 2 3
ENDBRANCH 1 2
BRANCH 1 8
ATOM      8  C   HIS G 812     -26.845  31.207  19.976  1.00 99.25 LIG 0.24  C 
ATOM      9  N   GLY G 813     -27.908  31.980  20.159  1.00100.26 LIG-0.35  N 
ATOM     10 H    GLY G 813     -28.209  32.547  19.587  1.00100.26 LIG 0.16  HD
ATOM     11 O    HIS G 812     -26.460  30.398  20.823  1.00 99.52 LIG-0.27  OA
BRANCH 9 12
ATOM     12  CA  GLY G 813     -28.653  31.899  21.403  1.00101.48 LIG 0.23  C 
BRANCH 12 13
ATOM     13  C   GLY G 813     -29.427  33.166  21.720  1.00102.44 LIG 0.24  C 
ATOM     14 O    GLY G 813     -28.934  34.265  21.469  1.00102.98 LIG-0.27  OA
ATOM     15  N   GLU G 814     -30.637  33.027  22.259  1.00102.70 LIG-0.34  N 
ATOM     16 H    GLU G 814     -31.006  32.268  22.427  1.00102.70 LIG 0.16  HD
BRANCH 15 17
ATOM     17  CA  GLU G 814     -31.449  34.193  22.613  1.00102.89 LIG 0.19  C 
BRANCH 17 18
ATOM     18  CB  GLU G 814     -32.329  34.626  21.433  1.00101.97 LIG 0.05  C 
BRANCH 18 19
ATOM     19  CG  GLU G 814     -33.400  35.643  21.774  1.00100.63 LIG 0.12  C 
BRANCH 19 20
ATOM     20  CD  GLU G 814     -33.232  36.951  21.015  1.00100.36 LIG 0.17  C 
ATOM     21 OE1  GLU G 814     -32.077  37.405  20.858  1.00 99.71 LIG-0.65  OA
ATOM     22 OE2  GLU G 814     -34.249  37.523  20.569  1.00 99.42 LIG-0.65  OA
ENDBRANCH 19 20
ENDBRANCH 18 19
ENDBRANCH 17 18
BRANCH 17 23
ATOM     23  C   GLU G 814     -32.346  33.884  23.815  1.00103.78 LIG 0.20  C 
ATOM     24 OXT  GLU G 814     -33.475  33.381  23.610  1.00104.07 LIG-0.65  OA
ATOM     25 O    GLU G 814     -31.906  34.144  24.957  1.00104.32 LIG-0.65  OA
ENDBRANCH 17 23
ENDBRANCH 15 17
ENDBRANCH 12 13
ENDBRANCH 9 12
ENDBRANCH 1 8
BRANCH 1 26
ATOM     26  N   HIS G 812     -24.735  31.584  19.092  1.00 98.48 LIG-0.35  N 
ATOM     27  C   GLY G 811     -24.366  32.535  19.952  1.00 98.46 LIG 0.24  C 
ATOM     28 O    GLY G 811     -25.141  33.355  20.460  1.00 98.78 LIG-0.27  OA
ATOM     29 H    HIS G 812     -24.165  31.049  18.734  1.00 98.48 LIG 0.16  HD
BRANCH 27 30
ATOM     30  CA  GLY G 811     -22.880  32.556  20.274  1.00 98.06 LIG 0.23  C 
BRANCH 30 31
ATOM     31  N   GLY G 811     -22.518  32.615  21.679  1.00 97.66 LIG-0.35  N 
ATOM     32 H    GLY G 811     -22.115  33.335  21.920  1.00 97.66 LIG 0.16  HD
ATOM     33  C   GLN G 810     -22.808  31.603  22.494  1.00 97.43 LIG 0.26  C 
ATOM     34 O    GLN G 810     -23.368  30.575  22.110  1.00 97.76 LIG-0.27  OA
BRANCH 33 35
ATOM     35  CA  GLN G 810     -22.395  31.762  23.957  1.00 96.79 LIG 0.40  C 
ATOM     36  N   GLN G 810     -23.030  32.975  24.550  1.00 96.61 LIG 0.61  N 
BRANCH 35 37
ATOM     37  CB  GLN G 810     -22.817  30.513  24.727  1.00 96.38 LIG 0.06  C 
BRANCH 37 38
ATOM     38  CG  GLN G 810     -24.237  30.527  25.271  1.00 95.56 LIG 0.10  C 
BRANCH 38 39
ATOM     39  CD  GLN G 810     -25.248  30.104  24.228  1.00 95.11 LIG 0.21  C 
ATOM     40  NE2 GLN G 810     -25.541  28.809  24.186  1.00 94.31 LIG-0.37  N 
ATOM     41 21HE GLN G 810     -25.161  28.264  24.732  1.00 94.31 LIG 0.16  HD
ATOM     42 22HE GLN G 810     -26.111  28.515  23.612  1.00 94.31 LIG 0.16  HD
ATOM     43 OE1  GLN G 810     -25.763  30.928  23.471  1.00 94.65 LIG-0.27  OA
ENDBRANCH 38 39
ENDBRANCH 37 38
ENDBRANCH 35 37
ENDBRANCH 33 35
ENDBRANCH 30 31
ENDBRANCH 27 30
ENDBRANCH 1 26
TORSDOF 17
ENDMDL
MODEL 62
USER: ADFR SOLUTION from run 122
USER: SCORE 10.850369 LL:  -2.529 LR: -10.172 RR:   0.000 FEB:  -5.101
USER: RMSD 9.066763
USER: SEED 121
USER: STATUS no improvement in best in 24 clusters for 5 generations
USER: GENES 19
USER: genes 0 Translation |==|  0.44008 0.35050 0.48010
USER: genes 1 Rotation |==|  0.42642 0.21200 0.27785 0.83510
USER: genes 2 Torsion [C]-CA--CB-[CG] |==|  0.30164
USER: genes 3 Torsion [CA]-CB--CG-[CD2] |==|  0.54459
USER: genes 4 Torsion [N]-CA--C-[N] |==|  0.90389
USER: genes 5 Torsion [C]-N--CA-[C] |==|  0.25556
USER: genes 6 Torsion [N]-CA--C-[N] |==|  0.68658
USER: genes 7 Torsion [C]-N--CA-[CB] |==|  0.28272
USER: genes 8 Torsion [N]-CA--CB-[CG] |==|  0.16700
USER: genes 9 Torsion [CA]-CB--CG-[CD] |==|  0.35852
USER: genes 10 Torsion [CB]-CG--CD-[OE2] |==|  0.67561
USER: genes 11 Torsion [N]-CA--C-[OXT] |==|  0.91793
USER: genes 12 Torsion [CB]-CA--N-[C] |==|  0.37264
USER: genes 13 Torsion [N]-C--CA-[N] |==|  0.00178
USER: genes 14 Torsion [C]-CA--N-[C] |==|  0.76503
USER: genes 15 Torsion [N]-C--CA-[N] |==|  0.23239
USER: genes 16 Torsion [C]-CA--CB-[CG] |==|  0.38027
USER: genes 17 Torsion [CA]-CB--CG-[CD] |==|  0.18917
USER: genes 18 Torsion [CB]-CG--CD-[NE2] |==|  0.42893
ROOT
ATOM      1  CA  HIS G 812     -27.212  30.970  21.240  1.00 98.11 LIG 0.18  C 
ENDROOT
BRANCH 1 2
ATOM      2  CB  HIS G 812     -28.218  29.839  20.983  1.00 96.29 LIG 0.10  C 
BRANCH 2 3
ATOM      3  CG  HIS G 812     -28.390  29.446  19.542  1.00 94.00 LIG 0.06  A 
ATOM      4  CD2 HIS G 812     -29.349  28.729  18.925  1.00 93.71 LIG 0.14  A 
ATOM      5 NE2  HIS G 812     -28.922  28.491  17.635  1.00 93.19 LIG-0.25  NA
ATOM      6  CE1 HIS G 812     -27.740  29.062  17.475  1.00 92.78 LIG 0.23  A 
ATOM      7 ND1  HIS G 812     -27.397  29.648  18.604  1.00 93.58 LIG-0.24  NA
ENDBRANCH 2 3
ENDBRANCH 1 2
BRANCH 1 8
ATOM      8  C   HIS G 812     -28.034  32.192  21.637  1.00 99.25 LIG 0.24  C 
ATOM      9  N   GLY G 813     -28.448  32.273  22.895  1.00100.26 LIG-0.35  N 
ATOM     10 H    GLY G 813     -28.296  31.684  23.502  1.00100.26 LIG 0.16  HD
ATOM     11 O    HIS G 812     -28.267  33.072  20.805  1.00 99.52 LIG-0.27  OA
BRANCH 9 12
ATOM     12  CA  GLY G 813     -29.221  33.424  23.327  1.00101.48 LIG 0.23  C 
BRANCH 12 13
ATOM     13  C   GLY G 813     -30.721  33.217  23.203  1.00102.44 LIG 0.24  C 
ATOM     14 O    GLY G 813     -31.289  32.398  23.924  1.00102.98 LIG-0.27  OA
ATOM     15  N   GLU G 814     -31.369  33.955  22.303  1.00102.70 LIG-0.34  N 
ATOM     16 H    GLU G 814     -30.994  34.544  21.801  1.00102.70 LIG 0.16  HD
BRANCH 15 17
ATOM     17  CA  GLU G 814     -32.812  33.811  22.102  1.00102.89 LIG 0.19  C 
BRANCH 17 18
ATOM     18  CB  GLU G 814     -33.578  34.946  22.794  1.00101.97 LIG 0.05  C 
BRANCH 18 19
ATOM     19  CG  GLU G 814     -33.231  36.340  22.309  1.00100.63 LIG 0.12  C 
BRANCH 19 20
ATOM     20  CD  GLU G 814     -34.462  37.155  21.938  1.00100.36 LIG 0.17  C 
ATOM     21 OE1  GLU G 814     -35.287  37.431  22.837  1.00 99.71 LIG-0.65  OA
ATOM     22 OE2  GLU G 814     -34.604  37.525  20.754  1.00 99.42 LIG-0.65  OA
ENDBRANCH 19 20
ENDBRANCH 18 19
ENDBRANCH 17 18
BRANCH 17 23
ATOM     23  C   GLU G 814     -33.154  33.819  20.609  1.00103.78 LIG 0.20  C 
ATOM     24 OXT  GLU G 814     -32.419  34.463  19.826  1.00104.07 LIG-0.65  OA
ATOM     25 O    GLU G 814     -34.158  33.172  20.234  1.00104.32 LIG-0.65  OA
ENDBRANCH 17 23
ENDBRANCH 15 17
ENDBRANCH 12 13
ENDBRANCH 9 12
ENDBRANCH 1 8
BRANCH 1 26
ATOM     26  N   HIS G 812     -26.453  30.716  22.471  1.00 98.48 LIG-0.35  N 
ATOM     27  C   GLY G 811     -25.131  30.842  22.609  1.00 98.46 LIG 0.24  C 
ATOM     28 O    GLY G 811     -24.361  31.153  21.693  1.00 98.78 LIG-0.27  OA
ATOM     29 H    HIS G 812     -26.956  30.470  23.124  1.00 98.48 LIG 0.16  HD
BRANCH 27 30
ATOM     30  CA  GLY G 811     -24.611  30.559  24.010  1.00 98.06 LIG 0.23  C 
BRANCH 30 31
ATOM     31  N   GLY G 811     -25.597  30.179  25.007  1.00 97.66 LIG-0.35  N 
ATOM     32 H    GLY G 811     -25.691  29.332  25.119  1.00 97.66 LIG 0.16  HD
ATOM     33  C   GLN G 810     -26.278  31.110  25.672  1.00 97.43 LIG 0.26  C 
ATOM     34 O    GLN G 810     -26.132  32.316  25.471  1.00 97.76 LIG-0.27  OA
BRANCH 33 35
ATOM     35  CA  GLN G 810     -27.286  30.612  26.708  1.00 96.79 LIG 0.40  C 
ATOM     36  N   GLN G 810     -26.604  30.322  28.003  1.00 96.61 LIG 0.61  N 
BRANCH 35 37
ATOM     37  CB  GLN G 810     -28.361  31.677  26.902  1.00 96.38 LIG 0.06  C 
BRANCH 37 38
ATOM     38  CG  GLN G 810     -29.790  31.161  26.975  1.00 95.56 LIG 0.10  C 
BRANCH 38 39
ATOM     39  CD  GLN G 810     -30.039  30.356  28.231  1.00 95.11 LIG 0.21  C 
ATOM     40  NE2 GLN G 810     -31.296  30.310  28.659  1.00 94.31 LIG-0.37  N 
ATOM     41 21HE GLN G 810     -31.913  30.726  28.228  1.00 94.31 LIG 0.16  HD
ATOM     42 22HE GLN G 810     -31.493  29.865  29.369  1.00 94.31 LIG 0.16  HD
ATOM     43 OE1  GLN G 810     -29.117  29.779  28.810  1.00 94.65 LIG-0.27  OA
ENDBRANCH 38 39
ENDBRANCH 37 38
ENDBRANCH 35 37
ENDBRANCH 33 35
ENDBRANCH 30 31
ENDBRANCH 27 30
ENDBRANCH 1 26
TORSDOF 17
ENDMDL
MODEL 63
USER: ADFR SOLUTION from run 3
USER: SCORE 10.892897 LL:  -2.132 LR: -10.143 RR:   0.000 FEB:  -5.072
USER: RMSD 5.771547
USER: SEED 446272
USER: STATUS no improvement in best in 41 clusters for 5 generations
USER: GENES 19
USER: genes 0 Translation |==|  0.44405 0.44722 0.39886
USER: genes 1 Rotation |==|  0.45120 0.48776 0.68108 0.96334
USER: genes 2 Torsion [C]-CA--CB-[CG] |==|  0.77607
USER: genes 3 Torsion [CA]-CB--CG-[CD2] |==|  0.09467
USER: genes 4 Torsion [N]-CA--C-[N] |==|  0.40038
USER: genes 5 Torsion [C]-N--CA-[C] |==|  0.25154
USER: genes 6 Torsion [N]-CA--C-[N] |==|  0.17618
USER: genes 7 Torsion [C]-N--CA-[CB] |==|  0.24125
USER: genes 8 Torsion [N]-CA--CB-[CG] |==|  0.61471
USER: genes 9 Torsion [CA]-CB--CG-[CD] |==|  0.63302
USER: genes 10 Torsion [CB]-CG--CD-[OE2] |==|  0.78093
USER: genes 11 Torsion [N]-CA--C-[OXT] |==|  0.71002
USER: genes 12 Torsion [CB]-CA--N-[C] |==|  0.54459
USER: genes 13 Torsion [N]-C--CA-[N] |==|  0.99288
USER: genes 14 Torsion [C]-CA--N-[C] |==|  0.61278
USER: genes 15 Torsion [N]-C--CA-[N] |==|  0.87343
USER: genes 16 Torsion [C]-CA--CB-[CG] |==|  0.11476
USER: genes 17 Torsion [CA]-CB--CG-[CD] |==|  0.47574
USER: genes 18 Torsion [CB]-CG--CD-[NE2] |==|  0.44621
ROOT
ATOM      1  CA  HIS G 812     -27.135  32.783  19.230  1.00 98.11 LIG 0.18  C 
ENDROOT
BRANCH 1 2
ATOM      2  CB  HIS G 812     -25.891  31.886  19.289  1.00 96.29 LIG 0.10  C 
BRANCH 2 3
ATOM      3  CG  HIS G 812     -24.589  32.603  19.517  1.00 94.00 LIG 0.06  A 
ATOM      4  CD2 HIS G 812     -24.296  33.704  20.237  1.00 93.71 LIG 0.14  A 
ATOM      5 NE2  HIS G 812     -22.994  34.053  19.945  1.00 93.19 LIG-0.25  NA
ATOM      6  CE1 HIS G 812     -22.510  33.176  19.081  1.00 92.78 LIG 0.23  A 
ATOM      7 ND1  HIS G 812     -23.446  32.290  18.809  1.00 93.58 LIG-0.24  NA
ENDBRANCH 2 3
ENDBRANCH 1 2
BRANCH 1 8
ATOM      8  C   HIS G 812     -27.517  33.084  20.676  1.00 99.25 LIG 0.24  C 
ATOM      9  N   GLY G 813     -28.508  32.380  21.208  1.00100.26 LIG-0.35  N 
ATOM     10 H    GLY G 813     -28.958  31.774  20.797  1.00100.26 LIG 0.16  HD
ATOM     11 O    HIS G 812     -26.893  33.935  21.312  1.00 99.52 LIG-0.27  OA
BRANCH 9 12
ATOM     12  CA  GLY G 813     -28.901  32.617  22.586  1.00101.48 LIG 0.23  C 
BRANCH 12 13
ATOM     13  C   GLY G 813     -29.985  33.670  22.725  1.00102.44 LIG 0.24  C 
ATOM     14 O    GLY G 813     -29.749  34.720  23.321  1.00102.98 LIG-0.27  OA
ATOM     15  N   GLU G 814     -31.169  33.406  22.174  1.00102.70 LIG-0.34  N 
ATOM     16 H    GLU G 814     -31.351  32.686  21.740  1.00102.70 LIG 0.16  HD
BRANCH 15 17
ATOM     17  CA  GLU G 814     -32.280  34.356  22.273  1.00102.89 LIG 0.19  C 
BRANCH 17 18
ATOM     18  CB  GLU G 814     -32.223  35.385  21.135  1.00101.97 LIG 0.05  C 
BRANCH 18 19
ATOM     19  CG  GLU G 814     -32.543  36.809  21.546  1.00100.63 LIG 0.12  C 
BRANCH 19 20
ATOM     20  CD  GLU G 814     -33.544  37.477  20.614  1.00100.36 LIG 0.17  C 
ATOM     21 OE1  GLU G 814     -34.736  37.563  20.983  1.00 99.71 LIG-0.65  OA
ATOM     22 OE2  GLU G 814     -33.141  37.922  19.519  1.00 99.42 LIG-0.65  OA
ENDBRANCH 19 20
ENDBRANCH 18 19
ENDBRANCH 17 18
BRANCH 17 23
ATOM     23  C   GLU G 814     -33.625  33.624  22.215  1.00103.78 LIG 0.20  C 
ATOM     24 OXT  GLU G 814     -34.293  33.675  21.156  1.00104.07 LIG-0.65  OA
ATOM     25 O    GLU G 814     -33.996  33.000  23.233  1.00104.32 LIG-0.65  OA
ENDBRANCH 17 23
ENDBRANCH 15 17
ENDBRANCH 12 13
ENDBRANCH 9 12
ENDBRANCH 1 8
BRANCH 1 26
ATOM     26  N   HIS G 812     -26.785  34.121  18.736  1.00 98.48 LIG-0.35  N 
ATOM     27  C   GLY G 811     -27.544  35.214  18.845  1.00 98.46 LIG 0.24  C 
ATOM     28 O    GLY G 811     -28.674  35.230  19.347  1.00 98.78 LIG-0.27  OA
ATOM     29 H    HIS G 812     -26.014  34.140  18.354  1.00 98.48 LIG 0.16  HD
BRANCH 27 30
ATOM     30  CA  GLY G 811     -26.914  36.480  18.285  1.00 98.06 LIG 0.23  C 
BRANCH 30 31
ATOM     31  N   GLY G 811     -25.565  36.361  17.761  1.00 97.66 LIG-0.35  N 
ATOM     32 H    GLY G 811     -25.413  35.646  17.309  1.00 97.66 LIG 0.16  HD
ATOM     33  C   GLN G 810     -24.666  37.316  17.991  1.00 97.43 LIG 0.26  C 
ATOM     34 O    GLN G 810     -24.912  38.319  18.662  1.00 97.76 LIG-0.27  OA
BRANCH 33 35
ATOM     35  CA  GLN G 810     -23.276  37.105  17.391  1.00 96.79 LIG 0.40  C 
ATOM     36  N   GLN G 810     -22.807  35.709  17.635  1.00 96.61 LIG 0.61  N 
BRANCH 35 37
ATOM     37  CB  GLN G 810     -23.338  37.388  15.892  1.00 96.38 LIG 0.06  C 
BRANCH 37 38
ATOM     38  CG  GLN G 810     -24.170  38.595  15.487  1.00 95.56 LIG 0.10  C 
BRANCH 38 39
ATOM     39  CD  GLN G 810     -24.009  38.930  14.021  1.00 95.11 LIG 0.21  C 
ATOM     40  NE2 GLN G 810     -24.962  39.684  13.483  1.00 94.31 LIG-0.37  N 
ATOM     41 21HE GLN G 810     -25.623  39.950  13.965  1.00 94.31 LIG 0.16  HD
ATOM     42 22HE GLN G 810     -24.919  39.904  12.653  1.00 94.31 LIG 0.16  HD
ATOM     43 OE1  GLN G 810     -23.042  38.520  13.377  1.00 94.65 LIG-0.27  OA
ENDBRANCH 38 39
ENDBRANCH 37 38
ENDBRANCH 35 37
ENDBRANCH 33 35
ENDBRANCH 30 31
ENDBRANCH 27 30
ENDBRANCH 1 26
TORSDOF 17
ENDMDL
MODEL 64
USER: ADFR SOLUTION from run 108
USER: SCORE 10.447586 LL:  -2.183 LR: -10.125 RR:   0.000 FEB:  -5.054
USER: RMSD 6.692490
USER: SEED 107
USER: STATUS no improvement in best in 18 clusters for 5 generations
USER: GENES 19
USER: genes 0 Translation |==|  0.33160 0.47425 0.62803
USER: genes 1 Rotation |==|  0.68531 0.56035 0.17436 0.82554
USER: genes 2 Torsion [C]-CA--CB-[CG] |==|  0.53433
USER: genes 3 Torsion [CA]-CB--CG-[CD2] |==|  0.06998
USER: genes 4 Torsion [N]-CA--C-[N] |==|  0.01410
USER: genes 5 Torsion [C]-N--CA-[C] |==|  0.75740
USER: genes 6 Torsion [N]-CA--C-[N] |==|  0.51652
USER: genes 7 Torsion [C]-N--CA-[CB] |==|  0.83945
USER: genes 8 Torsion [N]-CA--CB-[CG] |==|  0.66905
USER: genes 9 Torsion [CA]-CB--CG-[CD] |==|  0.99786
USER: genes 10 Torsion [CB]-CG--CD-[OE2] |==|  0.73387
USER: genes 11 Torsion [N]-CA--C-[OXT] |==|  0.21301
USER: genes 12 Torsion [CB]-CA--N-[C] |==|  0.33250
USER: genes 13 Torsion [N]-C--CA-[N] |==|  0.07766
USER: genes 14 Torsion [C]-CA--N-[C] |==|  0.21250
USER: genes 15 Torsion [N]-C--CA-[N] |==|  0.26566
USER: genes 16 Torsion [C]-CA--CB-[CG] |==|  0.42279
USER: genes 17 Torsion [CA]-CB--CG-[CD] |==|  0.32446
USER: genes 18 Torsion [CB]-CG--CD-[NE2] |==|  0.25927
ROOT
ATOM      1  CA  HIS G 812     -29.328  33.290  24.902  1.00 98.11 LIG 0.18  C 
ENDROOT
BRANCH 1 2
ATOM      2  CB  HIS G 812     -30.607  33.388  24.059  1.00 96.29 LIG 0.10  C 
BRANCH 2 3
ATOM      3  CG  HIS G 812     -30.433  33.990  22.692  1.00 94.00 LIG 0.06  A 
ATOM      4  CD2 HIS G 812     -29.358  34.061  21.884  1.00 93.71 LIG 0.14  A 
ATOM      5 NE2  HIS G 812     -29.686  34.894  20.834  1.00 93.19 LIG-0.25  NA
ATOM      6  CE1 HIS G 812     -30.932  35.302  20.998  1.00 92.78 LIG 0.23  A 
ATOM      7 ND1  HIS G 812     -31.409  34.770  22.105  1.00 93.58 LIG-0.24  NA
ENDBRANCH 2 3
ENDBRANCH 1 2
BRANCH 1 8
ATOM      8  C   HIS G 812     -29.662  32.389  26.086  1.00 99.25 LIG 0.24  C 
ATOM      9  N   GLY G 813     -28.945  31.282  26.237  1.00100.26 LIG-0.35  N 
ATOM     10 H    GLY G 813     -28.313  31.030  25.713  1.00100.26 LIG 0.16  HD
ATOM     11 O    HIS G 812     -30.552  32.714  26.874  1.00 99.52 LIG-0.27  OA
BRANCH 9 12
ATOM     12  CA  GLY G 813     -29.214  30.397  27.358  1.00101.48 LIG 0.23  C 
BRANCH 12 13
ATOM     13  C   GLY G 813     -28.450  30.777  28.614  1.00102.44 LIG 0.24  C 
ATOM     14 O    GLY G 813     -27.789  31.814  28.641  1.00102.98 LIG-0.27  OA
ATOM     15  N   GLU G 814     -28.538  29.953  29.657  1.00102.70 LIG-0.34  N 
ATOM     16 H    GLU G 814     -29.006  29.231  29.664  1.00102.70 LIG 0.16  HD
BRANCH 15 17
ATOM     17  CA  GLU G 814     -27.821  30.228  30.904  1.00102.89 LIG 0.19  C 
BRANCH 17 18
ATOM     18  CB  GLU G 814     -26.312  30.347  30.653  1.00101.97 LIG 0.05  C 
BRANCH 18 19
ATOM     19  CG  GLU G 814     -25.459  29.332  31.390  1.00100.63 LIG 0.12  C 
BRANCH 19 20
ATOM     20  CD  GLU G 814     -26.284  28.395  32.260  1.00100.36 LIG 0.17  C 
ATOM     21 OE1  GLU G 814     -26.794  27.383  31.729  1.00 99.71 LIG-0.65  OA
ATOM     22 OE2  GLU G 814     -26.419  28.663  33.472  1.00 99.42 LIG-0.65  OA
ENDBRANCH 19 20
ENDBRANCH 18 19
ENDBRANCH 17 18
BRANCH 17 23
ATOM     23  C   GLU G 814     -28.323  31.528  31.542  1.00103.78 LIG 0.20  C 
ATOM     24 OXT  GLU G 814     -29.419  31.517  32.147  1.00104.07 LIG-0.65  OA
ATOM     25 O    GLU G 814     -27.606  32.547  31.434  1.00104.32 LIG-0.65  OA
ENDBRANCH 17 23
ENDBRANCH 15 17
ENDBRANCH 12 13
ENDBRANCH 9 12
ENDBRANCH 1 8
BRANCH 1 26
ATOM     26  N   HIS G 812     -28.310  32.493  24.205  1.00 98.48 LIG-0.35  N 
ATOM     27  C   GLY G 811     -27.102  32.925  23.837  1.00 98.46 LIG 0.24  C 
ATOM     28 O    GLY G 811     -26.695  34.081  24.001  1.00 98.78 LIG-0.27  OA
ATOM     29 H    HIS G 812     -28.572  31.689  24.050  1.00 98.48 LIG 0.16  HD
BRANCH 27 30
ATOM     30  CA  GLY G 811     -26.230  31.872  23.170  1.00 98.06 LIG 0.23  C 
BRANCH 30 31
ATOM     31  N   GLY G 811     -26.918  30.810  22.459  1.00 97.66 LIG-0.35  N 
ATOM     32 H    GLY G 811     -26.946  30.056  22.871  1.00 97.66 LIG 0.16  HD
ATOM     33  C   GLN G 810     -27.452  31.036  21.260  1.00 97.43 LIG 0.26  C 
ATOM     34 O    GLN G 810     -27.376  32.125  20.689  1.00 97.76 LIG-0.27  OA
BRANCH 33 35
ATOM     35  CA  GLN G 810     -28.164  29.858  20.595  1.00 96.79 LIG 0.40  C 
ATOM     36  N   GLN G 810     -29.631  29.916  20.862  1.00 96.61 LIG 0.61  N 
BRANCH 35 37
ATOM     37  CB  GLN G 810     -27.897  29.905  19.092  1.00 96.38 LIG 0.06  C 
BRANCH 37 38
ATOM     38  CG  GLN G 810     -27.931  28.562  18.379  1.00 95.56 LIG 0.10  C 
BRANCH 38 39
ATOM     39  CD  GLN G 810     -29.039  28.493  17.352  1.00 95.11 LIG 0.21  C 
ATOM     40  NE2 GLN G 810     -28.708  28.823  16.108  1.00 94.31 LIG-0.37  N 
ATOM     41 21HE GLN G 810     -27.902  29.061  15.926  1.00 94.31 LIG 0.16  HD
ATOM     42 22HE GLN G 810     -29.300  28.800  15.484  1.00 94.31 LIG 0.16  HD
ATOM     43 OE1  GLN G 810     -30.179  28.146  17.667  1.00 94.65 LIG-0.27  OA
ENDBRANCH 38 39
ENDBRANCH 37 38
ENDBRANCH 35 37
ENDBRANCH 33 35
ENDBRANCH 30 31
ENDBRANCH 27 30
ENDBRANCH 1 26
TORSDOF 17
ENDMDL
MODEL 65
USER: ADFR SOLUTION from run 140
USER: SCORE 11.873916 LL:  -3.031 LR: -10.101 RR:   0.000 FEB:  -5.030
USER: RMSD 7.273759
USER: SEED 139
USER: STATUS no improvement in best in 13 clusters for 5 generations
USER: GENES 19
USER: genes 0 Translation |==|  0.37333 0.31728 0.40326
USER: genes 1 Rotation |==|  0.49719 0.42633 0.45316 0.99231
USER: genes 2 Torsion [C]-CA--CB-[CG] |==|  0.29036
USER: genes 3 Torsion [CA]-CB--CG-[CD2] |==|  0.33516
USER: genes 4 Torsion [N]-CA--C-[N] |==|  0.15173
USER: genes 5 Torsion [C]-N--CA-[C] |==|  0.64047
USER: genes 6 Torsion [N]-CA--C-[N] |==|  0.32778
USER: genes 7 Torsion [C]-N--CA-[CB] |==|  0.15025
USER: genes 8 Torsion [N]-CA--CB-[CG] |==|  0.51290
USER: genes 9 Torsion [CA]-CB--CG-[CD] |==|  0.36828
USER: genes 10 Torsion [CB]-CG--CD-[OE2] |==|  0.37823
USER: genes 11 Torsion [N]-CA--C-[OXT] |==|  0.43994
USER: genes 12 Torsion [CB]-CA--N-[C] |==|  0.15247
USER: genes 13 Torsion [N]-C--CA-[N] |==|  0.99417
USER: genes 14 Torsion [C]-CA--N-[C] |==|  0.82318
USER: genes 15 Torsion [N]-C--CA-[N] |==|  0.61877
USER: genes 16 Torsion [C]-CA--CB-[CG] |==|  0.77624
USER: genes 17 Torsion [CA]-CB--CG-[CD] |==|  0.32331
USER: genes 18 Torsion [CB]-CG--CD-[NE2] |==|  0.53654
ROOT
ATOM      1  CA  HIS G 812     -28.514  30.347  19.339  1.00 98.11 LIG 0.18  C 
ENDROOT
BRANCH 1 2
ATOM      2  CB  HIS G 812     -28.434  28.822  19.181  1.00 96.29 LIG 0.10  C 
BRANCH 2 3
ATOM      3  CG  HIS G 812     -29.525  28.202  18.352  1.00 94.00 LIG 0.06  A 
ATOM      4  CD2 HIS G 812     -29.475  27.469  17.223  1.00 93.71 LIG 0.14  A 
ATOM      5 NE2  HIS G 812     -30.769  27.324  16.767  1.00 93.19 LIG-0.25  NA
ATOM      6  CE1 HIS G 812     -31.579  27.944  17.608  1.00 92.78 LIG 0.23  A 
ATOM      7 ND1  HIS G 812     -30.860  28.477  18.574  1.00 93.58 LIG-0.24  NA
ENDBRANCH 2 3
ENDBRANCH 1 2
BRANCH 1 8
ATOM      8  C   HIS G 812     -29.024  30.606  20.753  1.00 99.25 LIG 0.24  C 
ATOM      9  N   GLY G 813     -28.994  31.856  21.197  1.00100.26 LIG-0.35  N 
ATOM     10 H    GLY G 813     -28.700  32.530  20.752  1.00100.26 LIG 0.16  HD
ATOM     11 O    HIS G 812     -29.469  29.674  21.426  1.00 99.52 LIG-0.27  OA
BRANCH 9 12
ATOM     12  CA  GLY G 813     -29.482  32.158  22.532  1.00101.48 LIG 0.23  C 
BRANCH 12 13
ATOM     13  C   GLY G 813     -30.477  33.305  22.557  1.00102.44 LIG 0.24  C 
ATOM     14 O    GLY G 813     -30.131  34.426  22.184  1.00102.98 LIG-0.27  OA
ATOM     15  N   GLU G 814     -31.710  33.038  22.984  1.00102.70 LIG-0.34  N 
ATOM     16 H    GLU G 814     -31.977  32.259  23.234  1.00102.70 LIG 0.16  HD
BRANCH 15 17
ATOM     17  CA  GLU G 814     -32.731  34.085  23.059  1.00102.89 LIG 0.19  C 
BRANCH 17 18
ATOM     18  CB  GLU G 814     -32.882  34.800  21.710  1.00101.97 LIG 0.05  C 
BRANCH 18 19
ATOM     19  CG  GLU G 814     -33.839  35.977  21.714  1.00100.63 LIG 0.12  C 
BRANCH 19 20
ATOM     20  CD  GLU G 814     -33.254  37.210  21.040  1.00100.36 LIG 0.17  C 
ATOM     21 OE1  GLU G 814     -32.068  37.520  21.291  1.00 99.71 LIG-0.65  OA
ATOM     22 OE2  GLU G 814     -33.973  37.865  20.257  1.00 99.42 LIG-0.65  OA
ENDBRANCH 19 20
ENDBRANCH 18 19
ENDBRANCH 17 18
BRANCH 17 23
ATOM     23  C   GLU G 814     -34.085  33.494  23.464  1.00103.78 LIG 0.20  C 
ATOM     24 OXT  GLU G 814     -34.947  34.252  23.967  1.00104.07 LIG-0.65  OA
ATOM     25 O    GLU G 814     -34.273  32.273  23.267  1.00104.32 LIG-0.65  OA
ENDBRANCH 17 23
ENDBRANCH 15 17
ENDBRANCH 12 13
ENDBRANCH 9 12
ENDBRANCH 1 8
BRANCH 1 26
ATOM     26  N   HIS G 812     -27.168  30.932  19.402  1.00 98.48 LIG-0.35  N 
ATOM     27  C   GLY G 811     -26.204  30.764  18.494  1.00 98.46 LIG 0.24  C 
ATOM     28 O    GLY G 811     -26.309  30.051  17.489  1.00 98.78 LIG-0.27  OA
ATOM     29 H    HIS G 812     -27.052  31.413  20.105  1.00 98.48 LIG 0.16  HD
BRANCH 27 30
ATOM     30  CA  GLY G 811     -24.920  31.523  18.788  1.00 98.06 LIG 0.23  C 
BRANCH 30 31
ATOM     31  N   GLY G 811     -24.914  32.361  19.974  1.00 97.66 LIG-0.35  N 
ATOM     32 H    GLY G 811     -24.355  32.125  20.582  1.00 97.66 LIG 0.16  HD
ATOM     33  C   GLN G 810     -25.733  33.407  20.065  1.00 97.43 LIG 0.26  C 
ATOM     34 O    GLN G 810     -26.537  33.706  19.181  1.00 97.76 LIG-0.27  OA
BRANCH 33 35
ATOM     35  CA  GLN G 810     -25.646  34.234  21.347  1.00 96.79 LIG 0.40  C 
ATOM     36  N   GLN G 810     -27.012  34.589  21.834  1.00 96.61 LIG 0.61  N 
BRANCH 35 37
ATOM     37  CB  GLN G 810     -24.900  33.426  22.406  1.00 96.38 LIG 0.06  C 
BRANCH 37 38
ATOM     38  CG  GLN G 810     -25.728  32.379  23.135  1.00 95.56 LIG 0.10  C 
BRANCH 38 39
ATOM     39  CD  GLN G 810     -25.227  30.976  22.874  1.00 95.11 LIG 0.21  C 
ATOM     40  NE2 GLN G 810     -26.035  29.987  23.240  1.00 94.31 LIG-0.37  N 
ATOM     41 21HE GLN G 810     -26.794  30.164  23.604  1.00 94.31 LIG 0.16  HD
ATOM     42 22HE GLN G 810     -25.799  29.169  23.113  1.00 94.31 LIG 0.16  HD
ATOM     43 OE1  GLN G 810     -24.130  30.779  22.349  1.00 94.65 LIG-0.27  OA
ENDBRANCH 38 39
ENDBRANCH 37 38
ENDBRANCH 35 37
ENDBRANCH 33 35
ENDBRANCH 30 31
ENDBRANCH 27 30
ENDBRANCH 1 26
TORSDOF 17
ENDMDL
MODEL 66
USER: ADFR SOLUTION from run 148
USER: SCORE 11.831620 LL:  -3.451 LR: -10.092 RR:   0.000 FEB:  -5.021
USER: RMSD 8.686363
USER: SEED 147
USER: STATUS no improvement in best in 24 clusters for 5 generations
USER: GENES 19
USER: genes 0 Translation |==|  0.46769 0.41161 0.40072
USER: genes 1 Rotation |==|  0.63918 0.73518 0.60307 0.90583
USER: genes 2 Torsion [C]-CA--CB-[CG] |==|  0.26398
USER: genes 3 Torsion [CA]-CB--CG-[CD2] |==|  0.45492
USER: genes 4 Torsion [N]-CA--C-[N] |==|  0.87927
USER: genes 5 Torsion [C]-N--CA-[C] |==|  0.48320
USER: genes 6 Torsion [N]-CA--C-[N] |==|  0.44621
USER: genes 7 Torsion [C]-N--CA-[CB] |==|  0.84845
USER: genes 8 Torsion [N]-CA--CB-[CG] |==|  0.49007
USER: genes 9 Torsion [CA]-CB--CG-[CD] |==|  0.37353
USER: genes 10 Torsion [CB]-CG--CD-[OE2] |==|  0.39211
USER: genes 11 Torsion [N]-CA--C-[OXT] |==|  0.47990
USER: genes 12 Torsion [CB]-CA--N-[C] |==|  0.36358
USER: genes 13 Torsion [N]-C--CA-[N] |==|  0.98189
USER: genes 14 Torsion [C]-CA--N-[C] |==|  0.71111
USER: genes 15 Torsion [N]-C--CA-[N] |==|  0.81900
USER: genes 16 Torsion [C]-CA--CB-[CG] |==|  0.42875
USER: genes 17 Torsion [CA]-CB--CG-[CD] |==|  0.17777
USER: genes 18 Torsion [CB]-CG--CD-[NE2] |==|  0.77036
ROOT
ATOM      1  CA  HIS G 812     -26.674  32.116  19.276  1.00 98.11 LIG 0.18  C 
ENDROOT
BRANCH 1 2
ATOM      2  CB  HIS G 812     -26.625  31.230  18.023  1.00 96.29 LIG 0.10  C 
BRANCH 2 3
ATOM      3  CG  HIS G 812     -27.376  29.931  18.122  1.00 94.00 LIG 0.06  A 
ATOM      4  CD2 HIS G 812     -27.788  29.069  17.173  1.00 93.71 LIG 0.14  A 
ATOM      5 NE2  HIS G 812     -28.607  28.143  17.785  1.00 93.19 LIG-0.25  NA
ATOM      6  CE1 HIS G 812     -28.676  28.432  19.073  1.00 92.78 LIG 0.23  A 
ATOM      7 ND1  HIS G 812     -27.941  29.501  19.306  1.00 93.58 LIG-0.24  NA
ENDBRANCH 2 3
ENDBRANCH 1 2
BRANCH 1 8
ATOM      8  C   HIS G 812     -25.415  31.797  20.077  1.00 99.25 LIG 0.24  C 
ATOM      9  N   GLY G 813     -24.257  32.237  19.602  1.00100.26 LIG-0.35  N 
ATOM     10 H    GLY G 813     -24.161  32.681  18.872  1.00100.26 LIG 0.16  HD
ATOM     11 O    HIS G 812     -25.503  31.174  21.137  1.00 99.52 LIG-0.27  OA
BRANCH 9 12
ATOM     12  CA  GLY G 813     -23.031  31.973  20.334  1.00101.48 LIG 0.23  C 
BRANCH 12 13
ATOM     13  C   GLY G 813     -21.784  32.413  19.588  1.00102.44 LIG 0.24  C 
ATOM     14 O    GLY G 813     -21.830  32.604  18.374  1.00102.98 LIG-0.27  OA
ATOM     15  N   GLU G 814     -20.672  32.585  20.302  1.00102.70 LIG-0.34  N 
ATOM     16 H    GLU G 814     -20.622  32.473  21.153  1.00102.70 LIG 0.16  HD
BRANCH 15 17
ATOM     17  CA  GLU G 814     -19.417  32.991  19.665  1.00102.89 LIG 0.19  C 
BRANCH 17 18
ATOM     18  CB  GLU G 814     -19.048  32.035  18.523  1.00101.97 LIG 0.05  C 
BRANCH 18 19
ATOM     19  CG  GLU G 814     -17.806  32.420  17.743  1.00100.63 LIG 0.12  C 
BRANCH 19 20
ATOM     20  CD  GLU G 814     -16.877  31.239  17.501  1.00100.36 LIG 0.17  C 
ATOM     21 OE1  GLU G 814     -16.731  30.398  18.415  1.00 99.71 LIG-0.65  OA
ATOM     22 OE2  GLU G 814     -16.297  31.147  16.399  1.00 99.42 LIG-0.65  OA
ENDBRANCH 19 20
ENDBRANCH 18 19
ENDBRANCH 17 18
BRANCH 17 23
ATOM     23  C   GLU G 814     -19.528  34.414  19.107  1.00103.78 LIG 0.20  C 
ATOM     24 OXT  GLU G 814     -18.499  34.964  18.652  1.00104.07 LIG-0.65  OA
ATOM     25 O    GLU G 814     -20.652  34.964  19.126  1.00104.32 LIG-0.65  OA
ENDBRANCH 17 23
ENDBRANCH 15 17
ENDBRANCH 12 13
ENDBRANCH 9 12
ENDBRANCH 1 8
BRANCH 1 26
ATOM     26  N   HIS G 812     -26.448  33.523  18.924  1.00 98.48 LIG-0.35  N 
ATOM     27  C   GLY G 811     -27.200  34.554  19.316  1.00 98.46 LIG 0.24  C 
ATOM     28 O    GLY G 811     -28.223  34.448  20.003  1.00 98.78 LIG-0.27  OA
ATOM     29 H    HIS G 812     -25.758  33.630  18.421  1.00 98.48 LIG 0.16  HD
BRANCH 27 30
ATOM     30  CA  GLY G 811     -26.710  35.912  18.840  1.00 98.06 LIG 0.23  C 
BRANCH 30 31
ATOM     31  N   GLY G 811     -25.429  35.941  18.157  1.00 97.66 LIG-0.35  N 
ATOM     32 H    GLY G 811     -25.443  35.656  17.346  1.00 97.66 LIG 0.16  HD
ATOM     33  C   GLN G 810     -24.340  36.384  18.783  1.00 97.43 LIG 0.26  C 
ATOM     34 O    GLN G 810     -24.350  36.766  19.954  1.00 97.76 LIG-0.27  OA
BRANCH 33 35
ATOM     35  CA  GLN G 810     -23.041  36.385  17.978  1.00 96.79 LIG 0.40  C 
ATOM     36  N   GLN G 810     -22.634  34.989  17.640  1.00 96.61 LIG 0.61  N 
BRANCH 35 37
ATOM     37  CB  GLN G 810     -23.251  37.199  16.704  1.00 96.38 LIG 0.06  C 
BRANCH 37 38
ATOM     38  CG  GLN G 810     -21.995  37.815  16.105  1.00 95.56 LIG 0.10  C 
BRANCH 38 39
ATOM     39  CD  GLN G 810     -21.012  36.763  15.642  1.00 95.11 LIG 0.21  C 
ATOM     40  NE2 GLN G 810     -20.218  36.250  16.576  1.00 94.31 LIG-0.37  N 
ATOM     41 21HE GLN G 810     -20.281  36.521  17.390  1.00 94.31 LIG 0.16  HD
ATOM     42 22HE GLN G 810     -19.642  35.647  16.367  1.00 94.31 LIG 0.16  HD
ATOM     43 OE1  GLN G 810     -20.964  36.411  14.462  1.00 94.65 LIG-0.27  OA
ENDBRANCH 38 39
ENDBRANCH 37 38
ENDBRANCH 35 37
ENDBRANCH 33 35
ENDBRANCH 30 31
ENDBRANCH 27 30
ENDBRANCH 1 26
TORSDOF 17
ENDMDL
MODEL 67
USER: ADFR SOLUTION from run 79
USER: SCORE 10.420850 LL:  -1.967 LR: -10.094 RR:   0.000 FEB:  -5.023
USER: RMSD 5.595467
USER: SEED 78
USER: STATUS no improvement in best in 17 clusters for 5 generations
USER: GENES 19
USER: genes 0 Translation |==|  0.46225 0.33822 0.36737
USER: genes 1 Rotation |==|  0.55947 0.40159 0.42053 0.98006
USER: genes 2 Torsion [C]-CA--CB-[CG] |==|  0.17878
USER: genes 3 Torsion [CA]-CB--CG-[CD2] |==|  0.28880
USER: genes 4 Torsion [N]-CA--C-[N] |==|  0.27794
USER: genes 5 Torsion [C]-N--CA-[C] |==|  0.48759
USER: genes 6 Torsion [N]-CA--C-[N] |==|  0.39803
USER: genes 7 Torsion [C]-N--CA-[CB] |==|  0.18860
USER: genes 8 Torsion [N]-CA--CB-[CG] |==|  0.42225
USER: genes 9 Torsion [CA]-CB--CG-[CD] |==|  0.36563
USER: genes 10 Torsion [CB]-CG--CD-[OE2] |==|  0.40998
USER: genes 11 Torsion [N]-CA--C-[OXT] |==|  0.34383
USER: genes 12 Torsion [CB]-CA--N-[C] |==|  0.53654
USER: genes 13 Torsion [N]-C--CA-[N] |==|  0.36924
USER: genes 14 Torsion [C]-CA--N-[C] |==|  0.72347
USER: genes 15 Torsion [N]-C--CA-[N] |==|  0.34344
USER: genes 16 Torsion [C]-CA--CB-[CG] |==|  0.51935
USER: genes 17 Torsion [CA]-CB--CG-[CD] |==|  0.25620
USER: genes 18 Torsion [CB]-CG--CD-[NE2] |==|  0.55765
ROOT
ATOM      1  CA  HIS G 812     -26.780  30.740  18.450  1.00 98.11 LIG 0.18  C 
ENDROOT
BRANCH 1 2
ATOM      2  CB  HIS G 812     -26.799  29.301  17.914  1.00 96.29 LIG 0.10  C 
BRANCH 2 3
ATOM      3  CG  HIS G 812     -28.164  28.732  17.644  1.00 94.00 LIG 0.06  A 
ATOM      4  CD2 HIS G 812     -28.829  28.529  16.490  1.00 93.71 LIG 0.14  A 
ATOM      5 NE2  HIS G 812     -30.121  28.173  16.816  1.00 93.19 LIG-0.25  NA
ATOM      6  CE1 HIS G 812     -30.229  28.150  18.133  1.00 92.78 LIG 0.23  A 
ATOM      7 ND1  HIS G 812     -29.065  28.477  18.658  1.00 93.58 LIG-0.24  NA
ENDBRANCH 2 3
ENDBRANCH 1 2
BRANCH 1 8
ATOM      8  C   HIS G 812     -27.461  30.698  19.815  1.00 99.25 LIG 0.24  C 
ATOM      9  N   GLY G 813     -28.206  31.740  20.162  1.00100.26 LIG-0.35  N 
ATOM     10 H    GLY G 813     -28.327  32.441  19.679  1.00100.26 LIG 0.16  HD
ATOM     11 O    HIS G 812     -27.329  29.709  20.538  1.00 99.52 LIG-0.27  OA
BRANCH 9 12
ATOM     12  CA  GLY G 813     -28.888  31.744  21.444  1.00101.48 LIG 0.23  C 
BRANCH 12 13
ATOM     13  C   GLY G 813     -29.608  33.049  21.734  1.00102.44 LIG 0.24  C 
ATOM     14 O    GLY G 813     -29.114  34.116  21.372  1.00102.98 LIG-0.27  OA
ATOM     15  N   GLU G 814     -30.773  32.976  22.375  1.00102.70 LIG-0.34  N 
ATOM     16 H    GLU G 814     -31.144  32.240  22.622  1.00102.70 LIG 0.16  HD
BRANCH 15 17
ATOM     17  CA  GLU G 814     -31.530  34.184  22.712  1.00102.89 LIG 0.19  C 
BRANCH 17 18
ATOM     18  CB  GLU G 814     -32.065  34.866  21.446  1.00101.97 LIG 0.05  C 
BRANCH 18 19
ATOM     19  CG  GLU G 814     -33.339  35.666  21.640  1.00100.63 LIG 0.12  C 
BRANCH 19 20
ATOM     20  CD  GLU G 814     -33.256  37.058  21.031  1.00100.36 LIG 0.17  C 
ATOM     21 OE1  GLU G 814     -32.147  37.635  21.011  1.00 99.71 LIG-0.65  OA
ATOM     22 OE2  GLU G 814     -34.295  37.573  20.566  1.00 99.42 LIG-0.65  OA
ENDBRANCH 19 20
ENDBRANCH 18 19
ENDBRANCH 17 18
BRANCH 17 23
ATOM     23  C   GLU G 814     -32.709  33.846  23.631  1.00103.78 LIG 0.20  C 
ATOM     24 OXT  GLU G 814     -32.799  34.432  24.734  1.00104.07 LIG-0.65  OA
ATOM     25 O    GLU G 814     -33.537  32.998  23.232  1.00104.32 LIG-0.65  OA
ENDBRANCH 17 23
ENDBRANCH 15 17
ENDBRANCH 12 13
ENDBRANCH 9 12
ENDBRANCH 1 8
BRANCH 1 26
ATOM     26  N   HIS G 812     -25.415  31.138  18.817  1.00 98.48 LIG-0.35  N 
ATOM     27  C   GLY G 811     -25.085  32.213  19.535  1.00 98.46 LIG 0.24  C 
ATOM     28 O    GLY G 811     -25.896  33.047  19.954  1.00 98.78 LIG-0.27  OA
ATOM     29 H    HIS G 812     -24.821  30.593  18.515  1.00 98.48 LIG 0.16  HD
BRANCH 27 30
ATOM     30  CA  GLY G 811     -23.595  32.361  19.805  1.00 98.06 LIG 0.23  C 
BRANCH 30 31
ATOM     31  N   GLY G 811     -23.017  33.673  19.572  1.00 97.66 LIG-0.35  N 
ATOM     32 H    GLY G 811     -23.140  34.241  20.205  1.00 97.66 LIG 0.16  HD
ATOM     33  C   GLN G 810     -22.355  33.928  18.445  1.00 97.43 LIG 0.26  C 
ATOM     34 O    GLN G 810     -22.215  33.095  17.549  1.00 97.76 LIG-0.27  OA
BRANCH 33 35
ATOM     35  CA  GLN G 810     -21.774  35.334  18.297  1.00 96.79 LIG 0.40  C 
ATOM     36  N   GLN G 810     -20.304  35.270  18.052  1.00 96.61 LIG 0.61  N 
BRANCH 35 37
ATOM     37  CB  GLN G 810     -22.474  36.036  17.135  1.00 96.38 LIG 0.06  C 
BRANCH 37 38
ATOM     38  CG  GLN G 810     -21.900  37.389  16.745  1.00 95.56 LIG 0.10  C 
BRANCH 38 39
ATOM     39  CD  GLN G 810     -20.856  37.271  15.658  1.00 95.11 LIG 0.21  C 
ATOM     40  NE2 GLN G 810     -20.007  38.287  15.546  1.00 94.31 LIG-0.37  N 
ATOM     41 21HE GLN G 810     -20.073  38.963  16.074  1.00 94.31 LIG 0.16  HD
ATOM     42 22HE GLN G 810     -19.393  38.270  14.944  1.00 94.31 LIG 0.16  HD
ATOM     43 OE1  GLN G 810     -20.807  36.280  14.927  1.00 94.65 LIG-0.27  OA
ENDBRANCH 38 39
ENDBRANCH 37 38
ENDBRANCH 35 37
ENDBRANCH 33 35
ENDBRANCH 30 31
ENDBRANCH 27 30
ENDBRANCH 1 26
TORSDOF 17
ENDMDL
MODEL 68
USER: ADFR SOLUTION from run 165
USER: SCORE 10.343494 LL:  -2.174 LR: -10.034 RR:   0.000 FEB:  -4.963
USER: RMSD 7.255336
USER: SEED 164
USER: STATUS no improvement in best in 20 clusters for 5 generations
USER: GENES 19
USER: genes 0 Translation |==|  0.48102 0.43282 0.39709
USER: genes 1 Rotation |==|  0.57849 0.82743 0.62834 0.84664
USER: genes 2 Torsion [C]-CA--CB-[CG] |==|  0.37131
USER: genes 3 Torsion [CA]-CB--CG-[CD2] |==|  0.92483
USER: genes 4 Torsion [N]-CA--C-[N] |==|  0.63078
USER: genes 5 Torsion [C]-N--CA-[C] |==|  0.21869
USER: genes 6 Torsion [N]-CA--C-[N] |==|  0.53298
USER: genes 7 Torsion [C]-N--CA-[CB] |==|  0.34889
USER: genes 8 Torsion [N]-CA--CB-[CG] |==|  0.88395
USER: genes 9 Torsion [CA]-CB--CG-[CD] |==|  0.50907
USER: genes 10 Torsion [CB]-CG--CD-[OE2] |==|  0.74941
USER: genes 11 Torsion [N]-CA--C-[OXT] |==|  0.95218
USER: genes 12 Torsion [CB]-CA--N-[C] |==|  0.37370
USER: genes 13 Torsion [N]-C--CA-[N] |==|  0.91239
USER: genes 14 Torsion [C]-CA--N-[C] |==|  0.81838
USER: genes 15 Torsion [N]-C--CA-[N] |==|  0.72884
USER: genes 16 Torsion [C]-CA--CB-[CG] |==|  0.48018
USER: genes 17 Torsion [CA]-CB--CG-[CD] |==|  0.50161
USER: genes 18 Torsion [CB]-CG--CD-[NE2] |==|  0.30868
ROOT
ATOM      1  CA  HIS G 812     -26.414  32.513  19.186  1.00 98.11 LIG 0.18  C 
ENDROOT
BRANCH 1 2
ATOM      2  CB  HIS G 812     -26.418  31.442  18.086  1.00 96.29 LIG 0.10  C 
BRANCH 2 3
ATOM      3  CG  HIS G 812     -27.388  30.311  18.292  1.00 94.00 LIG 0.06  A 
ATOM      4  CD2 HIS G 812     -27.911  29.784  19.416  1.00 93.71 LIG 0.14  A 
ATOM      5 NE2  HIS G 812     -28.588  28.636  19.057  1.00 93.19 LIG-0.25  NA
ATOM      6  CE1 HIS G 812     -28.486  28.484  17.747  1.00 92.78 LIG 0.23  A 
ATOM      7 ND1  HIS G 812     -27.774  29.480  17.260  1.00 93.58 LIG-0.24  NA
ENDBRANCH 2 3
ENDBRANCH 1 2
BRANCH 1 8
ATOM      8  C   HIS G 812     -24.950  32.778  19.523  1.00 99.25 LIG 0.24  C 
ATOM      9  N   GLY G 813     -24.058  31.875  19.135  1.00100.26 LIG-0.35  N 
ATOM     10 H    GLY G 813     -24.243  31.148  18.716  1.00100.26 LIG 0.16  HD
ATOM     11 O    HIS G 812     -24.632  33.813  20.111  1.00 99.52 LIG-0.27  OA
BRANCH 9 12
ATOM     12  CA  GLY G 813     -22.649  32.087  19.418  1.00101.48 LIG 0.23  C 
BRANCH 12 13
ATOM     13  C   GLY G 813     -22.273  31.757  20.852  1.00102.44 LIG 0.24  C 
ATOM     14 O    GLY G 813     -23.064  31.147  21.570  1.00102.98 LIG-0.27  OA
ATOM     15  N   GLU G 814     -21.070  32.145  21.274  1.00102.70 LIG-0.34  N 
ATOM     16 H    GLU G 814     -20.496  32.558  20.785  1.00102.70 LIG 0.16  HD
BRANCH 15 17
ATOM     17  CA  GLU G 814     -20.628  31.886  22.646  1.00102.89 LIG 0.19  C 
BRANCH 17 18
ATOM     18  CB  GLU G 814     -19.287  31.140  22.658  1.00101.97 LIG 0.05  C 
BRANCH 18 19
ATOM     19  CG  GLU G 814     -19.162  30.033  21.629  1.00100.63 LIG 0.12  C 
BRANCH 19 20
ATOM     20  CD  GLU G 814     -17.846  29.277  21.738  1.00100.36 LIG 0.17  C 
ATOM     21 OE1  GLU G 814     -17.794  28.274  22.483  1.00 99.71 LIG-0.65  OA
ATOM     22 OE2  GLU G 814     -16.865  29.679  21.076  1.00 99.42 LIG-0.65  OA
ENDBRANCH 19 20
ENDBRANCH 18 19
ENDBRANCH 17 18
BRANCH 17 23
ATOM     23  C   GLU G 814     -20.474  33.197  23.423  1.00103.78 LIG 0.20  C 
ATOM     24 OXT  GLU G 814     -20.403  34.271  22.783  1.00104.07 LIG-0.65  OA
ATOM     25 O    GLU G 814     -20.432  33.136  24.672  1.00104.32 LIG-0.65  OA
ENDBRANCH 17 23
ENDBRANCH 15 17
ENDBRANCH 12 13
ENDBRANCH 9 12
ENDBRANCH 1 8
BRANCH 1 26
ATOM     26  N   HIS G 812     -26.828  33.813  18.643  1.00 98.48 LIG-0.35  N 
ATOM     27  C   GLY G 811     -27.702  34.649  19.207  1.00 98.46 LIG 0.24  C 
ATOM     28 O    GLY G 811     -28.315  34.414  20.256  1.00 98.78 LIG-0.27  OA
ATOM     29 H    HIS G 812     -26.442  33.996  17.897  1.00 98.48 LIG 0.16  HD
BRANCH 27 30
ATOM     30  CA  GLY G 811     -27.913  35.951  18.450  1.00 98.06 LIG 0.23  C 
BRANCH 30 31
ATOM     31  N   GLY G 811     -26.775  36.468  17.711  1.00 97.66 LIG-0.35  N 
ATOM     32 H    GLY G 811     -26.873  36.484  16.857  1.00 97.66 LIG 0.16  HD
ATOM     33  C   GLN G 810     -25.682  36.874  18.354  1.00 97.43 LIG 0.26  C 
ATOM     34 O    GLN G 810     -25.566  36.818  19.579  1.00 97.76 LIG-0.27  OA
BRANCH 33 35
ATOM     35  CA  GLN G 810     -24.540  37.411  17.491  1.00 96.79 LIG 0.40  C 
ATOM     36  N   GLN G 810     -23.519  36.349  17.254  1.00 96.61 LIG 0.61  N 
BRANCH 35 37
ATOM     37  CB  GLN G 810     -25.114  37.899  16.163  1.00 96.38 LIG 0.06  C 
BRANCH 37 38
ATOM     38  CG  GLN G 810     -24.134  38.621  15.251  1.00 95.56 LIG 0.10  C 
BRANCH 38 39
ATOM     39  CD  GLN G 810     -24.786  39.082  13.967  1.00 95.11 LIG 0.21  C 
ATOM     40  NE2 GLN G 810     -24.930  40.395  13.820  1.00 94.31 LIG-0.37  N 
ATOM     41 21HE GLN G 810     -24.659  40.929  14.437  1.00 94.31 LIG 0.16  HD
ATOM     42 22HE GLN G 810     -25.294  40.711  13.108  1.00 94.31 LIG 0.16  HD
ATOM     43 OE1  GLN G 810     -25.156  38.273  13.115  1.00 94.65 LIG-0.27  OA
ENDBRANCH 38 39
ENDBRANCH 37 38
ENDBRANCH 35 37
ENDBRANCH 33 35
ENDBRANCH 30 31
ENDBRANCH 27 30
ENDBRANCH 1 26
TORSDOF 17
ENDMDL
MODEL 69
USER: ADFR SOLUTION from run 166
USER: SCORE 10.337048 LL:  -2.353 LR:  -9.977 RR:   0.000 FEB:  -4.906
USER: RMSD 9.458751
USER: SEED 165
USER: STATUS no improvement in best in 35 clusters for 5 generations
USER: GENES 19
USER: genes 0 Translation |==|  0.44428 0.35247 0.49139
USER: genes 1 Rotation |==|  0.47640 0.24681 0.23651 0.84045
USER: genes 2 Torsion [C]-CA--CB-[CG] |==|  0.36951
USER: genes 3 Torsion [CA]-CB--CG-[CD2] |==|  0.93025
USER: genes 4 Torsion [N]-CA--C-[N] |==|  0.57754
USER: genes 5 Torsion [C]-N--CA-[C] |==|  0.31111
USER: genes 6 Torsion [N]-CA--C-[N] |==|  0.47579
USER: genes 7 Torsion [C]-N--CA-[CB] |==|  0.27265
USER: genes 8 Torsion [N]-CA--CB-[CG] |==|  0.44751
USER: genes 9 Torsion [CA]-CB--CG-[CD] |==|  0.59617
USER: genes 10 Torsion [CB]-CG--CD-[OE2] |==|  0.15511
USER: genes 11 Torsion [N]-CA--C-[OXT] |==|  0.87902
USER: genes 12 Torsion [CB]-CA--N-[C] |==|  0.38284
USER: genes 13 Torsion [N]-C--CA-[N] |==|  0.92528
USER: genes 14 Torsion [C]-CA--N-[C] |==|  0.81952
USER: genes 15 Torsion [N]-C--CA-[N] |==|  0.22962
USER: genes 16 Torsion [C]-CA--CB-[CG] |==|  0.32840
USER: genes 17 Torsion [CA]-CB--CG-[CD] |==|  0.17416
USER: genes 18 Torsion [CB]-CG--CD-[NE2] |==|  0.42715
ROOT
ATOM      1  CA  HIS G 812     -27.131  31.007  21.520  1.00 98.11 LIG 0.18  C 
ENDROOT
BRANCH 1 2
ATOM      2  CB  HIS G 812     -28.140  30.007  20.938  1.00 96.29 LIG 0.10  C 
BRANCH 2 3
ATOM      3  CG  HIS G 812     -27.916  29.629  19.499  1.00 94.00 LIG 0.06  A 
ATOM      4  CD2 HIS G 812     -27.302  30.284  18.495  1.00 93.71 LIG 0.14  A 
ATOM      5 NE2  HIS G 812     -27.554  29.586  17.333  1.00 93.19 LIG-0.25  NA
ATOM      6  CE1 HIS G 812     -28.290  28.529  17.632  1.00 92.78 LIG 0.23  A 
ATOM      7 ND1  HIS G 812     -28.519  28.527  18.929  1.00 93.58 LIG-0.24  NA
ENDBRANCH 2 3
ENDBRANCH 1 2
BRANCH 1 8
ATOM      8  C   HIS G 812     -27.949  32.067  22.250  1.00 99.25 LIG 0.24  C 
ATOM      9  N   GLY G 813     -29.111  32.421  21.716  1.00100.26 LIG-0.35  N 
ATOM     10 H    GLY G 813     -29.435  32.104  20.985  1.00100.26 LIG 0.16  HD
ATOM     11 O    HIS G 812     -27.534  32.542  23.309  1.00 99.52 LIG-0.27  OA
BRANCH 9 12
ATOM     12  CA  GLY G 813     -29.936  33.416  22.380  1.00101.48 LIG 0.23  C 
BRANCH 12 13
ATOM     13  C   GLY G 813     -30.040  34.718  21.605  1.00102.44 LIG 0.24  C 
ATOM     14 O    GLY G 813     -29.338  34.898  20.611  1.00102.98 LIG-0.27  OA
ATOM     15  N   GLU G 814     -30.914  35.623  22.043  1.00102.70 LIG-0.34  N 
ATOM     16 H    GLU G 814     -31.424  35.511  22.726  1.00102.70 LIG 0.16  HD
BRANCH 15 17
ATOM     17  CA  GLU G 814     -31.070  36.914  21.370  1.00102.89 LIG 0.19  C 
BRANCH 17 18
ATOM     18  CB  GLU G 814     -32.270  36.891  20.414  1.00101.97 LIG 0.05  C 
BRANCH 18 19
ATOM     19  CG  GLU G 814     -32.796  38.256  20.014  1.00100.63 LIG 0.12  C 
BRANCH 19 20
ATOM     20  CD  GLU G 814     -34.307  38.273  19.832  1.00100.36 LIG 0.17  C 
ATOM     21 OE1  GLU G 814     -34.770  38.656  18.735  1.00 99.71 LIG-0.65  OA
ATOM     22 OE2  GLU G 814     -35.030  37.899  20.778  1.00 99.42 LIG-0.65  OA
ENDBRANCH 19 20
ENDBRANCH 18 19
ENDBRANCH 17 18
BRANCH 17 23
ATOM     23  C   GLU G 814     -31.270  38.038  22.391  1.00103.78 LIG 0.20  C 
ATOM     24 OXT  GLU G 814     -32.045  37.844  23.356  1.00104.07 LIG-0.65  OA
ATOM     25 O    GLU G 814     -30.640  39.105  22.219  1.00104.32 LIG-0.65  OA
ENDBRANCH 17 23
ENDBRANCH 15 17
ENDBRANCH 12 13
ENDBRANCH 9 12
ENDBRANCH 1 8
BRANCH 1 26
ATOM     26  N   HIS G 812     -26.383  30.400  22.629  1.00 98.48 LIG-0.35  N 
ATOM     27  C   GLY G 811     -25.072  30.527  22.844  1.00 98.46 LIG 0.24  C 
ATOM     28 O    GLY G 811     -24.300  31.148  22.102  1.00 98.78 LIG-0.27  OA
ATOM     29 H    HIS G 812     -26.886  29.936  23.150  1.00 98.48 LIG 0.16  HD
BRANCH 27 30
ATOM     30  CA  GLY G 811     -24.565  29.828  24.096  1.00 98.06 LIG 0.23  C 
BRANCH 30 31
ATOM     31  N   GLY G 811     -25.520  29.651  25.176  1.00 97.66 LIG-0.35  N 
ATOM     32 H    GLY G 811     -25.717  28.834  25.355  1.00 97.66 LIG 0.16  HD
ATOM     33  C   GLN G 810     -26.024  30.708  25.810  1.00 97.43 LIG 0.26  C 
ATOM     34 O    GLN G 810     -25.734  31.867  25.513  1.00 97.76 LIG-0.27  OA
BRANCH 33 35
ATOM     35  CA  GLN G 810     -27.014  30.419  26.939  1.00 96.79 LIG 0.40  C 
ATOM     36  N   GLN G 810     -26.288  30.100  28.203  1.00 96.61 LIG 0.61  N 
BRANCH 35 37
ATOM     37  CB  GLN G 810     -27.907  31.642  27.136  1.00 96.38 LIG 0.06  C 
BRANCH 37 38
ATOM     38  CG  GLN G 810     -29.392  31.414  26.894  1.00 95.56 LIG 0.10  C 
BRANCH 38 39
ATOM     39  CD  GLN G 810     -29.977  30.411  27.863  1.00 95.11 LIG 0.21  C 
ATOM     40  NE2 GLN G 810     -31.277  30.527  28.113  1.00 94.31 LIG-0.37  N 
ATOM     41 21HE GLN G 810     -31.735  31.148  27.733  1.00 94.31 LIG 0.16  HD
ATOM     42 22HE GLN G 810     -31.661  29.981  28.656  1.00 94.31 LIG 0.16  HD
ATOM     43 OE1  GLN G 810     -29.275  29.541  28.380  1.00 94.65 LIG-0.27  OA
ENDBRANCH 38 39
ENDBRANCH 37 38
ENDBRANCH 35 37
ENDBRANCH 33 35
ENDBRANCH 30 31
ENDBRANCH 27 30
ENDBRANCH 1 26
TORSDOF 17
ENDMDL
MODEL 70
USER: ADFR SOLUTION from run 157
USER: SCORE 10.594338 LL:  -1.886 LR:  -9.976 RR:   0.000 FEB:  -4.905
USER: RMSD 11.042649
USER: SEED 156
USER: STATUS no improvement in best in 15 clusters for 5 generations
USER: GENES 19
USER: genes 0 Translation |==|  0.50198 0.35813 0.43221
USER: genes 1 Rotation |==|  0.70429 0.82525 0.81043 0.57820
USER: genes 2 Torsion [C]-CA--CB-[CG] |==|  0.38555
USER: genes 3 Torsion [CA]-CB--CG-[CD2] |==|  0.19438
USER: genes 4 Torsion [N]-CA--C-[N] |==|  0.46131
USER: genes 5 Torsion [C]-N--CA-[C] |==|  0.32681
USER: genes 6 Torsion [N]-CA--C-[N] |==|  0.10030
USER: genes 7 Torsion [C]-N--CA-[CB] |==|  0.87077
USER: genes 8 Torsion [N]-CA--CB-[CG] |==|  0.84461
USER: genes 9 Torsion [CA]-CB--CG-[CD] |==|  0.52202
USER: genes 10 Torsion [CB]-CG--CD-[OE2] |==|  0.80692
USER: genes 11 Torsion [N]-CA--C-[OXT] |==|  0.53840
USER: genes 12 Torsion [CB]-CA--N-[C] |==|  0.49444
USER: genes 13 Torsion [N]-C--CA-[N] |==|  0.42865
USER: genes 14 Torsion [C]-CA--N-[C] |==|  0.26006
USER: genes 15 Torsion [N]-C--CA-[N] |==|  0.59140
USER: genes 16 Torsion [C]-CA--CB-[CG] |==|  0.35743
USER: genes 17 Torsion [CA]-CB--CG-[CD] |==|  0.13652
USER: genes 18 Torsion [CB]-CG--CD-[NE2] |==|  0.69410
ROOT
ATOM      1  CA  HIS G 812     -26.005  31.113  20.055  1.00 98.11 LIG 0.18  C 
ENDROOT
BRANCH 1 2
ATOM      2  CB  HIS G 812     -26.862  31.334  18.801  1.00 96.29 LIG 0.10  C 
BRANCH 2 3
ATOM      3  CG  HIS G 812     -27.447  30.089  18.193  1.00 94.00 LIG 0.06  A 
ATOM      4  CD2 HIS G 812     -28.416  29.259  18.627  1.00 93.71 LIG 0.14  A 
ATOM      5 NE2  HIS G 812     -28.424  28.162  17.791  1.00 93.19 LIG-0.25  NA
ATOM      6  CE1 HIS G 812     -27.492  28.332  16.869  1.00 92.78 LIG 0.23  A 
ATOM      7 ND1  HIS G 812     -26.892  29.485  17.082  1.00 93.58 LIG-0.24  NA
ENDBRANCH 2 3
ENDBRANCH 1 2
BRANCH 1 8
ATOM      8  C   HIS G 812     -24.799  32.037  19.919  1.00 99.25 LIG 0.24  C 
ATOM      9  N   GLY G 813     -23.819  31.653  19.111  1.00100.26 LIG-0.35  N 
ATOM     10 H    GLY G 813     -23.808  30.919  18.665  1.00100.26 LIG 0.16  HD
ATOM     11 O    HIS G 812     -24.775  33.108  20.529  1.00 99.52 LIG-0.27  OA
BRANCH 9 12
ATOM     12  CA  GLY G 813     -22.655  32.504  18.936  1.00101.48 LIG 0.23  C 
BRANCH 12 13
ATOM     13  C   GLY G 813     -21.364  31.854  19.400  1.00102.44 LIG 0.24  C 
ATOM     14 O    GLY G 813     -20.495  32.533  19.945  1.00102.98 LIG-0.27  OA
ATOM     15  N   GLU G 814     -21.233  30.543  19.201  1.00102.70 LIG-0.34  N 
ATOM     16 H    GLU G 814     -21.834  30.047  18.837  1.00102.70 LIG 0.16  HD
BRANCH 15 17
ATOM     17  CA  GLU G 814     -20.016  29.833  19.600  1.00102.89 LIG 0.19  C 
BRANCH 17 18
ATOM     18  CB  GLU G 814     -18.763  30.598  19.149  1.00101.97 LIG 0.05  C 
BRANCH 18 19
ATOM     19  CG  GLU G 814     -18.695  30.893  17.663  1.00100.63 LIG 0.12  C 
BRANCH 19 20
ATOM     20  CD  GLU G 814     -17.354  31.477  17.242  1.00100.36 LIG 0.17  C 
ATOM     21 OE1  GLU G 814     -16.595  30.778  16.536  1.00 99.71 LIG-0.65  OA
ATOM     22 OE2  GLU G 814     -17.061  32.634  17.610  1.00 99.42 LIG-0.65  OA
ENDBRANCH 19 20
ENDBRANCH 18 19
ENDBRANCH 17 18
BRANCH 17 23
ATOM     23  C   GLU G 814     -19.967  29.653  21.121  1.00103.78 LIG 0.20  C 
ATOM     24 OXT  GLU G 814     -18.887  29.306  21.652  1.00104.07 LIG-0.65  OA
ATOM     25 O    GLU G 814     -21.016  29.868  21.769  1.00104.32 LIG-0.65  OA
ENDBRANCH 17 23
ENDBRANCH 15 17
ENDBRANCH 12 13
ENDBRANCH 9 12
ENDBRANCH 1 8
BRANCH 1 26
ATOM     26  N   HIS G 812     -26.669  31.671  21.240  1.00 98.48 LIG-0.35  N 
ATOM     27  C   GLY G 811     -26.207  31.612  22.491  1.00 98.46 LIG 0.24  C 
ATOM     28 O    GLY G 811     -25.165  31.035  22.822  1.00 98.78 LIG-0.27  OA
ATOM     29 H    HIS G 812     -27.414  32.056  21.049  1.00 98.48 LIG 0.16  HD
BRANCH 27 30
ATOM     30  CA  GLY G 811     -27.078  32.314  23.521  1.00 98.06 LIG 0.23  C 
BRANCH 30 31
ATOM     31  N   GLY G 811     -26.986  31.834  24.889  1.00 97.66 LIG-0.35  N 
ATOM     32 H    GLY G 811     -27.503  31.174  25.077  1.00 97.66 LIG 0.16  HD
ATOM     33  C   GLN G 810     -26.147  32.407  25.750  1.00 97.43 LIG 0.26  C 
ATOM     34 O    GLN G 810     -25.434  33.366  25.452  1.00 97.76 LIG-0.27  OA
BRANCH 33 35
ATOM     35  CA  GLN G 810     -26.115  31.825  27.163  1.00 96.79 LIG 0.40  C 
ATOM     36  N   GLN G 810     -25.836  32.896  28.164  1.00 96.61 LIG 0.61  N 
BRANCH 35 37
ATOM     37  CB  GLN G 810     -27.460  31.164  27.455  1.00 96.38 LIG 0.06  C 
BRANCH 37 38
ATOM     38  CG  GLN G 810     -27.389  29.735  27.972  1.00 95.56 LIG 0.10  C 
BRANCH 38 39
ATOM     39  CD  GLN G 810     -26.409  29.593  29.115  1.00 95.11 LIG 0.21  C 
ATOM     40  NE2 GLN G 810     -25.298  28.914  28.854  1.00 94.31 LIG-0.37  N 
ATOM     41 21HE GLN G 810     -25.169  28.583  28.071  1.00 94.31 LIG 0.16  HD
ATOM     42 22HE GLN G 810     -24.706  28.804  29.469  1.00 94.31 LIG 0.16  HD
ATOM     43 OE1  GLN G 810     -26.644  30.086  30.220  1.00 94.65 LIG-0.27  OA
ENDBRANCH 38 39
ENDBRANCH 37 38
ENDBRANCH 35 37
ENDBRANCH 33 35
ENDBRANCH 30 31
ENDBRANCH 27 30
ENDBRANCH 1 26
TORSDOF 17
ENDMDL
MODEL 71
USER: ADFR SOLUTION from run 67
USER: SCORE 10.973061 LL:  -2.262 LR:  -9.970 RR:   0.000 FEB:  -4.899
USER: RMSD 10.437763
USER: SEED 66
USER: STATUS no improvement in best in 31 clusters for 5 generations
USER: GENES 19
USER: genes 0 Translation |==|  0.47847 0.37209 0.47997
USER: genes 1 Rotation |==|  0.18968 0.32084 0.16162 0.58427
USER: genes 2 Torsion [C]-CA--CB-[CG] |==|  0.11722
USER: genes 3 Torsion [CA]-CB--CG-[CD2] |==|  0.05522
USER: genes 4 Torsion [N]-CA--C-[N] |==|  0.32444
USER: genes 5 Torsion [C]-N--CA-[C] |==|  0.35791
USER: genes 6 Torsion [N]-CA--C-[N] |==|  0.17252
USER: genes 7 Torsion [C]-N--CA-[CB] |==|  0.82961
USER: genes 8 Torsion [N]-CA--CB-[CG] |==|  0.69103
USER: genes 9 Torsion [CA]-CB--CG-[CD] |==|  0.60352
USER: genes 10 Torsion [CB]-CG--CD-[OE2] |==|  0.49677
USER: genes 11 Torsion [N]-CA--C-[OXT] |==|  0.59574
USER: genes 12 Torsion [CB]-CA--N-[C] |==|  0.56329
USER: genes 13 Torsion [N]-C--CA-[N] |==|  0.93073
USER: genes 14 Torsion [C]-CA--N-[C] |==|  0.78582
USER: genes 15 Torsion [N]-C--CA-[N] |==|  0.60651
USER: genes 16 Torsion [C]-CA--CB-[CG] |==|  0.65775
USER: genes 17 Torsion [CA]-CB--CG-[CD] |==|  0.24908
USER: genes 18 Torsion [CB]-CG--CD-[NE2] |==|  0.32617
ROOT
ATOM      1  CA  HIS G 812     -26.464  31.375  21.237  1.00 98.11 LIG 0.18  C 
ENDROOT
BRANCH 1 2
ATOM      2  CB  HIS G 812     -27.685  32.300  21.130  1.00 96.29 LIG 0.10  C 
BRANCH 2 3
ATOM      3  CG  HIS G 812     -27.585  33.379  20.088  1.00 94.00 LIG 0.06  A 
ATOM      4  CD2 HIS G 812     -26.798  33.493  19.000  1.00 93.71 LIG 0.14  A 
ATOM      5 NE2  HIS G 812     -26.965  34.769  18.502  1.00 93.19 LIG-0.25  NA
ATOM      6  CE1 HIS G 812     -27.842  35.403  19.263  1.00 92.78 LIG 0.23  A 
ATOM      7 ND1  HIS G 812     -28.235  34.589  20.221  1.00 93.58 LIG-0.24  NA
ENDBRANCH 2 3
ENDBRANCH 1 2
BRANCH 1 8
ATOM      8  C   HIS G 812     -25.235  32.272  21.136  1.00 99.25 LIG 0.24  C 
ATOM      9  N   GLY G 813     -24.315  31.955  20.234  1.00100.26 LIG-0.35  N 
ATOM     10 H    GLY G 813     -24.354  31.277  19.708  1.00100.26 LIG 0.16  HD
ATOM     11 O    HIS G 812     -25.138  33.266  21.860  1.00 99.52 LIG-0.27  OA
BRANCH 9 12
ATOM     12  CA  GLY G 813     -23.133  32.786  20.088  1.00101.48 LIG 0.23  C 
BRANCH 12 13
ATOM     13  C   GLY G 813     -21.837  31.995  20.133  1.00102.44 LIG 0.24  C 
ATOM     14 O    GLY G 813     -21.021  32.204  21.029  1.00102.98 LIG-0.27  OA
ATOM     15  N   GLU G 814     -21.644  31.083  19.182  1.00102.70 LIG-0.34  N 
ATOM     16 H    GLU G 814     -22.207  30.910  18.555  1.00102.70 LIG 0.16  HD
BRANCH 15 17
ATOM     17  CA  GLU G 814     -20.417  30.284  19.135  1.00102.89 LIG 0.19  C 
BRANCH 17 18
ATOM     18  CB  GLU G 814     -19.186  31.182  18.951  1.00101.97 LIG 0.05  C 
BRANCH 18 19
ATOM     19  CG  GLU G 814     -18.494  31.052  17.608  1.00100.63 LIG 0.12  C 
BRANCH 19 20
ATOM     20  CD  GLU G 814     -16.979  31.153  17.716  1.00100.36 LIG 0.17  C 
ATOM     21 OE1  GLU G 814     -16.473  31.341  18.844  1.00 99.71 LIG-0.65  OA
ATOM     22 OE2  GLU G 814     -16.294  31.038  16.678  1.00 99.42 LIG-0.65  OA
ENDBRANCH 19 20
ENDBRANCH 18 19
ENDBRANCH 17 18
BRANCH 17 23
ATOM     23  C   GLU G 814     -20.250  29.470  20.422  1.00103.78 LIG 0.20  C 
ATOM     24 OXT  GLU G 814     -19.095  29.274  20.865  1.00104.07 LIG-0.65  OA
ATOM     25 O    GLU G 814     -21.284  29.038  20.979  1.00104.32 LIG-0.65  OA
ENDBRANCH 17 23
ENDBRANCH 15 17
ENDBRANCH 12 13
ENDBRANCH 9 12
ENDBRANCH 1 8
BRANCH 1 26
ATOM     26  N   HIS G 812     -26.331  30.850  22.602  1.00 98.48 LIG-0.35  N 
ATOM     27  C   GLY G 811     -25.205  30.392  23.153  1.00 98.46 LIG 0.24  C 
ATOM     28 O    GLY G 811     -24.122  30.311  22.561  1.00 98.78 LIG-0.27  OA
ATOM     29 H    HIS G 812     -27.075  30.865  23.034  1.00 98.48 LIG 0.16  HD
BRANCH 27 30
ATOM     30  CA  GLY G 811     -25.344  29.949  24.602  1.00 98.06 LIG 0.23  C 
BRANCH 30 31
ATOM     31  N   GLY G 811     -26.419  30.553  25.368  1.00 97.66 LIG-0.35  N 
ATOM     32 H    GLY G 811     -27.108  30.052  25.483  1.00 97.66 LIG 0.16  HD
ATOM     33  C   GLN G 810     -26.300  31.794  25.836  1.00 97.43 LIG 0.26  C 
ATOM     34 O    GLN G 810     -25.306  32.492  25.635  1.00 97.76 LIG-0.27  OA
BRANCH 33 35
ATOM     35  CA  GLN G 810     -27.481  32.338  26.640  1.00 96.79 LIG 0.40  C 
ATOM     36  N   GLN G 810     -27.705  33.780  26.328  1.00 96.61 LIG 0.61  N 
BRANCH 35 37
ATOM     37  CB  GLN G 810     -28.727  31.523  26.299  1.00 96.38 LIG 0.06  C 
BRANCH 37 38
ATOM     38  CG  GLN G 810     -29.910  32.322  25.774  1.00 95.56 LIG 0.10  C 
BRANCH 38 39
ATOM     39  CD  GLN G 810     -29.879  32.460  24.268  1.00 95.11 LIG 0.21  C 
ATOM     40  NE2 GLN G 810     -30.894  31.913  23.608  1.00 94.31 LIG-0.37  N 
ATOM     41 21HE GLN G 810     -31.518  31.507  24.038  1.00 94.31 LIG 0.16  HD
ATOM     42 22HE GLN G 810     -30.926  31.963  22.750  1.00 94.31 LIG 0.16  HD
ATOM     43 OE1  GLN G 810     -28.959  33.052  23.702  1.00 94.65 LIG-0.27  OA
ENDBRANCH 38 39
ENDBRANCH 37 38
ENDBRANCH 35 37
ENDBRANCH 33 35
ENDBRANCH 30 31
ENDBRANCH 27 30
ENDBRANCH 1 26
TORSDOF 17
ENDMDL
MODEL 72
USER: ADFR SOLUTION from run 14
USER: SCORE 11.161033 LL:  -2.201 LR:  -9.943 RR:   0.000 FEB:  -4.872
USER: RMSD 10.875614
USER: SEED 707773
USER: STATUS no improvement in best in 36 clusters for 5 generations
USER: GENES 19
USER: genes 0 Translation |==|  0.51971 0.36000 0.41996
USER: genes 1 Rotation |==|  0.72790 0.82607 0.80285 0.50477
USER: genes 2 Torsion [C]-CA--CB-[CG] |==|  0.40821
USER: genes 3 Torsion [CA]-CB--CG-[CD2] |==|  0.71485
USER: genes 4 Torsion [N]-CA--C-[N] |==|  0.36613
USER: genes 5 Torsion [C]-N--CA-[C] |==|  0.30579
USER: genes 6 Torsion [N]-CA--C-[N] |==|  0.42098
USER: genes 7 Torsion [C]-N--CA-[CB] |==|  0.33174
USER: genes 8 Torsion [N]-CA--CB-[CG] |==|  0.10004
USER: genes 9 Torsion [CA]-CB--CG-[CD] |==|  0.51107
USER: genes 10 Torsion [CB]-CG--CD-[OE2] |==|  0.03622
USER: genes 11 Torsion [N]-CA--C-[OXT] |==|  0.27010
USER: genes 12 Torsion [CB]-CA--N-[C] |==|  0.51112
USER: genes 13 Torsion [N]-C--CA-[N] |==|  0.04215
USER: genes 14 Torsion [C]-CA--N-[C] |==|  0.77268
USER: genes 15 Torsion [N]-C--CA-[N] |==|  0.75643
USER: genes 16 Torsion [C]-CA--CB-[CG] |==|  0.18895
USER: genes 17 Torsion [CA]-CB--CG-[CD] |==|  0.60822
USER: genes 18 Torsion [CB]-CG--CD-[NE2] |==|  0.69536
ROOT
ATOM      1  CA  HIS G 812     -25.660  31.148  19.752  1.00 98.11 LIG 0.18  C 
ENDROOT
BRANCH 1 2
ATOM      2  CB  HIS G 812     -26.837  31.374  18.793  1.00 96.29 LIG 0.10  C 
BRANCH 2 3
ATOM      3  CG  HIS G 812     -27.555  30.130  18.350  1.00 94.00 LIG 0.06  A 
ATOM      4  CD2 HIS G 812     -27.504  29.439  17.194  1.00 93.71 LIG 0.14  A 
ATOM      5 NE2  HIS G 812     -28.510  28.496  17.233  1.00 93.19 LIG-0.25  NA
ATOM      6  CE1 HIS G 812     -29.143  28.607  18.389  1.00 92.78 LIG 0.23  A 
ATOM      7 ND1  HIS G 812     -28.586  29.578  19.083  1.00 93.58 LIG-0.24  NA
ENDBRANCH 2 3
ENDBRANCH 1 2
BRANCH 1 8
ATOM      8  C   HIS G 812     -24.633  32.231  19.434  1.00 99.25 LIG 0.24  C 
ATOM      9  N   GLY G 813     -23.482  31.847  18.897  1.00100.26 LIG-0.35  N 
ATOM     10 H    GLY G 813     -23.267  31.034  18.722  1.00100.26 LIG 0.16  HD
ATOM     11 O    HIS G 812     -24.900  33.414  19.654  1.00 99.52 LIG-0.27  OA
BRANCH 9 12
ATOM     12  CA  GLY G 813     -22.477  32.841  18.562  1.00101.48 LIG 0.23  C 
BRANCH 12 13
ATOM     13  C   GLY G 813     -21.256  32.782  19.462  1.00102.44 LIG 0.24  C 
ATOM     14 O    GLY G 813     -21.362  32.366  20.615  1.00102.98 LIG-0.27  OA
ATOM     15  N   GLU G 814     -20.095  33.184  18.947  1.00102.70 LIG-0.34  N 
ATOM     16 H    GLU G 814     -19.995  33.463  18.139  1.00102.70 LIG 0.16  HD
BRANCH 15 17
ATOM     17  CA  GLU G 814     -18.868  33.178  19.746  1.00102.89 LIG 0.19  C 
BRANCH 17 18
ATOM     18  CB  GLU G 814     -17.810  32.259  19.120  1.00101.97 LIG 0.05  C 
BRANCH 18 19
ATOM     19  CG  GLU G 814     -17.791  32.248  17.603  1.00100.63 LIG 0.12  C 
BRANCH 19 20
ATOM     20  CD  GLU G 814     -16.791  31.250  17.037  1.00100.36 LIG 0.17  C 
ATOM     21 OE1  GLU G 814     -16.498  31.323  15.823  1.00 99.71 LIG-0.65  OA
ATOM     22 OE2  GLU G 814     -16.294  30.397  17.803  1.00 99.42 LIG-0.65  OA
ENDBRANCH 19 20
ENDBRANCH 18 19
ENDBRANCH 17 18
BRANCH 17 23
ATOM     23  C   GLU G 814     -18.290  34.592  19.863  1.00103.78 LIG 0.20  C 
ATOM     24 OXT  GLU G 814     -18.547  35.264  20.889  1.00104.07 LIG-0.65  OA
ATOM     25 O    GLU G 814     -17.579  35.014  18.925  1.00104.32 LIG-0.65  OA
ENDBRANCH 17 23
ENDBRANCH 15 17
ENDBRANCH 12 13
ENDBRANCH 9 12
ENDBRANCH 1 8
BRANCH 1 26
ATOM     26  N   HIS G 812     -26.037  31.498  21.127  1.00 98.48 LIG-0.35  N 
ATOM     27  C   GLY G 811     -25.223  31.487  22.184  1.00 98.46 LIG 0.24  C 
ATOM     28 O    GLY G 811     -24.037  31.135  22.147  1.00 98.78 LIG-0.27  OA
ATOM     29 H    HIS G 812     -26.866  31.720  21.194  1.00 98.48 LIG 0.16  HD
BRANCH 27 30
ATOM     30  CA  GLY G 811     -25.867  31.938  23.485  1.00 98.06 LIG 0.23  C 
BRANCH 30 31
ATOM     31  N   GLY G 811     -27.318  31.994  23.509  1.00 97.66 LIG-0.35  N 
ATOM     32 H    GLY G 811     -27.702  31.310  23.863  1.00 97.66 LIG 0.16  HD
ATOM     33  C   GLN G 810     -27.962  33.046  23.009  1.00 97.43 LIG 0.26  C 
ATOM     34 O    GLN G 810     -27.382  34.001  22.490  1.00 97.76 LIG-0.27  OA
BRANCH 33 35
ATOM     35  CA  GLN G 810     -29.488  33.016  23.089  1.00 96.79 LIG 0.40  C 
ATOM     36  N   GLN G 810     -30.061  32.330  21.894  1.00 96.61 LIG 0.61  N 
BRANCH 35 37
ATOM     37  CB  GLN G 810     -29.901  32.289  24.366  1.00 96.38 LIG 0.06  C 
BRANCH 37 38
ATOM     38  CG  GLN G 810     -29.572  33.008  25.665  1.00 95.56 LIG 0.10  C 
BRANCH 38 39
ATOM     39  CD  GLN G 810     -29.105  32.053  26.741  1.00 95.11 LIG 0.21  C 
ATOM     40  NE2 GLN G 810     -29.940  31.856  27.755  1.00 94.31 LIG-0.37  N 
ATOM     41 21HE GLN G 810     -30.697  32.264  27.773  1.00 94.31 LIG 0.16  HD
ATOM     42 22HE GLN G 810     -29.724  31.321  28.393  1.00 94.31 LIG 0.16  HD
ATOM     43 OE1  GLN G 810     -28.009  31.496  26.664  1.00 94.65 LIG-0.27  OA
ENDBRANCH 38 39
ENDBRANCH 37 38
ENDBRANCH 35 37
ENDBRANCH 33 35
ENDBRANCH 30 31
ENDBRANCH 27 30
ENDBRANCH 1 26
TORSDOF 17
ENDMDL
MODEL 73
USER: ADFR SOLUTION from run 140
USER: SCORE 10.852817 LL:  -1.952 LR:  -9.936 RR:   0.000 FEB:  -4.865
USER: RMSD 6.128245
USER: SEED 139
USER: STATUS no improvement in best in 13 clusters for 5 generations
USER: GENES 19
USER: genes 0 Translation |==|  0.37945 0.32641 0.41708
USER: genes 1 Rotation |==|  0.52271 0.37762 0.47177 0.98344
USER: genes 2 Torsion [C]-CA--CB-[CG] |==|  0.28008
USER: genes 3 Torsion [CA]-CB--CG-[CD2] |==|  0.32580
USER: genes 4 Torsion [N]-CA--C-[N] |==|  0.12577
USER: genes 5 Torsion [C]-N--CA-[C] |==|  0.62020
USER: genes 6 Torsion [N]-CA--C-[N] |==|  0.35556
USER: genes 7 Torsion [C]-N--CA-[CB] |==|  0.16791
USER: genes 8 Torsion [N]-CA--CB-[CG] |==|  0.55740
USER: genes 9 Torsion [CA]-CB--CG-[CD] |==|  0.49141
USER: genes 10 Torsion [CB]-CG--CD-[OE2] |==|  0.34786
USER: genes 11 Torsion [N]-CA--C-[OXT] |==|  0.48030
USER: genes 12 Torsion [CB]-CA--N-[C] |==|  0.16432
USER: genes 13 Torsion [N]-C--CA-[N] |==|  0.50172
USER: genes 14 Torsion [C]-CA--N-[C] |==|  0.51210
USER: genes 15 Torsion [N]-C--CA-[N] |==|  0.97382
USER: genes 16 Torsion [C]-CA--CB-[CG] |==|  0.84114
USER: genes 17 Torsion [CA]-CB--CG-[CD] |==|  0.28641
USER: genes 18 Torsion [CB]-CG--CD-[NE2] |==|  0.58569
ROOT
ATOM      1  CA  HIS G 812     -28.395  30.518  19.681  1.00 98.11 LIG 0.18  C 
ENDROOT
BRANCH 1 2
ATOM      2  CB  HIS G 812     -28.143  29.021  19.449  1.00 96.29 LIG 0.10  C 
BRANCH 2 3
ATOM      3  CG  HIS G 812     -29.042  28.366  18.437  1.00 94.00 LIG 0.06  A 
ATOM      4  CD2 HIS G 812     -28.768  27.774  17.258  1.00 93.71 LIG 0.14  A 
ATOM      5 NE2  HIS G 812     -29.972  27.522  16.634  1.00 93.19 LIG-0.25  NA
ATOM      6  CE1 HIS G 812     -30.947  27.939  17.423  1.00 92.78 LIG 0.23  A 
ATOM      7 ND1  HIS G 812     -30.417  28.447  18.517  1.00 93.58 LIG-0.24  NA
ENDBRANCH 2 3
ENDBRANCH 1 2
BRANCH 1 8
ATOM      8  C   HIS G 812     -29.202  30.623  20.971  1.00 99.25 LIG 0.24  C 
ATOM      9  N   GLY G 813     -29.219  31.797  21.590  1.00100.26 LIG-0.35  N 
ATOM     10 H    GLY G 813     -28.803  32.500  21.325  1.00100.26 LIG 0.16  HD
ATOM     11 O    HIS G 812     -29.827  29.646  21.385  1.00 99.52 LIG-0.27  OA
BRANCH 9 12
ATOM     12  CA  GLY G 813     -29.985  31.953  22.815  1.00101.48 LIG 0.23  C 
BRANCH 12 13
ATOM     13  C   GLY G 813     -30.775  33.250  22.863  1.00102.44 LIG 0.24  C 
ATOM     14 O    GLY G 813     -30.211  34.321  22.641  1.00102.98 LIG-0.27  OA
ATOM     15  N   GLU G 814     -32.075  33.165  23.140  1.00102.70 LIG-0.34  N 
ATOM     16 H    GLU G 814     -32.492  32.426  23.282  1.00102.70 LIG 0.16  HD
BRANCH 15 17
ATOM     17  CA  GLU G 814     -32.913  34.363  23.225  1.00102.89 LIG 0.19  C 
BRANCH 17 18
ATOM     18  CB  GLU G 814     -32.918  35.123  21.891  1.00101.97 LIG 0.05  C 
BRANCH 18 19
ATOM     19  CG  GLU G 814     -33.321  36.581  21.988  1.00100.63 LIG 0.12  C 
BRANCH 19 20
ATOM     20  CD  GLU G 814     -33.237  37.303  20.651  1.00100.36 LIG 0.17  C 
ATOM     21 OE1  GLU G 814     -32.156  37.269  20.022  1.00 99.71 LIG-0.65  OA
ATOM     22 OE2  GLU G 814     -34.249  37.898  20.224  1.00 99.42 LIG-0.65  OA
ENDBRANCH 19 20
ENDBRANCH 18 19
ENDBRANCH 17 18
BRANCH 17 23
ATOM     23  C   GLU G 814     -34.353  33.993  23.592  1.00103.78 LIG 0.20  C 
ATOM     24 OXT  GLU G 814     -35.168  34.913  23.836  1.00104.07 LIG-0.65  OA
ATOM     25 O    GLU G 814     -34.655  32.780  23.625  1.00104.32 LIG-0.65  OA
ENDBRANCH 17 23
ENDBRANCH 15 17
ENDBRANCH 12 13
ENDBRANCH 9 12
ENDBRANCH 1 8
BRANCH 1 26
ATOM     26  N   HIS G 812     -27.150  31.199  20.058  1.00 98.48 LIG-0.35  N 
ATOM     27  C   GLY G 811     -26.036  31.247  19.324  1.00 98.46 LIG 0.24  C 
ATOM     28 O    GLY G 811     -25.895  30.680  18.234  1.00 98.78 LIG-0.27  OA
ATOM     29 H    HIS G 812     -27.204  31.582  20.827  1.00 98.48 LIG 0.16  HD
BRANCH 27 30
ATOM     30  CA  GLY G 811     -24.908  32.062  19.938  1.00 98.06 LIG 0.23  C 
BRANCH 30 31
ATOM     31  N   GLY G 811     -23.679  32.156  19.170  1.00 97.66 LIG-0.35  N 
ATOM     32 H    GLY G 811     -23.707  31.787  18.394  1.00 97.66 LIG 0.16  HD
ATOM     33  C   GLN G 810     -22.614  32.777  19.674  1.00 97.43 LIG 0.26  C 
ATOM     34 O    GLN G 810     -22.602  33.277  20.799  1.00 97.76 LIG-0.27  OA
BRANCH 33 35
ATOM     35  CA  GLN G 810     -21.371  32.832  18.787  1.00 96.79 LIG 0.40  C 
ATOM     36  N   GLN G 810     -21.544  31.959  17.589  1.00 96.61 LIG 0.61  N 
BRANCH 35 37
ATOM     37  CB  GLN G 810     -21.134  34.278  18.358  1.00 96.38 LIG 0.06  C 
BRANCH 37 38
ATOM     38  CG  GLN G 810     -22.291  34.942  17.627  1.00 95.56 LIG 0.10  C 
BRANCH 38 39
ATOM     39  CD  GLN G 810     -23.056  35.893  18.519  1.00 95.11 LIG 0.21  C 
ATOM     40  NE2 GLN G 810     -24.352  36.027  18.260  1.00 94.31 LIG-0.37  N 
ATOM     41 21HE GLN G 810     -24.709  35.587  17.613  1.00 94.31 LIG 0.16  HD
ATOM     42 22HE GLN G 810     -24.834  36.555  18.738  1.00 94.31 LIG 0.16  HD
ATOM     43 OE1  GLN G 810     -22.494  36.499  19.433  1.00 94.65 LIG-0.27  OA
ENDBRANCH 38 39
ENDBRANCH 37 38
ENDBRANCH 35 37
ENDBRANCH 33 35
ENDBRANCH 30 31
ENDBRANCH 27 30
ENDBRANCH 1 26
TORSDOF 17
ENDMDL
MODEL 74
USER: ADFR SOLUTION from run 144
USER: SCORE 10.432408 LL:  -2.455 LR:  -9.925 RR:   0.000 FEB:  -4.854
USER: RMSD 8.774019
USER: SEED 143
USER: STATUS no improvement in best in 35 clusters for 5 generations
USER: GENES 19
USER: genes 0 Translation |==|  0.44765 0.35328 0.48644
USER: genes 1 Rotation |==|  0.44475 0.25338 0.20722 0.81687
USER: genes 2 Torsion [C]-CA--CB-[CG] |==|  0.38896
USER: genes 3 Torsion [CA]-CB--CG-[CD2] |==|  0.42624
USER: genes 4 Torsion [N]-CA--C-[N] |==|  0.95808
USER: genes 5 Torsion [C]-N--CA-[C] |==|  0.22982
USER: genes 6 Torsion [N]-CA--C-[N] |==|  0.63544
USER: genes 7 Torsion [C]-N--CA-[CB] |==|  0.86025
USER: genes 8 Torsion [N]-CA--CB-[CG] |==|  0.59318
USER: genes 9 Torsion [CA]-CB--CG-[CD] |==|  0.28665
USER: genes 10 Torsion [CB]-CG--CD-[OE2] |==|  0.84029
USER: genes 11 Torsion [N]-CA--C-[OXT] |==|  0.96081
USER: genes 12 Torsion [CB]-CA--N-[C] |==|  0.42569
USER: genes 13 Torsion [N]-C--CA-[N] |==|  0.86158
USER: genes 14 Torsion [C]-CA--N-[C] |==|  0.85230
USER: genes 15 Torsion [N]-C--CA-[N] |==|  0.75433
USER: genes 16 Torsion [C]-CA--CB-[CG] |==|  0.59366
USER: genes 17 Torsion [CA]-CB--CG-[CD] |==|  0.47993
USER: genes 18 Torsion [CB]-CG--CD-[NE2] |==|  0.17607
ROOT
ATOM      1  CA  HIS G 812     -27.065  31.022  21.397  1.00 98.11 LIG 0.18  C 
ENDROOT
BRANCH 1 2
ATOM      2  CB  HIS G 812     -28.267  30.229  20.866  1.00 96.29 LIG 0.10  C 
BRANCH 2 3
ATOM      3  CG  HIS G 812     -28.100  29.654  19.486  1.00 94.00 LIG 0.06  A 
ATOM      4  CD2 HIS G 812     -28.664  28.581  18.898  1.00 93.71 LIG 0.14  A 
ATOM      5 NE2  HIS G 812     -28.013  28.380  17.698  1.00 93.19 LIG-0.25  NA
ATOM      6  CE1 HIS G 812     -27.090  29.317  17.561  1.00 92.78 LIG 0.23  A 
ATOM      7 ND1  HIS G 812     -27.123  30.100  18.620  1.00 93.58 LIG-0.24  NA
ENDBRANCH 2 3
ENDBRANCH 1 2
BRANCH 1 8
ATOM      8  C   HIS G 812     -27.638  32.232  22.129  1.00 99.25 LIG 0.24  C 
ATOM      9  N   GLY G 813     -27.700  32.176  23.454  1.00100.26 LIG-0.35  N 
ATOM     10 H    GLY G 813     -27.450  31.506  23.930  1.00100.26 LIG 0.16  HD
ATOM     11 O    HIS G 812     -27.998  33.222  21.490  1.00 99.52 LIG-0.27  OA
BRANCH 9 12
ATOM     12  CA  GLY G 813     -28.223  33.308  24.198  1.00101.48 LIG 0.23  C 
BRANCH 12 13
ATOM     13  C   GLY G 813     -29.740  33.324  24.271  1.00102.44 LIG 0.24  C 
ATOM     14 O    GLY G 813     -30.350  32.309  24.605  1.00102.98 LIG-0.27  OA
ATOM     15  N   GLU G 814     -30.355  34.467  23.970  1.00102.70 LIG-0.34  N 
ATOM     16 H    GLU G 814     -29.948  35.191  23.749  1.00102.70 LIG 0.16  HD
BRANCH 15 17
ATOM     17  CA  GLU G 814     -31.816  34.571  23.995  1.00102.89 LIG 0.19  C 
BRANCH 17 18
ATOM     18  CB  GLU G 814     -32.460  33.431  23.195  1.00101.97 LIG 0.05  C 
BRANCH 18 19
ATOM     19  CG  GLU G 814     -33.749  33.797  22.484  1.00100.63 LIG 0.12  C 
BRANCH 19 20
ATOM     20  CD  GLU G 814     -33.554  34.011  20.990  1.00100.36 LIG 0.17  C 
ATOM     21 OE1  GLU G 814     -34.229  33.320  20.196  1.00 99.71 LIG-0.65  OA
ATOM     22 OE2  GLU G 814     -32.732  34.871  20.609  1.00 99.42 LIG-0.65  OA
ENDBRANCH 19 20
ENDBRANCH 18 19
ENDBRANCH 17 18
BRANCH 17 23
ATOM     23  C   GLU G 814     -32.338  34.525  25.435  1.00103.78 LIG 0.20  C 
ATOM     24 OXT  GLU G 814     -31.564  34.147  26.344  1.00104.07 LIG-0.65  OA
ATOM     25 O    GLU G 814     -33.521  34.875  25.640  1.00104.32 LIG-0.65  OA
ENDBRANCH 17 23
ENDBRANCH 15 17
ENDBRANCH 12 13
ENDBRANCH 9 12
ENDBRANCH 1 8
BRANCH 1 26
ATOM     26  N   HIS G 812     -26.413  30.298  22.496  1.00 98.48 LIG-0.35  N 
ATOM     27  C   GLY G 811     -25.128  30.403  22.842  1.00 98.46 LIG 0.24  C 
ATOM     28 O    GLY G 811     -24.301  31.104  22.247  1.00 98.78 LIG-0.27  OA
ATOM     29 H    HIS G 812     -26.955  29.778  22.914  1.00 98.48 LIG 0.16  HD
BRANCH 27 30
ATOM     30  CA  GLY G 811     -24.727  29.571  24.050  1.00 98.06 LIG 0.23  C 
BRANCH 30 31
ATOM     31  N   GLY G 811     -25.564  29.690  25.231  1.00 97.66 LIG-0.35  N 
ATOM     32 H    GLY G 811     -25.857  28.946  25.545  1.00 97.66 LIG 0.16  HD
ATOM     33  C   GLN G 810     -25.830  30.887  25.751  1.00 97.43 LIG 0.26  C 
ATOM     34 O    GLN G 810     -25.411  31.937  25.263  1.00 97.76 LIG-0.27  OA
BRANCH 33 35
ATOM     35  CA  GLN G 810     -26.712  30.910  27.000  1.00 96.79 LIG 0.40  C 
ATOM     36  N   GLN G 810     -28.154  30.977  26.620  1.00 96.61 LIG 0.61  N 
BRANCH 35 37
ATOM     37  CB  GLN G 810     -26.438  29.651  27.820  1.00 96.38 LIG 0.06  C 
BRANCH 37 38
ATOM     38  CG  GLN G 810     -27.635  29.082  28.567  1.00 95.56 LIG 0.10  C 
BRANCH 38 39
ATOM     39  CD  GLN G 810     -27.323  27.748  29.207  1.00 95.11 LIG 0.21  C 
ATOM     40  NE2 GLN G 810     -26.388  27.755  30.151  1.00 94.31 LIG-0.37  N 
ATOM     41 21HE GLN G 810     -25.997  28.491  30.364  1.00 94.31 LIG 0.16  HD
ATOM     42 22HE GLN G 810     -26.172  27.023  30.549  1.00 94.31 LIG 0.16  HD
ATOM     43 OE1  GLN G 810     -27.913  26.724  28.863  1.00 94.65 LIG-0.27  OA
ENDBRANCH 38 39
ENDBRANCH 37 38
ENDBRANCH 35 37
ENDBRANCH 33 35
ENDBRANCH 30 31
ENDBRANCH 27 30
ENDBRANCH 1 26
TORSDOF 17
ENDMDL
MODEL 75
USER: ADFR SOLUTION from run 33
USER: SCORE 11.665759 LL:  -3.658 LR:  -9.911 RR:   0.000 FEB:  -4.840
USER: RMSD 8.284535
USER: SEED 32
USER: STATUS no improvement in best in 6 clusters for 5 generations
USER: GENES 19
USER: genes 0 Translation |==|  0.46887 0.39701 0.42090
USER: genes 1 Rotation |==|  0.57896 0.70270 0.62058 0.93375
USER: genes 2 Torsion [C]-CA--CB-[CG] |==|  0.34930
USER: genes 3 Torsion [CA]-CB--CG-[CD2] |==|  0.39318
USER: genes 4 Torsion [N]-CA--C-[N] |==|  0.88936
USER: genes 5 Torsion [C]-N--CA-[C] |==|  0.24091
USER: genes 6 Torsion [N]-CA--C-[N] |==|  0.24355
USER: genes 7 Torsion [C]-N--CA-[CB] |==|  0.43391
USER: genes 8 Torsion [N]-CA--CB-[CG] |==|  0.28291
USER: genes 9 Torsion [CA]-CB--CG-[CD] |==|  0.54280
USER: genes 10 Torsion [CB]-CG--CD-[OE2] |==|  0.10912
USER: genes 11 Torsion [N]-CA--C-[OXT] |==|  0.46456
USER: genes 12 Torsion [CB]-CA--N-[C] |==|  0.40430
USER: genes 13 Torsion [N]-C--CA-[N] |==|  0.91299
USER: genes 14 Torsion [C]-CA--N-[C] |==|  0.79760
USER: genes 15 Torsion [N]-C--CA-[N] |==|  0.40726
USER: genes 16 Torsion [C]-CA--CB-[CG] |==|  0.30420
USER: genes 17 Torsion [CA]-CB--CG-[CD] |==|  0.62499
USER: genes 18 Torsion [CB]-CG--CD-[NE2] |==|  0.63846
ROOT
ATOM      1  CA  HIS G 812     -26.651  31.842  19.775  1.00 98.11 LIG 0.18  C 
ENDROOT
BRANCH 1 2
ATOM      2  CB  HIS G 812     -26.230  30.789  18.740  1.00 96.29 LIG 0.10  C 
BRANCH 2 3
ATOM      3  CG  HIS G 812     -27.273  29.758  18.409  1.00 94.00 LIG 0.06  A 
ATOM      4  CD2 HIS G 812     -27.605  29.173  17.242  1.00 93.71 LIG 0.14  A 
ATOM      5 NE2  HIS G 812     -28.762  28.453  17.456  1.00 93.19 LIG-0.25  NA
ATOM      6  CE1 HIS G 812     -29.111  28.589  18.724  1.00 92.78 LIG 0.23  A 
ATOM      7 ND1  HIS G 812     -28.230  29.365  19.323  1.00 93.58 LIG-0.24  NA
ENDBRANCH 2 3
ENDBRANCH 1 2
BRANCH 1 8
ATOM      8  C   HIS G 812     -25.591  31.813  20.872  1.00 99.25 LIG 0.24  C 
ATOM      9  N   GLY G 813     -24.423  32.387  20.612  1.00100.26 LIG-0.35  N 
ATOM     10 H    GLY G 813     -24.215  32.766  19.869  1.00100.26 LIG 0.16  HD
ATOM     11 O    HIS G 812     -25.846  31.293  21.960  1.00 99.52 LIG-0.27  OA
BRANCH 9 12
ATOM     12  CA  GLY G 813     -23.385  32.400  21.628  1.00101.48 LIG 0.23  C 
BRANCH 12 13
ATOM     13  C   GLY G 813     -22.519  31.153  21.612  1.00102.44 LIG 0.24  C 
ATOM     14 O    GLY G 813     -22.815  30.190  22.318  1.00102.98 LIG-0.27  OA
ATOM     15  N   GLU G 814     -21.456  31.156  20.808  1.00102.70 LIG-0.34  N 
ATOM     16 H    GLU G 814     -21.240  31.811  20.295  1.00102.70 LIG 0.16  HD
BRANCH 15 17
ATOM     17  CA  GLU G 814     -20.554  30.004  20.740  1.00102.89 LIG 0.19  C 
BRANCH 17 18
ATOM     18  CB  GLU G 814     -19.804  29.975  19.401  1.00101.97 LIG 0.05  C 
BRANCH 18 19
ATOM     19  CG  GLU G 814     -18.372  30.468  19.460  1.00100.63 LIG 0.12  C 
BRANCH 19 20
ATOM     20  CD  GLU G 814     -17.799  30.773  18.083  1.00100.36 LIG 0.17  C 
ATOM     21 OE1  GLU G 814     -16.611  30.460  17.848  1.00 99.71 LIG-0.65  OA
ATOM     22 OE2  GLU G 814     -18.535  31.318  17.233  1.00 99.42 LIG-0.65  OA
ENDBRANCH 19 20
ENDBRANCH 18 19
ENDBRANCH 17 18
BRANCH 17 23
ATOM     23  C   GLU G 814     -19.533  30.047  21.881  1.00103.78 LIG 0.20  C 
ATOM     24 OXT  GLU G 814     -18.847  29.025  22.114  1.00104.07 LIG-0.65  OA
ATOM     25 O    GLU G 814     -19.424  31.111  22.529  1.00104.32 LIG-0.65  OA
ENDBRANCH 17 23
ENDBRANCH 15 17
ENDBRANCH 12 13
ENDBRANCH 9 12
ENDBRANCH 1 8
BRANCH 1 26
ATOM     26  N   HIS G 812     -26.477  33.197  19.236  1.00 98.48 LIG-0.35  N 
ATOM     27  C   GLY G 811     -27.260  34.245  19.500  1.00 98.46 LIG 0.24  C 
ATOM     28 O    GLY G 811     -28.271  34.199  20.211  1.00 98.78 LIG-0.27  OA
ATOM     29 H    HIS G 812     -25.797  33.258  18.713  1.00 98.48 LIG 0.16  HD
BRANCH 27 30
ATOM     30  CA  GLY G 811     -26.822  35.544  18.840  1.00 98.06 LIG 0.23  C 
BRANCH 30 31
ATOM     31  N   GLY G 811     -25.396  35.723  18.636  1.00 97.66 LIG-0.35  N 
ATOM     32 H    GLY G 811     -25.134  35.652  17.820  1.00 97.66 LIG 0.16  HD
ATOM     33  C   GLN G 810     -24.593  35.977  19.668  1.00 97.43 LIG 0.26  C 
ATOM     34 O    GLN G 810     -24.999  36.052  20.828  1.00 97.76 LIG-0.27  OA
BRANCH 33 35
ATOM     35  CA  GLN G 810     -23.109  36.159  19.351  1.00 96.79 LIG 0.40  C 
ATOM     36  N   GLN G 810     -22.495  37.156  20.277  1.00 96.61 LIG 0.61  N 
BRANCH 35 37
ATOM     37  CB  GLN G 810     -22.407  34.810  19.483  1.00 96.38 LIG 0.06  C 
BRANCH 37 38
ATOM     38  CG  GLN G 810     -21.944  34.181  18.178  1.00 95.56 LIG 0.10  C 
BRANCH 38 39
ATOM     39  CD  GLN G 810     -22.282  32.709  18.105  1.00 95.11 LIG 0.21  C 
ATOM     40  NE2 GLN G 810     -21.289  31.895  17.763  1.00 94.31 LIG-0.37  N 
ATOM     41 21HE GLN G 810     -20.509  32.215  17.595  1.00 94.31 LIG 0.16  HD
ATOM     42 22HE GLN G 810     -21.427  31.048  17.708  1.00 94.31 LIG 0.16  HD
ATOM     43 OE1  GLN G 810     -23.418  32.304  18.355  1.00 94.65 LIG-0.27  OA
ENDBRANCH 38 39
ENDBRANCH 37 38
ENDBRANCH 35 37
ENDBRANCH 33 35
ENDBRANCH 30 31
ENDBRANCH 27 30
ENDBRANCH 1 26
TORSDOF 17
ENDMDL
MODEL 76
USER: ADFR SOLUTION from run 128
USER: SCORE 11.787123 LL:  -3.692 LR:  -9.881 RR:   0.000 FEB:  -4.810
USER: RMSD 9.270527
USER: SEED 127
USER: STATUS no improvement in best in 25 clusters for 5 generations
USER: GENES 19
USER: genes 0 Translation |==|  0.53362 0.43259 0.42725
USER: genes 1 Rotation |==|  0.68440 0.79187 0.53124 0.86032
USER: genes 2 Torsion [C]-CA--CB-[CG] |==|  0.27576
USER: genes 3 Torsion [CA]-CB--CG-[CD2] |==|  0.54006
USER: genes 4 Torsion [N]-CA--C-[N] |==|  0.81921
USER: genes 5 Torsion [C]-N--CA-[C] |==|  0.64054
USER: genes 6 Torsion [N]-CA--C-[N] |==|  0.54400
USER: genes 7 Torsion [C]-N--CA-[CB] |==|  0.17841
USER: genes 8 Torsion [N]-CA--CB-[CG] |==|  0.60610
USER: genes 9 Torsion [CA]-CB--CG-[CD] |==|  0.27913
USER: genes 10 Torsion [CB]-CG--CD-[OE2] |==|  0.09558
USER: genes 11 Torsion [N]-CA--C-[OXT] |==|  0.87334
USER: genes 12 Torsion [CB]-CA--N-[C] |==|  0.22588
USER: genes 13 Torsion [N]-C--CA-[N] |==|  0.09687
USER: genes 14 Torsion [C]-CA--N-[C] |==|  0.54444
USER: genes 15 Torsion [N]-C--CA-[N] |==|  0.87536
USER: genes 16 Torsion [C]-CA--CB-[CG] |==|  0.34144
USER: genes 17 Torsion [CA]-CB--CG-[CD] |==|  0.30904
USER: genes 18 Torsion [CB]-CG--CD-[NE2] |==|  0.34907
ROOT
ATOM      1  CA  HIS G 812     -25.388  32.509  19.932  1.00 98.11 LIG 0.18  C 
ENDROOT
BRANCH 1 2
ATOM      2  CB  HIS G 812     -26.005  31.706  18.778  1.00 96.29 LIG 0.10  C 
BRANCH 2 3
ATOM      3  CG  HIS G 812     -27.001  30.655  19.185  1.00 94.00 LIG 0.06  A 
ATOM      4  CD2 HIS G 812     -27.531  29.622  18.502  1.00 93.71 LIG 0.14  A 
ATOM      5 NE2  HIS G 812     -28.543  29.092  19.275  1.00 93.19 LIG-0.25  NA
ATOM      6  CE1 HIS G 812     -28.612  29.780  20.402  1.00 92.78 LIG 0.23  A 
ATOM      7 ND1  HIS G 812     -27.693  30.723  20.378  1.00 93.58 LIG-0.24  NA
ENDBRANCH 2 3
ENDBRANCH 1 2
BRANCH 1 8
ATOM      8  C   HIS G 812     -24.022  31.888  20.205  1.00 99.25 LIG 0.24  C 
ATOM      9  N   GLY G 813     -23.209  31.713  19.170  1.00100.26 LIG-0.35  N 
ATOM     10 H    GLY G 813     -23.398  31.915  18.356  1.00100.26 LIG 0.16  HD
ATOM     11 O    HIS G 812     -23.699  31.595  21.357  1.00 99.52 LIG-0.27  OA
BRANCH 9 12
ATOM     12  CA  GLY G 813     -21.891  31.140  19.378  1.00101.48 LIG 0.23  C 
BRANCH 12 13
ATOM     13  C   GLY G 813     -20.778  31.958  18.746  1.00102.44 LIG 0.24  C 
ATOM     14 O    GLY G 813     -20.990  33.120  18.402  1.00102.98 LIG-0.27  OA
ATOM     15  N   GLU G 814     -19.593  31.368  18.598  1.00102.70 LIG-0.34  N 
ATOM     16 H    GLU G 814     -19.420  30.563  18.846  1.00102.70 LIG 0.16  HD
BRANCH 15 17
ATOM     17  CA  GLU G 814     -18.467  32.074  17.983  1.00102.89 LIG 0.19  C 
BRANCH 17 18
ATOM     18  CB  GLU G 814     -18.042  33.277  18.836  1.00101.97 LIG 0.05  C 
BRANCH 18 19
ATOM     19  CG  GLU G 814     -17.633  34.506  18.049  1.00100.63 LIG 0.12  C 
BRANCH 19 20
ATOM     20  CD  GLU G 814     -18.735  35.554  17.983  1.00100.36 LIG 0.17  C 
ATOM     21 OE1  GLU G 814     -18.848  36.235  16.940  1.00 99.71 LIG-0.65  OA
ATOM     22 OE2  GLU G 814     -19.492  35.693  18.967  1.00 99.42 LIG-0.65  OA
ENDBRANCH 19 20
ENDBRANCH 18 19
ENDBRANCH 17 18
BRANCH 17 23
ATOM     23  C   GLU G 814     -17.267  31.136  17.814  1.00103.78 LIG 0.20  C 
ATOM     24 OXT  GLU G 814     -16.940  30.399  18.772  1.00104.07 LIG-0.65  OA
ATOM     25 O    GLU G 814     -16.667  31.145  16.716  1.00104.32 LIG-0.65  OA
ENDBRANCH 17 23
ENDBRANCH 15 17
ENDBRANCH 12 13
ENDBRANCH 9 12
ENDBRANCH 1 8
BRANCH 1 26
ATOM     26  N   HIS G 812     -25.014  33.856  19.483  1.00 98.48 LIG-0.35  N 
ATOM     27  C   GLY G 811     -25.843  34.895  19.364  1.00 98.46 LIG 0.24  C 
ATOM     28 O    GLY G 811     -27.060  34.844  19.581  1.00 98.78 LIG-0.27  OA
ATOM     29 H    HIS G 812     -24.177  33.919  19.295  1.00 98.48 LIG 0.16  HD
BRANCH 27 30
ATOM     30  CA  GLY G 811     -25.178  36.188  18.919  1.00 98.06 LIG 0.23  C 
BRANCH 30 31
ATOM     31  N   GLY G 811     -24.076  36.066  17.981  1.00 97.66 LIG-0.35  N 
ATOM     32 H    GLY G 811     -24.020  35.305  17.585  1.00 97.66 LIG 0.16  HD
ATOM     33  C   GLN G 810     -23.241  37.084  17.784  1.00 97.43 LIG 0.26  C 
ATOM     34 O    GLN G 810     -23.339  38.155  18.385  1.00 97.76 LIG-0.27  OA
BRANCH 33 35
ATOM     35  CA  GLN G 810     -22.119  36.862  16.770  1.00 96.79 LIG 0.40  C 
ATOM     36  N   GLN G 810     -21.482  35.529  16.978  1.00 96.61 LIG 0.61  N 
BRANCH 35 37
ATOM     37  CB  GLN G 810     -22.701  36.957  15.362  1.00 96.38 LIG 0.06  C 
BRANCH 37 38
ATOM     38  CG  GLN G 810     -22.062  38.000  14.457  1.00 95.56 LIG 0.10  C 
BRANCH 38 39
ATOM     39  CD  GLN G 810     -21.277  37.369  13.329  1.00 95.11 LIG 0.21  C 
ATOM     40  NE2 GLN G 810     -21.598  37.761  12.100  1.00 94.31 LIG-0.37  N 
ATOM     41 21HE GLN G 810     -22.222  38.341  11.983  1.00 94.31 LIG 0.16  HD
ATOM     42 22HE GLN G 810     -21.182  37.434  11.422  1.00 94.31 LIG 0.16  HD
ATOM     43 OE1  GLN G 810     -20.393  36.541  13.553  1.00 94.65 LIG-0.27  OA
ENDBRANCH 38 39
ENDBRANCH 37 38
ENDBRANCH 35 37
ENDBRANCH 33 35
ENDBRANCH 30 31
ENDBRANCH 27 30
ENDBRANCH 1 26
TORSDOF 17
ENDMDL
MODEL 77
USER: ADFR SOLUTION from run 58
USER: SCORE 10.020008 LL:  -1.715 LR:  -9.876 RR:   0.000 FEB:  -4.805
USER: RMSD 9.454987
USER: SEED 57
USER: STATUS no improvement in best in 42 clusters for 5 generations
USER: GENES 19
USER: genes 0 Translation |==|  0.47726 0.32712 0.39365
USER: genes 1 Rotation |==|  0.59674 0.83553 0.83656 0.62163
USER: genes 2 Torsion [C]-CA--CB-[CG] |==|  0.41731
USER: genes 3 Torsion [CA]-CB--CG-[CD2] |==|  0.25725
USER: genes 4 Torsion [N]-CA--C-[N] |==|  0.47226
USER: genes 5 Torsion [C]-N--CA-[C] |==|  0.35176
USER: genes 6 Torsion [N]-CA--C-[N] |==|  0.08838
USER: genes 7 Torsion [C]-N--CA-[CB] |==|  0.29730
USER: genes 8 Torsion [N]-CA--CB-[CG] |==|  0.61335
USER: genes 9 Torsion [CA]-CB--CG-[CD] |==|  0.70333
USER: genes 10 Torsion [CB]-CG--CD-[OE2] |==|  0.72496
USER: genes 11 Torsion [N]-CA--C-[OXT] |==|  0.29618
USER: genes 12 Torsion [CB]-CA--N-[C] |==|  0.50103
USER: genes 13 Torsion [N]-C--CA-[N] |==|  0.64485
USER: genes 14 Torsion [C]-CA--N-[C] |==|  0.62837
USER: genes 15 Torsion [N]-C--CA-[N] |==|  0.82013
USER: genes 16 Torsion [C]-CA--CB-[CG] |==|  0.14574
USER: genes 17 Torsion [CA]-CB--CG-[CD] |==|  0.74816
USER: genes 18 Torsion [CB]-CG--CD-[NE2] |==|  0.30706
ROOT
ATOM      1  CA  HIS G 812     -26.487  30.531  19.101  1.00 98.11 LIG 0.18  C 
ENDROOT
BRANCH 1 2
ATOM      2  CB  HIS G 812     -26.772  30.496  17.592  1.00 96.29 LIG 0.10  C 
BRANCH 2 3
ATOM      3  CG  HIS G 812     -27.084  29.137  17.028  1.00 94.00 LIG 0.06  A 
ATOM      4  CD2 HIS G 812     -28.258  28.504  16.835  1.00 93.71 LIG 0.14  A 
ATOM      5 NE2  HIS G 812     -27.971  27.203  16.479  1.00 93.19 LIG-0.25  NA
ATOM      6  CE1 HIS G 812     -26.657  27.059  16.446  1.00 92.78 LIG 0.23  A 
ATOM      7 ND1  HIS G 812     -26.098  28.208  16.767  1.00 93.58 LIG-0.24  NA
ENDBRANCH 2 3
ENDBRANCH 1 2
BRANCH 1 8
ATOM      8  C   HIS G 812     -25.521  31.689  19.328  1.00 99.25 LIG 0.24  C 
ATOM      9  N   GLY G 813     -24.258  31.517  18.958  1.00100.26 LIG-0.35  N 
ATOM     10 H    GLY G 813     -23.941  30.799  18.608  1.00100.26 LIG 0.16  HD
ATOM     11 O    HIS G 812     -25.931  32.745  19.814  1.00 99.52 LIG-0.27  OA
BRANCH 9 12
ATOM     12  CA  GLY G 813     -23.301  32.595  19.139  1.00101.48 LIG 0.23  C 
BRANCH 12 13
ATOM     13  C   GLY G 813     -22.062  32.170  19.908  1.00102.44 LIG 0.24  C 
ATOM     14 O    GLY G 813     -21.484  32.976  20.634  1.00102.98 LIG-0.27  OA
ATOM     15  N   GLU G 814     -21.654  30.910  19.764  1.00102.70 LIG-0.34  N 
ATOM     16 H    GLU G 814     -22.053  30.326  19.274  1.00102.70 LIG 0.16  HD
BRANCH 15 17
ATOM     17  CA  GLU G 814     -20.460  30.416  20.453  1.00102.89 LIG 0.19  C 
BRANCH 17 18
ATOM     18  CB  GLU G 814     -20.842  29.480  21.608  1.00101.97 LIG 0.05  C 
BRANCH 18 19
ATOM     19  CG  GLU G 814     -20.025  29.660  22.873  1.00100.63 LIG 0.12  C 
BRANCH 19 20
ATOM     20  CD  GLU G 814     -19.036  28.526  23.098  1.00100.36 LIG 0.17  C 
ATOM     21 OE1  GLU G 814     -17.947  28.552  22.483  1.00 99.71 LIG-0.65  OA
ATOM     22 OE2  GLU G 814     -19.341  27.611  23.893  1.00 99.42 LIG-0.65  OA
ENDBRANCH 19 20
ENDBRANCH 18 19
ENDBRANCH 17 18
BRANCH 17 23
ATOM     23  C   GLU G 814     -19.548  29.659  19.481  1.00103.78 LIG 0.20  C 
ATOM     24 OXT  GLU G 814     -18.485  30.204  19.106  1.00104.07 LIG-0.65  OA
ATOM     25 O    GLU G 814     -19.907  28.520  19.108  1.00104.32 LIG-0.65  OA
ENDBRANCH 17 23
ENDBRANCH 15 17
ENDBRANCH 12 13
ENDBRANCH 9 12
ENDBRANCH 1 8
BRANCH 1 26
ATOM     26  N   HIS G 812     -27.671  30.989  19.840  1.00 98.48 LIG-0.35  N 
ATOM     27  C   GLY G 811     -27.752  31.138  21.164  1.00 98.46 LIG 0.24  C 
ATOM     28 O    GLY G 811     -26.839  30.866  21.953  1.00 98.78 LIG-0.27  OA
ATOM     29 H    HIS G 812     -28.336  31.161  19.322  1.00 98.48 LIG 0.16  HD
BRANCH 27 30
ATOM     30  CA  GLY G 811     -29.086  31.672  21.660  1.00 98.06 LIG 0.23  C 
BRANCH 30 31
ATOM     31  N   GLY G 811     -29.041  32.829  22.536  1.00 97.66 LIG-0.35  N 
ATOM     32 H    GLY G 811     -28.521  33.463  22.275  1.00 97.66 LIG 0.16  HD
ATOM     33  C   GLN G 810     -29.767  32.860  23.652  1.00 97.43 LIG 0.26  C 
ATOM     34 O    GLN G 810     -30.486  31.926  24.008  1.00 97.76 LIG-0.27  OA
BRANCH 33 35
ATOM     35  CA  GLN G 810     -29.659  34.125  24.503  1.00 96.79 LIG 0.40  C 
ATOM     36  N   GLN G 810     -28.276  34.276  25.043  1.00 96.61 LIG 0.61  N 
BRANCH 35 37
ATOM     37  CB  GLN G 810     -30.027  35.332  23.643  1.00 96.38 LIG 0.06  C 
BRANCH 37 38
ATOM     38  CG  GLN G 810     -31.358  35.236  22.914  1.00 95.56 LIG 0.10  C 
BRANCH 38 39
ATOM     39  CD  GLN G 810     -31.209  34.628  21.537  1.00 95.11 LIG 0.21  C 
ATOM     40  NE2 GLN G 810     -31.726  33.415  21.372  1.00 94.31 LIG-0.37  N 
ATOM     41 21HE GLN G 810     -32.116  33.020  22.029  1.00 94.31 LIG 0.16  HD
ATOM     42 22HE GLN G 810     -31.669  33.024  20.608  1.00 94.31 LIG 0.16  HD
ATOM     43 OE1  GLN G 810     -30.639  35.237  20.630  1.00 94.65 LIG-0.27  OA
ENDBRANCH 38 39
ENDBRANCH 37 38
ENDBRANCH 35 37
ENDBRANCH 33 35
ENDBRANCH 30 31
ENDBRANCH 27 30
ENDBRANCH 1 26
TORSDOF 17
ENDMDL
MODEL 78
USER: ADFR SOLUTION from run 101
USER: SCORE 11.167727 LL:  -2.431 LR:  -9.869 RR:   0.000 FEB:  -4.798
USER: RMSD 11.002604
USER: SEED 100
USER: STATUS no improvement in best in 6 clusters for 5 generations
USER: GENES 19
USER: genes 0 Translation |==|  0.55882 0.38001 0.43550
USER: genes 1 Rotation |==|  0.21166 0.21476 0.20778 0.51022
USER: genes 2 Torsion [C]-CA--CB-[CG] |==|  0.39692
USER: genes 3 Torsion [CA]-CB--CG-[CD2] |==|  0.23918
USER: genes 4 Torsion [N]-CA--C-[N] |==|  0.37778
USER: genes 5 Torsion [C]-N--CA-[C] |==|  0.28904
USER: genes 6 Torsion [N]-CA--C-[N] |==|  0.35242
USER: genes 7 Torsion [C]-N--CA-[CB] |==|  0.19408
USER: genes 8 Torsion [N]-CA--CB-[CG] |==|  0.63654
USER: genes 9 Torsion [CA]-CB--CG-[CD] |==|  0.41291
USER: genes 10 Torsion [CB]-CG--CD-[OE2] |==|  0.36198
USER: genes 11 Torsion [N]-CA--C-[OXT] |==|  0.20213
USER: genes 12 Torsion [CB]-CA--N-[C] |==|  0.50123
USER: genes 13 Torsion [N]-C--CA-[N] |==|  0.45973
USER: genes 14 Torsion [C]-CA--N-[C] |==|  0.78910
USER: genes 15 Torsion [N]-C--CA-[N] |==|  0.78083
USER: genes 16 Torsion [C]-CA--CB-[CG] |==|  0.13976
USER: genes 17 Torsion [CA]-CB--CG-[CD] |==|  0.19102
USER: genes 18 Torsion [CB]-CG--CD-[NE2] |==|  0.78184
ROOT
ATOM      1  CA  HIS G 812     -24.897  31.523  20.137  1.00 98.11 LIG 0.18  C 
ENDROOT
BRANCH 1 2
ATOM      2  CB  HIS G 812     -26.165  32.075  19.469  1.00 96.29 LIG 0.10  C 
BRANCH 2 3
ATOM      3  CG  HIS G 812     -27.150  31.039  19.003  1.00 94.00 LIG 0.06  A 
ATOM      4  CD2 HIS G 812     -28.150  30.410  19.651  1.00 93.71 LIG 0.14  A 
ATOM      5 NE2  HIS G 812     -28.613  29.410  18.822  1.00 93.19 LIG-0.25  NA
ATOM      6  CE1 HIS G 812     -27.918  29.444  17.698  1.00 92.78 LIG 0.23  A 
ATOM      7 ND1  HIS G 812     -27.035  30.417  17.776  1.00 93.58 LIG-0.24  NA
ENDBRANCH 2 3
ENDBRANCH 1 2
BRANCH 1 8
ATOM      8  C   HIS G 812     -23.751  32.429  19.697  1.00 99.25 LIG 0.24  C 
ATOM      9  N   GLY G 813     -22.874  31.934  18.833  1.00100.26 LIG-0.35  N 
ATOM     10 H    GLY G 813     -22.897  31.139  18.509  1.00100.26 LIG 0.16  HD
ATOM     11 O    HIS G 812     -23.682  33.583  20.124  1.00 99.52 LIG-0.27  OA
BRANCH 9 12
ATOM     12  CA  GLY G 813     -21.773  32.761  18.371  1.00101.48 LIG 0.23  C 
BRANCH 12 13
ATOM     13  C   GLY G 813     -20.446  32.403  19.017  1.00102.44 LIG 0.24  C 
ATOM     14 O    GLY G 813     -20.355  32.347  20.243  1.00102.98 LIG-0.27  OA
ATOM     15  N   GLU G 814     -19.418  32.152  18.207  1.00102.70 LIG-0.34  N 
ATOM     16 H    GLU G 814     -19.464  32.171  17.348  1.00102.70 LIG 0.16  HD
BRANCH 15 17
ATOM     17  CA  GLU G 814     -18.096  31.816  18.741  1.00102.89 LIG 0.19  C 
BRANCH 17 18
ATOM     18  CB  GLU G 814     -18.105  30.425  19.388  1.00101.97 LIG 0.05  C 
BRANCH 18 19
ATOM     19  CG  GLU G 814     -17.498  30.362  20.776  1.00100.63 LIG 0.12  C 
BRANCH 19 20
ATOM     20  CD  GLU G 814     -18.149  29.302  21.654  1.00100.36 LIG 0.17  C 
ATOM     21 OE1  GLU G 814     -19.397  29.274  21.728  1.00 99.71 LIG-0.65  OA
ATOM     22 OE2  GLU G 814     -17.417  28.495  22.264  1.00 99.42 LIG-0.65  OA
ENDBRANCH 19 20
ENDBRANCH 18 19
ENDBRANCH 17 18
BRANCH 17 23
ATOM     23  C   GLU G 814     -17.041  31.840  17.630  1.00103.78 LIG 0.20  C 
ATOM     24 OXT  GLU G 814     -16.676  32.947  17.171  1.00104.07 LIG-0.65  OA
ATOM     25 O    GLU G 814     -16.585  30.746  17.232  1.00104.32 LIG-0.65  OA
ENDBRANCH 17 23
ENDBRANCH 15 17
ENDBRANCH 12 13
ENDBRANCH 9 12
ENDBRANCH 1 8
BRANCH 1 26
ATOM     26  N   HIS G 812     -24.925  31.769  21.584  1.00 98.48 LIG-0.35  N 
ATOM     27  C   GLY G 811     -23.972  31.422  22.451  1.00 98.46 LIG 0.24  C 
ATOM     28 O    GLY G 811     -22.945  30.802  22.147  1.00 98.78 LIG-0.27  OA
ATOM     29 H    HIS G 812     -25.641  32.175  21.835  1.00 98.48 LIG 0.16  HD
BRANCH 27 30
ATOM     30  CA  GLY G 811     -24.240  31.841  23.888  1.00 98.06 LIG 0.23  C 
BRANCH 30 31
ATOM     31  N   GLY G 811     -23.418  31.220  24.912  1.00 97.66 LIG-0.35  N 
ATOM     32 H    GLY G 811     -22.798  31.722  25.233  1.00 97.66 LIG 0.16  HD
ATOM     33  C   GLN G 810     -23.647  29.964  25.292  1.00 97.43 LIG 0.26  C 
ATOM     34 O    GLN G 810     -24.532  29.266  24.796  1.00 97.76 LIG-0.27  OA
BRANCH 33 35
ATOM     35  CA  GLN G 810     -22.735  29.403  26.383  1.00 96.79 LIG 0.40  C 
ATOM     36  N   GLN G 810     -21.420  28.996  25.807  1.00 96.61 LIG 0.61  N 
BRANCH 35 37
ATOM     37  CB  GLN G 810     -22.536  30.470  27.457  1.00 96.38 LIG 0.06  C 
BRANCH 37 38
ATOM     38  CG  GLN G 810     -23.809  31.113  27.986  1.00 95.56 LIG 0.10  C 
BRANCH 38 39
ATOM     39  CD  GLN G 810     -24.639  30.145  28.798  1.00 95.11 LIG 0.21  C 
ATOM     40  NE2 GLN G 810     -25.367  29.273  28.109  1.00 94.31 LIG-0.37  N 
ATOM     41 21HE GLN G 810     -25.349  29.283  27.249  1.00 94.31 LIG 0.16  HD
ATOM     42 22HE GLN G 810     -25.856  28.699  28.522  1.00 94.31 LIG 0.16  HD
ATOM     43 OE1  GLN G 810     -24.627  30.174  30.030  1.00 94.65 LIG-0.27  OA
ENDBRANCH 38 39
ENDBRANCH 37 38
ENDBRANCH 35 37
ENDBRANCH 33 35
ENDBRANCH 30 31
ENDBRANCH 27 30
ENDBRANCH 1 26
TORSDOF 17
ENDMDL
MODEL 79
USER: ADFR SOLUTION from run 78
USER: SCORE 11.653253 LL:  -3.857 LR:  -9.845 RR:   0.000 FEB:  -4.774
USER: RMSD 8.669784
USER: SEED 77
USER: STATUS no improvement in best in 13 clusters for 5 generations
USER: GENES 19
USER: genes 0 Translation |==|  0.37158 0.22378 0.36408
USER: genes 1 Rotation |==|  0.71440 0.85927 0.74178 0.62843
USER: genes 2 Torsion [C]-CA--CB-[CG] |==|  0.49255
USER: genes 3 Torsion [CA]-CB--CG-[CD2] |==|  0.69062
USER: genes 4 Torsion [N]-CA--C-[N] |==|  0.97778
USER: genes 5 Torsion [C]-N--CA-[C] |==|  0.67502
USER: genes 6 Torsion [N]-CA--C-[N] |==|  0.46217
USER: genes 7 Torsion [C]-N--CA-[CB] |==|  0.45181
USER: genes 8 Torsion [N]-CA--CB-[CG] |==|  0.87273
USER: genes 9 Torsion [CA]-CB--CG-[CD] |==|  0.67291
USER: genes 10 Torsion [CB]-CG--CD-[OE2] |==|  0.86225
USER: genes 11 Torsion [N]-CA--C-[OXT] |==|  0.85188
USER: genes 12 Torsion [CB]-CA--N-[C] |==|  0.45928
USER: genes 13 Torsion [N]-C--CA-[N] |==|  0.66374
USER: genes 14 Torsion [C]-CA--N-[C] |==|  0.18039
USER: genes 15 Torsion [N]-C--CA-[N] |==|  0.17103
USER: genes 16 Torsion [C]-CA--CB-[CG] |==|  0.23482
USER: genes 17 Torsion [CA]-CB--CG-[CD] |==|  0.76829
USER: genes 18 Torsion [CB]-CG--CD-[NE2] |==|  0.80518
ROOT
ATOM      1  CA  HIS G 812     -28.548  28.594  18.369  1.00 98.11 LIG 0.18  C 
ENDROOT
BRANCH 1 2
ATOM      2  CB  HIS G 812     -29.431  28.505  17.116  1.00 96.29 LIG 0.10  C 
BRANCH 2 3
ATOM      3  CG  HIS G 812     -30.762  27.833  17.313  1.00 94.00 LIG 0.06  A 
ATOM      4  CD2 HIS G 812     -31.239  26.658  16.858  1.00 93.71 LIG 0.14  A 
ATOM      5 NE2  HIS G 812     -32.584  26.614  17.162  1.00 93.19 LIG-0.25  NA
ATOM      6  CE1 HIS G 812     -32.906  27.729  17.796  1.00 92.78 LIG 0.23  A 
ATOM      7 ND1  HIS G 812     -31.829  28.479  17.906  1.00 93.58 LIG-0.24  NA
ENDBRANCH 2 3
ENDBRANCH 1 2
BRANCH 1 8
ATOM      8  C   HIS G 812     -27.240  29.241  17.927  1.00 99.25 LIG 0.24  C 
ATOM      9  N   GLY G 813     -27.012  30.491  18.311  1.00100.26 LIG-0.35  N 
ATOM     10 H    GLY G 813     -27.550  30.967  18.783  1.00100.26 LIG 0.16  HD
ATOM     11 O    HIS G 812     -26.429  28.595  17.260  1.00 99.52 LIG-0.27  OA
BRANCH 9 12
ATOM     12  CA  GLY G 813     -25.774  31.148  17.929  1.00101.48 LIG 0.23  C 
BRANCH 12 13
ATOM     13  C   GLY G 813     -24.906  31.523  19.117  1.00102.44 LIG 0.24  C 
ATOM     14 O    GLY G 813     -25.375  31.490  20.254  1.00102.98 LIG-0.27  OA
ATOM     15  N   GLU G 814     -23.644  31.871  18.868  1.00102.70 LIG-0.34  N 
ATOM     16 H    GLU G 814     -23.293  31.885  18.084  1.00102.70 LIG 0.16  HD
BRANCH 15 17
ATOM     17  CA  GLU G 814     -22.739  32.265  19.950  1.00102.89 LIG 0.19  C 
BRANCH 17 18
ATOM     18  CB  GLU G 814     -21.276  32.199  19.491  1.00101.97 LIG 0.05  C 
BRANCH 18 19
ATOM     19  CG  GLU G 814     -20.900  30.942  18.731  1.00100.63 LIG 0.12  C 
BRANCH 19 20
ATOM     20  CD  GLU G 814     -19.832  30.124  19.442  1.00100.36 LIG 0.17  C 
ATOM     21 OE1  GLU G 814     -20.024  28.898  19.597  1.00 99.71 LIG-0.65  OA
ATOM     22 OE2  GLU G 814     -18.799  30.702  19.842  1.00 99.42 LIG-0.65  OA
ENDBRANCH 19 20
ENDBRANCH 18 19
ENDBRANCH 17 18
BRANCH 17 23
ATOM     23  C   GLU G 814     -23.048  33.688  20.424  1.00103.78 LIG 0.20  C 
ATOM     24 OXT  GLU G 814     -23.085  34.610  19.577  1.00104.07 LIG-0.65  OA
ATOM     25 O    GLU G 814     -23.257  33.867  21.645  1.00104.32 LIG-0.65  OA
ENDBRANCH 17 23
ENDBRANCH 15 17
ENDBRANCH 12 13
ENDBRANCH 9 12
ENDBRANCH 1 8
BRANCH 1 26
ATOM     26  N   HIS G 812     -29.072  29.601  19.301  1.00 98.48 LIG-0.35  N 
ATOM     27  C   GLY G 811     -28.717  29.735  20.581  1.00 98.46 LIG 0.24  C 
ATOM     28 O    GLY G 811     -27.919  28.992  21.164  1.00 98.78 LIG-0.27  OA
ATOM     29 H    HIS G 812     -29.653  30.118  18.934  1.00 98.48 LIG 0.16  HD
BRANCH 27 30
ATOM     30  CA  GLY G 811     -29.385  30.894  21.304  1.00 98.06 LIG 0.23  C 
BRANCH 30 31
ATOM     31  N   GLY G 811     -28.507  31.902  21.873  1.00 97.66 LIG-0.35  N 
ATOM     32 H    GLY G 811     -28.525  31.957  22.730  1.00 97.66 LIG 0.16  HD
ATOM     33  C   GLN G 810     -27.750  32.660  21.082  1.00 97.43 LIG 0.26  C 
ATOM     34 O    GLN G 810     -27.764  32.569  19.854  1.00 97.76 LIG-0.27  OA
BRANCH 33 35
ATOM     35  CA  GLN G 810     -26.852  33.685  21.774  1.00 96.79 LIG 0.40  C 
ATOM     36  N   GLN G 810     -25.871  33.003  22.667  1.00 96.61 LIG 0.61  N 
BRANCH 35 37
ATOM     37  CB  GLN G 810     -26.121  34.499  20.709  1.00 96.38 LIG 0.06  C 
BRANCH 37 38
ATOM     38  CG  GLN G 810     -26.891  35.684  20.146  1.00 95.56 LIG 0.10  C 
BRANCH 38 39
ATOM     39  CD  GLN G 810     -27.837  35.273  19.040  1.00 95.11 LIG 0.21  C 
ATOM     40  NE2 GLN G 810     -27.275  34.897  17.897  1.00 94.31 LIG-0.37  N 
ATOM     41 21HE GLN G 810     -26.419  34.898  17.817  1.00 94.31 LIG 0.16  HD
ATOM     42 22HE GLN G 810     -27.768  34.652  17.235  1.00 94.31 LIG 0.16  HD
ATOM     43 OE1  GLN G 810     -29.058  35.290  19.208  1.00 94.65 LIG-0.27  OA
ENDBRANCH 38 39
ENDBRANCH 37 38
ENDBRANCH 35 37
ENDBRANCH 33 35
ENDBRANCH 30 31
ENDBRANCH 27 30
ENDBRANCH 1 26
TORSDOF 17
ENDMDL
MODEL 80
USER: ADFR SOLUTION from run 8
USER: SCORE 11.568276 LL:  -3.227 LR:  -9.845 RR:   0.000 FEB:  -4.773
USER: RMSD 6.320543
USER: SEED 956019
USER: STATUS no improvement in best in 31 clusters for 5 generations
USER: GENES 19
USER: genes 0 Translation |==|  0.40406 0.44082 0.43725
USER: genes 1 Rotation |==|  0.46331 0.48323 0.65523 0.97358
USER: genes 2 Torsion [C]-CA--CB-[CG] |==|  0.38664
USER: genes 3 Torsion [CA]-CB--CG-[CD2] |==|  0.29945
USER: genes 4 Torsion [N]-CA--C-[N] |==|  0.37727
USER: genes 5 Torsion [C]-N--CA-[C] |==|  0.29296
USER: genes 6 Torsion [N]-CA--C-[N] |==|  0.15773
USER: genes 7 Torsion [C]-N--CA-[CB] |==|  0.32435
USER: genes 8 Torsion [N]-CA--CB-[CG] |==|  0.81802
USER: genes 9 Torsion [CA]-CB--CG-[CD] |==|  0.61324
USER: genes 10 Torsion [CB]-CG--CD-[OE2] |==|  0.51442
USER: genes 11 Torsion [N]-CA--C-[OXT] |==|  0.46873
USER: genes 12 Torsion [CB]-CA--N-[C] |==|  0.51116
USER: genes 13 Torsion [N]-C--CA-[N] |==|  0.38435
USER: genes 14 Torsion [C]-CA--N-[C] |==|  0.24444
USER: genes 15 Torsion [N]-C--CA-[N] |==|  0.33560
USER: genes 16 Torsion [C]-CA--CB-[CG] |==|  0.10745
USER: genes 17 Torsion [CA]-CB--CG-[CD] |==|  0.23689
USER: genes 18 Torsion [CB]-CG--CD-[NE2] |==|  0.79151
ROOT
ATOM      1  CA  HIS G 812     -27.915  32.663  20.180  1.00 98.11 LIG 0.18  C 
ENDROOT
BRANCH 1 2
ATOM      2  CB  HIS G 812     -26.775  31.635  20.193  1.00 96.29 LIG 0.10  C 
BRANCH 2 3
ATOM      3  CG  HIS G 812     -26.859  30.567  19.138  1.00 94.00 LIG 0.06  A 
ATOM      4  CD2 HIS G 812     -26.138  30.366  18.018  1.00 93.71 LIG 0.14  A 
ATOM      5 NE2  HIS G 812     -26.757  29.362  17.303  1.00 93.19 LIG-0.25  NA
ATOM      6  CE1 HIS G 812     -27.818  28.958  17.983  1.00 92.78 LIG 0.23  A 
ATOM      7 ND1  HIS G 812     -27.901  29.662  19.093  1.00 93.58 LIG-0.24  NA
ENDBRANCH 2 3
ENDBRANCH 1 2
BRANCH 1 8
ATOM      8  C   HIS G 812     -28.279  32.919  21.639  1.00 99.25 LIG 0.24  C 
ATOM      9  N   GLY G 813     -29.434  32.436  22.078  1.00100.26 LIG-0.35  N 
ATOM     10 H    GLY G 813     -29.997  31.997  21.600  1.00100.26 LIG 0.16  HD
ATOM     11 O    HIS G 812     -27.497  33.533  22.368  1.00 99.52 LIG-0.27  OA
BRANCH 9 12
ATOM     12  CA  GLY G 813     -29.820  32.639  23.463  1.00101.48 LIG 0.23  C 
BRANCH 12 13
ATOM     13  C   GLY G 813     -30.906  33.687  23.632  1.00102.44 LIG 0.24  C 
ATOM     14 O    GLY G 813     -30.710  34.665  24.353  1.00102.98 LIG-0.27  OA
ATOM     15  N   GLU G 814     -32.046  33.500  22.969  1.00102.70 LIG-0.34  N 
ATOM     16 H    GLU G 814     -32.199  32.833  22.448  1.00102.70 LIG 0.16  HD
BRANCH 15 17
ATOM     17  CA  GLU G 814     -33.156  34.449  23.085  1.00102.89 LIG 0.19  C 
BRANCH 17 18
ATOM     18  CB  GLU G 814     -33.454  35.110  21.732  1.00101.97 LIG 0.05  C 
BRANCH 18 19
ATOM     19  CG  GLU G 814     -32.348  35.999  21.197  1.00100.63 LIG 0.12  C 
BRANCH 19 20
ATOM     20  CD  GLU G 814     -32.878  37.277  20.563  1.00100.36 LIG 0.17  C 
ATOM     21 OE1  GLU G 814     -34.103  37.516  20.637  1.00 99.71 LIG-0.65  OA
ATOM     22 OE2  GLU G 814     -32.072  38.046  19.998  1.00 99.42 LIG-0.65  OA
ENDBRANCH 19 20
ENDBRANCH 18 19
ENDBRANCH 17 18
BRANCH 17 23
ATOM     23  C   GLU G 814     -34.422  33.746  23.584  1.00103.78 LIG 0.20  C 
ATOM     24 OXT  GLU G 814     -35.398  34.444  23.941  1.00104.07 LIG-0.65  OA
ATOM     25 O    GLU G 814     -34.425  32.495  23.608  1.00104.32 LIG-0.65  OA
ENDBRANCH 17 23
ENDBRANCH 15 17
ENDBRANCH 12 13
ENDBRANCH 9 12
ENDBRANCH 1 8
BRANCH 1 26
ATOM     26  N   HIS G 812     -27.417  33.982  19.767  1.00 98.48 LIG-0.35  N 
ATOM     27  C   GLY G 811     -28.136  35.106  19.726  1.00 98.46 LIG 0.24  C 
ATOM     28 O    GLY G 811     -29.341  35.173  19.995  1.00 98.78 LIG-0.27  OA
ATOM     29 H    HIS G 812     -26.587  33.965  19.545  1.00 98.48 LIG 0.16  HD
BRANCH 27 30
ATOM     30  CA  GLY G 811     -27.355  36.341  19.302  1.00 98.06 LIG 0.23  C 
BRANCH 30 31
ATOM     31  N   GLY G 811     -28.021  37.251  18.387  1.00 97.66 LIG-0.35  N 
ATOM     32 H    GLY G 811     -27.871  37.101  17.554  1.00 97.66 LIG 0.16  HD
ATOM     33  C   GLN G 810     -28.795  38.229  18.852  1.00 97.43 LIG 0.26  C 
ATOM     34 O    GLN G 810     -28.971  38.428  20.055  1.00 97.76 LIG-0.27  OA
BRANCH 33 35
ATOM     35  CA  GLN G 810     -29.460  39.129  17.811  1.00 96.79 LIG 0.40  C 
ATOM     36  N   GLN G 810     -30.945  39.079  17.948  1.00 96.61 LIG 0.61  N 
BRANCH 35 37
ATOM     37  CB  GLN G 810     -28.959  40.559  18.002  1.00 96.38 LIG 0.06  C 
BRANCH 37 38
ATOM     38  CG  GLN G 810     -27.486  40.695  18.357  1.00 95.56 LIG 0.10  C 
BRANCH 38 39
ATOM     39  CD  GLN G 810     -26.604  40.700  17.129  1.00 95.11 LIG 0.21  C 
ATOM     40  NE2 GLN G 810     -26.419  39.527  16.534  1.00 94.31 LIG-0.37  N 
ATOM     41 21HE GLN G 810     -26.791  38.820  16.853  1.00 94.31 LIG 0.16  HD
ATOM     42 22HE GLN G 810     -25.927  39.474  15.830  1.00 94.31 LIG 0.16  HD
ATOM     43 OE1  GLN G 810     -26.096  41.743  16.715  1.00 94.65 LIG-0.27  OA
ENDBRANCH 38 39
ENDBRANCH 37 38
ENDBRANCH 35 37
ENDBRANCH 33 35
ENDBRANCH 30 31
ENDBRANCH 27 30
ENDBRANCH 1 26
TORSDOF 17
ENDMDL
MODEL 81
USER: ADFR SOLUTION from run 135
USER: SCORE 11.048934 LL:  -3.190 LR:  -9.840 RR:   0.000 FEB:  -4.769
USER: RMSD 8.607518
USER: SEED 134
USER: STATUS no improvement in best in 27 clusters for 5 generations
USER: GENES 19
USER: genes 0 Translation |==|  0.45223 0.35621 0.47026
USER: genes 1 Rotation |==|  0.36370 0.16482 0.23845 0.72510
USER: genes 2 Torsion [C]-CA--CB-[CG] |==|  0.31515
USER: genes 3 Torsion [CA]-CB--CG-[CD2] |==|  0.90957
USER: genes 4 Torsion [N]-CA--C-[N] |==|  0.90524
USER: genes 5 Torsion [C]-N--CA-[C] |==|  0.21135
USER: genes 6 Torsion [N]-CA--C-[N] |==|  0.23717
USER: genes 7 Torsion [C]-N--CA-[CB] |==|  0.36829
USER: genes 8 Torsion [N]-CA--CB-[CG] |==|  0.23985
USER: genes 9 Torsion [CA]-CB--CG-[CD] |==|  0.69372
USER: genes 10 Torsion [CB]-CG--CD-[OE2] |==|  0.14481
USER: genes 11 Torsion [N]-CA--C-[OXT] |==|  0.48914
USER: genes 12 Torsion [CB]-CA--N-[C] |==|  0.40574
USER: genes 13 Torsion [N]-C--CA-[N] |==|  0.97514
USER: genes 14 Torsion [C]-CA--N-[C] |==|  0.79444
USER: genes 15 Torsion [N]-C--CA-[N] |==|  0.73867
USER: genes 16 Torsion [C]-CA--CB-[CG] |==|  0.38123
USER: genes 17 Torsion [CA]-CB--CG-[CD] |==|  0.19993
USER: genes 18 Torsion [CB]-CG--CD-[NE2] |==|  0.30559
ROOT
ATOM      1  CA  HIS G 812     -26.975  31.077  20.997  1.00 98.11 LIG 0.18  C 
ENDROOT
BRANCH 1 2
ATOM      2  CB  HIS G 812     -28.282  30.372  20.604  1.00 96.29 LIG 0.10  C 
BRANCH 2 3
ATOM      3  CG  HIS G 812     -28.231  29.591  19.321  1.00 94.00 LIG 0.06  A 
ATOM      4  CD2 HIS G 812     -27.540  29.796  18.183  1.00 93.71 LIG 0.14  A 
ATOM      5 NE2  HIS G 812     -28.010  28.899  17.247  1.00 93.19 LIG-0.25  NA
ATOM      6  CE1 HIS G 812     -28.952  28.162  17.810  1.00 92.78 LIG 0.23  A 
ATOM      7 ND1  HIS G 812     -29.103  28.553  19.060  1.00 93.58 LIG-0.24  NA
ENDBRANCH 2 3
ENDBRANCH 1 2
BRANCH 1 8
ATOM      8  C   HIS G 812     -27.252  32.574  20.907  1.00 99.25 LIG 0.24  C 
ATOM      9  N   GLY G 813     -27.862  33.150  21.935  1.00100.26 LIG-0.35  N 
ATOM     10 H    GLY G 813     -28.121  32.741  22.646  1.00100.26 LIG 0.16  HD
ATOM     11 O    HIS G 812     -26.887  33.208  19.914  1.00 99.52 LIG-0.27  OA
BRANCH 9 12
ATOM     12  CA  GLY G 813     -28.134  34.576  21.905  1.00101.48 LIG 0.23  C 
BRANCH 12 13
ATOM     13  C   GLY G 813     -29.307  34.940  21.012  1.00102.44 LIG 0.24  C 
ATOM     14 O    GLY G 813     -29.109  35.272  19.844  1.00102.98 LIG-0.27  OA
ATOM     15  N   GLU G 814     -30.526  34.874  21.544  1.00102.70 LIG-0.34  N 
ATOM     16 H    GLU G 814     -30.688  34.630  22.353  1.00102.70 LIG 0.16  HD
BRANCH 15 17
ATOM     17  CA  GLU G 814     -31.715  35.224  20.763  1.00102.89 LIG 0.19  C 
BRANCH 17 18
ATOM     18  CB  GLU G 814     -32.806  34.156  20.918  1.00101.97 LIG 0.05  C 
BRANCH 18 19
ATOM     19  CG  GLU G 814     -33.718  34.342  22.115  1.00100.63 LIG 0.12  C 
BRANCH 19 20
ATOM     20  CD  GLU G 814     -33.499  33.286  23.189  1.00100.36 LIG 0.17  C 
ATOM     21 OE1  GLU G 814     -34.490  32.648  23.608  1.00 99.71 LIG-0.65  OA
ATOM     22 OE2  GLU G 814     -32.340  33.089  23.610  1.00 99.42 LIG-0.65  OA
ENDBRANCH 19 20
ENDBRANCH 18 19
ENDBRANCH 17 18
BRANCH 17 23
ATOM     23  C   GLU G 814     -32.278  36.578  21.209  1.00103.78 LIG 0.20  C 
ATOM     24 OXT  GLU G 814     -33.254  37.058  20.588  1.00104.07 LIG-0.65  OA
ATOM     25 O    GLU G 814     -31.736  37.144  22.184  1.00104.32 LIG-0.65  OA
ENDBRANCH 17 23
ENDBRANCH 15 17
ENDBRANCH 12 13
ENDBRANCH 9 12
ENDBRANCH 1 8
BRANCH 1 26
ATOM     26  N   HIS G 812     -26.711  30.914  22.432  1.00 98.48 LIG-0.35  N 
ATOM     27  C   GLY G 811     -25.505  30.799  22.993  1.00 98.46 LIG 0.24  C 
ATOM     28 O    GLY G 811     -24.443  30.773  22.361  1.00 98.78 LIG-0.27  OA
ATOM     29 H    HIS G 812     -27.433  30.900  22.900  1.00 98.48 LIG 0.16  HD
BRANCH 27 30
ATOM     30  CA  GLY G 811     -25.520  30.688  24.510  1.00 98.06 LIG 0.23  C 
BRANCH 30 31
ATOM     31  N   GLY G 811     -26.794  30.919  25.168  1.00 97.66 LIG-0.35  N 
ATOM     32 H    GLY G 811     -27.181  30.213  25.468  1.00 97.66 LIG 0.16  HD
ATOM     33  C   GLN G 810     -27.284  32.153  25.274  1.00 97.43 LIG 0.26  C 
ATOM     34 O    GLN G 810     -26.712  33.142  24.814  1.00 97.76 LIG-0.27  OA
BRANCH 33 35
ATOM     35  CA  GLN G 810     -28.626  32.296  25.992  1.00 96.79 LIG 0.40  C 
ATOM     36  N   GLN G 810     -29.749  32.283  25.009  1.00 96.61 LIG 0.61  N 
BRANCH 35 37
ATOM     37  CB  GLN G 810     -28.779  31.148  26.986  1.00 96.38 LIG 0.06  C 
BRANCH 37 38
ATOM     38  CG  GLN G 810     -29.337  31.529  28.348  1.00 95.56 LIG 0.10  C 
BRANCH 38 39
ATOM     39  CD  GLN G 810     -30.810  31.865  28.285  1.00 95.11 LIG 0.21  C 
ATOM     40  NE2 GLN G 810     -31.635  30.996  28.859  1.00 94.31 LIG-0.37  N 
ATOM     41 21HE GLN G 810     -31.322  30.290  29.236  1.00 94.31 LIG 0.16  HD
ATOM     42 22HE GLN G 810     -32.483  31.140  28.852  1.00 94.31 LIG 0.16  HD
ATOM     43 OE1  GLN G 810     -31.205  32.892  27.731  1.00 94.65 LIG-0.27  OA
ENDBRANCH 38 39
ENDBRANCH 37 38
ENDBRANCH 35 37
ENDBRANCH 33 35
ENDBRANCH 30 31
ENDBRANCH 27 30
ENDBRANCH 1 26
TORSDOF 17
ENDMDL
MODEL 82
USER: ADFR SOLUTION from run 14
USER: SCORE 10.988431 LL:  -2.134 LR:  -9.790 RR:   0.000 FEB:  -4.719
USER: RMSD 10.473897
USER: SEED 707773
USER: STATUS no improvement in best in 36 clusters for 5 generations
USER: GENES 19
USER: genes 0 Translation |==|  0.50098 0.34016 0.40255
USER: genes 1 Rotation |==|  0.67312 0.85075 0.80724 0.55105
USER: genes 2 Torsion [C]-CA--CB-[CG] |==|  0.42698
USER: genes 3 Torsion [CA]-CB--CG-[CD2] |==|  0.72794
USER: genes 4 Torsion [N]-CA--C-[N] |==|  0.38552
USER: genes 5 Torsion [C]-N--CA-[C] |==|  0.33519
USER: genes 6 Torsion [N]-CA--C-[N] |==|  0.42515
USER: genes 7 Torsion [C]-N--CA-[CB] |==|  0.36940
USER: genes 8 Torsion [N]-CA--CB-[CG] |==|  0.93967
USER: genes 9 Torsion [CA]-CB--CG-[CD] |==|  0.51423
USER: genes 10 Torsion [CB]-CG--CD-[OE2] |==|  0.13861
USER: genes 11 Torsion [N]-CA--C-[OXT] |==|  0.41417
USER: genes 12 Torsion [CB]-CA--N-[C] |==|  0.53381
USER: genes 13 Torsion [N]-C--CA-[N] |==|  0.41317
USER: genes 14 Torsion [C]-CA--N-[C] |==|  0.22950
USER: genes 15 Torsion [N]-C--CA-[N] |==|  0.77913
USER: genes 16 Torsion [C]-CA--CB-[CG] |==|  0.19658
USER: genes 17 Torsion [CA]-CB--CG-[CD] |==|  0.73272
USER: genes 18 Torsion [CB]-CG--CD-[NE2] |==|  0.91873
ROOT
ATOM      1  CA  HIS G 812     -26.025  30.776  19.321  1.00 98.11 LIG 0.18  C 
ENDROOT
BRANCH 1 2
ATOM      2  CB  HIS G 812     -26.921  30.772  18.074  1.00 96.29 LIG 0.10  C 
BRANCH 2 3
ATOM      3  CG  HIS G 812     -27.552  29.450  17.739  1.00 94.00 LIG 0.06  A 
ATOM      4  CD2 HIS G 812     -27.195  28.492  16.861  1.00 93.71 LIG 0.14  A 
ATOM      5 NE2  HIS G 812     -28.227  27.579  16.804  1.00 93.19 LIG-0.25  NA
ATOM      6  CE1 HIS G 812     -29.177  27.970  17.636  1.00 92.78 LIG 0.23  A 
ATOM      7 ND1  HIS G 812     -28.796  29.090  18.216  1.00 93.58 LIG-0.24  NA
ENDBRANCH 2 3
ENDBRANCH 1 2
BRANCH 1 8
ATOM      8  C   HIS G 812     -25.015  31.902  19.121  1.00 99.25 LIG 0.24  C 
ATOM      9  N   GLY G 813     -23.770  31.562  18.812  1.00100.26 LIG-0.35  N 
ATOM     10 H    GLY G 813     -23.487  30.756  18.724  1.00100.26 LIG 0.16  HD
ATOM     11 O    HIS G 812     -25.376  33.076  19.223  1.00 99.52 LIG-0.27  OA
BRANCH 9 12
ATOM     12  CA  GLY G 813     -22.774  32.597  18.596  1.00101.48 LIG 0.23  C 
BRANCH 12 13
ATOM     13  C   GLY G 813     -21.592  32.494  19.544  1.00102.44 LIG 0.24  C 
ATOM     14 O    GLY G 813     -21.733  31.967  20.646  1.00102.98 LIG-0.27  OA
ATOM     15  N   GLU G 814     -20.426  32.983  19.124  1.00102.70 LIG-0.34  N 
ATOM     16 H    GLU G 814     -20.302  33.341  18.352  1.00102.70 LIG 0.16  HD
BRANCH 15 17
ATOM     17  CA  GLU G 814     -19.236  32.944  19.977  1.00102.89 LIG 0.19  C 
BRANCH 17 18
ATOM     18  CB  GLU G 814     -18.020  32.426  19.196  1.00101.97 LIG 0.05  C 
BRANCH 18 19
ATOM     19  CG  GLU G 814     -18.353  31.606  17.965  1.00100.63 LIG 0.12  C 
BRANCH 19 20
ATOM     20  CD  GLU G 814     -17.117  31.016  17.301  1.00100.36 LIG 0.17  C 
ATOM     21 OE1  GLU G 814     -16.966  31.178  16.070  1.00 99.71 LIG-0.65  OA
ATOM     22 OE2  GLU G 814     -16.294  30.396  18.007  1.00 99.42 LIG-0.65  OA
ENDBRANCH 19 20
ENDBRANCH 18 19
ENDBRANCH 17 18
BRANCH 17 23
ATOM     23  C   GLU G 814     -18.916  34.337  20.527  1.00103.78 LIG 0.20  C 
ATOM     24 OXT  GLU G 814     -18.371  34.430  21.651  1.00104.07 LIG-0.65  OA
ATOM     25 O    GLU G 814     -19.211  35.327  19.821  1.00104.32 LIG-0.65  OA
ENDBRANCH 17 23
ENDBRANCH 15 17
ENDBRANCH 12 13
ENDBRANCH 9 12
ENDBRANCH 1 8
BRANCH 1 26
ATOM     26  N   HIS G 812     -26.770  31.256  20.492  1.00 98.48 LIG-0.35  N 
ATOM     27  C   GLY G 811     -26.237  31.597  21.667  1.00 98.46 LIG 0.24  C 
ATOM     28 O    GLY G 811     -25.033  31.512  21.937  1.00 98.78 LIG-0.27  OA
ATOM     29 H    HIS G 812     -27.617  31.301  20.347  1.00 98.48 LIG 0.16  HD
BRANCH 27 30
ATOM     30  CA  GLY G 811     -27.238  32.105  22.693  1.00 98.06 LIG 0.23  C 
BRANCH 30 31
ATOM     31  N   GLY G 811     -26.936  31.836  24.088  1.00 97.66 LIG-0.35  N 
ATOM     32 H    GLY G 811     -27.330  31.147  24.418  1.00 97.66 LIG 0.16  HD
ATOM     33  C   GLN G 810     -26.103  32.627  24.762  1.00 97.43 LIG 0.26  C 
ATOM     34 O    GLN G 810     -25.571  33.619  24.263  1.00 97.76 LIG-0.27  OA
BRANCH 33 35
ATOM     35  CA  GLN G 810     -25.841  32.256  26.222  1.00 96.79 LIG 0.40  C 
ATOM     36  N   GLN G 810     -26.966  32.713  27.088  1.00 96.61 LIG 0.61  N 
BRANCH 35 37
ATOM     37  CB  GLN G 810     -25.674  30.742  26.324  1.00 96.38 LIG 0.06  C 
BRANCH 37 38
ATOM     38  CG  GLN G 810     -24.394  30.181  25.725  1.00 95.56 LIG 0.10  C 
BRANCH 38 39
ATOM     39  CD  GLN G 810     -24.600  29.678  24.314  1.00 95.11 LIG 0.21  C 
ATOM     40  NE2 GLN G 810     -25.816  29.229  24.023  1.00 94.31 LIG-0.37  N 
ATOM     41 21HE GLN G 810     -26.432  29.234  24.623  1.00 94.31 LIG 0.16  HD
ATOM     42 22HE GLN G 810     -25.988  28.933  23.233  1.00 94.31 LIG 0.16  HD
ATOM     43 OE1  GLN G 810     -23.682  29.693  23.492  1.00 94.65 LIG-0.27  OA
ENDBRANCH 38 39
ENDBRANCH 37 38
ENDBRANCH 35 37
ENDBRANCH 33 35
ENDBRANCH 30 31
ENDBRANCH 27 30
ENDBRANCH 1 26
TORSDOF 17
ENDMDL
MODEL 83
USER: ADFR SOLUTION from run 60
USER: SCORE 11.120067 LL:  -3.138 LR:  -9.785 RR:   0.000 FEB:  -4.714
USER: RMSD 6.224276
USER: SEED 59
USER: STATUS no improvement in best in 14 clusters for 5 generations
USER: GENES 19
USER: genes 0 Translation |==|  0.44458 0.36779 0.37022
USER: genes 1 Rotation |==|  0.54724 0.38963 0.53888 0.98381
USER: genes 2 Torsion [C]-CA--CB-[CG] |==|  0.24327
USER: genes 3 Torsion [CA]-CB--CG-[CD2] |==|  0.93966
USER: genes 4 Torsion [N]-CA--C-[N] |==|  0.12822
USER: genes 5 Torsion [C]-N--CA-[C] |==|  0.57580
USER: genes 6 Torsion [N]-CA--C-[N] |==|  0.38889
USER: genes 7 Torsion [C]-N--CA-[CB] |==|  0.19991
USER: genes 8 Torsion [N]-CA--CB-[CG] |==|  0.46500
USER: genes 9 Torsion [CA]-CB--CG-[CD] |==|  0.37326
USER: genes 10 Torsion [CB]-CG--CD-[OE2] |==|  0.41322
USER: genes 11 Torsion [N]-CA--C-[OXT] |==|  0.82710
USER: genes 12 Torsion [CB]-CA--N-[C] |==|  0.83862
USER: genes 13 Torsion [N]-C--CA-[N] |==|  0.14544
USER: genes 14 Torsion [C]-CA--N-[C] |==|  0.17587
USER: genes 15 Torsion [N]-C--CA-[N] |==|  0.71606
USER: genes 16 Torsion [C]-CA--CB-[CG] |==|  0.29756
USER: genes 17 Torsion [CA]-CB--CG-[CD] |==|  0.79516
USER: genes 18 Torsion [CB]-CG--CD-[NE2] |==|  0.69153
ROOT
ATOM      1  CA  HIS G 812     -27.125  31.294  18.521  1.00 98.11 LIG 0.18  C 
ENDROOT
BRANCH 1 2
ATOM      2  CB  HIS G 812     -26.469  29.937  18.230  1.00 96.29 LIG 0.10  C 
BRANCH 2 3
ATOM      3  CG  HIS G 812     -27.321  28.960  17.468  1.00 94.00 LIG 0.06  A 
ATOM      4  CD2 HIS G 812     -28.657  28.880  17.313  1.00 93.71 LIG 0.14  A 
ATOM      5 NE2  HIS G 812     -28.928  27.680  16.688  1.00 93.19 LIG-0.25  NA
ATOM      6  CE1 HIS G 812     -27.783  27.059  16.461  1.00 92.78 LIG 0.23  A 
ATOM      7 ND1  HIS G 812     -26.799  27.808  16.915  1.00 93.58 LIG-0.24  NA
ENDBRANCH 2 3
ENDBRANCH 1 2
BRANCH 1 8
ATOM      8  C   HIS G 812     -27.885  31.131  19.833  1.00 99.25 LIG 0.24  C 
ATOM      9  N   GLY G 813     -28.228  32.235  20.485  1.00100.26 LIG-0.35  N 
ATOM     10 H    GLY G 813     -28.047  33.035  20.229  1.00100.26 LIG 0.16  HD
ATOM     11 O    HIS G 812     -28.181  30.004  20.236  1.00 99.52 LIG-0.27  OA
BRANCH 9 12
ATOM     12  CA  GLY G 813     -28.967  32.134  21.732  1.00101.48 LIG 0.23  C 
BRANCH 12 13
ATOM     13  C   GLY G 813     -29.831  33.351  22.014  1.00102.44 LIG 0.24  C 
ATOM     14 O    GLY G 813     -29.408  34.477  21.755  1.00102.98 LIG-0.27  OA
ATOM     15  N   GLU G 814     -31.039  33.138  22.532  1.00102.70 LIG-0.34  N 
ATOM     16 H    GLU G 814     -31.360  32.359  22.705  1.00102.70 LIG 0.16  HD
BRANCH 15 17
ATOM     17  CA  GLU G 814     -31.934  34.252  22.852  1.00102.89 LIG 0.19  C 
BRANCH 17 18
ATOM     18  CB  GLU G 814     -32.490  34.893  21.574  1.00101.97 LIG 0.05  C 
BRANCH 18 19
ATOM     19  CG  GLU G 814     -33.647  35.849  21.788  1.00100.63 LIG 0.12  C 
BRANCH 19 20
ATOM     20  CD  GLU G 814     -33.491  37.144  21.004  1.00100.36 LIG 0.17  C 
ATOM     21 OE1  GLU G 814     -32.337  37.574  20.787  1.00 99.71 LIG-0.65  OA
ATOM     22 OE2  GLU G 814     -34.518  37.730  20.601  1.00 99.42 LIG-0.65  OA
ENDBRANCH 19 20
ENDBRANCH 18 19
ENDBRANCH 17 18
BRANCH 17 23
ATOM     23  C   GLU G 814     -33.105  33.775  23.718  1.00103.78 LIG 0.20  C 
ATOM     24 OXT  GLU G 814     -33.896  32.926  23.247  1.00104.07 LIG-0.65  OA
ATOM     25 O    GLU G 814     -33.215  34.254  24.868  1.00104.32 LIG-0.65  OA
ENDBRANCH 17 23
ENDBRANCH 15 17
ENDBRANCH 12 13
ENDBRANCH 9 12
ENDBRANCH 1 8
BRANCH 1 26
ATOM     26  N   HIS G 812     -26.111  32.290  18.892  1.00 98.48 LIG-0.35  N 
ATOM     27  C   GLY G 811     -25.257  32.187  19.913  1.00 98.46 LIG 0.24  C 
ATOM     28 O    GLY G 811     -25.238  31.244  20.713  1.00 98.78 LIG-0.27  OA
ATOM     29 H    HIS G 812     -26.116  32.974  18.371  1.00 98.48 LIG 0.16  HD
BRANCH 27 30
ATOM     30  CA  GLY G 811     -24.282  33.346  20.041  1.00 98.06 LIG 0.23  C 
BRANCH 30 31
ATOM     31  N   GLY G 811     -24.854  34.680  20.068  1.00 97.66 LIG-0.35  N 
ATOM     32 H    GLY G 811     -24.627  35.186  19.411  1.00 97.66 LIG 0.16  HD
ATOM     33  C   GLN G 810     -25.666  35.047  21.058  1.00 97.43 LIG 0.26  C 
ATOM     34 O    GLN G 810     -25.955  34.303  21.996  1.00 97.76 LIG-0.27  OA
BRANCH 33 35
ATOM     35  CA  GLN G 810     -26.227  36.467  20.993  1.00 96.79 LIG 0.40  C 
ATOM     36  N   GLN G 810     -25.492  37.363  21.934  1.00 96.61 LIG 0.61  N 
BRANCH 35 37
ATOM     37  CB  GLN G 810     -26.098  36.983  19.562  1.00 96.38 LIG 0.06  C 
BRANCH 37 38
ATOM     38  CG  GLN G 810     -27.398  37.074  18.778  1.00 95.56 LIG 0.10  C 
BRANCH 38 39
ATOM     39  CD  GLN G 810     -27.904  35.712  18.358  1.00 95.11 LIG 0.21  C 
ATOM     40  NE2 GLN G 810     -27.860  35.445  17.057  1.00 94.31 LIG-0.37  N 
ATOM     41 21HE GLN G 810     -27.558  36.033  16.508  1.00 94.31 LIG 0.16  HD
ATOM     42 22HE GLN G 810     -28.135  34.684  16.765  1.00 94.31 LIG 0.16  HD
ATOM     43 OE1  GLN G 810     -28.327  34.906  19.189  1.00 94.65 LIG-0.27  OA
ENDBRANCH 38 39
ENDBRANCH 37 38
ENDBRANCH 35 37
ENDBRANCH 33 35
ENDBRANCH 30 31
ENDBRANCH 27 30
ENDBRANCH 1 26
TORSDOF 17
ENDMDL
MODEL 84
USER: ADFR SOLUTION from run 153
USER: SCORE 10.358220 LL:  -2.466 LR:  -9.745 RR:   0.000 FEB:  -4.674
USER: RMSD 9.282998
USER: SEED 152
USER: STATUS no improvement in best in 33 clusters for 5 generations
USER: GENES 19
USER: genes 0 Translation |==|  0.51470 0.38073 0.42702
USER: genes 1 Rotation |==|  0.65335 0.86958 0.76019 0.64899
USER: genes 2 Torsion [C]-CA--CB-[CG] |==|  0.45700
USER: genes 3 Torsion [CA]-CB--CG-[CD2] |==|  0.05200
USER: genes 4 Torsion [N]-CA--C-[N] |==|  0.53945
USER: genes 5 Torsion [C]-N--CA-[C] |==|  0.27065
USER: genes 6 Torsion [N]-CA--C-[N] |==|  0.02600
USER: genes 7 Torsion [C]-N--CA-[CB] |==|  0.41792
USER: genes 8 Torsion [N]-CA--CB-[CG] |==|  0.58574
USER: genes 9 Torsion [CA]-CB--CG-[CD] |==|  0.71455
USER: genes 10 Torsion [CB]-CG--CD-[OE2] |==|  0.28607
USER: genes 11 Torsion [N]-CA--C-[OXT] |==|  0.82745
USER: genes 12 Torsion [CB]-CA--N-[C] |==|  0.89416
USER: genes 13 Torsion [N]-C--CA-[N] |==|  0.03888
USER: genes 14 Torsion [C]-CA--N-[C] |==|  0.76763
USER: genes 15 Torsion [N]-C--CA-[N] |==|  0.40827
USER: genes 16 Torsion [C]-CA--CB-[CG] |==|  0.11184
USER: genes 17 Torsion [CA]-CB--CG-[CD] |==|  0.62255
USER: genes 18 Torsion [CB]-CG--CD-[NE2] |==|  0.01607
ROOT
ATOM      1  CA  HIS G 812     -25.757  31.537  19.927  1.00 98.11 LIG 0.18  C 
ENDROOT
BRANCH 1 2
ATOM      2  CB  HIS G 812     -26.343  31.233  18.540  1.00 96.29 LIG 0.10  C 
BRANCH 2 3
ATOM      3  CG  HIS G 812     -27.356  30.123  18.497  1.00 94.00 LIG 0.06  A 
ATOM      4  CD2 HIS G 812     -28.093  29.556  19.472  1.00 93.71 LIG 0.14  A 
ATOM      5 NE2  HIS G 812     -28.710  28.448  18.930  1.00 93.19 LIG-0.25  NA
ATOM      6  CE1 HIS G 812     -28.363  28.357  17.657  1.00 92.78 LIG 0.23  A 
ATOM      7 ND1  HIS G 812     -27.553  29.354  17.368  1.00 93.58 LIG-0.24  NA
ENDBRANCH 2 3
ENDBRANCH 1 2
BRANCH 1 8
ATOM      8  C   HIS G 812     -24.511  32.384  19.691  1.00 99.25 LIG 0.24  C 
ATOM      9  N   GLY G 813     -23.628  31.944  18.803  1.00100.26 LIG-0.35  N 
ATOM     10 H    GLY G 813     -23.700  31.213  18.357  1.00100.26 LIG 0.16  HD
ATOM     11 O    HIS G 812     -24.368  33.448  20.296  1.00 99.52 LIG-0.27  OA
BRANCH 9 12
ATOM     12  CA  GLY G 813     -22.431  32.721  18.531  1.00101.48 LIG 0.23  C 
BRANCH 12 13
ATOM     13  C   GLY G 813     -21.217  32.237  19.303  1.00102.44 LIG 0.24  C 
ATOM     14 O    GLY G 813     -20.186  32.908  19.309  1.00102.98 LIG-0.27  OA
ATOM     15  N   GLU G 814     -21.329  31.084  19.961  1.00102.70 LIG-0.34  N 
ATOM     16 H    GLU G 814     -22.045  30.608  19.983  1.00102.70 LIG 0.16  HD
BRANCH 15 17
ATOM     17  CA  GLU G 814     -20.205  30.530  20.719  1.00102.89 LIG 0.19  C 
BRANCH 17 18
ATOM     18  CB  GLU G 814     -20.702  29.697  21.907  1.00101.97 LIG 0.05  C 
BRANCH 18 19
ATOM     19  CG  GLU G 814     -19.784  29.692  23.114  1.00100.63 LIG 0.12  C 
BRANCH 19 20
ATOM     20  CD  GLU G 814     -18.978  28.407  23.233  1.00100.36 LIG 0.17  C 
ATOM     21 OE1  GLU G 814     -19.551  27.381  23.661  1.00 99.71 LIG-0.65  OA
ATOM     22 OE2  GLU G 814     -17.776  28.418  22.895  1.00 99.42 LIG-0.65  OA
ENDBRANCH 19 20
ENDBRANCH 18 19
ENDBRANCH 17 18
BRANCH 17 23
ATOM     23  C   GLU G 814     -19.331  29.647  19.823  1.00103.78 LIG 0.20  C 
ATOM     24 OXT  GLU G 814     -19.837  28.623  19.309  1.00104.07 LIG-0.65  OA
ATOM     25 O    GLU G 814     -18.143  29.993  19.639  1.00104.32 LIG-0.65  OA
ENDBRANCH 17 23
ENDBRANCH 15 17
ENDBRANCH 12 13
ENDBRANCH 9 12
ENDBRANCH 1 8
BRANCH 1 26
ATOM     26  N   HIS G 812     -26.617  32.478  20.656  1.00 98.48 LIG-0.35  N 
ATOM     27  C   GLY G 811     -27.264  33.515  20.121  1.00 98.46 LIG 0.24  C 
ATOM     28 O    GLY G 811     -27.188  33.846  18.932  1.00 98.78 LIG-0.27  OA
ATOM     29 H    HIS G 812     -26.669  32.293  21.495  1.00 98.48 LIG 0.16  HD
BRANCH 27 30
ATOM     30  CA  GLY G 811     -28.122  34.300  21.102  1.00 98.06 LIG 0.23  C 
BRANCH 30 31
ATOM     31  N   GLY G 811     -27.900  34.043  22.514  1.00 97.66 LIG-0.35  N 
ATOM     32 H    GLY G 811     -27.371  34.597  22.905  1.00 97.66 LIG 0.16  HD
ATOM     33  C   GLN G 810     -28.492  33.012  23.114  1.00 97.43 LIG 0.26  C 
ATOM     34 O    GLN G 810     -29.228  32.225  22.518  1.00 97.76 LIG-0.27  OA
BRANCH 33 35
ATOM     35  CA  GLN G 810     -28.204  32.830  24.604  1.00 96.79 LIG 0.40  C 
ATOM     36  N   GLN G 810     -29.396  32.266  25.302  1.00 96.61 LIG 0.61  N 
BRANCH 35 37
ATOM     37  CB  GLN G 810     -27.005  31.898  24.764  1.00 96.38 LIG 0.06  C 
BRANCH 37 38
ATOM     38  CG  GLN G 810     -25.873  32.110  23.771  1.00 95.56 LIG 0.10  C 
BRANCH 38 39
ATOM     39  CD  GLN G 810     -25.348  30.803  23.221  1.00 95.11 LIG 0.21  C 
ATOM     40  NE2 GLN G 810     -26.010  29.707  23.578  1.00 94.31 LIG-0.37  N 
ATOM     41 21HE GLN G 810     -26.694  29.768  24.096  1.00 94.31 LIG 0.16  HD
ATOM     42 22HE GLN G 810     -25.754  28.937  23.292  1.00 94.31 LIG 0.16  HD
ATOM     43 OE1  GLN G 810     -24.362  30.773  22.482  1.00 94.65 LIG-0.27  OA
ENDBRANCH 38 39
ENDBRANCH 37 38
ENDBRANCH 35 37
ENDBRANCH 33 35
ENDBRANCH 30 31
ENDBRANCH 27 30
ENDBRANCH 1 26
TORSDOF 17
ENDMDL
MODEL 85
USER: ADFR SOLUTION from run 6
USER: SCORE 11.033920 LL:  -3.268 LR:  -9.746 RR:   0.000 FEB:  -4.675
USER: RMSD 8.961878
USER: SEED 482929
USER: STATUS no improvement in best in 25 clusters for 5 generations
USER: GENES 19
USER: genes 0 Translation |==|  0.48419 0.37852 0.39742
USER: genes 1 Rotation |==|  0.55212 0.80962 0.64031 0.86295
USER: genes 2 Torsion [C]-CA--CB-[CG] |==|  0.42415
USER: genes 3 Torsion [CA]-CB--CG-[CD2] |==|  0.42255
USER: genes 4 Torsion [N]-CA--C-[N] |==|  0.78325
USER: genes 5 Torsion [C]-N--CA-[C] |==|  0.73991
USER: genes 6 Torsion [N]-CA--C-[N] |==|  0.65214
USER: genes 7 Torsion [C]-N--CA-[CB] |==|  0.81363
USER: genes 8 Torsion [N]-CA--CB-[CG] |==|  0.74071
USER: genes 9 Torsion [CA]-CB--CG-[CD] |==|  0.78911
USER: genes 10 Torsion [CB]-CG--CD-[OE2] |==|  0.36589
USER: genes 11 Torsion [N]-CA--C-[OXT] |==|  0.16196
USER: genes 12 Torsion [CB]-CA--N-[C] |==|  0.51668
USER: genes 13 Torsion [N]-C--CA-[N] |==|  0.71908
USER: genes 14 Torsion [C]-CA--N-[C] |==|  0.68402
USER: genes 15 Torsion [N]-C--CA-[N] |==|  0.78792
USER: genes 16 Torsion [C]-CA--CB-[CG] |==|  0.43727
USER: genes 17 Torsion [CA]-CB--CG-[CD] |==|  0.49725
USER: genes 18 Torsion [CB]-CG--CD-[NE2] |==|  0.29235
ROOT
ATOM      1  CA  HIS G 812     -26.352  31.495  19.194  1.00 98.11 LIG 0.18  C 
ENDROOT
BRANCH 1 2
ATOM      2  CB  HIS G 812     -26.139  30.395  18.145  1.00 96.29 LIG 0.10  C 
BRANCH 2 3
ATOM      3  CG  HIS G 812     -27.284  29.437  17.974  1.00 94.00 LIG 0.06  A 
ATOM      4  CD2 HIS G 812     -27.685  28.712  16.911  1.00 93.71 LIG 0.14  A 
ATOM      5 NE2  HIS G 812     -28.907  28.156  17.229  1.00 93.19 LIG-0.25  NA
ATOM      6  CE1 HIS G 812     -29.228  28.526  18.457  1.00 92.78 LIG 0.23  A 
ATOM      7 ND1  HIS G 812     -28.268  29.292  18.932  1.00 93.58 LIG-0.24  NA
ENDBRANCH 2 3
ENDBRANCH 1 2
BRANCH 1 8
ATOM      8  C   HIS G 812     -24.966  31.880  19.701  1.00 99.25 LIG 0.24  C 
ATOM      9  N   GLY G 813     -23.975  31.909  18.819  1.00100.26 LIG-0.35  N 
ATOM     10 H    GLY G 813     -24.053  31.719  17.984  1.00100.26 LIG 0.16  HD
ATOM     11 O    HIS G 812     -24.806  32.175  20.887  1.00 99.52 LIG-0.27  OA
BRANCH 9 12
ATOM     12  CA  GLY G 813     -22.639  32.284  19.248  1.00101.48 LIG 0.23  C 
BRANCH 12 13
ATOM     13  C   GLY G 813     -22.347  33.763  19.065  1.00102.44 LIG 0.24  C 
ATOM     14 O    GLY G 813     -23.091  34.603  19.569  1.00102.98 LIG-0.27  OA
ATOM     15  N   GLU G 814     -21.267  34.091  18.357  1.00102.70 LIG-0.34  N 
ATOM     16 H    GLU G 814     -20.726  33.520  18.009  1.00102.70 LIG 0.16  HD
BRANCH 15 17
ATOM     17  CA  GLU G 814     -20.916  35.492  18.113  1.00102.89 LIG 0.19  C 
BRANCH 17 18
ATOM     18  CB  GLU G 814     -21.955  36.167  17.207  1.00101.97 LIG 0.05  C 
BRANCH 18 19
ATOM     19  CG  GLU G 814     -21.624  36.144  15.727  1.00100.63 LIG 0.12  C 
BRANCH 19 20
ATOM     20  CD  GLU G 814     -20.549  37.152  15.351  1.00100.36 LIG 0.17  C 
ATOM     21 OE1  GLU G 814     -20.659  38.326  15.769  1.00 99.71 LIG-0.65  OA
ATOM     22 OE2  GLU G 814     -19.591  36.773  14.645  1.00 99.42 LIG-0.65  OA
ENDBRANCH 19 20
ENDBRANCH 18 19
ENDBRANCH 17 18
BRANCH 17 23
ATOM     23  C   GLU G 814     -20.829  36.266  19.432  1.00103.78 LIG 0.20  C 
ATOM     24 OXT  GLU G 814     -20.023  35.875  20.308  1.00104.07 LIG-0.65  OA
ATOM     25 O    GLU G 814     -21.569  37.265  19.574  1.00104.32 LIG-0.65  OA
ENDBRANCH 17 23
ENDBRANCH 15 17
ENDBRANCH 12 13
ENDBRANCH 9 12
ENDBRANCH 1 8
BRANCH 1 26
ATOM     26  N   HIS G 812     -26.786  32.744  18.554  1.00 98.48 LIG-0.35  N 
ATOM     27  C   GLY G 811     -26.948  33.917  19.169  1.00 98.46 LIG 0.24  C 
ATOM     28 O    GLY G 811     -26.791  34.096  20.382  1.00 98.78 LIG-0.27  OA
ATOM     29 H    HIS G 812     -26.933  32.648  17.712  1.00 98.48 LIG 0.16  HD
BRANCH 27 30
ATOM     30  CA  GLY G 811     -27.364  35.059  18.254  1.00 98.06 LIG 0.23  C 
BRANCH 30 31
ATOM     31  N   GLY G 811     -26.319  35.983  17.848  1.00 97.66 LIG-0.35  N 
ATOM     32 H    GLY G 811     -25.710  35.644  17.345  1.00 97.66 LIG 0.16  HD
ATOM     33  C   GLN G 810     -26.346  37.251  18.253  1.00 97.43 LIG 0.26  C 
ATOM     34 O    GLN G 810     -27.224  37.699  18.992  1.00 97.76 LIG-0.27  OA
BRANCH 33 35
ATOM     35  CA  GLN G 810     -25.209  38.149  17.766  1.00 96.79 LIG 0.40  C 
ATOM     36  N   GLN G 810     -23.958  37.868  18.530  1.00 96.61 LIG 0.61  N 
BRANCH 35 37
ATOM     37  CB  GLN G 810     -24.987  37.900  16.276  1.00 96.38 LIG 0.06  C 
BRANCH 37 38
ATOM     38  CG  GLN G 810     -24.306  39.028  15.517  1.00 95.56 LIG 0.10  C 
BRANCH 38 39
ATOM     39  CD  GLN G 810     -24.104  38.690  14.057  1.00 95.11 LIG 0.21  C 
ATOM     40  NE2 GLN G 810     -24.919  39.292  13.197  1.00 94.31 LIG-0.37  N 
ATOM     41 21HE GLN G 810     -25.520  39.837  13.483  1.00 94.31 LIG 0.16  HD
ATOM     42 22HE GLN G 810     -24.846  39.135  12.354  1.00 94.31 LIG 0.16  HD
ATOM     43 OE1  GLN G 810     -23.228  37.900  13.702  1.00 94.65 LIG-0.27  OA
ENDBRANCH 38 39
ENDBRANCH 37 38
ENDBRANCH 35 37
ENDBRANCH 33 35
ENDBRANCH 30 31
ENDBRANCH 27 30
ENDBRANCH 1 26
TORSDOF 17
ENDMDL
MODEL 86
USER: ADFR SOLUTION from run 174
USER: SCORE 10.099836 LL:  -2.390 LR:  -9.739 RR:   0.000 FEB:  -4.668
USER: RMSD 8.389188
USER: SEED 173
USER: STATUS no improvement in best in 28 clusters for 5 generations
USER: GENES 19
USER: genes 0 Translation |==|  0.42188 0.35069 0.47820
USER: genes 1 Rotation |==|  0.49329 0.23756 0.27710 0.86249
USER: genes 2 Torsion [C]-CA--CB-[CG] |==|  0.35172
USER: genes 3 Torsion [CA]-CB--CG-[CD2] |==|  0.52273
USER: genes 4 Torsion [N]-CA--C-[N] |==|  0.22839
USER: genes 5 Torsion [C]-N--CA-[C] |==|  0.78622
USER: genes 6 Torsion [N]-CA--C-[N] |==|  0.37787
USER: genes 7 Torsion [C]-N--CA-[CB] |==|  0.42543
USER: genes 8 Torsion [N]-CA--CB-[CG] |==|  0.02954
USER: genes 9 Torsion [CA]-CB--CG-[CD] |==|  0.37593
USER: genes 10 Torsion [CB]-CG--CD-[OE2] |==|  0.84433
USER: genes 11 Torsion [N]-CA--C-[OXT] |==|  0.00054
USER: genes 12 Torsion [CB]-CA--N-[C] |==|  0.36650
USER: genes 13 Torsion [N]-C--CA-[N] |==|  0.90843
USER: genes 14 Torsion [C]-CA--N-[C] |==|  0.83333
USER: genes 15 Torsion [N]-C--CA-[N] |==|  0.72305
USER: genes 16 Torsion [C]-CA--CB-[CG] |==|  0.27618
USER: genes 17 Torsion [CA]-CB--CG-[CD] |==|  0.80179
USER: genes 18 Torsion [CB]-CG--CD-[NE2] |==|  0.80949
ROOT
ATOM      1  CA  HIS G 812     -27.567  30.973  21.193  1.00 98.11 LIG 0.18  C 
ENDROOT
BRANCH 1 2
ATOM      2  CB  HIS G 812     -28.358  29.770  20.660  1.00 96.29 LIG 0.10  C 
BRANCH 2 3
ATOM      3  CG  HIS G 812     -28.159  29.463  19.202  1.00 94.00 LIG 0.06  A 
ATOM      4  CD2 HIS G 812     -28.786  28.597  18.383  1.00 93.71 LIG 0.14  A 
ATOM      5 NE2  HIS G 812     -28.081  28.566  17.198  1.00 93.19 LIG-0.25  NA
ATOM      6  CE1 HIS G 812     -27.063  29.404  17.295  1.00 92.78 LIG 0.23  A 
ATOM      7 ND1  HIS G 812     -27.087  29.961  18.488  1.00 93.58 LIG-0.24  NA
ENDBRANCH 2 3
ENDBRANCH 1 2
BRANCH 1 8
ATOM      8  C   HIS G 812     -28.584  31.892  21.864  1.00 99.25 LIG 0.24  C 
ATOM      9  N   GLY G 813     -28.224  33.152  22.080  1.00100.26 LIG-0.35  N 
ATOM     10 H    GLY G 813     -27.459  33.487  21.879  1.00100.26 LIG 0.16  HD
ATOM     11 O    HIS G 812     -29.700  31.462  22.159  1.00 99.52 LIG-0.27  OA
BRANCH 9 12
ATOM     12  CA  GLY G 813     -29.161  34.071  22.702  1.00101.48 LIG 0.23  C 
BRANCH 12 13
ATOM     13  C   GLY G 813     -30.235  34.564  21.748  1.00102.44 LIG 0.24  C 
ATOM     14 O    GLY G 813     -29.932  34.904  20.606  1.00102.98 LIG-0.27  OA
ATOM     15  N   GLU G 814     -31.487  34.599  22.202  1.00102.70 LIG-0.34  N 
ATOM     16 H    GLU G 814     -31.723  34.352  22.991  1.00102.70 LIG 0.16  HD
BRANCH 15 17
ATOM     17  CA  GLU G 814     -32.586  35.077  21.359  1.00102.89 LIG 0.19  C 
BRANCH 17 18
ATOM     18  CB  GLU G 814     -33.917  34.439  21.781  1.00101.97 LIG 0.05  C 
BRANCH 18 19
ATOM     19  CG  GLU G 814     -33.874  33.679  23.092  1.00100.63 LIG 0.12  C 
BRANCH 19 20
ATOM     20  CD  GLU G 814     -35.066  33.985  23.987  1.00100.36 LIG 0.17  C 
ATOM     21 OE1  GLU G 814     -35.773  33.033  24.384  1.00 99.71 LIG-0.65  OA
ATOM     22 OE2  GLU G 814     -35.295  35.173  24.298  1.00 99.42 LIG-0.65  OA
ENDBRANCH 19 20
ENDBRANCH 18 19
ENDBRANCH 17 18
BRANCH 17 23
ATOM     23  C   GLU G 814     -32.715  36.601  21.448  1.00103.78 LIG 0.20  C 
ATOM     24 OXT  GLU G 814     -31.917  37.230  22.180  1.00104.07 LIG-0.65  OA
ATOM     25 O    GLU G 814     -33.614  37.153  20.776  1.00104.32 LIG-0.65  OA
ENDBRANCH 17 23
ENDBRANCH 15 17
ENDBRANCH 12 13
ENDBRANCH 9 12
ENDBRANCH 1 8
BRANCH 1 26
ATOM     26  N   HIS G 812     -26.732  30.579  22.335  1.00 98.48 LIG-0.35  N 
ATOM     27  C   GLY G 811     -25.440  30.875  22.492  1.00 98.46 LIG 0.24  C 
ATOM     28 O    GLY G 811     -24.761  31.494  21.665  1.00 98.78 LIG-0.27  OA
ATOM     29 H    HIS G 812     -27.167  30.120  22.918  1.00 98.48 LIG 0.16  HD
BRANCH 27 30
ATOM     30  CA  GLY G 811     -24.831  30.377  23.794  1.00 98.06 LIG 0.23  C 
BRANCH 30 31
ATOM     31  N   GLY G 811     -25.706  30.341  24.952  1.00 97.66 LIG-0.35  N 
ATOM     32 H    GLY G 811     -25.813  29.564  25.302  1.00 97.66 LIG 0.16  HD
ATOM     33  C   GLN G 810     -26.277  31.457  25.401  1.00 97.43 LIG 0.26  C 
ATOM     34 O    GLN G 810     -26.118  32.553  24.863  1.00 97.76 LIG-0.27  OA
BRANCH 33 35
ATOM     35  CA  GLN G 810     -27.174  31.320  26.631  1.00 96.79 LIG 0.40  C 
ATOM     36  N   GLN G 810     -28.610  31.277  26.229  1.00 96.61 LIG 0.61  N 
BRANCH 35 37
ATOM     37  CB  GLN G 810     -26.795  30.043  27.378  1.00 96.38 LIG 0.06  C 
BRANCH 37 38
ATOM     38  CG  GLN G 810     -25.890  30.234  28.585  1.00 95.56 LIG 0.10  C 
BRANCH 38 39
ATOM     39  CD  GLN G 810     -24.481  30.610  28.186  1.00 95.11 LIG 0.21  C 
ATOM     40  NE2 GLN G 810     -23.773  29.666  27.574  1.00 94.31 LIG-0.37  N 
ATOM     41 21HE GLN G 810     -24.121  28.894  27.429  1.00 94.31 LIG 0.16  HD
ATOM     42 22HE GLN G 810     -22.966  29.828  27.325  1.00 94.31 LIG 0.16  HD
ATOM     43 OE1  GLN G 810     -24.031  31.733  28.420  1.00 94.65 LIG-0.27  OA
ENDBRANCH 38 39
ENDBRANCH 37 38
ENDBRANCH 35 37
ENDBRANCH 33 35
ENDBRANCH 30 31
ENDBRANCH 27 30
ENDBRANCH 1 26
TORSDOF 17
ENDMDL
MODEL 87
USER: ADFR SOLUTION from run 4
USER: SCORE 10.950024 LL:  -2.595 LR:  -9.736 RR:   0.000 FEB:  -4.665
USER: RMSD 10.534098
USER: SEED 870682
USER: STATUS no improvement in best in 32 clusters for 5 generations
USER: GENES 19
USER: genes 0 Translation |==|  0.49801 0.34102 0.47720
USER: genes 1 Rotation |==|  0.22149 0.23452 0.18779 0.56693
USER: genes 2 Torsion [C]-CA--CB-[CG] |==|  0.37316
USER: genes 3 Torsion [CA]-CB--CG-[CD2] |==|  0.30302
USER: genes 4 Torsion [N]-CA--C-[N] |==|  0.40678
USER: genes 5 Torsion [C]-N--CA-[C] |==|  0.31233
USER: genes 6 Torsion [N]-CA--C-[N] |==|  0.18334
USER: genes 7 Torsion [C]-N--CA-[CB] |==|  0.87405
USER: genes 8 Torsion [N]-CA--CB-[CG] |==|  0.48455
USER: genes 9 Torsion [CA]-CB--CG-[CD] |==|  0.27872
USER: genes 10 Torsion [CB]-CG--CD-[OE2] |==|  0.62920
USER: genes 11 Torsion [N]-CA--C-[OXT] |==|  0.39230
USER: genes 12 Torsion [CB]-CA--N-[C] |==|  0.52146
USER: genes 13 Torsion [N]-C--CA-[N] |==|  0.46324
USER: genes 14 Torsion [C]-CA--N-[C] |==|  0.20331
USER: genes 15 Torsion [N]-C--CA-[N] |==|  0.83927
USER: genes 16 Torsion [C]-CA--CB-[CG] |==|  0.26951
USER: genes 17 Torsion [CA]-CB--CG-[CD] |==|  0.79964
USER: genes 18 Torsion [CB]-CG--CD-[NE2] |==|  0.69195
ROOT
ATOM      1  CA  HIS G 812     -26.083  30.792  21.169  1.00 98.11 LIG 0.18  C 
ENDROOT
BRANCH 1 2
ATOM      2  CB  HIS G 812     -27.445  31.329  20.706  1.00 96.29 LIG 0.10  C 
BRANCH 2 3
ATOM      3  CG  HIS G 812     -28.271  30.371  19.892  1.00 94.00 LIG 0.06  A 
ATOM      4  CD2 HIS G 812     -29.402  29.701  20.188  1.00 93.71 LIG 0.14  A 
ATOM      5 NE2  HIS G 812     -29.630  28.805  19.164  1.00 93.19 LIG-0.25  NA
ATOM      6  CE1 HIS G 812     -28.667  28.942  18.267  1.00 92.78 LIG 0.23  A 
ATOM      7 ND1  HIS G 812     -27.839  29.881  18.677  1.00 93.58 LIG-0.24  NA
ENDBRANCH 2 3
ENDBRANCH 1 2
BRANCH 1 8
ATOM      8  C   HIS G 812     -25.069  31.897  20.888  1.00 99.25 LIG 0.24  C 
ATOM      9  N   GLY G 813     -24.357  31.807  19.772  1.00100.26 LIG-0.35  N 
ATOM     10 H    GLY G 813     -24.417  31.170  19.199  1.00100.26 LIG 0.16  HD
ATOM     11 O    HIS G 812     -24.955  32.840  21.673  1.00 99.52 LIG-0.27  OA
BRANCH 9 12
ATOM     12  CA  GLY G 813     -23.388  32.841  19.451  1.00101.48 LIG 0.23  C 
BRANCH 12 13
ATOM     13  C   GLY G 813     -21.952  32.351  19.504  1.00102.44 LIG 0.24  C 
ATOM     14 O    GLY G 813     -21.185  32.788  20.361  1.00102.98 LIG-0.27  OA
ATOM     15  N   GLU G 814     -21.582  31.441  18.604  1.00102.70 LIG-0.34  N 
ATOM     16 H    GLU G 814     -22.105  31.110  18.007  1.00102.70 LIG 0.16  HD
BRANCH 15 17
ATOM     17  CA  GLU G 814     -20.212  30.923  18.569  1.00102.89 LIG 0.19  C 
BRANCH 17 18
ATOM     18  CB  GLU G 814     -19.192  32.063  18.692  1.00101.97 LIG 0.05  C 
BRANCH 18 19
ATOM     19  CG  GLU G 814     -17.746  31.619  18.798  1.00100.63 LIG 0.12  C 
BRANCH 19 20
ATOM     20  CD  GLU G 814     -16.999  31.734  17.477  1.00100.36 LIG 0.17  C 
ATOM     21 OE1  GLU G 814     -17.113  32.790  16.818  1.00 99.71 LIG-0.65  OA
ATOM     22 OE2  GLU G 814     -16.294  30.774  17.101  1.00 99.42 LIG-0.65  OA
ENDBRANCH 19 20
ENDBRANCH 18 19
ENDBRANCH 17 18
BRANCH 17 23
ATOM     23  C   GLU G 814     -19.980  29.924  19.707  1.00103.78 LIG 0.20  C 
ATOM     24 OXT  GLU G 814     -19.287  28.905  19.482  1.00104.07 LIG-0.65  OA
ATOM     25 O    GLU G 814     -20.494  30.175  20.820  1.00104.32 LIG-0.65  OA
ENDBRANCH 17 23
ENDBRANCH 15 17
ENDBRANCH 12 13
ENDBRANCH 9 12
ENDBRANCH 1 8
BRANCH 1 26
ATOM     26  N   HIS G 812     -26.029  30.712  22.634  1.00 98.48 LIG-0.35  N 
ATOM     27  C   GLY G 811     -24.945  30.426  23.358  1.00 98.46 LIG 0.24  C 
ATOM     28 O    GLY G 811     -23.839  30.148  22.878  1.00 98.78 LIG-0.27  OA
ATOM     29 H    HIS G 812     -26.791  30.872  23.000  1.00 98.48 LIG 0.16  HD
BRANCH 27 30
ATOM     30  CA  GLY G 811     -25.163  30.454  24.863  1.00 98.06 LIG 0.23  C 
BRANCH 30 31
ATOM     31  N   GLY G 811     -24.118  29.870  25.684  1.00 97.66 LIG-0.35  N 
ATOM     32 H    GLY G 811     -24.315  29.112  26.038  1.00 97.66 LIG 0.16  HD
ATOM     33  C   GLN G 810     -22.956  30.501  25.848  1.00 97.43 LIG 0.26  C 
ATOM     34 O    GLN G 810     -22.714  31.598  25.342  1.00 97.76 LIG-0.27  OA
BRANCH 33 35
ATOM     35  CA  GLN G 810     -21.915  29.803  26.722  1.00 96.79 LIG 0.40  C 
ATOM     36  N   GLN G 810     -22.464  29.550  28.087  1.00 96.61 LIG 0.61  N 
BRANCH 35 37
ATOM     37  CB  GLN G 810     -21.517  28.486  26.059  1.00 96.38 LIG 0.06  C 
BRANCH 37 38
ATOM     38  CG  GLN G 810     -20.245  28.530  25.227  1.00 95.56 LIG 0.10  C 
BRANCH 38 39
ATOM     39  CD  GLN G 810     -20.438  29.290  23.934  1.00 95.11 LIG 0.21  C 
ATOM     40  NE2 GLN G 810     -20.407  28.568  22.819  1.00 94.31 LIG-0.37  N 
ATOM     41 21HE GLN G 810     -20.281  27.718  22.860  1.00 94.31 LIG 0.16  HD
ATOM     42 22HE GLN G 810     -20.513  28.951  22.055  1.00 94.31 LIG 0.16  HD
ATOM     43 OE1  GLN G 810     -20.614  30.509  23.932  1.00 94.65 LIG-0.27  OA
ENDBRANCH 38 39
ENDBRANCH 37 38
ENDBRANCH 35 37
ENDBRANCH 33 35
ENDBRANCH 30 31
ENDBRANCH 27 30
ENDBRANCH 1 26
TORSDOF 17
ENDMDL
MODEL 88
USER: ADFR SOLUTION from run 78
USER: SCORE 11.155166 LL:  -3.712 LR:  -9.734 RR:   0.000 FEB:  -4.663
USER: RMSD 7.485100
USER: SEED 77
USER: STATUS no improvement in best in 13 clusters for 5 generations
USER: GENES 19
USER: genes 0 Translation |==|  0.39637 0.24332 0.33982
USER: genes 1 Rotation |==|  0.50098 0.35096 0.45266 0.97491
USER: genes 2 Torsion [C]-CA--CB-[CG] |==|  0.48898
USER: genes 3 Torsion [CA]-CB--CG-[CD2] |==|  0.69338
USER: genes 4 Torsion [N]-CA--C-[N] |==|  0.03832
USER: genes 5 Torsion [C]-N--CA-[C] |==|  0.60400
USER: genes 6 Torsion [N]-CA--C-[N] |==|  0.47407
USER: genes 7 Torsion [C]-N--CA-[CB] |==|  0.40754
USER: genes 8 Torsion [N]-CA--CB-[CG] |==|  0.93587
USER: genes 9 Torsion [CA]-CB--CG-[CD] |==|  0.69219
USER: genes 10 Torsion [CB]-CG--CD-[OE2] |==|  0.85749
USER: genes 11 Torsion [N]-CA--C-[OXT] |==|  0.76838
USER: genes 12 Torsion [CB]-CA--N-[C] |==|  0.44582
USER: genes 13 Torsion [N]-C--CA-[N] |==|  0.67713
USER: genes 14 Torsion [C]-CA--N-[C] |==|  0.17733
USER: genes 15 Torsion [N]-C--CA-[N] |==|  0.18748
USER: genes 16 Torsion [C]-CA--CB-[CG] |==|  0.23710
USER: genes 17 Torsion [CA]-CB--CG-[CD] |==|  0.79173
USER: genes 18 Torsion [CB]-CG--CD-[NE2] |==|  0.76619
ROOT
ATOM      1  CA  HIS G 812     -28.065  28.960  17.769  1.00 98.11 LIG 0.18  C 
ENDROOT
BRANCH 1 2
ATOM      2  CB  HIS G 812     -27.951  27.433  17.662  1.00 96.29 LIG 0.10  C 
BRANCH 2 3
ATOM      3  CG  HIS G 812     -27.159  26.927  16.488  1.00 94.00 LIG 0.06  A 
ATOM      4  CD2 HIS G 812     -27.543  26.273  15.374  1.00 93.71 LIG 0.14  A 
ATOM      5 NE2  HIS G 812     -26.398  25.864  14.721  1.00 93.19 LIG-0.25  NA
ATOM      6  CE1 HIS G 812     -25.351  26.273  15.418  1.00 92.78 LIG 0.23  A 
ATOM      7 ND1  HIS G 812     -25.779  26.920  16.483  1.00 93.58 LIG-0.24  NA
ENDBRANCH 2 3
ENDBRANCH 1 2
BRANCH 1 8
ATOM      8  C   HIS G 812     -28.980  29.240  18.956  1.00 99.25 LIG 0.24  C 
ATOM      9  N   GLY G 813     -28.555  30.105  19.869  1.00100.26 LIG-0.35  N 
ATOM     10 H    GLY G 813     -27.799  30.512  19.847  1.00100.26 LIG 0.16  HD
ATOM     11 O    HIS G 812     -30.081  28.691  19.026  1.00 99.52 LIG-0.27  OA
BRANCH 9 12
ATOM     12  CA  GLY G 813     -29.396  30.417  21.012  1.00101.48 LIG 0.23  C 
BRANCH 12 13
ATOM     13  C   GLY G 813     -29.321  31.876  21.426  1.00102.44 LIG 0.24  C 
ATOM     14 O    GLY G 813     -28.481  32.617  20.917  1.00102.98 LIG-0.27  OA
ATOM     15  N   GLU G 814     -30.196  32.300  22.337  1.00102.70 LIG-0.34  N 
ATOM     16 H    GLU G 814     -30.801  31.804  22.693  1.00102.70 LIG 0.16  HD
BRANCH 15 17
ATOM     17  CA  GLU G 814     -30.187  33.686  22.809  1.00102.89 LIG 0.19  C 
BRANCH 17 18
ATOM     18  CB  GLU G 814     -31.609  34.162  23.137  1.00101.97 LIG 0.05  C 
BRANCH 18 19
ATOM     19  CG  GLU G 814     -32.716  33.401  22.432  1.00100.63 LIG 0.12  C 
BRANCH 19 20
ATOM     20  CD  GLU G 814     -33.431  34.242  21.385  1.00100.36 LIG 0.17  C 
ATOM     21 OE1  GLU G 814     -33.565  33.773  20.233  1.00 99.71 LIG-0.65  OA
ATOM     22 OE2  GLU G 814     -33.864  35.368  21.711  1.00 99.42 LIG-0.65  OA
ENDBRANCH 19 20
ENDBRANCH 18 19
ENDBRANCH 17 18
BRANCH 17 23
ATOM     23  C   GLU G 814     -29.316  33.827  24.061  1.00103.78 LIG 0.20  C 
ATOM     24 OXT  GLU G 814     -29.814  33.550  25.176  1.00104.07 LIG-0.65  OA
ATOM     25 O    GLU G 814     -28.134  34.210  23.912  1.00104.32 LIG-0.65  OA
ENDBRANCH 17 23
ENDBRANCH 15 17
ENDBRANCH 12 13
ENDBRANCH 9 12
ENDBRANCH 1 8
BRANCH 1 26
ATOM     26  N   HIS G 812     -26.799  29.543  18.232  1.00 98.48 LIG-0.35  N 
ATOM     27  C   GLY G 811     -26.431  30.818  18.088  1.00 98.46 LIG 0.24  C 
ATOM     28 O    GLY G 811     -27.102  31.675  17.501  1.00 98.78 LIG-0.27  OA
ATOM     29 H    HIS G 812     -26.294  28.965  18.620  1.00 98.48 LIG 0.16  HD
BRANCH 27 30
ATOM     30  CA  GLY G 811     -25.083  31.160  18.703  1.00 98.06 LIG 0.23  C 
BRANCH 30 31
ATOM     31  N   GLY G 811     -25.089  32.115  19.797  1.00 97.66 LIG-0.35  N 
ATOM     32 H    GLY G 811     -24.673  32.851  19.639  1.00 97.66 LIG 0.16  HD
ATOM     33  C   GLN G 810     -25.706  31.827  20.941  1.00 97.43 LIG 0.26  C 
ATOM     34 O    GLN G 810     -26.275  30.753  21.142  1.00 97.76 LIG-0.27  OA
BRANCH 33 35
ATOM     35  CA  GLN G 810     -25.666  32.900  22.029  1.00 96.79 LIG 0.40  C 
ATOM     36  N   GLN G 810     -26.461  34.093  21.617  1.00 96.61 LIG 0.61  N 
BRANCH 35 37
ATOM     37  CB  GLN G 810     -26.225  32.311  23.323  1.00 96.38 LIG 0.06  C 
BRANCH 37 38
ATOM     38  CG  GLN G 810     -25.227  31.553  24.183  1.00 95.56 LIG 0.10  C 
BRANCH 38 39
ATOM     39  CD  GLN G 810     -24.899  30.193  23.608  1.00 95.11 LIG 0.21  C 
ATOM     40  NE2 GLN G 810     -25.741  29.210  23.910  1.00 94.31 LIG-0.37  N 
ATOM     41 21HE GLN G 810     -26.425  29.367  24.408  1.00 94.31 LIG 0.16  HD
ATOM     42 22HE GLN G 810     -25.602  28.417  23.607  1.00 94.31 LIG 0.16  HD
ATOM     43 OE1  GLN G 810     -23.905  30.024  22.900  1.00 94.65 LIG-0.27  OA
ENDBRANCH 38 39
ENDBRANCH 37 38
ENDBRANCH 35 37
ENDBRANCH 33 35
ENDBRANCH 30 31
ENDBRANCH 27 30
ENDBRANCH 1 26
TORSDOF 17
ENDMDL
MODEL 89
USER: ADFR SOLUTION from run 87
USER: SCORE 10.805017 LL:  -2.542 LR:  -9.703 RR:   0.000 FEB:  -4.631
USER: RMSD 6.457964
USER: SEED 86
USER: STATUS no improvement in best in 53 clusters for 5 generations
USER: GENES 19
USER: genes 0 Translation |==|  0.38461 0.37915 0.44209
USER: genes 1 Rotation |==|  0.46031 0.49156 0.56300 0.99435
USER: genes 2 Torsion [C]-CA--CB-[CG] |==|  0.44247
USER: genes 3 Torsion [CA]-CB--CG-[CD2] |==|  0.15574
USER: genes 4 Torsion [N]-CA--C-[N] |==|  0.35678
USER: genes 5 Torsion [C]-N--CA-[C] |==|  0.37697
USER: genes 6 Torsion [N]-CA--C-[N] |==|  0.13689
USER: genes 7 Torsion [C]-N--CA-[CB] |==|  0.32576
USER: genes 8 Torsion [N]-CA--CB-[CG] |==|  0.87225
USER: genes 9 Torsion [CA]-CB--CG-[CD] |==|  0.65119
USER: genes 10 Torsion [CB]-CG--CD-[OE2] |==|  0.95350
USER: genes 11 Torsion [N]-CA--C-[OXT] |==|  0.96060
USER: genes 12 Torsion [CB]-CA--N-[C] |==|  0.52794
USER: genes 13 Torsion [N]-C--CA-[N] |==|  0.50521
USER: genes 14 Torsion [C]-CA--N-[C] |==|  0.78753
USER: genes 15 Torsion [N]-C--CA-[N] |==|  0.34403
USER: genes 16 Torsion [C]-CA--CB-[CG] |==|  0.74265
USER: genes 17 Torsion [CA]-CB--CG-[CD] |==|  0.54214
USER: genes 18 Torsion [CB]-CG--CD-[NE2] |==|  0.58409
ROOT
ATOM      1  CA  HIS G 812     -28.294  31.507  20.300  1.00 98.11 LIG 0.18  C 
ENDROOT
BRANCH 1 2
ATOM      2  CB  HIS G 812     -27.617  30.129  20.314  1.00 96.29 LIG 0.10  C 
BRANCH 2 3
ATOM      3  CG  HIS G 812     -27.723  29.347  19.034  1.00 94.00 LIG 0.06  A 
ATOM      4  CD2 HIS G 812     -27.365  29.656  17.772  1.00 93.71 LIG 0.14  A 
ATOM      5 NE2  HIS G 812     -27.867  28.670  16.948  1.00 93.19 LIG-0.25  NA
ATOM      6  CE1 HIS G 812     -28.500  27.782  17.696  1.00 92.78 LIG 0.23  A 
ATOM      7 ND1  HIS G 812     -28.425  28.161  18.956  1.00 93.58 LIG-0.24  NA
ENDBRANCH 2 3
ENDBRANCH 1 2
BRANCH 1 8
ATOM      8  C   HIS G 812     -28.531  31.884  21.759  1.00 99.25 LIG 0.24  C 
ATOM      9  N   GLY G 813     -29.788  32.011  22.164  1.00100.26 LIG-0.35  N 
ATOM     10 H    GLY G 813     -30.480  31.906  21.665  1.00100.26 LIG 0.16  HD
ATOM     11 O    HIS G 812     -27.572  32.032  22.519  1.00 99.52 LIG-0.27  OA
BRANCH 9 12
ATOM     12  CA  GLY G 813     -30.068  32.353  23.548  1.00101.48 LIG 0.23  C 
BRANCH 12 13
ATOM     13  C   GLY G 813     -31.142  33.417  23.694  1.00102.44 LIG 0.24  C 
ATOM     14 O    GLY G 813     -30.942  34.397  24.410  1.00102.98 LIG-0.27  OA
ATOM     15  N   GLU G 814     -32.275  33.240  23.016  1.00102.70 LIG-0.34  N 
ATOM     16 H    GLU G 814     -32.429  32.571  22.498  1.00102.70 LIG 0.16  HD
BRANCH 15 17
ATOM     17  CA  GLU G 814     -33.373  34.205  23.109  1.00102.89 LIG 0.19  C 
BRANCH 17 18
ATOM     18  CB  GLU G 814     -33.652  34.851  21.745  1.00101.97 LIG 0.05  C 
BRANCH 18 19
ATOM     19  CG  GLU G 814     -32.419  35.317  20.995  1.00100.63 LIG 0.12  C 
BRANCH 19 20
ATOM     20  CD  GLU G 814     -32.497  36.783  20.593  1.00100.36 LIG 0.17  C 
ATOM     21 OE1  GLU G 814     -31.443  37.365  20.255  1.00 99.71 LIG-0.65  OA
ATOM     22 OE2  GLU G 814     -33.609  37.352  20.608  1.00 99.42 LIG-0.65  OA
ENDBRANCH 19 20
ENDBRANCH 18 19
ENDBRANCH 17 18
BRANCH 17 23
ATOM     23  C   GLU G 814     -34.652  33.524  23.608  1.00103.78 LIG 0.20  C 
ATOM     24 OXT  GLU G 814     -34.707  32.273  23.608  1.00104.07 LIG-0.65  OA
ATOM     25 O    GLU G 814     -35.589  34.255  24.000  1.00104.32 LIG-0.65  OA
ENDBRANCH 17 23
ENDBRANCH 15 17
ENDBRANCH 12 13
ENDBRANCH 9 12
ENDBRANCH 1 8
BRANCH 1 26
ATOM     26  N   HIS G 812     -27.344  32.546  19.880  1.00 98.48 LIG-0.35  N 
ATOM     27  C   GLY G 811     -27.554  33.862  19.943  1.00 98.46 LIG 0.24  C 
ATOM     28 O    GLY G 811     -28.607  34.383  20.331  1.00 98.78 LIG-0.27  OA
ATOM     29 H    HIS G 812     -26.610  32.216  19.578  1.00 98.48 LIG 0.16  HD
BRANCH 27 30
ATOM     30  CA  GLY G 811     -26.380  34.713  19.483  1.00 98.06 LIG 0.23  C 
BRANCH 30 31
ATOM     31  N   GLY G 811     -26.543  36.153  19.573  1.00 97.66 LIG-0.35  N 
ATOM     32 H    GLY G 811     -26.133  36.525  20.230  1.00 97.66 LIG 0.16  HD
ATOM     33  C   GLN G 810     -27.284  36.805  18.678  1.00 97.43 LIG 0.26  C 
ATOM     34 O    GLN G 810     -27.876  36.238  17.759  1.00 97.76 LIG-0.27  OA
BRANCH 33 35
ATOM     35  CA  GLN G 810     -27.388  38.320  18.851  1.00 96.79 LIG 0.40  C 
ATOM     36  N   GLN G 810     -26.946  39.019  17.609  1.00 96.61 LIG 0.61  N 
BRANCH 35 37
ATOM     37  CB  GLN G 810     -28.836  38.681  19.175  1.00 96.38 LIG 0.06  C 
BRANCH 37 38
ATOM     38  CG  GLN G 810     -29.707  39.032  17.979  1.00 95.56 LIG 0.10  C 
BRANCH 38 39
ATOM     39  CD  GLN G 810     -30.989  39.721  18.392  1.00 95.11 LIG 0.21  C 
ATOM     40  NE2 GLN G 810     -32.042  39.521  17.608  1.00 94.31 LIG-0.37  N 
ATOM     41 21HE GLN G 810     -31.971  39.024  16.910  1.00 94.31 LIG 0.16  HD
ATOM     42 22HE GLN G 810     -32.796  39.889  17.798  1.00 94.31 LIG 0.16  HD
ATOM     43 OE1  GLN G 810     -31.036  40.423  19.403  1.00 94.65 LIG-0.27  OA
ENDBRANCH 38 39
ENDBRANCH 37 38
ENDBRANCH 35 37
ENDBRANCH 33 35
ENDBRANCH 30 31
ENDBRANCH 27 30
ENDBRANCH 1 26
TORSDOF 17
ENDMDL
MODEL 90
USER: ADFR SOLUTION from run 57
USER: SCORE 11.059597 LL:  -2.338 LR:  -9.687 RR:   0.000 FEB:  -4.616
USER: RMSD 9.520654
USER: SEED 56
USER: STATUS no improvement in best in 29 clusters for 5 generations
USER: GENES 19
USER: genes 0 Translation |==|  0.47815 0.38860 0.51069
USER: genes 1 Rotation |==|  0.44921 0.56279 0.00774 0.53397
USER: genes 2 Torsion [C]-CA--CB-[CG] |==|  0.74238
USER: genes 3 Torsion [CA]-CB--CG-[CD2] |==|  0.66898
USER: genes 4 Torsion [N]-CA--C-[N] |==|  0.15333
USER: genes 5 Torsion [C]-N--CA-[C] |==|  0.80051
USER: genes 6 Torsion [N]-CA--C-[N] |==|  0.89444
USER: genes 7 Torsion [C]-N--CA-[CB] |==|  0.41148
USER: genes 8 Torsion [N]-CA--CB-[CG] |==|  0.56942
USER: genes 9 Torsion [CA]-CB--CG-[CD] |==|  0.44387
USER: genes 10 Torsion [CB]-CG--CD-[OE2] |==|  0.26211
USER: genes 11 Torsion [N]-CA--C-[OXT] |==|  0.90450
USER: genes 12 Torsion [CB]-CA--N-[C] |==|  0.21004
USER: genes 13 Torsion [N]-C--CA-[N] |==|  0.54730
USER: genes 14 Torsion [C]-CA--N-[C] |==|  0.20609
USER: genes 15 Torsion [N]-C--CA-[N] |==|  0.44708
USER: genes 16 Torsion [C]-CA--CB-[CG] |==|  0.26140
USER: genes 17 Torsion [CA]-CB--CG-[CD] |==|  0.50800
USER: genes 18 Torsion [CB]-CG--CD-[NE2] |==|  0.36473
ROOT
ATOM      1  CA  HIS G 812     -26.470  31.684  21.998  1.00 98.11 LIG 0.18  C 
ENDROOT
BRANCH 1 2
ATOM      2  CB  HIS G 812     -26.980  33.115  22.221  1.00 96.29 LIG 0.10  C 
BRANCH 2 3
ATOM      3  CG  HIS G 812     -28.454  33.238  22.491  1.00 94.00 LIG 0.06  A 
ATOM      4  CD2 HIS G 812     -29.429  33.882  21.820  1.00 93.71 LIG 0.14  A 
ATOM      5 NE2  HIS G 812     -30.563  33.845  22.605  1.00 93.19 LIG-0.25  NA
ATOM      6  CE1 HIS G 812     -30.282  33.184  23.715  1.00 92.78 LIG 0.23  A 
ATOM      7 ND1  HIS G 812     -29.022  32.802  23.672  1.00 93.58 LIG-0.24  NA
ENDBRANCH 2 3
ENDBRANCH 1 2
BRANCH 1 8
ATOM      8  C   HIS G 812     -26.011  31.174  23.360  1.00 99.25 LIG 0.24  C 
ATOM      9  N   GLY G 813     -25.696  29.889  23.461  1.00100.26 LIG-0.35  N 
ATOM     10 H    GLY G 813     -25.740  29.320  22.819  1.00100.26 LIG 0.16  HD
ATOM     11 O    HIS G 812     -25.918  31.956  24.309  1.00 99.52 LIG-0.27  OA
BRANCH 9 12
ATOM     12  CA  GLY G 813     -25.239  29.357  24.733  1.00101.48 LIG 0.23  C 
BRANCH 12 13
ATOM     13  C   GLY G 813     -23.838  29.814  25.102  1.00102.44 LIG 0.24  C 
ATOM     14 O    GLY G 813     -23.565  30.071  26.273  1.00102.98 LIG-0.27  OA
ATOM     15  N   GLU G 814     -22.947  29.910  24.117  1.00102.70 LIG-0.34  N 
ATOM     16 H    GLU G 814     -23.112  29.721  23.294  1.00102.70 LIG 0.16  HD
BRANCH 15 17
ATOM     17  CA  GLU G 814     -21.577  30.360  24.375  1.00102.89 LIG 0.19  C 
BRANCH 17 18
ATOM     18  CB  GLU G 814     -20.589  29.688  23.412  1.00101.97 LIG 0.05  C 
BRANCH 18 19
ATOM     19  CG  GLU G 814     -19.165  29.590  23.922  1.00100.63 LIG 0.12  C 
BRANCH 19 20
ATOM     20  CD  GLU G 814     -18.355  28.524  23.198  1.00100.36 LIG 0.17  C 
ATOM     21 OE1  GLU G 814     -18.425  27.344  23.604  1.00 99.71 LIG-0.65  OA
ATOM     22 OE2  GLU G 814     -17.653  28.863  22.221  1.00 99.42 LIG-0.65  OA
ENDBRANCH 19 20
ENDBRANCH 18 19
ENDBRANCH 17 18
BRANCH 17 23
ATOM     23  C   GLU G 814     -21.467  31.880  24.220  1.00103.78 LIG 0.20  C 
ATOM     24 OXT  GLU G 814     -22.168  32.449  23.353  1.00104.07 LIG-0.65  OA
ATOM     25 O    GLU G 814     -20.678  32.490  24.977  1.00104.32 LIG-0.65  OA
ENDBRANCH 17 23
ENDBRANCH 15 17
ENDBRANCH 12 13
ENDBRANCH 9 12
ENDBRANCH 1 8
BRANCH 1 26
ATOM     26  N   HIS G 812     -27.587  30.776  21.707  1.00 98.48 LIG-0.35  N 
ATOM     27  C   GLY G 811     -28.245  30.699  20.548  1.00 98.46 LIG 0.24  C 
ATOM     28 O    GLY G 811     -28.022  31.422  19.570  1.00 98.78 LIG-0.27  OA
ATOM     29 H    HIS G 812     -27.788  30.277  22.378  1.00 98.48 LIG 0.16  HD
BRANCH 27 30
ATOM     30  CA  GLY G 811     -29.332  29.636  20.508  1.00 98.06 LIG 0.23  C 
BRANCH 30 31
ATOM     31  N   GLY G 811     -29.813  29.245  19.194  1.00 97.66 LIG-0.35  N 
ATOM     32 H    GLY G 811     -30.592  29.545  18.988  1.00 97.66 LIG 0.16  HD
ATOM     33  C   GLN G 810     -29.065  28.477  18.404  1.00 97.43 LIG 0.26  C 
ATOM     34 O    GLN G 810     -27.961  28.047  18.739  1.00 97.76 LIG-0.27  OA
BRANCH 33 35
ATOM     35  CA  GLN G 810     -29.653  28.126  17.037  1.00 96.79 LIG 0.40  C 
ATOM     36  N   GLN G 810     -28.577  27.678  16.105  1.00 96.61 LIG 0.61  N 
BRANCH 35 37
ATOM     37  CB  GLN G 810     -30.693  27.023  17.215  1.00 96.38 LIG 0.06  C 
BRANCH 37 38
ATOM     38  CG  GLN G 810     -32.130  27.495  17.371  1.00 95.56 LIG 0.10  C 
BRANCH 38 39
ATOM     39  CD  GLN G 810     -33.083  26.346  17.612  1.00 95.11 LIG 0.21  C 
ATOM     40  NE2 GLN G 810     -33.931  26.489  18.624  1.00 94.31 LIG-0.37  N 
ATOM     41 21HE GLN G 810     -33.915  27.204  19.101  1.00 94.31 LIG 0.16  HD
ATOM     42 22HE GLN G 810     -34.495  25.865  18.804  1.00 94.31 LIG 0.16  HD
ATOM     43 OE1  GLN G 810     -33.062  25.342  16.898  1.00 94.65 LIG-0.27  OA
ENDBRANCH 38 39
ENDBRANCH 37 38
ENDBRANCH 35 37
ENDBRANCH 33 35
ENDBRANCH 30 31
ENDBRANCH 27 30
ENDBRANCH 1 26
TORSDOF 17
ENDMDL
MODEL 91
USER: ADFR SOLUTION from run 163
USER: SCORE 11.782115 LL:  -3.376 LR:  -9.683 RR:   0.000 FEB:  -4.612
USER: RMSD 6.608465
USER: SEED 162
USER: STATUS no improvement in best in 19 clusters for 5 generations
USER: GENES 19
USER: genes 0 Translation |==|  0.38443 0.38036 0.44465
USER: genes 1 Rotation |==|  0.46775 0.48918 0.54499 0.99681
USER: genes 2 Torsion [C]-CA--CB-[CG] |==|  0.40761
USER: genes 3 Torsion [CA]-CB--CG-[CD2] |==|  0.25641
USER: genes 4 Torsion [N]-CA--C-[N] |==|  0.36855
USER: genes 5 Torsion [C]-N--CA-[C] |==|  0.37055
USER: genes 6 Torsion [N]-CA--C-[N] |==|  0.15868
USER: genes 7 Torsion [C]-N--CA-[CB] |==|  0.28397
USER: genes 8 Torsion [N]-CA--CB-[CG] |==|  0.54372
USER: genes 9 Torsion [CA]-CB--CG-[CD] |==|  0.41883
USER: genes 10 Torsion [CB]-CG--CD-[OE2] |==|  0.84227
USER: genes 11 Torsion [N]-CA--C-[OXT] |==|  0.97261
USER: genes 12 Torsion [CB]-CA--N-[C] |==|  0.88747
USER: genes 13 Torsion [N]-C--CA-[N] |==|  0.02978
USER: genes 14 Torsion [C]-CA--N-[C] |==|  0.17977
USER: genes 15 Torsion [N]-C--CA-[N] |==|  0.14961
USER: genes 16 Torsion [C]-CA--CB-[CG] |==|  0.74466
USER: genes 17 Torsion [CA]-CB--CG-[CD] |==|  0.26342
USER: genes 18 Torsion [CB]-CG--CD-[NE2] |==|  0.28869
ROOT
ATOM      1  CA  HIS G 812     -28.298  31.530  20.363  1.00 98.11 LIG 0.18  C 
ENDROOT
BRANCH 1 2
ATOM      2  CB  HIS G 812     -27.721  30.107  20.338  1.00 96.29 LIG 0.10  C 
BRANCH 2 3
ATOM      3  CG  HIS G 812     -28.117  29.272  19.152  1.00 94.00 LIG 0.06  A 
ATOM      4  CD2 HIS G 812     -27.520  29.085  17.959  1.00 93.71 LIG 0.14  A 
ATOM      5 NE2  HIS G 812     -28.402  28.386  17.162  1.00 93.19 LIG-0.25  NA
ATOM      6  CE1 HIS G 812     -29.498  28.146  17.862  1.00 92.78 LIG 0.23  A 
ATOM      7 ND1  HIS G 812     -29.353  28.663  19.065  1.00 93.58 LIG-0.24  NA
ENDBRANCH 2 3
ENDBRANCH 1 2
BRANCH 1 8
ATOM      8  C   HIS G 812     -28.525  31.875  21.831  1.00 99.25 LIG 0.24  C 
ATOM      9  N   GLY G 813     -29.780  31.994  22.247  1.00100.26 LIG-0.35  N 
ATOM     10 H    GLY G 813     -30.475  31.899  21.750  1.00100.26 LIG 0.16  HD
ATOM     11 O    HIS G 812     -27.561  32.007  22.588  1.00 99.52 LIG-0.27  OA
BRANCH 9 12
ATOM     12  CA  GLY G 813     -30.051  32.307  23.640  1.00101.48 LIG 0.23  C 
BRANCH 12 13
ATOM     13  C   GLY G 813     -31.083  33.407  23.814  1.00102.44 LIG 0.24  C 
ATOM     14 O    GLY G 813     -30.795  34.425  24.441  1.00102.98 LIG-0.27  OA
ATOM     15  N   GLU G 814     -32.279  33.217  23.258  1.00102.70 LIG-0.34  N 
ATOM     16 H    GLU G 814     -32.496  32.521  22.803  1.00102.70 LIG 0.16  HD
BRANCH 15 17
ATOM     17  CA  GLU G 814     -33.343  34.216  23.389  1.00102.89 LIG 0.19  C 
BRANCH 17 18
ATOM     18  CB  GLU G 814     -33.481  35.041  22.103  1.00101.97 LIG 0.05  C 
BRANCH 18 19
ATOM     19  CG  GLU G 814     -34.274  36.325  22.248  1.00100.63 LIG 0.12  C 
BRANCH 19 20
ATOM     20  CD  GLU G 814     -33.829  37.403  21.272  1.00100.36 LIG 0.17  C 
ATOM     21 OE1  GLU G 814     -34.680  37.898  20.500  1.00 99.71 LIG-0.65  OA
ATOM     22 OE2  GLU G 814     -32.632  37.762  21.277  1.00 99.42 LIG-0.65  OA
ENDBRANCH 19 20
ENDBRANCH 18 19
ENDBRANCH 17 18
BRANCH 17 23
ATOM     23  C   GLU G 814     -34.684  33.542  23.694  1.00103.78 LIG 0.20  C 
ATOM     24 OXT  GLU G 814     -34.765  32.295  23.608  1.00104.07 LIG-0.65  OA
ATOM     25 O    GLU G 814     -35.645  34.273  24.024  1.00104.32 LIG-0.65  OA
ENDBRANCH 17 23
ENDBRANCH 15 17
ENDBRANCH 12 13
ENDBRANCH 9 12
ENDBRANCH 1 8
BRANCH 1 26
ATOM     26  N   HIS G 812     -27.271  32.511  19.988  1.00 98.48 LIG-0.35  N 
ATOM     27  C   GLY G 811     -25.993  32.485  20.372  1.00 98.46 LIG 0.24  C 
ATOM     28 O    GLY G 811     -25.513  31.641  21.138  1.00 98.78 LIG-0.27  OA
ATOM     29 H    HIS G 812     -27.580  33.130  19.476  1.00 98.48 LIG 0.16  HD
BRANCH 27 30
ATOM     30  CA  GLY G 811     -25.137  33.603  19.797  1.00 98.06 LIG 0.23  C 
BRANCH 30 31
ATOM     31  N   GLY G 811     -25.838  34.677  19.116  1.00 97.66 LIG-0.35  N 
ATOM     32 H    GLY G 811     -25.671  34.744  18.276  1.00 97.66 LIG 0.16  HD
ATOM     33  C   GLN G 810     -26.667  35.474  19.788  1.00 97.43 LIG 0.26  C 
ATOM     34 O    GLN G 810     -26.867  35.363  20.998  1.00 97.76 LIG-0.27  OA
BRANCH 33 35
ATOM     35  CA  GLN G 810     -27.365  36.569  18.983  1.00 96.79 LIG 0.40  C 
ATOM     36  N   GLN G 810     -28.073  35.983  17.807  1.00 96.61 LIG 0.61  N 
BRANCH 35 37
ATOM     37  CB  GLN G 810     -28.357  37.293  19.891  1.00 96.38 LIG 0.06  C 
BRANCH 37 38
ATOM     38  CG  GLN G 810     -29.774  36.741  19.885  1.00 95.56 LIG 0.10  C 
BRANCH 38 39
ATOM     39  CD  GLN G 810     -30.005  35.756  21.009  1.00 95.11 LIG 0.21  C 
ATOM     40  NE2 GLN G 810     -30.705  36.203  22.046  1.00 94.31 LIG-0.37  N 
ATOM     41 21HE GLN G 810     -30.996  37.012  22.052  1.00 94.31 LIG 0.16  HD
ATOM     42 22HE GLN G 810     -30.866  35.683  22.713  1.00 94.31 LIG 0.16  HD
ATOM     43 OE1  GLN G 810     -29.564  34.608  20.949  1.00 94.65 LIG-0.27  OA
ENDBRANCH 38 39
ENDBRANCH 37 38
ENDBRANCH 35 37
ENDBRANCH 33 35
ENDBRANCH 30 31
ENDBRANCH 27 30
ENDBRANCH 1 26
TORSDOF 17
ENDMDL
MODEL 92
USER: ADFR SOLUTION from run 2
USER: SCORE 12.263608 LL:  -3.107 LR:  -9.660 RR:   0.000 FEB:  -4.589
USER: RMSD 7.446935
USER: SEED 102184
USER: STATUS no improvement in best in 22 clusters for 5 generations
USER: GENES 19
USER: genes 0 Translation |==|  0.37491 0.32085 0.41730
USER: genes 1 Rotation |==|  0.48321 0.41659 0.47227 0.99193
USER: genes 2 Torsion [C]-CA--CB-[CG] |==|  0.34190
USER: genes 3 Torsion [CA]-CB--CG-[CD2] |==|  0.32291
USER: genes 4 Torsion [N]-CA--C-[N] |==|  0.09501
USER: genes 5 Torsion [C]-N--CA-[C] |==|  0.68889
USER: genes 6 Torsion [N]-CA--C-[N] |==|  0.11107
USER: genes 7 Torsion [C]-N--CA-[CB] |==|  0.32552
USER: genes 8 Torsion [N]-CA--CB-[CG] |==|  0.75854
USER: genes 9 Torsion [CA]-CB--CG-[CD] |==|  0.19190
USER: genes 10 Torsion [CB]-CG--CD-[OE2] |==|  0.58234
USER: genes 11 Torsion [N]-CA--C-[OXT] |==|  0.72798
USER: genes 12 Torsion [CB]-CA--N-[C] |==|  0.16829
USER: genes 13 Torsion [N]-C--CA-[N] |==|  0.99000
USER: genes 14 Torsion [C]-CA--N-[C] |==|  0.26085
USER: genes 15 Torsion [N]-C--CA-[N] |==|  0.98875
USER: genes 16 Torsion [C]-CA--CB-[CG] |==|  0.01245
USER: genes 17 Torsion [CA]-CB--CG-[CD] |==|  0.34558
USER: genes 18 Torsion [CB]-CG--CD-[NE2] |==|  0.60285
ROOT
ATOM      1  CA  HIS G 812     -28.483  30.414  19.686  1.00 98.11 LIG 0.18  C 
ENDROOT
BRANCH 1 2
ATOM      2  CB  HIS G 812     -28.297  28.890  19.640  1.00 96.29 LIG 0.10  C 
BRANCH 2 3
ATOM      3  CG  HIS G 812     -29.008  28.189  18.515  1.00 94.00 LIG 0.06  A 
ATOM      4  CD2 HIS G 812     -28.535  27.488  17.467  1.00 93.71 LIG 0.14  A 
ATOM      5 NE2  HIS G 812     -29.600  27.233  16.628  1.00 93.19 LIG-0.25  NA
ATOM      6  CE1 HIS G 812     -30.690  27.756  17.164  1.00 92.78 LIG 0.23  A 
ATOM      7 ND1  HIS G 812     -30.364  28.333  18.303  1.00 93.58 LIG-0.24  NA
ENDBRANCH 2 3
ENDBRANCH 1 2
BRANCH 1 8
ATOM      8  C   HIS G 812     -29.059  30.734  21.062  1.00 99.25 LIG 0.24  C 
ATOM      9  N   GLY G 813     -28.761  31.913  21.593  1.00100.26 LIG-0.35  N 
ATOM     10 H    GLY G 813     -28.261  32.507  21.225  1.00100.26 LIG 0.16  HD
ATOM     11 O    HIS G 812     -29.794  29.920  21.625  1.00 99.52 LIG-0.27  OA
BRANCH 9 12
ATOM     12  CA  GLY G 813     -29.297  32.273  22.895  1.00101.48 LIG 0.23  C 
BRANCH 12 13
ATOM     13  C   GLY G 813     -30.310  33.402  22.831  1.00102.44 LIG 0.24  C 
ATOM     14 O    GLY G 813     -30.306  34.280  23.693  1.00102.98 LIG-0.27  OA
ATOM     15  N   GLU G 814     -31.173  33.394  21.816  1.00102.70 LIG-0.34  N 
ATOM     16 H    GLU G 814     -31.184  32.799  21.195  1.00102.70 LIG 0.16  HD
BRANCH 15 17
ATOM     17  CA  GLU G 814     -32.197  34.433  21.683  1.00102.89 LIG 0.19  C 
BRANCH 17 18
ATOM     18  CB  GLU G 814     -31.992  35.242  20.395  1.00101.97 LIG 0.05  C 
BRANCH 18 19
ATOM     19  CG  GLU G 814     -31.044  36.418  20.523  1.00100.63 LIG 0.12  C 
BRANCH 19 20
ATOM     20  CD  GLU G 814     -29.599  35.986  20.729  1.00100.36 LIG 0.17  C 
ATOM     21 OE1  GLU G 814     -29.224  34.901  20.233  1.00 99.71 LIG-0.65  OA
ATOM     22 OE2  GLU G 814     -28.836  36.731  21.380  1.00 99.42 LIG-0.65  OA
ENDBRANCH 19 20
ENDBRANCH 18 19
ENDBRANCH 17 18
BRANCH 17 23
ATOM     23  C   GLU G 814     -33.598  33.813  21.664  1.00103.78 LIG 0.20  C 
ATOM     24 OXT  GLU G 814     -34.156  33.622  20.559  1.00104.07 LIG-0.65  OA
ATOM     25 O    GLU G 814     -34.124  33.519  22.760  1.00104.32 LIG-0.65  OA
ENDBRANCH 17 23
ENDBRANCH 15 17
ENDBRANCH 12 13
ENDBRANCH 9 12
ENDBRANCH 1 8
BRANCH 1 26
ATOM     26  N   HIS G 812     -27.182  31.092  19.749  1.00 98.48 LIG-0.35  N 
ATOM     27  C   GLY G 811     -26.218  31.011  18.829  1.00 98.46 LIG 0.24  C 
ATOM     28 O    GLY G 811     -26.283  30.312  17.811  1.00 98.78 LIG-0.27  OA
ATOM     29 H    HIS G 812     -27.092  31.566  20.460  1.00 98.48 LIG 0.16  HD
BRANCH 27 30
ATOM     30  CA  GLY G 811     -24.988  31.854  19.126  1.00 98.06 LIG 0.23  C 
BRANCH 30 31
ATOM     31  N   GLY G 811     -25.042  32.693  20.310  1.00 97.66 LIG-0.35  N 
ATOM     32 H    GLY G 811     -25.400  33.466  20.191  1.00 97.66 LIG 0.16  HD
ATOM     33  C   GLN G 810     -24.561  32.254  21.471  1.00 97.43 LIG 0.26  C 
ATOM     34 O    GLN G 810     -24.035  31.148  21.602  1.00 97.76 LIG-0.27  OA
BRANCH 33 35
ATOM     35  CA  GLN G 810     -24.673  33.206  22.662  1.00 96.79 LIG 0.40  C 
ATOM     36  N   GLN G 810     -25.237  34.518  22.231  1.00 96.61 LIG 0.61  N 
BRANCH 35 37
ATOM     37  CB  GLN G 810     -25.566  32.567  23.722  1.00 96.38 LIG 0.06  C 
BRANCH 37 38
ATOM     38  CG  GLN G 810     -26.032  31.151  23.420  1.00 95.56 LIG 0.10  C 
BRANCH 38 39
ATOM     39  CD  GLN G 810     -25.669  30.185  24.526  1.00 95.11 LIG 0.21  C 
ATOM     40  NE2 GLN G 810     -25.309  28.964  24.145  1.00 94.31 LIG-0.37  N 
ATOM     41 21HE GLN G 810     -25.295  28.761  23.309  1.00 94.31 LIG 0.16  HD
ATOM     42 22HE GLN G 810     -25.092  28.376  24.734  1.00 94.31 LIG 0.16  HD
ATOM     43 OE1  GLN G 810     -25.708  30.528  25.708  1.00 94.65 LIG-0.27  OA
ENDBRANCH 38 39
ENDBRANCH 37 38
ENDBRANCH 35 37
ENDBRANCH 33 35
ENDBRANCH 30 31
ENDBRANCH 27 30
ENDBRANCH 1 26
TORSDOF 17
ENDMDL
MODEL 93
USER: ADFR SOLUTION from run 146
USER: SCORE 10.003999 LL:  -2.150 LR:  -9.654 RR:   0.000 FEB:  -4.582
USER: RMSD 7.276284
USER: SEED 145
USER: STATUS no improvement in best in 13 clusters for 5 generations
USER: GENES 19
USER: genes 0 Translation |==|  0.51765 0.42897 0.56995
USER: genes 1 Rotation |==|  0.17684 0.45098 0.79477 0.73722
USER: genes 2 Torsion [C]-CA--CB-[CG] |==|  0.87180
USER: genes 3 Torsion [CA]-CB--CG-[CD2] |==|  0.74763
USER: genes 4 Torsion [N]-CA--C-[N] |==|  0.38032
USER: genes 5 Torsion [C]-N--CA-[C] |==|  0.20193
USER: genes 6 Torsion [N]-CA--C-[N] |==|  0.61024
USER: genes 7 Torsion [C]-N--CA-[CB] |==|  0.32766
USER: genes 8 Torsion [N]-CA--CB-[CG] |==|  0.03131
USER: genes 9 Torsion [CA]-CB--CG-[CD] |==|  0.47272
USER: genes 10 Torsion [CB]-CG--CD-[OE2] |==|  0.74977
USER: genes 11 Torsion [N]-CA--C-[OXT] |==|  0.63409
USER: genes 12 Torsion [CB]-CA--N-[C] |==|  0.23467
USER: genes 13 Torsion [N]-C--CA-[N] |==|  0.72110
USER: genes 14 Torsion [C]-CA--N-[C] |==|  0.17598
USER: genes 15 Torsion [N]-C--CA-[N] |==|  0.07605
USER: genes 16 Torsion [C]-CA--CB-[CG] |==|  0.59531
USER: genes 17 Torsion [CA]-CB--CG-[CD] |==|  0.85643
USER: genes 18 Torsion [CB]-CG--CD-[NE2] |==|  0.85669
ROOT
ATOM      1  CA  HIS G 812     -25.700  32.441  23.464  1.00 98.11 LIG 0.18  C 
ENDROOT
BRANCH 1 2
ATOM      2  CB  HIS G 812     -24.770  33.325  24.308  1.00 96.29 LIG 0.10  C 
BRANCH 2 3
ATOM      3  CG  HIS G 812     -24.966  34.807  24.143  1.00 94.00 LIG 0.06  A 
ATOM      4  CD2 HIS G 812     -24.393  35.690  23.303  1.00 93.71 LIG 0.14  A 
ATOM      5 NE2  HIS G 812     -24.779  36.952  23.706  1.00 93.19 LIG-0.25  NA
ATOM      6  CE1 HIS G 812     -25.575  36.830  24.755  1.00 92.78 LIG 0.23  A 
ATOM      7 ND1  HIS G 812     -25.709  35.551  25.037  1.00 93.58 LIG-0.24  NA
ENDBRANCH 2 3
ENDBRANCH 1 2
BRANCH 1 8
ATOM      8  C   HIS G 812     -27.103  33.017  23.627  1.00 99.25 LIG 0.24  C 
ATOM      9  N   GLY G 813     -27.965  32.332  24.368  1.00100.26 LIG-0.35  N 
ATOM     10 H    GLY G 813     -27.796  31.584  24.756  1.00100.26 LIG 0.16  HD
ATOM     11 O    HIS G 812     -27.390  34.094  23.101  1.00 99.52 LIG-0.27  OA
BRANCH 9 12
ATOM     12  CA  GLY G 813     -29.310  32.845  24.567  1.00101.48 LIG 0.23  C 
BRANCH 12 13
ATOM     13  C   GLY G 813     -30.182  32.729  23.329  1.00102.44 LIG 0.24  C 
ATOM     14 O    GLY G 813     -30.120  31.720  22.627  1.00102.98 LIG-0.27  OA
ATOM     15  N   GLU G 814     -30.998  33.746  23.057  1.00102.70 LIG-0.34  N 
ATOM     16 H    GLU G 814     -31.068  34.453  23.543  1.00102.70 LIG 0.16  HD
BRANCH 15 17
ATOM     17  CA  GLU G 814     -31.863  33.730  21.875  1.00102.89 LIG 0.19  C 
BRANCH 17 18
ATOM     18  CB  GLU G 814     -33.343  33.773  22.278  1.00101.97 LIG 0.05  C 
BRANCH 18 19
ATOM     19  CG  GLU G 814     -33.598  34.091  23.739  1.00100.63 LIG 0.12  C 
BRANCH 19 20
ATOM     20  CD  GLU G 814     -35.067  34.356  24.034  1.00100.36 LIG 0.17  C 
ATOM     21 OE1  GLU G 814     -35.794  33.391  24.359  1.00 99.71 LIG-0.65  OA
ATOM     22 OE2  GLU G 814     -35.496  35.526  23.947  1.00 99.42 LIG-0.65  OA
ENDBRANCH 19 20
ENDBRANCH 18 19
ENDBRANCH 17 18
BRANCH 17 23
ATOM     23  C   GLU G 814     -31.560  34.925  20.966  1.00103.78 LIG 0.20  C 
ATOM     24 OXT  GLU G 814     -32.514  35.617  20.543  1.00104.07 LIG-0.65  OA
ATOM     25 O    GLU G 814     -30.363  35.161  20.689  1.00104.32 LIG-0.65  OA
ENDBRANCH 17 23
ENDBRANCH 15 17
ENDBRANCH 12 13
ENDBRANCH 9 12
ENDBRANCH 1 8
BRANCH 1 26
ATOM     26  N   HIS G 812     -25.460  32.657  22.032  1.00 98.48 LIG-0.35  N 
ATOM     27  C   GLY G 811     -24.518  32.055  21.302  1.00 98.46 LIG 0.24  C 
ATOM     28 O    GLY G 811     -23.688  31.258  21.755  1.00 98.78 LIG-0.27  OA
ATOM     29 H    HIS G 812     -26.003  33.229  21.690  1.00 98.48 LIG 0.16  HD
BRANCH 27 30
ATOM     30  CA  GLY G 811     -24.522  32.432  19.828  1.00 98.06 LIG 0.23  C 
BRANCH 30 31
ATOM     31  N   GLY G 811     -25.144  31.490  18.916  1.00 97.66 LIG-0.35  N 
ATOM     32 H    GLY G 811     -24.614  31.143  18.335  1.00 97.66 LIG 0.16  HD
ATOM     33  C   GLN G 810     -26.444  31.216  19.011  1.00 97.43 LIG 0.26  C 
ATOM     34 O    GLN G 810     -27.180  31.747  19.843  1.00 97.76 LIG-0.27  OA
BRANCH 33 35
ATOM     35  CA  GLN G 810     -27.005  30.204  18.013  1.00 96.79 LIG 0.40  C 
ATOM     36  N   GLN G 810     -25.940  29.255  17.576  1.00 96.61 LIG 0.61  N 
BRANCH 35 37
ATOM     37  CB  GLN G 810     -28.153  29.444  18.672  1.00 96.38 LIG 0.06  C 
BRANCH 37 38
ATOM     38  CG  GLN G 810     -28.295  27.986  18.263  1.00 95.56 LIG 0.10  C 
BRANCH 38 39
ATOM     39  CD  GLN G 810     -28.330  27.818  16.761  1.00 95.11 LIG 0.21  C 
ATOM     40  NE2 GLN G 810     -29.207  28.573  16.107  1.00 94.31 LIG-0.37  N 
ATOM     41 21HE GLN G 810     -29.714  29.116  16.539  1.00 94.31 LIG 0.16  HD
ATOM     42 22HE GLN G 810     -29.267  28.518  15.250  1.00 94.31 LIG 0.16  HD
ATOM     43 OE1  GLN G 810     -27.580  27.024  16.191  1.00 94.65 LIG-0.27  OA
ENDBRANCH 38 39
ENDBRANCH 37 38
ENDBRANCH 35 37
ENDBRANCH 33 35
ENDBRANCH 30 31
ENDBRANCH 27 30
ENDBRANCH 1 26
TORSDOF 17
ENDMDL
MODEL 94
USER: ADFR SOLUTION from run 78
USER: SCORE 11.365772 LL:  -3.706 LR:  -9.626 RR:   0.000 FEB:  -4.555
USER: RMSD 9.255983
USER: SEED 77
USER: STATUS no improvement in best in 13 clusters for 5 generations
USER: GENES 19
USER: genes 0 Translation |==|  0.37130 0.22392 0.36427
USER: genes 1 Rotation |==|  0.71685 0.85800 0.74119 0.62898
USER: genes 2 Torsion [C]-CA--CB-[CG] |==|  0.49207
USER: genes 3 Torsion [CA]-CB--CG-[CD2] |==|  0.68992
USER: genes 4 Torsion [N]-CA--C-[N] |==|  0.96667
USER: genes 5 Torsion [C]-N--CA-[C] |==|  0.68260
USER: genes 6 Torsion [N]-CA--C-[N] |==|  0.46345
USER: genes 7 Torsion [C]-N--CA-[CB] |==|  0.44877
USER: genes 8 Torsion [N]-CA--CB-[CG] |==|  0.87157
USER: genes 9 Torsion [CA]-CB--CG-[CD] |==|  0.66969
USER: genes 10 Torsion [CB]-CG--CD-[OE2] |==|  0.86324
USER: genes 11 Torsion [N]-CA--C-[OXT] |==|  0.71228
USER: genes 12 Torsion [CB]-CA--N-[C] |==|  0.46100
USER: genes 13 Torsion [N]-C--CA-[N] |==|  0.63196
USER: genes 14 Torsion [C]-CA--N-[C] |==|  0.21150
USER: genes 15 Torsion [N]-C--CA-[N] |==|  0.71925
USER: genes 16 Torsion [C]-CA--CB-[CG] |==|  0.29952
USER: genes 17 Torsion [CA]-CB--CG-[CD] |==|  0.78933
USER: genes 18 Torsion [CB]-CG--CD-[NE2] |==|  0.84986
ROOT
ATOM      1  CA  HIS G 812     -28.554  28.597  18.374  1.00 98.11 LIG 0.18  C 
ENDROOT
BRANCH 1 2
ATOM      2  CB  HIS G 812     -29.441  28.520  17.123  1.00 96.29 LIG 0.10  C 
BRANCH 2 3
ATOM      3  CG  HIS G 812     -30.777  27.859  17.321  1.00 94.00 LIG 0.06  A 
ATOM      4  CD2 HIS G 812     -31.267  26.692  16.859  1.00 93.71 LIG 0.14  A 
ATOM      5 NE2  HIS G 812     -32.611  26.658  17.170  1.00 93.19 LIG-0.25  NA
ATOM      6  CE1 HIS G 812     -32.919  27.770  17.814  1.00 92.78 LIG 0.23  A 
ATOM      7 ND1  HIS G 812     -31.835  28.509  17.925  1.00 93.58 LIG-0.24  NA
ENDBRANCH 2 3
ENDBRANCH 1 2
BRANCH 1 8
ATOM      8  C   HIS G 812     -27.239  29.231  17.929  1.00 99.25 LIG 0.24  C 
ATOM      9  N   GLY G 813     -27.033  30.503  18.246  1.00100.26 LIG-0.35  N 
ATOM     10 H    GLY G 813     -27.587  30.999  18.676  1.00100.26 LIG 0.16  HD
ATOM     11 O    HIS G 812     -26.406  28.555  17.322  1.00 99.52 LIG-0.27  OA
BRANCH 9 12
ATOM     12  CA  GLY G 813     -25.791  31.149  17.859  1.00101.48 LIG 0.23  C 
BRANCH 12 13
ATOM     13  C   GLY G 813     -24.928  31.542  19.045  1.00102.44 LIG 0.24  C 
ATOM     14 O    GLY G 813     -25.400  31.522  20.181  1.00102.98 LIG-0.27  OA
ATOM     15  N   GLU G 814     -23.666  31.890  18.796  1.00102.70 LIG-0.34  N 
ATOM     16 H    GLU G 814     -23.312  31.896  18.013  1.00102.70 LIG 0.16  HD
BRANCH 15 17
ATOM     17  CA  GLU G 814     -22.766  32.301  19.876  1.00102.89 LIG 0.19  C 
BRANCH 17 18
ATOM     18  CB  GLU G 814     -21.300  32.208  19.431  1.00101.97 LIG 0.05  C 
BRANCH 18 19
ATOM     19  CG  GLU G 814     -20.929  30.925  18.713  1.00100.63 LIG 0.12  C 
BRANCH 19 20
ATOM     20  CD  GLU G 814     -19.854  30.134  19.444  1.00100.36 LIG 0.17  C 
ATOM     21 OE1  GLU G 814     -20.040  28.912  19.638  1.00 99.71 LIG-0.65  OA
ATOM     22 OE2  GLU G 814     -18.821  30.728  19.819  1.00 99.42 LIG-0.65  OA
ENDBRANCH 19 20
ENDBRANCH 18 19
ENDBRANCH 17 18
BRANCH 17 23
ATOM     23  C   GLU G 814     -23.063  33.739  20.313  1.00103.78 LIG 0.20  C 
ATOM     24 OXT  GLU G 814     -22.292  34.653  19.939  1.00104.07 LIG-0.65  OA
ATOM     25 O    GLU G 814     -24.072  33.937  21.024  1.00104.32 LIG-0.65  OA
ENDBRANCH 17 23
ENDBRANCH 15 17
ENDBRANCH 12 13
ENDBRANCH 9 12
ENDBRANCH 1 8
BRANCH 1 26
ATOM     26  N   HIS G 812     -29.064  29.607  19.309  1.00 98.48 LIG-0.35  N 
ATOM     27  C   GLY G 811     -28.695  29.742  20.585  1.00 98.46 LIG 0.24  C 
ATOM     28 O    GLY G 811     -27.894  28.996  21.162  1.00 98.78 LIG-0.27  OA
ATOM     29 H    HIS G 812     -29.646  30.126  18.948  1.00 98.48 LIG 0.16  HD
BRANCH 27 30
ATOM     30  CA  GLY G 811     -29.351  30.904  21.314  1.00 98.06 LIG 0.23  C 
BRANCH 30 31
ATOM     31  N   GLY G 811     -28.475  31.767  22.087  1.00 97.66 LIG-0.35  N 
ATOM     32 H    GLY G 811     -28.507  31.647  22.938  1.00 97.66 LIG 0.16  HD
ATOM     33  C   GLN G 810     -27.700  32.662  21.478  1.00 97.43 LIG 0.26  C 
ATOM     34 O    GLN G 810     -27.695  32.821  20.257  1.00 97.76 LIG-0.27  OA
BRANCH 33 35
ATOM     35  CA  GLN G 810     -26.806  33.517  22.376  1.00 96.79 LIG 0.40  C 
ATOM     36  N   GLN G 810     -27.403  34.871  22.570  1.00 96.61 LIG 0.61  N 
BRANCH 35 37
ATOM     37  CB  GLN G 810     -26.641  32.813  23.721  1.00 96.38 LIG 0.06  C 
BRANCH 37 38
ATOM     38  CG  GLN G 810     -25.272  32.202  23.977  1.00 95.56 LIG 0.10  C 
BRANCH 38 39
ATOM     39  CD  GLN G 810     -25.070  30.917  23.206  1.00 95.11 LIG 0.21  C 
ATOM     40  NE2 GLN G 810     -25.996  29.979  23.376  1.00 94.31 LIG-0.37  N 
ATOM     41 21HE GLN G 810     -26.661  30.121  23.903  1.00 94.31 LIG 0.16  HD
ATOM     42 22HE GLN G 810     -25.930  29.229  22.960  1.00 94.31 LIG 0.16  HD
ATOM     43 OE1  GLN G 810     -24.098  30.765  22.465  1.00 94.65 LIG-0.27  OA
ENDBRANCH 38 39
ENDBRANCH 37 38
ENDBRANCH 35 37
ENDBRANCH 33 35
ENDBRANCH 30 31
ENDBRANCH 27 30
ENDBRANCH 1 26
TORSDOF 17
ENDMDL
MODEL 95
USER: ADFR SOLUTION from run 92
USER: SCORE 10.502318 LL:  -2.599 LR:  -9.623 RR:   0.000 FEB:  -4.551
USER: RMSD 6.817167
USER: SEED 91
USER: STATUS no improvement in best in 13 clusters for 5 generations
USER: GENES 19
USER: genes 0 Translation |==|  0.40075 0.37905 0.45129
USER: genes 1 Rotation |==|  0.45214 0.40014 0.39515 0.97618
USER: genes 2 Torsion [C]-CA--CB-[CG] |==|  0.41468
USER: genes 3 Torsion [CA]-CB--CG-[CD2] |==|  0.65741
USER: genes 4 Torsion [N]-CA--C-[N] |==|  0.52778
USER: genes 5 Torsion [C]-N--CA-[C] |==|  0.31995
USER: genes 6 Torsion [N]-CA--C-[N] |==|  0.26362
USER: genes 7 Torsion [C]-N--CA-[CB] |==|  0.84694
USER: genes 8 Torsion [N]-CA--CB-[CG] |==|  0.84312
USER: genes 9 Torsion [CA]-CB--CG-[CD] |==|  0.29642
USER: genes 10 Torsion [CB]-CG--CD-[OE2] |==|  0.10569
USER: genes 11 Torsion [N]-CA--C-[OXT] |==|  0.67236
USER: genes 12 Torsion [CB]-CA--N-[C] |==|  0.24735
USER: genes 13 Torsion [N]-C--CA-[N] |==|  0.97646
USER: genes 14 Torsion [C]-CA--N-[C] |==|  0.26892
USER: genes 15 Torsion [N]-C--CA-[N] |==|  0.87002
USER: genes 16 Torsion [C]-CA--CB-[CG] |==|  0.12582
USER: genes 17 Torsion [CA]-CB--CG-[CD] |==|  0.20085
USER: genes 18 Torsion [CB]-CG--CD-[NE2] |==|  0.67474
ROOT
ATOM      1  CA  HIS G 812     -27.979  31.505  20.527  1.00 98.11 LIG 0.18  C 
ENDROOT
BRANCH 1 2
ATOM      2  CB  HIS G 812     -28.294  30.004  20.593  1.00 96.29 LIG 0.10  C 
BRANCH 2 3
ATOM      3  CG  HIS G 812     -28.546  29.340  19.268  1.00 94.00 LIG 0.06  A 
ATOM      4  CD2 HIS G 812     -29.602  28.638  18.813  1.00 93.71 LIG 0.14  A 
ATOM      5 NE2  HIS G 812     -29.237  28.080  17.605  1.00 93.19 LIG-0.25  NA
ATOM      6  CE1 HIS G 812     -27.997  28.448  17.333  1.00 92.78 LIG 0.23  A 
ATOM      7 ND1  HIS G 812     -27.557  29.211  18.313  1.00 93.58 LIG-0.24  NA
ENDBRANCH 2 3
ENDBRANCH 1 2
BRANCH 1 8
ATOM      8  C   HIS G 812     -28.509  32.112  21.823  1.00 99.25 LIG 0.24  C 
ATOM      9  N   GLY G 813     -29.782  31.895  22.127  1.00100.26 LIG-0.35  N 
ATOM     10 H    GLY G 813     -30.334  31.445  21.646  1.00100.26 LIG 0.16  HD
ATOM     11 O    HIS G 812     -27.752  32.753  22.555  1.00 99.52 LIG-0.27  OA
BRANCH 9 12
ATOM     12  CA  GLY G 813     -30.331  32.438  23.358  1.00101.48 LIG 0.23  C 
BRANCH 12 13
ATOM     13  C   GLY G 813     -31.411  33.479  23.120  1.00102.44 LIG 0.24  C 
ATOM     14 O    GLY G 813     -31.100  34.652  22.918  1.00102.98 LIG-0.27  OA
ATOM     15  N   GLU G 814     -32.677  33.062  23.134  1.00102.70 LIG-0.34  N 
ATOM     16 H    GLU G 814     -32.915  32.245  23.257  1.00102.70 LIG 0.16  HD
BRANCH 15 17
ATOM     17  CA  GLU G 814     -33.785  33.997  22.932  1.00102.89 LIG 0.19  C 
BRANCH 17 18
ATOM     18  CB  GLU G 814     -33.716  35.154  23.937  1.00101.97 LIG 0.05  C 
BRANCH 18 19
ATOM     19  CG  GLU G 814     -33.699  34.735  25.394  1.00100.63 LIG 0.12  C 
BRANCH 19 20
ATOM     20  CD  GLU G 814     -32.331  34.906  26.038  1.00100.36 LIG 0.17  C 
ATOM     21 OE1  GLU G 814     -31.942  34.039  26.851  1.00 99.71 LIG-0.65  OA
ATOM     22 OE2  GLU G 814     -31.642  35.901  25.730  1.00 99.42 LIG-0.65  OA
ENDBRANCH 19 20
ENDBRANCH 18 19
ENDBRANCH 17 18
BRANCH 17 23
ATOM     23  C   GLU G 814     -33.759  34.571  21.511  1.00103.78 LIG 0.20  C 
ATOM     24 OXT  GLU G 814     -33.608  35.805  21.363  1.00104.07 LIG-0.65  OA
ATOM     25 O    GLU G 814     -33.885  33.773  20.556  1.00104.32 LIG-0.65  OA
ENDBRANCH 17 23
ENDBRANCH 15 17
ENDBRANCH 12 13
ENDBRANCH 9 12
ENDBRANCH 1 8
BRANCH 1 26
ATOM     26  N   HIS G 812     -26.536  31.738  20.664  1.00 98.48 LIG-0.35  N 
ATOM     27  C   GLY G 811     -25.655  31.772  19.662  1.00 98.46 LIG 0.24  C 
ATOM     28 O    GLY G 811     -25.941  31.568  18.476  1.00 98.78 LIG-0.27  OA
ATOM     29 H    HIS G 812     -26.298  31.855  21.482  1.00 98.48 LIG 0.16  HD
BRANCH 27 30
ATOM     30  CA  GLY G 811     -24.227  32.077  20.084  1.00 98.06 LIG 0.23  C 
BRANCH 30 31
ATOM     31  N   GLY G 811     -24.026  32.476  21.466  1.00 97.66 LIG-0.35  N 
ATOM     32 H    GLY G 811     -24.166  33.309  21.627  1.00 97.66 LIG 0.16  HD
ATOM     33  C   GLN G 810     -23.654  31.582  22.380  1.00 97.43 LIG 0.26  C 
ATOM     34 O    GLN G 810     -23.442  30.399  22.110  1.00 97.76 LIG-0.27  OA
BRANCH 33 35
ATOM     35  CA  GLN G 810     -23.478  32.097  23.808  1.00 96.79 LIG 0.40  C 
ATOM     36  N   GLN G 810     -22.685  33.361  23.815  1.00 96.61 LIG 0.61  N 
BRANCH 35 37
ATOM     37  CB  GLN G 810     -24.857  32.334  24.420  1.00 96.38 LIG 0.06  C 
BRANCH 37 38
ATOM     38  CG  GLN G 810     -25.874  31.226  24.193  1.00 95.56 LIG 0.10  C 
BRANCH 38 39
ATOM     39  CD  GLN G 810     -25.565  29.994  25.016  1.00 95.11 LIG 0.21  C 
ATOM     40  NE2 GLN G 810     -25.290  28.888  24.334  1.00 94.31 LIG-0.37  N 
ATOM     41 21HE GLN G 810     -25.295  28.899  23.475  1.00 94.31 LIG 0.16  HD
ATOM     42 22HE GLN G 810     -25.106  28.159  24.754  1.00 94.31 LIG 0.16  HD
ATOM     43 OE1  GLN G 810     -25.572  30.034  26.247  1.00 94.65 LIG-0.27  OA
ENDBRANCH 38 39
ENDBRANCH 37 38
ENDBRANCH 35 37
ENDBRANCH 33 35
ENDBRANCH 30 31
ENDBRANCH 27 30
ENDBRANCH 1 26
TORSDOF 17
ENDMDL
MODEL 96
USER: ADFR SOLUTION from run 174
USER: SCORE 10.635343 LL:  -2.511 LR:  -9.620 RR:   0.000 FEB:  -4.549
USER: RMSD 8.702546
USER: SEED 173
USER: STATUS no improvement in best in 28 clusters for 5 generations
USER: GENES 19
USER: genes 0 Translation |==|  0.51122 0.40512 0.42493
USER: genes 1 Rotation |==|  0.58297 0.87674 0.59346 0.80405
USER: genes 2 Torsion [C]-CA--CB-[CG] |==|  0.43752
USER: genes 3 Torsion [CA]-CB--CG-[CD2] |==|  0.46477
USER: genes 4 Torsion [N]-CA--C-[N] |==|  0.30716
USER: genes 5 Torsion [C]-N--CA-[C] |==|  0.75743
USER: genes 6 Torsion [N]-CA--C-[N] |==|  0.46603
USER: genes 7 Torsion [C]-N--CA-[CB] |==|  0.44981
USER: genes 8 Torsion [N]-CA--CB-[CG] |==|  0.83759
USER: genes 9 Torsion [CA]-CB--CG-[CD] |==|  0.46296
USER: genes 10 Torsion [CB]-CG--CD-[OE2] |==|  0.32396
USER: genes 11 Torsion [N]-CA--C-[OXT] |==|  0.02497
USER: genes 12 Torsion [CB]-CA--N-[C] |==|  0.28333
USER: genes 13 Torsion [N]-C--CA-[N] |==|  0.94929
USER: genes 14 Torsion [C]-CA--N-[C] |==|  0.83106
USER: genes 15 Torsion [N]-C--CA-[N] |==|  0.71813
USER: genes 16 Torsion [C]-CA--CB-[CG] |==|  0.28939
USER: genes 17 Torsion [CA]-CB--CG-[CD] |==|  0.84521
USER: genes 18 Torsion [CB]-CG--CD-[NE2] |==|  0.72775
ROOT
ATOM      1  CA  HIS G 812     -25.825  31.994  19.875  1.00 98.11 LIG 0.18  C 
ENDROOT
BRANCH 1 2
ATOM      2  CB  HIS G 812     -26.150  30.822  18.938  1.00 96.29 LIG 0.10  C 
BRANCH 2 3
ATOM      3  CG  HIS G 812     -27.423  30.084  19.247  1.00 94.00 LIG 0.06  A 
ATOM      4  CD2 HIS G 812     -28.122  29.181  18.532  1.00 93.71 LIG 0.14  A 
ATOM      5 NE2  HIS G 812     -29.318  28.972  19.188  1.00 93.19 LIG-0.25  NA
ATOM      6  CE1 HIS G 812     -29.333  29.721  20.278  1.00 92.78 LIG 0.23  A 
ATOM      7 ND1  HIS G 812     -28.204  30.396  20.342  1.00 93.58 LIG-0.24  NA
ENDBRANCH 2 3
ENDBRANCH 1 2
BRANCH 1 8
ATOM      8  C   HIS G 812     -24.320  32.220  19.774  1.00 99.25 LIG 0.24  C 
ATOM      9  N   GLY G 813     -23.645  32.375  20.906  1.00100.26 LIG-0.35  N 
ATOM     10 H    GLY G 813     -23.992  32.367  21.692  1.00100.26 LIG 0.16  HD
ATOM     11 O    HIS G 812     -23.773  32.226  18.670  1.00 99.52 LIG-0.27  OA
BRANCH 9 12
ATOM     12  CA  GLY G 813     -22.207  32.578  20.865  1.00101.48 LIG 0.23  C 
BRANCH 12 13
ATOM     13  C   GLY G 813     -21.421  31.279  20.855  1.00102.44 LIG 0.24  C 
ATOM     14 O    GLY G 813     -21.990  30.216  21.099  1.00102.98 LIG-0.27  OA
ATOM     15  N   GLU G 814     -20.122  31.351  20.568  1.00102.70 LIG-0.34  N 
ATOM     16 H    GLU G 814     -19.709  32.081  20.380  1.00102.70 LIG 0.16  HD
BRANCH 15 17
ATOM     17  CA  GLU G 814     -19.282  30.152  20.553  1.00102.89 LIG 0.19  C 
BRANCH 17 18
ATOM     18  CB  GLU G 814     -17.979  30.406  19.782  1.00101.97 LIG 0.05  C 
BRANCH 18 19
ATOM     19  CG  GLU G 814     -18.164  30.837  18.340  1.00100.63 LIG 0.12  C 
BRANCH 19 20
ATOM     20  CD  GLU G 814     -16.885  31.383  17.722  1.00100.36 LIG 0.17  C 
ATOM     21 OE1  GLU G 814     -16.383  32.420  18.209  1.00 99.71 LIG-0.65  OA
ATOM     22 OE2  GLU G 814     -16.377  30.776  16.756  1.00 99.42 LIG-0.65  OA
ENDBRANCH 19 20
ENDBRANCH 18 19
ENDBRANCH 17 18
BRANCH 17 23
ATOM     23  C   GLU G 814     -18.937  29.713  21.980  1.00103.78 LIG 0.20  C 
ATOM     24 OXT  GLU G 814     -19.515  30.274  22.939  1.00104.07 LIG-0.65  OA
ATOM     25 O    GLU G 814     -18.090  28.803  22.124  1.00104.32 LIG-0.65  OA
ENDBRANCH 17 23
ENDBRANCH 15 17
ENDBRANCH 12 13
ENDBRANCH 9 12
ENDBRANCH 1 8
BRANCH 1 26
ATOM     26  N   HIS G 812     -26.347  33.253  19.329  1.00 98.48 LIG-0.35  N 
ATOM     27  C   GLY G 811     -27.458  33.875  19.732  1.00 98.46 LIG 0.24  C 
ATOM     28 O    GLY G 811     -28.222  33.441  20.602  1.00 98.78 LIG-0.27  OA
ATOM     29 H    HIS G 812     -25.853  33.569  18.700  1.00 98.48 LIG 0.16  HD
BRANCH 27 30
ATOM     30  CA  GLY G 811     -27.740  35.190  19.022  1.00 98.06 LIG 0.23  C 
BRANCH 30 31
ATOM     31  N   GLY G 811     -26.624  35.809  18.329  1.00 97.66 LIG-0.35  N 
ATOM     32 H    GLY G 811     -26.734  35.910  17.482  1.00 97.66 LIG 0.16  HD
ATOM     33  C   GLN G 810     -25.534  36.177  18.999  1.00 97.43 LIG 0.26  C 
ATOM     34 O    GLN G 810     -25.401  35.999  20.210  1.00 97.76 LIG-0.27  OA
BRANCH 33 35
ATOM     35  CA  GLN G 810     -24.417  36.829  18.184  1.00 96.79 LIG 0.40  C 
ATOM     36  N   GLN G 810     -23.328  35.847  17.908  1.00 96.61 LIG 0.61  N 
BRANCH 35 37
ATOM     37  CB  GLN G 810     -25.004  37.351  16.874  1.00 96.38 LIG 0.06  C 
BRANCH 37 38
ATOM     38  CG  GLN G 810     -25.210  38.856  16.801  1.00 95.56 LIG 0.10  C 
BRANCH 38 39
ATOM     39  CD  GLN G 810     -26.072  39.366  17.935  1.00 95.11 LIG 0.21  C 
ATOM     40  NE2 GLN G 810     -27.357  39.554  17.657  1.00 94.31 LIG-0.37  N 
ATOM     41 21HE GLN G 810     -27.655  39.389  16.867  1.00 94.31 LIG 0.16  HD
ATOM     42 22HE GLN G 810     -27.892  39.842  18.266  1.00 94.31 LIG 0.16  HD
ATOM     43 OE1  GLN G 810     -25.593  39.587  19.048  1.00 94.65 LIG-0.27  OA
ENDBRANCH 38 39
ENDBRANCH 37 38
ENDBRANCH 35 37
ENDBRANCH 33 35
ENDBRANCH 30 31
ENDBRANCH 27 30
ENDBRANCH 1 26
TORSDOF 17
ENDMDL
