MODEL 1
USER: ADFR SOLUTION from run 163
USER: SCORE 12.854600 LL:  -3.526 LR: -13.253 RR:   0.000 FEB:  -7.585
USER: RMSD 9.972331
USER: SEED 162
USER: STATUS no improvement in best in 3 clusters for 5 generations
USER: GENES 21
USER: genes 0 Translation |==|  0.51870 0.70396 0.29331
USER: genes 1 Rotation |==|  0.41798 0.21424 0.89272 0.58596
USER: genes 2 Torsion [C]-N--CA-[CB] |==|  0.26180
USER: genes 3 Torsion [N]-CA--C-[N] |==|  0.19500
USER: genes 4 Torsion [C]-N--CA-[C] |==|  0.61775
USER: genes 5 Torsion [N]-CA--CB-[SG] |==|  0.68093
USER: genes 6 Torsion [CA]-CB--SG-[HG] |==|  0.16653
USER: genes 7 Torsion [N]-CA--C-[N] |==|  0.00556
USER: genes 8 Torsion [C]-N--CA-[CB] |==|  0.37487
USER: genes 9 Torsion [N]-CA--C-[N] |==|  0.42365
USER: genes 10 Torsion [C]-N--CA-[CB] |==|  0.33968
USER: genes 11 Torsion [N]-CA--C-[O] |==|  0.19705
USER: genes 12 Torsion [N]-CA--CB-[CG2] |==|  0.77823
USER: genes 13 Torsion [O]-C--CA-[N] |==|  0.01658
USER: genes 14 Torsion [N]-C--CA-[N] |==|  0.42352
USER: genes 15 Torsion [C]-CA--N-[C] |==|  0.62176
USER: genes 16 Torsion [N]-C--CA-[N] |==|  0.48705
USER: genes 17 Torsion [C]-CA--CB-[OG] |==|  0.10617
USER: genes 18 Torsion [CA]-CB--OG-[HG] |==|  0.18156
USER: genes 19 Torsion [C]-CA--CB-[CG] |==|  0.44402
USER: genes 20 Torsion [CA]-CB--CG-[ND2] |==|  0.26070
ROOT
ATOM      1  C   PRO X1002      16.578  41.838  22.505  1.00 98.27 LIG 0.24  C 
ATOM      2 O    PRO X1002      17.421  42.074  21.650  1.00 97.40 LIG-0.27  OA
ATOM      3  N   ALA X1003      15.270  41.841  22.260  1.00 97.43 LIG-0.35  N 
ATOM      4 H    ALA X1003      14.689  41.476  22.779  1.00 97.43 LIG 0.16  HD
ENDROOT
BRANCH 3 5
ATOM      5  CA  ALA X1003      14.695  42.473  21.072  1.00 96.73 LIG 0.17  C 
ATOM      6  CB  ALA X1003      14.522  41.458  19.965  1.00 96.74 LIG 0.04  C 
BRANCH 5 7
ATOM      7  C   ALA X1003      13.349  43.037  21.526  1.00 95.66 LIG 0.24  C 
ATOM      8 O    ALA X1003      12.321  42.520  21.119  1.00 95.14 LIG-0.27  OA
ATOM      9  N   CYS X1004      13.295  44.079  22.347  1.00 94.40 LIG-0.34  N 
ATOM     10 H    CYS X1004      12.568  44.280  22.762  1.00 94.40 LIG 0.16  HD
BRANCH 9 11
ATOM     11  CA  CYS X1004      14.380  45.006  22.673  1.00 94.17 LIG 0.18  C 
BRANCH 11 12
ATOM     12  CB  CYS X1004      14.142  46.298  21.858  1.00 94.12 LIG 0.10  C 
BRANCH 12 13
ATOM     13 SG   CYS X1004      15.316  46.748  20.609  1.00 91.26 LIG-0.18  SA
ATOM     14 HG   CYS X1004      15.379  45.877  19.785  1.00 91.26 LIG 0.10  HD
ENDBRANCH 12 13
ENDBRANCH 11 12
BRANCH 11 15
ATOM     15  C   CYS X1004      14.436  45.349  24.174  1.00 93.84 LIG 0.24  C 
ATOM     16 O    CYS X1004      15.287  46.103  24.619  1.00 93.01 LIG-0.27  OA
ATOM     17  N   VAL X1005      13.549  44.745  24.949  1.00 93.78 LIG-0.35  N 
ATOM     18 H    VAL X1005      13.034  44.113  24.676  1.00 93.78 LIG 0.16  HD
BRANCH 17 19
ATOM     19  CA  VAL X1005      13.357  45.098  26.359  1.00 93.73 LIG 0.18  C 
BRANCH 19 20
ATOM     20  C   VAL X1005      14.062  44.118  27.306  1.00 93.48 LIG 0.24  C 
ATOM     21  N   ALA X1006      14.440  44.601  28.488  1.00 93.27 LIG-0.35  N 
ATOM     22 H    ALA X1006      14.313  45.417  28.727  1.00 93.27 LIG 0.16  HD
ATOM     23 O    VAL X1005      14.265  42.958  26.964  1.00 93.20 LIG-0.27  OA
BRANCH 21 24
ATOM     24  CA  ALA X1006      15.113  43.788  29.500  1.00 93.01 LIG 0.16  C 
ATOM     25  CB  ALA X1006      16.437  44.396  29.855  1.00 92.79 LIG 0.04  C 
BRANCH 24 26
ATOM     26  C   ALA X1006      14.251  43.644  30.744  1.00 92.71 LIG 0.22  C 
ATOM     27 O    ALA X1006      13.232  42.958  30.739  1.00 91.80 LIG-0.29  OA
ENDBRANCH 24 26
ENDBRANCH 21 24
ENDBRANCH 19 20
BRANCH 19 28
ATOM     28  CB  VAL X1005      11.832  45.199  26.660  1.00 93.65 LIG 0.01  C 
ATOM     29  CG2 VAL X1005      11.315  46.534  26.179  1.00 92.72 LIG 0.01  C 
ATOM     30  CG1 VAL X1005      11.513  44.961  28.127  1.00 92.97 LIG 0.01  C 
ENDBRANCH 19 28
ENDBRANCH 17 19
ENDBRANCH 11 15
ENDBRANCH 9 11
ENDBRANCH 5 7
ENDBRANCH 3 5
BRANCH 1 31
ATOM     31  CA  PRO X1002      16.993  41.457  23.928  1.00 99.31 LIG 0.18  C 
ATOM     32  N   PRO X1002      18.429  41.533  24.211  1.00 99.88 LIG-0.34  N 
ATOM     33  CD  PRO X1002      18.741  42.703  25.037  1.00 99.70 LIG 0.13  C 
ATOM     34  C   ASN X1001      19.231  40.550  23.767  1.00100.64 LIG 0.24  C 
ATOM     35  CG  PRO X1002      17.523  42.819  25.853  1.00 99.65 LIG 0.02  C 
ATOM     36  CB  PRO X1002      16.395  42.447  24.933  1.00 99.37 LIG 0.04  C 
ATOM     37 O    ASN X1001      18.787  39.584  23.158  1.00100.22 LIG-0.27  OA
BRANCH 34 38
ATOM     38  CA  ASN X1001      20.727  40.607  24.142  1.00101.23 LIG 0.18  C 
BRANCH 38 39
ATOM     39  N   ASN X1001      21.214  39.220  24.155  1.00101.62 LIG-0.34  N 
ATOM     40  C   SER X1000      22.005  38.794  25.142  1.00101.89 LIG 0.26  C 
ATOM     41 O    SER X1000      22.693  39.565  25.825  1.00101.60 LIG-0.27  OA
ATOM     42 H    ASN X1001      20.951  38.735  23.495  1.00101.62 LIG 0.16  HD
BRANCH 40 43
ATOM     43  CA  SER X1000      22.045  37.282  25.409  1.00101.91 LIG 0.42  C 
ATOM     44  N   SER X1000      23.041  36.927  26.454  1.00101.55 LIG 0.62  N 
BRANCH 43 45
ATOM     45  CB  SER X1000      20.666  36.743  25.785  1.00101.96 LIG 0.21  C 
BRANCH 45 46
ATOM     46 OG   SER X1000      19.630  37.360  25.041  1.00101.15 LIG-0.40  OA
ATOM     47 HG   SER X1000      19.709  37.158  24.230  1.00101.15 LIG 0.21  HD
ENDBRANCH 45 46
ENDBRANCH 43 45
ENDBRANCH 40 43
ENDBRANCH 38 39
BRANCH 38 48
ATOM     48  CB  ASN X1001      21.609  41.531  23.263  1.00101.08 LIG 0.14  C 
BRANCH 48 49
ATOM     49  CG  ASN X1001      22.934  41.954  23.913  1.00100.04 LIG 0.22  C 
ATOM     50  ND2 ASN X1001      24.004  41.226  23.648  1.00 98.76 LIG-0.37  N 
ATOM     51 21HD ASN X1001      24.769  41.458  23.963  1.00 98.76 LIG 0.16  HD
ATOM     52 22HD ASN X1001      23.935  40.521  23.160  1.00 98.76 LIG 0.16  HD
ATOM     53 OD1  ASN X1001      22.987  42.963  24.601  1.00 97.91 LIG-0.27  OA
ENDBRANCH 48 49
ENDBRANCH 38 48
ENDBRANCH 34 38
ENDBRANCH 1 31
TORSDOF 19
ENDMDL
MODEL 2
USER: ADFR SOLUTION from run 98
USER: SCORE 14.283606 LL:  -2.662 LR: -13.057 RR:   0.000 FEB:  -7.390
USER: RMSD 10.019753
USER: SEED 97
USER: STATUS 1 or 2 clusters left
USER: GENES 21
USER: genes 0 Translation |==|  0.60952 0.58694 0.36567
USER: genes 1 Rotation |==|  0.95693 0.38844 0.65169 0.57588
USER: genes 2 Torsion [C]-N--CA-[CB] |==|  0.52798
USER: genes 3 Torsion [N]-CA--C-[N] |==|  0.42578
USER: genes 4 Torsion [C]-N--CA-[C] |==|  0.71523
USER: genes 5 Torsion [N]-CA--CB-[SG] |==|  0.58643
USER: genes 6 Torsion [CA]-CB--SG-[HG] |==|  0.27834
USER: genes 7 Torsion [N]-CA--C-[N] |==|  0.48333
USER: genes 8 Torsion [C]-N--CA-[CB] |==|  0.51937
USER: genes 9 Torsion [N]-CA--C-[N] |==|  0.40605
USER: genes 10 Torsion [C]-N--CA-[CB] |==|  0.84695
USER: genes 11 Torsion [N]-CA--C-[O] |==|  0.94158
USER: genes 12 Torsion [N]-CA--CB-[CG2] |==|  0.34499
USER: genes 13 Torsion [O]-C--CA-[N] |==|  0.03390
USER: genes 14 Torsion [N]-C--CA-[N] |==|  0.16178
USER: genes 15 Torsion [C]-CA--N-[C] |==|  0.60751
USER: genes 16 Torsion [N]-C--CA-[N] |==|  0.59959
USER: genes 17 Torsion [C]-CA--CB-[OG] |==|  0.47803
USER: genes 18 Torsion [CA]-CB--OG-[HG] |==|  0.80451
USER: genes 19 Torsion [C]-CA--CB-[CG] |==|  0.34549
USER: genes 20 Torsion [CA]-CB--CG-[ND2] |==|  0.41756
ROOT
ATOM      1  C   PRO X1002      18.758  39.469  23.916  1.00 98.27 LIG 0.24  C 
ATOM      2 O    PRO X1002      17.592  39.418  24.287  1.00 97.40 LIG-0.27  OA
ATOM      3  N   ALA X1003      19.683  38.592  24.295  1.00 97.43 LIG-0.35  N 
ATOM      4 H    ALA X1003      20.433  38.486  23.887  1.00 97.43 LIG 0.16  HD
ENDROOT
BRANCH 3 5
ATOM      5  CA  ALA X1003      19.507  37.718  25.456  1.00 96.73 LIG 0.17  C 
ATOM      6  CB  ALA X1003      20.802  37.015  25.790  1.00 96.74 LIG 0.04  C 
BRANCH 5 7
ATOM      7  C   ALA X1003      19.066  38.641  26.593  1.00 95.66 LIG 0.24  C 
ATOM      8 O    ALA X1003      19.404  39.814  26.569  1.00 95.14 LIG-0.27  OA
ATOM      9  N   CYS X1004      18.332  38.175  27.597  1.00 94.40 LIG-0.34  N 
ATOM     10 H    CYS X1004      17.918  38.709  28.129  1.00 94.40 LIG 0.16  HD
BRANCH 9 11
ATOM     11  CA  CYS X1004      18.112  36.773  27.955  1.00 94.17 LIG 0.18  C 
BRANCH 11 12
ATOM     12  CB  CYS X1004      18.225  36.667  29.493  1.00 94.12 LIG 0.10  C 
BRANCH 12 13
ATOM     13 SG   CYS X1004      18.835  35.162  30.202  1.00 91.26 LIG-0.18  SA
ATOM     14 HG   CYS X1004      19.990  35.297  30.497  1.00 91.26 LIG 0.10  HD
ENDBRANCH 12 13
ENDBRANCH 11 12
BRANCH 11 15
ATOM     15  C   CYS X1004      16.732  36.257  27.505  1.00 93.84 LIG 0.24  C 
ATOM     16 O    CYS X1004      15.887  37.017  27.056  1.00 93.01 LIG-0.27  OA
ATOM     17  N   VAL X1005      16.500  34.965  27.680  1.00 93.78 LIG-0.35  N 
ATOM     18 H    VAL X1005      17.028  34.445  28.117  1.00 93.78 LIG 0.16  HD
BRANCH 17 19
ATOM     19  CA  VAL X1005      15.313  34.292  27.144  1.00 93.73 LIG 0.18  C 
BRANCH 19 20
ATOM     20  C   VAL X1005      14.020  35.057  27.455  1.00 93.48 LIG 0.24  C 
ATOM     21  N   ALA X1006      13.059  34.998  26.534  1.00 93.27 LIG-0.35  N 
ATOM     22 H    ALA X1006      13.139  34.566  25.795  1.00 93.27 LIG 0.16  HD
ATOM     23 O    VAL X1005      13.906  35.691  28.498  1.00 93.20 LIG-0.27  OA
BRANCH 21 24
ATOM     24  CA  ALA X1006      11.768  35.665  26.691  1.00 93.01 LIG 0.16  C 
ATOM     25  CB  ALA X1006      11.116  35.235  27.972  1.00 92.79 LIG 0.04  C 
BRANCH 24 26
ATOM     26  C   ALA X1006      11.928  37.177  26.667  1.00 92.71 LIG 0.22  C 
ATOM     27 O    ALA X1006      13.008  37.708  26.911  1.00 91.80 LIG-0.29  OA
ENDBRANCH 24 26
ENDBRANCH 21 24
ENDBRANCH 19 20
BRANCH 19 28
ATOM     28  CB  VAL X1005      15.266  32.831  27.681  1.00 93.65 LIG 0.01  C 
ATOM     29  CG2 VAL X1005      13.946  32.596  28.377  1.00 92.72 LIG 0.01  C 
ATOM     30  CG1 VAL X1005      16.448  32.504  28.579  1.00 92.97 LIG 0.01  C 
ENDBRANCH 19 28
ENDBRANCH 17 19
ENDBRANCH 11 15
ENDBRANCH 9 11
ENDBRANCH 5 7
ENDBRANCH 3 5
BRANCH 1 31
ATOM     31  CA  PRO X1002      19.215  40.537  22.919  1.00 99.31 LIG 0.18  C 
ATOM     32  N   PRO X1002      18.263  41.624  22.674  1.00 99.88 LIG-0.34  N 
ATOM     33  CD  PRO X1002      18.696  42.860  23.334  1.00 99.70 LIG 0.13  C 
ATOM     34  C   ASN X1001      17.210  41.397  21.871  1.00100.64 LIG 0.24  C 
ATOM     35  CG  PRO X1002      20.159  42.735  23.260  1.00 99.65 LIG 0.02  C 
ATOM     36  CB  PRO X1002      20.442  41.274  23.465  1.00 99.37 LIG 0.04  C 
ATOM     37 O    ASN X1001      17.043  40.315  21.321  1.00100.22 LIG-0.27  OA
BRANCH 34 38
ATOM     38  CA  ASN X1001      16.262  42.576  21.564  1.00101.23 LIG 0.18  C 
BRANCH 38 39
ATOM     39  N   ASN X1001      17.083  43.630  20.950  1.00101.62 LIG-0.34  N 
ATOM     40  C   SER X1000      16.864  44.913  21.247  1.00101.89 LIG 0.26  C 
ATOM     41 O    SER X1000      15.776  45.322  21.674  1.00101.60 LIG-0.27  OA
ATOM     42 H    ASN X1001      17.689  43.351  20.407  1.00101.62 LIG 0.16  HD
BRANCH 40 43
ATOM     43  CA  SER X1000      18.026  45.894  21.031  1.00101.91 LIG 0.42  C 
ATOM     44  N   SER X1000      18.057  46.958  22.069  1.00101.55 LIG 0.62  N 
BRANCH 43 45
ATOM     45  CB  SER X1000      19.368  45.168  20.973  1.00101.96 LIG 0.21  C 
BRANCH 45 46
ATOM     46 OG   SER X1000      20.427  46.032  20.597  1.00101.15 LIG-0.40  OA
ATOM     47 HG   SER X1000      20.345  46.240  19.787  1.00101.15 LIG 0.21  HD
ENDBRANCH 45 46
ENDBRANCH 43 45
ENDBRANCH 40 43
ENDBRANCH 38 39
BRANCH 38 48
ATOM     48  CB  ASN X1001      15.012  42.236  20.714  1.00101.08 LIG 0.14  C 
BRANCH 48 49
ATOM     49  CG  ASN X1001      13.676  42.623  21.361  1.00100.04 LIG 0.22  C 
ATOM     50  ND2 ASN X1001      12.675  42.935  20.558  1.00 98.76 LIG-0.37  N 
ATOM     51 21HD ASN X1001      11.902  43.119  20.885  1.00 98.76 LIG 0.16  HD
ATOM     52 22HD ASN X1001      12.797  42.955  19.706  1.00 98.76 LIG 0.16  HD
ATOM     53 OD1  ASN X1001      13.546  42.583  22.577  1.00 97.91 LIG-0.27  OA
ENDBRANCH 48 49
ENDBRANCH 38 48
ENDBRANCH 34 38
ENDBRANCH 1 31
TORSDOF 19
ENDMDL
MODEL 3
USER: ADFR SOLUTION from run 139
USER: SCORE 13.527263 LL:  -2.537 LR: -12.930 RR:   0.000 FEB:  -7.262
USER: RMSD 9.771942
USER: SEED 138
USER: STATUS no improvement in best in 7 clusters for 5 generations
USER: GENES 21
USER: genes 0 Translation |==|  0.58355 0.64037 0.35568
USER: genes 1 Rotation |==|  0.34556 0.33797 0.07791 0.64744
USER: genes 2 Torsion [C]-N--CA-[CB] |==|  0.17727
USER: genes 3 Torsion [N]-CA--C-[N] |==|  0.45049
USER: genes 4 Torsion [C]-N--CA-[C] |==|  0.60151
USER: genes 5 Torsion [N]-CA--CB-[SG] |==|  0.08171
USER: genes 6 Torsion [CA]-CB--SG-[HG] |==|  0.26126
USER: genes 7 Torsion [N]-CA--C-[N] |==|  0.37222
USER: genes 8 Torsion [C]-N--CA-[CB] |==|  0.81650
USER: genes 9 Torsion [N]-CA--C-[N] |==|  0.41461
USER: genes 10 Torsion [C]-N--CA-[CB] |==|  0.81169
USER: genes 11 Torsion [N]-CA--C-[O] |==|  0.62426
USER: genes 12 Torsion [N]-CA--CB-[CG2] |==|  0.82357
USER: genes 13 Torsion [O]-C--CA-[N] |==|  0.27954
USER: genes 14 Torsion [N]-C--CA-[N] |==|  0.15449
USER: genes 15 Torsion [C]-CA--N-[C] |==|  0.65829
USER: genes 16 Torsion [N]-C--CA-[N] |==|  0.59067
USER: genes 17 Torsion [C]-CA--CB-[OG] |==|  0.21234
USER: genes 18 Torsion [CA]-CB--OG-[HG] |==|  0.96868
USER: genes 19 Torsion [C]-CA--CB-[CG] |==|  0.55014
USER: genes 20 Torsion [CA]-CB--CG-[ND2] |==|  0.89182
ROOT
ATOM      1  C   PRO X1002      18.134  40.551  23.721  1.00 98.27 LIG 0.24  C 
ATOM      2 O    PRO X1002      18.706  39.701  23.051  1.00 97.40 LIG-0.27  OA
ATOM      3  N   ALA X1003      17.796  40.370  24.995  1.00 97.43 LIG-0.35  N 
ATOM      4 H    ALA X1003      17.595  41.014  25.529  1.00 97.43 LIG 0.16  HD
ENDROOT
BRANCH 3 5
ATOM      5  CA  ALA X1003      17.736  39.043  25.610  1.00 96.73 LIG 0.17  C 
ATOM      6  CB  ALA X1003      19.106  38.407  25.628  1.00 96.74 LIG 0.04  C 
BRANCH 5 7
ATOM      7  C   ALA X1003      17.213  39.280  27.027  1.00 95.66 LIG 0.24  C 
ATOM      8 O    ALA X1003      17.272  40.403  27.502  1.00 95.14 LIG-0.27  OA
ATOM      9  N   CYS X1004      16.709  38.278  27.738  1.00 94.40 LIG-0.34  N 
ATOM     10 H    CYS X1004      16.239  38.426  28.443  1.00 94.40 LIG 0.16  HD
BRANCH 9 11
ATOM     11  CA  CYS X1004      16.849  36.845  27.471  1.00 94.17 LIG 0.18  C 
BRANCH 11 12
ATOM     12  CB  CYS X1004      18.027  36.330  28.330  1.00 94.12 LIG 0.10  C 
BRANCH 12 13
ATOM     13 SG   CYS X1004      18.380  37.138  29.867  1.00 91.26 LIG-0.18  SA
ATOM     14 HG   CYS X1004      17.822  36.562  30.760  1.00 91.26 LIG 0.10  HD
ENDBRANCH 12 13
ENDBRANCH 11 12
BRANCH 11 15
ATOM     15  C   CYS X1004      15.575  36.051  27.816  1.00 93.84 LIG 0.24  C 
ATOM     16 O    CYS X1004      15.008  36.200  28.888  1.00 93.01 LIG-0.27  OA
ATOM     17  N   VAL X1005      15.168  35.170  26.915  1.00 93.78 LIG-0.35  N 
ATOM     18 H    VAL X1005      15.628  34.956  26.221  1.00 93.78 LIG 0.16  HD
BRANCH 17 19
ATOM     19  CA  VAL X1005      13.883  34.470  27.015  1.00 93.73 LIG 0.18  C 
BRANCH 19 20
ATOM     20  C   VAL X1005      12.694  35.439  27.057  1.00 93.48 LIG 0.24  C 
ATOM     21  N   ALA X1006      11.553  35.002  26.529  1.00 93.27 LIG-0.35  N 
ATOM     22 H    ALA X1006      11.464  34.224  26.173  1.00 93.27 LIG 0.16  HD
ATOM     23 O    VAL X1005      12.818  36.557  27.546  1.00 93.20 LIG-0.27  OA
BRANCH 21 24
ATOM     24  CA  ALA X1006      10.331  35.804  26.505  1.00 93.01 LIG 0.16  C 
ATOM     25  CB  ALA X1006       9.808  35.993  27.898  1.00 92.79 LIG 0.04  C 
BRANCH 24 26
ATOM     26  C   ALA X1006      10.578  37.154  25.849  1.00 92.71 LIG 0.22  C 
ATOM     27 O    ALA X1006      10.143  38.191  26.342  1.00 91.80 LIG-0.29  OA
ENDBRANCH 24 26
ENDBRANCH 21 24
ENDBRANCH 19 20
BRANCH 19 28
ATOM     28  CB  VAL X1005      13.908  33.528  28.255  1.00 93.65 LIG 0.01  C 
ATOM     29  CG2 VAL X1005      14.967  32.469  28.058  1.00 92.72 LIG 0.01  C 
ATOM     30  CG1 VAL X1005      12.545  32.921  28.549  1.00 92.97 LIG 0.01  C 
ENDBRANCH 19 28
ENDBRANCH 17 19
ENDBRANCH 11 15
ENDBRANCH 9 11
ENDBRANCH 5 7
ENDBRANCH 3 5
BRANCH 1 31
ATOM     31  CA  PRO X1002      17.820  41.929  23.133  1.00 99.31 LIG 0.18  C 
ATOM     32  N   PRO X1002      16.441  42.125  22.680  1.00 99.88 LIG-0.34  N 
ATOM     33  CD  PRO X1002      15.697  42.978  23.612  1.00 99.70 LIG 0.13  C 
ATOM     34  C   ASN X1001      16.060  41.593  21.506  1.00100.64 LIG 0.24  C 
ATOM     35  CG  PRO X1002      16.758  43.871  24.101  1.00 99.65 LIG 0.02  C 
ATOM     36  CB  PRO X1002      17.983  43.008  24.208  1.00 99.37 LIG 0.04  C 
ATOM     37 O    ASN X1001      16.845  40.973  20.797  1.00100.22 LIG-0.27  OA
BRANCH 34 38
ATOM     38  CA  ASN X1001      14.627  41.876  21.009  1.00101.23 LIG 0.18  C 
BRANCH 38 39
ATOM     39  N   ASN X1001      14.473  43.338  20.971  1.00101.62 LIG-0.34  N 
ATOM     40  C   SER X1000      13.495  43.930  21.660  1.00101.89 LIG 0.26  C 
ATOM     41 O    SER X1000      12.463  43.334  21.999  1.00101.60 LIG-0.27  OA
ATOM     42 H    ASN X1001      15.048  43.752  20.484  1.00101.62 LIG 0.16  HD
BRANCH 40 43
ATOM     43  CA  SER X1000      13.686  45.410  22.023  1.00101.91 LIG 0.42  C 
ATOM     44  N   SER X1000      13.053  45.751  23.324  1.00101.55 LIG 0.62  N 
BRANCH 43 45
ATOM     45  CB  SER X1000      15.163  45.798  22.033  1.00101.96 LIG 0.21  C 
BRANCH 45 46
ATOM     46 OG   SER X1000      15.683  45.958  20.724  1.00101.15 LIG-0.40  OA
ATOM     47 HG   SER X1000      15.130  45.663  20.165  1.00101.15 LIG 0.21  HD
ENDBRANCH 45 46
ENDBRANCH 43 45
ENDBRANCH 40 43
ENDBRANCH 38 39
BRANCH 38 48
ATOM     48  CB  ASN X1001      14.231  41.209  19.668  1.00101.08 LIG 0.14  C 
BRANCH 48 49
ATOM     49  CG  ASN X1001      13.006  41.829  18.984  1.00100.04 LIG 0.22  C 
ATOM     50  ND2 ASN X1001      12.002  42.208  19.754  1.00 98.76 LIG-0.37  N 
ATOM     51 21HD ASN X1001      11.317  42.595  19.408  1.00 98.76 LIG 0.16  HD
ATOM     52 22HD ASN X1001      12.034  42.068  20.603  1.00 98.76 LIG 0.16  HD
ATOM     53 OD1  ASN X1001      13.001  42.009  17.774  1.00 97.91 LIG-0.27  OA
ENDBRANCH 48 49
ENDBRANCH 38 48
ENDBRANCH 34 38
ENDBRANCH 1 31
TORSDOF 19
ENDMDL
MODEL 4
USER: ADFR SOLUTION from run 55
USER: SCORE 14.946670 LL:  -3.783 LR: -12.726 RR:   0.000 FEB:  -7.058
USER: RMSD 8.655278
USER: SEED 54
USER: STATUS no improvement in best in 2 clusters for 5 generations
USER: GENES 21
USER: genes 0 Translation |==|  0.56970 0.65812 0.38060
USER: genes 1 Rotation |==|  0.16814 0.41093 0.18892 0.68752
USER: genes 2 Torsion [C]-N--CA-[CB] |==|  0.82551
USER: genes 3 Torsion [N]-CA--C-[N] |==|  0.21088
USER: genes 4 Torsion [C]-N--CA-[C] |==|  0.73607
USER: genes 5 Torsion [N]-CA--CB-[SG] |==|  0.80344
USER: genes 6 Torsion [CA]-CB--SG-[HG] |==|  0.60084
USER: genes 7 Torsion [N]-CA--C-[N] |==|  0.28357
USER: genes 8 Torsion [C]-N--CA-[CB] |==|  0.72311
USER: genes 9 Torsion [N]-CA--C-[N] |==|  0.18807
USER: genes 10 Torsion [C]-N--CA-[CB] |==|  0.34864
USER: genes 11 Torsion [N]-CA--C-[O] |==|  0.35142
USER: genes 12 Torsion [N]-CA--CB-[CG2] |==|  0.15098
USER: genes 13 Torsion [O]-C--CA-[N] |==|  0.09014
USER: genes 14 Torsion [N]-C--CA-[N] |==|  0.21669
USER: genes 15 Torsion [C]-CA--N-[C] |==|  0.66562
USER: genes 16 Torsion [N]-C--CA-[N] |==|  0.62309
USER: genes 17 Torsion [C]-CA--CB-[OG] |==|  0.21977
USER: genes 18 Torsion [CA]-CB--OG-[HG] |==|  0.74216
USER: genes 19 Torsion [C]-CA--CB-[CG] |==|  0.53970
USER: genes 20 Torsion [CA]-CB--CG-[ND2] |==|  0.91616
ROOT
ATOM      1  C   PRO X1002      17.802  40.910  24.207  1.00 98.27 LIG 0.24  C 
ATOM      2 O    PRO X1002      17.607  40.002  23.409  1.00 97.40 LIG-0.27  OA
ATOM      3  N   ALA X1003      18.592  40.791  25.270  1.00 97.43 LIG-0.35  N 
ATOM      4 H    ALA X1003      18.903  41.462  25.709  1.00 97.43 LIG 0.16  HD
ENDROOT
BRANCH 3 5
ATOM      5  CA  ALA X1003      19.008  39.489  25.796  1.00 96.73 LIG 0.17  C 
ATOM      6  CB  ALA X1003      17.808  38.703  26.271  1.00 96.74 LIG 0.04  C 
BRANCH 5 7
ATOM      7  C   ALA X1003      19.707  38.788  24.631  1.00 95.66 LIG 0.24  C 
ATOM      8 O    ALA X1003      19.122  37.896  24.038  1.00 95.14 LIG-0.27  OA
ATOM      9  N   CYS X1004      20.937  39.138  24.272  1.00 94.40 LIG-0.34  N 
ATOM     10 H    CYS X1004      21.262  38.898  23.512  1.00 94.40 LIG 0.16  HD
BRANCH 9 11
ATOM     11  CA  CYS X1004      21.892  39.934  25.044  1.00 94.17 LIG 0.18  C 
BRANCH 11 12
ATOM     12  CB  CYS X1004      23.302  39.369  24.757  1.00 94.12 LIG 0.10  C 
BRANCH 12 13
ATOM     13 SG   CYS X1004      23.736  37.781  25.413  1.00 91.26 LIG-0.18  SA
ATOM     14 HG   CYS X1004      24.891  37.784  25.738  1.00 91.26 LIG 0.10  HD
ENDBRANCH 12 13
ENDBRANCH 11 12
BRANCH 11 15
ATOM     15  C   CYS X1004      21.853  41.429  24.675  1.00 93.84 LIG 0.24  C 
ATOM     16 O    CYS X1004      22.429  41.851  23.684  1.00 93.01 LIG-0.27  OA
ATOM     17  N   VAL X1005      21.208  42.226  25.513  1.00 93.78 LIG-0.35  N 
ATOM     18 H    VAL X1005      20.915  41.969  26.279  1.00 93.78 LIG 0.16  HD
BRANCH 17 19
ATOM     19  CA  VAL X1005      20.930  43.634  25.212  1.00 93.73 LIG 0.18  C 
BRANCH 19 20
ATOM     20  C   VAL X1005      20.885  43.910  23.704  1.00 93.48 LIG 0.24  C 
ATOM     21  N   ALA X1006      19.874  43.365  23.030  1.00 93.27 LIG-0.35  N 
ATOM     22 H    ALA X1006      19.270  42.876  23.398  1.00 93.27 LIG 0.16  HD
ATOM     23 O    VAL X1005      21.754  44.589  23.169  1.00 93.20 LIG-0.27  OA
BRANCH 21 24
ATOM     24  CA  ALA X1006      19.690  43.546  21.591  1.00 93.01 LIG 0.16  C 
ATOM     25  CB  ALA X1006      19.587  42.213  20.911  1.00 92.79 LIG 0.04  C 
BRANCH 24 26
ATOM     26  C   ALA X1006      18.453  44.381  21.299  1.00 92.71 LIG 0.22  C 
ATOM     27 O    ALA X1006      18.512  45.383  20.593  1.00 91.80 LIG-0.29  OA
ENDBRANCH 24 26
ENDBRANCH 21 24
ENDBRANCH 19 20
BRANCH 19 28
ATOM     28  CB  VAL X1005      21.980  44.530  25.935  1.00 93.65 LIG 0.01  C 
ATOM     29  CG2 VAL X1005      23.370  44.078  25.553  1.00 92.72 LIG 0.01  C 
ATOM     30  CG1 VAL X1005      21.784  44.552  27.442  1.00 92.97 LIG 0.01  C 
ENDBRANCH 19 28
ENDBRANCH 17 19
ENDBRANCH 11 15
ENDBRANCH 9 11
ENDBRANCH 5 7
ENDBRANCH 3 5
BRANCH 1 31
ATOM     31  CA  PRO X1002      17.178  42.291  23.987  1.00 99.31 LIG 0.18  C 
ATOM     32  N   PRO X1002      15.871  42.297  23.324  1.00 99.88 LIG-0.34  N 
ATOM     33  CD  PRO X1002      14.798  42.587  24.280  1.00 99.70 LIG 0.13  C 
ATOM     34  C   ASN X1001      15.817  42.116  21.993  1.00100.64 LIG 0.24  C 
ATOM     35  CG  PRO X1002      15.479  43.487  25.222  1.00 99.65 LIG 0.02  C 
ATOM     36  CB  PRO X1002      16.879  42.952  25.336  1.00 99.37 LIG 0.04  C 
ATOM     37 O    ASN X1001      16.833  41.974  21.323  1.00100.22 LIG-0.27  OA
BRANCH 34 38
ATOM     38  CA  ASN X1001      14.439  42.203  21.303  1.00101.23 LIG 0.18  C 
BRANCH 38 39
ATOM     39  N   ASN X1001      14.117  43.633  21.181  1.00101.62 LIG-0.34  N 
ATOM     40  C   SER X1000      13.018  44.126  21.756  1.00101.89 LIG 0.26  C 
ATOM     41 O    SER X1000      12.038  43.422  22.035  1.00101.60 LIG-0.27  OA
ATOM     42 H    ASN X1001      14.680  44.096  20.725  1.00101.62 LIG 0.16  HD
BRANCH 40 43
ATOM     43  CA  SER X1000      12.998  45.631  22.061  1.00101.91 LIG 0.42  C 
ATOM     44  N   SER X1000      12.461  45.917  23.418  1.00101.55 LIG 0.62  N 
BRANCH 43 45
ATOM     45  CB  SER X1000      14.382  46.254  21.895  1.00101.96 LIG 0.21  C 
BRANCH 45 46
ATOM     46 OG   SER X1000      14.699  46.499  20.535  1.00101.15 LIG-0.40  OA
ATOM     47 HG   SER X1000      15.114  45.840  20.221  1.00101.15 LIG 0.21  HD
ENDBRANCH 45 46
ENDBRANCH 43 45
ENDBRANCH 40 43
ENDBRANCH 38 39
BRANCH 38 48
ATOM     48  CB  ASN X1001      14.311  41.455  19.952  1.00101.08 LIG 0.14  C 
BRANCH 48 49
ATOM     49  CG  ASN X1001      13.072  41.833  19.129  1.00100.04 LIG 0.22  C 
ATOM     50  ND2 ASN X1001      11.991  42.208  19.788  1.00 98.76 LIG-0.37  N 
ATOM     51 21HD ASN X1001      11.292  42.464  19.358  1.00 98.76 LIG 0.16  HD
ATOM     52 22HD ASN X1001      11.986  42.196  20.649  1.00 98.76 LIG 0.16  HD
ATOM     53 OD1  ASN X1001      13.123  41.835  17.907  1.00 97.91 LIG-0.27  OA
ENDBRANCH 48 49
ENDBRANCH 38 48
ENDBRANCH 34 38
ENDBRANCH 1 31
TORSDOF 19
ENDMDL
MODEL 5
USER: ADFR SOLUTION from run 190
USER: SCORE 15.529657 LL:  -3.571 LR: -12.725 RR:   0.000 FEB:  -7.057
USER: RMSD 10.094756
USER: SEED 189
USER: STATUS no improvement in best in 3 clusters for 5 generations
USER: GENES 21
USER: genes 0 Translation |==|  0.52869 0.70609 0.26659
USER: genes 1 Rotation |==|  0.40636 0.39083 0.94552 0.67559
USER: genes 2 Torsion [C]-N--CA-[CB] |==|  0.14565
USER: genes 3 Torsion [N]-CA--C-[N] |==|  0.12747
USER: genes 4 Torsion [C]-N--CA-[C] |==|  0.69767
USER: genes 5 Torsion [N]-CA--CB-[SG] |==|  0.08832
USER: genes 6 Torsion [CA]-CB--SG-[HG] |==|  0.03883
USER: genes 7 Torsion [N]-CA--C-[N] |==|  0.00327
USER: genes 8 Torsion [C]-N--CA-[CB] |==|  0.83889
USER: genes 9 Torsion [N]-CA--C-[N] |==|  0.36844
USER: genes 10 Torsion [C]-N--CA-[CB] |==|  0.27397
USER: genes 11 Torsion [N]-CA--C-[O] |==|  0.94327
USER: genes 12 Torsion [N]-CA--CB-[CG2] |==|  0.70977
USER: genes 13 Torsion [O]-C--CA-[N] |==|  0.94486
USER: genes 14 Torsion [N]-C--CA-[N] |==|  0.13659
USER: genes 15 Torsion [C]-CA--N-[C] |==|  0.61168
USER: genes 16 Torsion [N]-C--CA-[N] |==|  0.31817
USER: genes 17 Torsion [C]-CA--CB-[OG] |==|  0.96066
USER: genes 18 Torsion [CA]-CB--OG-[HG] |==|  0.69928
USER: genes 19 Torsion [C]-CA--CB-[CG] |==|  0.60786
USER: genes 20 Torsion [CA]-CB--CG-[ND2] |==|  0.78632
ROOT
ATOM      1  C   PRO X1002      16.817  41.881  21.984  1.00 98.27 LIG 0.24  C 
ATOM      2 O    PRO X1002      17.256  41.233  21.042  1.00 97.40 LIG-0.27  OA
ATOM      3  N   ALA X1003      15.576  42.356  22.028  1.00 97.43 LIG-0.35  N 
ATOM      4 H    ALA X1003      15.193  42.619  22.753  1.00 97.43 LIG 0.16  HD
ENDROOT
BRANCH 3 5
ATOM      5  CA  ALA X1003      14.737  42.474  20.834  1.00 96.73 LIG 0.17  C 
ATOM      6  CB  ALA X1003      14.685  41.158  20.092  1.00 96.74 LIG 0.04  C 
BRANCH 5 7
ATOM      7  C   ALA X1003      13.356  42.877  21.350  1.00 95.66 LIG 0.24  C 
ATOM      8 O    ALA X1003      12.369  42.309  20.910  1.00 95.14 LIG-0.27  OA
ATOM      9  N   CYS X1004      13.227  43.838  22.258  1.00 94.40 LIG-0.34  N 
ATOM     10 H    CYS X1004      12.493  43.939  22.695  1.00 94.40 LIG 0.16  HD
BRANCH 9 11
ATOM     11  CA  CYS X1004      14.234  44.825  22.650  1.00 94.17 LIG 0.18  C 
BRANCH 11 12
ATOM     12  CB  CYS X1004      13.556  46.214  22.611  1.00 94.12 LIG 0.10  C 
BRANCH 12 13
ATOM     13 SG   CYS X1004      11.829  46.333  22.992  1.00 91.26 LIG-0.18  SA
ATOM     14 HG   CYS X1004      11.461  45.312  23.503  1.00 91.26 LIG 0.10  HD
ENDBRANCH 12 13
ENDBRANCH 11 12
BRANCH 11 15
ATOM     15  C   CYS X1004      14.798  44.569  24.060  1.00 93.84 LIG 0.24  C 
ATOM     16 O    CYS X1004      15.666  45.285  24.535  1.00 93.01 LIG-0.27  OA
ATOM     17  N   VAL X1005      14.328  43.507  24.698  1.00 93.78 LIG-0.35  N 
ATOM     18 H    VAL X1005      13.821  42.919  24.328  1.00 93.78 LIG 0.16  HD
BRANCH 17 19
ATOM     19  CA  VAL X1005      14.629  43.231  26.106  1.00 93.73 LIG 0.18  C 
BRANCH 19 20
ATOM     20  C   VAL X1005      14.008  44.270  27.049  1.00 93.48 LIG 0.24  C 
ATOM     21  N   ALA X1006      13.354  43.795  28.108  1.00 93.27 LIG-0.35  N 
ATOM     22 H    ALA X1006      13.267  42.956  28.272  1.00 93.27 LIG 0.16  HD
ATOM     23 O    VAL X1005      14.111  45.468  26.811  1.00 93.20 LIG-0.27  OA
BRANCH 21 24
ATOM     24  CA  ALA X1006      12.719  44.659  29.101  1.00 93.01 LIG 0.16  C 
ATOM     25  CB  ALA X1006      11.249  44.774  28.822  1.00 92.79 LIG 0.04  C 
BRANCH 24 26
ATOM     26  C   ALA X1006      12.945  44.131  30.509  1.00 92.71 LIG 0.22  C 
ATOM     27 O    ALA X1006      13.248  42.958  30.709  1.00 91.80 LIG-0.29  OA
ENDBRANCH 24 26
ENDBRANCH 21 24
ENDBRANCH 19 20
BRANCH 19 28
ATOM     28  CB  VAL X1005      16.172  43.131  26.290  1.00 93.65 LIG 0.01  C 
ATOM     29  CG2 VAL X1005      16.566  41.680  26.443  1.00 92.72 LIG 0.01  C 
ATOM     30  CG1 VAL X1005      16.675  43.981  27.447  1.00 92.97 LIG 0.01  C 
ENDBRANCH 19 28
ENDBRANCH 17 19
ENDBRANCH 11 15
ENDBRANCH 9 11
ENDBRANCH 5 7
ENDBRANCH 3 5
BRANCH 1 31
ATOM     31  CA  PRO X1002      17.678  42.138  23.223  1.00 99.31 LIG 0.18  C 
ATOM     32  N   PRO X1002      18.811  41.227  23.409  1.00 99.88 LIG-0.34  N 
ATOM     33  CD  PRO X1002      20.078  41.890  23.085  1.00 99.70 LIG 0.13  C 
ATOM     34  C   ASN X1001      18.579  39.992  23.887  1.00100.64 LIG 0.24  C 
ATOM     35  CG  PRO X1002      19.794  43.275  23.487  1.00 99.65 LIG 0.02  C 
ATOM     36  CB  PRO X1002      18.357  43.508  23.117  1.00 99.37 LIG 0.04  C 
ATOM     37 O    ASN X1001      17.452  39.624  24.195  1.00100.22 LIG-0.27  OA
BRANCH 34 38
ATOM     38  CA  ASN X1001      19.792  39.074  24.148  1.00101.23 LIG 0.18  C 
BRANCH 38 39
ATOM     39  N   ASN X1001      20.758  39.862  24.927  1.00101.62 LIG-0.34  N 
ATOM     40  C   SER X1000      22.065  39.771  24.669  1.00101.89 LIG 0.26  C 
ATOM     41 O    SER X1000      22.567  38.785  24.112  1.00101.60 LIG-0.27  OA
ATOM     42 H    ASN X1001      20.415  40.363  25.537  1.00101.62 LIG 0.16  HD
BRANCH 40 43
ATOM     43  CA  SER X1000      22.952  40.949  25.100  1.00101.91 LIG 0.42  C 
ATOM     44  N   SER X1000      23.916  40.560  26.163  1.00101.55 LIG 0.62  N 
BRANCH 43 45
ATOM     45  CB  SER X1000      23.690  41.559  23.910  1.00101.96 LIG 0.21  C 
BRANCH 45 46
ATOM     46 OG   SER X1000      23.645  40.722  22.767  1.00101.15 LIG-0.40  OA
ATOM     47 HG   SER X1000      24.404  40.387  22.635  1.00101.15 LIG 0.21  HD
ENDBRANCH 45 46
ENDBRANCH 43 45
ENDBRANCH 40 43
ENDBRANCH 38 39
BRANCH 38 48
ATOM     48  CB  ASN X1001      19.477  37.709  24.811  1.00101.08 LIG 0.14  C 
BRANCH 48 49
ATOM     49  CG  ASN X1001      20.506  37.254  25.854  1.00100.04 LIG 0.22  C 
ATOM     50  ND2 ASN X1001      21.648  36.760  25.410  1.00 98.76 LIG-0.37  N 
ATOM     51 21HD ASN X1001      22.263  36.532  25.966  1.00 98.76 LIG 0.16  HD
ATOM     52 22HD ASN X1001      21.777  36.667  24.564  1.00 98.76 LIG 0.16  HD
ATOM     53 OD1  ASN X1001      20.282  37.403  27.046  1.00 97.91 LIG-0.27  OA
ENDBRANCH 48 49
ENDBRANCH 38 48
ENDBRANCH 34 38
ENDBRANCH 1 31
TORSDOF 19
ENDMDL
MODEL 6
USER: ADFR SOLUTION from run 153
USER: SCORE 13.519237 LL:  -3.228 LR: -12.654 RR:   0.000 FEB:  -6.987
USER: RMSD 9.793070
USER: SEED 152
USER: STATUS no improvement in best in 7 clusters for 5 generations
USER: GENES 21
USER: genes 0 Translation |==|  0.69488 0.52877 0.46625
USER: genes 1 Rotation |==|  0.59183 0.95818 0.48182 0.67693
USER: genes 2 Torsion [C]-N--CA-[CB] |==|  0.33215
USER: genes 3 Torsion [N]-CA--C-[N] |==|  0.28164
USER: genes 4 Torsion [C]-N--CA-[C] |==|  0.66795
USER: genes 5 Torsion [N]-CA--CB-[SG] |==|  0.97603
USER: genes 6 Torsion [CA]-CB--SG-[HG] |==|  0.14470
USER: genes 7 Torsion [N]-CA--C-[N] |==|  0.05913
USER: genes 8 Torsion [C]-N--CA-[CB] |==|  0.82194
USER: genes 9 Torsion [N]-CA--C-[N] |==|  0.36667
USER: genes 10 Torsion [C]-N--CA-[CB] |==|  0.78763
USER: genes 11 Torsion [N]-CA--C-[O] |==|  0.75808
USER: genes 12 Torsion [N]-CA--CB-[CG2] |==|  0.65097
USER: genes 13 Torsion [O]-C--CA-[N] |==|  0.83687
USER: genes 14 Torsion [N]-C--CA-[N] |==|  0.82811
USER: genes 15 Torsion [C]-CA--N-[C] |==|  0.65181
USER: genes 16 Torsion [N]-C--CA-[N] |==|  0.55831
USER: genes 17 Torsion [C]-CA--CB-[OG] |==|  0.29365
USER: genes 18 Torsion [CA]-CB--OG-[HG] |==|  0.87445
USER: genes 19 Torsion [C]-CA--CB-[CG] |==|  0.45026
USER: genes 20 Torsion [CA]-CB--CG-[ND2] |==|  0.71400
ROOT
ATOM      1  C   PRO X1002      20.806  38.291  25.877  1.00 98.27 LIG 0.24  C 
ATOM      2 O    PRO X1002      20.924  38.902  26.930  1.00 97.40 LIG-0.27  OA
ATOM      3  N   ALA X1003      20.457  38.870  24.732  1.00 97.43 LIG-0.35  N 
ATOM      4 H    ALA X1003      20.576  38.508  23.960  1.00 97.43 LIG 0.16  HD
ENDROOT
BRANCH 3 5
ATOM      5  CA  ALA X1003      19.832  40.193  24.680  1.00 96.73 LIG 0.17  C 
ATOM      6  CB  ALA X1003      20.691  41.153  23.890  1.00 96.74 LIG 0.04  C 
BRANCH 5 7
ATOM      7  C   ALA X1003      18.478  39.972  24.004  1.00 95.66 LIG 0.24  C 
ATOM      8 O    ALA X1003      18.433  39.859  22.789  1.00 95.14 LIG-0.27  OA
ATOM      9  N   CYS X1004      17.365  39.912  24.725  1.00 94.40 LIG-0.34  N 
ATOM     10 H    CYS X1004      16.637  39.598  24.391  1.00 94.40 LIG 0.16  HD
BRANCH 9 11
ATOM     11  CA  CYS X1004      17.186  40.337  26.114  1.00 94.17 LIG 0.18  C 
BRANCH 11 12
ATOM     12  CB  CYS X1004      16.100  41.438  26.123  1.00 94.12 LIG 0.10  C 
BRANCH 12 13
ATOM     13 SG   CYS X1004      15.526  42.082  24.575  1.00 91.26 LIG-0.18  SA
ATOM     14 HG   CYS X1004      15.193  41.176  23.862  1.00 91.26 LIG 0.10  HD
ENDBRANCH 12 13
ENDBRANCH 11 12
BRANCH 11 15
ATOM     15  C   CYS X1004      16.752  39.181  27.036  1.00 93.84 LIG 0.24  C 
ATOM     16 O    CYS X1004      16.236  39.397  28.122  1.00 93.01 LIG-0.27  OA
ATOM     17  N   VAL X1005      17.016  37.956  26.609  1.00 93.78 LIG-0.35  N 
ATOM     18 H    VAL X1005      17.497  37.790  25.915  1.00 93.78 LIG 0.16  HD
BRANCH 17 19
ATOM     19  CA  VAL X1005      16.510  36.756  27.281  1.00 93.73 LIG 0.18  C 
BRANCH 19 20
ATOM     20  C   VAL X1005      14.977  36.708  27.312  1.00 93.48 LIG 0.24  C 
ATOM     21  N   ALA X1006      14.411  35.562  26.939  1.00 93.27 LIG-0.35  N 
ATOM     22 H    ALA X1006      14.860  34.874  26.685  1.00 93.27 LIG 0.16  HD
ATOM     23 O    VAL X1005      14.330  37.692  27.654  1.00 93.20 LIG-0.27  OA
BRANCH 21 24
ATOM     24  CA  ALA X1006      12.963  35.359  26.926  1.00 93.01 LIG 0.16  C 
ATOM     25  CB  ALA X1006      12.457  35.151  28.323  1.00 92.79 LIG 0.04  C 
BRANCH 24 26
ATOM     26  C   ALA X1006      12.253  36.539  26.281  1.00 92.71 LIG 0.22  C 
ATOM     27 O    ALA X1006      11.928  37.524  26.938  1.00 91.80 LIG-0.29  OA
ENDBRANCH 24 26
ENDBRANCH 21 24
ENDBRANCH 19 20
BRANCH 19 28
ATOM     28  CB  VAL X1005      17.122  36.673  28.711  1.00 93.65 LIG 0.01  C 
ATOM     29  CG2 VAL X1005      17.793  35.332  28.892  1.00 92.72 LIG 0.01  C 
ATOM     30  CG1 VAL X1005      16.093  36.944  29.798  1.00 92.97 LIG 0.01  C 
ENDBRANCH 19 28
ENDBRANCH 17 19
ENDBRANCH 11 15
ENDBRANCH 9 11
ENDBRANCH 5 7
ENDBRANCH 3 5
BRANCH 1 31
ATOM     31  CA  PRO X1002      21.120  36.794  25.803  1.00 99.31 LIG 0.18  C 
ATOM     32  N   PRO X1002      22.483  36.413  26.180  1.00 99.88 LIG-0.34  N 
ATOM     33  CD  PRO X1002      22.504  35.776  27.501  1.00 99.70 LIG 0.13  C 
ATOM     34  C   ASN X1001      23.481  36.614  25.303  1.00100.64 LIG 0.24  C 
ATOM     35  CG  PRO X1002      21.201  35.095  27.519  1.00 99.65 LIG 0.02  C 
ATOM     36  CB  PRO X1002      20.259  36.026  26.811  1.00 99.37 LIG 0.04  C 
ATOM     37 O    ASN X1001      23.272  37.082  24.190  1.00100.22 LIG-0.27  OA
BRANCH 34 38
ATOM     38  CA  ASN X1001      24.896  36.135  25.688  1.00101.23 LIG 0.18  C 
BRANCH 38 39
ATOM     39  N   ASN X1001      25.284  36.885  26.892  1.00101.62 LIG-0.34  N 
ATOM     40  C   SER X1000      26.422  37.582  26.913  1.00101.89 LIG 0.26  C 
ATOM     41 O    SER X1000      27.374  37.327  26.163  1.00101.60 LIG-0.27  OA
ATOM     42 H    ASN X1001      24.731  36.832  27.549  1.00101.62 LIG 0.16  HD
BRANCH 40 43
ATOM     43  CA  SER X1000      26.523  38.733  27.925  1.00101.91 LIG 0.42  C 
ATOM     44  N   SER X1000      27.566  39.721  27.541  1.00101.55 LIG 0.62  N 
BRANCH 43 45
ATOM     45  CB  SER X1000      25.178  39.429  28.118  1.00101.96 LIG 0.21  C 
BRANCH 45 46
ATOM     46 OG   SER X1000      24.576  39.096  29.358  1.00101.15 LIG-0.40  OA
ATOM     47 HG   SER X1000      24.632  38.268  29.482  1.00101.15 LIG 0.21  HD
ENDBRANCH 45 46
ENDBRANCH 43 45
ENDBRANCH 40 43
ENDBRANCH 38 39
BRANCH 38 48
ATOM     48  CB  ASN X1001      25.067  34.605  25.870  1.00101.08 LIG 0.14  C 
BRANCH 48 49
ATOM     49  CG  ASN X1001      26.520  34.115  25.822  1.00100.04 LIG 0.22  C 
ATOM     50  ND2 ASN X1001      26.932  33.530  24.712  1.00 98.76 LIG-0.37  N 
ATOM     51 21HD ASN X1001      27.750  33.279  24.636  1.00 98.76 LIG 0.16  HD
ATOM     52 22HD ASN X1001      26.380  33.401  24.064  1.00 98.76 LIG 0.16  HD
ATOM     53 OD1  ASN X1001      27.269  34.319  26.767  1.00 97.91 LIG-0.27  OA
ENDBRANCH 48 49
ENDBRANCH 38 48
ENDBRANCH 34 38
ENDBRANCH 1 31
TORSDOF 19
ENDMDL
MODEL 7
USER: ADFR SOLUTION from run 141
USER: SCORE 15.026670 LL:  -3.245 LR: -12.512 RR:   0.000 FEB:  -6.844
USER: RMSD 4.647397
USER: SEED 140
USER: STATUS no improvement in best in 5 clusters for 5 generations
USER: GENES 21
USER: genes 0 Translation |==|  0.54165 0.60072 0.50250
USER: genes 1 Rotation |==|  0.37337 0.60244 0.56577 0.96813
USER: genes 2 Torsion [C]-N--CA-[CB] |==|  0.53855
USER: genes 3 Torsion [N]-CA--C-[N] |==|  0.39496
USER: genes 4 Torsion [C]-N--CA-[C] |==|  0.84220
USER: genes 5 Torsion [N]-CA--CB-[SG] |==|  0.33031
USER: genes 6 Torsion [CA]-CB--SG-[HG] |==|  0.29526
USER: genes 7 Torsion [N]-CA--C-[N] |==|  0.87886
USER: genes 8 Torsion [C]-N--CA-[CB] |==|  0.74640
USER: genes 9 Torsion [N]-CA--C-[N] |==|  0.26628
USER: genes 10 Torsion [C]-N--CA-[CB] |==|  0.20843
USER: genes 11 Torsion [N]-CA--C-[O] |==|  0.25286
USER: genes 12 Torsion [N]-CA--CB-[CG2] |==|  0.51174
USER: genes 13 Torsion [O]-C--CA-[N] |==|  0.14250
USER: genes 14 Torsion [N]-C--CA-[N] |==|  0.27780
USER: genes 15 Torsion [C]-CA--N-[C] |==|  0.73981
USER: genes 16 Torsion [N]-C--CA-[N] |==|  0.54775
USER: genes 17 Torsion [C]-CA--CB-[OG] |==|  0.24003
USER: genes 18 Torsion [CA]-CB--OG-[HG] |==|  0.79187
USER: genes 19 Torsion [C]-CA--CB-[CG] |==|  0.88280
USER: genes 20 Torsion [CA]-CB--CG-[ND2] |==|  0.41190
ROOT
ATOM      1  C   PRO X1002      17.129  39.748  26.584  1.00 98.27 LIG 0.24  C 
ATOM      2 O    PRO X1002      16.109  39.792  25.908  1.00 97.40 LIG-0.27  OA
ATOM      3  N   ALA X1003      18.211  40.475  26.321  1.00 97.43 LIG-0.35  N 
ATOM      4 H    ALA X1003      18.839  40.615  26.892  1.00 97.43 LIG 0.16  HD
ENDROOT
BRANCH 3 5
ATOM      5  CA  ALA X1003      18.433  41.109  25.020  1.00 96.73 LIG 0.17  C 
ATOM      6  CB  ALA X1003      19.867  41.571  24.896  1.00 96.74 LIG 0.04  C 
BRANCH 5 7
ATOM      7  C   ALA X1003      18.104  40.033  23.986  1.00 95.66 LIG 0.24  C 
ATOM      8 O    ALA X1003      18.423  38.876  24.210  1.00 95.14 LIG-0.27  OA
ATOM      9  N   CYS X1004      17.486  40.350  22.854  1.00 94.40 LIG-0.34  N 
ATOM     10 H    CYS X1004      17.123  39.745  22.361  1.00 94.40 LIG 0.16  HD
BRANCH 9 11
ATOM     11  CA  CYS X1004      17.322  41.687  22.280  1.00 94.17 LIG 0.18  C 
BRANCH 11 12
ATOM     12  CB  CYS X1004      16.476  41.536  20.995  1.00 94.12 LIG 0.10  C 
BRANCH 12 13
ATOM     13 SG   CYS X1004      14.913  42.366  20.898  1.00 91.26 LIG-0.18  SA
ATOM     14 HG   CYS X1004      15.005  43.308  20.160  1.00 91.26 LIG 0.10  HD
ENDBRANCH 12 13
ENDBRANCH 11 12
BRANCH 11 15
ATOM     15  C   CYS X1004      16.621  42.663  23.244  1.00 93.84 LIG 0.24  C 
ATOM     16 O    CYS X1004      17.051  43.792  23.425  1.00 93.01 LIG-0.27  OA
ATOM     17  N   VAL X1005      15.568  42.193  23.895  1.00 93.78 LIG-0.35  N 
ATOM     18 H    VAL X1005      15.335  41.366  23.883  1.00 93.78 LIG 0.16  HD
BRANCH 17 19
ATOM     19  CA  VAL X1005      14.692  43.045  24.706  1.00 93.73 LIG 0.18  C 
BRANCH 19 20
ATOM     20  C   VAL X1005      14.562  44.461  24.130  1.00 93.48 LIG 0.24  C 
ATOM     21  N   ALA X1006      13.504  44.693  23.355  1.00 93.27 LIG-0.35  N 
ATOM     22 H    ALA X1006      12.916  44.094  23.168  1.00 93.27 LIG 0.16  HD
ATOM     23 O    VAL X1005      15.408  45.314  24.376  1.00 93.20 LIG-0.27  OA
BRANCH 21 24
ATOM     24  CA  ALA X1006      13.238  45.993  22.743  1.00 93.01 LIG 0.16  C 
ATOM     25  CB  ALA X1006      14.165  46.220  21.586  1.00 92.79 LIG 0.04  C 
BRANCH 24 26
ATOM     26  C   ALA X1006      11.792  46.094  22.283  1.00 92.71 LIG 0.22  C 
ATOM     27 O    ALA X1006      10.917  46.539  23.021  1.00 91.80 LIG-0.29  OA
ENDBRANCH 24 26
ENDBRANCH 21 24
ENDBRANCH 19 20
BRANCH 19 28
ATOM     28  CB  VAL X1005      15.210  43.062  26.175  1.00 93.65 LIG 0.01  C 
ATOM     29  CG2 VAL X1005      14.253  43.853  27.034  1.00 92.72 LIG 0.01  C 
ATOM     30  CG1 VAL X1005      16.634  43.585  26.282  1.00 92.97 LIG 0.01  C 
ENDBRANCH 19 28
ENDBRANCH 17 19
ENDBRANCH 11 15
ENDBRANCH 9 11
ENDBRANCH 5 7
ENDBRANCH 3 5
BRANCH 1 31
ATOM     31  CA  PRO X1002      17.196  38.874  27.839  1.00 99.31 LIG 0.18  C 
ATOM     32  N   PRO X1002      16.788  37.478  27.662  1.00 99.88 LIG-0.34  N 
ATOM     33  CD  PRO X1002      17.952  36.586  27.664  1.00 99.70 LIG 0.13  C 
ATOM     34  C   ASN X1001      15.478  37.188  27.592  1.00100.64 LIG 0.24  C 
ATOM     35  CG  PRO X1002      18.856  37.285  28.588  1.00 99.65 LIG 0.02  C 
ATOM     36  CB  PRO X1002      18.648  38.748  28.313  1.00 99.37 LIG 0.04  C 
ATOM     37 O    ASN X1001      14.621  38.057  27.699  1.00100.22 LIG-0.27  OA
BRANCH 34 38
ATOM     38  CA  ASN X1001      15.066  35.704  27.484  1.00101.23 LIG 0.18  C 
BRANCH 38 39
ATOM     39  N   ASN X1001      14.663  35.278  28.832  1.00101.62 LIG-0.34  N 
ATOM     40  C   SER X1000      15.546  34.698  29.647  1.00101.89 LIG 0.26  C 
ATOM     41 O    SER X1000      16.559  34.120  29.229  1.00101.60 LIG-0.27  OA
ATOM     42 H    ASN X1001      13.840  35.432  29.032  1.00101.62 LIG 0.16  HD
BRANCH 40 43
ATOM     43  CA  SER X1000      15.261  34.761  31.155  1.00101.91 LIG 0.42  C 
ATOM     44  N   SER X1000      16.472  34.463  31.964  1.00101.55 LIG 0.62  N 
BRANCH 43 45
ATOM     45  CB  SER X1000      14.673  36.112  31.557  1.00101.96 LIG 0.21  C 
BRANCH 45 46
ATOM     46 OG   SER X1000      13.263  36.147  31.410  1.00101.15 LIG-0.40  OA
ATOM     47 HG   SER X1000      13.068  36.208  30.596  1.00101.15 LIG 0.21  HD
ENDBRANCH 45 46
ENDBRANCH 43 45
ENDBRANCH 40 43
ENDBRANCH 38 39
BRANCH 38 48
ATOM     48  CB  ASN X1001      13.990  35.377  26.418  1.00101.08 LIG 0.14  C 
BRANCH 48 49
ATOM     49  CG  ASN X1001      12.832  36.381  26.351  1.00100.04 LIG 0.22  C 
ATOM     50  ND2 ASN X1001      12.265  36.583  25.175  1.00 98.76 LIG-0.37  N 
ATOM     51 21HD ASN X1001      11.589  37.109  25.108  1.00 98.76 LIG 0.16  HD
ATOM     52 22HD ASN X1001      12.573  36.188  24.475  1.00 98.76 LIG 0.16  HD
ATOM     53 OD1  ASN X1001      12.427  36.922  27.370  1.00 97.91 LIG-0.27  OA
ENDBRANCH 48 49
ENDBRANCH 38 48
ENDBRANCH 34 38
ENDBRANCH 1 31
TORSDOF 19
ENDMDL
MODEL 8
USER: ADFR SOLUTION from run 174
USER: SCORE 14.364959 LL:  -2.811 LR: -12.473 RR:   0.000 FEB:  -6.806
USER: RMSD 9.796942
USER: SEED 173
USER: STATUS no improvement in best in 10 clusters for 5 generations
USER: GENES 21
USER: genes 0 Translation |==|  0.66239 0.65872 0.34226
USER: genes 1 Rotation |==|  0.39806 0.59898 0.88693 0.78301
USER: genes 2 Torsion [C]-N--CA-[CB] |==|  0.87662
USER: genes 3 Torsion [N]-CA--C-[N] |==|  0.40310
USER: genes 4 Torsion [C]-N--CA-[C] |==|  0.82095
USER: genes 5 Torsion [N]-CA--CB-[SG] |==|  0.64090
USER: genes 6 Torsion [CA]-CB--SG-[HG] |==|  0.75310
USER: genes 7 Torsion [N]-CA--C-[N] |==|  0.44537
USER: genes 8 Torsion [C]-N--CA-[CB] |==|  0.81667
USER: genes 9 Torsion [N]-CA--C-[N] |==|  0.99436
USER: genes 10 Torsion [C]-N--CA-[CB] |==|  0.82366
USER: genes 11 Torsion [N]-CA--C-[O] |==|  0.47006
USER: genes 12 Torsion [N]-CA--CB-[CG2] |==|  0.27867
USER: genes 13 Torsion [O]-C--CA-[N] |==|  0.99449
USER: genes 14 Torsion [N]-C--CA-[N] |==|  0.26511
USER: genes 15 Torsion [C]-CA--N-[C] |==|  0.66852
USER: genes 16 Torsion [N]-C--CA-[N] |==|  0.42140
USER: genes 17 Torsion [C]-CA--CB-[OG] |==|  0.62464
USER: genes 18 Torsion [CA]-CB--OG-[HG] |==|  0.19712
USER: genes 19 Torsion [C]-CA--CB-[CG] |==|  0.00047
USER: genes 20 Torsion [CA]-CB--CG-[ND2] |==|  0.15033
ROOT
ATOM      1  C   PRO X1002      20.026  40.922  23.459  1.00 98.27 LIG 0.24  C 
ATOM      2 O    PRO X1002      19.616  39.817  23.130  1.00 97.40 LIG-0.27  OA
ATOM      3  N   ALA X1003      19.329  42.041  23.286  1.00 97.43 LIG-0.35  N 
ATOM      4 H    ALA X1003      19.502  42.778  23.695  1.00 97.43 LIG 0.16  HD
ENDROOT
BRANCH 3 5
ATOM      5  CA  ALA X1003      18.188  42.121  22.372  1.00 96.73 LIG 0.17  C 
ATOM      6  CB  ALA X1003      18.513  41.443  21.061  1.00 96.74 LIG 0.04  C 
BRANCH 5 7
ATOM      7  C   ALA X1003      17.042  41.415  23.096  1.00 95.66 LIG 0.24  C 
ATOM      8 O    ALA X1003      17.289  40.446  23.797  1.00 95.14 LIG-0.27  OA
ATOM      9  N   CYS X1004      15.791  41.841  22.960  1.00 94.40 LIG-0.34  N 
ATOM     10 H    CYS X1004      15.174  41.586  23.502  1.00 94.40 LIG 0.16  HD
BRANCH 9 11
ATOM     11  CA  CYS X1004      15.274  42.753  21.939  1.00 94.17 LIG 0.18  C 
BRANCH 11 12
ATOM     12  CB  CYS X1004      13.742  42.837  22.130  1.00 94.12 LIG 0.10  C 
BRANCH 12 13
ATOM     13 SG   CYS X1004      12.691  42.583  20.725  1.00 91.26 LIG-0.18  SA
ATOM     14 HG   CYS X1004      12.504  43.631  20.171  1.00 91.26 LIG 0.10  HD
ENDBRANCH 12 13
ENDBRANCH 11 12
BRANCH 11 15
ATOM     15  C   CYS X1004      15.882  44.165  22.043  1.00 93.84 LIG 0.24  C 
ATOM     16 O    CYS X1004      16.371  44.568  23.087  1.00 93.01 LIG-0.27  OA
ATOM     17  N   VAL X1005      15.798  44.924  20.961  1.00 93.78 LIG-0.35  N 
ATOM     18 H    VAL X1005      15.340  44.707  20.265  1.00 93.78 LIG 0.16  HD
BRANCH 17 19
ATOM     19  CA  VAL X1005      16.482  46.215  20.842  1.00 93.73 LIG 0.18  C 
BRANCH 19 20
ATOM     20  C   VAL X1005      18.002  46.085  21.008  1.00 93.48 LIG 0.24  C 
ATOM     21  N   ALA X1006      18.469  44.866  21.270  1.00 93.27 LIG-0.35  N 
ATOM     22 H    ALA X1006      17.965  44.175  21.353  1.00 93.27 LIG 0.16  HD
ATOM     23 O    VAL X1005      18.725  47.071  20.911  1.00 93.20 LIG-0.27  OA
BRANCH 21 24
ATOM     24  CA  ALA X1006      19.893  44.583  21.443  1.00 93.01 LIG 0.16  C 
ATOM     25  CB  ALA X1006      20.635  44.863  20.170  1.00 92.79 LIG 0.04  C 
BRANCH 24 26
ATOM     26  C   ALA X1006      20.478  45.402  22.583  1.00 92.71 LIG 0.22  C 
ATOM     27 O    ALA X1006      21.602  45.174  23.020  1.00 91.80 LIG-0.29  OA
ENDBRANCH 24 26
ENDBRANCH 21 24
ENDBRANCH 19 20
BRANCH 19 28
ATOM     28  CB  VAL X1005      15.870  47.215  21.868  1.00 93.65 LIG 0.01  C 
ATOM     29  CG2 VAL X1005      16.773  47.308  23.076  1.00 92.72 LIG 0.01  C 
ATOM     30  CG1 VAL X1005      14.444  46.852  22.252  1.00 92.97 LIG 0.01  C 
ENDBRANCH 19 28
ENDBRANCH 17 19
ENDBRANCH 11 15
ENDBRANCH 9 11
ENDBRANCH 5 7
ENDBRANCH 3 5
BRANCH 1 31
ATOM     31  CA  PRO X1002      21.378  41.076  24.162  1.00 99.31 LIG 0.18  C 
ATOM     32  N   PRO X1002      22.093  39.828  24.441  1.00 99.88 LIG-0.34  N 
ATOM     33  CD  PRO X1002      23.226  39.656  23.526  1.00 99.70 LIG 0.13  C 
ATOM     34  C   ASN X1001      21.697  39.070  25.477  1.00100.64 LIG 0.24  C 
ATOM     35  CG  PRO X1002      23.635  41.050  23.301  1.00 99.65 LIG 0.02  C 
ATOM     36  CB  PRO X1002      22.355  41.836  23.260  1.00 99.37 LIG 0.04  C 
ATOM     37 O    ASN X1001      20.773  39.411  26.206  1.00100.22 LIG-0.27  OA
BRANCH 34 38
ATOM     38  CA  ASN X1001      22.511  37.799  25.802  1.00101.23 LIG 0.18  C 
BRANCH 38 39
ATOM     39  N   ASN X1001      23.472  38.169  26.851  1.00101.62 LIG-0.34  N 
ATOM     40  C   SER X1000      24.784  38.061  26.630  1.00101.89 LIG 0.26  C 
ATOM     41 O    SER X1000      25.256  37.298  25.776  1.00101.60 LIG-0.27  OA
ATOM     42 H    ASN X1001      23.121  38.448  27.585  1.00101.62 LIG 0.16  HD
BRANCH 40 43
ATOM     43  CA  SER X1000      25.716  38.925  27.493  1.00101.91 LIG 0.42  C 
ATOM     44  N   SER X1000      27.052  38.296  27.671  1.00101.55 LIG 0.62  N 
BRANCH 43 45
ATOM     45  CB  SER X1000      25.864  40.333  26.920  1.00101.96 LIG 0.21  C 
BRANCH 45 46
ATOM     46 OG   SER X1000      27.213  40.770  26.916  1.00101.15 LIG-0.40  OA
ATOM     47 HG   SER X1000      27.643  40.343  26.334  1.00101.15 LIG 0.21  HD
ENDBRANCH 45 46
ENDBRANCH 43 45
ENDBRANCH 40 43
ENDBRANCH 38 39
BRANCH 38 48
ATOM     48  CB  ASN X1001      21.684  36.544  26.179  1.00101.08 LIG 0.14  C 
BRANCH 48 49
ATOM     49  CG  ASN X1001      20.164  36.754  26.168  1.00100.04 LIG 0.22  C 
ATOM     50  ND2 ASN X1001      19.622  37.237  25.065  1.00 98.76 LIG-0.37  N 
ATOM     51 21HD ASN X1001      18.769  37.330  25.010  1.00 98.76 LIG 0.16  HD
ATOM     52 22HD ASN X1001      20.122  37.458  24.401  1.00 98.76 LIG 0.16  HD
ATOM     53 OD1  ASN X1001      19.491  36.427  27.135  1.00 97.91 LIG-0.27  OA
ENDBRANCH 48 49
ENDBRANCH 38 48
ENDBRANCH 34 38
ENDBRANCH 1 31
TORSDOF 19
ENDMDL
MODEL 9
USER: ADFR SOLUTION from run 125
USER: SCORE 13.228830 LL:  -1.976 LR: -12.292 RR:   0.000 FEB:  -6.624
USER: RMSD 9.839198
USER: SEED 124
USER: STATUS no improvement in best in 11 clusters for 5 generations
USER: GENES 21
USER: genes 0 Translation |==|  0.45109 0.51034 0.48594
USER: genes 1 Rotation |==|  0.24167 0.75877 0.16268 0.55020
USER: genes 2 Torsion [C]-N--CA-[CB] |==|  0.56365
USER: genes 3 Torsion [N]-CA--C-[N] |==|  0.43173
USER: genes 4 Torsion [C]-N--CA-[C] |==|  0.57250
USER: genes 5 Torsion [N]-CA--CB-[SG] |==|  0.37278
USER: genes 6 Torsion [CA]-CB--SG-[HG] |==|  0.26653
USER: genes 7 Torsion [N]-CA--C-[N] |==|  0.25732
USER: genes 8 Torsion [C]-N--CA-[CB] |==|  0.82269
USER: genes 9 Torsion [N]-CA--C-[N] |==|  0.43148
USER: genes 10 Torsion [C]-N--CA-[CB] |==|  0.24302
USER: genes 11 Torsion [N]-CA--C-[O] |==|  0.95234
USER: genes 12 Torsion [N]-CA--CB-[CG2] |==|  0.72285
USER: genes 13 Torsion [O]-C--CA-[N] |==|  0.94500
USER: genes 14 Torsion [N]-C--CA-[N] |==|  0.88339
USER: genes 15 Torsion [C]-CA--N-[C] |==|  0.72778
USER: genes 16 Torsion [N]-C--CA-[N] |==|  0.13672
USER: genes 17 Torsion [C]-CA--CB-[OG] |==|  0.42347
USER: genes 18 Torsion [CA]-CB--OG-[HG] |==|  0.11995
USER: genes 19 Torsion [C]-CA--CB-[CG] |==|  0.25601
USER: genes 20 Torsion [CA]-CB--CG-[ND2] |==|  0.90052
ROOT
ATOM      1  C   PRO X1002      14.955  37.917  26.261  1.00 98.27 LIG 0.24  C 
ATOM      2 O    PRO X1002      14.280  38.505  25.426  1.00 97.40 LIG-0.27  OA
ATOM      3  N   ALA X1003      14.712  36.669  26.650  1.00 97.43 LIG-0.35  N 
ATOM      4 H    ALA X1003      15.286  36.179  27.062  1.00 97.43 LIG 0.16  HD
ENDROOT
BRANCH 3 5
ATOM      5  CA  ALA X1003      13.427  36.009  26.408  1.00 96.73 LIG 0.17  C 
ATOM      6  CB  ALA X1003      13.220  34.881  27.393  1.00 96.74 LIG 0.04  C 
BRANCH 5 7
ATOM      7  C   ALA X1003      12.373  37.101  26.583  1.00 95.66 LIG 0.24  C 
ATOM      8 O    ALA X1003      12.629  38.067  27.285  1.00 95.14 LIG-0.27  OA
ATOM      9  N   CYS X1004      11.190  37.001  25.988  1.00 94.40 LIG-0.34  N 
ATOM     10 H    CYS X1004      10.671  37.683  25.915  1.00 94.40 LIG 0.16  HD
BRANCH 9 11
ATOM     11  CA  CYS X1004      10.598  35.802  25.392  1.00 94.17 LIG 0.18  C 
BRANCH 11 12
ATOM     12  CB  CYS X1004       9.883  35.030  26.525  1.00 94.12 LIG 0.10  C 
BRANCH 12 13
ATOM     13 SG   CYS X1004       8.249  34.408  26.235  1.00 91.26 LIG-0.18  SA
ATOM     14 HG   CYS X1004       8.312  33.259  25.895  1.00 91.26 LIG 0.10  HD
ENDBRANCH 12 13
ENDBRANCH 11 12
BRANCH 11 15
ATOM     15  C   CYS X1004       9.587  36.132  24.278  1.00 93.84 LIG 0.24  C 
ATOM     16 O    CYS X1004       8.403  36.298  24.527  1.00 93.01 LIG-0.27  OA
ATOM     17  N   VAL X1005      10.063  36.172  23.043  1.00 93.78 LIG-0.35  N 
ATOM     18 H    VAL X1005      10.861  35.926  22.835  1.00 93.78 LIG 0.16  HD
BRANCH 17 19
ATOM     19  CA  VAL X1005       9.272  36.645  21.903  1.00 93.73 LIG 0.18  C 
BRANCH 19 20
ATOM     20  C   VAL X1005       8.830  38.105  22.066  1.00 93.48 LIG 0.24  C 
ATOM     21  N   ALA X1006       8.572  38.777  20.946  1.00 93.27 LIG-0.35  N 
ATOM     22 H    ALA X1006       8.648  38.433  20.161  1.00 93.27 LIG 0.16  HD
ATOM     23 O    VAL X1005       8.739  38.608  23.181  1.00 93.20 LIG-0.27  OA
BRANCH 21 24
ATOM     24  CA  ALA X1006       8.131  40.170  20.939  1.00 93.01 LIG 0.16  C 
ATOM     25  CB  ALA X1006       9.318  41.088  20.943  1.00 92.79 LIG 0.04  C 
BRANCH 24 26
ATOM     26  C   ALA X1006       7.249  40.459  19.734  1.00 92.71 LIG 0.22  C 
ATOM     27 O    ALA X1006       7.230  39.707  18.764  1.00 91.80 LIG-0.29  OA
ENDBRANCH 24 26
ENDBRANCH 21 24
ENDBRANCH 19 20
BRANCH 19 28
ATOM     28  CB  VAL X1005       8.058  35.692  21.691  1.00 93.65 LIG 0.01  C 
ATOM     29  CG2 VAL X1005       8.368  34.728  20.571  1.00 92.72 LIG 0.01  C 
ATOM     30  CG1 VAL X1005       6.762  36.449  21.447  1.00 92.97 LIG 0.01  C 
ENDBRANCH 19 28
ENDBRANCH 17 19
ENDBRANCH 11 15
ENDBRANCH 9 11
ENDBRANCH 5 7
ENDBRANCH 3 5
BRANCH 1 31
ATOM     31  CA  PRO X1002      16.188  38.583  26.878  1.00 99.31 LIG 0.18  C 
ATOM     32  N   PRO X1002      16.750  39.703  26.119  1.00 99.88 LIG-0.34  N 
ATOM     33  CD  PRO X1002      16.436  40.984  26.760  1.00 99.70 LIG 0.13  C 
ATOM     34  C   ASN X1001      17.497  39.442  25.032  1.00100.64 LIG 0.24  C 
ATOM     35  CG  PRO X1002      16.424  40.605  28.181  1.00 99.65 LIG 0.02  C 
ATOM     36  CB  PRO X1002      15.821  39.229  28.218  1.00 99.37 LIG 0.04  C 
ATOM     37 O    ASN X1001      17.739  38.293  24.680  1.00100.22 LIG-0.27  OA
BRANCH 34 38
ATOM     38  CA  ASN X1001      18.144  40.631  24.292  1.00101.23 LIG 0.18  C 
BRANCH 38 39
ATOM     39  N   ASN X1001      17.132  41.696  24.235  1.00101.62 LIG-0.34  N 
ATOM     40  C   SER X1000      16.393  41.865  23.136  1.00101.89 LIG 0.26  C 
ATOM     41 O    SER X1000      16.760  41.473  22.020  1.00101.60 LIG-0.27  OA
ATOM     42 H    ASN X1001      17.067  42.176  24.946  1.00101.62 LIG 0.16  HD
BRANCH 40 43
ATOM     43  CA  SER X1000      15.045  42.583  23.297  1.00101.91 LIG 0.42  C 
ATOM     44  N   SER X1000      15.178  43.850  24.064  1.00101.55 LIG 0.62  N 
BRANCH 43 45
ATOM     45  CB  SER X1000      14.386  42.847  21.945  1.00101.96 LIG 0.21  C 
BRANCH 45 46
ATOM     46 OG   SER X1000      12.973  42.909  22.042  1.00101.15 LIG-0.40  OA
ATOM     47 HG   SER X1000      12.758  43.357  22.719  1.00101.15 LIG 0.21  HD
ENDBRANCH 45 46
ENDBRANCH 43 45
ENDBRANCH 40 43
ENDBRANCH 38 39
BRANCH 38 48
ATOM     48  CB  ASN X1001      19.493  41.133  24.866  1.00101.08 LIG 0.14  C 
BRANCH 48 49
ATOM     49  CG  ASN X1001      20.734  40.488  24.236  1.00100.04 LIG 0.22  C 
ATOM     50  ND2 ASN X1001      20.654  39.215  23.893  1.00 98.76 LIG-0.37  N 
ATOM     51 21HD ASN X1001      21.317  38.833  23.501  1.00 98.76 LIG 0.16  HD
ATOM     52 22HD ASN X1001      19.938  38.769  24.061  1.00 98.76 LIG 0.16  HD
ATOM     53 OD1  ASN X1001      21.732  41.160  24.017  1.00 97.91 LIG-0.27  OA
ENDBRANCH 48 49
ENDBRANCH 38 48
ENDBRANCH 34 38
ENDBRANCH 1 31
TORSDOF 19
ENDMDL
MODEL 10
USER: ADFR SOLUTION from run 39
USER: SCORE 14.947892 LL:  -3.815 LR: -12.266 RR:   0.000 FEB:  -6.598
USER: RMSD 8.666898
USER: SEED 38
USER: STATUS no improvement in best in 2 clusters for 5 generations
USER: GENES 21
USER: genes 0 Translation |==|  0.57238 0.67898 0.35122
USER: genes 1 Rotation |==|  0.41108 0.27194 0.20302 0.81919
USER: genes 2 Torsion [C]-N--CA-[CB] |==|  0.55955
USER: genes 3 Torsion [N]-CA--C-[N] |==|  0.33912
USER: genes 4 Torsion [C]-N--CA-[C] |==|  0.77042
USER: genes 5 Torsion [N]-CA--CB-[SG] |==|  0.81532
USER: genes 6 Torsion [CA]-CB--SG-[HG] |==|  0.25606
USER: genes 7 Torsion [N]-CA--C-[N] |==|  0.21231
USER: genes 8 Torsion [C]-N--CA-[CB] |==|  0.82142
USER: genes 9 Torsion [N]-CA--C-[N] |==|  0.41382
USER: genes 10 Torsion [C]-N--CA-[CB] |==|  0.49388
USER: genes 11 Torsion [N]-CA--C-[O] |==|  0.21357
USER: genes 12 Torsion [N]-CA--CB-[CG2] |==|  0.86894
USER: genes 13 Torsion [O]-C--CA-[N] |==|  0.68306
USER: genes 14 Torsion [N]-C--CA-[N] |==|  0.22244
USER: genes 15 Torsion [C]-CA--N-[C] |==|  0.66667
USER: genes 16 Torsion [N]-C--CA-[N] |==|  0.44936
USER: genes 17 Torsion [C]-CA--CB-[OG] |==|  0.25287
USER: genes 18 Torsion [CA]-CB--OG-[HG] |==|  0.12079
USER: genes 19 Torsion [C]-CA--CB-[CG] |==|  0.79828
USER: genes 20 Torsion [CA]-CB--CG-[ND2] |==|  0.84646
ROOT
ATOM      1  C   PRO X1002      17.866  41.332  23.634  1.00 98.27 LIG 0.24  C 
ATOM      2 O    PRO X1002      18.871  41.200  22.947  1.00 97.40 LIG-0.27  OA
ATOM      3  N   ALA X1003      17.843  41.110  24.945  1.00 97.43 LIG-0.35  N 
ATOM      4 H    ALA X1003      17.221  41.398  25.465  1.00 97.43 LIG 0.16  HD
ENDROOT
BRANCH 3 5
ATOM      5  CA  ALA X1003      18.887  40.345  25.629  1.00 96.73 LIG 0.17  C 
ATOM      6  CB  ALA X1003      18.372  39.809  26.945  1.00 96.74 LIG 0.04  C 
BRANCH 5 7
ATOM      7  C   ALA X1003      19.250  39.211  24.670  1.00 95.66 LIG 0.24  C 
ATOM      8 O    ALA X1003      18.379  38.435  24.311  1.00 95.14 LIG-0.27  OA
ATOM      9  N   CYS X1004      20.497  39.065  24.238  1.00 94.40 LIG-0.34  N 
ATOM     10 H    CYS X1004      20.676  38.567  23.560  1.00 94.40 LIG 0.16  HD
BRANCH 9 11
ATOM     11  CA  CYS X1004      21.705  39.678  24.795  1.00 94.17 LIG 0.18  C 
BRANCH 11 12
ATOM     12  CB  CYS X1004      22.904  38.795  24.378  1.00 94.12 LIG 0.10  C 
BRANCH 12 13
ATOM     13 SG   CYS X1004      23.025  37.154  25.035  1.00 91.26 LIG-0.18  SA
ATOM     14 HG   CYS X1004      22.494  36.382  24.285  1.00 91.26 LIG 0.10  HD
ENDBRANCH 12 13
ENDBRANCH 11 12
BRANCH 11 15
ATOM     15  C   CYS X1004      21.925  41.116  24.290  1.00 93.84 LIG 0.24  C 
ATOM     16 O    CYS X1004      22.793  41.373  23.469  1.00 93.01 LIG-0.27  OA
ATOM     17  N   VAL X1005      21.163  42.054  24.831  1.00 93.78 LIG-0.35  N 
ATOM     18 H    VAL X1005      20.645  41.913  25.503  1.00 93.78 LIG 0.16  HD
BRANCH 17 19
ATOM     19  CA  VAL X1005      21.127  43.432  24.333  1.00 93.73 LIG 0.18  C 
BRANCH 19 20
ATOM     20  C   VAL X1005      20.665  43.511  22.872  1.00 93.48 LIG 0.24  C 
ATOM     21  N   ALA X1006      20.003  44.610  22.517  1.00 93.27 LIG-0.35  N 
ATOM     22 H    ALA X1006      19.826  45.252  23.061  1.00 93.27 LIG 0.16  HD
ATOM     23 O    VAL X1005      20.896  42.591  22.095  1.00 93.20 LIG-0.27  OA
BRANCH 21 24
ATOM     24  CA  ALA X1006      19.509  44.836  21.159  1.00 93.01 LIG 0.16  C 
ATOM     25  CB  ALA X1006      18.761  46.134  21.090  1.00 92.79 LIG 0.04  C 
BRANCH 24 26
ATOM     26  C   ALA X1006      20.651  44.834  20.156  1.00 92.71 LIG 0.22  C 
ATOM     27 O    ALA X1006      21.172  43.786  19.785  1.00 91.80 LIG-0.29  OA
ENDBRANCH 24 26
ENDBRANCH 21 24
ENDBRANCH 19 20
BRANCH 19 28
ATOM     28  CB  VAL X1005      22.526  44.087  24.535  1.00 93.65 LIG 0.01  C 
ATOM     29  CG2 VAL X1005      23.011  43.809  25.938  1.00 92.72 LIG 0.01  C 
ATOM     30  CG1 VAL X1005      22.521  45.574  24.220  1.00 92.97 LIG 0.01  C 
ENDBRANCH 19 28
ENDBRANCH 17 19
ENDBRANCH 11 15
ENDBRANCH 9 11
ENDBRANCH 5 7
ENDBRANCH 3 5
BRANCH 1 31
ATOM     31  CA  PRO X1002      16.558  41.834  23.016  1.00 99.31 LIG 0.18  C 
ATOM     32  N   PRO X1002      16.094  43.141  23.488  1.00 99.88 LIG-0.34  N 
ATOM     33  CD  PRO X1002      16.312  44.175  22.472  1.00 99.70 LIG 0.13  C 
ATOM     34  C   ASN X1001      15.499  43.223  24.690  1.00100.64 LIG 0.24  C 
ATOM     35  CG  PRO X1002      16.138  43.407  21.230  1.00 99.65 LIG 0.02  C 
ATOM     36  CB  PRO X1002      16.740  42.059  21.511  1.00 99.37 LIG 0.04  C 
ATOM     37 O    ASN X1001      15.314  42.231  25.385  1.00100.22 LIG-0.27  OA
BRANCH 34 38
ATOM     38  CA  ASN X1001      14.948  44.595  25.136  1.00101.23 LIG 0.18  C 
BRANCH 38 39
ATOM     39  N   ASN X1001      13.651  44.767  24.467  1.00101.62 LIG-0.34  N 
ATOM     40  C   SER X1000      13.452  45.796  23.639  1.00101.89 LIG 0.26  C 
ATOM     41 O    SER X1000      14.119  46.838  23.700  1.00101.60 LIG-0.27  OA
ATOM     42 H    ASN X1001      13.062  44.168  24.652  1.00101.62 LIG 0.16  HD
BRANCH 40 43
ATOM     43  CA  SER X1000      12.340  45.651  22.590  1.00101.91 LIG 0.42  C 
ATOM     44  N   SER X1000      11.923  46.966  22.035  1.00101.55 LIG 0.62  N 
BRANCH 43 45
ATOM     45  CB  SER X1000      12.754  44.706  21.463  1.00101.96 LIG 0.21  C 
BRANCH 45 46
ATOM     46 OG   SER X1000      12.379  43.364  21.726  1.00101.15 LIG-0.40  OA
ATOM     47 HG   SER X1000      11.598  43.347  22.032  1.00101.15 LIG 0.21  HD
ENDBRANCH 45 46
ENDBRANCH 43 45
ENDBRANCH 40 43
ENDBRANCH 38 39
BRANCH 38 48
ATOM     48  CB  ASN X1001      14.854  44.820  26.667  1.00101.08 LIG 0.14  C 
BRANCH 48 49
ATOM     49  CG  ASN X1001      13.732  44.035  27.359  1.00100.04 LIG 0.22  C 
ATOM     50  ND2 ASN X1001      12.503  44.195  26.902  1.00 98.76 LIG-0.37  N 
ATOM     51 21HD ASN X1001      11.856  43.740  27.241  1.00 98.76 LIG 0.16  HD
ATOM     52 22HD ASN X1001      12.349  44.753  26.266  1.00 98.76 LIG 0.16  HD
ATOM     53 OD1  ASN X1001      13.995  43.253  28.262  1.00 97.91 LIG-0.27  OA
ENDBRANCH 48 49
ENDBRANCH 38 48
ENDBRANCH 34 38
ENDBRANCH 1 31
TORSDOF 19
ENDMDL
MODEL 11
USER: ADFR SOLUTION from run 125
USER: SCORE 13.621049 LL:  -2.222 LR: -12.239 RR:   0.000 FEB:  -6.571
USER: RMSD 9.704797
USER: SEED 124
USER: STATUS no improvement in best in 11 clusters for 5 generations
USER: GENES 21
USER: genes 0 Translation |==|  0.45498 0.50112 0.49967
USER: genes 1 Rotation |==|  0.26208 0.75962 0.14806 0.54611
USER: genes 2 Torsion [C]-N--CA-[CB] |==|  0.56784
USER: genes 3 Torsion [N]-CA--C-[N] |==|  0.43606
USER: genes 4 Torsion [C]-N--CA-[C] |==|  0.56112
USER: genes 5 Torsion [N]-CA--CB-[SG] |==|  0.39489
USER: genes 6 Torsion [CA]-CB--SG-[HG] |==|  0.25092
USER: genes 7 Torsion [N]-CA--C-[N] |==|  0.24464
USER: genes 8 Torsion [C]-N--CA-[CB] |==|  0.82093
USER: genes 9 Torsion [N]-CA--C-[N] |==|  0.43327
USER: genes 10 Torsion [C]-N--CA-[CB] |==|  0.25514
USER: genes 11 Torsion [N]-CA--C-[O] |==|  0.95575
USER: genes 12 Torsion [N]-CA--CB-[CG2] |==|  0.72819
USER: genes 13 Torsion [O]-C--CA-[N] |==|  0.97250
USER: genes 14 Torsion [N]-C--CA-[N] |==|  0.39231
USER: genes 15 Torsion [C]-CA--N-[C] |==|  0.84822
USER: genes 16 Torsion [N]-C--CA-[N] |==|  0.21730
USER: genes 17 Torsion [C]-CA--CB-[OG] |==|  0.40611
USER: genes 18 Torsion [CA]-CB--OG-[HG] |==|  0.92638
USER: genes 19 Torsion [C]-CA--CB-[CG] |==|  0.23343
USER: genes 20 Torsion [CA]-CB--CG-[ND2] |==|  0.76576
ROOT
ATOM      1  C   PRO X1002      15.049  37.731  26.528  1.00 98.27 LIG 0.24  C 
ATOM      2 O    PRO X1002      14.476  38.332  25.629  1.00 97.40 LIG-0.27  OA
ATOM      3  N   ALA X1003      14.699  36.511  26.929  1.00 97.43 LIG-0.35  N 
ATOM      4 H    ALA X1003      15.210  36.000  27.397  1.00 97.43 LIG 0.16  HD
ENDROOT
BRANCH 3 5
ATOM      5  CA  ALA X1003      13.399  35.922  26.606  1.00 96.73 LIG 0.17  C 
ATOM      6  CB  ALA X1003      13.031  34.865  27.622  1.00 96.74 LIG 0.04  C 
BRANCH 5 7
ATOM      7  C   ALA X1003      12.410  37.087  26.634  1.00 95.66 LIG 0.24  C 
ATOM      8 O    ALA X1003      12.684  38.083  27.285  1.00 95.14 LIG-0.27  OA
ATOM      9  N   CYS X1004      11.265  37.018  25.966  1.00 94.40 LIG-0.34  N 
ATOM     10 H    CYS X1004      10.798  37.724  25.811  1.00 94.40 LIG 0.16  HD
BRANCH 9 11
ATOM     11  CA  CYS X1004      10.634  35.818  25.412  1.00 94.17 LIG 0.18  C 
BRANCH 11 12
ATOM     12  CB  CYS X1004       9.883  35.118  26.568  1.00 94.12 LIG 0.10  C 
BRANCH 12 13
ATOM     13 SG   CYS X1004       8.318  34.356  26.231  1.00 91.26 LIG-0.18  SA
ATOM     14 HG   CYS X1004       8.490  33.211  25.915  1.00 91.26 LIG 0.10  HD
ENDBRANCH 12 13
ENDBRANCH 11 12
BRANCH 11 15
ATOM     15  C   CYS X1004       9.645  36.139  24.276  1.00 93.84 LIG 0.24  C 
ATOM     16 O    CYS X1004       8.451  36.276  24.496  1.00 93.01 LIG-0.27  OA
ATOM     17  N   VAL X1005      10.152  36.205  23.054  1.00 93.78 LIG-0.35  N 
ATOM     18 H    VAL X1005      10.960  35.978  22.865  1.00 93.78 LIG 0.16  HD
BRANCH 17 19
ATOM     19  CA  VAL X1005       9.380  36.674  21.900  1.00 93.73 LIG 0.18  C 
BRANCH 19 20
ATOM     20  C   VAL X1005       8.889  38.117  22.075  1.00 93.48 LIG 0.24  C 
ATOM     21  N   ALA X1006       8.630  38.796  20.959  1.00 93.27 LIG-0.35  N 
ATOM     22 H    ALA X1006       8.731  38.466  20.171  1.00 93.27 LIG 0.16  HD
ATOM     23 O    VAL X1005       8.761  38.600  23.195  1.00 93.20 LIG-0.27  OA
BRANCH 21 24
ATOM     24  CA  ALA X1006       8.145  40.175  20.964  1.00 93.01 LIG 0.16  C 
ATOM     25  CB  ALA X1006       9.300  41.130  20.896  1.00 92.79 LIG 0.04  C 
BRANCH 24 26
ATOM     26  C   ALA X1006       7.191  40.422  19.805  1.00 92.71 LIG 0.22  C 
ATOM     27 O    ALA X1006       7.129  39.648  18.855  1.00 91.80 LIG-0.29  OA
ENDBRANCH 24 26
ENDBRANCH 21 24
ENDBRANCH 19 20
BRANCH 19 28
ATOM     28  CB  VAL X1005       8.203  35.689  21.636  1.00 93.65 LIG 0.01  C 
ATOM     29  CG2 VAL X1005       8.593  34.724  20.541  1.00 92.72 LIG 0.01  C 
ATOM     30  CG1 VAL X1005       6.902  36.410  21.320  1.00 92.97 LIG 0.01  C 
ENDBRANCH 19 28
ENDBRANCH 17 19
ENDBRANCH 11 15
ENDBRANCH 9 11
ENDBRANCH 5 7
ENDBRANCH 3 5
BRANCH 1 31
ATOM     31  CA  PRO X1002      16.270  38.340  27.222  1.00 99.31 LIG 0.18  C 
ATOM     32  N   PRO X1002      16.820  39.544  26.593  1.00 99.88 LIG-0.34  N 
ATOM     33  CD  PRO X1002      16.487  40.742  27.370  1.00 99.70 LIG 0.13  C 
ATOM     34  C   ASN X1001      17.575  39.413  25.489  1.00100.64 LIG 0.24  C 
ATOM     35  CG  PRO X1002      16.475  40.208  28.740  1.00 99.65 LIG 0.02  C 
ATOM     36  CB  PRO X1002      15.889  38.830  28.622  1.00 99.37 LIG 0.04  C 
ATOM     37 O    ASN X1001      17.833  38.314  25.014  1.00100.22 LIG-0.27  OA
BRANCH 34 38
ATOM     38  CA  ASN X1001      18.209  40.686  24.887  1.00101.23 LIG 0.18  C 
BRANCH 38 39
ATOM     39  N   ASN X1001      19.555  40.311  24.429  1.00101.62 LIG-0.34  N 
ATOM     40  C   SER X1000      20.418  39.740  25.273  1.00101.89 LIG 0.26  C 
ATOM     41 O    SER X1000      20.332  39.868  26.502  1.00101.60 LIG-0.27  OA
ATOM     42 H    ASN X1001      19.723  40.489  23.605  1.00101.62 LIG 0.16  HD
BRANCH 40 43
ATOM     43  CA  SER X1000      21.553  38.906  24.661  1.00101.91 LIG 0.42  C 
ATOM     44  N   SER X1000      22.648  39.761  24.129  1.00101.55 LIG 0.62  N 
BRANCH 43 45
ATOM     45  CB  SER X1000      22.107  37.895  25.663  1.00101.96 LIG 0.21  C 
BRANCH 45 46
ATOM     46 OG   SER X1000      22.526  36.695  25.035  1.00101.15 LIG-0.40  OA
ATOM     47 HG   SER X1000      22.093  36.585  24.324  1.00101.15 LIG 0.21  HD
ENDBRANCH 45 46
ENDBRANCH 43 45
ENDBRANCH 40 43
ENDBRANCH 38 39
BRANCH 38 48
ATOM     48  CB  ASN X1001      17.387  41.392  23.778  1.00101.08 LIG 0.14  C 
BRANCH 48 49
ATOM     49  CG  ASN X1001      16.310  42.353  24.297  1.00100.04 LIG 0.22  C 
ATOM     50  ND2 ASN X1001      15.140  41.839  24.629  1.00 98.76 LIG-0.37  N 
ATOM     51 21HD ASN X1001      14.527  42.343  24.961  1.00 98.76 LIG 0.16  HD
ATOM     52 22HD ASN X1001      14.991  40.999  24.514  1.00 98.76 LIG 0.16  HD
ATOM     53 OD1  ASN X1001      16.565  43.540  24.444  1.00 97.91 LIG-0.27  OA
ENDBRANCH 48 49
ENDBRANCH 38 48
ENDBRANCH 34 38
ENDBRANCH 1 31
TORSDOF 19
ENDMDL
MODEL 12
USER: ADFR SOLUTION from run 60
USER: SCORE 13.491735 LL:  -2.850 LR: -12.239 RR:   0.000 FEB:  -6.572
USER: RMSD 9.390738
USER: SEED 59
USER: STATUS no improvement in best in 7 clusters for 5 generations
USER: GENES 21
USER: genes 0 Translation |==|  0.41251 0.39273 0.54079
USER: genes 1 Rotation |==|  0.33111 0.96871 0.46882 0.52860
USER: genes 2 Torsion [C]-N--CA-[CB] |==|  0.86967
USER: genes 3 Torsion [N]-CA--C-[N] |==|  0.29475
USER: genes 4 Torsion [C]-N--CA-[C] |==|  0.52318
USER: genes 5 Torsion [N]-CA--CB-[SG] |==|  0.68122
USER: genes 6 Torsion [CA]-CB--SG-[HG] |==|  0.96654
USER: genes 7 Torsion [N]-CA--C-[N] |==|  0.43658
USER: genes 8 Torsion [C]-N--CA-[CB] |==|  0.52792
USER: genes 9 Torsion [N]-CA--C-[N] |==|  0.30673
USER: genes 10 Torsion [C]-N--CA-[CB] |==|  0.20204
USER: genes 11 Torsion [N]-CA--C-[O] |==|  0.89903
USER: genes 12 Torsion [N]-CA--CB-[CG2] |==|  0.78420
USER: genes 13 Torsion [O]-C--CA-[N] |==|  0.02508
USER: genes 14 Torsion [N]-C--CA-[N] |==|  0.46124
USER: genes 15 Torsion [C]-CA--N-[C] |==|  0.79886
USER: genes 16 Torsion [N]-C--CA-[N] |==|  0.52159
USER: genes 17 Torsion [C]-CA--CB-[OG] |==|  0.71006
USER: genes 18 Torsion [CA]-CB--OG-[HG] |==|  0.42712
USER: genes 19 Torsion [C]-CA--CB-[CG] |==|  0.92913
USER: genes 20 Torsion [CA]-CB--CG-[ND2] |==|  0.33983
ROOT
ATOM      1  C   PRO X1002      14.029  35.536  27.330  1.00 98.27 LIG 0.24  C 
ATOM      2 O    PRO X1002      13.930  36.496  28.083  1.00 97.40 LIG-0.27  OA
ATOM      3  N   ALA X1003      12.994  35.002  26.688  1.00 97.43 LIG-0.35  N 
ATOM      4 H    ALA X1003      13.074  34.481  26.008  1.00 97.43 LIG 0.16  HD
ENDROOT
BRANCH 3 5
ATOM      5  CA  ALA X1003      11.608  35.256  27.086  1.00 96.73 LIG 0.17  C 
ATOM      6  CB  ALA X1003      11.450  35.095  28.581  1.00 96.74 LIG 0.04  C 
BRANCH 5 7
ATOM      7  C   ALA X1003      11.320  36.692  26.647  1.00 95.66 LIG 0.24  C 
ATOM      8 O    ALA X1003      11.801  37.615  27.284  1.00 95.14 LIG-0.27  OA
ATOM      9  N   CYS X1004      10.550  36.934  25.593  1.00 94.40 LIG-0.34  N 
ATOM     10 H    CYS X1004      10.539  37.710  25.221  1.00 94.40 LIG 0.16  HD
BRANCH 9 11
ATOM     11  CA  CYS X1004       9.648  35.997  24.921  1.00 94.17 LIG 0.18  C 
BRANCH 11 12
ATOM     12  CB  CYS X1004       8.493  35.687  25.901  1.00 94.12 LIG 0.10  C 
BRANCH 12 13
ATOM     13 SG   CYS X1004       8.323  34.037  26.525  1.00 91.26 LIG-0.18  SA
ATOM     14 HG   CYS X1004       9.029  33.296  25.897  1.00 91.26 LIG 0.10  HD
ENDBRANCH 12 13
ENDBRANCH 11 12
BRANCH 11 15
ATOM     15  C   CYS X1004       9.071  36.567  23.611  1.00 93.84 LIG 0.24  C 
ATOM     16 O    CYS X1004       8.971  37.771  23.434  1.00 93.01 LIG-0.27  OA
ATOM     17  N   VAL X1005       8.647  35.682  22.721  1.00 93.78 LIG-0.35  N 
ATOM     18 H    VAL X1005       8.585  34.840  22.883  1.00 93.78 LIG 0.16  HD
BRANCH 17 19
ATOM     19  CA  VAL X1005       8.241  36.057  21.363  1.00 93.73 LIG 0.18  C 
BRANCH 19 20
ATOM     20  C   VAL X1005       7.334  37.294  21.347  1.00 93.48 LIG 0.24  C 
ATOM     21  N   ALA X1006       7.858  38.408  20.838  1.00 93.27 LIG-0.35  N 
ATOM     22 H    ALA X1006       8.662  38.457  20.535  1.00 93.27 LIG 0.16  HD
ATOM     23 O    VAL X1005       6.195  37.238  21.795  1.00 93.20 LIG-0.27  OA
BRANCH 21 24
ATOM     24  CA  ALA X1006       7.116  39.664  20.745  1.00 93.01 LIG 0.16  C 
ATOM     25  CB  ALA X1006       6.960  40.275  22.106  1.00 92.79 LIG 0.04  C 
BRANCH 24 26
ATOM     26  C   ALA X1006       7.811  40.640  19.808  1.00 92.71 LIG 0.22  C 
ATOM     27 O    ALA X1006       9.035  40.708  19.752  1.00 91.80 LIG-0.29  OA
ENDBRANCH 24 26
ENDBRANCH 21 24
ENDBRANCH 19 20
BRANCH 19 28
ATOM     28  CB  VAL X1005       7.565  34.834  20.675  1.00 93.65 LIG 0.01  C 
ATOM     29  CG2 VAL X1005       8.629  33.863  20.221  1.00 92.72 LIG 0.01  C 
ATOM     30  CG1 VAL X1005       6.647  35.244  19.534  1.00 92.97 LIG 0.01  C 
ENDBRANCH 19 28
ENDBRANCH 17 19
ENDBRANCH 11 15
ENDBRANCH 9 11
ENDBRANCH 5 7
ENDBRANCH 3 5
BRANCH 1 31
ATOM     31  CA  PRO X1002      15.397  34.916  27.030  1.00 99.31 LIG 0.18  C 
ATOM     32  N   PRO X1002      16.509  35.407  27.848  1.00 99.88 LIG-0.34  N 
ATOM     33  CD  PRO X1002      16.906  34.411  28.848  1.00 99.70 LIG 0.13  C 
ATOM     34  C   ASN X1001      17.045  36.606  27.563  1.00100.64 LIG 0.24  C 
ATOM     35  CG  PRO X1002      16.626  33.155  28.137  1.00 99.65 LIG 0.02  C 
ATOM     36  CB  PRO X1002      15.375  33.417  27.348  1.00 99.37 LIG 0.04  C 
ATOM     37 O    ASN X1001      16.645  37.281  26.622  1.00100.22 LIG-0.27  OA
BRANCH 34 38
ATOM     38  CA  ASN X1001      18.265  37.071  28.386  1.00101.23 LIG 0.18  C 
BRANCH 38 39
ATOM     39  N   ASN X1001      18.849  38.214  27.668  1.00101.62 LIG-0.34  N 
ATOM     40  C   SER X1000      19.514  38.023  26.527  1.00101.89 LIG 0.26  C 
ATOM     41 O    SER X1000      20.033  36.938  26.231  1.00101.60 LIG-0.27  OA
ATOM     42 H    ASN X1001      18.724  38.980  28.039  1.00101.62 LIG 0.16  HD
BRANCH 40 43
ATOM     43  CA  SER X1000      19.629  39.219  25.570  1.00101.91 LIG 0.42  C 
ATOM     44  N   SER X1000      20.226  38.833  24.265  1.00101.55 LIG 0.62  N 
BRANCH 43 45
ATOM     45  CB  SER X1000      18.278  39.897  25.357  1.00101.96 LIG 0.21  C 
BRANCH 45 46
ATOM     46 OG   SER X1000      17.715  39.583  24.094  1.00101.15 LIG-0.40  OA
ATOM     47 HG   SER X1000      16.879  39.648  24.136  1.00101.15 LIG 0.21  HD
ENDBRANCH 45 46
ENDBRANCH 43 45
ENDBRANCH 40 43
ENDBRANCH 38 39
BRANCH 38 48
ATOM     48  CB  ASN X1001      17.992  37.392  29.878  1.00101.08 LIG 0.14  C 
BRANCH 48 49
ATOM     49  CG  ASN X1001      16.546  37.799  30.188  1.00100.04 LIG 0.22  C 
ATOM     50  ND2 ASN X1001      15.886  37.079  31.078  1.00 98.76 LIG-0.37  N 
ATOM     51 21HD ASN X1001      15.088  37.303  31.306  1.00 98.76 LIG 0.16  HD
ATOM     52 22HD ASN X1001      16.256  36.387  31.431  1.00 98.76 LIG 0.16  HD
ATOM     53 OD1  ASN X1001      16.059  38.790  29.663  1.00 97.91 LIG-0.27  OA
ENDBRANCH 48 49
ENDBRANCH 38 48
ENDBRANCH 34 38
ENDBRANCH 1 31
TORSDOF 19
ENDMDL
MODEL 13
USER: ADFR SOLUTION from run 139
USER: SCORE 14.500523 LL:  -3.230 LR: -12.110 RR:   0.000 FEB:  -6.442
USER: RMSD 10.634138
USER: SEED 138
USER: STATUS no improvement in best in 7 clusters for 5 generations
USER: GENES 21
USER: genes 0 Translation |==|  0.63995 0.67743 0.31980
USER: genes 1 Rotation |==|  0.34014 0.23063 0.13220 0.62888
USER: genes 2 Torsion [C]-N--CA-[CB] |==|  0.51722
USER: genes 3 Torsion [N]-CA--C-[N] |==|  0.43047
USER: genes 4 Torsion [C]-N--CA-[C] |==|  0.77778
USER: genes 5 Torsion [N]-CA--CB-[SG] |==|  0.74664
USER: genes 6 Torsion [CA]-CB--SG-[HG] |==|  0.04709
USER: genes 7 Torsion [N]-CA--C-[N] |==|  0.91937
USER: genes 8 Torsion [C]-N--CA-[CB] |==|  0.82972
USER: genes 9 Torsion [N]-CA--C-[N] |==|  0.42151
USER: genes 10 Torsion [C]-N--CA-[CB] |==|  0.16597
USER: genes 11 Torsion [N]-CA--C-[O] |==|  0.08710
USER: genes 12 Torsion [N]-CA--CB-[CG2] |==|  0.73861
USER: genes 13 Torsion [O]-C--CA-[N] |==|  0.42537
USER: genes 14 Torsion [N]-C--CA-[N] |==|  0.15098
USER: genes 15 Torsion [C]-CA--N-[C] |==|  0.63003
USER: genes 16 Torsion [N]-C--CA-[N] |==|  0.33388
USER: genes 17 Torsion [C]-CA--CB-[OG] |==|  0.29001
USER: genes 18 Torsion [CA]-CB--OG-[HG] |==|  0.94638
USER: genes 19 Torsion [C]-CA--CB-[CG] |==|  0.56932
USER: genes 20 Torsion [CA]-CB--CG-[ND2] |==|  0.82543
ROOT
ATOM      1  C   PRO X1002      19.488  41.301  23.021  1.00 98.27 LIG 0.24  C 
ATOM      2 O    PRO X1002      20.208  40.330  22.828  1.00 97.40 LIG-0.27  OA
ATOM      3  N   ALA X1003      19.055  41.660  24.226  1.00 97.43 LIG-0.35  N 
ATOM      4 H    ALA X1003      18.736  42.440  24.404  1.00 97.43 LIG 0.16  HD
ENDROOT
BRANCH 3 5
ATOM      5  CA  ALA X1003      19.081  40.751  25.373  1.00 96.73 LIG 0.17  C 
ATOM      6  CB  ALA X1003      18.391  41.380  26.562  1.00 96.74 LIG 0.04  C 
BRANCH 5 7
ATOM      7  C   ALA X1003      18.349  39.492  24.906  1.00 95.66 LIG 0.24  C 
ATOM      8 O    ALA X1003      17.525  39.583  24.011  1.00 95.14 LIG-0.27  OA
ATOM      9  N   CYS X1004      18.599  38.317  25.471  1.00 94.40 LIG-0.34  N 
ATOM     10 H    CYS X1004      18.350  37.583  25.097  1.00 94.40 LIG 0.16  HD
BRANCH 9 11
ATOM     11  CA  CYS X1004      19.291  38.072  26.737  1.00 94.17 LIG 0.18  C 
BRANCH 11 12
ATOM     12  CB  CYS X1004      18.888  36.660  27.218  1.00 94.12 LIG 0.10  C 
BRANCH 12 13
ATOM     13 SG   CYS X1004      17.482  36.490  28.284  1.00 91.26 LIG-0.18  SA
ATOM     14 HG   CYS X1004      16.819  37.489  28.236  1.00 91.26 LIG 0.10  HD
ENDBRANCH 12 13
ENDBRANCH 11 12
BRANCH 11 15
ATOM     15  C   CYS X1004      20.824  38.149  26.599  1.00 93.84 LIG 0.24  C 
ATOM     16 O    CYS X1004      21.524  38.536  27.522  1.00 93.01 LIG-0.27  OA
ATOM     17  N   VAL X1005      21.325  37.824  25.417  1.00 93.78 LIG-0.35  N 
ATOM     18 H    VAL X1005      20.841  37.682  24.720  1.00 93.78 LIG 0.16  HD
BRANCH 17 19
ATOM     19  CA  VAL X1005      22.764  37.675  25.180  1.00 93.73 LIG 0.18  C 
BRANCH 19 20
ATOM     20  C   VAL X1005      23.373  36.530  26.000  1.00 93.48 LIG 0.24  C 
ATOM     21  N   ALA X1006      24.445  35.933  25.482  1.00 93.27 LIG-0.35  N 
ATOM     22 H    ALA X1006      24.792  36.156  24.728  1.00 93.27 LIG 0.16  HD
ATOM     23 O    VAL X1005      22.873  36.193  27.068  1.00 93.20 LIG-0.27  OA
BRANCH 21 24
ATOM     24  CA  ALA X1006      25.142  34.835  26.150  1.00 93.01 LIG 0.16  C 
ATOM     25  CB  ALA X1006      24.208  33.679  26.357  1.00 92.79 LIG 0.04  C 
BRANCH 24 26
ATOM     26  C   ALA X1006      26.356  34.391  25.347  1.00 92.71 LIG 0.22  C 
ATOM     27 O    ALA X1006      26.991  35.185  24.660  1.00 91.80 LIG-0.29  OA
ENDBRANCH 24 26
ENDBRANCH 21 24
ENDBRANCH 19 20
BRANCH 19 28
ATOM     28  CB  VAL X1005      23.474  39.032  25.464  1.00 93.65 LIG 0.01  C 
ATOM     29  CG2 VAL X1005      23.608  39.806  24.174  1.00 92.72 LIG 0.01  C 
ATOM     30  CG1 VAL X1005      24.814  38.852  26.160  1.00 92.97 LIG 0.01  C 
ENDBRANCH 19 28
ENDBRANCH 17 19
ENDBRANCH 11 15
ENDBRANCH 9 11
ENDBRANCH 5 7
ENDBRANCH 3 5
BRANCH 1 31
ATOM     31  CA  PRO X1002      19.082  42.216  21.863  1.00 99.31 LIG 0.18  C 
ATOM     32  N   PRO X1002      17.811  42.926  22.030  1.00 99.88 LIG-0.34  N 
ATOM     33  CD  PRO X1002      18.036  44.343  22.329  1.00 99.70 LIG 0.13  C 
ATOM     34  C   ASN X1001      16.663  42.255  21.836  1.00100.64 LIG 0.24  C 
ATOM     35  CG  PRO X1002      19.273  44.608  21.579  1.00 99.65 LIG 0.02  C 
ATOM     36  CB  PRO X1002      20.094  43.358  21.717  1.00 99.37 LIG 0.04  C 
ATOM     37 O    ASN X1001      16.656  41.077  21.498  1.00100.22 LIG-0.27  OA
BRANCH 34 38
ATOM     38  CA  ASN X1001      15.337  43.039  21.941  1.00101.23 LIG 0.18  C 
BRANCH 38 39
ATOM     39  N   ASN X1001      15.443  44.176  21.016  1.00101.62 LIG-0.34  N 
ATOM     40  C   SER X1000      15.093  45.402  21.413  1.00101.89 LIG 0.26  C 
ATOM     41 O    SER X1000      14.308  45.600  22.350  1.00101.60 LIG-0.27  OA
ATOM     42 H    ASN X1001      15.738  43.982  20.231  1.00101.62 LIG 0.16  HD
BRANCH 40 43
ATOM     43  CA  SER X1000      15.700  46.588  20.650  1.00101.91 LIG 0.42  C 
ATOM     44  N   SER X1000      14.655  47.442  20.025  1.00101.55 LIG 0.62  N 
BRANCH 43 45
ATOM     45  CB  SER X1000      16.605  47.428  21.549  1.00101.96 LIG 0.21  C 
BRANCH 45 46
ATOM     46 OG   SER X1000      17.979  47.203  21.285  1.00101.15 LIG-0.40  OA
ATOM     47 HG   SER X1000      18.070  46.474  20.878  1.00101.15 LIG 0.21  HD
ENDBRANCH 45 46
ENDBRANCH 43 45
ENDBRANCH 40 43
ENDBRANCH 38 39
BRANCH 38 48
ATOM     48  CB  ASN X1001      14.044  42.214  21.714  1.00101.08 LIG 0.14  C 
BRANCH 48 49
ATOM     49  CG  ASN X1001      12.842  43.035  21.230  1.00100.04 LIG 0.22  C 
ATOM     50  ND2 ASN X1001      12.379  43.974  22.035  1.00 98.76 LIG-0.37  N 
ATOM     51 21HD ASN X1001      11.732  44.479  21.780  1.00 98.76 LIG 0.16  HD
ATOM     52 22HD ASN X1001      12.726  44.081  22.815  1.00 98.76 LIG 0.16  HD
ATOM     53 OD1  ASN X1001      12.379  42.849  20.113  1.00 97.91 LIG-0.27  OA
ENDBRANCH 48 49
ENDBRANCH 38 48
ENDBRANCH 34 38
ENDBRANCH 1 31
TORSDOF 19
ENDMDL
MODEL 14
USER: ADFR SOLUTION from run 85
USER: SCORE 14.404495 LL:  -3.492 LR: -12.040 RR:   0.000 FEB:  -6.373
USER: RMSD 8.788438
USER: SEED 84
USER: STATUS no improvement in best in 3 clusters for 5 generations
USER: GENES 21
USER: genes 0 Translation |==|  0.63755 0.54752 0.39846
USER: genes 1 Rotation |==|  0.95458 0.41354 0.68882 0.51512
USER: genes 2 Torsion [C]-N--CA-[CB] |==|  0.51111
USER: genes 3 Torsion [N]-CA--C-[N] |==|  0.38397
USER: genes 4 Torsion [C]-N--CA-[C] |==|  0.57571
USER: genes 5 Torsion [N]-CA--CB-[SG] |==|  0.54461
USER: genes 6 Torsion [CA]-CB--SG-[HG] |==|  0.52850
USER: genes 7 Torsion [N]-CA--C-[N] |==|  0.42379
USER: genes 8 Torsion [C]-N--CA-[CB] |==|  0.76505
USER: genes 9 Torsion [N]-CA--C-[N] |==|  0.25708
USER: genes 10 Torsion [C]-N--CA-[CB] |==|  0.86267
USER: genes 11 Torsion [N]-CA--C-[O] |==|  0.91593
USER: genes 12 Torsion [N]-CA--CB-[CG2] |==|  0.84955
USER: genes 13 Torsion [O]-C--CA-[N] |==|  0.10693
USER: genes 14 Torsion [N]-C--CA-[N] |==|  0.48880
USER: genes 15 Torsion [C]-CA--N-[C] |==|  0.70422
USER: genes 16 Torsion [N]-C--CA-[N] |==|  0.85364
USER: genes 17 Torsion [C]-CA--CB-[OG] |==|  0.43748
USER: genes 18 Torsion [CA]-CB--OG-[HG] |==|  0.56121
USER: genes 19 Torsion [C]-CA--CB-[CG] |==|  0.90447
USER: genes 20 Torsion [CA]-CB--CG-[ND2] |==|  0.88948
ROOT
ATOM      1  C   PRO X1002      19.430  38.670  24.555  1.00 98.27 LIG 0.24  C 
ATOM      2 O    PRO X1002      18.254  38.360  24.687  1.00 97.40 LIG-0.27  OA
ATOM      3  N   ALA X1003      20.437  37.912  24.978  1.00 97.43 LIG-0.35  N 
ATOM      4 H    ALA X1003      21.249  38.006  24.710  1.00 97.43 LIG 0.16  HD
ENDROOT
BRANCH 3 5
ATOM      5  CA  ALA X1003      20.253  36.834  25.952  1.00 96.73 LIG 0.17  C 
ATOM      6  CB  ALA X1003      21.583  36.215  26.313  1.00 96.74 LIG 0.04  C 
BRANCH 5 7
ATOM      7  C   ALA X1003      19.599  37.495  27.166  1.00 95.66 LIG 0.24  C 
ATOM      8 O    ALA X1003      20.003  38.585  27.537  1.00 95.14 LIG-0.27  OA
ATOM      9  N   CYS X1004      18.610  36.891  27.813  1.00 94.40 LIG-0.34  N 
ATOM     10 H    CYS X1004      18.108  37.324  28.362  1.00 94.40 LIG 0.16  HD
BRANCH 9 11
ATOM     11  CA  CYS X1004      18.220  35.483  27.719  1.00 94.17 LIG 0.18  C 
BRANCH 11 12
ATOM     12  CB  CYS X1004      19.082  34.698  28.735  1.00 94.12 LIG 0.10  C 
BRANCH 12 13
ATOM     13 SG   CYS X1004      19.182  32.935  28.588  1.00 91.26 LIG-0.18  SA
ATOM     14 HG   CYS X1004      19.718  32.481  29.561  1.00 91.26 LIG 0.10  HD
ENDBRANCH 12 13
ENDBRANCH 11 12
BRANCH 11 15
ATOM     15  C   CYS X1004      16.728  35.259  28.030  1.00 93.84 LIG 0.24  C 
ATOM     16 O    CYS X1004      16.126  35.989  28.802  1.00 93.01 LIG-0.27  OA
ATOM     17  N   VAL X1005      16.159  34.208  27.459  1.00 93.78 LIG-0.35  N 
ATOM     18 H    VAL X1005      16.598  33.610  27.025  1.00 93.78 LIG 0.16  HD
BRANCH 17 19
ATOM     19  CA  VAL X1005      14.714  33.964  27.511  1.00 93.73 LIG 0.18  C 
BRANCH 19 20
ATOM     20  C   VAL X1005      13.899  35.252  27.343  1.00 93.48 LIG 0.24  C 
ATOM     21  N   ALA X1006      13.523  35.560  26.103  1.00 93.27 LIG-0.35  N 
ATOM     22 H    ALA X1006      13.720  35.081  25.417  1.00 93.27 LIG 0.16  HD
ATOM     23 O    VAL X1005      13.630  35.951  28.314  1.00 93.20 LIG-0.27  OA
BRANCH 21 24
ATOM     24  CA  ALA X1006      12.734  36.748  25.785  1.00 93.01 LIG 0.16  C 
ATOM     25  CB  ALA X1006      11.542  36.836  26.692  1.00 92.79 LIG 0.04  C 
BRANCH 24 26
ATOM     26  C   ALA X1006      13.575  38.010  25.902  1.00 92.71 LIG 0.22  C 
ATOM     27 O    ALA X1006      14.507  38.083  26.697  1.00 91.80 LIG-0.29  OA
ENDBRANCH 24 26
ENDBRANCH 21 24
ENDBRANCH 19 20
BRANCH 19 28
ATOM     28  CB  VAL X1005      14.367  33.227  28.839  1.00 93.65 LIG 0.01  C 
ATOM     29  CG2 VAL X1005      15.215  31.982  28.958  1.00 92.72 LIG 0.01  C 
ATOM     30  CG1 VAL X1005      12.884  32.917  28.960  1.00 92.97 LIG 0.01  C 
ENDBRANCH 19 28
ENDBRANCH 17 19
ENDBRANCH 11 15
ENDBRANCH 9 11
ENDBRANCH 5 7
ENDBRANCH 3 5
BRANCH 1 31
ATOM     31  CA  PRO X1002      19.821  39.956  23.821  1.00 99.31 LIG 0.18  C 
ATOM     32  N   PRO X1002      18.955  41.112  24.064  1.00 99.88 LIG-0.34  N 
ATOM     33  CD  PRO X1002      19.610  42.085  24.944  1.00 99.70 LIG 0.13  C 
ATOM     34  C   ASN X1001      17.767  41.176  23.438  1.00100.64 LIG 0.24  C 
ATOM     35  CG  PRO X1002      21.021  41.916  24.569  1.00 99.65 LIG 0.02  C 
ATOM     36  CB  PRO X1002      21.188  40.445  24.312  1.00 99.37 LIG 0.04  C 
ATOM     37 O    ASN X1001      17.407  40.307  22.653  1.00100.22 LIG-0.27  OA
BRANCH 34 38
ATOM     38  CA  ASN X1001      16.903  42.439  23.645  1.00101.23 LIG 0.18  C 
BRANCH 38 39
ATOM     39  N   ASN X1001      15.722  42.289  22.782  1.00101.62 LIG-0.34  N 
ATOM     40  C   SER X1000      15.608  43.014  21.667  1.00101.89 LIG 0.26  C 
ATOM     41 O    SER X1000      16.205  44.088  21.506  1.00101.60 LIG-0.27  OA
ATOM     42 H    ASN X1001      15.141  41.717  23.055  1.00101.62 LIG 0.16  HD
BRANCH 40 43
ATOM     43  CA  SER X1000      14.686  42.471  20.565  1.00101.91 LIG 0.42  C 
ATOM     44  N   SER X1000      15.019  41.068  20.203  1.00101.55 LIG 0.62  N 
BRANCH 43 45
ATOM     45  CB  SER X1000      13.215  42.583  20.960  1.00101.96 LIG 0.21  C 
BRANCH 45 46
ATOM     46 OG   SER X1000      12.357  42.583  19.832  1.00101.15 LIG-0.40  OA
ATOM     47 HG   SER X1000      11.624  42.937  20.037  1.00101.15 LIG 0.21  HD
ENDBRANCH 45 46
ENDBRANCH 43 45
ENDBRANCH 40 43
ENDBRANCH 38 39
BRANCH 38 48
ATOM     48  CB  ASN X1001      16.521  42.764  25.112  1.00101.08 LIG 0.14  C 
BRANCH 48 49
ATOM     49  CG  ASN X1001      16.290  41.533  25.998  1.00100.04 LIG 0.22  C 
ATOM     50  ND2 ASN X1001      15.654  40.506  25.464  1.00 98.76 LIG-0.37  N 
ATOM     51 21HD ASN X1001      15.542  39.785  25.920  1.00 98.76 LIG 0.16  HD
ATOM     52 22HD ASN X1001      15.352  40.557  24.660  1.00 98.76 LIG 0.16  HD
ATOM     53 OD1  ASN X1001      16.735  41.502  27.137  1.00 97.91 LIG-0.27  OA
ENDBRANCH 48 49
ENDBRANCH 38 48
ENDBRANCH 34 38
ENDBRANCH 1 31
TORSDOF 19
ENDMDL
MODEL 15
USER: ADFR SOLUTION from run 190
USER: SCORE 14.905996 LL:  -3.750 LR: -12.034 RR:   0.000 FEB:  -6.366
USER: RMSD 9.829067
USER: SEED 189
USER: STATUS no improvement in best in 3 clusters for 5 generations
USER: GENES 21
USER: genes 0 Translation |==|  0.54198 0.70494 0.26741
USER: genes 1 Rotation |==|  0.42078 0.37753 0.94880 0.66524
USER: genes 2 Torsion [C]-N--CA-[CB] |==|  0.15350
USER: genes 3 Torsion [N]-CA--C-[N] |==|  0.11221
USER: genes 4 Torsion [C]-N--CA-[C] |==|  0.67222
USER: genes 5 Torsion [N]-CA--CB-[SG] |==|  0.05159
USER: genes 6 Torsion [CA]-CB--SG-[HG] |==|  0.08082
USER: genes 7 Torsion [N]-CA--C-[N] |==|  0.33859
USER: genes 8 Torsion [C]-N--CA-[CB] |==|  0.83084
USER: genes 9 Torsion [N]-CA--C-[N] |==|  0.39261
USER: genes 10 Torsion [C]-N--CA-[CB] |==|  0.12393
USER: genes 11 Torsion [N]-CA--C-[O] |==|  0.98427
USER: genes 12 Torsion [N]-CA--CB-[CG2] |==|  0.67708
USER: genes 13 Torsion [O]-C--CA-[N] |==|  0.91969
USER: genes 14 Torsion [N]-C--CA-[N] |==|  0.13206
USER: genes 15 Torsion [C]-CA--N-[C] |==|  0.61168
USER: genes 16 Torsion [N]-C--CA-[N] |==|  0.37736
USER: genes 17 Torsion [C]-CA--CB-[OG] |==|  0.87880
USER: genes 18 Torsion [CA]-CB--OG-[HG] |==|  0.76635
USER: genes 19 Torsion [C]-CA--CB-[CG] |==|  0.59229
USER: genes 20 Torsion [CA]-CB--CG-[ND2] |==|  0.80485
ROOT
ATOM      1  C   PRO X1002      17.136  41.858  21.999  1.00 98.27 LIG 0.24  C 
ATOM      2 O    PRO X1002      17.588  41.294  21.012  1.00 97.40 LIG-0.27  OA
ATOM      3  N   ALA X1003      15.869  42.248  22.102  1.00 97.43 LIG-0.35  N 
ATOM      4 H    ALA X1003      15.491  42.445  22.849  1.00 97.43 LIG 0.16  HD
ENDROOT
BRANCH 3 5
ATOM      5  CA  ALA X1003      14.992  42.379  20.937  1.00 96.73 LIG 0.17  C 
ATOM      6  CB  ALA X1003      14.948  41.083  20.160  1.00 96.74 LIG 0.04  C 
BRANCH 5 7
ATOM      7  C   ALA X1003      13.618  42.733  21.505  1.00 95.66 LIG 0.24  C 
ATOM      8 O    ALA X1003      12.622  42.228  21.010  1.00 95.14 LIG-0.27  OA
ATOM      9  N   CYS X1004      13.504  43.584  22.518  1.00 94.40 LIG-0.34  N 
ATOM     10 H    CYS X1004      12.774  43.642  22.969  1.00 94.40 LIG 0.16  HD
BRANCH 9 11
ATOM     11  CA  CYS X1004      14.523  44.511  23.013  1.00 94.17 LIG 0.18  C 
BRANCH 11 12
ATOM     12  CB  CYS X1004      13.934  45.937  22.918  1.00 94.12 LIG 0.10  C 
BRANCH 12 13
ATOM     13 SG   CYS X1004      12.178  46.128  22.772  1.00 91.26 LIG-0.18  SA
ATOM     14 HG   CYS X1004      11.629  45.208  23.312  1.00 91.26 LIG 0.10  HD
ENDBRANCH 12 13
ENDBRANCH 11 12
BRANCH 11 15
ATOM     15  C   CYS X1004      14.930  44.220  24.470  1.00 93.84 LIG 0.24  C 
ATOM     16 O    CYS X1004      14.114  44.270  25.377  1.00 93.01 LIG-0.27  OA
ATOM     17  N   VAL X1005      16.212  43.968  24.684  1.00 93.78 LIG-0.35  N 
ATOM     18 H    VAL X1005      16.820  44.062  24.083  1.00 93.78 LIG 0.16  HD
BRANCH 17 19
ATOM     19  CA  VAL X1005      16.723  43.499  25.976  1.00 93.73 LIG 0.18  C 
BRANCH 19 20
ATOM     20  C   VAL X1005      16.168  42.121  26.357  1.00 93.48 LIG 0.24  C 
ATOM     21  N   ALA X1006      17.015  41.282  26.951  1.00 93.27 LIG-0.35  N 
ATOM     22 H    ALA X1006      17.835  41.479  27.117  1.00 93.27 LIG 0.16  HD
ATOM     23 O    VAL X1005      15.004  41.826  26.105  1.00 93.20 LIG-0.27  OA
BRANCH 21 24
ATOM     24  CA  ALA X1006      16.631  39.939  27.381  1.00 93.01 LIG 0.16  C 
ATOM     25  CB  ALA X1006      15.830  39.261  26.309  1.00 92.79 LIG 0.04  C 
BRANCH 24 26
ATOM     26  C   ALA X1006      17.856  39.106  27.727  1.00 92.71 LIG 0.22  C 
ATOM     27 O    ALA X1006      18.991  39.532  27.535  1.00 91.80 LIG-0.29  OA
ENDBRANCH 24 26
ENDBRANCH 21 24
ENDBRANCH 19 20
BRANCH 19 28
ATOM     28  CB  VAL X1005      16.416  44.569  27.066  1.00 93.65 LIG 0.01  C 
ATOM     29  CG2 VAL X1005      17.715  45.113  27.613  1.00 92.72 LIG 0.01  C 
ATOM     30  CG1 VAL X1005      15.517  44.032  28.169  1.00 92.97 LIG 0.01  C 
ENDBRANCH 19 28
ENDBRANCH 17 19
ENDBRANCH 11 15
ENDBRANCH 9 11
ENDBRANCH 5 7
ENDBRANCH 3 5
BRANCH 1 31
ATOM     31  CA  PRO X1002      18.014  42.100  23.231  1.00 99.31 LIG 0.18  C 
ATOM     32  N   PRO X1002      19.086  41.125  23.447  1.00 99.88 LIG-0.34  N 
ATOM     33  CD  PRO X1002      20.392  41.695  23.103  1.00 99.70 LIG 0.13  C 
ATOM     34  C   ASN X1001      18.777  39.924  23.965  1.00100.64 LIG 0.24  C 
ATOM     35  CG  PRO X1002      20.198  43.108  23.458  1.00 99.65 LIG 0.02  C 
ATOM     36  CB  PRO X1002      18.778  43.420  23.080  1.00 99.37 LIG 0.04  C 
ATOM     37 O    ASN X1001      17.629  39.638  24.284  1.00100.22 LIG-0.27  OA
BRANCH 34 38
ATOM     38  CA  ASN X1001      19.930  38.940  24.257  1.00101.23 LIG 0.18  C 
BRANCH 38 39
ATOM     39  N   ASN X1001      20.963  39.700  24.976  1.00101.62 LIG-0.34  N 
ATOM     40  C   SER X1000      22.255  39.505  24.702  1.00101.89 LIG 0.26  C 
ATOM     41 O    SER X1000      22.678  38.458  24.192  1.00101.60 LIG-0.27  OA
ATOM     42 H    ASN X1001      20.666  40.255  25.562  1.00101.62 LIG 0.16  HD
BRANCH 40 43
ATOM     43  CA  SER X1000      23.228  40.640  25.053  1.00101.91 LIG 0.42  C 
ATOM     44  N   SER X1000      24.463  40.132  25.708  1.00101.55 LIG 0.62  N 
BRANCH 43 45
ATOM     45  CB  SER X1000      23.583  41.474  23.824  1.00101.96 LIG 0.21  C 
BRANCH 45 46
ATOM     46 OG   SER X1000      23.847  40.667  22.688  1.00101.15 LIG-0.40  OA
ATOM     47 HG   SER X1000      24.647  40.411  22.707  1.00101.15 LIG 0.21  HD
ENDBRANCH 45 46
ENDBRANCH 43 45
ENDBRANCH 40 43
ENDBRANCH 38 39
BRANCH 38 48
ATOM     48  CB  ASN X1001      19.536  37.638  24.999  1.00101.08 LIG 0.14  C 
BRANCH 48 49
ATOM     49  CG  ASN X1001      20.611  37.095  25.950  1.00100.04 LIG 0.22  C 
ATOM     50  ND2 ASN X1001      21.702  36.583  25.410  1.00 98.76 LIG-0.37  N 
ATOM     51 21HD ASN X1001      22.341  36.306  25.913  1.00 98.76 LIG 0.16  HD
ATOM     52 22HD ASN X1001      21.773  36.527  24.554  1.00 98.76 LIG 0.16  HD
ATOM     53 OD1  ASN X1001      20.468  37.194  27.160  1.00 97.91 LIG-0.27  OA
ENDBRANCH 48 49
ENDBRANCH 38 48
ENDBRANCH 34 38
ENDBRANCH 1 31
TORSDOF 19
ENDMDL
MODEL 16
USER: ADFR SOLUTION from run 149
USER: SCORE 13.928561 LL:  -3.081 LR: -12.034 RR:   0.000 FEB:  -6.366
USER: RMSD 8.919080
USER: SEED 148
USER: STATUS no improvement in best in 6 clusters for 5 generations
USER: GENES 21
USER: genes 0 Translation |==|  0.64763 0.54406 0.53266
USER: genes 1 Rotation |==|  0.44926 0.81219 0.59588 0.87519
USER: genes 2 Torsion [C]-N--CA-[CB] |==|  0.53574
USER: genes 3 Torsion [N]-CA--C-[N] |==|  0.35676
USER: genes 4 Torsion [C]-N--CA-[C] |==|  0.17936
USER: genes 5 Torsion [N]-CA--CB-[SG] |==|  0.35992
USER: genes 6 Torsion [CA]-CB--SG-[HG] |==|  0.32204
USER: genes 7 Torsion [N]-CA--C-[N] |==|  0.01875
USER: genes 8 Torsion [C]-N--CA-[CB] |==|  0.77613
USER: genes 9 Torsion [N]-CA--C-[N] |==|  0.51026
USER: genes 10 Torsion [C]-N--CA-[CB] |==|  0.37976
USER: genes 11 Torsion [N]-CA--C-[O] |==|  0.96534
USER: genes 12 Torsion [N]-CA--CB-[CG2] |==|  0.25164
USER: genes 13 Torsion [O]-C--CA-[N] |==|  0.50832
USER: genes 14 Torsion [N]-C--CA-[N] |==|  0.86667
USER: genes 15 Torsion [C]-CA--N-[C] |==|  0.83397
USER: genes 16 Torsion [N]-C--CA-[N] |==|  0.11147
USER: genes 17 Torsion [C]-CA--CB-[OG] |==|  0.90390
USER: genes 18 Torsion [CA]-CB--OG-[HG] |==|  0.88659
USER: genes 19 Torsion [C]-CA--CB-[CG] |==|  0.50561
USER: genes 20 Torsion [CA]-CB--CG-[ND2] |==|  0.71120
ROOT
ATOM      1  C   PRO X1002      19.672  38.600  27.172  1.00 98.27 LIG 0.24  C 
ATOM      2 O    PRO X1002      18.558  38.794  27.639  1.00 97.40 LIG-0.27  OA
ATOM      3  N   ALA X1003      20.171  39.301  26.158  1.00 97.43 LIG-0.35  N 
ATOM      4 H    ALA X1003      21.008  39.326  25.963  1.00 97.43 LIG 0.16  HD
ENDROOT
BRANCH 3 5
ATOM      5  CA  ALA X1003      19.328  40.105  25.270  1.00 96.73 LIG 0.17  C 
ATOM      6  CB  ALA X1003      20.105  40.527  24.044  1.00 96.74 LIG 0.04  C 
BRANCH 5 7
ATOM      7  C   ALA X1003      18.154  39.199  24.900  1.00 95.66 LIG 0.24  C 
ATOM      8 O    ALA X1003      18.380  38.083  24.462  1.00 95.14 LIG-0.27  OA
ATOM      9  N   CYS X1004      16.903  39.621  25.045  1.00 94.40 LIG-0.34  N 
ATOM     10 H    CYS X1004      16.244  39.069  25.031  1.00 94.40 LIG 0.16  HD
BRANCH 9 11
ATOM     11  CA  CYS X1004      16.451  41.000  25.241  1.00 94.17 LIG 0.18  C 
BRANCH 11 12
ATOM     12  CB  CYS X1004      17.185  41.553  26.484  1.00 94.12 LIG 0.10  C 
BRANCH 12 13
ATOM     13 SG   CYS X1004      18.014  43.115  26.362  1.00 91.26 LIG-0.18  SA
ATOM     14 HG   CYS X1004      17.491  43.905  27.098  1.00 91.26 LIG 0.10  HD
ENDBRANCH 12 13
ENDBRANCH 11 12
BRANCH 11 15
ATOM     15  C   CYS X1004      16.750  41.899  24.026  1.00 93.84 LIG 0.24  C 
ATOM     16 O    CYS X1004      16.509  43.096  24.050  1.00 93.01 LIG-0.27  OA
ATOM     17  N   VAL X1005      17.229  41.294  22.949  1.00 93.78 LIG-0.35  N 
ATOM     18 H    VAL X1005      17.277  40.440  22.869  1.00 93.78 LIG 0.16  HD
BRANCH 17 19
ATOM     19  CA  VAL X1005      17.729  42.029  21.784  1.00 93.73 LIG 0.18  C 
BRANCH 19 20
ATOM     20  C   VAL X1005      18.617  43.216  22.180  1.00 93.48 LIG 0.24  C 
ATOM     21  N   ALA X1006      19.055  43.989  21.187  1.00 93.27 LIG-0.35  N 
ATOM     22 H    ALA X1006      18.868  43.846  20.360  1.00 93.27 LIG 0.16  HD
ATOM     23 O    VAL X1005      18.903  43.414  23.356  1.00 93.20 LIG-0.27  OA
BRANCH 21 24
ATOM     24  CA  ALA X1006      19.900  45.161  21.407  1.00 93.01 LIG 0.16  C 
ATOM     25  CB  ALA X1006      21.005  45.200  20.394  1.00 92.79 LIG 0.04  C 
BRANCH 24 26
ATOM     26  C   ALA X1006      19.083  46.442  21.342  1.00 92.71 LIG 0.22  C 
ATOM     27 O    ALA X1006      17.934  46.444  20.910  1.00 91.80 LIG-0.29  OA
ENDBRANCH 24 26
ENDBRANCH 21 24
ENDBRANCH 19 20
BRANCH 19 28
ATOM     28  CB  VAL X1005      16.524  42.476  20.904  1.00 93.65 LIG 0.01  C 
ATOM     29  CG2 VAL X1005      16.062  43.845  21.345  1.00 92.72 LIG 0.01  C 
ATOM     30  CG1 VAL X1005      15.389  41.463  20.917  1.00 92.97 LIG 0.01  C 
ENDBRANCH 19 28
ENDBRANCH 17 19
ENDBRANCH 11 15
ENDBRANCH 9 11
ENDBRANCH 5 7
ENDBRANCH 3 5
BRANCH 1 31
ATOM     31  CA  PRO X1002      20.605  37.552  27.785  1.00 99.31 LIG 0.18  C 
ATOM     32  N   PRO X1002      21.937  37.459  27.182  1.00 99.88 LIG-0.34  N 
ATOM     33  CD  PRO X1002      22.952  38.053  28.057  1.00 99.70 LIG 0.13  C 
ATOM     34  C   ASN X1001      22.076  36.823  26.007  1.00100.64 LIG 0.24  C 
ATOM     35  CG  PRO X1002      22.401  37.758  29.388  1.00 99.65 LIG 0.02  C 
ATOM     36  CB  PRO X1002      20.913  37.911  29.242  1.00 99.37 LIG 0.04  C 
ATOM     37 O    ASN X1001      21.122  36.298  25.444  1.00100.22 LIG-0.27  OA
BRANCH 34 38
ATOM     38  CA  ASN X1001      23.498  36.668  25.426  1.00101.23 LIG 0.18  C 
BRANCH 38 39
ATOM     39  N   ASN X1001      24.134  37.991  25.507  1.00101.62 LIG-0.34  N 
ATOM     40  C   SER X1000      23.596  39.037  24.874  1.00101.89 LIG 0.26  C 
ATOM     41 O    SER X1000      22.843  38.910  23.899  1.00101.60 LIG-0.27  OA
ATOM     42 H    ASN X1001      24.852  38.023  25.980  1.00101.62 LIG 0.16  HD
BRANCH 40 43
ATOM     43  CA  SER X1000      23.952  40.436  25.397  1.00101.91 LIG 0.42  C 
ATOM     44  N   SER X1000      25.384  40.538  25.786  1.00101.55 LIG 0.62  N 
BRANCH 43 45
ATOM     45  CB  SER X1000      23.599  41.520  24.381  1.00101.96 LIG 0.21  C 
BRANCH 45 46
ATOM     46 OG   SER X1000      23.787  41.083  23.046  1.00101.15 LIG-0.40  OA
ATOM     47 HG   SER X1000      24.494  40.633  22.996  1.00101.15 LIG 0.21  HD
ENDBRANCH 45 46
ENDBRANCH 43 45
ENDBRANCH 40 43
ENDBRANCH 38 39
BRANCH 38 48
ATOM     48  CB  ASN X1001      24.371  35.557  26.063  1.00101.08 LIG 0.14  C 
BRANCH 48 49
ATOM     49  CG  ASN X1001      25.794  35.462  25.497  1.00100.04 LIG 0.22  C 
ATOM     50  ND2 ASN X1001      26.054  34.474  24.660  1.00 98.76 LIG-0.37  N 
ATOM     51 21HD ASN X1001      26.830  34.414  24.294  1.00 98.76 LIG 0.16  HD
ATOM     52 22HD ASN X1001      25.447  33.891  24.481  1.00 98.76 LIG 0.16  HD
ATOM     53 OD1  ASN X1001      26.626  36.312  25.780  1.00 97.91 LIG-0.27  OA
ENDBRANCH 48 49
ENDBRANCH 38 48
ENDBRANCH 34 38
ENDBRANCH 1 31
TORSDOF 19
ENDMDL
MODEL 17
USER: ADFR SOLUTION from run 139
USER: SCORE 13.565702 LL:  -2.767 LR: -12.003 RR:   0.000 FEB:  -6.335
USER: RMSD 10.209850
USER: SEED 138
USER: STATUS no improvement in best in 7 clusters for 5 generations
USER: GENES 21
USER: genes 0 Translation |==|  0.57788 0.65295 0.37292
USER: genes 1 Rotation |==|  0.08595 0.43228 0.24003 0.57997
USER: genes 2 Torsion [C]-N--CA-[CB] |==|  0.87617
USER: genes 3 Torsion [N]-CA--C-[N] |==|  0.40544
USER: genes 4 Torsion [C]-N--CA-[C] |==|  0.61811
USER: genes 5 Torsion [N]-CA--CB-[SG] |==|  0.19632
USER: genes 6 Torsion [CA]-CB--SG-[HG] |==|  0.05052
USER: genes 7 Torsion [N]-CA--C-[N] |==|  0.02330
USER: genes 8 Torsion [C]-N--CA-[CB] |==|  0.85554
USER: genes 9 Torsion [N]-CA--C-[N] |==|  0.88527
USER: genes 10 Torsion [C]-N--CA-[CB] |==|  0.16398
USER: genes 11 Torsion [N]-CA--C-[O] |==|  0.92136
USER: genes 12 Torsion [N]-CA--CB-[CG2] |==|  0.80770
USER: genes 13 Torsion [O]-C--CA-[N] |==|  0.05850
USER: genes 14 Torsion [N]-C--CA-[N] |==|  0.15474
USER: genes 15 Torsion [C]-CA--N-[C] |==|  0.66257
USER: genes 16 Torsion [N]-C--CA-[N] |==|  0.59417
USER: genes 17 Torsion [C]-CA--CB-[OG] |==|  0.18965
USER: genes 18 Torsion [CA]-CB--OG-[HG] |==|  0.00693
USER: genes 19 Torsion [C]-CA--CB-[CG] |==|  0.54798
USER: genes 20 Torsion [CA]-CB--CG-[ND2] |==|  0.89598
ROOT
ATOM      1  C   PRO X1002      17.998  40.805  24.057  1.00 98.27 LIG 0.24  C 
ATOM      2 O    PRO X1002      17.334  39.815  23.781  1.00 97.40 LIG-0.27  OA
ATOM      3  N   ALA X1003      19.053  40.774  24.866  1.00 97.43 LIG-0.35  N 
ATOM      4 H    ALA X1003      19.645  41.398  24.900  1.00 97.43 LIG 0.16  HD
ENDROOT
BRANCH 3 5
ATOM      5  CA  ALA X1003      19.306  39.662  25.783  1.00 96.73 LIG 0.17  C 
ATOM      6  CB  ALA X1003      18.033  39.263  26.494  1.00 96.74 LIG 0.04  C 
BRANCH 5 7
ATOM      7  C   ALA X1003      19.832  38.527  24.904  1.00 95.66 LIG 0.24  C 
ATOM      8 O    ALA X1003      19.397  38.404  23.770  1.00 95.14 LIG-0.27  OA
ATOM      9  N   CYS X1004      20.744  37.679  25.368  1.00 94.40 LIG-0.34  N 
ATOM     10 H    CYS X1004      21.186  37.169  24.835  1.00 94.40 LIG 0.16  HD
BRANCH 9 11
ATOM     11  CA  CYS X1004      21.132  37.474  26.764  1.00 94.17 LIG 0.18  C 
BRANCH 11 12
ATOM     12  CB  CYS X1004      20.442  36.179  27.249  1.00 94.12 LIG 0.10  C 
BRANCH 12 13
ATOM     13 SG   CYS X1004      21.007  34.622  26.616  1.00 91.26 LIG-0.18  SA
ATOM     14 HG   CYS X1004      22.101  34.756  26.143  1.00 91.26 LIG 0.10  HD
ENDBRANCH 12 13
ENDBRANCH 11 12
BRANCH 11 15
ATOM     15  C   CYS X1004      22.656  37.342  26.942  1.00 93.84 LIG 0.24  C 
ATOM     16 O    CYS X1004      23.145  37.061  28.025  1.00 93.01 LIG-0.27  OA
ATOM     17  N   VAL X1005      23.398  37.598  25.875  1.00 93.78 LIG-0.35  N 
ATOM     18 H    VAL X1005      23.081  37.927  25.146  1.00 93.78 LIG 0.16  HD
BRANCH 17 19
ATOM     19  CA  VAL X1005      24.841  37.344  25.833  1.00 93.73 LIG 0.18  C 
BRANCH 19 20
ATOM     20  C   VAL X1005      25.166  35.846  25.750  1.00 93.48 LIG 0.24  C 
ATOM     21  N   ALA X1006      24.433  35.036  26.512  1.00 93.27 LIG-0.35  N 
ATOM     22 H    ALA X1006      23.810  35.315  27.034  1.00 93.27 LIG 0.16  HD
ATOM     23 O    VAL X1005      26.067  35.444  25.022  1.00 93.20 LIG-0.27  OA
BRANCH 21 24
ATOM     24  CA  ALA X1006      24.617  33.586  26.534  1.00 93.01 LIG 0.16  C 
ATOM     25  CB  ALA X1006      26.018  33.248  26.950  1.00 92.79 LIG 0.04  C 
BRANCH 24 26
ATOM     26  C   ALA X1006      23.618  32.924  27.469  1.00 92.71 LIG 0.22  C 
ATOM     27 O    ALA X1006      23.163  33.519  28.441  1.00 91.80 LIG-0.29  OA
ENDBRANCH 24 26
ENDBRANCH 21 24
ENDBRANCH 19 20
BRANCH 19 28
ATOM     28  CB  VAL X1005      25.516  38.016  27.065  1.00 93.65 LIG 0.01  C 
ATOM     29  CG2 VAL X1005      25.459  39.518  26.910  1.00 92.72 LIG 0.01  C 
ATOM     30  CG1 VAL X1005      26.937  37.523  27.290  1.00 92.97 LIG 0.01  C 
ENDBRANCH 19 28
ENDBRANCH 17 19
ENDBRANCH 11 15
ENDBRANCH 9 11
ENDBRANCH 5 7
ENDBRANCH 3 5
BRANCH 1 31
ATOM     31  CA  PRO X1002      17.680  42.162  23.422  1.00 99.31 LIG 0.18  C 
ATOM     32  N   PRO X1002      16.322  42.310  22.891  1.00 99.88 LIG-0.34  N 
ATOM     33  CD  PRO X1002      15.506  43.160  23.763  1.00 99.70 LIG 0.13  C 
ATOM     34  C   ASN X1001      16.021  41.743  21.710  1.00100.64 LIG 0.24  C 
ATOM     35  CG  PRO X1002      16.514  44.093  24.289  1.00 99.65 LIG 0.02  C 
ATOM     36  CB  PRO X1002      17.754  43.267  24.480  1.00 99.37 LIG 0.04  C 
ATOM     37 O    ASN X1001      16.860  41.131  21.059  1.00100.22 LIG-0.27  OA
BRANCH 34 38
ATOM     38  CA  ASN X1001      14.610  41.975  21.131  1.00101.23 LIG 0.18  C 
BRANCH 38 39
ATOM     39  N   ASN X1001      14.420  43.431  21.050  1.00101.62 LIG-0.34  N 
ATOM     40  C   SER X1000      13.408  44.014  21.696  1.00101.89 LIG 0.26  C 
ATOM     41 O    SER X1000      12.383  43.401  22.023  1.00101.60 LIG-0.27  OA
ATOM     42 H    ASN X1001      14.997  43.848  20.568  1.00101.62 LIG 0.16  HD
BRANCH 40 43
ATOM     43  CA  SER X1000      13.551  45.508  22.025  1.00101.91 LIG 0.42  C 
ATOM     44  N   SER X1000      12.898  45.859  23.314  1.00101.55 LIG 0.62  N 
BRANCH 43 45
ATOM     45  CB  SER X1000      15.015  45.942  22.034  1.00101.96 LIG 0.21  C 
BRANCH 45 46
ATOM     46 OG   SER X1000      15.591  45.908  20.740  1.00101.15 LIG-0.40  OA
ATOM     47 HG   SER X1000      15.008  45.684  20.179  1.00101.15 LIG 0.21  HD
ENDBRANCH 45 46
ENDBRANCH 43 45
ENDBRANCH 40 43
ENDBRANCH 38 39
BRANCH 38 48
ATOM     48  CB  ASN X1001      14.306  41.268  19.786  1.00101.08 LIG 0.14  C 
BRANCH 48 49
ATOM     49  CG  ASN X1001      13.092  41.826  19.031  1.00100.04 LIG 0.22  C 
ATOM     50  ND2 ASN X1001      12.050  42.208  19.747  1.00 98.76 LIG-0.37  N 
ATOM     51 21HD ASN X1001      11.369  42.562  19.360  1.00 98.76 LIG 0.16  HD
ATOM     52 22HD ASN X1001      12.053  42.103  20.601  1.00 98.76 LIG 0.16  HD
ATOM     53 OD1  ASN X1001      13.130  41.957  17.816  1.00 97.91 LIG-0.27  OA
ENDBRANCH 48 49
ENDBRANCH 38 48
ENDBRANCH 34 38
ENDBRANCH 1 31
TORSDOF 19
ENDMDL
MODEL 18
USER: ADFR SOLUTION from run 172
USER: SCORE 14.126384 LL:  -2.893 LR: -11.980 RR:   0.000 FEB:  -6.312
USER: RMSD 8.931066
USER: SEED 171
USER: STATUS no improvement in best in 12 clusters for 5 generations
USER: GENES 21
USER: genes 0 Translation |==|  0.63407 0.57122 0.50249
USER: genes 1 Rotation |==|  0.44556 0.75661 0.58112 0.91786
USER: genes 2 Torsion [C]-N--CA-[CB] |==|  0.51670
USER: genes 3 Torsion [N]-CA--C-[N] |==|  0.45665
USER: genes 4 Torsion [C]-N--CA-[C] |==|  0.75259
USER: genes 5 Torsion [N]-CA--CB-[SG] |==|  0.21812
USER: genes 6 Torsion [CA]-CB--SG-[HG] |==|  0.93689
USER: genes 7 Torsion [N]-CA--C-[N] |==|  0.85157
USER: genes 8 Torsion [C]-N--CA-[CB] |==|  0.80485
USER: genes 9 Torsion [N]-CA--C-[N] |==|  0.34475
USER: genes 10 Torsion [C]-N--CA-[CB] |==|  0.16072
USER: genes 11 Torsion [N]-CA--C-[O] |==|  0.23444
USER: genes 12 Torsion [N]-CA--CB-[CG2] |==|  0.87842
USER: genes 13 Torsion [O]-C--CA-[N] |==|  0.48059
USER: genes 14 Torsion [N]-C--CA-[N] |==|  0.87222
USER: genes 15 Torsion [C]-CA--N-[C] |==|  0.83828
USER: genes 16 Torsion [N]-C--CA-[N] |==|  0.11187
USER: genes 17 Torsion [C]-CA--CB-[OG] |==|  0.61679
USER: genes 18 Torsion [CA]-CB--OG-[HG] |==|  0.26625
USER: genes 19 Torsion [C]-CA--CB-[CG] |==|  0.56462
USER: genes 20 Torsion [CA]-CB--CG-[ND2] |==|  0.37241
ROOT
ATOM      1  C   PRO X1002      19.347  39.150  26.584  1.00 98.27 LIG 0.24  C 
ATOM      2 O    PRO X1002      18.156  39.393  26.724  1.00 97.40 LIG-0.27  OA
ATOM      3  N   ALA X1003      20.139  39.833  25.762  1.00 97.43 LIG-0.35  N 
ATOM      4 H    ALA X1003      20.998  39.820  25.809  1.00 97.43 LIG 0.16  HD
ENDROOT
BRANCH 3 5
ATOM      5  CA  ALA X1003      19.614  40.680  24.689  1.00 96.73 LIG 0.17  C 
ATOM      6  CB  ALA X1003      20.742  41.209  23.833  1.00 96.74 LIG 0.04  C 
BRANCH 5 7
ATOM      7  C   ALA X1003      18.680  39.777  23.883  1.00 95.66 LIG 0.24  C 
ATOM      8 O    ALA X1003      18.753  38.567  24.029  1.00 95.14 LIG-0.27  OA
ATOM      9  N   CYS X1004      17.806  40.297  23.029  1.00 94.40 LIG-0.34  N 
ATOM     10 H    CYS X1004      17.153  39.829  22.722  1.00 94.40 LIG 0.16  HD
BRANCH 9 11
ATOM     11  CA  CYS X1004      17.796  41.660  22.495  1.00 94.17 LIG 0.18  C 
BRANCH 11 12
ATOM     12  CB  CYS X1004      17.157  41.598  21.089  1.00 94.12 LIG 0.10  C 
BRANCH 12 13
ATOM     13 SG   CYS X1004      15.393  41.489  20.956  1.00 91.26 LIG-0.18  SA
ATOM     14 HG   CYS X1004      14.941  41.041  21.974  1.00 91.26 LIG 0.10  HD
ENDBRANCH 12 13
ENDBRANCH 11 12
BRANCH 11 15
ATOM     15  C   CYS X1004      16.998  42.637  23.379  1.00 93.84 LIG 0.24  C 
ATOM     16 O    CYS X1004      17.510  43.655  23.819  1.00 93.01 LIG-0.27  OA
ATOM     17  N   VAL X1005      15.755  42.285  23.673  1.00 93.78 LIG-0.35  N 
ATOM     18 H    VAL X1005      15.426  41.513  23.486  1.00 93.78 LIG 0.16  HD
BRANCH 17 19
ATOM     19  CA  VAL X1005      14.815  43.184  24.349  1.00 93.73 LIG 0.18  C 
BRANCH 19 20
ATOM     20  C   VAL X1005      14.668  44.527  23.621  1.00 93.48 LIG 0.24  C 
ATOM     21  N   ALA X1006      13.433  44.878  23.267  1.00 93.27 LIG-0.35  N 
ATOM     22 H    ALA X1006      12.741  44.392  23.421  1.00 93.27 LIG 0.16  HD
ATOM     23 O    VAL X1005      15.653  45.216  23.379  1.00 93.20 LIG-0.27  OA
BRANCH 21 24
ATOM     24  CA  ALA X1006      13.132  46.131  22.577  1.00 93.01 LIG 0.16  C 
ATOM     25  CB  ALA X1006      13.899  46.211  21.290  1.00 92.79 LIG 0.04  C 
BRANCH 24 26
ATOM     26  C   ALA X1006      11.641  46.261  22.307  1.00 92.71 LIG 0.22  C 
ATOM     27 O    ALA X1006      10.875  46.701  23.159  1.00 91.80 LIG-0.29  OA
ENDBRANCH 24 26
ENDBRANCH 21 24
ENDBRANCH 19 20
BRANCH 19 28
ATOM     28  CB  VAL X1005      15.262  43.373  25.829  1.00 93.65 LIG 0.01  C 
ATOM     29  CG2 VAL X1005      15.657  42.035  26.408  1.00 92.72 LIG 0.01  C 
ATOM     30  CG1 VAL X1005      14.201  44.065  26.671  1.00 92.97 LIG 0.01  C 
ENDBRANCH 19 28
ENDBRANCH 17 19
ENDBRANCH 11 15
ENDBRANCH 9 11
ENDBRANCH 5 7
ENDBRANCH 3 5
BRANCH 1 31
ATOM     31  CA  PRO X1002      20.025  38.056  27.413  1.00 99.31 LIG 0.18  C 
ATOM     32  N   PRO X1002      21.410  37.749  27.046  1.00 99.88 LIG-0.34  N 
ATOM     33  CD  PRO X1002      22.348  38.292  28.033  1.00 99.70 LIG 0.13  C 
ATOM     34  C   ASN X1001      21.641  36.997  25.956  1.00100.64 LIG 0.24  C 
ATOM     35  CG  PRO X1002      21.563  38.188  29.272  1.00 99.65 LIG 0.02  C 
ATOM     36  CB  PRO X1002      20.150  38.505  28.872  1.00 99.37 LIG 0.04  C 
ATOM     37 O    ASN X1001      20.724  36.543  25.282  1.00100.22 LIG-0.27  OA
BRANCH 34 38
ATOM     38  CA  ASN X1001      23.102  36.620  25.630  1.00101.23 LIG 0.18  C 
BRANCH 38 39
ATOM     39  N   ASN X1001      23.898  37.849  25.770  1.00101.62 LIG-0.34  N 
ATOM     40  C   SER X1000      23.603  38.927  25.040  1.00101.89 LIG 0.26  C 
ATOM     41 O    SER X1000      22.985  38.860  23.969  1.00101.60 LIG-0.27  OA
ATOM     42 H    ASN X1001      24.540  37.805  26.341  1.00101.62 LIG 0.16  HD
BRANCH 40 43
ATOM     43  CA  SER X1000      24.073  40.288  25.575  1.00101.91 LIG 0.42  C 
ATOM     44  N   SER X1000      25.438  40.216  26.161  1.00101.55 LIG 0.62  N 
BRANCH 43 45
ATOM     45  CB  SER X1000      24.016  41.365  24.493  1.00101.96 LIG 0.21  C 
BRANCH 45 46
ATOM     46 OG   SER X1000      25.156  42.207  24.516  1.00101.15 LIG-0.40  OA
ATOM     47 HG   SER X1000      25.719  41.932  23.958  1.00101.15 LIG 0.21  HD
ENDBRANCH 45 46
ENDBRANCH 43 45
ENDBRANCH 40 43
ENDBRANCH 38 39
BRANCH 38 48
ATOM     48  CB  ASN X1001      23.694  35.442  26.444  1.00101.08 LIG 0.14  C 
BRANCH 48 49
ATOM     49  CG  ASN X1001      25.226  35.435  26.535  1.00100.04 LIG 0.22  C 
ATOM     50  ND2 ASN X1001      25.767  35.217  27.720  1.00 98.76 LIG-0.37  N 
ATOM     51 21HD ASN X1001      26.621  35.167  27.800  1.00 98.76 LIG 0.16  HD
ATOM     52 22HD ASN X1001      25.264  35.124  28.412  1.00 98.76 LIG 0.16  HD
ATOM     53 OD1  ASN X1001      25.903  35.572  25.526  1.00 97.91 LIG-0.27  OA
ENDBRANCH 48 49
ENDBRANCH 38 48
ENDBRANCH 34 38
ENDBRANCH 1 31
TORSDOF 19
ENDMDL
MODEL 19
USER: ADFR SOLUTION from run 116
USER: SCORE 12.962955 LL:  -3.305 LR: -11.922 RR:   0.000 FEB:  -6.255
USER: RMSD 9.781894
USER: SEED 115
USER: STATUS no improvement in best in 9 clusters for 5 generations
USER: GENES 21
USER: genes 0 Translation |==|  0.52678 0.70685 0.31545
USER: genes 1 Rotation |==|  0.40794 0.16255 0.85077 0.56793
USER: genes 2 Torsion [C]-N--CA-[CB] |==|  0.23155
USER: genes 3 Torsion [N]-CA--C-[N] |==|  0.25479
USER: genes 4 Torsion [C]-N--CA-[C] |==|  0.64577
USER: genes 5 Torsion [N]-CA--CB-[SG] |==|  0.13167
USER: genes 6 Torsion [CA]-CB--SG-[HG] |==|  0.84948
USER: genes 7 Torsion [N]-CA--C-[N] |==|  0.06347
USER: genes 8 Torsion [C]-N--CA-[CB] |==|  0.86550
USER: genes 9 Torsion [N]-CA--C-[N] |==|  0.88840
USER: genes 10 Torsion [C]-N--CA-[CB] |==|  0.19887
USER: genes 11 Torsion [N]-CA--C-[O] |==|  0.10287
USER: genes 12 Torsion [N]-CA--CB-[CG2] |==|  0.84867
USER: genes 13 Torsion [O]-C--CA-[N] |==|  0.00586
USER: genes 14 Torsion [N]-C--CA-[N] |==|  0.39594
USER: genes 15 Torsion [C]-CA--N-[C] |==|  0.65590
USER: genes 16 Torsion [N]-C--CA-[N] |==|  0.36205
USER: genes 17 Torsion [C]-CA--CB-[OG] |==|  0.06859
USER: genes 18 Torsion [CA]-CB--OG-[HG] |==|  0.46144
USER: genes 19 Torsion [C]-CA--CB-[CG] |==|  0.61077
USER: genes 20 Torsion [CA]-CB--CG-[ND2] |==|  0.38310
ROOT
ATOM      1  C   PRO X1002      16.772  41.897  22.936  1.00 98.27 LIG 0.24  C 
ATOM      2 O    PRO X1002      17.705  42.349  22.287  1.00 97.40 LIG-0.27  OA
ATOM      3  N   ALA X1003      15.509  41.929  22.520  1.00 97.43 LIG-0.35  N 
ATOM      4 H    ALA X1003      14.886  41.438  22.853  1.00 97.43 LIG 0.16  HD
ENDROOT
BRANCH 3 5
ATOM      5  CA  ALA X1003      15.059  42.815  21.445  1.00 96.73 LIG 0.17  C 
ATOM      6  CB  ALA X1003      15.335  42.191  20.096  1.00 96.74 LIG 0.04  C 
BRANCH 5 7
ATOM      7  C   ALA X1003      13.560  43.001  21.676  1.00 95.66 LIG 0.24  C 
ATOM      8 O    ALA X1003      12.779  42.210  21.170  1.00 95.14 LIG-0.27  OA
ATOM      9  N   CYS X1004      13.108  44.011  22.409  1.00 94.40 LIG-0.34  N 
ATOM     10 H    CYS X1004      12.302  44.018  22.708  1.00 94.40 LIG 0.16  HD
BRANCH 9 11
ATOM     11  CA  CYS X1004      13.846  45.210  22.813  1.00 94.17 LIG 0.18  C 
BRANCH 11 12
ATOM     12  CB  CYS X1004      13.216  46.410  22.070  1.00 94.12 LIG 0.10  C 
BRANCH 12 13
ATOM     13 SG   CYS X1004      11.452  46.582  22.067  1.00 91.26 LIG-0.18  SA
ATOM     14 HG   CYS X1004      10.952  45.570  21.660  1.00 91.26 LIG 0.10  HD
ENDBRANCH 12 13
ENDBRANCH 11 12
BRANCH 11 15
ATOM     15  C   CYS X1004      13.787  45.458  24.333  1.00 93.84 LIG 0.24  C 
ATOM     16 O    CYS X1004      14.013  46.562  24.803  1.00 93.01 LIG-0.27  OA
ATOM     17  N   VAL X1005      13.531  44.403  25.092  1.00 93.78 LIG-0.35  N 
ATOM     18 H    VAL X1005      13.504  43.598  24.790  1.00 93.78 LIG 0.16  HD
BRANCH 17 19
ATOM     19  CA  VAL X1005      13.266  44.507  26.530  1.00 93.73 LIG 0.18  C 
BRANCH 19 20
ATOM     20  C   VAL X1005      11.852  45.024  26.826  1.00 93.48 LIG 0.24  C 
ATOM     21  N   ALA X1006      11.402  46.003  26.043  1.00 93.27 LIG-0.35  N 
ATOM     22 H    ALA X1006      11.863  46.347  25.404  1.00 93.27 LIG 0.16  HD
ATOM     23 O    VAL X1005      11.196  44.553  27.748  1.00 93.20 LIG-0.27  OA
BRANCH 21 24
ATOM     24  CA  ALA X1006      10.072  46.592  26.194  1.00 93.01 LIG 0.16  C 
ATOM     25  CB  ALA X1006      10.017  47.433  27.435  1.00 92.79 LIG 0.04  C 
BRANCH 24 26
ATOM     26  C   ALA X1006       9.704  47.427  24.977  1.00 92.71 LIG 0.22  C 
ATOM     27 O    ALA X1006      10.031  47.083  23.845  1.00 91.80 LIG-0.29  OA
ENDBRANCH 24 26
ENDBRANCH 21 24
ENDBRANCH 19 20
BRANCH 19 28
ATOM     28  CB  VAL X1005      14.359  45.400  27.189  1.00 93.65 LIG 0.01  C 
ATOM     29  CG2 VAL X1005      15.725  44.850  26.851  1.00 92.72 LIG 0.01  C 
ATOM     30  CG1 VAL X1005      14.162  45.546  28.690  1.00 92.97 LIG 0.01  C 
ENDBRANCH 19 28
ENDBRANCH 17 19
ENDBRANCH 11 15
ENDBRANCH 9 11
ENDBRANCH 5 7
ENDBRANCH 3 5
BRANCH 1 31
ATOM     31  CA  PRO X1002      17.019  41.195  24.274  1.00 99.31 LIG 0.18  C 
ATOM     32  N   PRO X1002      18.414  41.155  24.721  1.00 99.88 LIG-0.34  N 
ATOM     33  CD  PRO X1002      18.641  42.101  25.818  1.00 99.70 LIG 0.13  C 
ATOM     34  C   ASN X1001      19.251  40.268  24.157  1.00100.64 LIG 0.24  C 
ATOM     35  CG  PRO X1002      17.340  42.076  26.501  1.00 99.65 LIG 0.02  C 
ATOM     36  CB  PRO X1002      16.320  41.957  25.404  1.00 99.37 LIG 0.04  C 
ATOM     37 O    ASN X1001      18.870  39.478  23.302  1.00100.22 LIG-0.27  OA
BRANCH 34 38
ATOM     38  CA  ASN X1001      20.696  40.189  24.695  1.00101.23 LIG 0.18  C 
BRANCH 38 39
ATOM     39  N   ASN X1001      21.079  38.770  24.672  1.00101.62 LIG-0.34  N 
ATOM     40  C   SER X1000      21.495  38.166  25.789  1.00101.89 LIG 0.26  C 
ATOM     41 O    SER X1000      21.974  38.791  26.745  1.00101.60 LIG-0.27  OA
ATOM     42 H    ASN X1001      21.011  38.386  23.906  1.00101.62 LIG 0.16  HD
BRANCH 40 43
ATOM     43  CA  SER X1000      21.368  36.637  25.852  1.00101.91 LIG 0.42  C 
ATOM     44  N   SER X1000      22.635  35.990  26.284  1.00101.55 LIG 0.62  N 
BRANCH 43 45
ATOM     45  CB  SER X1000      20.216  36.208  26.758  1.00101.96 LIG 0.21  C 
BRANCH 45 46
ATOM     46 OG   SER X1000      19.223  37.213  26.873  1.00101.15 LIG-0.40  OA
ATOM     47 HG   SER X1000      18.529  36.884  27.212  1.00101.15 LIG 0.21  HD
ENDBRANCH 45 46
ENDBRANCH 43 45
ENDBRANCH 40 43
ENDBRANCH 38 39
BRANCH 38 48
ATOM     48  CB  ASN X1001      21.735  41.089  23.979  1.00101.08 LIG 0.14  C 
BRANCH 48 49
ATOM     49  CG  ASN X1001      23.106  40.434  23.765  1.00100.04 LIG 0.22  C 
ATOM     50  ND2 ASN X1001      23.697  40.622  22.599  1.00 98.76 LIG-0.37  N 
ATOM     51 21HD ASN X1001      24.483  40.303  22.459  1.00 98.76 LIG 0.16  HD
ATOM     52 22HD ASN X1001      23.296  41.065  21.980  1.00 98.76 LIG 0.16  HD
ATOM     53 OD1  ASN X1001      23.639  39.812  24.673  1.00 97.91 LIG-0.27  OA
ENDBRANCH 48 49
ENDBRANCH 38 48
ENDBRANCH 34 38
ENDBRANCH 1 31
TORSDOF 19
ENDMDL
MODEL 20
USER: ADFR SOLUTION from run 60
USER: SCORE 13.006269 LL:  -2.765 LR: -11.903 RR:   0.000 FEB:  -6.235
USER: RMSD 9.323503
USER: SEED 59
USER: STATUS no improvement in best in 7 clusters for 5 generations
USER: GENES 21
USER: genes 0 Translation |==|  0.41127 0.39228 0.54305
USER: genes 1 Rotation |==|  0.34524 0.97016 0.50890 0.57018
USER: genes 2 Torsion [C]-N--CA-[CB] |==|  0.87767
USER: genes 3 Torsion [N]-CA--C-[N] |==|  0.33104
USER: genes 4 Torsion [C]-N--CA-[C] |==|  0.50000
USER: genes 5 Torsion [N]-CA--CB-[SG] |==|  0.66766
USER: genes 6 Torsion [CA]-CB--SG-[HG] |==|  0.99366
USER: genes 7 Torsion [N]-CA--C-[N] |==|  0.00263
USER: genes 8 Torsion [C]-N--CA-[CB] |==|  0.83301
USER: genes 9 Torsion [N]-CA--C-[N] |==|  0.41304
USER: genes 10 Torsion [C]-N--CA-[CB] |==|  0.21373
USER: genes 11 Torsion [N]-CA--C-[O] |==|  0.76272
USER: genes 12 Torsion [N]-CA--CB-[CG2] |==|  0.65424
USER: genes 13 Torsion [O]-C--CA-[N] |==|  0.98621
USER: genes 14 Torsion [N]-C--CA-[N] |==|  0.45503
USER: genes 15 Torsion [C]-CA--N-[C] |==|  0.81928
USER: genes 16 Torsion [N]-C--CA-[N] |==|  0.49489
USER: genes 17 Torsion [C]-CA--CB-[OG] |==|  0.69537
USER: genes 18 Torsion [CA]-CB--OG-[HG] |==|  0.42646
USER: genes 19 Torsion [C]-CA--CB-[CG] |==|  0.93876
USER: genes 20 Torsion [CA]-CB--CG-[ND2] |==|  0.33970
ROOT
ATOM      1  C   PRO X1002      13.999  35.527  27.374  1.00 98.27 LIG 0.24  C 
ATOM      2 O    PRO X1002      13.843  36.313  28.299  1.00 97.40 LIG-0.27  OA
ATOM      3  N   ALA X1003      13.027  35.185  26.534  1.00 97.43 LIG-0.35  N 
ATOM      4 H    ALA X1003      13.167  34.813  25.771  1.00 97.43 LIG 0.16  HD
ENDROOT
BRANCH 3 5
ATOM      5  CA  ALA X1003      11.613  35.415  26.835  1.00 96.73 LIG 0.17  C 
ATOM      6  CB  ALA X1003      11.306  35.022  28.262  1.00 96.74 LIG 0.04  C 
BRANCH 5 7
ATOM      7  C   ALA X1003      11.391  36.911  26.610  1.00 95.66 LIG 0.24  C 
ATOM      8 O    ALA X1003      12.016  37.712  27.286  1.00 95.14 LIG-0.27  OA
ATOM      9  N   CYS X1004      10.525  37.336  25.697  1.00 94.40 LIG-0.34  N 
ATOM     10 H    CYS X1004      10.533  38.153  25.425  1.00 94.40 LIG 0.16  HD
BRANCH 9 11
ATOM     11  CA  CYS X1004       9.478  36.554  25.038  1.00 94.17 LIG 0.18  C 
BRANCH 11 12
ATOM     12  CB  CYS X1004       8.540  36.017  26.143  1.00 94.12 LIG 0.10  C 
BRANCH 12 13
ATOM     13 SG   CYS X1004       8.353  34.265  26.328  1.00 91.26 LIG-0.18  SA
ATOM     14 HG   CYS X1004       8.993  33.702  25.484  1.00 91.26 LIG 0.10  HD
ENDBRANCH 12 13
ENDBRANCH 11 12
BRANCH 11 15
ATOM     15  C   CYS X1004       8.662  37.386  24.031  1.00 93.84 LIG 0.24  C 
ATOM     16 O    CYS X1004       7.767  36.881  23.371  1.00 93.01 LIG-0.27  OA
ATOM     17  N   VAL X1005       9.020  38.653  23.886  1.00 93.78 LIG-0.35  N 
ATOM     18 H    VAL X1005       9.730  38.987  24.239  1.00 93.78 LIG 0.16  HD
BRANCH 17 19
ATOM     19  CA  VAL X1005       8.235  39.614  23.106  1.00 93.73 LIG 0.18  C 
BRANCH 19 20
ATOM     20  C   VAL X1005       6.851  39.868  23.717  1.00 93.48 LIG 0.24  C 
ATOM     21  N   ALA X1006       6.336  41.083  23.539  1.00 93.27 LIG-0.35  N 
ATOM     22 H    ALA X1006       6.742  41.710  23.113  1.00 93.27 LIG 0.16  HD
ATOM     23 O    VAL X1005       6.275  38.984  24.343  1.00 93.20 LIG-0.27  OA
BRANCH 21 24
ATOM     24  CA  ALA X1006       5.024  41.472  24.052  1.00 93.01 LIG 0.16  C 
ATOM     25  CB  ALA X1006       5.102  41.737  25.526  1.00 92.79 LIG 0.04  C 
BRANCH 24 26
ATOM     26  C   ALA X1006       4.496  42.700  23.326  1.00 92.71 LIG 0.22  C 
ATOM     27 O    ALA X1006       4.804  43.833  23.684  1.00 91.80 LIG-0.29  OA
ENDBRANCH 24 26
ENDBRANCH 21 24
ENDBRANCH 19 20
BRANCH 19 28
ATOM     28  CB  VAL X1005       8.137  39.120  21.633  1.00 93.65 LIG 0.01  C 
ATOM     29  CG2 VAL X1005       8.648  40.198  20.707  1.00 92.72 LIG 0.01  C 
ATOM     30  CG1 VAL X1005       6.731  38.674  21.263  1.00 92.97 LIG 0.01  C 
ENDBRANCH 19 28
ENDBRANCH 17 19
ENDBRANCH 11 15
ENDBRANCH 9 11
ENDBRANCH 5 7
ENDBRANCH 3 5
BRANCH 1 31
ATOM     31  CA  PRO X1002      15.376  34.920  27.089  1.00 99.31 LIG 0.18  C 
ATOM     32  N   PRO X1002      16.476  35.431  27.911  1.00 99.88 LIG-0.34  N 
ATOM     33  CD  PRO X1002      16.877  34.447  28.922  1.00 99.70 LIG 0.13  C 
ATOM     34  C   ASN X1001      17.001  36.633  27.620  1.00100.64 LIG 0.24  C 
ATOM     35  CG  PRO X1002      16.617  33.182  28.220  1.00 99.65 LIG 0.02  C 
ATOM     36  CB  PRO X1002      15.369  33.424  27.419  1.00 99.37 LIG 0.04  C 
ATOM     37 O    ASN X1001      16.600  37.296  26.671  1.00100.22 LIG-0.27  OA
BRANCH 34 38
ATOM     38  CA  ASN X1001      18.210  37.119  28.448  1.00101.23 LIG 0.18  C 
BRANCH 38 39
ATOM     39  N   ASN X1001      18.818  38.227  27.698  1.00101.62 LIG-0.34  N 
ATOM     40  C   SER X1000      19.377  38.006  26.506  1.00101.89 LIG 0.26  C 
ATOM     41 O    SER X1000      19.789  36.891  26.159  1.00101.60 LIG-0.27  OA
ATOM     42 H    ASN X1001      18.780  38.994  28.086  1.00101.62 LIG 0.16  HD
BRANCH 40 43
ATOM     43  CA  SER X1000      19.505  39.206  25.555  1.00101.91 LIG 0.42  C 
ATOM     44  N   SER X1000      20.180  38.839  24.283  1.00101.55 LIG 0.62  N 
BRANCH 43 45
ATOM     45  CB  SER X1000      18.146  39.843  25.271  1.00101.96 LIG 0.21  C 
BRANCH 45 46
ATOM     46 OG   SER X1000      17.715  39.612  23.941  1.00101.15 LIG-0.40  OA
ATOM     47 HG   SER X1000      16.876  39.635  23.910  1.00101.15 LIG 0.21  HD
ENDBRANCH 45 46
ENDBRANCH 43 45
ENDBRANCH 40 43
ENDBRANCH 38 39
BRANCH 38 48
ATOM     48  CB  ASN X1001      17.912  37.499  29.920  1.00101.08 LIG 0.14  C 
BRANCH 48 49
ATOM     49  CG  ASN X1001      16.445  37.851  30.204  1.00100.04 LIG 0.22  C 
ATOM     50  ND2 ASN X1001      15.815  37.145  31.125  1.00 98.76 LIG-0.37  N 
ATOM     51 21HD ASN X1001      15.005  37.341  31.337  1.00 98.76 LIG 0.16  HD
ATOM     52 22HD ASN X1001      16.214  36.490  31.513  1.00 98.76 LIG 0.16  HD
ATOM     53 OD1  ASN X1001      15.916  38.791  29.628  1.00 97.91 LIG-0.27  OA
ENDBRANCH 48 49
ENDBRANCH 38 48
ENDBRANCH 34 38
ENDBRANCH 1 31
TORSDOF 19
ENDMDL
MODEL 21
USER: ADFR SOLUTION from run 16
USER: SCORE 14.570919 LL:  -4.036 LR: -11.868 RR:   0.000 FEB:  -6.200
USER: RMSD 10.626980
USER: SEED 399902
USER: STATUS no improvement in best in 10 clusters for 5 generations
USER: GENES 21
USER: genes 0 Translation |==|  0.54414 0.68459 0.22835
USER: genes 1 Rotation |==|  0.48352 0.34181 0.91659 0.72617
USER: genes 2 Torsion [C]-N--CA-[CB] |==|  0.14552
USER: genes 3 Torsion [N]-CA--C-[N] |==|  0.14979
USER: genes 4 Torsion [C]-N--CA-[C] |==|  0.64585
USER: genes 5 Torsion [N]-CA--CB-[SG] |==|  0.05401
USER: genes 6 Torsion [CA]-CB--SG-[HG] |==|  0.00788
USER: genes 7 Torsion [N]-CA--C-[N] |==|  0.02605
USER: genes 8 Torsion [C]-N--CA-[CB] |==|  0.25000
USER: genes 9 Torsion [N]-CA--C-[N] |==|  0.99711
USER: genes 10 Torsion [C]-N--CA-[CB] |==|  0.91201
USER: genes 11 Torsion [N]-CA--C-[O] |==|  0.68486
USER: genes 12 Torsion [N]-CA--CB-[CG2] |==|  0.01323
USER: genes 13 Torsion [O]-C--CA-[N] |==|  0.34488
USER: genes 14 Torsion [N]-C--CA-[N] |==|  0.28986
USER: genes 15 Torsion [C]-CA--N-[C] |==|  0.77152
USER: genes 16 Torsion [N]-C--CA-[N] |==|  0.39369
USER: genes 17 Torsion [C]-CA--CB-[OG] |==|  0.32323
USER: genes 18 Torsion [CA]-CB--OG-[HG] |==|  0.34490
USER: genes 19 Torsion [C]-CA--CB-[CG] |==|  0.98119
USER: genes 20 Torsion [CA]-CB--CG-[ND2] |==|  0.77312
ROOT
ATOM      1  C   PRO X1002      17.188  41.446  21.238  1.00 98.27 LIG 0.24  C 
ATOM      2 O    PRO X1002      17.321  41.140  20.060  1.00 97.40 LIG-0.27  OA
ATOM      3  N   ALA X1003      16.070  41.966  21.735  1.00 97.43 LIG-0.35  N 
ATOM      4 H    ALA X1003      15.887  41.985  22.576  1.00 97.43 LIG 0.16  HD
ENDROOT
BRANCH 3 5
ATOM      5  CA  ALA X1003      15.035  42.558  20.886  1.00 96.73 LIG 0.17  C 
ATOM      6  CB  ALA X1003      14.632  41.595  19.793  1.00 96.74 LIG 0.04  C 
BRANCH 5 7
ATOM      7  C   ALA X1003      13.865  42.855  21.825  1.00 95.66 LIG 0.24  C 
ATOM      8 O    ALA X1003      12.757  42.422  21.548  1.00 95.14 LIG-0.27  OA
ATOM      9  N   CYS X1004      14.046  43.580  22.922  1.00 94.40 LIG-0.34  N 
ATOM     10 H    CYS X1004      13.457  43.590  23.550  1.00 94.40 LIG 0.16  HD
BRANCH 9 11
ATOM     11  CA  CYS X1004      15.194  44.431  23.241  1.00 94.17 LIG 0.18  C 
BRANCH 11 12
ATOM     12  CB  CYS X1004      14.699  45.896  23.224  1.00 94.12 LIG 0.10  C 
BRANCH 12 13
ATOM     13 SG   CYS X1004      12.963  46.213  23.378  1.00 91.26 LIG-0.18  SA
ATOM     14 HG   CYS X1004      12.378  45.177  23.537  1.00 91.26 LIG 0.10  HD
ENDBRANCH 12 13
ENDBRANCH 11 12
BRANCH 11 15
ATOM     15  C   CYS X1004      15.804  44.111  24.619  1.00 93.84 LIG 0.24  C 
ATOM     16 O    CYS X1004      16.687  44.806  25.097  1.00 93.01 LIG-0.27  OA
ATOM     17  N   VAL X1005      15.354  43.022  25.224  1.00 93.78 LIG-0.35  N 
ATOM     18 H    VAL X1005      14.835  42.451  24.845  1.00 93.78 LIG 0.16  HD
BRANCH 17 19
ATOM     19  CA  VAL X1005      15.701  42.682  26.607  1.00 93.73 LIG 0.18  C 
BRANCH 19 20
ATOM     20  C   VAL X1005      15.835  41.168  26.819  1.00 93.48 LIG 0.24  C 
ATOM     21  N   ALA X1006      15.602  40.397  25.758  1.00 93.27 LIG-0.35  N 
ATOM     22 H    ALA X1006      15.382  40.708  24.988  1.00 93.27 LIG 0.16  HD
ATOM     23 O    VAL X1005      16.129  40.717  27.921  1.00 93.20 LIG-0.27  OA
BRANCH 21 24
ATOM     24  CA  ALA X1006      15.700  38.939  25.801  1.00 93.01 LIG 0.16  C 
ATOM     25  CB  ALA X1006      16.749  38.519  26.788  1.00 92.79 LIG 0.04  C 
BRANCH 24 26
ATOM     26  C   ALA X1006      14.362  38.313  26.160  1.00 92.71 LIG 0.22  C 
ATOM     27 O    ALA X1006      14.202  37.713  27.219  1.00 91.80 LIG-0.29  OA
ENDBRANCH 24 26
ENDBRANCH 21 24
ENDBRANCH 19 20
BRANCH 19 28
ATOM     28  CB  VAL X1005      14.650  43.312  27.568  1.00 93.65 LIG 0.01  C 
ATOM     29  CG2 VAL X1005      13.557  43.965  26.756  1.00 92.72 LIG 0.01  C 
ATOM     30  CG1 VAL X1005      15.277  44.281  28.559  1.00 92.97 LIG 0.01  C 
ENDBRANCH 19 28
ENDBRANCH 17 19
ENDBRANCH 11 15
ENDBRANCH 9 11
ENDBRANCH 5 7
ENDBRANCH 3 5
BRANCH 1 31
ATOM     31  CA  PRO X1002      18.312  41.186  22.245  1.00 99.31 LIG 0.18  C 
ATOM     32  N   PRO X1002      18.778  42.358  22.991  1.00 99.88 LIG-0.34  N 
ATOM     33  CD  PRO X1002      18.295  42.324  24.376  1.00 99.70 LIG 0.13  C 
ATOM     34  C   ASN X1001      19.594  43.234  22.382  1.00100.64 LIG 0.24  C 
ATOM     35  CG  PRO X1002      18.266  40.878  24.641  1.00 99.65 LIG 0.02  C 
ATOM     36  CB  PRO X1002      17.819  40.249  23.352  1.00 99.37 LIG 0.04  C 
ATOM     37 O    ASN X1001      19.977  43.062  21.231  1.00100.22 LIG-0.27  OA
BRANCH 34 38
ATOM     38  CA  ASN X1001      20.135  44.420  23.209  1.00101.23 LIG 0.18  C 
BRANCH 38 39
ATOM     39  N   ASN X1001      21.537  44.111  23.525  1.00101.62 LIG-0.34  N 
ATOM     40  C   SER X1000      21.836  43.315  24.554  1.00101.89 LIG 0.26  C 
ATOM     41 O    SER X1000      21.066  43.143  25.509  1.00101.60 LIG-0.27  OA
ATOM     42 H    ASN X1001      22.117  44.476  23.005  1.00101.62 LIG 0.16  HD
BRANCH 40 43
ATOM     43  CA  SER X1000      23.198  42.607  24.525  1.00101.91 LIG 0.42  C 
ATOM     44  N   SER X1000      23.822  42.543  25.873  1.00101.55 LIG 0.62  N 
BRANCH 43 45
ATOM     45  CB  SER X1000      23.089  41.207  23.923  1.00101.96 LIG 0.21  C 
BRANCH 45 46
ATOM     46 OG   SER X1000      23.831  41.083  22.721  1.00101.15 LIG-0.40  OA
ATOM     47 HG   SER X1000      24.373  40.446  22.792  1.00101.15 LIG 0.21  HD
ENDBRANCH 45 46
ENDBRANCH 43 45
ENDBRANCH 40 43
ENDBRANCH 38 39
BRANCH 38 48
ATOM     48  CB  ASN X1001      19.973  45.822  22.568  1.00101.08 LIG 0.14  C 
BRANCH 48 49
ATOM     49  CG  ASN X1001      19.442  45.807  21.129  1.00100.04 LIG 0.22  C 
ATOM     50  ND2 ASN X1001      20.310  45.575  20.160  1.00 98.76 LIG-0.37  N 
ATOM     51 21HD ASN X1001      20.040  45.521  19.346  1.00 98.76 LIG 0.16  HD
ATOM     52 22HD ASN X1001      21.145  45.478  20.344  1.00 98.76 LIG 0.16  HD
ATOM     53 OD1  ASN X1001      18.248  45.951  20.912  1.00 97.91 LIG-0.27  OA
ENDBRANCH 48 49
ENDBRANCH 38 48
ENDBRANCH 34 38
ENDBRANCH 1 31
TORSDOF 19
ENDMDL
MODEL 22
USER: ADFR SOLUTION from run 174
USER: SCORE 12.938607 LL:  -2.986 LR: -11.847 RR:   0.000 FEB:  -6.179
USER: RMSD 2.952782
USER: SEED 173
USER: STATUS no improvement in best in 10 clusters for 5 generations
USER: GENES 21
USER: genes 0 Translation |==|  0.52461 0.42525 0.56045
USER: genes 1 Rotation |==|  0.31663 0.07910 0.69504 0.53429
USER: genes 2 Torsion [C]-N--CA-[CB] |==|  0.55113
USER: genes 3 Torsion [N]-CA--C-[N] |==|  0.34501
USER: genes 4 Torsion [C]-N--CA-[C] |==|  0.11149
USER: genes 5 Torsion [N]-CA--CB-[SG] |==|  0.37338
USER: genes 6 Torsion [CA]-CB--SG-[HG] |==|  0.33518
USER: genes 7 Torsion [N]-CA--C-[N] |==|  0.15164
USER: genes 8 Torsion [C]-N--CA-[CB] |==|  0.51669
USER: genes 9 Torsion [N]-CA--C-[N] |==|  0.39125
USER: genes 10 Torsion [C]-N--CA-[CB] |==|  0.85742
USER: genes 11 Torsion [N]-CA--C-[O] |==|  0.92418
USER: genes 12 Torsion [N]-CA--CB-[CG2] |==|  0.29568
USER: genes 13 Torsion [O]-C--CA-[N] |==|  0.54251
USER: genes 14 Torsion [N]-C--CA-[N] |==|  0.25801
USER: genes 15 Torsion [C]-CA--N-[C] |==|  0.55824
USER: genes 16 Torsion [N]-C--CA-[N] |==|  0.52809
USER: genes 17 Torsion [C]-CA--CB-[OG] |==|  0.64399
USER: genes 18 Torsion [CA]-CB--OG-[HG] |==|  0.21709
USER: genes 19 Torsion [C]-CA--CB-[CG] |==|  0.09391
USER: genes 20 Torsion [CA]-CB--CG-[ND2] |==|  0.24693
ROOT
ATOM      1  C   PRO X1002      16.720  36.194  27.714  1.00 98.27 LIG 0.24  C 
ATOM      2 O    PRO X1002      17.860  36.594  27.906  1.00 97.40 LIG-0.27  OA
ATOM      3  N   ALA X1003      15.854  36.813  26.916  1.00 97.43 LIG-0.35  N 
ATOM      4 H    ALA X1003      15.142  36.441  26.607  1.00 97.43 LIG 0.16  HD
ENDROOT
BRANCH 3 5
ATOM      5  CA  ALA X1003      16.037  38.200  26.485  1.00 96.73 LIG 0.17  C 
ATOM      6  CB  ALA X1003      14.732  38.774  25.983  1.00 96.74 LIG 0.04  C 
BRANCH 5 7
ATOM      7  C   ALA X1003      16.533  38.945  27.724  1.00 95.66 LIG 0.24  C 
ATOM      8 O    ALA X1003      15.863  38.911  28.745  1.00 95.14 LIG-0.27  OA
ATOM      9  N   CYS X1004      17.672  39.627  27.693  1.00 94.40 LIG-0.34  N 
ATOM     10 H    CYS X1004      18.057  39.881  28.419  1.00 94.40 LIG 0.16  HD
BRANCH 9 11
ATOM     11  CA  CYS X1004      18.423  40.040  26.507  1.00 94.17 LIG 0.18  C 
BRANCH 11 12
ATOM     12  CB  CYS X1004      19.239  38.817  26.029  1.00 94.12 LIG 0.10  C 
BRANCH 12 13
ATOM     13 SG   CYS X1004      19.248  38.419  24.302  1.00 91.26 LIG-0.18  SA
ATOM     14 HG   CYS X1004      20.375  38.448  23.890  1.00 91.26 LIG 0.10  HD
ENDBRANCH 12 13
ENDBRANCH 11 12
BRANCH 11 15
ATOM     15  C   CYS X1004      17.509  40.526  25.366  1.00 93.84 LIG 0.24  C 
ATOM     16 O    CYS X1004      17.608  40.068  24.237  1.00 93.01 LIG-0.27  OA
ATOM     17  N   VAL X1005      16.655  41.493  25.666  1.00 93.78 LIG-0.35  N 
ATOM     18 H    VAL X1005      16.665  41.918  26.413  1.00 93.78 LIG 0.16  HD
BRANCH 17 19
ATOM     19  CA  VAL X1005      15.603  41.936  24.746  1.00 93.73 LIG 0.18  C 
BRANCH 19 20
ATOM     20  C   VAL X1005      16.141  42.213  23.336  1.00 93.48 LIG 0.24  C 
ATOM     21  N   ALA X1006      15.367  41.838  22.320  1.00 93.27 LIG-0.35  N 
ATOM     22 H    ALA X1006      14.605  41.454  22.424  1.00 93.27 LIG 0.16  HD
ATOM     23 O    VAL X1005      17.236  42.743  23.180  1.00 93.20 LIG-0.27  OA
BRANCH 21 24
ATOM     24  CA  ALA X1006      15.737  42.045  20.921  1.00 93.01 LIG 0.16  C 
ATOM     25  CB  ALA X1006      16.129  43.475  20.695  1.00 92.79 LIG 0.04  C 
BRANCH 24 26
ATOM     26  C   ALA X1006      16.874  41.120  20.515  1.00 92.71 LIG 0.22  C 
ATOM     27 O    ALA X1006      17.685  40.707  21.340  1.00 91.80 LIG-0.29  OA
ENDBRANCH 24 26
ENDBRANCH 21 24
ENDBRANCH 19 20
BRANCH 19 28
ATOM     28  CB  VAL X1005      14.886  43.180  25.348  1.00 93.65 LIG 0.01  C 
ATOM     29  CG2 VAL X1005      15.309  44.417  24.590  1.00 92.72 LIG 0.01  C 
ATOM     30  CG1 VAL X1005      15.126  43.321  26.843  1.00 92.97 LIG 0.01  C 
ENDBRANCH 19 28
ENDBRANCH 17 19
ENDBRANCH 11 15
ENDBRANCH 9 11
ENDBRANCH 5 7
ENDBRANCH 3 5
BRANCH 1 31
ATOM     31  CA  PRO X1002      16.230  34.891  28.352  1.00 99.31 LIG 0.18  C 
ATOM     32  N   PRO X1002      14.997  34.334  27.789  1.00 99.88 LIG-0.34  N 
ATOM     33  CD  PRO X1002      15.282  33.160  26.958  1.00 99.70 LIG 0.13  C 
ATOM     34  C   ASN X1001      13.821  34.885  28.131  1.00100.64 LIG 0.24  C 
ATOM     35  CG  PRO X1002      16.450  32.590  27.646  1.00 99.65 LIG 0.02  C 
ATOM     36  CB  PRO X1002      17.251  33.774  28.112  1.00 99.37 LIG 0.04  C 
ATOM     37 O    ASN X1001      13.754  35.821  28.919  1.00100.22 LIG-0.27  OA
BRANCH 34 38
ATOM     38  CA  ASN X1001      12.529  34.236  27.589  1.00101.23 LIG 0.18  C 
BRANCH 38 39
ATOM     39  N   ASN X1001      12.078  33.277  28.609  1.00101.62 LIG-0.34  N 
ATOM     40  C   SER X1000      11.254  32.280  28.277  1.00101.89 LIG 0.26  C 
ATOM     41 O    SER X1000      10.516  32.328  27.284  1.00101.60 LIG-0.27  OA
ATOM     42 H    ASN X1001      12.383  33.417  29.401  1.00101.62 LIG 0.16  HD
BRANCH 40 43
ATOM     43  CA  SER X1000      11.240  31.045  29.190  1.00101.91 LIG 0.42  C 
ATOM     44  N   SER X1000      10.475  29.919  28.593  1.00101.55 LIG 0.62  N 
BRANCH 43 45
ATOM     45  CB  SER X1000      12.656  30.596  29.545  1.00101.96 LIG 0.21  C 
BRANCH 45 46
ATOM     46 OG   SER X1000      12.861  29.218  29.283  1.00101.15 LIG-0.40  OA
ATOM     47 HG   SER X1000      12.983  29.104  28.460  1.00101.15 LIG 0.21  HD
ENDBRANCH 45 46
ENDBRANCH 43 45
ENDBRANCH 40 43
ENDBRANCH 38 39
BRANCH 38 48
ATOM     48  CB  ASN X1001      11.405  35.216  27.166  1.00101.08 LIG 0.14  C 
BRANCH 48 49
ATOM     49  CG  ASN X1001      11.904  36.539  26.570  1.00100.04 LIG 0.22  C 
ATOM     50  ND2 ASN X1001      12.111  36.583  25.267  1.00 98.76 LIG-0.37  N 
ATOM     51 21HD ASN X1001      12.352  37.319  24.894  1.00 98.76 LIG 0.16  HD
ATOM     52 22HD ASN X1001      12.004  35.874  24.790  1.00 98.76 LIG 0.16  HD
ATOM     53 OD1  ASN X1001      12.043  37.521  27.285  1.00 97.91 LIG-0.27  OA
ENDBRANCH 48 49
ENDBRANCH 38 48
ENDBRANCH 34 38
ENDBRANCH 1 31
TORSDOF 19
ENDMDL
MODEL 23
USER: ADFR SOLUTION from run 172
USER: SCORE 13.663474 LL:  -2.913 LR: -11.853 RR:   0.000 FEB:  -6.185
USER: RMSD 8.561321
USER: SEED 171
USER: STATUS no improvement in best in 12 clusters for 5 generations
USER: GENES 21
USER: genes 0 Translation |==|  0.63201 0.56728 0.50326
USER: genes 1 Rotation |==|  0.44519 0.74876 0.57093 0.92436
USER: genes 2 Torsion [C]-N--CA-[CB] |==|  0.52519
USER: genes 3 Torsion [N]-CA--C-[N] |==|  0.44070
USER: genes 4 Torsion [C]-N--CA-[C] |==|  0.74410
USER: genes 5 Torsion [N]-CA--CB-[SG] |==|  0.22692
USER: genes 6 Torsion [CA]-CB--SG-[HG] |==|  0.92063
USER: genes 7 Torsion [N]-CA--C-[N] |==|  0.85251
USER: genes 8 Torsion [C]-N--CA-[CB] |==|  0.80491
USER: genes 9 Torsion [N]-CA--C-[N] |==|  0.33123
USER: genes 10 Torsion [C]-N--CA-[CB] |==|  0.16595
USER: genes 11 Torsion [N]-CA--C-[O] |==|  0.25141
USER: genes 12 Torsion [N]-CA--CB-[CG2] |==|  0.89181
USER: genes 13 Torsion [O]-C--CA-[N] |==|  0.53529
USER: genes 14 Torsion [N]-C--CA-[N] |==|  0.36874
USER: genes 15 Torsion [C]-CA--N-[C] |==|  0.54493
USER: genes 16 Torsion [N]-C--CA-[N] |==|  0.94164
USER: genes 17 Torsion [C]-CA--CB-[OG] |==|  0.09915
USER: genes 18 Torsion [CA]-CB--OG-[HG] |==|  0.51020
USER: genes 19 Torsion [C]-CA--CB-[CG] |==|  0.96047
USER: genes 20 Torsion [CA]-CB--CG-[ND2] |==|  0.85069
ROOT
ATOM      1  C   PRO X1002      19.297  39.070  26.599  1.00 98.27 LIG 0.24  C 
ATOM      2 O    PRO X1002      18.110  39.355  26.683  1.00 97.40 LIG-0.27  OA
ATOM      3  N   ALA X1003      20.148  39.714  25.804  1.00 97.43 LIG-0.35  N 
ATOM      4 H    ALA X1003      21.003  39.672  25.889  1.00 97.43 LIG 0.16  HD
ENDROOT
BRANCH 3 5
ATOM      5  CA  ALA X1003      19.700  40.562  24.698  1.00 96.73 LIG 0.17  C 
ATOM      6  CB  ALA X1003      20.874  40.978  23.842  1.00 96.74 LIG 0.04  C 
BRANCH 5 7
ATOM      7  C   ALA X1003      18.712  39.704  23.907  1.00 95.66 LIG 0.24  C 
ATOM      8 O    ALA X1003      18.764  38.489  24.012  1.00 95.14 LIG-0.27  OA
ATOM      9  N   CYS X1004      17.813  40.269  23.109  1.00 94.40 LIG-0.34  N 
ATOM     10 H    CYS X1004      17.137  39.824  22.817  1.00 94.40 LIG 0.16  HD
BRANCH 9 11
ATOM     11  CA  CYS X1004      17.809  41.648  22.618  1.00 94.17 LIG 0.18  C 
BRANCH 11 12
ATOM     12  CB  CYS X1004      17.178  41.632  21.207  1.00 94.12 LIG 0.10  C 
BRANCH 12 13
ATOM     13 SG   CYS X1004      15.411  41.618  21.062  1.00 91.26 LIG-0.18  SA
ATOM     14 HG   CYS X1004      14.935  41.081  22.023  1.00 91.26 LIG 0.10  HD
ENDBRANCH 12 13
ENDBRANCH 11 12
BRANCH 11 15
ATOM     15  C   CYS X1004      17.009  42.599  23.528  1.00 93.84 LIG 0.24  C 
ATOM     16 O    CYS X1004      17.519  43.604  23.997  1.00 93.01 LIG-0.27  OA
ATOM     17  N   VAL X1005      15.766  42.238  23.809  1.00 93.78 LIG-0.35  N 
ATOM     18 H    VAL X1005      15.437  41.472  23.600  1.00 93.78 LIG 0.16  HD
BRANCH 17 19
ATOM     19  CA  VAL X1005      14.824  43.117  24.508  1.00 93.73 LIG 0.18  C 
BRANCH 19 20
ATOM     20  C   VAL X1005      14.677  44.480  23.818  1.00 93.48 LIG 0.24  C 
ATOM     21  N   ALA X1006      13.459  44.796  23.382  1.00 93.27 LIG-0.35  N 
ATOM     22 H    ALA X1006      12.778  44.278  23.466  1.00 93.27 LIG 0.16  HD
ATOM     23 O    VAL X1005      15.648  45.215  23.677  1.00 93.20 LIG-0.27  OA
BRANCH 21 24
ATOM     24  CA  ALA X1006      13.159  46.062  22.715  1.00 93.01 LIG 0.16  C 
ATOM     25  CB  ALA X1006      13.985  46.199  21.470  1.00 92.79 LIG 0.04  C 
BRANCH 24 26
ATOM     26  C   ALA X1006      11.680  46.163  22.377  1.00 92.71 LIG 0.22  C 
ATOM     27 O    ALA X1006      10.879  46.662  23.162  1.00 91.80 LIG-0.29  OA
ENDBRANCH 24 26
ENDBRANCH 21 24
ENDBRANCH 19 20
BRANCH 19 28
ATOM     28  CB  VAL X1005      15.268  43.265  25.994  1.00 93.65 LIG 0.01  C 
ATOM     29  CG2 VAL X1005      15.775  41.935  26.500  1.00 92.72 LIG 0.01  C 
ATOM     30  CG1 VAL X1005      14.163  43.824  26.877  1.00 92.97 LIG 0.01  C 
ENDBRANCH 19 28
ENDBRANCH 17 19
ENDBRANCH 11 15
ENDBRANCH 9 11
ENDBRANCH 5 7
ENDBRANCH 3 5
BRANCH 1 31
ATOM     31  CA  PRO X1002      19.900  37.967  27.472  1.00 99.31 LIG 0.18  C 
ATOM     32  N   PRO X1002      21.364  37.909  27.499  1.00 99.88 LIG-0.34  N 
ATOM     33  CD  PRO X1002      21.887  38.420  28.770  1.00 99.70 LIG 0.13  C 
ATOM     34  C   ASN X1001      22.012  37.367  26.454  1.00100.64 LIG 0.24  C 
ATOM     35  CG  PRO X1002      20.822  38.026  29.705  1.00 99.65 LIG 0.02  C 
ATOM     36  CB  PRO X1002      19.540  38.205  28.942  1.00 99.37 LIG 0.04  C 
ATOM     37 O    ASN X1001      21.408  36.898  25.496  1.00100.22 LIG-0.27  OA
BRANCH 34 38
ATOM     38  CA  ASN X1001      23.549  37.244  26.536  1.00101.23 LIG 0.18  C 
BRANCH 38 39
ATOM     39  N   ASN X1001      23.887  35.877  26.114  1.00101.62 LIG-0.34  N 
ATOM     40  C   SER X1000      25.092  35.369  26.382  1.00101.89 LIG 0.26  C 
ATOM     41 O    SER X1000      26.084  36.081  26.590  1.00101.60 LIG-0.27  OA
ATOM     42 H    ASN X1001      23.261  35.458  25.698  1.00101.62 LIG 0.16  HD
BRANCH 40 43
ATOM     43  CA  SER X1000      25.219  33.839  26.417  1.00101.91 LIG 0.42  C 
ATOM     44  N   SER X1000      23.907  33.176  26.637  1.00101.55 LIG 0.62  N 
BRANCH 43 45
ATOM     45  CB  SER X1000      25.880  33.303  25.149  1.00101.96 LIG 0.21  C 
BRANCH 45 46
ATOM     46 OG   SER X1000      26.885  34.174  24.660  1.00101.15 LIG-0.40  OA
ATOM     47 HG   SER X1000      27.190  33.873  23.938  1.00101.15 LIG 0.21  HD
ENDBRANCH 45 46
ENDBRANCH 43 45
ENDBRANCH 40 43
ENDBRANCH 38 39
BRANCH 38 48
ATOM     48  CB  ASN X1001      24.355  38.315  25.758  1.00101.08 LIG 0.14  C 
BRANCH 48 49
ATOM     49  CG  ASN X1001      23.530  39.127  24.751  1.00100.04 LIG 0.22  C 
ATOM     50  ND2 ASN X1001      22.831  38.458  23.852  1.00 98.76 LIG-0.37  N 
ATOM     51 21HD ASN X1001      22.326  38.880  23.299  1.00 98.76 LIG 0.16  HD
ATOM     52 22HD ASN X1001      22.879  37.599  23.822  1.00 98.76 LIG 0.16  HD
ATOM     53 OD1  ASN X1001      23.491  40.347  24.830  1.00 97.91 LIG-0.27  OA
ENDBRANCH 48 49
ENDBRANCH 38 48
ENDBRANCH 34 38
ENDBRANCH 1 31
TORSDOF 19
ENDMDL
MODEL 24
USER: ADFR SOLUTION from run 5
USER: SCORE 13.813973 LL:  -2.835 LR: -11.826 RR:   0.000 FEB:  -6.158
USER: RMSD 4.550624
USER: SEED 669016
USER: STATUS no improvement in best in 10 clusters for 5 generations
USER: GENES 21
USER: genes 0 Translation |==|  0.51766 0.57922 0.53836
USER: genes 1 Rotation |==|  0.38256 0.56429 0.46616 0.98055
USER: genes 2 Torsion [C]-N--CA-[CB] |==|  0.57420
USER: genes 3 Torsion [N]-CA--C-[N] |==|  0.36111
USER: genes 4 Torsion [C]-N--CA-[C] |==|  0.76668
USER: genes 5 Torsion [N]-CA--CB-[SG] |==|  0.21631
USER: genes 6 Torsion [CA]-CB--SG-[HG] |==|  0.90787
USER: genes 7 Torsion [N]-CA--C-[N] |==|  0.89414
USER: genes 8 Torsion [C]-N--CA-[CB] |==|  0.81994
USER: genes 9 Torsion [N]-CA--C-[N] |==|  0.37702
USER: genes 10 Torsion [C]-N--CA-[CB] |==|  0.13878
USER: genes 11 Torsion [N]-CA--C-[O] |==|  0.17822
USER: genes 12 Torsion [N]-CA--CB-[CG2] |==|  0.91173
USER: genes 13 Torsion [O]-C--CA-[N] |==|  0.21600
USER: genes 14 Torsion [N]-C--CA-[N] |==|  0.51083
USER: genes 15 Torsion [C]-CA--N-[C] |==|  0.78665
USER: genes 16 Torsion [N]-C--CA-[N] |==|  0.31138
USER: genes 17 Torsion [C]-CA--CB-[OG] |==|  0.40511
USER: genes 18 Torsion [CA]-CB--OG-[HG] |==|  0.67747
USER: genes 19 Torsion [C]-CA--CB-[CG] |==|  0.35664
USER: genes 20 Torsion [CA]-CB--CG-[ND2] |==|  0.41763
ROOT
ATOM      1  C   PRO X1002      16.553  39.312  27.283  1.00 98.27 LIG 0.24  C 
ATOM      2 O    PRO X1002      15.805  39.660  26.379  1.00 97.40 LIG-0.27  OA
ATOM      3  N   ALA X1003      17.848  39.613  27.316  1.00 97.43 LIG-0.35  N 
ATOM      4 H    ALA X1003      18.329  39.565  28.027  1.00 97.43 LIG 0.16  HD
ENDROOT
BRANCH 3 5
ATOM      5  CA  ALA X1003      18.580  40.059  26.129  1.00 96.73 LIG 0.17  C 
ATOM      6  CB  ALA X1003      20.046  39.710  26.250  1.00 96.74 LIG 0.04  C 
BRANCH 5 7
ATOM      7  C   ALA X1003      17.929  39.326  24.955  1.00 95.66 LIG 0.24  C 
ATOM      8 O    ALA X1003      17.775  38.117  25.022  1.00 95.14 LIG-0.27  OA
ATOM      9  N   CYS X1004      17.543  39.992  23.873  1.00 94.40 LIG-0.34  N 
ATOM     10 H    CYS X1004      17.008  39.637  23.301  1.00 94.40 LIG 0.16  HD
BRANCH 9 11
ATOM     11  CA  CYS X1004      17.929  41.350  23.486  1.00 94.17 LIG 0.18  C 
BRANCH 11 12
ATOM     12  CB  CYS X1004      17.771  41.453  21.951  1.00 94.12 LIG 0.10  C 
BRANCH 12 13
ATOM     13 SG   CYS X1004      16.148  41.659  21.271  1.00 91.26 LIG-0.18  SA
ATOM     14 HG   CYS X1004      15.350  41.079  21.955  1.00 91.26 LIG 0.10  HD
ENDBRANCH 12 13
ENDBRANCH 11 12
BRANCH 11 15
ATOM     15  C   CYS X1004      17.062  42.429  24.164  1.00 93.84 LIG 0.24  C 
ATOM     16 O    CYS X1004      17.556  43.461  24.590  1.00 93.01 LIG-0.27  OA
ATOM     17  N   VAL X1005      15.776  42.149  24.303  1.00 93.78 LIG-0.35  N 
ATOM     18 H    VAL X1005      15.438  41.376  24.133  1.00 93.78 LIG 0.16  HD
BRANCH 17 19
ATOM     19  CA  VAL X1005      14.794  43.137  24.762  1.00 93.73 LIG 0.18  C 
BRANCH 19 20
ATOM     20  C   VAL X1005      14.722  44.359  23.837  1.00 93.48 LIG 0.24  C 
ATOM     21  N   ALA X1006      13.504  44.799  23.528  1.00 93.27 LIG-0.35  N 
ATOM     22 H    ALA X1006      12.782  44.430  23.814  1.00 93.27 LIG 0.16  HD
ATOM     23 O    VAL X1005      15.748  44.878  23.409  1.00 93.20 LIG-0.27  OA
BRANCH 21 24
ATOM     24  CA  ALA X1006      13.273  45.958  22.667  1.00 93.01 LIG 0.16  C 
ATOM     25  CB  ALA X1006      14.073  45.832  21.404  1.00 92.79 LIG 0.04  C 
BRANCH 24 26
ATOM     26  C   ALA X1006      11.796  46.109  22.340  1.00 92.71 LIG 0.22  C 
ATOM     27 O    ALA X1006      10.970  46.346  23.217  1.00 91.80 LIG-0.29  OA
ENDBRANCH 24 26
ENDBRANCH 21 24
ENDBRANCH 19 20
BRANCH 19 28
ATOM     28  CB  VAL X1005      15.122  43.540  26.230  1.00 93.65 LIG 0.01  C 
ATOM     29  CG2 VAL X1005      15.734  42.360  26.949  1.00 92.72 LIG 0.01  C 
ATOM     30  CG1 VAL X1005      13.908  44.086  26.967  1.00 92.97 LIG 0.01  C 
ENDBRANCH 19 28
ENDBRANCH 17 19
ENDBRANCH 11 15
ENDBRANCH 9 11
ENDBRANCH 5 7
ENDBRANCH 3 5
BRANCH 1 31
ATOM     31  CA  PRO X1002      16.013  38.541  28.491  1.00 99.31 LIG 0.18  C 
ATOM     32  N   PRO X1002      15.754  37.116  28.268  1.00 99.88 LIG-0.34  N 
ATOM     33  CD  PRO X1002      16.780  36.288  28.911  1.00 99.70 LIG 0.13  C 
ATOM     34  C   ASN X1001      14.644  36.753  27.603  1.00100.64 LIG 0.24  C 
ATOM     35  CG  PRO X1002      17.119  37.103  30.087  1.00 99.65 LIG 0.02  C 
ATOM     36  CB  PRO X1002      17.055  38.527  29.613  1.00 99.37 LIG 0.04  C 
ATOM     37 O    ASN X1001      13.834  37.582  27.205  1.00100.22 LIG-0.27  OA
BRANCH 34 38
ATOM     38  CA  ASN X1001      14.349  35.246  27.447  1.00101.23 LIG 0.18  C 
BRANCH 38 39
ATOM     39  N   ASN X1001      13.146  35.135  26.611  1.00101.62 LIG-0.34  N 
ATOM     40  C   SER X1000      11.940  35.376  27.131  1.00101.89 LIG 0.26  C 
ATOM     41 O    SER X1000      11.707  35.287  28.344  1.00101.60 LIG-0.27  OA
ATOM     42 H    ASN X1001      13.289  34.910  25.793  1.00101.62 LIG 0.16  HD
BRANCH 40 43
ATOM     43  CA  SER X1000      10.819  35.769  26.157  1.00101.91 LIG 0.42  C 
ATOM     44  N   SER X1000       9.773  34.717  26.059  1.00101.55 LIG 0.62  N 
BRANCH 43 45
ATOM     45  CB  SER X1000      10.191  37.108  26.537  1.00101.96 LIG 0.21  C 
BRANCH 45 46
ATOM     46 OG   SER X1000       9.786  37.851  25.400  1.00101.15 LIG-0.40  OA
ATOM     47 HG   SER X1000      10.232  38.561  25.355  1.00101.15 LIG 0.21  HD
ENDBRANCH 45 46
ENDBRANCH 43 45
ENDBRANCH 40 43
ENDBRANCH 38 39
BRANCH 38 48
ATOM     48  CB  ASN X1001      15.518  34.380  26.912  1.00101.08 LIG 0.14  C 
BRANCH 48 49
ATOM     49  CG  ASN X1001      15.839  33.146  27.764  1.00100.04 LIG 0.22  C 
ATOM     50  ND2 ASN X1001      16.339  32.090  27.147  1.00 98.76 LIG-0.37  N 
ATOM     51 21HD ASN X1001      16.568  31.396  27.599  1.00 98.76 LIG 0.16  HD
ATOM     52 22HD ASN X1001      16.437  32.098  26.292  1.00 98.76 LIG 0.16  HD
ATOM     53 OD1  ASN X1001      15.684  33.178  28.977  1.00 97.91 LIG-0.27  OA
ENDBRANCH 48 49
ENDBRANCH 38 48
ENDBRANCH 34 38
ENDBRANCH 1 31
TORSDOF 19
ENDMDL
MODEL 25
USER: ADFR SOLUTION from run 15
USER: SCORE 13.857726 LL:  -2.849 LR: -11.790 RR:   0.000 FEB:  -6.122
USER: RMSD 9.324429
USER: SEED 143938
USER: STATUS no improvement in best in 6 clusters for 5 generations
USER: GENES 21
USER: genes 0 Translation |==|  0.57994 0.67428 0.39237
USER: genes 1 Rotation |==|  0.06273 0.42301 0.34276 0.66777
USER: genes 2 Torsion [C]-N--CA-[CB] |==|  0.87775
USER: genes 3 Torsion [N]-CA--C-[N] |==|  0.36495
USER: genes 4 Torsion [C]-N--CA-[C] |==|  0.17302
USER: genes 5 Torsion [N]-CA--CB-[SG] |==|  0.76874
USER: genes 6 Torsion [CA]-CB--SG-[HG] |==|  0.76643
USER: genes 7 Torsion [N]-CA--C-[N] |==|  0.10272
USER: genes 8 Torsion [C]-N--CA-[CB] |==|  0.82770
USER: genes 9 Torsion [N]-CA--C-[N] |==|  0.33914
USER: genes 10 Torsion [C]-N--CA-[CB] |==|  0.32964
USER: genes 11 Torsion [N]-CA--C-[O] |==|  0.08849
USER: genes 12 Torsion [N]-CA--CB-[CG2] |==|  0.71389
USER: genes 13 Torsion [O]-C--CA-[N] |==|  0.95225
USER: genes 14 Torsion [N]-C--CA-[N] |==|  0.24483
USER: genes 15 Torsion [C]-CA--N-[C] |==|  0.66666
USER: genes 16 Torsion [N]-C--CA-[N] |==|  0.44980
USER: genes 17 Torsion [C]-CA--CB-[OG] |==|  0.80996
USER: genes 18 Torsion [CA]-CB--OG-[HG] |==|  0.01385
USER: genes 19 Torsion [C]-CA--CB-[CG] |==|  0.55212
USER: genes 20 Torsion [CA]-CB--CG-[ND2] |==|  0.90947
ROOT
ATOM      1  C   PRO X1002      18.048  41.237  24.436  1.00 98.27 LIG 0.24  C 
ATOM      2 O    PRO X1002      17.558  40.141  24.200  1.00 97.40 LIG-0.27  OA
ATOM      3  N   ALA X1003      19.331  41.414  24.738  1.00 97.43 LIG-0.35  N 
ATOM      4 H    ALA X1003      19.729  42.176  24.695  1.00 97.43 LIG 0.16  HD
ENDROOT
BRANCH 3 5
ATOM      5  CA  ALA X1003      20.193  40.314  25.175  1.00 96.73 LIG 0.17  C 
ATOM      6  CB  ALA X1003      19.476  39.451  26.187  1.00 96.74 LIG 0.04  C 
BRANCH 5 7
ATOM      7  C   ALA X1003      20.518  39.528  23.904  1.00 95.66 LIG 0.24  C 
ATOM      8 O    ALA X1003      19.608  39.208  23.155  1.00 95.14 LIG-0.27  OA
ATOM      9  N   CYS X1004      21.770  39.189  23.621  1.00 94.40 LIG-0.34  N 
ATOM     10 H    CYS X1004      21.991  38.927  22.832  1.00 94.40 LIG 0.16  HD
BRANCH 9 11
ATOM     11  CA  CYS X1004      22.917  39.199  24.530  1.00 94.17 LIG 0.18  C 
BRANCH 11 12
ATOM     12  CB  CYS X1004      23.068  40.642  25.066  1.00 94.12 LIG 0.10  C 
BRANCH 12 13
ATOM     13 SG   CYS X1004      23.940  41.831  24.083  1.00 91.26 LIG-0.18  SA
ATOM     14 HG   CYS X1004      25.118  41.731  24.284  1.00 91.26 LIG 0.10  HD
ENDBRANCH 12 13
ENDBRANCH 11 12
BRANCH 11 15
ATOM     15  C   CYS X1004      22.743  38.228  25.713  1.00 93.84 LIG 0.24  C 
ATOM     16 O    CYS X1004      23.189  38.491  26.819  1.00 93.01 LIG-0.27  OA
ATOM     17  N   VAL X1005      22.135  37.081  25.450  1.00 93.78 LIG-0.35  N 
ATOM     18 H    VAL X1005      21.937  36.823  24.654  1.00 93.78 LIG 0.16  HD
BRANCH 17 19
ATOM     19  CA  VAL X1005      21.737  36.136  26.497  1.00 93.73 LIG 0.18  C 
BRANCH 19 20
ATOM     20  C   VAL X1005      20.701  36.734  27.458  1.00 93.48 LIG 0.24  C 
ATOM     21  N   ALA X1006      19.545  36.083  27.566  1.00 93.27 LIG-0.35  N 
ATOM     22 H    ALA X1006      19.363  35.367  27.126  1.00 93.27 LIG 0.16  HD
ATOM     23 O    VAL X1005      20.946  37.766  28.074  1.00 93.20 LIG-0.27  OA
BRANCH 21 24
ATOM     24  CA  ALA X1006      18.465  36.523  28.448  1.00 93.01 LIG 0.16  C 
ATOM     25  CB  ALA X1006      17.237  36.837  27.646  1.00 92.79 LIG 0.04  C 
BRANCH 24 26
ATOM     26  C   ALA X1006      18.152  35.467  29.496  1.00 92.71 LIG 0.22  C 
ATOM     27 O    ALA X1006      19.026  34.726  29.936  1.00 91.80 LIG-0.29  OA
ENDBRANCH 24 26
ENDBRANCH 21 24
ENDBRANCH 19 20
BRANCH 19 28
ATOM     28  CB  VAL X1005      23.007  35.639  27.249  1.00 93.65 LIG 0.01  C 
ATOM     29  CG2 VAL X1005      23.355  34.247  26.778  1.00 92.72 LIG 0.01  C 
ATOM     30  CG1 VAL X1005      22.850  35.705  28.760  1.00 92.97 LIG 0.01  C 
ENDBRANCH 19 28
ENDBRANCH 17 19
ENDBRANCH 11 15
ENDBRANCH 9 11
ENDBRANCH 5 7
ENDBRANCH 3 5
BRANCH 1 31
ATOM     31  CA  PRO X1002      17.201  42.509  24.336  1.00 99.31 LIG 0.18  C 
ATOM     32  N   PRO X1002      15.948  42.379  23.587  1.00 99.88 LIG-0.34  N 
ATOM     33  CD  PRO X1002      14.795  42.359  24.491  1.00 99.70 LIG 0.13  C 
ATOM     34  C   ASN X1001      15.994  42.364  22.244  1.00100.64 LIG 0.24  C 
ATOM     35  CG  PRO X1002      15.259  43.233  25.579  1.00 99.65 LIG 0.02  C 
ATOM     36  CB  PRO X1002      16.723  42.932  25.729  1.00 99.37 LIG 0.04  C 
ATOM     37 O    ASN X1001      17.050  42.483  21.636  1.00100.22 LIG-0.27  OA
BRANCH 34 38
ATOM     38  CA  ASN X1001      14.658  42.305  21.472  1.00101.23 LIG 0.18  C 
BRANCH 38 39
ATOM     39  N   ASN X1001      14.217  43.695  21.283  1.00101.62 LIG-0.34  N 
ATOM     40  C   SER X1000      13.049  44.105  21.782  1.00101.89 LIG 0.26  C 
ATOM     41 O    SER X1000      12.121  43.323  22.035  1.00101.60 LIG-0.27  OA
ATOM     42 H    ASN X1001      14.761  44.193  20.840  1.00101.62 LIG 0.16  HD
BRANCH 40 43
ATOM     43  CA  SER X1000      12.879  45.610  22.031  1.00101.91 LIG 0.42  C 
ATOM     44  N   SER X1000      11.449  45.995  22.166  1.00101.55 LIG 0.62  N 
BRANCH 43 45
ATOM     45  CB  SER X1000      13.670  46.068  23.254  1.00101.96 LIG 0.21  C 
BRANCH 45 46
ATOM     46 OG   SER X1000      13.137  45.550  24.461  1.00101.15 LIG-0.40  OA
ATOM     47 HG   SER X1000      12.510  45.019  24.285  1.00101.15 LIG 0.21  HD
ENDBRANCH 45 46
ENDBRANCH 43 45
ENDBRANCH 40 43
ENDBRANCH 38 39
BRANCH 38 48
ATOM     48  CB  ASN X1001      14.680  41.509  20.143  1.00101.08 LIG 0.14  C 
BRANCH 48 49
ATOM     49  CG  ASN X1001      13.521  41.829  19.189  1.00100.04 LIG 0.22  C 
ATOM     50  ND2 ASN X1001      12.358  42.152  19.727  1.00 98.76 LIG-0.37  N 
ATOM     51 21HD ASN X1001      11.699  42.375  19.223  1.00 98.76 LIG 0.16  HD
ATOM     52 22HD ASN X1001      12.261  42.139  20.582  1.00 98.76 LIG 0.16  HD
ATOM     53 OD1  ASN X1001      13.703  41.834  17.980  1.00 97.91 LIG-0.27  OA
ENDBRANCH 48 49
ENDBRANCH 38 48
ENDBRANCH 34 38
ENDBRANCH 1 31
TORSDOF 19
ENDMDL
MODEL 26
USER: ADFR SOLUTION from run 81
USER: SCORE 15.168174 LL:  -3.871 LR: -11.794 RR:   0.000 FEB:  -6.126
USER: RMSD 9.712635
USER: SEED 80
USER: STATUS no improvement in best in 4 clusters for 5 generations
USER: GENES 21
USER: genes 0 Translation |==|  0.68297 0.62939 0.37025
USER: genes 1 Rotation |==|  0.40001 0.27583 0.10846 0.69091
USER: genes 2 Torsion [C]-N--CA-[CB] |==|  0.51213
USER: genes 3 Torsion [N]-CA--C-[N] |==|  0.44272
USER: genes 4 Torsion [C]-N--CA-[C] |==|  0.78909
USER: genes 5 Torsion [N]-CA--CB-[SG] |==|  0.46030
USER: genes 6 Torsion [CA]-CB--SG-[HG] |==|  0.92972
USER: genes 7 Torsion [N]-CA--C-[N] |==|  0.93955
USER: genes 8 Torsion [C]-N--CA-[CB] |==|  0.85000
USER: genes 9 Torsion [N]-CA--C-[N] |==|  0.93869
USER: genes 10 Torsion [C]-N--CA-[CB] |==|  0.80482
USER: genes 11 Torsion [N]-CA--C-[O] |==|  0.69658
USER: genes 12 Torsion [N]-CA--CB-[CG2] |==|  0.76863
USER: genes 13 Torsion [O]-C--CA-[N] |==|  0.48297
USER: genes 14 Torsion [N]-C--CA-[N] |==|  0.35960
USER: genes 15 Torsion [C]-CA--N-[C] |==|  0.77080
USER: genes 16 Torsion [N]-C--CA-[N] |==|  0.85447
USER: genes 17 Torsion [C]-CA--CB-[OG] |==|  0.45532
USER: genes 18 Torsion [CA]-CB--OG-[HG] |==|  0.51999
USER: genes 19 Torsion [C]-CA--CB-[CG] |==|  0.98821
USER: genes 20 Torsion [CA]-CB--CG-[ND2] |==|  0.83903
ROOT
ATOM      1  C   PRO X1002      20.520  40.328  24.005  1.00 98.27 LIG 0.24  C 
ATOM      2 O    PRO X1002      21.441  39.655  23.561  1.00 97.40 LIG-0.27  OA
ATOM      3  N   ALA X1003      20.030  40.176  25.232  1.00 97.43 LIG-0.35  N 
ATOM      4 H    ALA X1003      19.544  40.766  25.626  1.00 97.43 LIG 0.16  HD
ENDROOT
BRANCH 3 5
ATOM      5  CA  ALA X1003      20.278  38.976  26.032  1.00 96.73 LIG 0.17  C 
ATOM      6  CB  ALA X1003      19.511  39.041  27.333  1.00 96.74 LIG 0.04  C 
BRANCH 5 7
ATOM      7  C   ALA X1003      19.805  37.809  25.165  1.00 95.66 LIG 0.24  C 
ATOM      8 O    ALA X1003      19.012  38.024  24.262  1.00 95.14 LIG-0.27  OA
ATOM      9  N   CYS X1004      20.241  36.576  25.394  1.00 94.40 LIG-0.34  N 
ATOM     10 H    CYS X1004      20.144  35.954  24.807  1.00 94.40 LIG 0.16  HD
BRANCH 9 11
ATOM     11  CA  CYS X1004      20.918  36.086  26.596  1.00 94.17 LIG 0.18  C 
BRANCH 11 12
ATOM     12  CB  CYS X1004      20.848  34.541  26.567  1.00 94.12 LIG 0.10  C 
BRANCH 12 13
ATOM     13 SG   CYS X1004      21.892  33.619  27.663  1.00 91.26 LIG-0.18  SA
ATOM     14 HG   CYS X1004      22.857  34.274  27.943  1.00 91.26 LIG 0.10  HD
ENDBRANCH 12 13
ENDBRANCH 11 12
BRANCH 11 15
ATOM     15  C   CYS X1004      22.390  36.532  26.672  1.00 93.84 LIG 0.24  C 
ATOM     16 O    CYS X1004      22.974  36.610  27.742  1.00 93.01 LIG-0.27  OA
ATOM     17  N   VAL X1005      22.961  36.873  25.526  1.00 93.78 LIG-0.35  N 
ATOM     18 H    VAL X1005      22.529  36.953  24.788  1.00 93.78 LIG 0.16  HD
BRANCH 17 19
ATOM     19  CA  VAL X1005      24.397  37.145  25.407  1.00 93.73 LIG 0.18  C 
BRANCH 19 20
ATOM     20  C   VAL X1005      25.245  35.874  25.545  1.00 93.48 LIG 0.24  C 
ATOM     21  N   ALA X1006      24.679  34.848  26.179  1.00 93.27 LIG-0.35  N 
ATOM     22 H    ALA X1006      23.885  34.876  26.508  1.00 93.27 LIG 0.16  HD
ATOM     23 O    VAL X1005      26.385  35.834  25.097  1.00 93.20 LIG-0.27  OA
BRANCH 21 24
ATOM     24  CA  ALA X1006      25.355  33.568  26.380  1.00 93.01 LIG 0.16  C 
ATOM     25  CB  ALA X1006      25.487  32.842  25.074  1.00 92.79 LIG 0.04  C 
BRANCH 24 26
ATOM     26  C   ALA X1006      26.726  33.768  27.009  1.00 92.71 LIG 0.22  C 
ATOM     27 O    ALA X1006      27.755  33.582  26.366  1.00 91.80 LIG-0.29  OA
ENDBRANCH 24 26
ENDBRANCH 21 24
ENDBRANCH 19 20
BRANCH 19 28
ATOM     28  CB  VAL X1005      24.802  38.228  26.451  1.00 93.65 LIG 0.01  C 
ATOM     29  CG2 VAL X1005      24.502  39.599  25.892  1.00 92.72 LIG 0.01  C 
ATOM     30  CG1 VAL X1005      26.252  38.098  26.890  1.00 92.97 LIG 0.01  C 
ENDBRANCH 19 28
ENDBRANCH 17 19
ENDBRANCH 11 15
ENDBRANCH 9 11
ENDBRANCH 5 7
ENDBRANCH 3 5
BRANCH 1 31
ATOM     31  CA  PRO X1002      19.903  41.454  23.171  1.00 99.31 LIG 0.18  C 
ATOM     32  N   PRO X1002      18.719  42.096  23.750  1.00 99.88 LIG-0.34  N 
ATOM     33  CD  PRO X1002      19.046  43.426  24.274  1.00 99.70 LIG 0.13  C 
ATOM     34  C   ASN X1001      17.537  41.462  23.679  1.00100.64 LIG 0.24  C 
ATOM     35  CG  PRO X1002      20.100  43.857  23.343  1.00 99.65 LIG 0.02  C 
ATOM     36  CB  PRO X1002      20.893  42.617  23.044  1.00 99.37 LIG 0.04  C 
ATOM     37 O    ASN X1001      17.422  40.378  23.119  1.00100.22 LIG-0.27  OA
BRANCH 34 38
ATOM     38  CA  ASN X1001      16.289  42.188  24.225  1.00101.23 LIG 0.18  C 
BRANCH 38 39
ATOM     39  N   ASN X1001      15.265  42.121  23.171  1.00101.62 LIG-0.34  N 
ATOM     40  C   SER X1000      15.275  42.999  22.166  1.00101.89 LIG 0.26  C 
ATOM     41 O    SER X1000      15.818  44.109  22.257  1.00101.60 LIG-0.27  OA
ATOM     42 H    ASN X1001      14.688  41.489  23.263  1.00101.62 LIG 0.16  HD
BRANCH 40 43
ATOM     43  CA  SER X1000      14.569  42.590  20.865  1.00101.91 LIG 0.42  C 
ATOM     44  N   SER X1000      15.039  41.269  20.369  1.00101.55 LIG 0.62  N 
BRANCH 43 45
ATOM     45  CB  SER X1000      13.051  42.586  21.029  1.00101.96 LIG 0.21  C 
BRANCH 45 46
ATOM     46 OG   SER X1000      12.379  42.573  19.782  1.00101.15 LIG-0.40  OA
ATOM     47 HG   SER X1000      11.554  42.670  19.907  1.00101.15 LIG 0.21  HD
ENDBRANCH 45 46
ENDBRANCH 43 45
ENDBRANCH 40 43
ENDBRANCH 38 39
BRANCH 38 48
ATOM     48  CB  ASN X1001      15.758  41.686  25.592  1.00101.08 LIG 0.14  C 
BRANCH 48 49
ATOM     49  CG  ASN X1001      16.499  40.465  26.154  1.00100.04 LIG 0.22  C 
ATOM     50  ND2 ASN X1001      16.528  39.373  25.411  1.00 98.76 LIG-0.37  N 
ATOM     51 21HD ASN X1001      16.968  38.684  25.678  1.00 98.76 LIG 0.16  HD
ATOM     52 22HD ASN X1001      16.108  39.351  24.661  1.00 98.76 LIG 0.16  HD
ATOM     53 OD1  ASN X1001      17.081  40.539  27.226  1.00 97.91 LIG-0.27  OA
ENDBRANCH 48 49
ENDBRANCH 38 48
ENDBRANCH 34 38
ENDBRANCH 1 31
TORSDOF 19
ENDMDL
MODEL 27
USER: ADFR SOLUTION from run 95
USER: SCORE 13.934372 LL:  -3.085 LR: -11.785 RR:   0.000 FEB:  -6.118
USER: RMSD 9.350559
USER: SEED 94
USER: STATUS no improvement in best in 8 clusters for 5 generations
USER: GENES 21
USER: genes 0 Translation |==|  0.58968 0.67076 0.32301
USER: genes 1 Rotation |==|  0.25198 0.24083 0.15191 0.51231
USER: genes 2 Torsion [C]-N--CA-[CB] |==|  0.50003
USER: genes 3 Torsion [N]-CA--C-[N] |==|  0.35545
USER: genes 4 Torsion [C]-N--CA-[C] |==|  0.81919
USER: genes 5 Torsion [N]-CA--CB-[SG] |==|  0.62057
USER: genes 6 Torsion [CA]-CB--SG-[HG] |==|  0.02893
USER: genes 7 Torsion [N]-CA--C-[N] |==|  0.38644
USER: genes 8 Torsion [C]-N--CA-[CB] |==|  0.82424
USER: genes 9 Torsion [N]-CA--C-[N] |==|  0.38302
USER: genes 10 Torsion [C]-N--CA-[CB] |==|  0.81400
USER: genes 11 Torsion [N]-CA--C-[O] |==|  0.60722
USER: genes 12 Torsion [N]-CA--CB-[CG2] |==|  0.88233
USER: genes 13 Torsion [O]-C--CA-[N] |==|  0.29655
USER: genes 14 Torsion [N]-C--CA-[N] |==|  0.92918
USER: genes 15 Torsion [C]-CA--N-[C] |==|  0.67438
USER: genes 16 Torsion [N]-C--CA-[N] |==|  0.87409
USER: genes 17 Torsion [C]-CA--CB-[OG] |==|  0.74170
USER: genes 18 Torsion [CA]-CB--OG-[HG] |==|  0.42295
USER: genes 19 Torsion [C]-CA--CB-[CG] |==|  0.35206
USER: genes 20 Torsion [CA]-CB--CG-[ND2] |==|  0.14888
ROOT
ATOM      1  C   PRO X1002      18.281  41.166  23.084  1.00 98.27 LIG 0.24  C 
ATOM      2 O    PRO X1002      18.398  39.950  23.160  1.00 97.40 LIG-0.27  OA
ATOM      3  N   ALA X1003      18.218  41.961  24.148  1.00 97.43 LIG-0.35  N 
ATOM      4 H    ALA X1003      18.351  42.811  24.115  1.00 97.43 LIG 0.16  HD
ENDROOT
BRANCH 3 5
ATOM      5  CA  ALA X1003      17.913  41.457  25.488  1.00 96.73 LIG 0.17  C 
ATOM      6  CB  ALA X1003      17.910  42.588  26.490  1.00 96.74 LIG 0.04  C 
BRANCH 5 7
ATOM      7  C   ALA X1003      16.531  40.813  25.371  1.00 95.66 LIG 0.24  C 
ATOM      8 O    ALA X1003      15.614  41.460  24.891  1.00 95.14 LIG-0.27  OA
ATOM      9  N   CYS X1004      16.326  39.570  25.792  1.00 94.40 LIG-0.34  N 
ATOM     10 H    CYS X1004      15.623  39.133  25.558  1.00 94.40 LIG 0.16  HD
BRANCH 9 11
ATOM     11  CA  CYS X1004      17.194  38.778  26.665  1.00 94.17 LIG 0.18  C 
BRANCH 11 12
ATOM     12  CB  CYS X1004      16.452  37.457  26.976  1.00 94.12 LIG 0.10  C 
BRANCH 12 13
ATOM     13 SG   CYS X1004      16.464  36.842  28.638  1.00 91.26 LIG-0.18  SA
ATOM     14 HG   CYS X1004      16.909  37.680  29.372  1.00 91.26 LIG 0.10  HD
ENDBRANCH 12 13
ENDBRANCH 11 12
BRANCH 11 15
ATOM     15  C   CYS X1004      18.556  38.462  26.018  1.00 93.84 LIG 0.24  C 
ATOM     16 O    CYS X1004      18.636  38.109  24.851  1.00 93.01 LIG-0.27  OA
ATOM     17  N   VAL X1005      19.616  38.544  26.807  1.00 93.78 LIG-0.35  N 
ATOM     18 H    VAL X1005      19.565  38.658  27.658  1.00 93.78 LIG 0.16  HD
BRANCH 17 19
ATOM     19  CA  VAL X1005      20.989  38.450  26.302  1.00 93.73 LIG 0.18  C 
BRANCH 19 20
ATOM     20  C   VAL X1005      21.322  39.569  25.307  1.00 93.48 LIG 0.24  C 
ATOM     21  N   ALA X1006      22.520  40.137  25.430  1.00 93.27 LIG-0.35  N 
ATOM     22 H    ALA X1006      23.091  39.909  26.032  1.00 93.27 LIG 0.16  HD
ATOM     23 O    VAL X1005      20.505  39.913  24.460  1.00 93.20 LIG-0.27  OA
BRANCH 21 24
ATOM     24  CA  ALA X1006      22.986  41.208  24.551  1.00 93.01 LIG 0.16  C 
ATOM     25  CB  ALA X1006      23.173  40.687  23.157  1.00 92.79 LIG 0.04  C 
BRANCH 24 26
ATOM     26  C   ALA X1006      22.010  42.374  24.548  1.00 92.71 LIG 0.22  C 
ATOM     27 O    ALA X1006      21.760  42.994  23.518  1.00 91.80 LIG-0.29  OA
ENDBRANCH 24 26
ENDBRANCH 21 24
ENDBRANCH 19 20
BRANCH 19 28
ATOM     28  CB  VAL X1005      21.212  37.038  25.682  1.00 93.65 LIG 0.01  C 
ATOM     29  CG2 VAL X1005      20.582  35.995  26.575  1.00 92.72 LIG 0.01  C 
ATOM     30  CG1 VAL X1005      22.680  36.746  25.416  1.00 92.97 LIG 0.01  C 
ENDBRANCH 19 28
ENDBRANCH 17 19
ENDBRANCH 11 15
ENDBRANCH 9 11
ENDBRANCH 5 7
ENDBRANCH 3 5
BRANCH 1 31
ATOM     31  CA  PRO X1002      18.262  41.865  21.722  1.00 99.31 LIG 0.18  C 
ATOM     32  N   PRO X1002      16.956  42.368  21.286  1.00 99.88 LIG-0.34  N 
ATOM     33  CD  PRO X1002      16.889  43.828  21.405  1.00 99.70 LIG 0.13  C 
ATOM     34  C   ASN X1001      16.056  41.499  20.797  1.00100.64 LIG 0.24  C 
ATOM     35  CG  PRO X1002      18.283  44.209  21.133  1.00 99.65 LIG 0.02  C 
ATOM     36  CB  PRO X1002      19.118  43.135  21.771  1.00 99.37 LIG 0.04  C 
ATOM     37 O    ASN X1001      16.311  40.306  20.682  1.00100.22 LIG-0.27  OA
BRANCH 34 38
ATOM     38  CA  ASN X1001      14.717  42.058  20.271  1.00101.23 LIG 0.18  C 
BRANCH 38 39
ATOM     39  N   ASN X1001      14.484  43.329  20.973  1.00101.62 LIG-0.34  N 
ATOM     40  C   SER X1000      13.425  43.472  21.773  1.00101.89 LIG 0.26  C 
ATOM     41 O    SER X1000      12.405  42.777  21.660  1.00101.60 LIG-0.27  OA
ATOM     42 H    ASN X1001      15.070  43.941  20.824  1.00101.62 LIG 0.16  HD
BRANCH 40 43
ATOM     43  CA  SER X1000      13.504  44.555  22.859  1.00101.91 LIG 0.42  C 
ATOM     44  N   SER X1000      14.806  44.530  23.577  1.00101.55 LIG 0.62  N 
BRANCH 43 45
ATOM     45  CB  SER X1000      13.240  45.945  22.284  1.00101.96 LIG 0.21  C 
BRANCH 45 46
ATOM     46 OG   SER X1000      14.437  46.604  21.907  1.00101.15 LIG-0.40  OA
ATOM     47 HG   SER X1000      14.275  47.145  21.286  1.00101.15 LIG 0.21  HD
ENDBRANCH 45 46
ENDBRANCH 43 45
ENDBRANCH 40 43
ENDBRANCH 38 39
BRANCH 38 48
ATOM     48  CB  ASN X1001      14.603  42.208  18.733  1.00101.08 LIG 0.14  C 
BRANCH 48 49
ATOM     49  CG  ASN X1001      13.375  41.527  18.115  1.00100.04 LIG 0.22  C 
ATOM     50  ND2 ASN X1001      12.190  41.834  18.613  1.00 98.76 LIG-0.37  N 
ATOM     51 21HD ASN X1001      11.478  41.502  18.265  1.00 98.76 LIG 0.16  HD
ATOM     52 22HD ASN X1001      12.132  42.367  19.286  1.00 98.76 LIG 0.16  HD
ATOM     53 OD1  ASN X1001      13.504  40.775  17.160  1.00 97.91 LIG-0.27  OA
ENDBRANCH 48 49
ENDBRANCH 38 48
ENDBRANCH 34 38
ENDBRANCH 1 31
TORSDOF 19
ENDMDL
MODEL 28
USER: ADFR SOLUTION from run 116
USER: SCORE 13.400092 LL:  -3.616 LR: -11.784 RR:   0.000 FEB:  -6.116
USER: RMSD 9.573129
USER: SEED 115
USER: STATUS no improvement in best in 9 clusters for 5 generations
USER: GENES 21
USER: genes 0 Translation |==|  0.52219 0.71598 0.32859
USER: genes 1 Rotation |==|  0.40430 0.11842 0.80374 0.55456
USER: genes 2 Torsion [C]-N--CA-[CB] |==|  0.19739
USER: genes 3 Torsion [N]-CA--C-[N] |==|  0.32232
USER: genes 4 Torsion [C]-N--CA-[C] |==|  0.77297
USER: genes 5 Torsion [N]-CA--CB-[SG] |==|  0.25529
USER: genes 6 Torsion [CA]-CB--SG-[HG] |==|  0.88170
USER: genes 7 Torsion [N]-CA--C-[N] |==|  0.00237
USER: genes 8 Torsion [C]-N--CA-[CB] |==|  0.86094
USER: genes 9 Torsion [N]-CA--C-[N] |==|  0.37351
USER: genes 10 Torsion [C]-N--CA-[CB] |==|  0.24720
USER: genes 11 Torsion [N]-CA--C-[O] |==|  0.93514
USER: genes 12 Torsion [N]-CA--CB-[CG2] |==|  0.85543
USER: genes 13 Torsion [O]-C--CA-[N] |==|  0.99986
USER: genes 14 Torsion [N]-C--CA-[N] |==|  0.35008
USER: genes 15 Torsion [C]-CA--N-[C] |==|  0.66423
USER: genes 16 Torsion [N]-C--CA-[N] |==|  0.30105
USER: genes 17 Torsion [C]-CA--CB-[OG] |==|  0.10537
USER: genes 18 Torsion [CA]-CB--OG-[HG] |==|  0.46013
USER: genes 19 Torsion [C]-CA--CB-[CG] |==|  0.62364
USER: genes 20 Torsion [CA]-CB--CG-[ND2] |==|  0.41315
ROOT
ATOM      1  C   PRO X1002      16.661  42.082  23.193  1.00 98.27 LIG 0.24  C 
ATOM      2 O    PRO X1002      17.633  42.697  22.772  1.00 97.40 LIG-0.27  OA
ATOM      3  N   ALA X1003      15.446  42.185  22.662  1.00 97.43 LIG-0.35  N 
ATOM      4 H    ALA X1003      14.817  41.615  22.800  1.00 97.43 LIG 0.16  HD
ENDROOT
BRANCH 3 5
ATOM      5  CA  ALA X1003      15.066  43.292  21.783  1.00 96.73 LIG 0.17  C 
ATOM      6  CB  ALA X1003      15.755  43.164  20.443  1.00 96.74 LIG 0.04  C 
BRANCH 5 7
ATOM      7  C   ALA X1003      13.547  43.189  21.639  1.00 95.66 LIG 0.24  C 
ATOM      8 O    ALA X1003      13.068  42.208  21.092  1.00 95.14 LIG-0.27  OA
ATOM      9  N   CYS X1004      12.758  44.154  22.094  1.00 94.40 LIG-0.34  N 
ATOM     10 H    CYS X1004      11.913  44.025  22.199  1.00 94.40 LIG 0.16  HD
BRANCH 9 11
ATOM     11  CA  CYS X1004      13.150  45.513  22.473  1.00 94.17 LIG 0.18  C 
BRANCH 11 12
ATOM     12  CB  CYS X1004      11.885  46.398  22.388  1.00 94.12 LIG 0.10  C 
BRANCH 12 13
ATOM     13 SG   CYS X1004      10.891  46.608  23.840  1.00 91.26 LIG-0.18  SA
ATOM     14 HG   CYS X1004      10.771  45.553  24.399  1.00 91.26 LIG 0.10  HD
ENDBRANCH 12 13
ENDBRANCH 11 12
BRANCH 11 15
ATOM     15  C   CYS X1004      13.733  45.586  23.897  1.00 93.84 LIG 0.24  C 
ATOM     16 O    CYS X1004      14.139  46.640  24.362  1.00 93.01 LIG-0.27  OA
ATOM     17  N   VAL X1005      13.815  44.442  24.560  1.00 93.78 LIG-0.35  N 
ATOM     18 H    VAL X1005      13.661  43.676  24.201  1.00 93.78 LIG 0.16  HD
BRANCH 17 19
ATOM     19  CA  VAL X1005      14.176  44.372  25.979  1.00 93.73 LIG 0.18  C 
BRANCH 19 20
ATOM     20  C   VAL X1005      13.031  44.822  26.894  1.00 93.48 LIG 0.24  C 
ATOM     21  N   ALA X1006      12.778  44.053  27.952  1.00 93.27 LIG-0.35  N 
ATOM     22 H    ALA X1006      13.215  43.335  28.128  1.00 93.27 LIG 0.16  HD
ATOM     23 O    VAL X1005      12.390  45.836  26.638  1.00 93.20 LIG-0.27  OA
BRANCH 21 24
ATOM     24  CA  ALA X1006      11.726  44.357  28.921  1.00 93.01 LIG 0.16  C 
ATOM     25  CB  ALA X1006      10.430  43.739  28.488  1.00 92.79 LIG 0.04  C 
BRANCH 24 26
ATOM     26  C   ALA X1006      12.104  43.865  30.309  1.00 92.71 LIG 0.22  C 
ATOM     27 O    ALA X1006      12.917  42.958  30.464  1.00 91.80 LIG-0.29  OA
ENDBRANCH 24 26
ENDBRANCH 21 24
ENDBRANCH 19 20
BRANCH 19 28
ATOM     28  CB  VAL X1005      15.472  45.202  26.219  1.00 93.65 LIG 0.01  C 
ATOM     29  CG2 VAL X1005      16.536  44.764  25.241  1.00 92.72 LIG 0.01  C 
ATOM     30  CG1 VAL X1005      15.955  45.120  27.658  1.00 92.97 LIG 0.01  C 
ENDBRANCH 19 28
ENDBRANCH 17 19
ENDBRANCH 11 15
ENDBRANCH 9 11
ENDBRANCH 5 7
ENDBRANCH 3 5
BRANCH 1 31
ATOM     31  CA  PRO X1002      16.806  41.086  24.347  1.00 99.31 LIG 0.18  C 
ATOM     32  N   PRO X1002      18.160  40.935  24.887  1.00 99.88 LIG-0.34  N 
ATOM     33  CD  PRO X1002      18.283  41.598  26.189  1.00 99.70 LIG 0.13  C 
ATOM     34  C   ASN X1001      19.053  40.198  24.205  1.00100.64 LIG 0.24  C 
ATOM     35  CG  PRO X1002      16.930  41.423  26.736  1.00 99.65 LIG 0.02  C 
ATOM     36  CB  PRO X1002      16.006  41.569  25.561  1.00 99.37 LIG 0.04  C 
ATOM     37 O    ASN X1001      18.755  39.631  23.161  1.00100.22 LIG-0.27  OA
BRANCH 34 38
ATOM     38  CA  ASN X1001      20.449  39.987  24.829  1.00101.23 LIG 0.18  C 
BRANCH 38 39
ATOM     39  N   ASN X1001      20.680  38.536  24.868  1.00101.62 LIG-0.34  N 
ATOM     40  C   SER X1000      20.908  37.921  26.031  1.00101.89 LIG 0.26  C 
ATOM     41 O    SER X1000      21.346  38.517  27.025  1.00101.60 LIG-0.27  OA
ATOM     42 H    ASN X1001      20.655  38.142  24.103  1.00101.62 LIG 0.16  HD
BRANCH 40 43
ATOM     43  CA  SER X1000      20.614  36.416  26.101  1.00101.91 LIG 0.42  C 
ATOM     44  N   SER X1000      21.861  35.607  26.166  1.00101.55 LIG 0.62  N 
BRANCH 43 45
ATOM     45  CB  SER X1000      19.700  36.078  27.277  1.00101.96 LIG 0.21  C 
BRANCH 45 46
ATOM     46 OG   SER X1000      18.703  37.065  27.479  1.00101.15 LIG-0.40  OA
ATOM     47 HG   SER X1000      18.109  36.763  27.990  1.00101.15 LIG 0.21  HD
ENDBRANCH 45 46
ENDBRANCH 43 45
ENDBRANCH 40 43
ENDBRANCH 38 39
BRANCH 38 48
ATOM     48  CB  ASN X1001      21.616  40.750  24.151  1.00101.08 LIG 0.14  C 
BRANCH 48 49
ATOM     49  CG  ASN X1001      22.884  39.913  23.934  1.00100.04 LIG 0.22  C 
ATOM     50  ND2 ASN X1001      23.634  40.200  22.885  1.00 98.76 LIG-0.37  N 
ATOM     51 21HD ASN X1001      24.371  39.779  22.756  1.00 98.76 LIG 0.16  HD
ATOM     52 22HD ASN X1001      23.384  40.810  22.332  1.00 98.76 LIG 0.16  HD
ATOM     53 OD1  ASN X1001      23.201  39.056  24.746  1.00 97.91 LIG-0.27  OA
ENDBRANCH 48 49
ENDBRANCH 38 48
ENDBRANCH 34 38
ENDBRANCH 1 31
TORSDOF 19
ENDMDL
MODEL 29
USER: ADFR SOLUTION from run 145
USER: SCORE 12.741652 LL:  -2.338 LR: -11.748 RR:   0.000 FEB:  -6.080
USER: RMSD 9.613657
USER: SEED 144
USER: STATUS no improvement in best in 6 clusters for 5 generations
USER: GENES 21
USER: genes 0 Translation |==|  0.63060 0.58937 0.36821
USER: genes 1 Rotation |==|  0.91544 0.35117 0.72778 0.55808
USER: genes 2 Torsion [C]-N--CA-[CB] |==|  0.51567
USER: genes 3 Torsion [N]-CA--C-[N] |==|  0.48859
USER: genes 4 Torsion [C]-N--CA-[C] |==|  0.63528
USER: genes 5 Torsion [N]-CA--CB-[SG] |==|  0.15146
USER: genes 6 Torsion [CA]-CB--SG-[HG] |==|  0.92915
USER: genes 7 Torsion [N]-CA--C-[N] |==|  0.30801
USER: genes 8 Torsion [C]-N--CA-[CB] |==|  0.81810
USER: genes 9 Torsion [N]-CA--C-[N] |==|  0.41423
USER: genes 10 Torsion [C]-N--CA-[CB] |==|  0.50411
USER: genes 11 Torsion [N]-CA--C-[O] |==|  0.93017
USER: genes 12 Torsion [N]-CA--CB-[CG2] |==|  0.69566
USER: genes 13 Torsion [O]-C--CA-[N] |==|  0.06713
USER: genes 14 Torsion [N]-C--CA-[N] |==|  0.78476
USER: genes 15 Torsion [C]-CA--N-[C] |==|  0.60007
USER: genes 16 Torsion [N]-C--CA-[N] |==|  0.37435
USER: genes 17 Torsion [C]-CA--CB-[OG] |==|  0.14763
USER: genes 18 Torsion [CA]-CB--OG-[HG] |==|  0.23584
USER: genes 19 Torsion [C]-CA--CB-[CG] |==|  0.14750
USER: genes 20 Torsion [CA]-CB--CG-[ND2] |==|  0.39501
ROOT
ATOM      1  C   PRO X1002      19.263  39.518  23.965  1.00 98.27 LIG 0.24  C 
ATOM      2 O    PRO X1002      18.044  39.593  23.890  1.00 97.40 LIG-0.27  OA
ATOM      3  N   ALA X1003      19.896  38.549  24.620  1.00 97.43 LIG-0.35  N 
ATOM      4 H    ALA X1003      20.728  38.362  24.505  1.00 97.43 LIG 0.16  HD
ENDROOT
BRANCH 3 5
ATOM      5  CA  ALA X1003      19.226  37.701  25.608  1.00 96.73 LIG 0.17  C 
ATOM      6  CB  ALA X1003      20.222  36.787  26.283  1.00 96.74 LIG 0.04  C 
BRANCH 5 7
ATOM      7  C   ALA X1003      18.593  38.670  26.607  1.00 95.66 LIG 0.24  C 
ATOM      8 O    ALA X1003      18.803  39.867  26.487  1.00 95.14 LIG-0.27  OA
ATOM      9  N   CYS X1004      17.833  38.219  27.598  1.00 94.40 LIG-0.34  N 
ATOM     10 H    CYS X1004      17.320  38.749  28.040  1.00 94.40 LIG 0.16  HD
BRANCH 9 11
ATOM     11  CA  CYS X1004      17.736  36.841  28.082  1.00 94.17 LIG 0.18  C 
BRANCH 11 12
ATOM     12  CB  CYS X1004      18.437  36.786  29.459  1.00 94.12 LIG 0.10  C 
BRANCH 12 13
ATOM     13 SG   CYS X1004      17.918  37.911  30.726  1.00 91.26 LIG-0.18  SA
ATOM     14 HG   CYS X1004      17.437  38.888  30.222  1.00 91.26 LIG 0.10  HD
ENDBRANCH 12 13
ENDBRANCH 11 12
BRANCH 11 15
ATOM     15  C   CYS X1004      16.278  36.365  28.228  1.00 93.84 LIG 0.24  C 
ATOM     16 O    CYS X1004      15.560  36.792  29.118  1.00 93.01 LIG-0.27  OA
ATOM     17  N   VAL X1005      15.873  35.438  27.373  1.00 93.78 LIG-0.35  N 
ATOM     18 H    VAL X1005      16.401  35.030  26.831  1.00 93.78 LIG 0.16  HD
BRANCH 17 19
ATOM     19  CA  VAL X1005      14.473  35.015  27.268  1.00 93.73 LIG 0.18  C 
BRANCH 19 20
ATOM     20  C   VAL X1005      13.539  36.178  26.910  1.00 93.48 LIG 0.24  C 
ATOM     21  N   ALA X1006      12.458  35.873  26.195  1.00 93.27 LIG-0.35  N 
ATOM     22 H    ALA X1006      12.275  35.075  25.931  1.00 93.27 LIG 0.16  HD
ATOM     23 O    VAL X1005      13.803  37.322  27.265  1.00 93.20 LIG-0.27  OA
BRANCH 21 24
ATOM     24  CA  ALA X1006      11.469  36.870  25.786  1.00 93.01 LIG 0.16  C 
ATOM     25  CB  ALA X1006      10.355  36.212  25.026  1.00 92.79 LIG 0.04  C 
BRANCH 24 26
ATOM     26  C   ALA X1006      10.915  37.615  26.990  1.00 92.71 LIG 0.22  C 
ATOM     27 O    ALA X1006      10.914  37.108  28.108  1.00 91.80 LIG-0.29  OA
ENDBRANCH 24 26
ENDBRANCH 21 24
ENDBRANCH 19 20
BRANCH 19 28
ATOM     28  CB  VAL X1005      14.047  34.317  28.594  1.00 93.65 LIG 0.01  C 
ATOM     29  CG2 VAL X1005      13.868  32.838  28.346  1.00 92.72 LIG 0.01  C 
ATOM     30  CG1 VAL X1005      12.805  34.944  29.207  1.00 92.97 LIG 0.01  C 
ENDBRANCH 19 28
ENDBRANCH 17 19
ENDBRANCH 11 15
ENDBRANCH 9 11
ENDBRANCH 5 7
ENDBRANCH 3 5
BRANCH 1 31
ATOM     31  CA  PRO X1002      20.155  40.529  23.239  1.00 99.31 LIG 0.18  C 
ATOM     32  N   PRO X1002      19.536  41.826  22.949  1.00 99.88 LIG-0.34  N 
ATOM     33  CD  PRO X1002      20.052  42.865  23.845  1.00 99.70 LIG 0.13  C 
ATOM     34  C   ASN X1001      18.676  41.920  21.921  1.00100.64 LIG 0.24  C 
ATOM     35  CG  PRO X1002      21.433  42.407  24.061  1.00 99.65 LIG 0.02  C 
ATOM     36  CB  PRO X1002      21.347  40.909  24.123  1.00 99.37 LIG 0.04  C 
ATOM     37 O    ASN X1001      18.420  40.958  21.208  1.00100.22 LIG-0.27  OA
BRANCH 34 38
ATOM     38  CA  ASN X1001      18.096  43.310  21.585  1.00101.23 LIG 0.18  C 
BRANCH 38 39
ATOM     39  N   ASN X1001      17.047  43.583  22.578  1.00101.62 LIG-0.34  N 
ATOM     40  C   SER X1000      15.941  44.242  22.226  1.00101.89 LIG 0.26  C 
ATOM     41 O    SER X1000      15.899  44.997  21.245  1.00101.60 LIG-0.27  OA
ATOM     42 H    ASN X1001      17.209  43.289  23.370  1.00101.62 LIG 0.16  HD
BRANCH 40 43
ATOM     43  CA  SER X1000      14.693  44.040  23.098  1.00101.91 LIG 0.42  C 
ATOM     44  N   SER X1000      14.013  45.327  23.403  1.00101.55 LIG 0.62  N 
BRANCH 43 45
ATOM     45  CB  SER X1000      13.713  43.061  22.455  1.00101.96 LIG 0.21  C 
BRANCH 45 46
ATOM     46 OG   SER X1000      14.332  41.833  22.112  1.00101.15 LIG-0.40  OA
ATOM     47 HG   SER X1000      14.337  41.325  22.780  1.00101.15 LIG 0.21  HD
ENDBRANCH 45 46
ENDBRANCH 43 45
ENDBRANCH 40 43
ENDBRANCH 38 39
BRANCH 38 48
ATOM     48  CB  ASN X1001      19.123  44.466  21.483  1.00101.08 LIG 0.14  C 
BRANCH 48 49
ATOM     49  CG  ASN X1001      20.294  44.196  20.530  1.00100.04 LIG 0.22  C 
ATOM     50  ND2 ASN X1001      20.738  45.208  19.805  1.00 98.76 LIG-0.37  N 
ATOM     51 21HD ASN X1001      21.418  45.102  19.290  1.00 98.76 LIG 0.16  HD
ATOM     52 22HD ASN X1001      20.346  45.973  19.849  1.00 98.76 LIG 0.16  HD
ATOM     53 OD1  ASN X1001      20.821  43.093  20.498  1.00 97.91 LIG-0.27  OA
ENDBRANCH 48 49
ENDBRANCH 38 48
ENDBRANCH 34 38
ENDBRANCH 1 31
TORSDOF 19
ENDMDL
MODEL 30
USER: ADFR SOLUTION from run 88
USER: SCORE 13.271536 LL:  -3.122 LR: -11.717 RR:   0.000 FEB:  -6.049
USER: RMSD 4.339790
USER: SEED 87
USER: STATUS no improvement in best in 3 clusters for 5 generations
USER: GENES 21
USER: genes 0 Translation |==|  0.45619 0.53671 0.49935
USER: genes 1 Rotation |==|  0.42882 0.47614 0.55156 0.99164
USER: genes 2 Torsion [C]-N--CA-[CB] |==|  0.48616
USER: genes 3 Torsion [N]-CA--C-[N] |==|  0.44639
USER: genes 4 Torsion [C]-N--CA-[C] |==|  0.73888
USER: genes 5 Torsion [N]-CA--CB-[SG] |==|  0.49874
USER: genes 6 Torsion [CA]-CB--SG-[HG] |==|  0.44077
USER: genes 7 Torsion [N]-CA--C-[N] |==|  0.71810
USER: genes 8 Torsion [C]-N--CA-[CB] |==|  0.82518
USER: genes 9 Torsion [N]-CA--C-[N] |==|  0.38628
USER: genes 10 Torsion [C]-N--CA-[CB] |==|  0.84194
USER: genes 11 Torsion [N]-CA--C-[O] |==|  0.12542
USER: genes 12 Torsion [N]-CA--CB-[CG2] |==|  0.69418
USER: genes 13 Torsion [O]-C--CA-[N] |==|  0.02301
USER: genes 14 Torsion [N]-C--CA-[N] |==|  0.28749
USER: genes 15 Torsion [C]-CA--N-[C] |==|  0.70449
USER: genes 16 Torsion [N]-C--CA-[N] |==|  0.45034
USER: genes 17 Torsion [C]-CA--CB-[OG] |==|  0.15296
USER: genes 18 Torsion [CA]-CB--OG-[HG] |==|  0.62844
USER: genes 19 Torsion [C]-CA--CB-[CG] |==|  0.54051
USER: genes 20 Torsion [CA]-CB--CG-[ND2] |==|  0.89679
ROOT
ATOM      1  C   PRO X1002      15.078  38.451  26.522  1.00 98.27 LIG 0.24  C 
ATOM      2 O    PRO X1002      14.479  38.736  25.494  1.00 97.40 LIG-0.27  OA
ATOM      3  N   ALA X1003      16.095  39.165  26.996  1.00 97.43 LIG-0.35  N 
ATOM      4 H    ALA X1003      16.379  39.108  27.806  1.00 97.43 LIG 0.16  HD
ENDROOT
BRANCH 3 5
ATOM      5  CA  ALA X1003      16.831  40.125  26.172  1.00 96.73 LIG 0.17  C 
ATOM      6  CB  ALA X1003      17.847  40.870  27.007  1.00 96.74 LIG 0.04  C 
BRANCH 5 7
ATOM      7  C   ALA X1003      17.510  39.287  25.088  1.00 95.66 LIG 0.24  C 
ATOM      8 O    ALA X1003      17.660  38.089  25.270  1.00 95.14 LIG-0.27  OA
ATOM      9  N   CYS X1004      17.939  39.853  23.966  1.00 94.40 LIG-0.34  N 
ATOM     10 H    CYS X1004      18.139  39.377  23.277  1.00 94.40 LIG 0.16  HD
BRANCH 9 11
ATOM     11  CA  CYS X1004      18.136  41.282  23.714  1.00 94.17 LIG 0.18  C 
BRANCH 11 12
ATOM     12  CB  CYS X1004      19.357  41.420  22.775  1.00 94.12 LIG 0.10  C 
BRANCH 12 13
ATOM     13 SG   CYS X1004      19.860  43.040  22.262  1.00 91.26 LIG-0.18  SA
ATOM     14 HG   CYS X1004      21.007  43.011  21.910  1.00 91.26 LIG 0.10  HD
ENDBRANCH 12 13
ENDBRANCH 11 12
BRANCH 11 15
ATOM     15  C   CYS X1004      16.908  41.943  23.061  1.00 93.84 LIG 0.24  C 
ATOM     16 O    CYS X1004      15.909  42.206  23.713  1.00 93.01 LIG-0.27  OA
ATOM     17  N   VAL X1005      16.980  42.159  21.756  1.00 93.78 LIG-0.35  N 
ATOM     18 H    VAL X1005      17.615  41.859  21.261  1.00 93.78 LIG 0.16  HD
BRANCH 17 19
ATOM     19  CA  VAL X1005      15.975  42.937  21.025  1.00 93.73 LIG 0.18  C 
BRANCH 19 20
ATOM     20  C   VAL X1005      15.892  44.388  21.515  1.00 93.48 LIG 0.24  C 
ATOM     21  N   ALA X1006      15.754  45.325  20.578  1.00 93.27 LIG-0.35  N 
ATOM     22 H    ALA X1006      15.718  45.150  19.737  1.00 93.27 LIG 0.16  HD
ATOM     23 O    VAL X1005      15.964  44.647  22.712  1.00 93.20 LIG-0.27  OA
BRANCH 21 24
ATOM     24  CA  ALA X1006      15.651  46.749  20.889  1.00 93.01 LIG 0.16  C 
ATOM     25  CB  ALA X1006      14.501  46.994  21.821  1.00 92.79 LIG 0.04  C 
BRANCH 24 26
ATOM     26  C   ALA X1006      16.942  47.269  21.502  1.00 92.71 LIG 0.22  C 
ATOM     27 O    ALA X1006      18.036  46.978  21.027  1.00 91.80 LIG-0.29  OA
ENDBRANCH 24 26
ENDBRANCH 21 24
ENDBRANCH 19 20
BRANCH 19 28
ATOM     28  CB  VAL X1005      14.598  42.214  21.120  1.00 93.65 LIG 0.01  C 
ATOM     29  CG2 VAL X1005      14.233  41.652  19.766  1.00 92.72 LIG 0.01  C 
ATOM     30  CG1 VAL X1005      13.506  43.116  21.673  1.00 92.97 LIG 0.01  C 
ENDBRANCH 19 28
ENDBRANCH 17 19
ENDBRANCH 11 15
ENDBRANCH 9 11
ENDBRANCH 5 7
ENDBRANCH 3 5
BRANCH 1 31
ATOM     31  CA  PRO X1002      14.639  37.260  27.378  1.00 99.31 LIG 0.18  C 
ATOM     32  N   PRO X1002      13.608  36.402  26.788  1.00 99.88 LIG-0.34  N 
ATOM     33  CD  PRO X1002      14.181  35.135  26.323  1.00 99.70 LIG 0.13  C 
ATOM     34  C   ASN X1001      12.330  36.818  26.802  1.00100.64 LIG 0.24  C 
ATOM     35  CG  PRO X1002      15.261  34.926  27.298  1.00 99.65 LIG 0.02  C 
ATOM     36  CB  PRO X1002      15.813  36.295  27.576  1.00 99.37 LIG 0.04  C 
ATOM     37 O    ASN X1001      12.007  37.882  27.319  1.00100.22 LIG-0.27  OA
BRANCH 34 38
ATOM     38  CA  ASN X1001      11.249  35.867  26.247  1.00101.23 LIG 0.18  C 
BRANCH 38 39
ATOM     39  N   ASN X1001      10.558  35.287  27.408  1.00101.62 LIG-0.34  N 
ATOM     40  C   SER X1000      10.776  34.017  27.756  1.00101.89 LIG 0.26  C 
ATOM     41 O    SER X1000      11.191  33.168  26.954  1.00101.60 LIG-0.27  OA
ATOM     42 H    ASN X1001      10.026  35.822  27.821  1.00101.62 LIG 0.16  HD
BRANCH 40 43
ATOM     43  CA  SER X1000      10.483  33.625  29.211  1.00101.91 LIG 0.42  C 
ATOM     44  N   SER X1000      10.349  32.153  29.375  1.00101.55 LIG 0.62  N 
BRANCH 43 45
ATOM     45  CB  SER X1000      11.545  34.171  30.163  1.00101.96 LIG 0.21  C 
BRANCH 45 46
ATOM     46 OG   SER X1000      11.700  35.575  30.042  1.00101.15 LIG-0.40  OA
ATOM     47 HG   SER X1000      12.518  35.764  30.004  1.00101.15 LIG 0.21  HD
ENDBRANCH 45 46
ENDBRANCH 43 45
ENDBRANCH 40 43
ENDBRANCH 38 39
BRANCH 38 48
ATOM     48  CB  ASN X1001      10.262  36.488  25.226  1.00101.08 LIG 0.14  C 
BRANCH 48 49
ATOM     49  CG  ASN X1001       9.007  35.646  24.960  1.00100.04 LIG 0.22  C 
ATOM     50  ND2 ASN X1001       9.146  34.333  24.930  1.00 98.76 LIG-0.37  N 
ATOM     51 21HD ASN X1001       8.457  33.830  24.823  1.00 98.76 LIG 0.16  HD
ATOM     52 22HD ASN X1001       9.927  33.981  25.018  1.00 98.76 LIG 0.16  HD
ATOM     53 OD1  ASN X1001       7.917  36.188  24.840  1.00 97.91 LIG-0.27  OA
ENDBRANCH 48 49
ENDBRANCH 38 48
ENDBRANCH 34 38
ENDBRANCH 1 31
TORSDOF 19
ENDMDL
MODEL 31
USER: ADFR SOLUTION from run 65
USER: SCORE 14.151327 LL:  -3.950 LR: -11.718 RR:   0.000 FEB:  -6.050
USER: RMSD 8.807731
USER: SEED 64
USER: STATUS no improvement in best in 4 clusters for 5 generations
USER: GENES 21
USER: genes 0 Translation |==|  0.55990 0.69055 0.39382
USER: genes 1 Rotation |==|  0.48513 0.47147 0.56341 0.99492
USER: genes 2 Torsion [C]-N--CA-[CB] |==|  0.50612
USER: genes 3 Torsion [N]-CA--C-[N] |==|  0.36888
USER: genes 4 Torsion [C]-N--CA-[C] |==|  0.72881
USER: genes 5 Torsion [N]-CA--CB-[SG] |==|  0.01361
USER: genes 6 Torsion [CA]-CB--SG-[HG] |==|  0.47284
USER: genes 7 Torsion [N]-CA--C-[N] |==|  0.24483
USER: genes 8 Torsion [C]-N--CA-[CB] |==|  0.85474
USER: genes 9 Torsion [N]-CA--C-[N] |==|  0.89166
USER: genes 10 Torsion [C]-N--CA-[CB] |==|  0.24927
USER: genes 11 Torsion [N]-CA--C-[O] |==|  0.21023
USER: genes 12 Torsion [N]-CA--CB-[CG2] |==|  0.86877
USER: genes 13 Torsion [O]-C--CA-[N] |==|  0.41369
USER: genes 14 Torsion [N]-C--CA-[N] |==|  0.78382
USER: genes 15 Torsion [C]-CA--N-[C] |==|  0.68541
USER: genes 16 Torsion [N]-C--CA-[N] |==|  0.36128
USER: genes 17 Torsion [C]-CA--CB-[OG] |==|  0.53907
USER: genes 18 Torsion [CA]-CB--OG-[HG] |==|  0.19748
USER: genes 19 Torsion [C]-CA--CB-[CG] |==|  0.48872
USER: genes 20 Torsion [CA]-CB--CG-[ND2] |==|  0.38484
ROOT
ATOM      1  C   PRO X1002      17.567  41.567  24.465  1.00 98.27 LIG 0.24  C 
ATOM      2 O    PRO X1002      16.934  42.035  23.528  1.00 97.40 LIG-0.27  OA
ATOM      3  N   ALA X1003      18.550  42.217  25.079  1.00 97.43 LIG-0.35  N 
ATOM      4 H    ALA X1003      18.853  42.000  25.855  1.00 97.43 LIG 0.16  HD
ENDROOT
BRANCH 3 5
ATOM      5  CA  ALA X1003      19.215  43.378  24.484  1.00 96.73 LIG 0.17  C 
ATOM      6  CB  ALA X1003      20.323  43.872  25.386  1.00 96.74 LIG 0.04  C 
BRANCH 5 7
ATOM      7  C   ALA X1003      19.765  42.884  23.146  1.00 95.66 LIG 0.24  C 
ATOM      8 O    ALA X1003      20.385  41.833  23.110  1.00 95.14 LIG-0.27  OA
ATOM      9  N   CYS X1004      19.581  43.591  22.037  1.00 94.40 LIG-0.34  N 
ATOM     10 H    CYS X1004      19.707  43.241  21.261  1.00 94.40 LIG 0.16  HD
BRANCH 9 11
ATOM     11  CA  CYS X1004      19.161  44.990  21.939  1.00 94.17 LIG 0.18  C 
BRANCH 11 12
ATOM     12  CB  CYS X1004      19.952  45.628  20.774  1.00 94.12 LIG 0.10  C 
BRANCH 12 13
ATOM     13 SG   CYS X1004      21.004  44.596  19.790  1.00 91.26 LIG-0.18  SA
ATOM     14 HG   CYS X1004      21.382  45.208  18.830  1.00 91.26 LIG 0.10  HD
ENDBRANCH 12 13
ENDBRANCH 11 12
BRANCH 11 15
ATOM     15  C   CYS X1004      17.650  45.138  21.676  1.00 93.84 LIG 0.24  C 
ATOM     16 O    CYS X1004      17.214  45.260  20.542  1.00 93.01 LIG-0.27  OA
ATOM     17  N   VAL X1005      16.868  45.178  22.744  1.00 93.78 LIG-0.35  N 
ATOM     18 H    VAL X1005      17.167  45.230  23.548  1.00 93.78 LIG 0.16  HD
BRANCH 17 19
ATOM     19  CA  VAL X1005      15.405  45.135  22.657  1.00 93.73 LIG 0.18  C 
BRANCH 19 20
ATOM     20  C   VAL X1005      14.885  43.745  22.269  1.00 93.48 LIG 0.24  C 
ATOM     21  N   ALA X1006      15.592  43.079  21.358  1.00 93.27 LIG-0.35  N 
ATOM     22 H    ALA X1006      16.301  43.394  20.988  1.00 93.27 LIG 0.16  HD
ATOM     23 O    VAL X1005      13.863  43.297  22.779  1.00 93.20 LIG-0.27  OA
BRANCH 21 24
ATOM     24  CA  ALA X1006      15.229  41.740  20.895  1.00 93.01 LIG 0.16  C 
ATOM     25  CB  ALA X1006      14.310  41.833  19.713  1.00 92.79 LIG 0.04  C 
BRANCH 24 26
ATOM     26  C   ALA X1006      16.467  40.934  20.535  1.00 92.71 LIG 0.22  C 
ATOM     27 O    ALA X1006      17.189  40.452  21.403  1.00 91.80 LIG-0.29  OA
ENDBRANCH 24 26
ENDBRANCH 21 24
ENDBRANCH 19 20
BRANCH 19 28
ATOM     28  CB  VAL X1005      14.918  46.233  21.664  1.00 93.65 LIG 0.01  C 
ATOM     29  CG2 VAL X1005      15.612  47.537  21.981  1.00 92.72 LIG 0.01  C 
ATOM     30  CG1 VAL X1005      13.405  46.381  21.660  1.00 92.97 LIG 0.01  C 
ENDBRANCH 19 28
ENDBRANCH 17 19
ENDBRANCH 11 15
ENDBRANCH 9 11
ENDBRANCH 5 7
ENDBRANCH 3 5
BRANCH 1 31
ATOM     31  CA  PRO X1002      17.213  40.191  25.037  1.00 99.31 LIG 0.18  C 
ATOM     32  N   PRO X1002      18.334  39.428  25.591  1.00 99.88 LIG-0.34  N 
ATOM     33  CD  PRO X1002      18.292  39.423  27.057  1.00 99.70 LIG 0.13  C 
ATOM     34  C   ASN X1001      19.176  38.806  24.749  1.00100.64 LIG 0.24  C 
ATOM     35  CG  PRO X1002      16.844  39.457  27.309  1.00 99.65 LIG 0.02  C 
ATOM     36  CB  PRO X1002      16.278  40.348  26.240  1.00 99.37 LIG 0.04  C 
ATOM     37 O    ASN X1001      19.012  38.840  23.535  1.00100.22 LIG-0.27  OA
BRANCH 34 38
ATOM     38  CA  ASN X1001      20.304  37.943  25.354  1.00101.23 LIG 0.18  C 
BRANCH 38 39
ATOM     39  N   ASN X1001      21.348  38.872  25.811  1.00101.62 LIG-0.34  N 
ATOM     40  C   SER X1000      22.542  38.889  25.214  1.00101.89 LIG 0.26  C 
ATOM     41 O    SER X1000      22.986  37.919  24.584  1.00101.60 LIG-0.27  OA
ATOM     42 H    ASN X1001      21.123  39.379  26.468  1.00101.62 LIG 0.16  HD
BRANCH 40 43
ATOM     43  CA  SER X1000      23.375  40.173  25.340  1.00101.91 LIG 0.42  C 
ATOM     44  N   SER X1000      24.767  39.893  25.782  1.00101.55 LIG 0.62  N 
BRANCH 43 45
ATOM     45  CB  SER X1000      23.381  40.967  24.036  1.00101.96 LIG 0.21  C 
BRANCH 45 46
ATOM     46 OG   SER X1000      24.383  41.970  24.025  1.00101.15 LIG-0.40  OA
ATOM     47 HG   SER X1000      25.139  41.610  23.964  1.00101.15 LIG 0.21  HD
ENDBRANCH 45 46
ENDBRANCH 43 45
ENDBRANCH 40 43
ENDBRANCH 38 39
BRANCH 38 48
ATOM     48  CB  ASN X1001      19.875  36.950  26.464  1.00101.08 LIG 0.14  C 
BRANCH 48 49
ATOM     49  CG  ASN X1001      21.000  36.040  26.975  1.00100.04 LIG 0.22  C 
ATOM     50  ND2 ASN X1001      21.067  35.823  28.276  1.00 98.76 LIG-0.37  N 
ATOM     51 21HD ASN X1001      21.661  35.288  28.592  1.00 98.76 LIG 0.16  HD
ATOM     52 22HD ASN X1001      20.517  36.218  28.807  1.00 98.76 LIG 0.16  HD
ATOM     53 OD1  ASN X1001      21.762  35.500  26.185  1.00 97.91 LIG-0.27  OA
ENDBRANCH 48 49
ENDBRANCH 38 48
ENDBRANCH 34 38
ENDBRANCH 1 31
TORSDOF 19
ENDMDL
MODEL 32
USER: ADFR SOLUTION from run 180
USER: SCORE 13.350341 LL:  -2.594 LR: -11.671 RR:   0.000 FEB:  -6.003
USER: RMSD 10.325746
USER: SEED 179
USER: STATUS no improvement in best in 7 clusters for 5 generations
USER: GENES 21
USER: genes 0 Translation |==|  0.58169 0.65192 0.36705
USER: genes 1 Rotation |==|  0.71165 0.28206 0.21849 0.78011
USER: genes 2 Torsion [C]-N--CA-[CB] |==|  0.91302
USER: genes 3 Torsion [N]-CA--C-[N] |==|  0.31926
USER: genes 4 Torsion [C]-N--CA-[C] |==|  0.63091
USER: genes 5 Torsion [N]-CA--CB-[SG] |==|  0.68344
USER: genes 6 Torsion [CA]-CB--SG-[HG] |==|  0.33718
USER: genes 7 Torsion [N]-CA--C-[N] |==|  0.40746
USER: genes 8 Torsion [C]-N--CA-[CB] |==|  0.81418
USER: genes 9 Torsion [N]-CA--C-[N] |==|  0.39550
USER: genes 10 Torsion [C]-N--CA-[CB] |==|  0.47083
USER: genes 11 Torsion [N]-CA--C-[O] |==|  0.41253
USER: genes 12 Torsion [N]-CA--CB-[CG2] |==|  0.89865
USER: genes 13 Torsion [O]-C--CA-[N] |==|  0.00906
USER: genes 14 Torsion [N]-C--CA-[N] |==|  0.36242
USER: genes 15 Torsion [C]-CA--N-[C] |==|  0.73382
USER: genes 16 Torsion [N]-C--CA-[N] |==|  0.37892
USER: genes 17 Torsion [C]-CA--CB-[OG] |==|  0.42133
USER: genes 18 Torsion [CA]-CB--OG-[HG] |==|  0.58904
USER: genes 19 Torsion [C]-CA--CB-[CG] |==|  0.32082
USER: genes 20 Torsion [CA]-CB--CG-[ND2] |==|  0.11453
ROOT
ATOM      1  C   PRO X1002      18.089  40.784  23.942  1.00 98.27 LIG 0.24  C 
ATOM      2 O    PRO X1002      19.078  41.364  24.372  1.00 97.40 LIG-0.27  OA
ATOM      3  N   ALA X1003      17.660  39.620  24.420  1.00 97.43 LIG-0.35  N 
ATOM      4 H    ALA X1003      16.869  39.312  24.283  1.00 97.43 LIG 0.16  HD
ENDROOT
BRANCH 3 5
ATOM      5  CA  ALA X1003      18.507  38.745  25.234  1.00 96.73 LIG 0.17  C 
ATOM      6  CB  ALA X1003      19.957  38.889  24.829  1.00 96.74 LIG 0.04  C 
BRANCH 5 7
ATOM      7  C   ALA X1003      18.285  39.198  26.677  1.00 95.66 LIG 0.24  C 
ATOM      8 O    ALA X1003      18.648  40.315  27.012  1.00 95.14 LIG-0.27  OA
ATOM      9  N   CYS X1004      17.712  38.387  27.559  1.00 94.40 LIG-0.34  N 
ATOM     10 H    CYS X1004      17.406  38.688  28.305  1.00 94.40 LIG 0.16  HD
BRANCH 9 11
ATOM     11  CA  CYS X1004      17.513  36.943  27.434  1.00 94.17 LIG 0.18  C 
BRANCH 11 12
ATOM     12  CB  CYS X1004      18.523  36.254  28.381  1.00 94.12 LIG 0.10  C 
BRANCH 12 13
ATOM     13 SG   CYS X1004      19.817  35.269  27.679  1.00 91.26 LIG-0.18  SA
ATOM     14 HG   CYS X1004      20.882  35.705  28.018  1.00 91.26 LIG 0.10  HD
ENDBRANCH 12 13
ENDBRANCH 11 12
BRANCH 11 15
ATOM     15  C   CYS X1004      16.082  36.508  27.805  1.00 93.84 LIG 0.24  C 
ATOM     16 O    CYS X1004      15.465  37.061  28.702  1.00 93.01 LIG-0.27  OA
ATOM     17  N   VAL X1005      15.588  35.477  27.136  1.00 93.78 LIG-0.35  N 
ATOM     18 H    VAL X1005      16.054  34.994  26.599  1.00 93.78 LIG 0.16  HD
BRANCH 17 19
ATOM     19  CA  VAL X1005      14.187  35.060  27.245  1.00 93.73 LIG 0.18  C 
BRANCH 19 20
ATOM     20  C   VAL X1005      13.213  36.185  26.870  1.00 93.48 LIG 0.24  C 
ATOM     21  N   ALA X1006      12.118  35.825  26.202  1.00 93.27 LIG-0.35  N 
ATOM     22 H    ALA X1006      11.948  35.013  25.977  1.00 93.27 LIG 0.16  HD
ATOM     23 O    VAL X1005      13.459  37.348  27.170  1.00 93.20 LIG-0.27  OA
BRANCH 21 24
ATOM     24  CA  ALA X1006      11.093  36.780  25.785  1.00 93.01 LIG 0.16  C 
ATOM     25  CB  ALA X1006      10.127  36.123  24.844  1.00 92.79 LIG 0.04  C 
BRANCH 24 26
ATOM     26  C   ALA X1006      10.353  37.346  26.987  1.00 92.71 LIG 0.22  C 
ATOM     27 O    ALA X1006       9.903  38.488  26.979  1.00 91.80 LIG-0.29  OA
ENDBRANCH 24 26
ENDBRANCH 21 24
ENDBRANCH 19 20
BRANCH 19 28
ATOM     28  CB  VAL X1005      13.924  34.521  28.682  1.00 93.65 LIG 0.01  C 
ATOM     29  CG2 VAL X1005      15.144  33.774  29.168  1.00 92.72 LIG 0.01  C 
ATOM     30  CG1 VAL X1005      12.668  33.667  28.761  1.00 92.97 LIG 0.01  C 
ENDBRANCH 19 28
ENDBRANCH 17 19
ENDBRANCH 11 15
ENDBRANCH 9 11
ENDBRANCH 5 7
ENDBRANCH 3 5
BRANCH 1 31
ATOM     31  CA  PRO X1002      17.233  41.414  22.840  1.00 99.31 LIG 0.18  C 
ATOM     32  N   PRO X1002      17.721  42.688  22.308  1.00 99.88 LIG-0.34  N 
ATOM     33  CD  PRO X1002      18.303  42.511  20.973  1.00 99.70 LIG 0.13  C 
ATOM     34  C   ASN X1001      17.531  43.808  23.026  1.00100.64 LIG 0.24  C 
ATOM     35  CG  PRO X1002      17.479  41.418  20.437  1.00 99.65 LIG 0.02  C 
ATOM     36  CB  PRO X1002      17.220  40.509  21.604  1.00 99.37 LIG 0.04  C 
ATOM     37 O    ASN X1001      16.938  43.791  24.097  1.00100.22 LIG-0.27  OA
BRANCH 34 38
ATOM     38  CA  ASN X1001      17.984  45.150  22.412  1.00101.23 LIG 0.18  C 
BRANCH 38 39
ATOM     39  N   ASN X1001      16.852  46.079  22.546  1.00101.62 LIG-0.34  N 
ATOM     40  C   SER X1000      16.002  46.254  21.531  1.00101.89 LIG 0.26  C 
ATOM     41 O    SER X1000      16.309  46.017  20.355  1.00101.60 LIG-0.27  OA
ATOM     42 H    ASN X1001      16.796  46.479  23.305  1.00101.62 LIG 0.16  HD
BRANCH 40 43
ATOM     43  CA  SER X1000      14.599  46.779  21.871  1.00101.91 LIG 0.42  C 
ATOM     44  N   SER X1000      14.153  47.833  20.922  1.00101.55 LIG 0.62  N 
BRANCH 43 45
ATOM     45  CB  SER X1000      13.576  45.646  21.926  1.00101.96 LIG 0.21  C 
BRANCH 45 46
ATOM     46 OG   SER X1000      12.506  45.934  22.810  1.00101.15 LIG-0.40  OA
ATOM     47 HG   SER X1000      12.229  45.221  23.156  1.00101.15 LIG 0.21  HD
ENDBRANCH 45 46
ENDBRANCH 43 45
ENDBRANCH 40 43
ENDBRANCH 38 39
BRANCH 38 48
ATOM     48  CB  ASN X1001      19.300  45.743  22.977  1.00101.08 LIG 0.14  C 
BRANCH 48 49
ATOM     49  CG  ASN X1001      20.446  45.834  21.962  1.00100.04 LIG 0.22  C 
ATOM     50  ND2 ASN X1001      20.148  46.232  20.738  1.00 98.76 LIG-0.37  N 
ATOM     51 21HD ASN X1001      20.771  46.333  20.155  1.00 98.76 LIG 0.16  HD
ATOM     52 22HD ASN X1001      19.330  46.392  20.525  1.00 98.76 LIG 0.16  HD
ATOM     53 OD1  ASN X1001      21.595  45.597  22.307  1.00 97.91 LIG-0.27  OA
ENDBRANCH 48 49
ENDBRANCH 38 48
ENDBRANCH 34 38
ENDBRANCH 1 31
TORSDOF 19
ENDMDL
MODEL 33
USER: ADFR SOLUTION from run 140
USER: SCORE 13.565544 LL:  -2.804 LR: -11.662 RR:   0.000 FEB:  -5.994
USER: RMSD 9.184759
USER: SEED 139
USER: STATUS no improvement in best in 4 clusters for 5 generations
USER: GENES 21
USER: genes 0 Translation |==|  0.56747 0.64737 0.39084
USER: genes 1 Rotation |==|  0.12540 0.43210 0.20800 0.64072
USER: genes 2 Torsion [C]-N--CA-[CB] |==|  0.86876
USER: genes 3 Torsion [N]-CA--C-[N] |==|  0.33470
USER: genes 4 Torsion [C]-N--CA-[C] |==|  0.15709
USER: genes 5 Torsion [N]-CA--CB-[SG] |==|  0.34093
USER: genes 6 Torsion [CA]-CB--SG-[HG] |==|  0.10441
USER: genes 7 Torsion [N]-CA--C-[N] |==|  0.10020
USER: genes 8 Torsion [C]-N--CA-[CB] |==|  0.82488
USER: genes 9 Torsion [N]-CA--C-[N] |==|  0.34326
USER: genes 10 Torsion [C]-N--CA-[CB] |==|  0.30907
USER: genes 11 Torsion [N]-CA--C-[O] |==|  0.35727
USER: genes 12 Torsion [N]-CA--CB-[CG2] |==|  0.77822
USER: genes 13 Torsion [O]-C--CA-[N] |==|  0.05712
USER: genes 14 Torsion [N]-C--CA-[N] |==|  0.18270
USER: genes 15 Torsion [C]-CA--N-[C] |==|  0.66667
USER: genes 16 Torsion [N]-C--CA-[N] |==|  0.35806
USER: genes 17 Torsion [C]-CA--CB-[OG] |==|  0.70118
USER: genes 18 Torsion [CA]-CB--OG-[HG] |==|  0.27100
USER: genes 19 Torsion [C]-CA--CB-[CG] |==|  0.50068
USER: genes 20 Torsion [CA]-CB--CG-[ND2] |==|  0.50732
ROOT
ATOM      1  C   PRO X1002      17.748  40.692  24.406  1.00 98.27 LIG 0.24  C 
ATOM      2 O    PRO X1002      17.279  39.738  23.801  1.00 97.40 LIG-0.27  OA
ATOM      3  N   ALA X1003      18.675  40.573  25.353  1.00 97.43 LIG-0.35  N 
ATOM      4 H    ALA X1003      19.159  41.228  25.629  1.00 97.43 LIG 0.16  HD
ENDROOT
BRANCH 3 5
ATOM      5  CA  ALA X1003      18.958  39.300  26.018  1.00 96.73 LIG 0.17  C 
ATOM      6  CB  ALA X1003      17.672  38.633  26.450  1.00 96.74 LIG 0.04  C 
BRANCH 5 7
ATOM      7  C   ALA X1003      19.700  38.459  24.980  1.00 95.66 LIG 0.24  C 
ATOM      8 O    ALA X1003      19.147  38.197  23.923  1.00 95.14 LIG-0.27  OA
ATOM      9  N   CYS X1004      20.926  38.010  25.223  1.00 94.40 LIG-0.34  N 
ATOM     10 H    CYS X1004      21.423  37.712  24.588  1.00 94.40 LIG 0.16  HD
BRANCH 9 11
ATOM     11  CA  CYS X1004      21.603  37.947  26.520  1.00 94.17 LIG 0.18  C 
BRANCH 11 12
ATOM     12  CB  CYS X1004      21.778  39.400  27.019  1.00 94.12 LIG 0.10  C 
BRANCH 12 13
ATOM     13 SG   CYS X1004      21.095  39.850  28.591  1.00 91.26 LIG-0.18  SA
ATOM     14 HG   CYS X1004      21.226  38.939  29.361  1.00 91.26 LIG 0.10  HD
ENDBRANCH 12 13
ENDBRANCH 11 12
BRANCH 11 15
ATOM     15  C   CYS X1004      20.811  37.137  27.563  1.00 93.84 LIG 0.24  C 
ATOM     16 O    CYS X1004      20.835  37.435  28.747  1.00 93.01 LIG-0.27  OA
ATOM     17  N   VAL X1005      20.152  36.081  27.112  1.00 93.78 LIG-0.35  N 
ATOM     18 H    VAL X1005      20.233  35.779  26.311  1.00 93.78 LIG 0.16  HD
BRANCH 17 19
ATOM     19  CA  VAL X1005      19.213  35.318  27.941  1.00 93.73 LIG 0.18  C 
BRANCH 19 20
ATOM     20  C   VAL X1005      18.029  36.171  28.415  1.00 93.48 LIG 0.24  C 
ATOM     21  N   ALA X1006      16.813  35.724  28.105  1.00 93.27 LIG-0.35  N 
ATOM     22 H    ALA X1006      16.675  35.003  27.659  1.00 93.27 LIG 0.16  HD
ATOM     23 O    VAL X1005      18.220  37.212  29.035  1.00 93.20 LIG-0.27  OA
BRANCH 21 24
ATOM     24  CA  ALA X1006      15.589  36.420  28.495  1.00 93.01 LIG 0.16  C 
ATOM     25  CB  ALA X1006      14.910  36.991  27.285  1.00 92.79 LIG 0.04  C 
BRANCH 24 26
ATOM     26  C   ALA X1006      14.643  35.488  29.236  1.00 92.71 LIG 0.22  C 
ATOM     27 O    ALA X1006      14.163  35.798  30.323  1.00 91.80 LIG-0.29  OA
ENDBRANCH 24 26
ENDBRANCH 21 24
ENDBRANCH 19 20
BRANCH 19 28
ATOM     28  CB  VAL X1005      19.985  34.683  29.136  1.00 93.65 LIG 0.01  C 
ATOM     29  CG2 VAL X1005      20.696  33.436  28.666  1.00 92.72 LIG 0.01  C 
ATOM     30  CG1 VAL X1005      19.082  34.406  30.328  1.00 92.97 LIG 0.01  C 
ENDBRANCH 19 28
ENDBRANCH 17 19
ENDBRANCH 11 15
ENDBRANCH 9 11
ENDBRANCH 5 7
ENDBRANCH 3 5
BRANCH 1 31
ATOM     31  CA  PRO X1002      17.327  42.122  24.057  1.00 99.31 LIG 0.18  C 
ATOM     32  N   PRO X1002      16.054  42.251  23.342  1.00 99.88 LIG-0.34  N 
ATOM     33  CD  PRO X1002      15.003  42.760  24.229  1.00 99.70 LIG 0.13  C 
ATOM     34  C   ASN X1001      16.016  41.972  22.029  1.00100.64 LIG 0.24  C 
ATOM     35  CG  PRO X1002      15.773  43.633  25.127  1.00 99.65 LIG 0.02  C 
ATOM     36  CB  PRO X1002      17.082  42.925  25.338  1.00 99.37 LIG 0.04  C 
ATOM     37 O    ASN X1001      17.022  41.640  21.413  1.00100.22 LIG-0.27  OA
BRANCH 34 38
ATOM     38  CA  ASN X1001      14.684  42.188  21.278  1.00101.23 LIG 0.18  C 
BRANCH 38 39
ATOM     39  N   ASN X1001      14.419  43.634  21.296  1.00101.62 LIG-0.34  N 
ATOM     40  C   SER X1000      13.308  44.107  21.867  1.00101.89 LIG 0.26  C 
ATOM     41 O    SER X1000      12.292  43.417  22.021  1.00101.60 LIG-0.27  OA
ATOM     42 H    ASN X1001      15.020  44.120  20.920  1.00101.62 LIG 0.16  HD
BRANCH 40 43
ATOM     43  CA  SER X1000      13.325  45.571  22.332  1.00101.91 LIG 0.42  C 
ATOM     44  N   SER X1000      12.153  46.331  21.821  1.00101.55 LIG 0.62  N 
BRANCH 43 45
ATOM     45  CB  SER X1000      13.403  45.674  23.854  1.00101.96 LIG 0.21  C 
BRANCH 45 46
ATOM     46 OG   SER X1000      12.177  46.099  24.424  1.00101.15 LIG-0.40  OA
ATOM     47 HG   SER X1000      11.747  45.430  24.694  1.00101.15 LIG 0.21  HD
ENDBRANCH 45 46
ENDBRANCH 43 45
ENDBRANCH 40 43
ENDBRANCH 38 39
BRANCH 38 48
ATOM     48  CB  ASN X1001      14.610  41.595  19.848  1.00101.08 LIG 0.14  C 
BRANCH 48 49
ATOM     49  CG  ASN X1001      13.276  41.833  19.127  1.00100.04 LIG 0.22  C 
ATOM     50  ND2 ASN X1001      13.129  41.306  17.925  1.00 98.76 LIG-0.37  N 
ATOM     51 21HD ASN X1001      12.381  41.386  17.510  1.00 98.76 LIG 0.16  HD
ATOM     52 22HD ASN X1001      13.782  40.883  17.558  1.00 98.76 LIG 0.16  HD
ATOM     53 OD1  ASN X1001      12.375  42.441  19.686  1.00 97.91 LIG-0.27  OA
ENDBRANCH 48 49
ENDBRANCH 38 48
ENDBRANCH 34 38
ENDBRANCH 1 31
TORSDOF 19
ENDMDL
MODEL 34
USER: ADFR SOLUTION from run 192
USER: SCORE 14.030910 LL:  -4.902 LR: -11.634 RR:   0.000 FEB:  -5.967
USER: RMSD 9.826633
USER: SEED 191
USER: STATUS no improvement in best in 8 clusters for 5 generations
USER: GENES 21
USER: genes 0 Translation |==|  0.50959 0.71556 0.29348
USER: genes 1 Rotation |==|  0.40428 0.21790 0.88856 0.60139
USER: genes 2 Torsion [C]-N--CA-[CB] |==|  0.21061
USER: genes 3 Torsion [N]-CA--C-[N] |==|  0.29015
USER: genes 4 Torsion [C]-N--CA-[C] |==|  0.83889
USER: genes 5 Torsion [N]-CA--CB-[SG] |==|  0.14220
USER: genes 6 Torsion [CA]-CB--SG-[HG] |==|  0.92621
USER: genes 7 Torsion [N]-CA--C-[N] |==|  0.47716
USER: genes 8 Torsion [C]-N--CA-[CB] |==|  0.86103
USER: genes 9 Torsion [N]-CA--C-[N] |==|  0.40540
USER: genes 10 Torsion [C]-N--CA-[CB] |==|  0.52756
USER: genes 11 Torsion [N]-CA--C-[O] |==|  0.93424
USER: genes 12 Torsion [N]-CA--CB-[CG2] |==|  0.81138
USER: genes 13 Torsion [O]-C--CA-[N] |==|  0.02681
USER: genes 14 Torsion [N]-C--CA-[N] |==|  0.42573
USER: genes 15 Torsion [C]-CA--N-[C] |==|  0.61530
USER: genes 16 Torsion [N]-C--CA-[N] |==|  0.39500
USER: genes 17 Torsion [C]-CA--CB-[OG] |==|  0.44863
USER: genes 18 Torsion [CA]-CB--OG-[HG] |==|  0.29892
USER: genes 19 Torsion [C]-CA--CB-[CG] |==|  0.33538
USER: genes 20 Torsion [CA]-CB--CG-[ND2] |==|  0.13731
ROOT
ATOM      1  C   PRO X1002      16.359  42.073  22.508  1.00 98.27 LIG 0.24  C 
ATOM      2 O    PRO X1002      17.227  42.235  21.660  1.00 97.40 LIG-0.27  OA
ATOM      3  N   ALA X1003      15.059  42.187  22.253  1.00 97.43 LIG-0.35  N 
ATOM      4 H    ALA X1003      14.444  41.873  22.768  1.00 97.43 LIG 0.16  HD
ENDROOT
BRANCH 3 5
ATOM      5  CA  ALA X1003      14.549  42.863  21.059  1.00 96.73 LIG 0.17  C 
ATOM      6  CB  ALA X1003      14.721  41.986  19.841  1.00 96.74 LIG 0.04  C 
BRANCH 5 7
ATOM      7  C   ALA X1003      13.072  43.131  21.348  1.00 95.66 LIG 0.24  C 
ATOM      8 O    ALA X1003      12.276  42.208  21.279  1.00 95.14 LIG-0.27  OA
ATOM      9  N   CYS X1004      12.655  44.353  21.662  1.00 94.40 LIG-0.34  N 
ATOM     10 H    CYS X1004      11.880  44.481  22.013  1.00 94.40 LIG 0.16  HD
BRANCH 9 11
ATOM     11  CA  CYS X1004      13.383  45.610  21.481  1.00 94.17 LIG 0.18  C 
BRANCH 11 12
ATOM     12  CB  CYS X1004      12.490  46.743  22.035  1.00 94.12 LIG 0.10  C 
BRANCH 12 13
ATOM     13 SG   CYS X1004      11.818  46.581  23.667  1.00 91.26 LIG-0.18  SA
ATOM     14 HG   CYS X1004      11.714  45.419  23.944  1.00 91.26 LIG 0.10  HD
ENDBRANCH 12 13
ENDBRANCH 11 12
BRANCH 11 15
ATOM     15  C   CYS X1004      14.739  45.620  22.214  1.00 93.84 LIG 0.24  C 
ATOM     16 O    CYS X1004      15.032  44.745  23.014  1.00 93.01 LIG-0.27  OA
ATOM     17  N   VAL X1005      15.534  46.649  21.966  1.00 93.78 LIG-0.35  N 
ATOM     18 H    VAL X1005      15.289  47.338  21.513  1.00 93.78 LIG 0.16  HD
BRANCH 17 19
ATOM     19  CA  VAL X1005      16.919  46.713  22.442  1.00 93.73 LIG 0.18  C 
BRANCH 19 20
ATOM     20  C   VAL X1005      17.853  45.797  21.641  1.00 93.48 LIG 0.24  C 
ATOM     21  N   ALA X1006      19.100  46.229  21.462  1.00 93.27 LIG-0.35  N 
ATOM     22 H    ALA X1006      19.387  46.980  21.765  1.00 93.27 LIG 0.16  HD
ATOM     23 O    VAL X1005      17.445  44.732  21.189  1.00 93.20 LIG-0.27  OA
BRANCH 21 24
ATOM     24  CA  ALA X1006      20.108  45.463  20.730  1.00 93.01 LIG 0.16  C 
ATOM     25  CB  ALA X1006      21.460  46.089  20.905  1.00 92.79 LIG 0.04  C 
BRANCH 24 26
ATOM     26  C   ALA X1006      20.137  44.015  21.194  1.00 92.71 LIG 0.22  C 
ATOM     27 O    ALA X1006      19.733  43.695  22.308  1.00 91.80 LIG-0.29  OA
ENDBRANCH 24 26
ENDBRANCH 21 24
ENDBRANCH 19 20
BRANCH 19 28
ATOM     28  CB  VAL X1005      16.953  46.387  23.964  1.00 93.65 LIG 0.01  C 
ATOM     29  CG2 VAL X1005      16.278  47.500  24.730  1.00 92.72 LIG 0.01  C 
ATOM     30  CG1 VAL X1005      18.363  46.125  24.470  1.00 92.97 LIG 0.01  C 
ENDBRANCH 19 28
ENDBRANCH 17 19
ENDBRANCH 11 15
ENDBRANCH 9 11
ENDBRANCH 5 7
ENDBRANCH 3 5
BRANCH 1 31
ATOM     31  CA  PRO X1002      16.730  41.660  23.935  1.00 99.31 LIG 0.18  C 
ATOM     32  N   PRO X1002      18.159  41.695  24.254  1.00 99.88 LIG-0.34  N 
ATOM     33  CD  PRO X1002      18.480  42.844  25.106  1.00 99.70 LIG 0.13  C 
ATOM     34  C   ASN X1001      18.947  40.699  23.815  1.00100.64 LIG 0.24  C 
ATOM     35  CG  PRO X1002      17.245  42.980  25.893  1.00 99.65 LIG 0.02  C 
ATOM     36  CB  PRO X1002      16.132  42.650  24.940  1.00 99.37 LIG 0.04  C 
ATOM     37 O    ASN X1001      18.494  39.754  23.180  1.00100.22 LIG-0.27  OA
BRANCH 34 38
ATOM     38  CA  ASN X1001      20.435  40.713  24.227  1.00101.23 LIG 0.18  C 
BRANCH 38 39
ATOM     39  N   ASN X1001      20.891  39.316  24.212  1.00101.62 LIG-0.34  N 
ATOM     40  C   SER X1000      21.686  38.857  25.181  1.00101.89 LIG 0.26  C 
ATOM     41 O    SER X1000      22.401  39.602  25.866  1.00101.60 LIG-0.27  OA
ATOM     42 H    ASN X1001      20.608  38.846  23.548  1.00101.62 LIG 0.16  HD
BRANCH 40 43
ATOM     43  CA  SER X1000      21.697  37.340  25.424  1.00101.91 LIG 0.42  C 
ATOM     44  N   SER X1000      23.057  36.839  25.757  1.00101.55 LIG 0.62  N 
BRANCH 43 45
ATOM     45  CB  SER X1000      20.702  36.941  26.512  1.00101.96 LIG 0.21  C 
BRANCH 45 46
ATOM     46 OG   SER X1000      20.387  35.560  26.467  1.00101.15 LIG-0.40  OA
ATOM     47 HG   SER X1000      20.750  35.168  27.115  1.00101.15 LIG 0.21  HD
ENDBRANCH 45 46
ENDBRANCH 43 45
ENDBRANCH 40 43
ENDBRANCH 38 39
BRANCH 38 48
ATOM     48  CB  ASN X1001      21.358  41.641  23.397  1.00101.08 LIG 0.14  C 
BRANCH 48 49
ATOM     49  CG  ASN X1001      22.076  42.723  24.214  1.00100.04 LIG 0.22  C 
ATOM     50  ND2 ASN X1001      22.707  42.342  25.310  1.00 98.76 LIG-0.37  N 
ATOM     51 21HD ASN X1001      23.153  42.915  25.771  1.00 98.76 LIG 0.16  HD
ATOM     52 22HD ASN X1001      22.673  41.520  25.563  1.00 98.76 LIG 0.16  HD
ATOM     53 OD1  ASN X1001      22.098  43.879  23.819  1.00 97.91 LIG-0.27  OA
ENDBRANCH 48 49
ENDBRANCH 38 48
ENDBRANCH 34 38
ENDBRANCH 1 31
TORSDOF 19
ENDMDL
MODEL 35
USER: ADFR SOLUTION from run 101
USER: SCORE 13.082189 LL:  -2.797 LR: -11.607 RR:   0.000 FEB:  -5.939
USER: RMSD 9.637883
USER: SEED 100
USER: STATUS no improvement in best in 22 clusters for 5 generations
USER: GENES 21
USER: genes 0 Translation |==|  0.48485 0.49335 0.52138
USER: genes 1 Rotation |==|  0.16967 0.75893 0.24232 0.58623
USER: genes 2 Torsion [C]-N--CA-[CB] |==|  0.47222
USER: genes 3 Torsion [N]-CA--C-[N] |==|  0.44514
USER: genes 4 Torsion [C]-N--CA-[C] |==|  0.68022
USER: genes 5 Torsion [N]-CA--CB-[SG] |==|  0.46427
USER: genes 6 Torsion [CA]-CB--SG-[HG] |==|  0.28799
USER: genes 7 Torsion [N]-CA--C-[N] |==|  0.18718
USER: genes 8 Torsion [C]-N--CA-[CB] |==|  0.81637
USER: genes 9 Torsion [N]-CA--C-[N] |==|  0.44898
USER: genes 10 Torsion [C]-N--CA-[CB] |==|  0.17175
USER: genes 11 Torsion [N]-CA--C-[O] |==|  0.60035
USER: genes 12 Torsion [N]-CA--CB-[CG2] |==|  0.63787
USER: genes 13 Torsion [O]-C--CA-[N] |==|  0.84827
USER: genes 14 Torsion [N]-C--CA-[N] |==|  0.42757
USER: genes 15 Torsion [C]-CA--N-[C] |==|  0.64616
USER: genes 16 Torsion [N]-C--CA-[N] |==|  0.46364
USER: genes 17 Torsion [C]-CA--CB-[OG] |==|  0.17941
USER: genes 18 Torsion [CA]-CB--OG-[HG] |==|  0.04285
USER: genes 19 Torsion [C]-CA--CB-[CG] |==|  0.30499
USER: genes 20 Torsion [CA]-CB--CG-[ND2] |==|  0.67360
ROOT
ATOM      1  C   PRO X1002      15.765  37.573  26.952  1.00 98.27 LIG 0.24  C 
ATOM      2 O    PRO X1002      14.746  38.061  26.481  1.00 97.40 LIG-0.27  OA
ATOM      3  N   ALA X1003      15.961  36.263  27.071  1.00 97.43 LIG-0.35  N 
ATOM      4 H    ALA X1003      16.734  35.907  27.195  1.00 97.43 LIG 0.16  HD
ENDROOT
BRANCH 3 5
ATOM      5  CA  ALA X1003      14.863  35.297  27.001  1.00 96.73 LIG 0.17  C 
ATOM      6  CB  ALA X1003      15.404  33.888  26.922  1.00 96.74 LIG 0.04  C 
BRANCH 5 7
ATOM      7  C   ALA X1003      14.055  35.512  28.280  1.00 95.66 LIG 0.24  C 
ATOM      8 O    ALA X1003      14.582  36.070  29.229  1.00 95.14 LIG-0.27  OA
ATOM      9  N   CYS X1004      12.798  35.091  28.364  1.00 94.40 LIG-0.34  N 
ATOM     10 H    CYS X1004      12.276  35.372  28.988  1.00 94.40 LIG 0.16  HD
BRANCH 9 11
ATOM     11  CA  CYS X1004      12.121  34.142  27.478  1.00 94.17 LIG 0.18  C 
BRANCH 11 12
ATOM     12  CB  CYS X1004      11.568  33.000  28.362  1.00 94.12 LIG 0.10  C 
BRANCH 12 13
ATOM     13 SG   CYS X1004      10.403  31.865  27.660  1.00 91.26 LIG-0.18  SA
ATOM     14 HG   CYS X1004      10.953  30.827  27.413  1.00 91.26 LIG 0.10  HD
ENDBRANCH 12 13
ENDBRANCH 11 12
BRANCH 11 15
ATOM     15  C   CYS X1004      10.966  34.787  26.691  1.00 93.84 LIG 0.24  C 
ATOM     16 O    CYS X1004       9.808  34.441  26.867  1.00 93.01 LIG-0.27  OA
ATOM     17  N   VAL X1005      11.304  35.693  25.785  1.00 93.78 LIG-0.35  N 
ATOM     18 H    VAL X1005      12.117  35.849  25.553  1.00 93.78 LIG 0.16  HD
BRANCH 17 19
ATOM     19  CA  VAL X1005      10.317  36.521  25.085  1.00 93.73 LIG 0.18  C 
BRANCH 19 20
ATOM     20  C   VAL X1005       9.466  37.355  26.052  1.00 93.48 LIG 0.24  C 
ATOM     21  N   ALA X1006       8.821  38.396  25.529  1.00 93.27 LIG-0.35  N 
ATOM     22 H    ALA X1006       8.868  38.612  24.698  1.00 93.27 LIG 0.16  HD
ATOM     23 O    VAL X1005       9.410  37.065  27.242  1.00 93.20 LIG-0.27  OA
BRANCH 21 24
ATOM     24  CA  ALA X1006       7.965  39.278  26.320  1.00 93.01 LIG 0.16  C 
ATOM     25  CB  ALA X1006       8.768  39.958  27.388  1.00 92.79 LIG 0.04  C 
BRANCH 24 26
ATOM     26  C   ALA X1006       7.283  40.312  25.437  1.00 92.71 LIG 0.22  C 
ATOM     27 O    ALA X1006       7.088  41.458  25.833  1.00 91.80 LIG-0.29  OA
ENDBRANCH 24 26
ENDBRANCH 21 24
ENDBRANCH 19 20
BRANCH 19 28
ATOM     28  CB  VAL X1005       9.437  35.612  24.176  1.00 93.65 LIG 0.01  C 
ATOM     29  CG2 VAL X1005       9.377  36.201  22.787  1.00 92.72 LIG 0.01  C 
ATOM     30  CG1 VAL X1005       8.050  35.381  24.755  1.00 92.97 LIG 0.01  C 
ENDBRANCH 19 28
ENDBRANCH 17 19
ENDBRANCH 11 15
ENDBRANCH 9 11
ENDBRANCH 5 7
ENDBRANCH 3 5
BRANCH 1 31
ATOM     31  CA  PRO X1002      16.930  38.467  27.388  1.00 99.31 LIG 0.18  C 
ATOM     32  N   PRO X1002      17.440  39.386  26.367  1.00 99.88 LIG-0.34  N 
ATOM     33  CD  PRO X1002      17.019  40.763  26.642  1.00 99.70 LIG 0.13  C 
ATOM     34  C   ASN X1001      18.238  38.904  25.399  1.00100.64 LIG 0.24  C 
ATOM     35  CG  PRO X1002      16.986  40.772  28.112  1.00 99.65 LIG 0.02  C 
ATOM     36  CB  PRO X1002      16.476  39.414  28.503  1.00 99.37 LIG 0.04  C 
ATOM     37 O    ASN X1001      18.568  37.725  25.367  1.00100.22 LIG-0.27  OA
BRANCH 34 38
ATOM     38  CA  ASN X1001      18.827  39.901  24.379  1.00101.23 LIG 0.18  C 
BRANCH 38 39
ATOM     39  N   ASN X1001      20.075  39.306  23.878  1.00101.62 LIG-0.34  N 
ATOM     40  C   SER X1000      21.213  40.003  23.910  1.00101.89 LIG 0.26  C 
ATOM     41 O    SER X1000      21.236  41.241  23.944  1.00101.60 LIG-0.27  OA
ATOM     42 H    ASN X1001      20.002  38.503  23.578  1.00101.62 LIG 0.16  HD
BRANCH 40 43
ATOM     43  CA  SER X1000      22.527  39.208  23.894  1.00101.91 LIG 0.42  C 
ATOM     44  N   SER X1000      23.701  40.077  23.619  1.00101.55 LIG 0.62  N 
BRANCH 43 45
ATOM     45  CB  SER X1000      22.730  38.436  25.197  1.00101.96 LIG 0.21  C 
BRANCH 45 46
ATOM     46 OG   SER X1000      21.743  37.436  25.385  1.00101.15 LIG-0.40  OA
ATOM     47 HG   SER X1000      21.343  37.297  24.660  1.00101.15 LIG 0.21  HD
ENDBRANCH 45 46
ENDBRANCH 43 45
ENDBRANCH 40 43
ENDBRANCH 38 39
BRANCH 38 48
ATOM     48  CB  ASN X1001      17.880  40.333  23.230  1.00101.08 LIG 0.14  C 
BRANCH 48 49
ATOM     49  CG  ASN X1001      17.402  41.788  23.312  1.00100.04 LIG 0.22  C 
ATOM     50  ND2 ASN X1001      16.105  41.999  23.453  1.00 98.76 LIG-0.37  N 
ATOM     51 21HD ASN X1001      15.807  42.800  23.541  1.00 98.76 LIG 0.16  HD
ATOM     52 22HD ASN X1001      15.560  41.333  23.456  1.00 98.76 LIG 0.16  HD
ATOM     53 OD1  ASN X1001      18.212  42.704  23.301  1.00 97.91 LIG-0.27  OA
ENDBRANCH 48 49
ENDBRANCH 38 48
ENDBRANCH 34 38
ENDBRANCH 1 31
TORSDOF 19
ENDMDL
MODEL 36
USER: ADFR SOLUTION from run 190
USER: SCORE 14.710119 LL:  -4.047 LR: -11.567 RR:   0.000 FEB:  -5.900
USER: RMSD 8.699442
USER: SEED 189
USER: STATUS no improvement in best in 3 clusters for 5 generations
USER: GENES 21
USER: genes 0 Translation |==|  0.53343 0.69468 0.26861
USER: genes 1 Rotation |==|  0.41528 0.38282 0.93615 0.69714
USER: genes 2 Torsion [C]-N--CA-[CB] |==|  0.13594
USER: genes 3 Torsion [N]-CA--C-[N] |==|  0.14621
USER: genes 4 Torsion [C]-N--CA-[C] |==|  0.66713
USER: genes 5 Torsion [N]-CA--CB-[SG] |==|  0.09821
USER: genes 6 Torsion [CA]-CB--SG-[HG] |==|  0.03970
USER: genes 7 Torsion [N]-CA--C-[N] |==|  0.05300
USER: genes 8 Torsion [C]-N--CA-[CB] |==|  0.83878
USER: genes 9 Torsion [N]-CA--C-[N] |==|  0.37533
USER: genes 10 Torsion [C]-N--CA-[CB] |==|  0.21959
USER: genes 11 Torsion [N]-CA--C-[O] |==|  0.05927
USER: genes 12 Torsion [N]-CA--CB-[CG2] |==|  0.65987
USER: genes 13 Torsion [O]-C--CA-[N] |==|  0.78300
USER: genes 14 Torsion [N]-C--CA-[N] |==|  0.13029
USER: genes 15 Torsion [C]-CA--N-[C] |==|  0.60000
USER: genes 16 Torsion [N]-C--CA-[N] |==|  0.32002
USER: genes 17 Torsion [C]-CA--CB-[OG] |==|  0.34541
USER: genes 18 Torsion [CA]-CB--OG-[HG] |==|  0.57939
USER: genes 19 Torsion [C]-CA--CB-[CG] |==|  0.33895
USER: genes 20 Torsion [CA]-CB--CG-[ND2] |==|  0.14805
ROOT
ATOM      1  C   PRO X1002      16.931  41.650  22.023  1.00 98.27 LIG 0.24  C 
ATOM      2 O    PRO X1002      17.290  41.035  21.027  1.00 97.40 LIG-0.27  OA
ATOM      3  N   ALA X1003      15.732  42.213  22.141  1.00 97.43 LIG-0.35  N 
ATOM      4 H    ALA X1003      15.392  42.455  22.894  1.00 97.43 LIG 0.16  HD
ENDROOT
BRANCH 3 5
ATOM      5  CA  ALA X1003      14.870  42.473  20.987  1.00 96.73 LIG 0.17  C 
ATOM      6  CB  ALA X1003      14.763  41.240  20.118  1.00 96.74 LIG 0.04  C 
BRANCH 5 7
ATOM      7  C   ALA X1003      13.513  42.857  21.576  1.00 95.66 LIG 0.24  C 
ATOM      8 O    ALA X1003      12.512  42.272  21.193  1.00 95.14 LIG-0.27  OA
ATOM      9  N   CYS X1004      13.419  43.820  22.485  1.00 94.40 LIG-0.34  N 
ATOM     10 H    CYS X1004      12.709  43.913  22.962  1.00 94.40 LIG 0.16  HD
BRANCH 9 11
ATOM     11  CA  CYS X1004      14.430  44.825  22.818  1.00 94.17 LIG 0.18  C 
BRANCH 11 12
ATOM     12  CB  CYS X1004      13.809  46.213  22.539  1.00 94.12 LIG 0.10  C 
BRANCH 12 13
ATOM     13 SG   CYS X1004      12.082  46.455  22.856  1.00 91.26 LIG-0.18  SA
ATOM     14 HG   CYS X1004      11.666  45.548  23.522  1.00 91.26 LIG 0.10  HD
ENDBRANCH 12 13
ENDBRANCH 11 12
BRANCH 11 15
ATOM     15  C   CYS X1004      14.879  44.750  24.289  1.00 93.84 LIG 0.24  C 
ATOM     16 O    CYS X1004      15.476  45.675  24.817  1.00 93.01 LIG-0.27  OA
ATOM     17  N   VAL X1005      14.628  43.615  24.924  1.00 93.78 LIG-0.35  N 
ATOM     18 H    VAL X1005      14.333  42.909  24.532  1.00 93.78 LIG 0.16  HD
BRANCH 17 19
ATOM     19  CA  VAL X1005      14.830  43.452  26.367  1.00 93.73 LIG 0.18  C 
BRANCH 19 20
ATOM     20  C   VAL X1005      13.862  44.312  27.191  1.00 93.48 LIG 0.24  C 
ATOM     21  N   ALA X1006      13.276  43.719  28.229  1.00 93.27 LIG-0.35  N 
ATOM     22 H    ALA X1006      13.412  42.897  28.441  1.00 93.27 LIG 0.16  HD
ATOM     23 O    VAL X1005      13.648  45.479  26.881  1.00 93.20 LIG-0.27  OA
BRANCH 21 24
ATOM     24  CA  ALA X1006      12.339  44.409  29.113  1.00 93.01 LIG 0.16  C 
ATOM     25  CB  ALA X1006      10.987  44.494  28.470  1.00 92.79 LIG 0.04  C 
BRANCH 24 26
ATOM     26  C   ALA X1006      12.238  43.705  30.457  1.00 92.71 LIG 0.22  C 
ATOM     27 O    ALA X1006      13.126  42.957  30.854  1.00 91.80 LIG-0.29  OA
ENDBRANCH 24 26
ENDBRANCH 21 24
ENDBRANCH 19 20
BRANCH 19 28
ATOM     28  CB  VAL X1005      16.317  43.758  26.714  1.00 93.65 LIG 0.01  C 
ATOM     29  CG2 VAL X1005      16.930  42.557  27.394  1.00 92.72 LIG 0.01  C 
ATOM     30  CG1 VAL X1005      16.470  45.021  27.547  1.00 92.97 LIG 0.01  C 
ENDBRANCH 19 28
ENDBRANCH 17 19
ENDBRANCH 11 15
ENDBRANCH 9 11
ENDBRANCH 5 7
ENDBRANCH 3 5
BRANCH 1 31
ATOM     31  CA  PRO X1002      17.846  41.759  23.246  1.00 99.31 LIG 0.18  C 
ATOM     32  N   PRO X1002      17.897  40.574  24.106  1.00 99.88 LIG-0.34  N 
ATOM     33  CD  PRO X1002      19.160  39.850  23.929  1.00 99.70 LIG 0.13  C 
ATOM     34  C   ASN X1001      16.879  40.340  24.951  1.00100.64 LIG 0.24  C 
ATOM     35  CG  PRO X1002      20.090  40.951  23.635  1.00 99.65 LIG 0.02  C 
ATOM     36  CB  PRO X1002      19.303  41.920  22.799  1.00 99.37 LIG 0.04  C 
ATOM     37 O    ASN X1001      15.926  41.107  25.037  1.00100.22 LIG-0.27  OA
BRANCH 34 38
ATOM     38  CA  ASN X1001      16.987  39.131  25.904  1.00101.23 LIG 0.18  C 
BRANCH 38 39
ATOM     39  N   ASN X1001      18.329  39.183  26.503  1.00101.62 LIG-0.34  N 
ATOM     40  C   SER X1000      18.997  38.055  26.756  1.00101.89 LIG 0.26  C 
ATOM     41 O    SER X1000      18.430  36.964  26.910  1.00101.60 LIG-0.27  OA
ATOM     42 H    ASN X1001      18.625  39.973  26.665  1.00101.62 LIG 0.16  HD
BRANCH 40 43
ATOM     43  CA  SER X1000      20.526  38.151  26.862  1.00101.91 LIG 0.42  C 
ATOM     44  N   SER X1000      21.011  37.825  28.230  1.00101.55 LIG 0.62  N 
BRANCH 43 45
ATOM     45  CB  SER X1000      21.216  37.264  25.828  1.00101.96 LIG 0.21  C 
BRANCH 45 46
ATOM     46 OG   SER X1000      22.116  37.995  25.012  1.00101.15 LIG-0.40  OA
ATOM     47 HG   SER X1000      22.174  37.627  24.260  1.00101.15 LIG 0.21  HD
ENDBRANCH 45 46
ENDBRANCH 43 45
ENDBRANCH 40 43
ENDBRANCH 38 39
BRANCH 38 48
ATOM     48  CB  ASN X1001      15.871  39.009  26.972  1.00101.08 LIG 0.14  C 
BRANCH 48 49
ATOM     49  CG  ASN X1001      15.082  37.694  26.923  1.00100.04 LIG 0.22  C 
ATOM     50  ND2 ASN X1001      15.769  36.567  26.957  1.00 98.76 LIG-0.37  N 
ATOM     51 21HD ASN X1001      15.357  35.812  26.971  1.00 98.76 LIG 0.16  HD
ATOM     52 22HD ASN X1001      16.629  36.587  26.966  1.00 98.76 LIG 0.16  HD
ATOM     53 OD1  ASN X1001      13.859  37.711  26.909  1.00 97.91 LIG-0.27  OA
ENDBRANCH 48 49
ENDBRANCH 38 48
ENDBRANCH 34 38
ENDBRANCH 1 31
TORSDOF 19
ENDMDL
MODEL 37
USER: ADFR SOLUTION from run 171
USER: SCORE 14.704954 LL:  -4.246 LR: -11.557 RR:   0.000 FEB:  -5.889
USER: RMSD 9.362887
USER: SEED 170
USER: STATUS no improvement in best in 8 clusters for 5 generations
USER: GENES 21
USER: genes 0 Translation |==|  0.59211 0.70779 0.40641
USER: genes 1 Rotation |==|  0.32752 0.77566 0.52466 0.87902
USER: genes 2 Torsion [C]-N--CA-[CB] |==|  0.52222
USER: genes 3 Torsion [N]-CA--C-[N] |==|  0.39711
USER: genes 4 Torsion [C]-N--CA-[C] |==|  0.82522
USER: genes 5 Torsion [N]-CA--CB-[SG] |==|  0.28330
USER: genes 6 Torsion [CA]-CB--SG-[HG] |==|  0.24189
USER: genes 7 Torsion [N]-CA--C-[N] |==|  0.44358
USER: genes 8 Torsion [C]-N--CA-[CB] |==|  0.85818
USER: genes 9 Torsion [N]-CA--C-[N] |==|  0.83066
USER: genes 10 Torsion [C]-N--CA-[CB] |==|  0.42272
USER: genes 11 Torsion [N]-CA--C-[O] |==|  0.45575
USER: genes 12 Torsion [N]-CA--CB-[CG2] |==|  0.78412
USER: genes 13 Torsion [O]-C--CA-[N] |==|  0.49494
USER: genes 14 Torsion [N]-C--CA-[N] |==|  0.42894
USER: genes 15 Torsion [C]-CA--N-[C] |==|  0.66238
USER: genes 16 Torsion [N]-C--CA-[N] |==|  0.49674
USER: genes 17 Torsion [C]-CA--CB-[OG] |==|  0.19271
USER: genes 18 Torsion [CA]-CB--OG-[HG] |==|  0.98632
USER: genes 19 Torsion [C]-CA--CB-[CG] |==|  0.23107
USER: genes 20 Torsion [CA]-CB--CG-[ND2] |==|  0.25741
ROOT
ATOM      1  C   PRO X1002      18.340  41.916  24.710  1.00 98.27 LIG 0.24  C 
ATOM      2 O    PRO X1002      17.136  42.129  24.776  1.00 97.40 LIG-0.27  OA
ATOM      3  N   ALA X1003      19.057  42.114  23.608  1.00 97.43 LIG-0.35  N 
ATOM      4 H    ALA X1003      19.915  42.176  23.604  1.00 97.43 LIG 0.16  HD
ENDROOT
BRANCH 3 5
ATOM      5  CA  ALA X1003      18.443  42.247  22.285  1.00 96.73 LIG 0.17  C 
ATOM      6  CB  ALA X1003      19.505  42.267  21.210  1.00 96.74 LIG 0.04  C 
BRANCH 5 7
ATOM      7  C   ALA X1003      17.528  41.031  22.142  1.00 95.66 LIG 0.24  C 
ATOM      8 O    ALA X1003      17.891  39.958  22.596  1.00 95.14 LIG-0.27  OA
ATOM      9  N   CYS X1004      16.357  41.136  21.524  1.00 94.40 LIG-0.34  N 
ATOM     10 H    CYS X1004      15.756  40.525  21.606  1.00 94.40 LIG 0.16  HD
BRANCH 9 11
ATOM     11  CA  CYS X1004      15.909  42.226  20.656  1.00 94.17 LIG 0.18  C 
BRANCH 11 12
ATOM     12  CB  CYS X1004      14.513  41.839  20.115  1.00 94.12 LIG 0.10  C 
BRANCH 12 13
ATOM     13 SG   CYS X1004      13.079  42.584  20.842  1.00 91.26 LIG-0.18  SA
ATOM     14 HG   CYS X1004      12.846  43.625  20.293  1.00 91.26 LIG 0.10  HD
ENDBRANCH 12 13
ENDBRANCH 11 12
BRANCH 11 15
ATOM     15  C   CYS X1004      15.817  43.573  21.397  1.00 93.84 LIG 0.24  C 
ATOM     16 O    CYS X1004      15.690  43.621  22.611  1.00 93.01 LIG-0.27  OA
ATOM     17  N   VAL X1005      15.832  44.662  20.643  1.00 93.78 LIG-0.35  N 
ATOM     18 H    VAL X1005      15.784  44.644  19.784  1.00 93.78 LIG 0.16  HD
BRANCH 17 19
ATOM     19  CA  VAL X1005      15.932  46.013  21.203  1.00 93.73 LIG 0.18  C 
BRANCH 19 20
ATOM     20  C   VAL X1005      17.342  46.325  21.720  1.00 93.48 LIG 0.24  C 
ATOM     21  N   ALA X1006      17.802  45.549  22.700  1.00 93.27 LIG-0.35  N 
ATOM     22 H    ALA X1006      17.348  44.905  23.044  1.00 93.27 LIG 0.16  HD
ATOM     23 O    VAL X1005      17.988  47.255  21.247  1.00 93.20 LIG-0.27  OA
BRANCH 21 24
ATOM     24  CA  ALA X1006      19.130  45.716  23.288  1.00 93.01 LIG 0.16  C 
ATOM     25  CB  ALA X1006      19.130  45.232  24.708  1.00 92.79 LIG 0.04  C 
BRANCH 24 26
ATOM     26  C   ALA X1006      20.182  44.972  22.480  1.00 92.71 LIG 0.22  C 
ATOM     27 O    ALA X1006      21.378  45.208  22.622  1.00 91.80 LIG-0.29  OA
ENDBRANCH 24 26
ENDBRANCH 21 24
ENDBRANCH 19 20
BRANCH 19 28
ATOM     28  CB  VAL X1005      14.855  46.188  22.315  1.00 93.65 LIG 0.01  C 
ATOM     29  CG2 VAL X1005      13.508  46.422  21.674  1.00 92.72 LIG 0.01  C 
ATOM     30  CG1 VAL X1005      15.214  47.288  23.302  1.00 92.97 LIG 0.01  C 
ENDBRANCH 19 28
ENDBRANCH 17 19
ENDBRANCH 11 15
ENDBRANCH 9 11
ENDBRANCH 5 7
ENDBRANCH 3 5
BRANCH 1 31
ATOM     31  CA  PRO X1002      19.120  41.454  25.944  1.00 99.31 LIG 0.18  C 
ATOM     32  N   PRO X1002      20.546  41.192  25.731  1.00 99.88 LIG-0.34  N 
ATOM     33  CD  PRO X1002      21.368  42.260  26.308  1.00 99.70 LIG 0.13  C 
ATOM     34  C   ASN X1001      20.913  40.047  25.131  1.00100.64 LIG 0.24  C 
ATOM     35  CG  PRO X1002      20.556  42.662  27.466  1.00 99.65 LIG 0.02  C 
ATOM     36  CB  PRO X1002      19.130  42.561  27.003  1.00 99.37 LIG 0.04  C 
ATOM     37 O    ASN X1001      20.089  39.210  24.785  1.00100.22 LIG-0.27  OA
BRANCH 34 38
ATOM     38  CA  ASN X1001      22.422  39.755  24.986  1.00101.23 LIG 0.18  C 
BRANCH 38 39
ATOM     39  N   ASN X1001      22.564  38.294  24.906  1.00101.62 LIG-0.34  N 
ATOM     40  C   SER X1000      23.312  37.640  25.797  1.00101.89 LIG 0.26  C 
ATOM     41 O    SER X1000      24.221  38.190  26.436  1.00101.60 LIG-0.27  OA
ATOM     42 H    ASN X1001      22.137  37.920  24.259  1.00101.62 LIG 0.16  HD
BRANCH 40 43
ATOM     43  CA  SER X1000      23.014  36.148  26.009  1.00101.91 LIG 0.42  C 
ATOM     44  N   SER X1000      23.932  35.532  27.003  1.00101.55 LIG 0.62  N 
BRANCH 43 45
ATOM     45  CB  SER X1000      21.560  35.921  26.416  1.00101.96 LIG 0.21  C 
BRANCH 45 46
ATOM     46 OG   SER X1000      20.659  36.191  25.355  1.00101.15 LIG-0.40  OA
ATOM     47 HG   SER X1000      21.083  36.498  24.699  1.00101.15 LIG 0.21  HD
ENDBRANCH 45 46
ENDBRANCH 43 45
ENDBRANCH 40 43
ENDBRANCH 38 39
BRANCH 38 48
ATOM     48  CB  ASN X1001      23.142  40.479  23.820  1.00101.08 LIG 0.14  C 
BRANCH 48 49
ATOM     49  CG  ASN X1001      23.584  41.914  24.137  1.00100.04 LIG 0.22  C 
ATOM     50  ND2 ASN X1001      24.809  42.089  24.599  1.00 98.76 LIG-0.37  N 
ATOM     51 21HD ASN X1001      25.102  42.883  24.750  1.00 98.76 LIG 0.16  HD
ATOM     52 22HD ASN X1001      25.313  41.408  24.749  1.00 98.76 LIG 0.16  HD
ATOM     53 OD1  ASN X1001      22.834  42.853  23.910  1.00 97.91 LIG-0.27  OA
ENDBRANCH 48 49
ENDBRANCH 38 48
ENDBRANCH 34 38
ENDBRANCH 1 31
TORSDOF 19
ENDMDL
MODEL 38
USER: ADFR SOLUTION from run 99
USER: SCORE 12.765508 LL:  -3.084 LR: -11.562 RR:   0.000 FEB:  -5.894
USER: RMSD 3.736140
USER: SEED 98
USER: STATUS no improvement in best in 7 clusters for 5 generations
USER: GENES 21
USER: genes 0 Translation |==|  0.45184 0.46964 0.57119
USER: genes 1 Rotation |==|  0.54852 0.52592 0.58201 0.99015
USER: genes 2 Torsion [C]-N--CA-[CB] |==|  0.51501
USER: genes 3 Torsion [N]-CA--C-[N] |==|  0.39179
USER: genes 4 Torsion [C]-N--CA-[C] |==|  0.50024
USER: genes 5 Torsion [N]-CA--CB-[SG] |==|  0.13104
USER: genes 6 Torsion [CA]-CB--SG-[HG] |==|  0.85436
USER: genes 7 Torsion [N]-CA--C-[N] |==|  0.91419
USER: genes 8 Torsion [C]-N--CA-[CB] |==|  0.83256
USER: genes 9 Torsion [N]-CA--C-[N] |==|  0.35581
USER: genes 10 Torsion [C]-N--CA-[CB] |==|  0.45389
USER: genes 11 Torsion [N]-CA--C-[O] |==|  0.92204
USER: genes 12 Torsion [N]-CA--CB-[CG2] |==|  0.67283
USER: genes 13 Torsion [O]-C--CA-[N] |==|  0.02598
USER: genes 14 Torsion [N]-C--CA-[N] |==|  0.35615
USER: genes 15 Torsion [C]-CA--N-[C] |==|  0.65000
USER: genes 16 Torsion [N]-C--CA-[N] |==|  0.30668
USER: genes 17 Torsion [C]-CA--CB-[OG] |==|  0.85974
USER: genes 18 Torsion [CA]-CB--OG-[HG] |==|  0.12997
USER: genes 19 Torsion [C]-CA--CB-[CG] |==|  0.03216
USER: genes 20 Torsion [CA]-CB--CG-[ND2] |==|  0.18492
ROOT
ATOM      1  C   PRO X1002      14.973  37.093  27.923  1.00 98.27 LIG 0.24  C 
ATOM      2 O    PRO X1002      14.098  37.671  27.293  1.00 97.40 LIG-0.27  OA
ATOM      3  N   ALA X1003      16.043  37.708  28.419  1.00 97.43 LIG-0.35  N 
ATOM      4 H    ALA X1003      16.544  37.371  29.031  1.00 97.43 LIG 0.16  HD
ENDROOT
BRANCH 3 5
ATOM      5  CA  ALA X1003      16.469  39.032  27.961  1.00 96.73 LIG 0.17  C 
ATOM      6  CB  ALA X1003      17.782  39.416  28.605  1.00 96.74 LIG 0.04  C 
BRANCH 5 7
ATOM      7  C   ALA X1003      16.609  38.908  26.444  1.00 95.66 LIG 0.24  C 
ATOM      8 O    ALA X1003      17.081  37.886  25.973  1.00 95.14 LIG-0.27  OA
ATOM      9  N   CYS X1004      16.229  39.900  25.647  1.00 94.40 LIG-0.34  N 
ATOM     10 H    CYS X1004      16.117  39.774  24.803  1.00 94.40 LIG 0.16  HD
BRANCH 9 11
ATOM     11  CA  CYS X1004      15.952  41.286  26.029  1.00 94.17 LIG 0.18  C 
BRANCH 11 12
ATOM     12  CB  CYS X1004      17.245  41.858  26.655  1.00 94.12 LIG 0.10  C 
BRANCH 12 13
ATOM     13 SG   CYS X1004      18.785  41.601  25.817  1.00 91.26 LIG-0.18  SA
ATOM     14 HG   CYS X1004      18.924  40.433  25.583  1.00 91.26 LIG 0.10  HD
ENDBRANCH 12 13
ENDBRANCH 11 12
BRANCH 11 15
ATOM     15  C   CYS X1004      15.532  42.158  24.831  1.00 93.84 LIG 0.24  C 
ATOM     16 O    CYS X1004      14.729  43.069  24.962  1.00 93.01 LIG-0.27  OA
ATOM     17  N   VAL X1005      16.047  41.832  23.656  1.00 93.78 LIG-0.35  N 
ATOM     18 H    VAL X1005      16.504  41.116  23.522  1.00 93.78 LIG 0.16  HD
BRANCH 17 19
ATOM     19  CA  VAL X1005      15.888  42.667  22.461  1.00 93.73 LIG 0.18  C 
BRANCH 19 20
ATOM     20  C   VAL X1005      16.572  44.032  22.609  1.00 93.48 LIG 0.24  C 
ATOM     21  N   ALA X1006      17.407  44.387  21.634  1.00 93.27 LIG-0.35  N 
ATOM     22 H    ALA X1006      17.574  43.892  20.952  1.00 93.27 LIG 0.16  HD
ATOM     23 O    VAL X1005      16.354  44.735  23.590  1.00 93.20 LIG-0.27  OA
BRANCH 21 24
ATOM     24  CA  ALA X1006      18.125  45.661  21.628  1.00 93.01 LIG 0.16  C 
ATOM     25  CB  ALA X1006      19.263  45.608  20.652  1.00 92.79 LIG 0.04  C 
BRANCH 24 26
ATOM     26  C   ALA X1006      17.192  46.811  21.285  1.00 92.71 LIG 0.22  C 
ATOM     27 O    ALA X1006      16.198  46.639  20.586  1.00 91.80 LIG-0.29  OA
ENDBRANCH 24 26
ENDBRANCH 21 24
ENDBRANCH 19 20
BRANCH 19 28
ATOM     28  CB  VAL X1005      14.371  42.811  22.135  1.00 93.65 LIG 0.01  C 
ATOM     29  CG2 VAL X1005      14.091  42.208  20.779  1.00 92.72 LIG 0.01  C 
ATOM     30  CG1 VAL X1005      13.893  44.252  22.226  1.00 92.97 LIG 0.01  C 
ENDBRANCH 19 28
ENDBRANCH 17 19
ENDBRANCH 11 15
ENDBRANCH 9 11
ENDBRANCH 5 7
ENDBRANCH 3 5
BRANCH 1 31
ATOM     31  CA  PRO X1002      14.853  35.599  28.237  1.00 99.31 LIG 0.18  C 
ATOM     32  N   PRO X1002      13.760  34.896  27.561  1.00 99.88 LIG-0.34  N 
ATOM     33  CD  PRO X1002      14.270  34.051  26.477  1.00 99.70 LIG 0.13  C 
ATOM     34  C   ASN X1001      12.508  35.043  28.026  1.00100.64 LIG 0.24  C 
ATOM     35  CG  PRO X1002      15.580  33.649  27.009  1.00 99.65 LIG 0.02  C 
ATOM     36  CB  PRO X1002      16.097  34.857  27.738  1.00 99.37 LIG 0.04  C 
ATOM     37 O    ASN X1001      12.265  35.727  29.013  1.00100.22 LIG-0.27  OA
BRANCH 34 38
ATOM     38  CA  ASN X1001      11.382  34.232  27.349  1.00101.23 LIG 0.18  C 
BRANCH 38 39
ATOM     39  N   ASN X1001      10.659  33.534  28.422  1.00101.62 LIG-0.34  N 
ATOM     40  C   SER X1000      10.489  32.211  28.368  1.00101.89 LIG 0.26  C 
ATOM     41 O    SER X1000      10.525  31.577  27.304  1.00101.60 LIG-0.27  OA
ATOM     42 H    ASN X1001      10.372  34.038  29.057  1.00101.62 LIG 0.16  HD
BRANCH 40 43
ATOM     43  CA  SER X1000      10.230  31.479  29.693  1.00101.91 LIG 0.42  C 
ATOM     44  N   SER X1000       8.837  30.967  29.784  1.00101.55 LIG 0.62  N 
BRANCH 43 45
ATOM     45  CB  SER X1000      11.229  30.345  29.911  1.00101.96 LIG 0.21  C 
BRANCH 45 46
ATOM     46 OG   SER X1000      11.321  29.490  28.784  1.00101.15 LIG-0.40  OA
ATOM     47 HG   SER X1000      11.392  29.952  28.086  1.00101.15 LIG 0.21  HD
ENDBRANCH 45 46
ENDBRANCH 43 45
ENDBRANCH 40 43
ENDBRANCH 38 39
BRANCH 38 48
ATOM     48  CB  ASN X1001      10.430  35.037  26.427  1.00101.08 LIG 0.14  C 
BRANCH 48 49
ATOM     49  CG  ASN X1001      10.907  36.458  26.102  1.00100.04 LIG 0.22  C 
ATOM     50  ND2 ASN X1001      11.999  36.583  25.368  1.00 98.76 LIG-0.37  N 
ATOM     51 21HD ASN X1001      12.272  37.364  25.134  1.00 98.76 LIG 0.16  HD
ATOM     52 22HD ASN X1001      12.436  35.883  25.125  1.00 98.76 LIG 0.16  HD
ATOM     53 OD1  ASN X1001      10.256  37.425  26.469  1.00 97.91 LIG-0.27  OA
ENDBRANCH 48 49
ENDBRANCH 38 48
ENDBRANCH 34 38
ENDBRANCH 1 31
TORSDOF 19
ENDMDL
MODEL 39
USER: ADFR SOLUTION from run 180
USER: SCORE 13.278874 LL:  -2.767 LR: -11.562 RR:   0.000 FEB:  -5.894
USER: RMSD 9.357569
USER: SEED 179
USER: STATUS no improvement in best in 7 clusters for 5 generations
USER: GENES 21
USER: genes 0 Translation |==|  0.57907 0.64340 0.37998
USER: genes 1 Rotation |==|  0.67247 0.26043 0.16835 0.72994
USER: genes 2 Torsion [C]-N--CA-[CB] |==|  0.91501
USER: genes 3 Torsion [N]-CA--C-[N] |==|  0.38744
USER: genes 4 Torsion [C]-N--CA-[C] |==|  0.67792
USER: genes 5 Torsion [N]-CA--CB-[SG] |==|  0.62982
USER: genes 6 Torsion [CA]-CB--SG-[HG] |==|  0.24357
USER: genes 7 Torsion [N]-CA--C-[N] |==|  0.34846
USER: genes 8 Torsion [C]-N--CA-[CB] |==|  0.82025
USER: genes 9 Torsion [N]-CA--C-[N] |==|  0.41835
USER: genes 10 Torsion [C]-N--CA-[CB] |==|  0.47202
USER: genes 11 Torsion [N]-CA--C-[O] |==|  0.38298
USER: genes 12 Torsion [N]-CA--CB-[CG2] |==|  0.87380
USER: genes 13 Torsion [O]-C--CA-[N] |==|  0.78530
USER: genes 14 Torsion [N]-C--CA-[N] |==|  0.33442
USER: genes 15 Torsion [C]-CA--N-[C] |==|  0.61111
USER: genes 16 Torsion [N]-C--CA-[N] |==|  0.51000
USER: genes 17 Torsion [C]-CA--CB-[OG] |==|  0.23436
USER: genes 18 Torsion [CA]-CB--OG-[HG] |==|  0.18110
USER: genes 19 Torsion [C]-CA--CB-[CG] |==|  0.05114
USER: genes 20 Torsion [CA]-CB--CG-[ND2] |==|  0.26460
ROOT
ATOM      1  C   PRO X1002      18.027  40.612  24.195  1.00 98.27 LIG 0.24  C 
ATOM      2 O    PRO X1002      19.163  40.820  24.599  1.00 97.40 LIG-0.27  OA
ATOM      3  N   ALA X1003      17.256  39.631  24.656  1.00 97.43 LIG-0.35  N 
ATOM      4 H    ALA X1003      16.403  39.604  24.544  1.00 97.43 LIG 0.16  HD
ENDROOT
BRANCH 3 5
ATOM      5  CA  ALA X1003      17.796  38.496  25.407  1.00 96.73 LIG 0.17  C 
ATOM      6  CB  ALA X1003      19.206  38.188  24.957  1.00 96.74 LIG 0.04  C 
BRANCH 5 7
ATOM      7  C   ALA X1003      17.761  38.929  26.872  1.00 95.66 LIG 0.24  C 
ATOM      8 O    ALA X1003      18.078  40.072  27.162  1.00 95.14 LIG-0.27  OA
ATOM      9  N   CYS X1004      17.399  38.074  27.822  1.00 94.40 LIG-0.34  N 
ATOM     10 H    CYS X1004      17.187  38.348  28.609  1.00 94.40 LIG 0.16  HD
BRANCH 9 11
ATOM     11  CA  CYS X1004      17.302  36.617  27.710  1.00 94.17 LIG 0.18  C 
BRANCH 11 12
ATOM     12  CB  CYS X1004      18.208  36.011  28.806  1.00 94.12 LIG 0.10  C 
BRANCH 12 13
ATOM     13 SG   CYS X1004      19.311  34.694  28.370  1.00 91.26 LIG-0.18  SA
ATOM     14 HG   CYS X1004      20.350  35.153  27.982  1.00 91.26 LIG 0.10  HD
ENDBRANCH 12 13
ENDBRANCH 11 12
BRANCH 11 15
ATOM     15  C   CYS X1004      15.862  36.104  27.892  1.00 93.84 LIG 0.24  C 
ATOM     16 O    CYS X1004      15.225  36.351  28.905  1.00 93.01 LIG-0.27  OA
ATOM     17  N   VAL X1005      15.380  35.344  26.920  1.00 93.78 LIG-0.35  N 
ATOM     18 H    VAL X1005      15.858  35.050  26.269  1.00 93.78 LIG 0.16  HD
BRANCH 17 19
ATOM     19  CA  VAL X1005      13.975  34.929  26.861  1.00 93.73 LIG 0.18  C 
BRANCH 19 20
ATOM     20  C   VAL X1005      13.017  36.125  26.786  1.00 93.48 LIG 0.24  C 
ATOM     21  N   ALA X1006      11.866  35.925  26.148  1.00 93.27 LIG-0.35  N 
ATOM     22 H    ALA X1006      11.651  35.176  25.784  1.00 93.27 LIG 0.16  HD
ATOM     23 O    VAL X1005      13.325  37.202  27.285  1.00 93.20 LIG-0.27  OA
BRANCH 21 24
ATOM     24  CA  ALA X1006      10.848  36.964  26.003  1.00 93.01 LIG 0.16  C 
ATOM     25  CB  ALA X1006       9.788  36.520  25.038  1.00 92.79 LIG 0.04  C 
BRANCH 24 26
ATOM     26  C   ALA X1006      10.223  37.308  27.346  1.00 92.71 LIG 0.22  C 
ATOM     27 O    ALA X1006       9.994  38.471  27.664  1.00 91.80 LIG-0.29  OA
ENDBRANCH 24 26
ENDBRANCH 21 24
ENDBRANCH 19 20
BRANCH 19 28
ATOM     28  CB  VAL X1005      13.660  34.010  28.078  1.00 93.65 LIG 0.01  C 
ATOM     29  CG2 VAL X1005      14.767  32.994  28.238  1.00 92.72 LIG 0.01  C 
ATOM     30  CG1 VAL X1005      12.295  33.349  27.968  1.00 92.97 LIG 0.01  C 
ENDBRANCH 19 28
ENDBRANCH 17 19
ENDBRANCH 11 15
ENDBRANCH 9 11
ENDBRANCH 5 7
ENDBRANCH 3 5
BRANCH 1 31
ATOM     31  CA  PRO X1002      17.388  41.531  23.149  1.00 99.31 LIG 0.18  C 
ATOM     32  N   PRO X1002      16.895  42.816  23.651  1.00 99.88 LIG-0.34  N 
ATOM     33  CD  PRO X1002      17.782  43.912  23.250  1.00 99.70 LIG 0.13  C 
ATOM     34  C   ASN X1001      15.729  42.848  24.318  1.00100.64 LIG 0.24  C 
ATOM     35  CG  PRO X1002      18.270  43.433  21.948  1.00 99.65 LIG 0.02  C 
ATOM     36  CB  PRO X1002      18.433  41.949  22.109  1.00 99.37 LIG 0.04  C 
ATOM     37 O    ASN X1001      15.060  41.836  24.492  1.00100.22 LIG-0.27  OA
BRANCH 34 38
ATOM     38  CA  ASN X1001      15.189  44.221  24.771  1.00101.23 LIG 0.18  C 
BRANCH 38 39
ATOM     39  N   ASN X1001      13.875  44.390  24.134  1.00101.62 LIG-0.34  N 
ATOM     40  C   SER X1000      13.512  45.577  23.644  1.00101.89 LIG 0.26  C 
ATOM     41 O    SER X1000      14.009  46.641  24.038  1.00101.60 LIG-0.27  OA
ATOM     42 H    ASN X1001      13.387  43.681  24.110  1.00101.62 LIG 0.16  HD
BRANCH 40 43
ATOM     43  CA  SER X1000      12.427  45.589  22.556  1.00101.91 LIG 0.42  C 
ATOM     44  N   SER X1000      12.176  46.958  22.035  1.00101.55 LIG 0.62  N 
BRANCH 43 45
ATOM     45  CB  SER X1000      12.773  44.639  21.411  1.00101.96 LIG 0.21  C 
BRANCH 45 46
ATOM     46 OG   SER X1000      12.377  43.306  21.684  1.00101.15 LIG-0.40  OA
ATOM     47 HG   SER X1000      11.540  43.267  21.733  1.00101.15 LIG 0.21  HD
ENDBRANCH 45 46
ENDBRANCH 43 45
ENDBRANCH 40 43
ENDBRANCH 38 39
BRANCH 38 48
ATOM     48  CB  ASN X1001      15.133  44.454  26.303  1.00101.08 LIG 0.14  C 
BRANCH 48 49
ATOM     49  CG  ASN X1001      16.011  43.502  27.125  1.00100.04 LIG 0.22  C 
ATOM     50  ND2 ASN X1001      17.218  43.921  27.461  1.00 98.76 LIG-0.37  N 
ATOM     51 21HD ASN X1001      17.721  43.430  27.955  1.00 98.76 LIG 0.16  HD
ATOM     52 22HD ASN X1001      17.500  44.686  27.186  1.00 98.76 LIG 0.16  HD
ATOM     53 OD1  ASN X1001      15.570  42.423  27.494  1.00 97.91 LIG-0.27  OA
ENDBRANCH 48 49
ENDBRANCH 38 48
ENDBRANCH 34 38
ENDBRANCH 1 31
TORSDOF 19
ENDMDL
MODEL 40
USER: ADFR SOLUTION from run 195
USER: SCORE 14.381444 LL:  -4.026 LR: -11.553 RR:   0.000 FEB:  -5.885
USER: RMSD 9.816484
USER: SEED 194
USER: STATUS no improvement in best in 2 clusters for 5 generations
USER: GENES 21
USER: genes 0 Translation |==|  0.69457 0.67691 0.34352
USER: genes 1 Rotation |==|  0.49879 0.38599 0.21240 0.89280
USER: genes 2 Torsion [C]-N--CA-[CB] |==|  0.14421
USER: genes 3 Torsion [N]-CA--C-[N] |==|  0.15339
USER: genes 4 Torsion [C]-N--CA-[C] |==|  0.71699
USER: genes 5 Torsion [N]-CA--CB-[SG] |==|  0.17605
USER: genes 6 Torsion [CA]-CB--SG-[HG] |==|  0.21537
USER: genes 7 Torsion [N]-CA--C-[N] |==|  0.93401
USER: genes 8 Torsion [C]-N--CA-[CB] |==|  0.76994
USER: genes 9 Torsion [N]-CA--C-[N] |==|  0.18890
USER: genes 10 Torsion [C]-N--CA-[CB] |==|  0.46470
USER: genes 11 Torsion [N]-CA--C-[O] |==|  0.22409
USER: genes 12 Torsion [N]-CA--CB-[CG2] |==|  0.84410
USER: genes 13 Torsion [O]-C--CA-[N] |==|  0.98021
USER: genes 14 Torsion [N]-C--CA-[N] |==|  0.28389
USER: genes 15 Torsion [C]-CA--N-[C] |==|  0.57114
USER: genes 16 Torsion [N]-C--CA-[N] |==|  0.47681
USER: genes 17 Torsion [C]-CA--CB-[OG] |==|  0.34341
USER: genes 18 Torsion [CA]-CB--OG-[HG] |==|  0.36195
USER: genes 19 Torsion [C]-CA--CB-[CG] |==|  0.11028
USER: genes 20 Torsion [CA]-CB--CG-[ND2] |==|  0.27058
ROOT
ATOM      1  C   PRO X1002      20.799  41.291  23.484  1.00 98.27 LIG 0.24  C 
ATOM      2 O    PRO X1002      21.570  41.829  22.701  1.00 97.40 LIG-0.27  OA
ATOM      3  N   ALA X1003      21.197  40.482  24.462  1.00 97.43 LIG-0.35  N 
ATOM      4 H    ALA X1003      20.705  40.273  25.136  1.00 97.43 LIG 0.16  HD
ENDROOT
BRANCH 3 5
ATOM      5  CA  ALA X1003      22.526  39.869  24.481  1.00 96.73 LIG 0.17  C 
ATOM      6  CB  ALA X1003      23.596  40.921  24.296  1.00 96.74 LIG 0.04  C 
BRANCH 5 7
ATOM      7  C   ALA X1003      22.639  39.194  25.848  1.00 95.66 LIG 0.24  C 
ATOM      8 O    ALA X1003      23.583  39.472  26.571  1.00 95.14 LIG-0.27  OA
ATOM      9  N   CYS X1004      21.730  38.311  26.243  1.00 94.40 LIG-0.34  N 
ATOM     10 H    CYS X1004      21.669  38.076  27.069  1.00 94.40 LIG 0.16  HD
BRANCH 9 11
ATOM     11  CA  CYS X1004      20.739  37.628  25.410  1.00 94.17 LIG 0.18  C 
BRANCH 11 12
ATOM     12  CB  CYS X1004      20.697  36.150  25.863  1.00 94.12 LIG 0.10  C 
BRANCH 12 13
ATOM     13 SG   CYS X1004      20.171  35.778  27.513  1.00 91.26 LIG-0.18  SA
ATOM     14 HG   CYS X1004      18.975  35.854  27.580  1.00 91.26 LIG 0.10  HD
ENDBRANCH 12 13
ENDBRANCH 11 12
BRANCH 11 15
ATOM     15  C   CYS X1004      19.332  38.244  25.536  1.00 93.84 LIG 0.24  C 
ATOM     16 O    CYS X1004      18.519  38.156  24.630  1.00 93.01 LIG-0.27  OA
ATOM     17  N   VAL X1005      19.080  38.912  26.652  1.00 93.78 LIG-0.35  N 
ATOM     18 H    VAL X1005      19.681  39.099  27.238  1.00 93.78 LIG 0.16  HD
BRANCH 17 19
ATOM     19  CA  VAL X1005      17.742  39.399  26.998  1.00 93.73 LIG 0.18  C 
BRANCH 19 20
ATOM     20  C   VAL X1005      16.648  38.370  26.685  1.00 93.48 LIG 0.24  C 
ATOM     21  N   ALA X1006      16.642  37.264  27.426  1.00 93.27 LIG-0.35  N 
ATOM     22 H    ALA X1006      17.215  37.110  28.049  1.00 93.27 LIG 0.16  HD
ATOM     23 O    VAL X1005      15.840  38.575  25.785  1.00 93.20 LIG-0.27  OA
BRANCH 21 24
ATOM     24  CA  ALA X1006      15.657  36.198  27.253  1.00 93.01 LIG 0.16  C 
ATOM     25  CB  ALA X1006      16.086  34.971  28.003  1.00 92.79 LIG 0.04  C 
BRANCH 24 26
ATOM     26  C   ALA X1006      14.281  36.645  27.723  1.00 92.71 LIG 0.22  C 
ATOM     27 O    ALA X1006      13.557  37.334  27.010  1.00 91.80 LIG-0.29  OA
ENDBRANCH 24 26
ENDBRANCH 21 24
ENDBRANCH 19 20
BRANCH 19 28
ATOM     28  CB  VAL X1005      17.487  40.755  26.275  1.00 93.65 LIG 0.01  C 
ATOM     29  CG2 VAL X1005      18.579  41.732  26.643  1.00 92.72 LIG 0.01  C 
ATOM     30  CG1 VAL X1005      16.103  41.316  26.564  1.00 92.97 LIG 0.01  C 
ENDBRANCH 19 28
ENDBRANCH 17 19
ENDBRANCH 11 15
ENDBRANCH 9 11
ENDBRANCH 5 7
ENDBRANCH 3 5
BRANCH 1 31
ATOM     31  CA  PRO X1002      19.295  41.571  23.416  1.00 99.31 LIG 0.18  C 
ATOM     32  N   PRO X1002      18.888  42.626  22.484  1.00 99.88 LIG-0.34  N 
ATOM     33  CD  PRO X1002      18.263  42.057  21.286  1.00 99.70 LIG 0.13  C 
ATOM     34  C   ASN X1001      19.061  43.910  22.841  1.00100.64 LIG 0.24  C 
ATOM     35  CG  PRO X1002      17.610  40.860  21.837  1.00 99.65 LIG 0.02  C 
ATOM     36  CB  PRO X1002      18.554  40.340  22.883  1.00 99.37 LIG 0.04  C 
ATOM     37 O    ASN X1001      19.524  44.217  23.933  1.00100.22 LIG-0.27  OA
BRANCH 34 38
ATOM     38  CA  ASN X1001      18.556  45.006  21.879  1.00101.23 LIG 0.18  C 
BRANCH 38 39
ATOM     39  N   ASN X1001      17.290  45.506  22.434  1.00101.62 LIG-0.34  N 
ATOM     40  C   SER X1000      16.374  46.056  21.634  1.00101.89 LIG 0.26  C 
ATOM     41 O    SER X1000      16.660  46.551  20.535  1.00101.60 LIG-0.27  OA
ATOM     42 H    ASN X1001      17.203  45.413  23.285  1.00101.62 LIG 0.16  HD
BRANCH 40 43
ATOM     43  CA  SER X1000      14.920  46.065  22.129  1.00101.91 LIG 0.42  C 
ATOM     44  N   SER X1000      14.036  46.874  21.248  1.00101.55 LIG 0.62  N 
BRANCH 43 45
ATOM     45  CB  SER X1000      14.370  44.648  22.277  1.00101.96 LIG 0.21  C 
BRANCH 45 46
ATOM     46 OG   SER X1000      13.893  44.393  23.587  1.00101.15 LIG-0.40  OA
ATOM     47 HG   SER X1000      13.122  44.063  23.545  1.00101.15 LIG 0.21  HD
ENDBRANCH 45 46
ENDBRANCH 43 45
ENDBRANCH 40 43
ENDBRANCH 38 39
BRANCH 38 48
ATOM     48  CB  ASN X1001      19.555  46.151  21.572  1.00101.08 LIG 0.14  C 
BRANCH 48 49
ATOM     49  CG  ASN X1001      21.010  45.697  21.393  1.00100.04 LIG 0.22  C 
ATOM     50  ND2 ASN X1001      21.446  45.515  20.160  1.00 98.76 LIG-0.37  N 
ATOM     51 21HD ASN X1001      22.267  45.300  20.022  1.00 98.76 LIG 0.16  HD
ATOM     52 22HD ASN X1001      20.909  45.614  19.495  1.00 98.76 LIG 0.16  HD
ATOM     53 OD1  ASN X1001      21.738  45.568  22.367  1.00 97.91 LIG-0.27  OA
ENDBRANCH 48 49
ENDBRANCH 38 48
ENDBRANCH 34 38
ENDBRANCH 1 31
TORSDOF 19
ENDMDL
MODEL 41
USER: ADFR SOLUTION from run 125
USER: SCORE 12.396812 LL:  -2.519 LR: -11.528 RR:   0.000 FEB:  -5.860
USER: RMSD 9.409422
USER: SEED 124
USER: STATUS no improvement in best in 11 clusters for 5 generations
USER: GENES 21
USER: genes 0 Translation |==|  0.46482 0.48741 0.53377
USER: genes 1 Rotation |==|  0.14354 0.78622 0.31966 0.59214
USER: genes 2 Torsion [C]-N--CA-[CB] |==|  0.48897
USER: genes 3 Torsion [N]-CA--C-[N] |==|  0.45079
USER: genes 4 Torsion [C]-N--CA-[C] |==|  0.73448
USER: genes 5 Torsion [N]-CA--CB-[SG] |==|  0.52566
USER: genes 6 Torsion [CA]-CB--SG-[HG] |==|  0.15415
USER: genes 7 Torsion [N]-CA--C-[N] |==|  0.16103
USER: genes 8 Torsion [C]-N--CA-[CB] |==|  0.81467
USER: genes 9 Torsion [N]-CA--C-[N] |==|  0.42404
USER: genes 10 Torsion [C]-N--CA-[CB] |==|  0.19164
USER: genes 11 Torsion [N]-CA--C-[O] |==|  0.03367
USER: genes 12 Torsion [N]-CA--CB-[CG2] |==|  0.63653
USER: genes 13 Torsion [O]-C--CA-[N] |==|  0.84456
USER: genes 14 Torsion [N]-C--CA-[N] |==|  0.87888
USER: genes 15 Torsion [C]-CA--N-[C] |==|  0.58526
USER: genes 16 Torsion [N]-C--CA-[N] |==|  0.21727
USER: genes 17 Torsion [C]-CA--CB-[OG] |==|  0.45135
USER: genes 18 Torsion [CA]-CB--OG-[HG] |==|  0.12339
USER: genes 19 Torsion [C]-CA--CB-[CG] |==|  0.23021
USER: genes 20 Torsion [CA]-CB--CG-[ND2] |==|  0.91750
ROOT
ATOM      1  C   PRO X1002      15.285  37.453  27.194  1.00 98.27 LIG 0.24  C 
ATOM      2 O    PRO X1002      14.168  37.948  27.116  1.00 97.40 LIG-0.27  OA
ATOM      3  N   ALA X1003      15.529  36.165  26.971  1.00 97.43 LIG-0.35  N 
ATOM      4 H    ALA X1003      16.314  35.850  26.813  1.00 97.43 LIG 0.16  HD
ENDROOT
BRANCH 3 5
ATOM      5  CA  ALA X1003      14.470  35.153  26.976  1.00 96.73 LIG 0.17  C 
ATOM      6  CB  ALA X1003      15.030  33.801  26.599  1.00 96.74 LIG 0.04  C 
BRANCH 5 7
ATOM      7  C   ALA X1003      13.922  35.150  28.403  1.00 95.66 LIG 0.24  C 
ATOM      8 O    ALA X1003      14.592  35.643  29.297  1.00 95.14 LIG-0.27  OA
ATOM      9  N   CYS X1004      12.738  34.613  28.671  1.00 94.40 LIG-0.34  N 
ATOM     10 H    CYS X1004      12.335  34.775  29.414  1.00 94.40 LIG 0.16  HD
BRANCH 9 11
ATOM     11  CA  CYS X1004      11.960  33.713  27.817  1.00 94.17 LIG 0.18  C 
BRANCH 11 12
ATOM     12  CB  CYS X1004      11.255  32.695  28.742  1.00 94.12 LIG 0.10  C 
BRANCH 12 13
ATOM     13 SG   CYS X1004      10.428  31.308  28.011  1.00 91.26 LIG-0.18  SA
ATOM     14 HG   CYS X1004      11.196  30.704  27.315  1.00 91.26 LIG 0.10  HD
ENDBRANCH 12 13
ENDBRANCH 11 12
BRANCH 11 15
ATOM     15  C   CYS X1004      10.906  34.459  26.976  1.00 93.84 LIG 0.24  C 
ATOM     16 O    CYS X1004       9.726  34.150  27.023  1.00 93.01 LIG-0.27  OA
ATOM     17  N   VAL X1005      11.359  35.409  26.172  1.00 93.78 LIG-0.35  N 
ATOM     18 H    VAL X1005      12.195  35.547  26.027  1.00 93.78 LIG 0.16  HD
BRANCH 17 19
ATOM     19  CA  VAL X1005      10.471  36.323  25.447  1.00 93.73 LIG 0.18  C 
BRANCH 19 20
ATOM     20  C   VAL X1005       9.555  37.114  26.389  1.00 93.48 LIG 0.24  C 
ATOM     21  N   ALA X1006       9.144  38.305  25.958  1.00 93.27 LIG-0.35  N 
ATOM     22 H    ALA X1006       9.372  38.636  25.198  1.00 93.27 LIG 0.16  HD
ATOM     23 O    VAL X1005       9.241  36.656  27.483  1.00 93.20 LIG-0.27  OA
BRANCH 21 24
ATOM     24  CA  ALA X1006       8.259  39.170  26.737  1.00 93.01 LIG 0.16  C 
ATOM     25  CB  ALA X1006       8.981  39.695  27.943  1.00 92.79 LIG 0.04  C 
BRANCH 24 26
ATOM     26  C   ALA X1006       7.741  40.323  25.892  1.00 92.71 LIG 0.22  C 
ATOM     27 O    ALA X1006       7.881  40.333  24.673  1.00 91.80 LIG-0.29  OA
ENDBRANCH 24 26
ENDBRANCH 21 24
ENDBRANCH 19 20
BRANCH 19 28
ATOM     28  CB  VAL X1005       9.660  35.518  24.389  1.00 93.65 LIG 0.01  C 
ATOM     29  CG2 VAL X1005       9.746  36.218  23.053  1.00 92.72 LIG 0.01  C 
ATOM     30  CG1 VAL X1005       8.219  35.286  24.817  1.00 92.97 LIG 0.01  C 
ENDBRANCH 19 28
ENDBRANCH 17 19
ENDBRANCH 11 15
ENDBRANCH 9 11
ENDBRANCH 5 7
ENDBRANCH 3 5
BRANCH 1 31
ATOM     31  CA  PRO X1002      16.506  38.324  27.501  1.00 99.31 LIG 0.18  C 
ATOM     32  N   PRO X1002      16.727  39.450  26.590  1.00 99.88 LIG-0.34  N 
ATOM     33  CD  PRO X1002      16.366  40.720  27.227  1.00 99.70 LIG 0.13  C 
ATOM     34  C   ASN X1001      17.262  39.212  25.380  1.00100.64 LIG 0.24  C 
ATOM     35  CG  PRO X1002      16.705  40.449  28.632  1.00 99.65 LIG 0.02  C 
ATOM     36  CB  PRO X1002      16.333  39.011  28.859  1.00 99.37 LIG 0.04  C 
ATOM     37 O    ASN X1001      17.593  38.084  25.035  1.00100.22 LIG-0.27  OA
BRANCH 34 38
ATOM     38  CA  ASN X1001      17.558  40.420  24.466  1.00101.23 LIG 0.18  C 
BRANCH 38 39
ATOM     39  N   ASN X1001      16.393  41.312  24.552  1.00101.62 LIG-0.34  N 
ATOM     40  C   SER X1000      16.045  42.068  23.508  1.00101.89 LIG 0.26  C 
ATOM     41 O    SER X1000      16.848  42.390  22.622  1.00101.60 LIG-0.27  OA
ATOM     42 H    ASN X1001      15.978  41.298  25.306  1.00101.62 LIG 0.16  HD
BRANCH 40 43
ATOM     43  CA  SER X1000      14.587  42.547  23.440  1.00101.91 LIG 0.42  C 
ATOM     44  N   SER X1000      14.336  43.696  24.350  1.00101.55 LIG 0.62  N 
BRANCH 43 45
ATOM     45  CB  SER X1000      14.180  42.901  22.012  1.00101.96 LIG 0.21  C 
BRANCH 45 46
ATOM     46 OG   SER X1000      12.773  42.958  21.855  1.00101.15 LIG-0.40  OA
ATOM     47 HG   SER X1000      12.436  43.375  22.501  1.00101.15 LIG 0.21  HD
ENDBRANCH 45 46
ENDBRANCH 43 45
ENDBRANCH 40 43
ENDBRANCH 38 39
BRANCH 38 48
ATOM     48  CB  ASN X1001      18.889  41.166  24.740  1.00101.08 LIG 0.14  C 
BRANCH 48 49
ATOM     49  CG  ASN X1001      20.123  40.527  24.089  1.00100.04 LIG 0.22  C 
ATOM     50  ND2 ASN X1001      20.112  39.218  23.909  1.00 98.76 LIG-0.37  N 
ATOM     51 21HD ASN X1001      20.769  38.833  23.512  1.00 98.76 LIG 0.16  HD
ATOM     52 22HD ASN X1001      19.445  38.752  24.190  1.00 98.76 LIG 0.16  HD
ATOM     53 OD1  ASN X1001      21.049  41.228  23.706  1.00 97.91 LIG-0.27  OA
ENDBRANCH 48 49
ENDBRANCH 38 48
ENDBRANCH 34 38
ENDBRANCH 1 31
TORSDOF 19
ENDMDL
MODEL 42
USER: ADFR SOLUTION from run 184
USER: SCORE 12.761748 LL:  -3.704 LR: -11.510 RR:   0.000 FEB:  -5.843
USER: RMSD 3.691975
USER: SEED 183
USER: STATUS no improvement in best in 5 clusters for 5 generations
USER: GENES 21
USER: genes 0 Translation |==|  0.42918 0.49792 0.50153
USER: genes 1 Rotation |==|  0.54923 0.33477 0.41394 0.96138
USER: genes 2 Torsion [C]-N--CA-[CB] |==|  0.44444
USER: genes 3 Torsion [N]-CA--C-[N] |==|  0.34216
USER: genes 4 Torsion [C]-N--CA-[C] |==|  0.77878
USER: genes 5 Torsion [N]-CA--CB-[SG] |==|  0.96140
USER: genes 6 Torsion [CA]-CB--SG-[HG] |==|  0.32970
USER: genes 7 Torsion [N]-CA--C-[N] |==|  0.32377
USER: genes 8 Torsion [C]-N--CA-[CB] |==|  0.50109
USER: genes 9 Torsion [N]-CA--C-[N] |==|  0.38470
USER: genes 10 Torsion [C]-N--CA-[CB] |==|  0.20986
USER: genes 11 Torsion [N]-CA--C-[O] |==|  0.11758
USER: genes 12 Torsion [N]-CA--CB-[CG2] |==|  0.41941
USER: genes 13 Torsion [O]-C--CA-[N] |==|  0.49738
USER: genes 14 Torsion [N]-C--CA-[N] |==|  0.20821
USER: genes 15 Torsion [C]-CA--N-[C] |==|  0.65200
USER: genes 16 Torsion [N]-C--CA-[N] |==|  0.36487
USER: genes 17 Torsion [C]-CA--CB-[OG] |==|  0.27668
USER: genes 18 Torsion [CA]-CB--OG-[HG] |==|  0.08910
USER: genes 19 Torsion [C]-CA--CB-[CG] |==|  0.49096
USER: genes 20 Torsion [CA]-CB--CG-[ND2] |==|  0.25082
ROOT
ATOM      1  C   PRO X1002      14.429  37.666  26.565  1.00 98.27 LIG 0.24  C 
ATOM      2 O    PRO X1002      14.712  38.572  25.792  1.00 97.40 LIG-0.27  OA
ATOM      3  N   ALA X1003      15.030  37.494  27.739  1.00 97.43 LIG-0.35  N 
ATOM      4 H    ALA X1003      14.707  37.008  28.372  1.00 97.43 LIG 0.16  HD
ENDROOT
BRANCH 3 5
ATOM      5  CA  ALA X1003      16.311  38.123  28.065  1.00 96.73 LIG 0.17  C 
ATOM      6  CB  ALA X1003      16.511  38.169  29.562  1.00 96.74 LIG 0.04  C 
BRANCH 5 7
ATOM      7  C   ALA X1003      17.371  37.254  27.388  1.00 95.66 LIG 0.24  C 
ATOM      8 O    ALA X1003      17.428  36.066  27.661  1.00 95.14 LIG-0.27  OA
ATOM      9  N   CYS X1004      18.225  37.784  26.519  1.00 94.40 LIG-0.34  N 
ATOM     10 H    CYS X1004      18.687  37.285  25.992  1.00 94.40 LIG 0.16  HD
BRANCH 9 11
ATOM     11  CA  CYS X1004      18.514  39.204  26.316  1.00 94.17 LIG 0.18  C 
BRANCH 11 12
ATOM     12  CB  CYS X1004      19.886  39.299  25.610  1.00 94.12 LIG 0.10  C 
BRANCH 12 13
ATOM     13 SG   CYS X1004      20.919  37.860  25.556  1.00 91.26 LIG-0.18  SA
ATOM     14 HG   CYS X1004      21.107  37.544  24.413  1.00 91.26 LIG 0.10  HD
ENDBRANCH 12 13
ENDBRANCH 11 12
BRANCH 11 15
ATOM     15  C   CYS X1004      17.446  39.910  25.460  1.00 93.84 LIG 0.24  C 
ATOM     16 O    CYS X1004      17.285  39.620  24.284  1.00 93.01 LIG-0.27  OA
ATOM     17  N   VAL X1005      16.756  40.872  26.053  1.00 93.78 LIG-0.35  N 
ATOM     18 H    VAL X1005      16.948  41.180  26.833  1.00 93.78 LIG 0.16  HD
BRANCH 17 19
ATOM     19  CA  VAL X1005      15.592  41.511  25.432  1.00 93.73 LIG 0.18  C 
BRANCH 19 20
ATOM     20  C   VAL X1005      15.912  42.085  24.046  1.00 93.48 LIG 0.24  C 
ATOM     21  N   ALA X1006      14.992  41.902  23.100  1.00 93.27 LIG-0.35  N 
ATOM     22 H    ALA X1006      14.253  41.483  23.235  1.00 93.27 LIG 0.16  HD
ATOM     23 O    VAL X1005      16.972  42.666  23.841  1.00 93.20 LIG-0.27  OA
BRANCH 21 24
ATOM     24  CA  ALA X1006      15.148  42.398  21.734  1.00 93.01 LIG 0.16  C 
ATOM     25  CB  ALA X1006      16.116  41.537  20.978  1.00 92.79 LIG 0.04  C 
BRANCH 24 26
ATOM     26  C   ALA X1006      13.810  42.441  21.013  1.00 92.71 LIG 0.22  C 
ATOM     27 O    ALA X1006      12.796  42.845  21.574  1.00 91.80 LIG-0.29  OA
ENDBRANCH 24 26
ENDBRANCH 21 24
ENDBRANCH 19 20
BRANCH 19 28
ATOM     28  CB  VAL X1005      15.032  42.601  26.394  1.00 93.65 LIG 0.01  C 
ATOM     29  CG2 VAL X1005      14.373  43.693  25.585  1.00 92.72 LIG 0.01  C 
ATOM     30  CG1 VAL X1005      16.097  43.151  27.330  1.00 92.97 LIG 0.01  C 
ENDBRANCH 19 28
ENDBRANCH 17 19
ENDBRANCH 11 15
ENDBRANCH 9 11
ENDBRANCH 5 7
ENDBRANCH 3 5
BRANCH 1 31
ATOM     31  CA  PRO X1002      13.297  36.688  26.241  1.00 99.31 LIG 0.18  C 
ATOM     32  N   PRO X1002      13.068  35.633  27.233  1.00 99.88 LIG-0.34  N 
ATOM     33  CD  PRO X1002      11.856  35.899  28.013  1.00 99.70 LIG 0.13  C 
ATOM     34  C   ASN X1001      13.902  34.580  27.264  1.00100.64 LIG 0.24  C 
ATOM     35  CG  PRO X1002      11.012  36.581  27.020  1.00 99.65 LIG 0.02  C 
ATOM     36  CB  PRO X1002      11.956  37.427  26.214  1.00 99.37 LIG 0.04  C 
ATOM     37 O    ASN X1001      14.828  34.469  26.470  1.00100.22 LIG-0.27  OA
BRANCH 34 38
ATOM     38  CA  ASN X1001      13.599  33.442  28.263  1.00101.23 LIG 0.18  C 
BRANCH 38 39
ATOM     39  N   ASN X1001      12.465  32.686  27.712  1.00101.62 LIG-0.34  N 
ATOM     40  C   SER X1000      11.365  32.493  28.443  1.00101.89 LIG 0.26  C 
ATOM     41 O    SER X1000      11.371  32.540  29.681  1.00101.60 LIG-0.27  OA
ATOM     42 H    ASN X1001      12.576  32.394  26.910  1.00101.62 LIG 0.16  HD
BRANCH 40 43
ATOM     43  CA  SER X1000      10.061  32.194  27.689  1.00101.91 LIG 0.42  C 
ATOM     44  N   SER X1000       9.350  31.015  28.252  1.00101.55 LIG 0.62  N 
BRANCH 43 45
ATOM     45  CB  SER X1000       9.138  33.410  27.663  1.00101.96 LIG 0.21  C 
BRANCH 45 46
ATOM     46 OG   SER X1000       9.216  34.114  26.435  1.00101.15 LIG-0.40  OA
ATOM     47 HG   SER X1000       9.375  33.575  25.812  1.00101.15 LIG 0.21  HD
ENDBRANCH 45 46
ENDBRANCH 43 45
ENDBRANCH 40 43
ENDBRANCH 38 39
BRANCH 38 48
ATOM     48  CB  ASN X1001      14.794  32.526  28.628  1.00101.08 LIG 0.14  C 
BRANCH 48 49
ATOM     49  CG  ASN X1001      14.479  31.456  29.682  1.00100.04 LIG 0.22  C 
ATOM     50  ND2 ASN X1001      14.048  30.283  29.252  1.00 98.76 LIG-0.37  N 
ATOM     51 21HD ASN X1001      13.900  29.648  29.812  1.00 98.76 LIG 0.16  HD
ATOM     52 22HD ASN X1001      13.917  30.155  28.411  1.00 98.76 LIG 0.16  HD
ATOM     53 OD1  ASN X1001      14.680  31.681  30.867  1.00 97.91 LIG-0.27  OA
ENDBRANCH 48 49
ENDBRANCH 38 48
ENDBRANCH 34 38
ENDBRANCH 1 31
TORSDOF 19
ENDMDL
MODEL 43
USER: ADFR SOLUTION from run 167
USER: SCORE 11.532300 LL:  -3.316 LR: -11.507 RR:   0.000 FEB:  -5.840
USER: RMSD 3.041390
USER: SEED 166
USER: STATUS no improvement in best in 15 clusters for 5 generations
USER: GENES 21
USER: genes 0 Translation |==|  0.45146 0.48582 0.53301
USER: genes 1 Rotation |==|  0.46828 0.48709 0.50794 0.99876
USER: genes 2 Torsion [C]-N--CA-[CB] |==|  0.34926
USER: genes 3 Torsion [N]-CA--C-[N] |==|  0.47966
USER: genes 4 Torsion [C]-N--CA-[C] |==|  0.75001
USER: genes 5 Torsion [N]-CA--CB-[SG] |==|  0.20537
USER: genes 6 Torsion [CA]-CB--SG-[HG] |==|  0.87586
USER: genes 7 Torsion [N]-CA--C-[N] |==|  0.37950
USER: genes 8 Torsion [C]-N--CA-[CB] |==|  0.39842
USER: genes 9 Torsion [N]-CA--C-[N] |==|  0.85158
USER: genes 10 Torsion [C]-N--CA-[CB] |==|  0.83485
USER: genes 11 Torsion [N]-CA--C-[O] |==|  0.18827
USER: genes 12 Torsion [N]-CA--CB-[CG2] |==|  0.89480
USER: genes 13 Torsion [O]-C--CA-[N] |==|  0.04917
USER: genes 14 Torsion [N]-C--CA-[N] |==|  0.28349
USER: genes 15 Torsion [C]-CA--N-[C] |==|  0.73463
USER: genes 16 Torsion [N]-C--CA-[N] |==|  0.24200
USER: genes 17 Torsion [C]-CA--CB-[OG] |==|  0.84422
USER: genes 18 Torsion [CA]-CB--OG-[HG] |==|  0.16232
USER: genes 19 Torsion [C]-CA--CB-[CG] |==|  0.84584
USER: genes 20 Torsion [CA]-CB--CG-[ND2] |==|  0.25781
ROOT
ATOM      1  C   PRO X1002      14.964  37.421  27.179  1.00 98.27 LIG 0.24  C 
ATOM      2 O    PRO X1002      14.402  37.968  26.239  1.00 97.40 LIG-0.27  OA
ATOM      3  N   ALA X1003      16.100  37.864  27.709  1.00 97.43 LIG-0.35  N 
ATOM      4 H    ALA X1003      16.388  37.627  28.484  1.00 97.43 LIG 0.16  HD
ENDROOT
BRANCH 3 5
ATOM      5  CA  ALA X1003      16.976  38.809  27.011  1.00 96.73 LIG 0.17  C 
ATOM      6  CB  ALA X1003      17.248  40.016  27.879  1.00 96.74 LIG 0.04  C 
BRANCH 5 7
ATOM      7  C   ALA X1003      18.259  38.030  26.722  1.00 95.66 LIG 0.24  C 
ATOM      8 O    ALA X1003      18.399  36.916  27.203  1.00 95.14 LIG-0.27  OA
ATOM      9  N   CYS X1004      19.214  38.558  25.965  1.00 94.40 LIG-0.34  N 
ATOM     10 H    CYS X1004      19.841  38.069  25.636  1.00 94.40 LIG 0.16  HD
BRANCH 9 11
ATOM     11  CA  CYS X1004      19.364  39.963  25.582  1.00 94.17 LIG 0.18  C 
BRANCH 11 12
ATOM     12  CB  CYS X1004      20.876  40.236  25.416  1.00 94.12 LIG 0.10  C 
BRANCH 12 13
ATOM     13 SG   CYS X1004      21.708  39.595  23.988  1.00 91.26 LIG-0.18  SA
ATOM     14 HG   CYS X1004      21.371  38.458  23.804  1.00 91.26 LIG 0.10  HD
ENDBRANCH 12 13
ENDBRANCH 11 12
BRANCH 11 15
ATOM     15  C   CYS X1004      18.634  40.299  24.268  1.00 93.84 LIG 0.24  C 
ATOM     16 O    CYS X1004      18.729  39.576  23.288  1.00 93.01 LIG-0.27  OA
ATOM     17  N   VAL X1005      17.949  41.432  24.248  1.00 93.78 LIG-0.35  N 
ATOM     18 H    VAL X1005      17.982  42.016  24.878  1.00 93.78 LIG 0.16  HD
BRANCH 17 19
ATOM     19  CA  VAL X1005      17.061  41.802  23.142  1.00 93.73 LIG 0.18  C 
BRANCH 19 20
ATOM     20  C   VAL X1005      17.779  42.633  22.071  1.00 93.48 LIG 0.24  C 
ATOM     21  N   ALA X1006      18.419  43.722  22.493  1.00 93.27 LIG-0.35  N 
ATOM     22 H    ALA X1006      18.437  43.969  23.316  1.00 93.27 LIG 0.16  HD
ATOM     23 O    VAL X1005      17.742  42.296  20.892  1.00 93.20 LIG-0.27  OA
BRANCH 21 24
ATOM     24  CA  ALA X1006      19.158  44.607  21.595  1.00 93.01 LIG 0.16  C 
ATOM     25  CB  ALA X1006      20.247  43.846  20.898  1.00 92.79 LIG 0.04  C 
BRANCH 24 26
ATOM     26  C   ALA X1006      18.230  45.246  20.574  1.00 92.71 LIG 0.22  C 
ATOM     27 O    ALA X1006      17.378  46.064  20.910  1.00 91.80 LIG-0.29  OA
ENDBRANCH 24 26
ENDBRANCH 21 24
ENDBRANCH 19 20
BRANCH 19 28
ATOM     28  CB  VAL X1005      15.815  42.544  23.711  1.00 93.65 LIG 0.01  C 
ATOM     29  CG2 VAL X1005      15.404  41.904  25.017  1.00 92.72 LIG 0.01  C 
ATOM     30  CG1 VAL X1005      14.665  42.594  22.717  1.00 92.97 LIG 0.01  C 
ENDBRANCH 19 28
ENDBRANCH 17 19
ENDBRANCH 11 15
ENDBRANCH 9 11
ENDBRANCH 5 7
ENDBRANCH 3 5
BRANCH 1 31
ATOM     31  CA  PRO X1002      14.342  36.196  27.855  1.00 99.31 LIG 0.18  C 
ATOM     32  N   PRO X1002      13.305  35.505  27.084  1.00 99.88 LIG-0.34  N 
ATOM     33  CD  PRO X1002      13.810  34.243  26.535  1.00 99.70 LIG 0.13  C 
ATOM     34  C   ASN X1001      12.073  36.039  27.030  1.00100.64 LIG 0.24  C 
ATOM     35  CG  PRO X1002      14.766  33.833  27.574  1.00 99.65 LIG 0.02  C 
ATOM     36  CB  PRO X1002      15.404  35.108  28.050  1.00 99.37 LIG 0.04  C 
ATOM     37 O    ASN X1001      11.792  37.070  27.630  1.00100.22 LIG-0.27  OA
BRANCH 34 38
ATOM     38  CA  ASN X1001      10.974  35.257  26.279  1.00101.23 LIG 0.18  C 
BRANCH 38 39
ATOM     39  N   ASN X1001      10.146  34.602  27.302  1.00101.62 LIG-0.34  N 
ATOM     40  C   SER X1000      10.385  33.336  27.653  1.00101.89 LIG 0.26  C 
ATOM     41 O    SER X1000      10.974  32.539  26.910  1.00101.60 LIG-0.27  OA
ATOM     42 H    ASN X1001       9.522  35.092  27.635  1.00101.62 LIG 0.16  HD
BRANCH 40 43
ATOM     43  CA  SER X1000       9.889  32.883  29.034  1.00101.91 LIG 0.42  C 
ATOM     44  N   SER X1000       8.483  32.401  28.990  1.00101.55 LIG 0.62  N 
BRANCH 43 45
ATOM     45  CB  SER X1000      10.800  31.813  29.632  1.00101.96 LIG 0.21  C 
BRANCH 45 46
ATOM     46 OG   SER X1000      10.942  30.692  28.775  1.00101.15 LIG-0.40  OA
ATOM     47 HG   SER X1000      11.254  30.942  28.037  1.00101.15 LIG 0.21  HD
ENDBRANCH 45 46
ENDBRANCH 43 45
ENDBRANCH 40 43
ENDBRANCH 38 39
BRANCH 38 48
ATOM     48  CB  ASN X1001      10.127  36.078  25.274  1.00101.08 LIG 0.14  C 
BRANCH 48 49
ATOM     49  CG  ASN X1001       9.444  37.313  25.875  1.00100.04 LIG 0.22  C 
ATOM     50  ND2 ASN X1001      10.088  38.464  25.800  1.00 98.76 LIG-0.37  N 
ATOM     51 21HD ASN X1001       9.718  39.183  26.091  1.00 98.76 LIG 0.16  HD
ATOM     52 22HD ASN X1001      10.877  38.494  25.460  1.00 98.76 LIG 0.16  HD
ATOM     53 OD1  ASN X1001       8.321  37.225  26.351  1.00 97.91 LIG-0.27  OA
ENDBRANCH 48 49
ENDBRANCH 38 48
ENDBRANCH 34 38
ENDBRANCH 1 31
TORSDOF 19
ENDMDL
MODEL 44
USER: ADFR SOLUTION from run 94
USER: SCORE 13.417675 LL:  -4.114 LR: -11.496 RR:   0.000 FEB:  -5.828
USER: RMSD 9.104678
USER: SEED 93
USER: STATUS no improvement in best in 3 clusters for 5 generations
USER: GENES 21
USER: genes 0 Translation |==|  0.53173 0.76996 0.54179
USER: genes 1 Rotation |==|  0.89338 0.32729 0.26483 0.60061
USER: genes 2 Torsion [C]-N--CA-[CB] |==|  0.16785
USER: genes 3 Torsion [N]-CA--C-[N] |==|  0.15718
USER: genes 4 Torsion [C]-N--CA-[C] |==|  0.61270
USER: genes 5 Torsion [N]-CA--CB-[SG] |==|  0.94862
USER: genes 6 Torsion [CA]-CB--SG-[HG] |==|  0.43084
USER: genes 7 Torsion [N]-CA--C-[N] |==|  0.04616
USER: genes 8 Torsion [C]-N--CA-[CB] |==|  0.45956
USER: genes 9 Torsion [N]-CA--C-[N] |==|  0.93873
USER: genes 10 Torsion [C]-N--CA-[CB] |==|  0.46691
USER: genes 11 Torsion [N]-CA--C-[O] |==|  0.15541
USER: genes 12 Torsion [N]-CA--CB-[CG2] |==|  0.58033
USER: genes 13 Torsion [O]-C--CA-[N] |==|  0.78263
USER: genes 14 Torsion [N]-C--CA-[N] |==|  0.34770
USER: genes 15 Torsion [C]-CA--N-[C] |==|  0.77779
USER: genes 16 Torsion [N]-C--CA-[N] |==|  0.85877
USER: genes 17 Torsion [C]-CA--CB-[OG] |==|  0.92260
USER: genes 18 Torsion [CA]-CB--OG-[HG] |==|  0.84631
USER: genes 19 Torsion [C]-CA--CB-[CG] |==|  0.17892
USER: genes 20 Torsion [CA]-CB--CG-[ND2] |==|  0.23500
ROOT
ATOM      1  C   PRO X1002      16.891  43.175  27.350  1.00 98.27 LIG 0.24  C 
ATOM      2 O    PRO X1002      17.194  43.137  28.535  1.00 97.40 LIG-0.27  OA
ATOM      3  N   ALA X1003      16.688  42.086  26.613  1.00 97.43 LIG-0.35  N 
ATOM      4 H    ALA X1003      16.275  42.092  25.859  1.00 97.43 LIG 0.16  HD
ENDROOT
BRANCH 3 5
ATOM      5  CA  ALA X1003      17.156  40.761  27.026  1.00 96.73 LIG 0.17  C 
ATOM      6  CB  ALA X1003      16.526  40.364  28.341  1.00 96.74 LIG 0.04  C 
BRANCH 5 7
ATOM      7  C   ALA X1003      16.736  39.817  25.899  1.00 95.66 LIG 0.24  C 
ATOM      8 O    ALA X1003      16.042  38.848  26.165  1.00 95.14 LIG-0.27  OA
ATOM      9  N   CYS X1004      17.126  40.040  24.650  1.00 94.40 LIG-0.34  N 
ATOM     10 H    CYS X1004      16.745  39.642  23.988  1.00 94.40 LIG 0.16  HD
BRANCH 9 11
ATOM     11  CA  CYS X1004      18.194  40.935  24.202  1.00 94.17 LIG 0.18  C 
BRANCH 11 12
ATOM     12  CB  CYS X1004      19.439  40.063  23.922  1.00 94.12 LIG 0.10  C 
BRANCH 12 13
ATOM     13 SG   CYS X1004      19.517  38.436  24.621  1.00 91.26 LIG-0.18  SA
ATOM     14 HG   CYS X1004      20.241  37.748  23.956  1.00 91.26 LIG 0.10  HD
ENDBRANCH 12 13
ENDBRANCH 11 12
BRANCH 11 15
ATOM     15  C   CYS X1004      17.817  41.717  22.929  1.00 93.84 LIG 0.24  C 
ATOM     16 O    CYS X1004      18.663  42.308  22.276  1.00 93.01 LIG-0.27  OA
ATOM     17  N   VAL X1005      16.530  41.752  22.619  1.00 93.78 LIG-0.35  N 
ATOM     18 H    VAL X1005      15.910  41.458  23.137  1.00 93.78 LIG 0.16  HD
BRANCH 17 19
ATOM     19  CA  VAL X1005      16.035  42.298  21.352  1.00 93.73 LIG 0.18  C 
BRANCH 19 20
ATOM     20  C   VAL X1005      16.194  43.822  21.273  1.00 93.48 LIG 0.24  C 
ATOM     21  N   ALA X1006      16.300  44.469  22.432  1.00 93.27 LIG-0.35  N 
ATOM     22 H    ALA X1006      16.277  44.076  23.196  1.00 93.27 LIG 0.16  HD
ATOM     23 O    VAL X1005      16.208  44.392  20.187  1.00 93.20 LIG-0.27  OA
BRANCH 21 24
ATOM     24  CA  ALA X1006      16.467  45.919  22.520  1.00 93.01 LIG 0.16  C 
ATOM     25  CB  ALA X1006      16.266  46.379  23.933  1.00 92.79 LIG 0.04  C 
BRANCH 24 26
ATOM     26  C   ALA X1006      17.840  46.341  22.021  1.00 92.71 LIG 0.22  C 
ATOM     27 O    ALA X1006      18.230  46.042  20.896  1.00 91.80 LIG-0.29  OA
ENDBRANCH 24 26
ENDBRANCH 21 24
ENDBRANCH 19 20
BRANCH 19 28
ATOM     28  CB  VAL X1005      14.555  41.859  21.148  1.00 93.65 LIG 0.01  C 
ATOM     29  CG2 VAL X1005      14.259  41.765  19.670  1.00 92.72 LIG 0.01  C 
ATOM     30  CG1 VAL X1005      13.574  42.772  21.866  1.00 92.97 LIG 0.01  C 
ENDBRANCH 19 28
ENDBRANCH 17 19
ENDBRANCH 11 15
ENDBRANCH 9 11
ENDBRANCH 5 7
ENDBRANCH 3 5
BRANCH 1 31
ATOM     31  CA  PRO X1002      16.661  44.514  26.644  1.00 99.31 LIG 0.18  C 
ATOM     32  N   PRO X1002      15.368  45.152  26.900  1.00 99.88 LIG-0.34  N 
ATOM     33  CD  PRO X1002      15.517  46.297  27.804  1.00 99.70 LIG 0.13  C 
ATOM     34  C   ASN X1001      14.278  44.689  26.267  1.00100.64 LIG 0.24  C 
ATOM     35  CG  PRO X1002      16.853  46.788  27.438  1.00 99.65 LIG 0.02  C 
ATOM     36  CB  PRO X1002      17.663  45.555  27.154  1.00 99.37 LIG 0.04  C 
ATOM     37 O    ASN X1001      14.345  43.766  25.463  1.00100.22 LIG-0.27  OA
BRANCH 34 38
ATOM     38  CA  ASN X1001      12.939  45.423  26.490  1.00101.23 LIG 0.18  C 
BRANCH 38 39
ATOM     39  N   ASN X1001      12.429  45.789  25.161  1.00101.62 LIG-0.34  N 
ATOM     40  C   SER X1000      12.909  46.861  24.527  1.00101.89 LIG 0.26  C 
ATOM     41 O    SER X1000      13.448  47.803  25.125  1.00101.60 LIG-0.27  OA
ATOM     42 H    ASN X1001      11.820  45.268  24.848  1.00101.62 LIG 0.16  HD
BRANCH 40 43
ATOM     43  CA  SER X1000      12.765  46.899  22.999  1.00101.91 LIG 0.42  C 
ATOM     44  N   SER X1000      13.265  45.653  22.360  1.00101.55 LIG 0.62  N 
BRANCH 43 45
ATOM     45  CB  SER X1000      11.321  47.169  22.580  1.00101.96 LIG 0.21  C 
BRANCH 45 46
ATOM     46 OG   SER X1000      10.389  46.709  23.544  1.00101.15 LIG-0.40  OA
ATOM     47 HG   SER X1000      10.523  45.894  23.696  1.00101.15 LIG 0.21  HD
ENDBRANCH 45 46
ENDBRANCH 43 45
ENDBRANCH 40 43
ENDBRANCH 38 39
BRANCH 38 48
ATOM     48  CB  ASN X1001      11.884  44.665  27.336  1.00101.08 LIG 0.14  C 
BRANCH 48 49
ATOM     49  CG  ASN X1001      12.294  44.415  28.793  1.00100.04 LIG 0.22  C 
ATOM     50  ND2 ASN X1001      12.072  45.382  29.665  1.00 98.76 LIG-0.37  N 
ATOM     51 21HD ASN X1001      12.253  45.260  30.497  1.00 98.76 LIG 0.16  HD
ATOM     52 22HD ASN X1001      11.746  46.133  29.401  1.00 98.76 LIG 0.16  HD
ATOM     53 OD1  ASN X1001      12.756  43.332  29.125  1.00 97.91 LIG-0.27  OA
ENDBRANCH 48 49
ENDBRANCH 38 48
ENDBRANCH 34 38
ENDBRANCH 1 31
TORSDOF 19
ENDMDL
MODEL 45
USER: ADFR SOLUTION from run 92
USER: SCORE 14.341588 LL:  -3.679 LR: -11.493 RR:   0.000 FEB:  -5.825
USER: RMSD 9.408391
USER: SEED 91
USER: STATUS searching
USER: GENES 21
USER: genes 0 Translation |==|  0.65510 0.54158 0.41158
USER: genes 1 Rotation |==|  0.45409 0.48804 0.77998 0.91154
USER: genes 2 Torsion [C]-N--CA-[CB] |==|  0.79172
USER: genes 3 Torsion [N]-CA--C-[N] |==|  0.17123
USER: genes 4 Torsion [C]-N--CA-[C] |==|  0.64005
USER: genes 5 Torsion [N]-CA--CB-[SG] |==|  0.98079
USER: genes 6 Torsion [CA]-CB--SG-[HG] |==|  0.12455
USER: genes 7 Torsion [N]-CA--C-[N] |==|  0.06667
USER: genes 8 Torsion [C]-N--CA-[CB] |==|  0.82797
USER: genes 9 Torsion [N]-CA--C-[N] |==|  0.36317
USER: genes 10 Torsion [C]-N--CA-[CB] |==|  0.78249
USER: genes 11 Torsion [N]-CA--C-[O] |==|  0.75181
USER: genes 12 Torsion [N]-CA--CB-[CG2] |==|  0.64618
USER: genes 13 Torsion [O]-C--CA-[N] |==|  0.44365
USER: genes 14 Torsion [N]-C--CA-[N] |==|  0.30156
USER: genes 15 Torsion [C]-CA--N-[C] |==|  0.78071
USER: genes 16 Torsion [N]-C--CA-[N] |==|  0.52132
USER: genes 17 Torsion [C]-CA--CB-[OG] |==|  0.35329
USER: genes 18 Torsion [CA]-CB--OG-[HG] |==|  0.44146
USER: genes 19 Torsion [C]-CA--CB-[CG] |==|  0.05643
USER: genes 20 Torsion [CA]-CB--CG-[ND2] |==|  0.68682
ROOT
ATOM      1  C   PRO X1002      19.851  38.550  24.811  1.00 98.27 LIG 0.24  C 
ATOM      2 O    PRO X1002      19.129  38.143  23.910  1.00 97.40 LIG-0.27  OA
ATOM      3  N   ALA X1003      19.903  39.825  25.186  1.00 97.43 LIG-0.35  N 
ATOM      4 H    ALA X1003      20.231  40.087  25.937  1.00 97.43 LIG 0.16  HD
ENDROOT
BRANCH 3 5
ATOM      5  CA  ALA X1003      19.398  40.912  24.345  1.00 96.73 LIG 0.17  C 
ATOM      6  CB  ALA X1003      20.350  41.182  23.203  1.00 96.74 LIG 0.04  C 
BRANCH 5 7
ATOM      7  C   ALA X1003      18.040  40.428  23.835  1.00 95.66 LIG 0.24  C 
ATOM      8 O    ALA X1003      17.869  40.297  22.633  1.00 95.14 LIG-0.27  OA
ATOM      9  N   CYS X1004      17.054  40.162  24.685  1.00 94.40 LIG-0.34  N 
ATOM     10 H    CYS X1004      16.365  39.710  24.437  1.00 94.40 LIG 0.16  HD
BRANCH 9 11
ATOM     11  CA  CYS X1004      16.967  40.559  26.091  1.00 94.17 LIG 0.18  C 
BRANCH 11 12
ATOM     12  CB  CYS X1004      15.858  41.630  26.200  1.00 94.12 LIG 0.10  C 
BRANCH 12 13
ATOM     13 SG   CYS X1004      15.122  42.252  24.712  1.00 91.26 LIG-0.18  SA
ATOM     14 HG   CYS X1004      14.878  41.338  23.973  1.00 91.26 LIG 0.10  HD
ENDBRANCH 12 13
ENDBRANCH 11 12
BRANCH 11 15
ATOM     15  C   CYS X1004      16.632  39.376  27.020  1.00 93.84 LIG 0.24  C 
ATOM     16 O    CYS X1004      16.147  39.559  28.126  1.00 93.01 LIG-0.27  OA
ATOM     17  N   VAL X1005      16.947  38.170  26.575  1.00 93.78 LIG-0.35  N 
ATOM     18 H    VAL X1005      17.409  38.034  25.863  1.00 93.78 LIG 0.16  HD
BRANCH 17 19
ATOM     19  CA  VAL X1005      16.532  36.940  27.257  1.00 93.73 LIG 0.18  C 
BRANCH 19 20
ATOM     20  C   VAL X1005      15.007  36.782  27.297  1.00 93.48 LIG 0.24  C 
ATOM     21  N   ALA X1006      14.521  35.604  26.910  1.00 93.27 LIG-0.35  N 
ATOM     22 H    ALA X1006      15.016  34.954  26.642  1.00 93.27 LIG 0.16  HD
ATOM     23 O    VAL X1005      14.294  37.711  27.660  1.00 93.20 LIG-0.27  OA
BRANCH 21 24
ATOM     24  CA  ALA X1006      13.091  35.299  26.903  1.00 93.01 LIG 0.16  C 
ATOM     25  CB  ALA X1006      12.622  34.989  28.294  1.00 92.79 LIG 0.04  C 
BRANCH 24 26
ATOM     26  C   ALA X1006      12.289  36.454  26.325  1.00 92.71 LIG 0.22  C 
ATOM     27 O    ALA X1006      11.870  37.360  27.040  1.00 91.80 LIG-0.29  OA
ENDBRANCH 24 26
ENDBRANCH 21 24
ENDBRANCH 19 20
BRANCH 19 28
ATOM     28  CB  VAL X1005      17.156  36.910  28.684  1.00 93.65 LIG 0.01  C 
ATOM     29  CG2 VAL X1005      17.888  35.604  28.883  1.00 92.72 LIG 0.01  C 
ATOM     30  CG1 VAL X1005      16.124  37.155  29.773  1.00 92.97 LIG 0.01  C 
ENDBRANCH 19 28
ENDBRANCH 17 19
ENDBRANCH 11 15
ENDBRANCH 9 11
ENDBRANCH 5 7
ENDBRANCH 3 5
BRANCH 1 31
ATOM     31  CA  PRO X1002      20.716  37.578  25.618  1.00 99.31 LIG 0.18  C 
ATOM     32  N   PRO X1002      21.851  38.177  26.325  1.00 99.88 LIG-0.34  N 
ATOM     33  CD  PRO X1002      21.591  38.256  27.766  1.00 99.70 LIG 0.13  C 
ATOM     34  C   ASN X1001      22.953  38.500  25.628  1.00100.64 LIG 0.24  C 
ATOM     35  CG  PRO X1002      20.757  37.064  27.979  1.00 99.65 LIG 0.02  C 
ATOM     36  CB  PRO X1002      19.893  36.962  26.754  1.00 99.37 LIG 0.04  C 
ATOM     37 O    ASN X1001      23.040  38.281  24.425  1.00100.22 LIG-0.27  OA
BRANCH 34 38
ATOM     38  CA  ASN X1001      24.167  39.057  26.403  1.00101.23 LIG 0.18  C 
BRANCH 38 39
ATOM     39  N   ASN X1001      25.194  38.006  26.394  1.00101.62 LIG-0.34  N 
ATOM     40  C   SER X1000      25.108  36.973  27.236  1.00101.89 LIG 0.26  C 
ATOM     41 O    SER X1000      24.468  37.029  28.295  1.00101.60 LIG-0.27  OA
ATOM     42 H    ASN X1001      25.825  38.117  25.820  1.00101.62 LIG 0.16  HD
BRANCH 40 43
ATOM     43  CA  SER X1000      25.850  35.686  26.849  1.00101.91 LIG 0.42  C 
ATOM     44  N   SER X1000      25.529  34.561  27.767  1.00101.55 LIG 0.62  N 
BRANCH 43 45
ATOM     45  CB  SER X1000      25.565  35.288  25.402  1.00101.96 LIG 0.21  C 
BRANCH 45 46
ATOM     46 OG   SER X1000      26.755  35.083  24.660  1.00101.15 LIG-0.40  OA
ATOM     47 HG   SER X1000      26.589  34.604  23.991  1.00101.15 LIG 0.21  HD
ENDBRANCH 45 46
ENDBRANCH 43 45
ENDBRANCH 40 43
ENDBRANCH 38 39
BRANCH 38 48
ATOM     48  CB  ASN X1001      24.717  40.420  25.909  1.00101.08 LIG 0.14  C 
BRANCH 48 49
ATOM     49  CG  ASN X1001      23.725  41.244  25.077  1.00100.04 LIG 0.22  C 
ATOM     50  ND2 ASN X1001      24.004  41.426  23.799  1.00 98.76 LIG-0.37  N 
ATOM     51 21HD ASN X1001      23.451  41.849  23.294  1.00 98.76 LIG 0.16  HD
ATOM     52 22HD ASN X1001      24.739  41.121  23.471  1.00 98.76 LIG 0.16  HD
ATOM     53 OD1  ASN X1001      22.693  41.660  25.584  1.00 97.91 LIG-0.27  OA
ENDBRANCH 48 49
ENDBRANCH 38 48
ENDBRANCH 34 38
ENDBRANCH 1 31
TORSDOF 19
ENDMDL
MODEL 46
USER: ADFR SOLUTION from run 13
USER: SCORE 12.592700 LL:  -3.623 LR: -11.485 RR:   0.000 FEB:  -5.817
USER: RMSD 3.931676
USER: SEED 891653
USER: STATUS no improvement in best in 4 clusters for 5 generations
USER: GENES 21
USER: genes 0 Translation |==|  0.40709 0.50073 0.48307
USER: genes 1 Rotation |==|  0.55063 0.39765 0.43362 0.98224
USER: genes 2 Torsion [C]-N--CA-[CB] |==|  0.34289
USER: genes 3 Torsion [N]-CA--C-[N] |==|  0.43193
USER: genes 4 Torsion [C]-N--CA-[C] |==|  0.78054
USER: genes 5 Torsion [N]-CA--CB-[SG] |==|  0.08127
USER: genes 6 Torsion [CA]-CB--SG-[HG] |==|  0.31344
USER: genes 7 Torsion [N]-CA--C-[N] |==|  0.48163
USER: genes 8 Torsion [C]-N--CA-[CB] |==|  0.82641
USER: genes 9 Torsion [N]-CA--C-[N] |==|  0.47288
USER: genes 10 Torsion [C]-N--CA-[CB] |==|  0.33874
USER: genes 11 Torsion [N]-CA--C-[O] |==|  0.52799
USER: genes 12 Torsion [N]-CA--CB-[CG2] |==|  0.67418
USER: genes 13 Torsion [O]-C--CA-[N] |==|  0.53002
USER: genes 14 Torsion [N]-C--CA-[N] |==|  0.23396
USER: genes 15 Torsion [C]-CA--N-[C] |==|  0.72782
USER: genes 16 Torsion [N]-C--CA-[N] |==|  0.23941
USER: genes 17 Torsion [C]-CA--CB-[OG] |==|  0.53058
USER: genes 18 Torsion [CA]-CB--OG-[HG] |==|  0.73583
USER: genes 19 Torsion [C]-CA--CB-[CG] |==|  0.79070
USER: genes 20 Torsion [CA]-CB--CG-[ND2] |==|  0.18823
ROOT
ATOM      1  C   PRO X1002      13.899  37.723  26.205  1.00 98.27 LIG 0.24  C 
ATOM      2 O    PRO X1002      13.877  38.655  25.413  1.00 97.40 LIG-0.27  OA
ATOM      3  N   ALA X1003      14.789  37.621  27.188  1.00 97.43 LIG-0.35  N 
ATOM      4 H    ALA X1003      14.690  37.101  27.867  1.00 97.43 LIG 0.16  HD
ENDROOT
BRANCH 3 5
ATOM      5  CA  ALA X1003      16.033  38.393  27.204  1.00 96.73 LIG 0.17  C 
ATOM      6  CB  ALA X1003      16.132  39.208  28.473  1.00 96.74 LIG 0.04  C 
BRANCH 5 7
ATOM      7  C   ALA X1003      17.152  37.355  27.121  1.00 95.66 LIG 0.24  C 
ATOM      8 O    ALA X1003      16.938  36.218  27.511  1.00 95.14 LIG-0.27  OA
ATOM      9  N   CYS X1004      18.344  37.684  26.638  1.00 94.40 LIG-0.34  N 
ATOM     10 H    CYS X1004      18.911  37.080  26.404  1.00 94.40 LIG 0.16  HD
BRANCH 9 11
ATOM     11  CA  CYS X1004      18.874  39.033  26.432  1.00 94.17 LIG 0.18  C 
BRANCH 11 12
ATOM     12  CB  CYS X1004      20.412  38.915  26.339  1.00 94.12 LIG 0.10  C 
BRANCH 12 13
ATOM     13 SG   CYS X1004      21.117  37.415  25.710  1.00 91.26 LIG-0.18  SA
ATOM     14 HG   CYS X1004      21.651  37.633  24.658  1.00 91.26 LIG 0.10  HD
ENDBRANCH 12 13
ENDBRANCH 11 12
BRANCH 11 15
ATOM     15  C   CYS X1004      18.331  39.693  25.150  1.00 93.84 LIG 0.24  C 
ATOM     16 O    CYS X1004      17.679  39.055  24.337  1.00 93.01 LIG-0.27  OA
ATOM     17  N   VAL X1005      18.653  40.963  24.959  1.00 93.78 LIG-0.35  N 
ATOM     18 H    VAL X1005      19.219  41.386  25.449  1.00 93.78 LIG 0.16  HD
BRANCH 17 19
ATOM     19  CA  VAL X1005      18.070  41.777  23.888  1.00 93.73 LIG 0.18  C 
BRANCH 19 20
ATOM     20  C   VAL X1005      16.551  41.932  24.035  1.00 93.48 LIG 0.24  C 
ATOM     21  N   ALA X1006      15.963  42.814  23.229  1.00 93.27 LIG-0.35  N 
ATOM     22 H    ALA X1006      16.392  43.287  22.654  1.00 93.27 LIG 0.16  HD
ATOM     23 O    VAL X1005      15.935  41.274  24.867  1.00 93.20 LIG-0.27  OA
BRANCH 21 24
ATOM     24  CA  ALA X1006      14.523  43.065  23.244  1.00 93.01 LIG 0.16  C 
ATOM     25  CB  ALA X1006      14.253  44.513  23.528  1.00 92.79 LIG 0.04  C 
BRANCH 24 26
ATOM     26  C   ALA X1006      13.885  42.662  21.923  1.00 92.71 LIG 0.22  C 
ATOM     27 O    ALA X1006      12.723  42.958  21.660  1.00 91.80 LIG-0.29  OA
ENDBRANCH 24 26
ENDBRANCH 21 24
ENDBRANCH 19 20
BRANCH 19 28
ATOM     28  CB  VAL X1005      18.460  41.164  22.510  1.00 93.65 LIG 0.01  C 
ATOM     29  CG2 VAL X1005      19.297  42.158  21.739  1.00 92.72 LIG 0.01  C 
ATOM     30  CG1 VAL X1005      17.247  40.706  21.715  1.00 92.97 LIG 0.01  C 
ENDBRANCH 19 28
ENDBRANCH 17 19
ENDBRANCH 11 15
ENDBRANCH 9 11
ENDBRANCH 5 7
ENDBRANCH 3 5
BRANCH 1 31
ATOM     31  CA  PRO X1002      12.837  36.621  26.144  1.00 99.31 LIG 0.18  C 
ATOM     32  N   PRO X1002      12.816  35.699  27.283  1.00 99.88 LIG-0.34  N 
ATOM     33  CD  PRO X1002      11.672  35.972  28.159  1.00 99.70 LIG 0.13  C 
ATOM     34  C   ASN X1001      13.744  34.730  27.351  1.00100.64 LIG 0.24  C 
ATOM     35  CG  PRO X1002      10.668  36.440  27.193  1.00 99.65 LIG 0.02  C 
ATOM     36  CB  PRO X1002      11.436  37.240  26.180  1.00 99.37 LIG 0.04  C 
ATOM     37 O    ASN X1001      14.588  34.586  26.474  1.00100.22 LIG-0.27  OA
BRANCH 34 38
ATOM     38  CA  ASN X1001      13.658  33.721  28.516  1.00101.23 LIG 0.18  C 
BRANCH 38 39
ATOM     39  N   ASN X1001      12.708  32.678  28.103  1.00101.62 LIG-0.34  N 
ATOM     40  C   SER X1000      11.438  32.725  28.509  1.00101.89 LIG 0.26  C 
ATOM     41 O    SER X1000      11.086  33.337  29.527  1.00101.60 LIG-0.27  OA
ATOM     42 H    ASN X1001      13.037  32.064  27.598  1.00101.62 LIG 0.16  HD
BRANCH 40 43
ATOM     43  CA  SER X1000      10.399  31.973  27.664  1.00101.91 LIG 0.42  C 
ATOM     44  N   SER X1000      10.290  30.544  28.058  1.00101.55 LIG 0.62  N 
BRANCH 43 45
ATOM     45  CB  SER X1000       9.031  32.648  27.727  1.00101.96 LIG 0.21  C 
BRANCH 45 46
ATOM     46 OG   SER X1000       8.010  31.842  27.164  1.00101.15 LIG-0.40  OA
ATOM     47 HG   SER X1000       7.891  32.060  26.362  1.00101.15 LIG 0.21  HD
ENDBRANCH 45 46
ENDBRANCH 43 45
ENDBRANCH 40 43
ENDBRANCH 38 39
BRANCH 38 48
ATOM     48  CB  ASN X1001      15.006  33.130  29.000  1.00101.08 LIG 0.14  C 
BRANCH 48 49
ATOM     49  CG  ASN X1001      15.606  32.066  28.072  1.00100.04 LIG 0.22  C 
ATOM     50  ND2 ASN X1001      16.034  32.461  26.886  1.00 98.76 LIG-0.37  N 
ATOM     51 21HD ASN X1001      16.411  31.899  26.356  1.00 98.76 LIG 0.16  HD
ATOM     52 22HD ASN X1001      15.935  33.281  26.644  1.00 98.76 LIG 0.16  HD
ATOM     53 OD1  ASN X1001      15.727  30.911  28.456  1.00 97.91 LIG-0.27  OA
ENDBRANCH 48 49
ENDBRANCH 38 48
ENDBRANCH 34 38
ENDBRANCH 1 31
TORSDOF 19
ENDMDL
MODEL 47
USER: ADFR SOLUTION from run 67
USER: SCORE 14.031525 LL:  -3.850 LR: -11.469 RR:   0.000 FEB:  -5.802
USER: RMSD 2.405747
USER: SEED 66
USER: STATUS no improvement in best in 6 clusters for 5 generations
USER: GENES 21
USER: genes 0 Translation |==|  0.53489 0.41121 0.55770
USER: genes 1 Rotation |==|  0.29248 0.12831 0.72855 0.62863
USER: genes 2 Torsion [C]-N--CA-[CB] |==|  0.52480
USER: genes 3 Torsion [N]-CA--C-[N] |==|  0.37376
USER: genes 4 Torsion [C]-N--CA-[C] |==|  0.12257
USER: genes 5 Torsion [N]-CA--CB-[SG] |==|  0.79190
USER: genes 6 Torsion [CA]-CB--SG-[HG] |==|  0.68432
USER: genes 7 Torsion [N]-CA--C-[N] |==|  0.13115
USER: genes 8 Torsion [C]-N--CA-[CB] |==|  0.51588
USER: genes 9 Torsion [N]-CA--C-[N] |==|  0.36755
USER: genes 10 Torsion [C]-N--CA-[CB] |==|  0.22225
USER: genes 11 Torsion [N]-CA--C-[O] |==|  0.10286
USER: genes 12 Torsion [N]-CA--CB-[CG2] |==|  0.85454
USER: genes 13 Torsion [O]-C--CA-[N] |==|  0.59661
USER: genes 14 Torsion [N]-C--CA-[N] |==|  0.35024
USER: genes 15 Torsion [C]-CA--N-[C] |==|  0.82884
USER: genes 16 Torsion [N]-C--CA-[N] |==|  0.38987
USER: genes 17 Torsion [C]-CA--CB-[OG] |==|  0.22402
USER: genes 18 Torsion [CA]-CB--OG-[HG] |==|  0.81680
USER: genes 19 Torsion [C]-CA--CB-[CG] |==|  0.96383
USER: genes 20 Torsion [CA]-CB--CG-[ND2] |==|  0.33026
ROOT
ATOM      1  C   PRO X1002      16.966  35.910  27.660  1.00 98.27 LIG 0.24  C 
ATOM      2 O    PRO X1002      18.167  35.958  27.427  1.00 97.40 LIG-0.27  OA
ATOM      3  N   ALA X1003      16.085  36.751  27.126  1.00 97.43 LIG-0.35  N 
ATOM      4 H    ALA X1003      15.238  36.603  27.107  1.00 97.43 LIG 0.16  HD
ENDROOT
BRANCH 3 5
ATOM      5  CA  ALA X1003      16.482  38.020  26.514  1.00 96.73 LIG 0.17  C 
ATOM      6  CB  ALA X1003      15.264  38.856  26.194  1.00 96.74 LIG 0.04  C 
BRANCH 5 7
ATOM      7  C   ALA X1003      17.371  38.707  27.551  1.00 95.66 LIG 0.24  C 
ATOM      8 O    ALA X1003      17.010  38.735  28.717  1.00 95.14 LIG-0.27  OA
ATOM      9  N   CYS X1004      18.518  39.272  27.191  1.00 94.40 LIG-0.34  N 
ATOM     10 H    CYS X1004      19.112  39.483  27.777  1.00 94.40 LIG 0.16  HD
BRANCH 9 11
ATOM     11  CA  CYS X1004      18.948  39.613  25.834  1.00 94.17 LIG 0.18  C 
BRANCH 11 12
ATOM     12  CB  CYS X1004      19.381  38.299  25.144  1.00 94.12 LIG 0.10  C 
BRANCH 12 13
ATOM     13 SG   CYS X1004      20.933  37.570  25.594  1.00 91.26 LIG-0.18  SA
ATOM     14 HG   CYS X1004      21.683  37.614  24.658  1.00 91.26 LIG 0.10  HD
ENDBRANCH 12 13
ENDBRANCH 11 12
BRANCH 11 15
ATOM     15  C   CYS X1004      17.832  40.282  25.010  1.00 93.84 LIG 0.24  C 
ATOM     16 O    CYS X1004      17.613  39.950  23.855  1.00 93.01 LIG-0.27  OA
ATOM     17  N   VAL X1005      17.167  41.262  25.603  1.00 93.78 LIG-0.35  N 
ATOM     18 H    VAL X1005      17.396  41.597  26.361  1.00 93.78 LIG 0.16  HD
BRANCH 17 19
ATOM     19  CA  VAL X1005      15.968  41.872  25.022  1.00 93.73 LIG 0.18  C 
BRANCH 19 20
ATOM     20  C   VAL X1005      16.173  42.279  23.557  1.00 93.48 LIG 0.24  C 
ATOM     21  N   ALA X1006      15.220  41.916  22.700  1.00 93.27 LIG-0.35  N 
ATOM     22 H    ALA X1006      14.522  41.471  22.932  1.00 93.27 LIG 0.16  HD
ATOM     23 O    VAL X1005      17.177  42.896  23.217  1.00 93.20 LIG-0.27  OA
BRANCH 21 24
ATOM     24  CA  ALA X1006      15.269  42.240  21.276  1.00 93.01 LIG 0.16  C 
ATOM     25  CB  ALA X1006      16.174  41.282  20.558  1.00 92.79 LIG 0.04  C 
BRANCH 24 26
ATOM     26  C   ALA X1006      13.878  42.208  20.661  1.00 92.71 LIG 0.22  C 
ATOM     27 O    ALA X1006      12.897  42.602  21.285  1.00 91.80 LIG-0.29  OA
ENDBRANCH 24 26
ENDBRANCH 21 24
ENDBRANCH 19 20
BRANCH 19 28
ATOM     28  CB  VAL X1005      15.529  43.079  25.903  1.00 93.65 LIG 0.01  C 
ATOM     29  CG2 VAL X1005      15.407  42.632  27.341  1.00 92.72 LIG 0.01  C 
ATOM     30  CG1 VAL X1005      14.249  43.729  25.401  1.00 92.97 LIG 0.01  C 
ENDBRANCH 19 28
ENDBRANCH 17 19
ENDBRANCH 11 15
ENDBRANCH 9 11
ENDBRANCH 5 7
ENDBRANCH 3 5
BRANCH 1 31
ATOM     31  CA  PRO X1002      16.388  34.812  28.557  1.00 99.31 LIG 0.18  C 
ATOM     32  N   PRO X1002      15.054  34.330  28.188  1.00 99.88 LIG-0.34  N 
ATOM     33  CD  PRO X1002      15.128  33.002  27.571  1.00 99.70 LIG 0.13  C 
ATOM     34  C   ASN X1001      13.983  35.080  28.500  1.00100.64 LIG 0.24  C 
ATOM     35  CG  PRO X1002      16.278  32.415  28.274  1.00 99.65 LIG 0.02  C 
ATOM     36  CB  PRO X1002      17.247  33.548  28.460  1.00 99.37 LIG 0.04  C 
ATOM     37 O    ASN X1001      14.095  36.139  29.106  1.00100.22 LIG-0.27  OA
BRANCH 34 38
ATOM     38  CA  ASN X1001      12.583  34.519  28.172  1.00101.23 LIG 0.18  C 
BRANCH 38 39
ATOM     39  N   ASN X1001      11.808  34.561  29.421  1.00101.62 LIG-0.34  N 
ATOM     40  C   SER X1000      12.206  33.859  30.484  1.00101.89 LIG 0.26  C 
ATOM     41 O    SER X1000      12.935  32.862  30.390  1.00101.60 LIG-0.27  OA
ATOM     42 H    ASN X1001      11.107  35.059  29.398  1.00101.62 LIG 0.16  HD
BRANCH 40 43
ATOM     43  CA  SER X1000      11.714  34.329  31.862  1.00101.91 LIG 0.42  C 
ATOM     44  N   SER X1000      11.360  33.187  32.746  1.00101.55 LIG 0.62  N 
BRANCH 43 45
ATOM     45  CB  SER X1000      12.741  35.230  32.545  1.00101.96 LIG 0.21  C 
BRANCH 45 46
ATOM     46 OG   SER X1000      12.683  36.564  32.067  1.00101.15 LIG-0.40  OA
ATOM     47 HG   SER X1000      12.916  36.582  31.260  1.00101.15 LIG 0.21  HD
ENDBRANCH 45 46
ENDBRANCH 43 45
ENDBRANCH 40 43
ENDBRANCH 38 39
BRANCH 38 48
ATOM     48  CB  ASN X1001      11.839  35.200  26.996  1.00101.08 LIG 0.14  C 
BRANCH 48 49
ATOM     49  CG  ASN X1001      12.458  36.525  26.531  1.00100.04 LIG 0.22  C 
ATOM     50  ND2 ASN X1001      12.891  36.593  25.285  1.00 98.76 LIG-0.37  N 
ATOM     51 21HD ASN X1001      13.207  37.332  24.980  1.00 98.76 LIG 0.16  HD
ATOM     52 22HD ASN X1001      12.856  35.899  24.779  1.00 98.76 LIG 0.16  HD
ATOM     53 OD1  ASN X1001      12.489  37.487  27.285  1.00 97.91 LIG-0.27  OA
ENDBRANCH 48 49
ENDBRANCH 38 48
ENDBRANCH 34 38
ENDBRANCH 1 31
TORSDOF 19
ENDMDL
MODEL 48
USER: ADFR SOLUTION from run 159
USER: SCORE 13.392505 LL:  -3.594 LR: -11.459 RR:   0.000 FEB:  -5.791
USER: RMSD 7.257075
USER: SEED 158
USER: STATUS no improvement in best in 13 clusters for 5 generations
USER: GENES 21
USER: genes 0 Translation |==|  0.53090 0.72166 0.40881
USER: genes 1 Rotation |==|  0.27074 0.66156 0.51191 0.91376
USER: genes 2 Torsion [C]-N--CA-[CB] |==|  0.55416
USER: genes 3 Torsion [N]-CA--C-[N] |==|  0.33813
USER: genes 4 Torsion [C]-N--CA-[C] |==|  0.84799
USER: genes 5 Torsion [N]-CA--CB-[SG] |==|  0.29284
USER: genes 6 Torsion [CA]-CB--SG-[HG] |==|  0.25433
USER: genes 7 Torsion [N]-CA--C-[N] |==|  0.42778
USER: genes 8 Torsion [C]-N--CA-[CB] |==|  0.88585
USER: genes 9 Torsion [N]-CA--C-[N] |==|  0.83895
USER: genes 10 Torsion [C]-N--CA-[CB] |==|  0.81440
USER: genes 11 Torsion [N]-CA--C-[O] |==|  0.18255
USER: genes 12 Torsion [N]-CA--CB-[CG2] |==|  0.78938
USER: genes 13 Torsion [O]-C--CA-[N] |==|  0.32022
USER: genes 14 Torsion [N]-C--CA-[N] |==|  0.49418
USER: genes 15 Torsion [C]-CA--N-[C] |==|  0.81281
USER: genes 16 Torsion [N]-C--CA-[N] |==|  0.42366
USER: genes 17 Torsion [C]-CA--CB-[OG] |==|  0.74260
USER: genes 18 Torsion [CA]-CB--OG-[HG] |==|  0.45246
USER: genes 19 Torsion [C]-CA--CB-[CG] |==|  0.88328
USER: genes 20 Torsion [CA]-CB--CG-[ND2] |==|  0.41802
ROOT
ATOM      1  C   PRO X1002      16.871  42.197  24.757  1.00 98.27 LIG 0.24  C 
ATOM      2 O    PRO X1002      15.752  42.096  24.272  1.00 97.40 LIG-0.27  OA
ATOM      3  N   ALA X1003      17.952  42.494  24.042  1.00 97.43 LIG-0.35  N 
ATOM      4 H    ALA X1003      18.688  42.774  24.388  1.00 97.43 LIG 0.16  HD
ENDROOT
BRANCH 3 5
ATOM      5  CA  ALA X1003      17.988  42.369  22.584  1.00 96.73 LIG 0.17  C 
ATOM      6  CB  ALA X1003      19.416  42.303  22.094  1.00 96.74 LIG 0.04  C 
BRANCH 5 7
ATOM      7  C   ALA X1003      17.233  41.077  22.272  1.00 95.66 LIG 0.24  C 
ATOM      8 O    ALA X1003      17.629  40.027  22.752  1.00 95.14 LIG-0.27  OA
ATOM      9  N   CYS X1004      16.164  41.092  21.483  1.00 94.40 LIG-0.34  N 
ATOM     10 H    CYS X1004      15.623  40.424  21.457  1.00 94.40 LIG 0.16  HD
BRANCH 9 11
ATOM     11  CA  CYS X1004      15.745  42.167  20.582  1.00 94.17 LIG 0.18  C 
BRANCH 11 12
ATOM     12  CB  CYS X1004      14.382  41.757  19.979  1.00 94.12 LIG 0.10  C 
BRANCH 12 13
ATOM     13 SG   CYS X1004      12.913  42.557  20.565  1.00 91.26 LIG-0.18  SA
ATOM     14 HG   CYS X1004      12.678  43.514  19.880  1.00 91.26 LIG 0.10  HD
ENDBRANCH 12 13
ENDBRANCH 11 12
BRANCH 11 15
ATOM     15  C   CYS X1004      15.601  43.521  21.303  1.00 93.84 LIG 0.24  C 
ATOM     16 O    CYS X1004      15.313  43.580  22.488  1.00 93.01 LIG-0.27  OA
ATOM     17  N   VAL X1005      15.754  44.604  20.556  1.00 93.78 LIG-0.35  N 
ATOM     18 H    VAL X1005      15.822  44.583  19.700  1.00 93.78 LIG 0.16  HD
BRANCH 17 19
ATOM     19  CA  VAL X1005      15.825  45.954  21.124  1.00 93.73 LIG 0.18  C 
BRANCH 19 20
ATOM     20  C   VAL X1005      17.237  46.309  21.608  1.00 93.48 LIG 0.24  C 
ATOM     21  N   ALA X1006      17.770  45.505  22.526  1.00 93.27 LIG-0.35  N 
ATOM     22 H    ALA X1006      17.361  44.822  22.850  1.00 93.27 LIG 0.16  HD
ATOM     23 O    VAL X1005      17.818  47.294  21.165  1.00 93.20 LIG-0.27  OA
BRANCH 21 24
ATOM     24  CA  ALA X1006      19.109  45.707  23.076  1.00 93.01 LIG 0.16  C 
ATOM     25  CB  ALA X1006      20.144  45.484  22.013  1.00 92.79 LIG 0.04  C 
BRANCH 24 26
ATOM     26  C   ALA X1006      19.253  47.102  23.665  1.00 92.71 LIG 0.22  C 
ATOM     27 O    ALA X1006      18.607  47.448  24.649  1.00 91.80 LIG-0.29  OA
ENDBRANCH 24 26
ENDBRANCH 21 24
ENDBRANCH 19 20
BRANCH 19 28
ATOM     28  CB  VAL X1005      14.771  46.087  22.263  1.00 93.65 LIG 0.01  C 
ATOM     29  CG2 VAL X1005      13.395  46.235  21.658  1.00 92.72 LIG 0.01  C 
ATOM     30  CG1 VAL X1005      15.094  47.222  23.222  1.00 92.97 LIG 0.01  C 
ENDBRANCH 19 28
ENDBRANCH 17 19
ENDBRANCH 11 15
ENDBRANCH 9 11
ENDBRANCH 5 7
ENDBRANCH 3 5
BRANCH 1 31
ATOM     31  CA  PRO X1002      17.085  42.042  26.265  1.00 99.31 LIG 0.18  C 
ATOM     32  N   PRO X1002      17.896  40.892  26.675  1.00 99.88 LIG-0.34  N 
ATOM     33  CD  PRO X1002      19.234  41.316  27.098  1.00 99.70 LIG 0.13  C 
ATOM     34  C   ASN X1001      17.335  39.670  26.679  1.00100.64 LIG 0.24  C 
ATOM     35  CG  PRO X1002      18.952  42.637  27.679  1.00 99.65 LIG 0.02  C 
ATOM     36  CB  PRO X1002      17.883  43.232  26.807  1.00 99.37 LIG 0.04  C 
ATOM     37 O    ASN X1001      16.160  39.502  26.376  1.00100.22 LIG-0.27  OA
BRANCH 34 38
ATOM     38  CA  ASN X1001      18.181  38.484  27.188  1.00101.23 LIG 0.18  C 
BRANCH 38 39
ATOM     39  N   ASN X1001      17.318  37.295  27.133  1.00101.62 LIG-0.34  N 
ATOM     40  C   SER X1000      16.263  37.191  27.945  1.00101.89 LIG 0.26  C 
ATOM     41 O    SER X1000      16.181  37.811  29.014  1.00101.60 LIG-0.27  OA
ATOM     42 H    ASN X1001      17.550  36.702  26.554  1.00101.62 LIG 0.16  HD
BRANCH 40 43
ATOM     43  CA  SER X1000      15.130  36.250  27.510  1.00101.91 LIG 0.42  C 
ATOM     44  N   SER X1000      14.379  35.707  28.673  1.00101.55 LIG 0.62  N 
BRANCH 43 45
ATOM     45  CB  SER X1000      14.175  36.937  26.535  1.00101.96 LIG 0.21  C 
BRANCH 45 46
ATOM     46 OG   SER X1000      13.077  37.540  27.198  1.00101.15 LIG-0.40  OA
ATOM     47 HG   SER X1000      12.710  38.094  26.684  1.00101.15 LIG 0.21  HD
ENDBRANCH 45 46
ENDBRANCH 43 45
ENDBRANCH 40 43
ENDBRANCH 38 39
BRANCH 38 48
ATOM     48  CB  ASN X1001      19.535  38.260  26.468  1.00101.08 LIG 0.14  C 
BRANCH 48 49
ATOM     49  CG  ASN X1001      19.480  38.418  24.943  1.00100.04 LIG 0.22  C 
ATOM     50  ND2 ASN X1001      20.575  38.833  24.331  1.00 98.76 LIG-0.37  N 
ATOM     51 21HD ASN X1001      20.591  38.895  23.474  1.00 98.76 LIG 0.16  HD
ATOM     52 22HD ASN X1001      21.272  39.042  24.791  1.00 98.76 LIG 0.16  HD
ATOM     53 OD1  ASN X1001      18.468  38.112  24.329  1.00 97.91 LIG-0.27  OA
ENDBRANCH 48 49
ENDBRANCH 38 48
ENDBRANCH 34 38
ENDBRANCH 1 31
TORSDOF 19
ENDMDL
MODEL 49
USER: ADFR SOLUTION from run 154
USER: SCORE 13.979319 LL:  -3.674 LR: -11.456 RR:   0.000 FEB:  -5.788
USER: RMSD 10.635027
USER: SEED 153
USER: STATUS no improvement in best in 12 clusters for 5 generations
USER: GENES 21
USER: genes 0 Translation |==|  0.57193 0.70770 0.33139
USER: genes 1 Rotation |==|  0.46991 0.26790 0.22735 0.84769
USER: genes 2 Torsion [C]-N--CA-[CB] |==|  0.51904
USER: genes 3 Torsion [N]-CA--C-[N] |==|  0.43949
USER: genes 4 Torsion [C]-N--CA-[C] |==|  0.80976
USER: genes 5 Torsion [N]-CA--CB-[SG] |==|  0.81412
USER: genes 6 Torsion [CA]-CB--SG-[HG] |==|  0.19665
USER: genes 7 Torsion [N]-CA--C-[N] |==|  0.87604
USER: genes 8 Torsion [C]-N--CA-[CB] |==|  0.79260
USER: genes 9 Torsion [N]-CA--C-[N] |==|  0.23184
USER: genes 10 Torsion [C]-N--CA-[CB] |==|  0.23057
USER: genes 11 Torsion [N]-CA--C-[O] |==|  0.12371
USER: genes 12 Torsion [N]-CA--CB-[CG2] |==|  0.90243
USER: genes 13 Torsion [O]-C--CA-[N] |==|  0.83698
USER: genes 14 Torsion [N]-C--CA-[N] |==|  0.83491
USER: genes 15 Torsion [C]-CA--N-[C] |==|  0.74701
USER: genes 16 Torsion [N]-C--CA-[N] |==|  0.54611
USER: genes 17 Torsion [C]-CA--CB-[OG] |==|  0.28317
USER: genes 18 Torsion [CA]-CB--OG-[HG] |==|  0.26104
USER: genes 19 Torsion [C]-CA--CB-[CG] |==|  0.12153
USER: genes 20 Torsion [CA]-CB--CG-[ND2] |==|  0.67454
ROOT
ATOM      1  C   PRO X1002      17.855  41.914  23.247  1.00 98.27 LIG 0.24  C 
ATOM      2 O    PRO X1002      18.905  42.106  22.648  1.00 97.40 LIG-0.27  OA
ATOM      3  N   ALA X1003      17.800  41.530  24.519  1.00 97.43 LIG-0.35  N 
ATOM      4 H    ALA X1003      17.094  41.598  25.006  1.00 97.43 LIG 0.16  HD
ENDROOT
BRANCH 3 5
ATOM      5  CA  ALA X1003      18.951  40.950  25.214  1.00 96.73 LIG 0.17  C 
ATOM      6  CB  ALA X1003      18.548  40.459  26.586  1.00 96.74 LIG 0.04  C 
BRANCH 5 7
ATOM      7  C   ALA X1003      19.419  39.797  24.326  1.00 95.66 LIG 0.24  C 
ATOM      8 O    ALA X1003      18.634  39.300  23.535  1.00 95.14 LIG-0.27  OA
ATOM      9  N   CYS X1004      20.661  39.335  24.417  1.00 94.40 LIG-0.34  N 
ATOM     10 H    CYS X1004      20.994  38.833  23.802  1.00 94.40 LIG 0.16  HD
BRANCH 9 11
ATOM     11  CA  CYS X1004      21.619  39.577  25.497  1.00 94.17 LIG 0.18  C 
BRANCH 11 12
ATOM     12  CB  CYS X1004      22.829  38.646  25.257  1.00 94.12 LIG 0.10  C 
BRANCH 12 13
ATOM     13 SG   CYS X1004      22.603  36.895  25.407  1.00 91.26 LIG-0.18  SA
ATOM     14 HG   CYS X1004      21.944  36.496  24.487  1.00 91.26 LIG 0.10  HD
ENDBRANCH 12 13
ENDBRANCH 11 12
BRANCH 11 15
ATOM     15  C   CYS X1004      22.098  41.040  25.548  1.00 93.84 LIG 0.24  C 
ATOM     16 O    CYS X1004      22.129  41.660  26.600  1.00 93.01 LIG-0.27  OA
ATOM     17  N   VAL X1005      22.420  41.595  24.389  1.00 93.78 LIG-0.35  N 
ATOM     18 H    VAL X1005      22.276  41.220  23.629  1.00 93.78 LIG 0.16  HD
BRANCH 17 19
ATOM     19  CA  VAL X1005      23.059  42.910  24.290  1.00 93.73 LIG 0.18  C 
BRANCH 19 20
ATOM     20  C   VAL X1005      24.283  43.034  25.207  1.00 93.48 LIG 0.24  C 
ATOM     21  N   ALA X1006      25.431  42.552  24.734  1.00 93.27 LIG-0.35  N 
ATOM     22 H    ALA X1006      25.505  42.182  23.961  1.00 93.27 LIG 0.16  HD
ATOM     23 O    VAL X1005      24.181  43.542  26.318  1.00 93.20 LIG-0.27  OA
BRANCH 21 24
ATOM     24  CA  ALA X1006      26.684  42.606  25.485  1.00 93.01 LIG 0.16  C 
ATOM     25  CB  ALA X1006      26.759  41.459  26.449  1.00 92.79 LIG 0.04  C 
BRANCH 24 26
ATOM     26  C   ALA X1006      27.883  42.583  24.549  1.00 92.71 LIG 0.22  C 
ATOM     27 O    ALA X1006      27.913  43.275  23.535  1.00 91.80 LIG-0.29  OA
ENDBRANCH 24 26
ENDBRANCH 21 24
ENDBRANCH 19 20
BRANCH 19 28
ATOM     28  CB  VAL X1005      22.003  44.017  24.582  1.00 93.65 LIG 0.01  C 
ATOM     29  CG2 VAL X1005      20.661  43.584  24.038  1.00 92.72 LIG 0.01  C 
ATOM     30  CG1 VAL X1005      22.422  45.376  24.045  1.00 92.97 LIG 0.01  C 
ENDBRANCH 19 28
ENDBRANCH 17 19
ENDBRANCH 11 15
ENDBRANCH 9 11
ENDBRANCH 5 7
ENDBRANCH 3 5
BRANCH 1 31
ATOM     31  CA  PRO X1002      16.508  42.170  22.565  1.00 99.31 LIG 0.18  C 
ATOM     32  N   PRO X1002      16.293  43.535  22.080  1.00 99.88 LIG-0.34  N 
ATOM     33  CD  PRO X1002      16.405  43.598  20.620  1.00 99.70 LIG 0.13  C 
ATOM     34  C   ASN X1001      15.971  44.495  22.964  1.00100.64 LIG 0.24  C 
ATOM     35  CG  PRO X1002      15.899  42.274  20.229  1.00 99.65 LIG 0.02  C 
ATOM     36  CB  PRO X1002      16.399  41.332  21.287  1.00 99.37 LIG 0.04  C 
ATOM     37 O    ASN X1001      15.829  44.250  24.156  1.00100.22 LIG-0.27  OA
BRANCH 34 38
ATOM     38  CA  ASN X1001      15.672  45.910  22.424  1.00101.23 LIG 0.18  C 
BRANCH 38 39
ATOM     39  N   ASN X1001      16.882  46.359  21.719  1.00101.62 LIG-0.34  N 
ATOM     40  C   SER X1000      17.827  47.041  22.371  1.00101.89 LIG 0.26  C 
ATOM     41 O    SER X1000      17.593  47.681  23.406  1.00101.60 LIG-0.27  OA
ATOM     42 H    ASN X1001      16.919  46.148  20.886  1.00101.62 LIG 0.16  HD
BRANCH 40 43
ATOM     43  CA  SER X1000      19.245  47.018  21.783  1.00101.91 LIG 0.42  C 
ATOM     44  N   SER X1000      20.265  47.459  22.771  1.00101.55 LIG 0.62  N 
BRANCH 43 45
ATOM     45  CB  SER X1000      19.601  45.638  21.233  1.00101.96 LIG 0.21  C 
BRANCH 45 46
ATOM     46 OG   SER X1000      19.500  45.583  19.820  1.00101.15 LIG-0.40  OA
ATOM     47 HG   SER X1000      20.251  45.739  19.480  1.00101.15 LIG 0.21  HD
ENDBRANCH 45 46
ENDBRANCH 43 45
ENDBRANCH 40 43
ENDBRANCH 38 39
BRANCH 38 48
ATOM     48  CB  ASN X1001      14.400  46.046  21.550  1.00101.08 LIG 0.14  C 
BRANCH 48 49
ATOM     49  CG  ASN X1001      13.170  45.308  22.095  1.00100.04 LIG 0.22  C 
ATOM     50  ND2 ASN X1001      12.668  44.331  21.361  1.00 98.76 LIG-0.37  N 
ATOM     51 21HD ASN X1001      12.004  43.871  21.655  1.00 98.76 LIG 0.16  HD
ATOM     52 22HD ASN X1001      13.007  44.155  20.590  1.00 98.76 LIG 0.16  HD
ATOM     53 OD1  ASN X1001      12.721  45.592  23.196  1.00 97.91 LIG-0.27  OA
ENDBRANCH 48 49
ENDBRANCH 38 48
ENDBRANCH 34 38
ENDBRANCH 1 31
TORSDOF 19
ENDMDL
MODEL 50
USER: ADFR SOLUTION from run 183
USER: SCORE 13.147817 LL:  -2.698 LR: -11.416 RR:   0.000 FEB:  -5.748
USER: RMSD 3.770576
USER: SEED 182
USER: STATUS no improvement in best in 17 clusters for 5 generations
USER: GENES 21
USER: genes 0 Translation |==|  0.45011 0.44795 0.53094
USER: genes 1 Rotation |==|  0.87878 0.82476 0.49840 0.53248
USER: genes 2 Torsion [C]-N--CA-[CB] |==|  0.87222
USER: genes 3 Torsion [N]-CA--C-[N] |==|  0.34886
USER: genes 4 Torsion [C]-N--CA-[C] |==|  0.78071
USER: genes 5 Torsion [N]-CA--CB-[SG] |==|  0.08149
USER: genes 6 Torsion [CA]-CB--SG-[HG] |==|  0.19241
USER: genes 7 Torsion [N]-CA--C-[N] |==|  0.50382
USER: genes 8 Torsion [C]-N--CA-[CB] |==|  0.81595
USER: genes 9 Torsion [N]-CA--C-[N] |==|  0.46658
USER: genes 10 Torsion [C]-N--CA-[CB] |==|  0.31655
USER: genes 11 Torsion [N]-CA--C-[O] |==|  0.53075
USER: genes 12 Torsion [N]-CA--CB-[CG2] |==|  0.67751
USER: genes 13 Torsion [O]-C--CA-[N] |==|  0.09899
USER: genes 14 Torsion [N]-C--CA-[N] |==|  0.36456
USER: genes 15 Torsion [C]-CA--N-[C] |==|  0.55856
USER: genes 16 Torsion [N]-C--CA-[N] |==|  0.21688
USER: genes 17 Torsion [C]-CA--CB-[OG] |==|  0.27433
USER: genes 18 Torsion [CA]-CB--OG-[HG] |==|  0.02952
USER: genes 19 Torsion [C]-CA--CB-[CG] |==|  0.23258
USER: genes 20 Torsion [CA]-CB--CG-[ND2] |==|  0.23880
ROOT
ATOM      1  C   PRO X1002      14.932  36.654  27.138  1.00 98.27 LIG 0.24  C 
ATOM      2 O    PRO X1002      15.441  36.061  28.080  1.00 97.40 LIG-0.27  OA
ATOM      3  N   ALA X1003      15.491  37.707  26.550  1.00 97.43 LIG-0.35  N 
ATOM      4 H    ALA X1003      15.262  37.995  25.772  1.00 97.43 LIG 0.16  HD
ENDROOT
BRANCH 3 5
ATOM      5  CA  ALA X1003      16.563  38.481  27.180  1.00 96.73 LIG 0.17  C 
ATOM      6  CB  ALA X1003      16.223  38.776  28.623  1.00 96.74 LIG 0.04  C 
BRANCH 5 7
ATOM      7  C   ALA X1003      17.810  37.604  27.071  1.00 95.66 LIG 0.24  C 
ATOM      8 O    ALA X1003      17.777  36.466  27.511  1.00 95.14 LIG-0.27  OA
ATOM      9  N   CYS X1004      18.920  38.074  26.513  1.00 94.40 LIG-0.34  N 
ATOM     10 H    CYS X1004      19.553  37.544  26.269  1.00 94.40 LIG 0.16  HD
BRANCH 9 11
ATOM     11  CA  CYS X1004      19.245  39.473  26.232  1.00 94.17 LIG 0.18  C 
BRANCH 11 12
ATOM     12  CB  CYS X1004      20.779  39.563  26.057  1.00 94.12 LIG 0.10  C 
BRANCH 12 13
ATOM     13 SG   CYS X1004      21.652  38.150  25.439  1.00 91.26 LIG-0.18  SA
ATOM     14 HG   CYS X1004      21.372  37.978  24.285  1.00 91.26 LIG 0.10  HD
ENDBRANCH 12 13
ENDBRANCH 11 12
BRANCH 11 15
ATOM     15  C   CYS X1004      18.552  39.998  24.960  1.00 93.84 LIG 0.24  C 
ATOM     16 O    CYS X1004      17.836  39.275  24.285  1.00 93.01 LIG-0.27  OA
ATOM     17  N   VAL X1005      18.817  41.250  24.620  1.00 93.78 LIG-0.35  N 
ATOM     18 H    VAL X1005      19.420  41.728  25.004  1.00 93.78 LIG 0.16  HD
BRANCH 17 19
ATOM     19  CA  VAL X1005      18.102  41.948  23.547  1.00 93.73 LIG 0.18  C 
BRANCH 19 20
ATOM     20  C   VAL X1005      16.589  42.008  23.798  1.00 93.48 LIG 0.24  C 
ATOM     21  N   ALA X1006      15.889  42.828  23.016  1.00 93.27 LIG-0.35  N 
ATOM     22 H    ALA X1006      16.244  43.312  22.401  1.00 93.27 LIG 0.16  HD
ATOM     23 O    VAL X1005      16.078  41.336  24.687  1.00 93.20 LIG-0.27  OA
BRANCH 21 24
ATOM     24  CA  ALA X1006      14.440  42.985  23.127  1.00 93.01 LIG 0.16  C 
ATOM     25  CB  ALA X1006      14.104  44.373  23.586  1.00 92.79 LIG 0.04  C 
BRANCH 24 26
ATOM     26  C   ALA X1006      13.756  42.692  21.801  1.00 92.71 LIG 0.22  C 
ATOM     27 O    ALA X1006      12.571  42.958  21.622  1.00 91.80 LIG-0.29  OA
ENDBRANCH 24 26
ENDBRANCH 21 24
ENDBRANCH 19 20
BRANCH 19 28
ATOM     28  CB  VAL X1005      18.436  41.273  22.184  1.00 93.65 LIG 0.01  C 
ATOM     29  CG2 VAL X1005      19.168  42.258  21.303  1.00 92.72 LIG 0.01  C 
ATOM     30  CG1 VAL X1005      17.203  40.706  21.499  1.00 92.97 LIG 0.01  C 
ENDBRANCH 19 28
ENDBRANCH 17 19
ENDBRANCH 11 15
ENDBRANCH 9 11
ENDBRANCH 5 7
ENDBRANCH 3 5
BRANCH 1 31
ATOM     31  CA  PRO X1002      13.614  36.168  26.529  1.00 99.31 LIG 0.18  C 
ATOM     32  N   PRO X1002      12.648  35.603  27.476  1.00 99.88 LIG-0.34  N 
ATOM     33  CD  PRO X1002      11.541  36.534  27.716  1.00 99.70 LIG 0.13  C 
ATOM     34  C   ASN X1001      12.841  34.354  27.932  1.00100.64 LIG 0.24  C 
ATOM     35  CG  PRO X1002      11.434  37.204  26.411  1.00 99.65 LIG 0.02  C 
ATOM     36  CB  PRO X1002      12.848  37.348  25.924  1.00 99.37 LIG 0.04  C 
ATOM     37 O    ASN X1001      13.786  33.671  27.556  1.00100.22 LIG-0.27  OA
BRANCH 34 38
ATOM     38  CA  ASN X1001      11.772  33.749  28.868  1.00101.23 LIG 0.18  C 
BRANCH 38 39
ATOM     39  N   ASN X1001      11.457  32.413  28.341  1.00101.62 LIG-0.34  N 
ATOM     40  C   SER X1000      10.305  31.818  28.661  1.00101.89 LIG 0.26  C 
ATOM     41 O    SER X1000       9.663  32.111  29.680  1.00101.60 LIG-0.27  OA
ATOM     42 H    ASN X1001      12.059  32.070  27.832  1.00101.62 LIG 0.16  HD
BRANCH 40 43
ATOM     43  CA  SER X1000       9.788  30.727  27.711  1.00101.91 LIG 0.42  C 
ATOM     44  N   SER X1000      10.504  29.438  27.902  1.00101.55 LIG 0.62  N 
BRANCH 43 45
ATOM     45  CB  SER X1000       8.282  30.525  27.858  1.00101.96 LIG 0.21  C 
BRANCH 45 46
ATOM     46 OG   SER X1000       7.551  31.208  26.853  1.00101.15 LIG-0.40  OA
ATOM     47 HG   SER X1000       8.079  31.489  26.264  1.00101.15 LIG 0.21  HD
ENDBRANCH 45 46
ENDBRANCH 43 45
ENDBRANCH 40 43
ENDBRANCH 38 39
BRANCH 38 48
ATOM     48  CB  ASN X1001      12.133  33.716  30.375  1.00101.08 LIG 0.14  C 
BRANCH 48 49
ATOM     49  CG  ASN X1001      11.847  35.023  31.127  1.00100.04 LIG 0.22  C 
ATOM     50  ND2 ASN X1001      10.629  35.199  31.606  1.00 98.76 LIG-0.37  N 
ATOM     51 21HD ASN X1001      10.446  35.901  32.067  1.00 98.76 LIG 0.16  HD
ATOM     52 22HD ASN X1001      10.019  34.610  31.458  1.00 98.76 LIG 0.16  HD
ATOM     53 OD1  ASN X1001      12.744  35.833  31.314  1.00 97.91 LIG-0.27  OA
ENDBRANCH 48 49
ENDBRANCH 38 48
ENDBRANCH 34 38
ENDBRANCH 1 31
TORSDOF 19
ENDMDL
MODEL 51
USER: ADFR SOLUTION from run 168
USER: SCORE 13.412875 LL:  -2.736 LR: -11.418 RR:   0.000 FEB:  -5.750
USER: RMSD 9.079251
USER: SEED 167
USER: STATUS no improvement in best in 10 clusters for 5 generations
USER: GENES 21
USER: genes 0 Translation |==|  0.42763 0.38672 0.55040
USER: genes 1 Rotation |==|  0.36515 0.97525 0.49782 0.57710
USER: genes 2 Torsion [C]-N--CA-[CB] |==|  0.87719
USER: genes 3 Torsion [N]-CA--C-[N] |==|  0.41313
USER: genes 4 Torsion [C]-N--CA-[C] |==|  0.64740
USER: genes 5 Torsion [N]-CA--CB-[SG] |==|  0.09650
USER: genes 6 Torsion [CA]-CB--SG-[HG] |==|  0.02912
USER: genes 7 Torsion [N]-CA--C-[N] |==|  0.08960
USER: genes 8 Torsion [C]-N--CA-[CB] |==|  0.80726
USER: genes 9 Torsion [N]-CA--C-[N] |==|  0.47778
USER: genes 10 Torsion [C]-N--CA-[CB] |==|  0.25803
USER: genes 11 Torsion [N]-CA--C-[O] |==|  0.12482
USER: genes 12 Torsion [N]-CA--CB-[CG2] |==|  0.28234
USER: genes 13 Torsion [O]-C--CA-[N] |==|  0.99309
USER: genes 14 Torsion [N]-C--CA-[N] |==|  0.38702
USER: genes 15 Torsion [C]-CA--N-[C] |==|  0.83745
USER: genes 16 Torsion [N]-C--CA-[N] |==|  0.96838
USER: genes 17 Torsion [C]-CA--CB-[OG] |==|  0.47558
USER: genes 18 Torsion [CA]-CB--OG-[HG] |==|  0.73888
USER: genes 19 Torsion [C]-CA--CB-[CG] |==|  0.01295
USER: genes 20 Torsion [CA]-CB--CG-[ND2] |==|  0.25924
ROOT
ATOM      1  C   PRO X1002      14.392  35.414  27.518  1.00 98.27 LIG 0.24  C 
ATOM      2 O    PRO X1002      14.274  36.233  28.419  1.00 97.40 LIG-0.27  OA
ATOM      3  N   ALA X1003      13.423  35.139  26.650  1.00 97.43 LIG-0.35  N 
ATOM      4 H    ALA X1003      13.556  34.738  25.900  1.00 97.43 LIG 0.16  HD
ENDROOT
BRANCH 3 5
ATOM      5  CA  ALA X1003      12.025  35.499  26.894  1.00 96.73 LIG 0.17  C 
ATOM      6  CB  ALA X1003      11.634  35.164  28.315  1.00 96.74 LIG 0.04  C 
BRANCH 5 7
ATOM      7  C   ALA X1003      11.945  37.003  26.635  1.00 95.66 LIG 0.24  C 
ATOM      8 O    ALA X1003      12.919  37.700  26.872  1.00 95.14 LIG-0.27  OA
ATOM      9  N   CYS X1004      10.830  37.550  26.164  1.00 94.40 LIG-0.34  N 
ATOM     10 H    CYS X1004      10.830  38.344  25.832  1.00 94.40 LIG 0.16  HD
BRANCH 9 11
ATOM     11  CA  CYS X1004       9.496  36.947  26.128  1.00 94.17 LIG 0.18  C 
BRANCH 11 12
ATOM     12  CB  CYS X1004       8.604  37.742  27.109  1.00 94.12 LIG 0.10  C 
BRANCH 12 13
ATOM     13 SG   CYS X1004       8.870  39.486  27.282  1.00 91.26 LIG-0.18  SA
ATOM     14 HG   CYS X1004       9.619  39.865  26.424  1.00 91.26 LIG 0.10  HD
ENDBRANCH 12 13
ENDBRANCH 11 12
BRANCH 11 15
ATOM     15  C   CYS X1004       8.869  36.981  24.721  1.00 93.84 LIG 0.24  C 
ATOM     16 O    CYS X1004       7.659  37.044  24.569  1.00 93.01 LIG-0.27  OA
ATOM     17  N   VAL X1005       9.707  36.887  23.700  1.00 93.78 LIG-0.35  N 
ATOM     18 H    VAL X1005      10.543  36.707  23.789  1.00 93.78 LIG 0.16  HD
BRANCH 17 19
ATOM     19  CA  VAL X1005       9.288  37.084  22.309  1.00 93.73 LIG 0.18  C 
BRANCH 19 20
ATOM     20  C   VAL X1005       8.600  38.438  22.094  1.00 93.48 LIG 0.24  C 
ATOM     21  N   ALA X1006       8.333  38.775  20.833  1.00 93.27 LIG-0.35  N 
ATOM     22 H    ALA X1006       8.531  38.279  20.160  1.00 93.27 LIG 0.16  HD
ATOM     23 O    VAL X1005       8.333  39.160  23.048  1.00 93.20 LIG-0.27  OA
BRANCH 21 24
ATOM     24  CA  ALA X1006       7.672  40.027  20.470  1.00 93.01 LIG 0.16  C 
ATOM     25  CB  ALA X1006       8.695  41.085  20.175  1.00 92.79 LIG 0.04  C 
BRANCH 24 26
ATOM     26  C   ALA X1006       6.758  39.834  19.270  1.00 92.71 LIG 0.22  C 
ATOM     27 O    ALA X1006       6.001  38.870  19.194  1.00 91.80 LIG-0.29  OA
ENDBRANCH 24 26
ENDBRANCH 21 24
ENDBRANCH 19 20
BRANCH 19 28
ATOM     28  CB  VAL X1005       8.377  35.896  21.876  1.00 93.65 LIG 0.01  C 
ATOM     29  CG2 VAL X1005       6.932  36.334  21.914  1.00 92.72 LIG 0.01  C 
ATOM     30  CG1 VAL X1005       8.614  34.648  22.712  1.00 92.97 LIG 0.01  C 
ENDBRANCH 19 28
ENDBRANCH 17 19
ENDBRANCH 11 15
ENDBRANCH 9 11
ENDBRANCH 5 7
ENDBRANCH 3 5
BRANCH 1 31
ATOM     31  CA  PRO X1002      15.719  34.683  27.296  1.00 99.31 LIG 0.18  C 
ATOM     32  N   PRO X1002      16.815  35.075  28.185  1.00 99.88 LIG-0.34  N 
ATOM     33  CD  PRO X1002      17.066  34.045  29.197  1.00 99.70 LIG 0.13  C 
ATOM     34  C   ASN X1001      17.467  36.226  27.944  1.00100.64 LIG 0.24  C 
ATOM     35  CG  PRO X1002      16.726  32.819  28.459  1.00 99.65 LIG 0.02  C 
ATOM     36  CB  PRO X1002      15.552  33.190  27.597  1.00 99.37 LIG 0.04  C 
ATOM     37 O    ASN X1001      17.183  36.936  26.987  1.00100.22 LIG-0.27  OA
BRANCH 34 38
ATOM     38  CA  ASN X1001      18.668  36.583  28.845  1.00101.23 LIG 0.18  C 
BRANCH 38 39
ATOM     39  N   ASN X1001      19.703  37.146  27.965  1.00101.62 LIG-0.34  N 
ATOM     40  C   SER X1000      20.187  36.428  26.949  1.00101.89 LIG 0.26  C 
ATOM     41 O    SER X1000      20.139  35.190  26.925  1.00101.60 LIG-0.27  OA
ATOM     42 H    ASN X1001      19.954  37.945  28.162  1.00101.62 LIG 0.16  HD
BRANCH 40 43
ATOM     43  CA  SER X1000      20.827  37.198  25.785  1.00101.91 LIG 0.42  C 
ATOM     44  N   SER X1000      20.558  38.658  25.867  1.00101.55 LIG 0.62  N 
BRANCH 43 45
ATOM     45  CB  SER X1000      22.330  36.939  25.701  1.00101.96 LIG 0.21  C 
BRANCH 45 46
ATOM     46 OG   SER X1000      22.901  37.478  24.521  1.00101.15 LIG-0.40  OA
ATOM     47 HG   SER X1000      22.925  36.886  23.926  1.00101.15 LIG 0.21  HD
ENDBRANCH 45 46
ENDBRANCH 43 45
ENDBRANCH 40 43
ENDBRANCH 38 39
BRANCH 38 48
ATOM     48  CB  ASN X1001      18.359  37.504  30.052  1.00101.08 LIG 0.14  C 
BRANCH 48 49
ATOM     49  CG  ASN X1001      16.872  37.835  30.237  1.00100.04 LIG 0.22  C 
ATOM     50  ND2 ASN X1001      16.171  37.066  31.049  1.00 98.76 LIG-0.37  N 
ATOM     51 21HD ASN X1001      15.345  37.246  31.207  1.00 98.76 LIG 0.16  HD
ATOM     52 22HD ASN X1001      16.541  36.384  31.422  1.00 98.76 LIG 0.16  HD
ATOM     53 OD1  ASN X1001      16.387  38.814  29.687  1.00 97.91 LIG-0.27  OA
ENDBRANCH 48 49
ENDBRANCH 38 48
ENDBRANCH 34 38
ENDBRANCH 1 31
TORSDOF 19
ENDMDL
MODEL 52
USER: ADFR SOLUTION from run 164
USER: SCORE 13.936850 LL:  -3.220 LR: -11.401 RR:   0.000 FEB:  -5.733
USER: RMSD 9.647289
USER: SEED 163
USER: STATUS no improvement in best in 8 clusters for 5 generations
USER: GENES 21
USER: genes 0 Translation |==|  0.61089 0.62694 0.34796
USER: genes 1 Rotation |==|  0.47805 0.75137 0.70280 0.88105
USER: genes 2 Torsion [C]-N--CA-[CB] |==|  0.57130
USER: genes 3 Torsion [N]-CA--C-[N] |==|  0.38202
USER: genes 4 Torsion [C]-N--CA-[C] |==|  0.80898
USER: genes 5 Torsion [N]-CA--CB-[SG] |==|  0.55341
USER: genes 6 Torsion [CA]-CB--SG-[HG] |==|  0.54683
USER: genes 7 Torsion [N]-CA--C-[N] |==|  0.88387
USER: genes 8 Torsion [C]-N--CA-[CB] |==|  0.80842
USER: genes 9 Torsion [N]-CA--C-[N] |==|  0.43333
USER: genes 10 Torsion [C]-N--CA-[CB] |==|  0.13554
USER: genes 11 Torsion [N]-CA--C-[O] |==|  0.07177
USER: genes 12 Torsion [N]-CA--CB-[CG2] |==|  0.28452
USER: genes 13 Torsion [O]-C--CA-[N] |==|  0.67195
USER: genes 14 Torsion [N]-C--CA-[N] |==|  0.23542
USER: genes 15 Torsion [C]-CA--N-[C] |==|  0.72989
USER: genes 16 Torsion [N]-C--CA-[N] |==|  0.37053
USER: genes 17 Torsion [C]-CA--CB-[OG] |==|  0.20503
USER: genes 18 Torsion [CA]-CB--OG-[HG] |==|  0.67270
USER: genes 19 Torsion [C]-CA--CB-[CG] |==|  0.13317
USER: genes 20 Torsion [CA]-CB--CG-[ND2] |==|  0.14261
ROOT
ATOM      1  C   PRO X1002      18.790  40.279  23.570  1.00 98.27 LIG 0.24  C 
ATOM      2 O    PRO X1002      17.636  39.998  23.865  1.00 97.40 LIG-0.27  OA
ATOM      3  N   ALA X1003      19.140  41.427  22.998  1.00 97.43 LIG-0.35  N 
ATOM      4 H    ALA X1003      19.947  41.724  22.982  1.00 97.43 LIG 0.16  HD
ENDROOT
BRANCH 3 5
ATOM      5  CA  ALA X1003      18.169  42.301  22.336  1.00 96.73 LIG 0.17  C 
ATOM      6  CB  ALA X1003      18.851  43.145  21.284  1.00 96.74 LIG 0.04  C 
BRANCH 5 7
ATOM      7  C   ALA X1003      17.139  41.360  21.713  1.00 95.66 LIG 0.24  C 
ATOM      8 O    ALA X1003      17.524  40.353  21.141  1.00 95.14 LIG-0.27  OA
ATOM      9  N   CYS X1004      15.842  41.635  21.785  1.00 94.40 LIG-0.34  N 
ATOM     10 H    CYS X1004      15.250  41.032  21.618  1.00 94.40 LIG 0.16  HD
BRANCH 9 11
ATOM     11  CA  CYS X1004      15.227  42.916  22.133  1.00 94.17 LIG 0.18  C 
BRANCH 11 12
ATOM     12  CB  CYS X1004      13.712  42.793  21.848  1.00 94.12 LIG 0.10  C 
BRANCH 12 13
ATOM     13 SG   CYS X1004      12.755  44.274  21.663  1.00 91.26 LIG-0.18  SA
ATOM     14 HG   CYS X1004      11.589  44.014  21.778  1.00 91.26 LIG 0.10  HD
ENDBRANCH 12 13
ENDBRANCH 11 12
BRANCH 11 15
ATOM     15  C   CYS X1004      15.442  43.295  23.611  1.00 93.84 LIG 0.24  C 
ATOM     16 O    CYS X1004      15.765  44.427  23.934  1.00 93.01 LIG-0.27  OA
ATOM     17  N   VAL X1005      15.309  42.317  24.494  1.00 93.78 LIG-0.35  N 
ATOM     18 H    VAL X1005      15.216  41.491  24.275  1.00 93.78 LIG 0.16  HD
BRANCH 17 19
ATOM     19  CA  VAL X1005      15.305  42.552  25.941  1.00 93.73 LIG 0.18  C 
BRANCH 19 20
ATOM     20  C   VAL X1005      14.233  43.565  26.364  1.00 93.48 LIG 0.24  C 
ATOM     21  N   ALA X1006      13.809  43.490  27.624  1.00 93.27 LIG-0.35  N 
ATOM     22 H    ALA X1006      14.100  42.909  28.187  1.00 93.27 LIG 0.16  HD
ATOM     23 O    VAL X1005      13.799  44.384  25.561  1.00 93.20 LIG-0.27  OA
BRANCH 21 24
ATOM     24  CA  ALA X1006      12.801  44.393  28.177  1.00 93.01 LIG 0.16  C 
ATOM     25  CB  ALA X1006      11.619  44.474  27.257  1.00 92.79 LIG 0.04  C 
BRANCH 24 26
ATOM     26  C   ALA X1006      12.359  43.937  29.559  1.00 92.71 LIG 0.22  C 
ATOM     27 O    ALA X1006      13.097  43.265  30.275  1.00 91.80 LIG-0.29  OA
ENDBRANCH 24 26
ENDBRANCH 21 24
ENDBRANCH 19 20
BRANCH 19 28
ATOM     28  CB  VAL X1005      16.729  42.991  26.393  1.00 93.65 LIG 0.01  C 
ATOM     29  CG2 VAL X1005      16.746  44.486  26.611  1.00 92.72 LIG 0.01  C 
ATOM     30  CG1 VAL X1005      17.809  42.548  25.419  1.00 92.97 LIG 0.01  C 
ENDBRANCH 19 28
ENDBRANCH 17 19
ENDBRANCH 11 15
ENDBRANCH 9 11
ENDBRANCH 5 7
ENDBRANCH 3 5
BRANCH 1 31
ATOM     31  CA  PRO X1002      19.937  39.322  23.907  1.00 99.31 LIG 0.18  C 
ATOM     32  N   PRO X1002      20.953  39.848  24.823  1.00 99.88 LIG-0.34  N 
ATOM     33  CD  PRO X1002      20.816  39.255  26.157  1.00 99.70 LIG 0.13  C 
ATOM     34  C   ASN X1001      21.874  40.704  24.349  1.00100.64 LIG 0.24  C 
ATOM     35  CG  PRO X1002      20.322  37.909  25.830  1.00 99.65 LIG 0.02  C 
ATOM     36  CB  PRO X1002      19.398  38.101  24.660  1.00 99.37 LIG 0.04  C 
ATOM     37 O    ASN X1001      21.898  41.032  23.168  1.00100.22 LIG-0.27  OA
BRANCH 34 38
ATOM     38  CA  ASN X1001      22.981  41.186  25.309  1.00101.23 LIG 0.18  C 
BRANCH 38 39
ATOM     39  N   ASN X1001      24.040  40.167  25.280  1.00101.62 LIG-0.34  N 
ATOM     40  C   SER X1000      24.094  39.225  26.226  1.00101.89 LIG 0.26  C 
ATOM     41 O    SER X1000      23.582  39.374  27.344  1.00101.60 LIG-0.27  OA
ATOM     42 H    ASN X1001      24.594  40.234  24.626  1.00101.62 LIG 0.16  HD
BRANCH 40 43
ATOM     43  CA  SER X1000      24.834  37.924  25.882  1.00101.91 LIG 0.42  C 
ATOM     44  N   SER X1000      25.764  37.510  26.966  1.00101.55 LIG 0.62  N 
BRANCH 43 45
ATOM     45  CB  SER X1000      23.859  36.795  25.557  1.00101.96 LIG 0.21  C 
BRANCH 45 46
ATOM     46 OG   SER X1000      23.256  36.958  24.285  1.00101.15 LIG-0.40  OA
ATOM     47 HG   SER X1000      22.426  37.043  24.377  1.00101.15 LIG 0.21  HD
ENDBRANCH 45 46
ENDBRANCH 43 45
ENDBRANCH 40 43
ENDBRANCH 38 39
BRANCH 38 48
ATOM     48  CB  ASN X1001      23.531  42.611  25.047  1.00101.08 LIG 0.14  C 
BRANCH 48 49
ATOM     49  CG  ASN X1001      22.453  43.685  24.848  1.00100.04 LIG 0.22  C 
ATOM     50  ND2 ASN X1001      21.502  43.772  25.760  1.00 98.76 LIG-0.37  N 
ATOM     51 21HD ASN X1001      20.905  44.387  25.701  1.00 98.76 LIG 0.16  HD
ATOM     52 22HD ASN X1001      21.481  43.214  26.415  1.00 98.76 LIG 0.16  HD
ATOM     53 OD1  ASN X1001      22.521  44.457  23.903  1.00 97.91 LIG-0.27  OA
ENDBRANCH 48 49
ENDBRANCH 38 48
ENDBRANCH 34 38
ENDBRANCH 1 31
TORSDOF 19
ENDMDL
MODEL 53
USER: ADFR SOLUTION from run 155
USER: SCORE 14.114047 LL:  -3.453 LR: -11.380 RR:   0.000 FEB:  -5.712
USER: RMSD 9.477869
USER: SEED 154
USER: STATUS no improvement in best in 4 clusters for 5 generations
USER: GENES 21
USER: genes 0 Translation |==|  0.57427 0.65182 0.35160
USER: genes 1 Rotation |==|  0.28517 0.25752 0.19235 0.72451
USER: genes 2 Torsion [C]-N--CA-[CB] |==|  0.53338
USER: genes 3 Torsion [N]-CA--C-[N] |==|  0.44769
USER: genes 4 Torsion [C]-N--CA-[C] |==|  0.79619
USER: genes 5 Torsion [N]-CA--CB-[SG] |==|  0.25576
USER: genes 6 Torsion [CA]-CB--SG-[HG] |==|  0.28794
USER: genes 7 Torsion [N]-CA--C-[N] |==|  0.91028
USER: genes 8 Torsion [C]-N--CA-[CB] |==|  0.76999
USER: genes 9 Torsion [N]-CA--C-[N] |==|  0.20527
USER: genes 10 Torsion [C]-N--CA-[CB] |==|  0.25121
USER: genes 11 Torsion [N]-CA--C-[O] |==|  0.24615
USER: genes 12 Torsion [N]-CA--CB-[CG2] |==|  0.93388
USER: genes 13 Torsion [O]-C--CA-[N] |==|  0.57097
USER: genes 14 Torsion [N]-C--CA-[N] |==|  0.26826
USER: genes 15 Torsion [C]-CA--N-[C] |==|  0.72778
USER: genes 16 Torsion [N]-C--CA-[N] |==|  0.40601
USER: genes 17 Torsion [C]-CA--CB-[OG] |==|  0.28078
USER: genes 18 Torsion [CA]-CB--OG-[HG] |==|  0.33558
USER: genes 19 Torsion [C]-CA--CB-[CG] |==|  0.76278
USER: genes 20 Torsion [CA]-CB--CG-[ND2] |==|  0.41781
ROOT
ATOM      1  C   PRO X1002      17.911  40.782  23.641  1.00 98.27 LIG 0.24  C 
ATOM      2 O    PRO X1002      18.625  39.959  23.084  1.00 97.40 LIG-0.27  OA
ATOM      3  N   ALA X1003      18.022  41.091  24.930  1.00 97.43 LIG-0.35  N 
ATOM      4 H    ALA X1003      17.686  41.801  25.280  1.00 97.43 LIG 0.16  HD
ENDROOT
BRANCH 3 5
ATOM      5  CA  ALA X1003      18.735  40.237  25.883  1.00 96.73 LIG 0.17  C 
ATOM      6  CB  ALA X1003      18.450  40.676  27.301  1.00 96.74 LIG 0.04  C 
BRANCH 5 7
ATOM      7  C   ALA X1003      18.216  38.823  25.623  1.00 95.66 LIG 0.24  C 
ATOM      8 O    ALA X1003      17.158  38.678  25.033  1.00 95.14 LIG-0.27  OA
ATOM      9  N   CYS X1004      18.902  37.765  26.040  1.00 94.40 LIG-0.34  N 
ATOM     10 H    CYS X1004      18.731  36.978  25.737  1.00 94.40 LIG 0.16  HD
BRANCH 9 11
ATOM     11  CA  CYS X1004      19.990  37.745  27.019  1.00 94.17 LIG 0.18  C 
BRANCH 11 12
ATOM     12  CB  CYS X1004      20.217  36.271  27.426  1.00 94.12 LIG 0.10  C 
BRANCH 12 13
ATOM     13 SG   CYS X1004      21.414  35.313  26.536  1.00 91.26 LIG-0.18  SA
ATOM     14 HG   CYS X1004      22.409  35.201  27.197  1.00 91.26 LIG 0.10  HD
ENDBRANCH 12 13
ENDBRANCH 11 12
BRANCH 11 15
ATOM     15  C   CYS X1004      21.301  38.330  26.459  1.00 93.84 LIG 0.24  C 
ATOM     16 O    CYS X1004      22.065  38.964  27.169  1.00 93.01 LIG-0.27  OA
ATOM     17  N   VAL X1005      21.520  38.151  25.165  1.00 93.78 LIG-0.35  N 
ATOM     18 H    VAL X1005      20.933  37.828  24.626  1.00 93.78 LIG 0.16  HD
BRANCH 17 19
ATOM     19  CA  VAL X1005      22.794  38.489  24.523  1.00 93.73 LIG 0.18  C 
BRANCH 19 20
ATOM     20  C   VAL X1005      24.002  38.074  25.373  1.00 93.48 LIG 0.24  C 
ATOM     21  N   ALA X1006      24.278  36.772  25.419  1.00 93.27 LIG-0.35  N 
ATOM     22 H    ALA X1006      23.814  36.176  25.008  1.00 93.27 LIG 0.16  HD
ATOM     23 O    VAL X1005      24.656  38.916  25.978  1.00 93.20 LIG-0.27  OA
BRANCH 21 24
ATOM     24  CA  ALA X1006      25.402  36.225  26.177  1.00 93.01 LIG 0.16  C 
ATOM     25  CB  ALA X1006      24.969  35.886  27.573  1.00 92.79 LIG 0.04  C 
BRANCH 24 26
ATOM     26  C   ALA X1006      25.974  34.994  25.492  1.00 92.71 LIG 0.22  C 
ATOM     27 O    ALA X1006      26.857  35.088  24.645  1.00 91.80 LIG-0.29  OA
ENDBRANCH 24 26
ENDBRANCH 21 24
ENDBRANCH 19 20
BRANCH 19 28
ATOM     28  CB  VAL X1005      22.813  40.010  24.191  1.00 93.65 LIG 0.01  C 
ATOM     29  CG2 VAL X1005      21.395  40.516  24.076  1.00 92.72 LIG 0.01  C 
ATOM     30  CG1 VAL X1005      23.629  40.322  22.946  1.00 92.97 LIG 0.01  C 
ENDBRANCH 19 28
ENDBRANCH 17 19
ENDBRANCH 11 15
ENDBRANCH 9 11
ENDBRANCH 5 7
ENDBRANCH 3 5
BRANCH 1 31
ATOM     31  CA  PRO X1002      16.862  41.570  22.851  1.00 99.31 LIG 0.18  C 
ATOM     32  N   PRO X1002      16.490  42.870  23.414  1.00 99.88 LIG-0.34  N 
ATOM     33  CD  PRO X1002      17.077  43.966  22.637  1.00 99.70 LIG 0.13  C 
ATOM     34  C   ASN X1001      15.654  42.908  24.465  1.00100.64 LIG 0.24  C 
ATOM     35  CG  PRO X1002      17.086  43.394  21.283  1.00 99.65 LIG 0.02  C 
ATOM     36  CB  PRO X1002      17.414  41.940  21.471  1.00 99.37 LIG 0.04  C 
ATOM     37 O    ASN X1001      15.177  41.886  24.944  1.00100.22 LIG-0.27  OA
BRANCH 34 38
ATOM     38  CA  ASN X1001      15.213  44.289  24.994  1.00101.23 LIG 0.18  C 
BRANCH 38 39
ATOM     39  N   ASN X1001      13.908  44.579  24.382  1.00101.62 LIG-0.34  N 
ATOM     40  C   SER X1000      13.830  45.357  23.300  1.00101.89 LIG 0.26  C 
ATOM     41 O    SER X1000      14.706  46.183  23.007  1.00101.60 LIG-0.27  OA
ATOM     42 H    ASN X1001      13.233  44.216  24.772  1.00101.62 LIG 0.16  HD
BRANCH 40 43
ATOM     43  CA  SER X1000      12.588  45.202  22.409  1.00101.91 LIG 0.42  C 
ATOM     44  N   SER X1000      12.177  46.493  21.796  1.00101.55 LIG 0.62  N 
BRANCH 43 45
ATOM     45  CB  SER X1000      12.802  44.145  21.329  1.00101.96 LIG 0.21  C 
BRANCH 45 46
ATOM     46 OG   SER X1000      12.187  42.911  21.658  1.00101.15 LIG-0.40  OA
ATOM     47 HG   SER X1000      11.629  42.709  21.065  1.00101.15 LIG 0.21  HD
ENDBRANCH 45 46
ENDBRANCH 43 45
ENDBRANCH 40 43
ENDBRANCH 38 39
BRANCH 38 48
ATOM     48  CB  ASN X1001      15.186  44.447  26.536  1.00101.08 LIG 0.14  C 
BRANCH 48 49
ATOM     49  CG  ASN X1001      13.888  43.975  27.203  1.00100.04 LIG 0.22  C 
ATOM     50  ND2 ASN X1001      13.968  43.513  28.438  1.00 98.76 LIG-0.37  N 
ATOM     51 21HD ASN X1001      13.255  43.278  28.856  1.00 98.76 LIG 0.16  HD
ATOM     52 22HD ASN X1001      14.734  43.449  28.824  1.00 98.76 LIG 0.16  HD
ATOM     53 OD1  ASN X1001      12.820  44.084  26.617  1.00 97.91 LIG-0.27  OA
ENDBRANCH 48 49
ENDBRANCH 38 48
ENDBRANCH 34 38
ENDBRANCH 1 31
TORSDOF 19
ENDMDL
MODEL 54
USER: ADFR SOLUTION from run 16
USER: SCORE 13.644872 LL:  -4.190 LR: -11.369 RR:   0.000 FEB:  -5.701
USER: RMSD 10.639888
USER: SEED 399902
USER: STATUS no improvement in best in 10 clusters for 5 generations
USER: GENES 21
USER: genes 0 Translation |==|  0.53480 0.69251 0.25540
USER: genes 1 Rotation |==|  0.45336 0.28220 0.91240 0.67410
USER: genes 2 Torsion [C]-N--CA-[CB] |==|  0.17814
USER: genes 3 Torsion [N]-CA--C-[N] |==|  0.17770
USER: genes 4 Torsion [C]-N--CA-[C] |==|  0.63112
USER: genes 5 Torsion [N]-CA--CB-[SG] |==|  0.14619
USER: genes 6 Torsion [CA]-CB--SG-[HG] |==|  0.97316
USER: genes 7 Torsion [N]-CA--C-[N] |==|  0.91130
USER: genes 8 Torsion [C]-N--CA-[CB] |==|  0.47709
USER: genes 9 Torsion [N]-CA--C-[N] |==|  0.40556
USER: genes 10 Torsion [C]-N--CA-[CB] |==|  0.85653
USER: genes 11 Torsion [N]-CA--C-[O] |==|  0.11314
USER: genes 12 Torsion [N]-CA--CB-[CG2] |==|  0.83856
USER: genes 13 Torsion [O]-C--CA-[N] |==|  0.22741
USER: genes 14 Torsion [N]-C--CA-[N] |==|  0.34471
USER: genes 15 Torsion [C]-CA--N-[C] |==|  0.84970
USER: genes 16 Torsion [N]-C--CA-[N] |==|  0.30221
USER: genes 17 Torsion [C]-CA--CB-[OG] |==|  0.04414
USER: genes 18 Torsion [CA]-CB--OG-[HG] |==|  0.52371
USER: genes 19 Torsion [C]-CA--CB-[CG] |==|  0.03087
USER: genes 20 Torsion [CA]-CB--CG-[ND2] |==|  0.61892
ROOT
ATOM      1  C   PRO X1002      16.964  41.606  21.765  1.00 98.27 LIG 0.24  C 
ATOM      2 O    PRO X1002      17.445  41.508  20.644  1.00 97.40 LIG-0.27  OA
ATOM      3  N   ALA X1003      15.688  41.909  21.988  1.00 97.43 LIG-0.35  N 
ATOM      4 H    ALA X1003      15.292  41.774  22.740  1.00 97.43 LIG 0.16  HD
ENDROOT
BRANCH 3 5
ATOM      5  CA  ALA X1003      14.833  42.507  20.962  1.00 96.73 LIG 0.17  C 
ATOM      6  CB  ALA X1003      14.653  41.554  19.803  1.00 96.74 LIG 0.04  C 
BRANCH 5 7
ATOM      7  C   ALA X1003      13.503  42.791  21.661  1.00 95.66 LIG 0.24  C 
ATOM      8 O    ALA X1003      12.498  42.210  21.283  1.00 95.14 LIG-0.27  OA
ATOM      9  N   CYS X1004      13.437  43.663  22.660  1.00 94.40 LIG-0.34  N 
ATOM     10 H    CYS X1004      12.755  43.688  23.183  1.00 94.40 LIG 0.16  HD
BRANCH 9 11
ATOM     11  CA  CYS X1004      14.438  44.667  23.026  1.00 94.17 LIG 0.18  C 
BRANCH 11 12
ATOM     12  CB  CYS X1004      13.883  46.046  22.603  1.00 94.12 LIG 0.10  C 
BRANCH 12 13
ATOM     13 SG   CYS X1004      12.265  46.519  23.149  1.00 91.26 LIG-0.18  SA
ATOM     14 HG   CYS X1004      11.720  45.577  23.654  1.00 91.26 LIG 0.10  HD
ENDBRANCH 12 13
ENDBRANCH 11 12
BRANCH 11 15
ATOM     15  C   CYS X1004      14.742  44.676  24.536  1.00 93.84 LIG 0.24  C 
ATOM     16 O    CYS X1004      15.864  44.920  24.954  1.00 93.01 LIG-0.27  OA
ATOM     17  N   VAL X1005      13.740  44.357  25.341  1.00 93.78 LIG-0.35  N 
ATOM     18 H    VAL X1005      12.987  44.053  25.060  1.00 93.78 LIG 0.16  HD
BRANCH 17 19
ATOM     19  CA  VAL X1005      13.819  44.494  26.799  1.00 93.73 LIG 0.18  C 
BRANCH 19 20
ATOM     20  C   VAL X1005      14.889  43.581  27.412  1.00 93.48 LIG 0.24  C 
ATOM     21  N   ALA X1006      15.531  44.052  28.479  1.00 93.27 LIG-0.35  N 
ATOM     22 H    ALA X1006      15.376  44.826  28.820  1.00 93.27 LIG 0.16  HD
ATOM     23 O    VAL X1005      15.129  42.484  26.919  1.00 93.20 LIG-0.27  OA
BRANCH 21 24
ATOM     24  CA  ALA X1006      16.567  43.295  29.179  1.00 93.01 LIG 0.16  C 
ATOM     25  CB  ALA X1006      16.065  41.924  29.522  1.00 92.79 LIG 0.04  C 
BRANCH 24 26
ATOM     26  C   ALA X1006      17.832  43.195  28.340  1.00 92.71 LIG 0.22  C 
ATOM     27 O    ALA X1006      18.244  44.153  27.693  1.00 91.80 LIG-0.29  OA
ENDBRANCH 24 26
ENDBRANCH 21 24
ENDBRANCH 19 20
BRANCH 19 28
ATOM     28  CB  VAL X1005      12.412  44.234  27.415  1.00 93.65 LIG 0.01  C 
ATOM     29  CG2 VAL X1005      11.421  45.211  26.828  1.00 92.72 LIG 0.01  C 
ATOM     30  CG1 VAL X1005      12.426  44.284  28.934  1.00 92.97 LIG 0.01  C 
ENDBRANCH 19 28
ENDBRANCH 17 19
ENDBRANCH 11 15
ENDBRANCH 9 11
ENDBRANCH 5 7
ENDBRANCH 3 5
BRANCH 1 31
ATOM     31  CA  PRO X1002      17.812  41.319  23.008  1.00 99.31 LIG 0.18  C 
ATOM     32  N   PRO X1002      18.670  42.419  23.457  1.00 99.88 LIG-0.34  N 
ATOM     33  CD  PRO X1002      18.128  43.049  24.665  1.00 99.70 LIG 0.13  C 
ATOM     34  C   ASN X1001      19.813  42.664  22.795  1.00100.64 LIG 0.24  C 
ATOM     35  CG  PRO X1002      17.487  41.904  25.330  1.00 99.65 LIG 0.02  C 
ATOM     36  CB  PRO X1002      16.905  41.077  24.218  1.00 99.37 LIG 0.04  C 
ATOM     37 O    ASN X1001      20.165  41.975  21.845  1.00100.22 LIG-0.27  OA
BRANCH 34 38
ATOM     38  CA  ASN X1001      20.740  43.776  23.330  1.00101.23 LIG 0.18  C 
BRANCH 38 39
ATOM     39  N   ASN X1001      22.055  43.158  23.555  1.00101.62 LIG-0.34  N 
ATOM     40  C   SER X1000      22.165  42.069  24.319  1.00101.89 LIG 0.26  C 
ATOM     41 O    SER X1000      21.327  41.771  25.181  1.00101.60 LIG-0.27  OA
ATOM     42 H    ASN X1001      22.714  43.550  23.165  1.00101.62 LIG 0.16  HD
BRANCH 40 43
ATOM     43  CA  SER X1000      23.396  41.177  24.099  1.00101.91 LIG 0.42  C 
ATOM     44  N   SER X1000      24.359  41.269  25.229  1.00101.55 LIG 0.62  N 
BRANCH 43 45
ATOM     45  CB  SER X1000      22.998  39.722  23.858  1.00101.96 LIG 0.21  C 
BRANCH 45 46
ATOM     46 OG   SER X1000      21.624  39.591  23.535  1.00101.15 LIG-0.40  OA
ATOM     47 HG   SER X1000      21.415  38.777  23.524  1.00101.15 LIG 0.21  HD
ENDBRANCH 45 46
ENDBRANCH 43 45
ENDBRANCH 40 43
ENDBRANCH 38 39
BRANCH 38 48
ATOM     48  CB  ASN X1001      20.833  45.056  22.462  1.00101.08 LIG 0.14  C 
BRANCH 48 49
ATOM     49  CG  ASN X1001      19.791  45.142  21.339  1.00100.04 LIG 0.22  C 
ATOM     50  ND2 ASN X1001      20.200  45.563  20.156  1.00 98.76 LIG-0.37  N 
ATOM     51 21HD ASN X1001      19.652  45.586  19.494  1.00 98.76 LIG 0.16  HD
ATOM     52 22HD ASN X1001      21.016  45.814  20.047  1.00 98.76 LIG 0.16  HD
ATOM     53 OD1  ASN X1001      18.641  44.776  21.538  1.00 97.91 LIG-0.27  OA
ENDBRANCH 48 49
ENDBRANCH 38 48
ENDBRANCH 34 38
ENDBRANCH 1 31
TORSDOF 19
ENDMDL
MODEL 55
USER: ADFR SOLUTION from run 48
USER: SCORE 12.784080 LL:  -3.059 LR: -11.368 RR:   0.000 FEB:  -5.701
USER: RMSD 10.272755
USER: SEED 47
USER: STATUS no improvement in best in 19 clusters for 5 generations
USER: GENES 21
USER: genes 0 Translation |==|  0.48546 0.49549 0.51804
USER: genes 1 Rotation |==|  0.18296 0.76101 0.22816 0.58635
USER: genes 2 Torsion [C]-N--CA-[CB] |==|  0.49915
USER: genes 3 Torsion [N]-CA--C-[N] |==|  0.38628
USER: genes 4 Torsion [C]-N--CA-[C] |==|  0.59647
USER: genes 5 Torsion [N]-CA--CB-[SG] |==|  0.28755
USER: genes 6 Torsion [CA]-CB--SG-[HG] |==|  0.26415
USER: genes 7 Torsion [N]-CA--C-[N] |==|  0.52153
USER: genes 8 Torsion [C]-N--CA-[CB] |==|  0.20091
USER: genes 9 Torsion [N]-CA--C-[N] |==|  0.96667
USER: genes 10 Torsion [C]-N--CA-[CB] |==|  0.82377
USER: genes 11 Torsion [N]-CA--C-[O] |==|  0.11945
USER: genes 12 Torsion [N]-CA--CB-[CG2] |==|  0.61486
USER: genes 13 Torsion [O]-C--CA-[N] |==|  0.85502
USER: genes 14 Torsion [N]-C--CA-[N] |==|  0.42179
USER: genes 15 Torsion [C]-CA--N-[C] |==|  0.61087
USER: genes 16 Torsion [N]-C--CA-[N] |==|  0.53672
USER: genes 17 Torsion [C]-CA--CB-[OG] |==|  0.32150
USER: genes 18 Torsion [CA]-CB--OG-[HG] |==|  0.89636
USER: genes 19 Torsion [C]-CA--CB-[CG] |==|  0.28722
USER: genes 20 Torsion [CA]-CB--CG-[ND2] |==|  0.72323
ROOT
ATOM      1  C   PRO X1002      15.780  37.617  26.887  1.00 98.27 LIG 0.24  C 
ATOM      2 O    PRO X1002      14.815  38.138  26.344  1.00 97.40 LIG-0.27  OA
ATOM      3  N   ALA X1003      15.911  36.302  27.036  1.00 97.43 LIG-0.35  N 
ATOM      4 H    ALA X1003      16.659  35.915  27.214  1.00 97.43 LIG 0.16  HD
ENDROOT
BRANCH 3 5
ATOM      5  CA  ALA X1003      14.779  35.381  26.910  1.00 96.73 LIG 0.17  C 
ATOM      6  CB  ALA X1003      15.232  33.955  27.124  1.00 96.74 LIG 0.04  C 
BRANCH 5 7
ATOM      7  C   ALA X1003      13.784  35.816  27.986  1.00 95.66 LIG 0.24  C 
ATOM      8 O    ALA X1003      14.202  36.131  29.089  1.00 95.14 LIG-0.27  OA
ATOM      9  N   CYS X1004      12.481  35.844  27.730  1.00 94.40 LIG-0.34  N 
ATOM     10 H    CYS X1004      11.937  36.265  28.246  1.00 94.40 LIG 0.16  HD
BRANCH 9 11
ATOM     11  CA  CYS X1004      11.786  35.211  26.608  1.00 94.17 LIG 0.18  C 
BRANCH 11 12
ATOM     12  CB  CYS X1004      11.289  33.830  27.094  1.00 94.12 LIG 0.10  C 
BRANCH 12 13
ATOM     13 SG   CYS X1004       9.573  33.630  27.486  1.00 91.26 LIG-0.18  SA
ATOM     14 HG   CYS X1004       8.993  33.188  26.533  1.00 91.26 LIG 0.10  HD
ENDBRANCH 12 13
ENDBRANCH 11 12
BRANCH 11 15
ATOM     15  C   CYS X1004      10.588  36.041  26.109  1.00 93.84 LIG 0.24  C 
ATOM     16 O    CYS X1004      10.351  37.149  26.567  1.00 93.01 LIG-0.27  OA
ATOM     17  N   VAL X1005       9.810  35.468  25.204  1.00 93.78 LIG-0.35  N 
ATOM     18 H    VAL X1005       9.883  34.643  24.972  1.00 93.78 LIG 0.16  HD
BRANCH 17 19
ATOM     19  CA  VAL X1005       8.744  36.190  24.503  1.00 93.73 LIG 0.18  C 
BRANCH 19 20
ATOM     20  C   VAL X1005       7.739  35.241  23.837  1.00 93.48 LIG 0.24  C 
ATOM     21  N   ALA X1006       8.090  33.958  23.766  1.00 93.27 LIG-0.35  N 
ATOM     22 H    ALA X1006       8.837  33.656  24.065  1.00 93.27 LIG 0.16  HD
ATOM     23 O    VAL X1005       6.680  35.668  23.390  1.00 93.20 LIG-0.27  OA
BRANCH 21 24
ATOM     24  CA  ALA X1006       7.235  32.933  23.170  1.00 93.01 LIG 0.16  C 
ATOM     25  CB  ALA X1006       5.964  32.799  23.955  1.00 92.79 LIG 0.04  C 
BRANCH 24 26
ATOM     26  C   ALA X1006       6.923  33.260  21.718  1.00 92.71 LIG 0.22  C 
ATOM     27 O    ALA X1006       7.793  33.673  20.956  1.00 91.80 LIG-0.29  OA
ENDBRANCH 24 26
ENDBRANCH 21 24
ENDBRANCH 19 20
BRANCH 19 28
ATOM     28  CB  VAL X1005       9.379  37.174  23.478  1.00 93.65 LIG 0.01  C 
ATOM     29  CG2 VAL X1005       8.629  38.485  23.511  1.00 92.72 LIG 0.01  C 
ATOM     30  CG1 VAL X1005       9.440  36.591  22.075  1.00 92.97 LIG 0.01  C 
ENDBRANCH 19 28
ENDBRANCH 17 19
ENDBRANCH 11 15
ENDBRANCH 9 11
ENDBRANCH 5 7
ENDBRANCH 3 5
BRANCH 1 31
ATOM     31  CA  PRO X1002      16.952  38.468  27.383  1.00 99.31 LIG 0.18  C 
ATOM     32  N   PRO X1002      17.529  39.388  26.400  1.00 99.88 LIG-0.34  N 
ATOM     33  CD  PRO X1002      17.138  40.772  26.682  1.00 99.70 LIG 0.13  C 
ATOM     34  C   ASN X1001      18.350  38.898  25.456  1.00100.64 LIG 0.24  C 
ATOM     35  CG  PRO X1002      17.046  40.758  28.149  1.00 99.65 LIG 0.02  C 
ATOM     36  CB  PRO X1002      16.482  39.410  28.497  1.00 99.37 LIG 0.04  C 
ATOM     37 O    ASN X1001      18.647  37.709  25.416  1.00100.22 LIG-0.27  OA
BRANCH 34 38
ATOM     38  CA  ASN X1001      19.008  39.893  24.477  1.00101.23 LIG 0.18  C 
BRANCH 38 39
ATOM     39  N   ASN X1001      20.281  39.291  24.054  1.00101.62 LIG-0.34  N 
ATOM     40  C   SER X1000      21.372  40.050  23.918  1.00101.89 LIG 0.26  C 
ATOM     41 O    SER X1000      21.314  41.271  23.720  1.00101.60 LIG-0.27  OA
ATOM     42 H    ASN X1001      20.255  38.444  23.911  1.00101.62 LIG 0.16  HD
BRANCH 40 43
ATOM     43  CA  SER X1000      22.734  39.346  24.006  1.00101.91 LIG 0.42  C 
ATOM     44  N   SER X1000      23.853  40.315  24.156  1.00101.55 LIG 0.62  N 
BRANCH 43 45
ATOM     45  CB  SER X1000      22.763  38.323  25.139  1.00101.96 LIG 0.21  C 
BRANCH 45 46
ATOM     46 OG   SER X1000      22.930  36.999  24.660  1.00101.15 LIG-0.40  OA
ATOM     47 HG   SER X1000      22.504  36.905  23.943  1.00101.15 LIG 0.21  HD
ENDBRANCH 45 46
ENDBRANCH 43 45
ENDBRANCH 40 43
ENDBRANCH 38 39
BRANCH 38 48
ATOM     48  CB  ASN X1001      18.138  40.333  23.272  1.00101.08 LIG 0.14  C 
BRANCH 48 49
ATOM     49  CG  ASN X1001      17.537  41.739  23.399  1.00100.04 LIG 0.22  C 
ATOM     50  ND2 ASN X1001      16.278  41.832  23.786  1.00 98.76 LIG-0.37  N 
ATOM     51 21HD ASN X1001      15.921  42.605  23.906  1.00 98.76 LIG 0.16  HD
ATOM     52 22HD ASN X1001      15.814  41.119  23.919  1.00 98.76 LIG 0.16  HD
ATOM     53 OD1  ASN X1001      18.231  42.725  23.199  1.00 97.91 LIG-0.27  OA
ENDBRANCH 48 49
ENDBRANCH 38 48
ENDBRANCH 34 38
ENDBRANCH 1 31
TORSDOF 19
ENDMDL
MODEL 56
USER: ADFR SOLUTION from run 44
USER: SCORE 12.341106 LL:  -3.072 LR: -11.361 RR:   0.000 FEB:  -5.694
USER: RMSD 3.743807
USER: SEED 43
USER: STATUS no improvement in best in 5 clusters for 5 generations
USER: GENES 21
USER: genes 0 Translation |==|  0.45367 0.52919 0.49762
USER: genes 1 Rotation |==|  0.41620 0.47914 0.56212 0.98855
USER: genes 2 Torsion [C]-N--CA-[CB] |==|  0.17430
USER: genes 3 Torsion [N]-CA--C-[N] |==|  0.30321
USER: genes 4 Torsion [C]-N--CA-[C] |==|  0.15037
USER: genes 5 Torsion [N]-CA--CB-[SG] |==|  0.66400
USER: genes 6 Torsion [CA]-CB--SG-[HG] |==|  0.86861
USER: genes 7 Torsion [N]-CA--C-[N] |==|  0.09789
USER: genes 8 Torsion [C]-N--CA-[CB] |==|  0.79261
USER: genes 9 Torsion [N]-CA--C-[N] |==|  0.47401
USER: genes 10 Torsion [C]-N--CA-[CB] |==|  0.85539
USER: genes 11 Torsion [N]-CA--C-[O] |==|  0.44409
USER: genes 12 Torsion [N]-CA--CB-[CG2] |==|  0.93664
USER: genes 13 Torsion [O]-C--CA-[N] |==|  0.01773
USER: genes 14 Torsion [N]-C--CA-[N] |==|  0.25817
USER: genes 15 Torsion [C]-CA--N-[C] |==|  0.76062
USER: genes 16 Torsion [N]-C--CA-[N] |==|  0.39883
USER: genes 17 Torsion [C]-CA--CB-[OG] |==|  0.17410
USER: genes 18 Torsion [CA]-CB--OG-[HG] |==|  0.79539
USER: genes 19 Torsion [C]-CA--CB-[CG] |==|  0.35850
USER: genes 20 Torsion [CA]-CB--CG-[ND2] |==|  0.19711
ROOT
ATOM      1  C   PRO X1002      15.017  38.299  26.489  1.00 98.27 LIG 0.24  C 
ATOM      2 O    PRO X1002      14.397  38.503  25.454  1.00 97.40 LIG-0.27  OA
ATOM      3  N   ALA X1003      16.011  39.076  26.910  1.00 97.43 LIG-0.35  N 
ATOM      4 H    ALA X1003      16.306  39.075  27.718  1.00 97.43 LIG 0.16  HD
ENDROOT
BRANCH 3 5
ATOM      5  CA  ALA X1003      16.700  40.017  26.024  1.00 96.73 LIG 0.17  C 
ATOM      6  CB  ALA X1003      15.739  41.068  25.518  1.00 96.74 LIG 0.04  C 
BRANCH 5 7
ATOM      7  C   ALA X1003      17.805  40.639  26.879  1.00 95.66 LIG 0.24  C 
ATOM      8 O    ALA X1003      17.500  41.423  27.764  1.00 95.14 LIG-0.27  OA
ATOM      9  N   CYS X1004      19.079  40.338  26.660  1.00 94.40 LIG-0.34  N 
ATOM     10 H    CYS X1004      19.685  40.519  27.244  1.00 94.40 LIG 0.16  HD
BRANCH 9 11
ATOM     11  CA  CYS X1004      19.645  39.693  25.473  1.00 94.17 LIG 0.18  C 
BRANCH 11 12
ATOM     12  CB  CYS X1004      19.097  38.248  25.429  1.00 94.12 LIG 0.10  C 
BRANCH 12 13
ATOM     13 SG   CYS X1004      20.245  36.898  25.455  1.00 91.26 LIG-0.18  SA
ATOM     14 HG   CYS X1004      21.121  37.102  24.662  1.00 91.26 LIG 0.10  HD
ENDBRANCH 12 13
ENDBRANCH 11 12
BRANCH 11 15
ATOM     15  C   CYS X1004      19.274  40.423  24.169  1.00 93.84 LIG 0.24  C 
ATOM     16 O    CYS X1004      19.114  39.811  23.124  1.00 93.01 LIG-0.27  OA
ATOM     17  N   VAL X1005      19.191  41.743  24.236  1.00 93.78 LIG-0.35  N 
ATOM     18 H    VAL X1005      19.431  42.198  24.925  1.00 93.78 LIG 0.16  HD
BRANCH 17 19
ATOM     19  CA  VAL X1005      18.677  42.562  23.134  1.00 93.73 LIG 0.18  C 
BRANCH 19 20
ATOM     20  C   VAL X1005      17.330  42.050  22.607  1.00 93.48 LIG 0.24  C 
ATOM     21  N   ALA X1006      16.693  42.836  21.741  1.00 93.27 LIG-0.35  N 
ATOM     22 H    ALA X1006      16.998  43.596  21.481  1.00 93.27 LIG 0.16  HD
ATOM     23 O    VAL X1005      16.879  40.976  22.989  1.00 93.20 LIG-0.27  OA
BRANCH 21 24
ATOM     24  CA  ALA X1006      15.407  42.481  21.144  1.00 93.01 LIG 0.16  C 
ATOM     25  CB  ALA X1006      15.479  41.112  20.535  1.00 92.79 LIG 0.04  C 
BRANCH 24 26
ATOM     26  C   ALA X1006      14.292  42.536  22.177  1.00 92.71 LIG 0.22  C 
ATOM     27 O    ALA X1006      13.115  42.636  21.840  1.00 91.80 LIG-0.29  OA
ENDBRANCH 24 26
ENDBRANCH 21 24
ENDBRANCH 19 20
BRANCH 19 28
ATOM     28  CB  VAL X1005      19.749  42.636  22.006  1.00 93.65 LIG 0.01  C 
ATOM     29  CG2 VAL X1005      21.113  42.356  22.593  1.00 92.72 LIG 0.01  C 
ATOM     30  CG1 VAL X1005      19.714  43.960  21.258  1.00 92.97 LIG 0.01  C 
ENDBRANCH 19 28
ENDBRANCH 17 19
ENDBRANCH 11 15
ENDBRANCH 9 11
ENDBRANCH 5 7
ENDBRANCH 3 5
BRANCH 1 31
ATOM     31  CA  PRO X1002      14.635  37.140  27.413  1.00 99.31 LIG 0.18  C 
ATOM     32  N   PRO X1002      13.600  36.237  26.903  1.00 99.88 LIG-0.34  N 
ATOM     33  CD  PRO X1002      14.181  34.961  26.474  1.00 99.70 LIG 0.13  C 
ATOM     34  C   ASN X1001      12.316  36.630  26.946  1.00100.64 LIG 0.24  C 
ATOM     35  CG  PRO X1002      15.300  34.817  27.416  1.00 99.65 LIG 0.02  C 
ATOM     36  CB  PRO X1002      15.834  36.208  27.610  1.00 99.37 LIG 0.04  C 
ATOM     37 O    ASN X1001      11.990  37.710  27.426  1.00100.22 LIG-0.27  OA
BRANCH 34 38
ATOM     38  CA  ASN X1001      11.234  35.634  26.476  1.00101.23 LIG 0.18  C 
BRANCH 38 39
ATOM     39  N   ASN X1001      10.778  34.909  27.671  1.00101.62 LIG-0.34  N 
ATOM     40  C   SER X1000      11.428  33.820  28.087  1.00101.89 LIG 0.26  C 
ATOM     41 O    SER X1000      12.130  33.133  27.331  1.00101.60 LIG-0.27  OA
ATOM     42 H    ASN X1001      10.084  35.241  28.056  1.00101.62 LIG 0.16  HD
BRANCH 40 43
ATOM     43  CA  SER X1000      11.272  33.427  29.563  1.00101.91 LIG 0.42  C 
ATOM     44  N   SER X1000      11.233  31.952  29.746  1.00101.55 LIG 0.62  N 
BRANCH 43 45
ATOM     45  CB  SER X1000      12.373  34.041  30.425  1.00101.96 LIG 0.21  C 
BRANCH 45 46
ATOM     46 OG   SER X1000      12.331  35.457  30.418  1.00101.15 LIG-0.40  OA
ATOM     47 HG   SER X1000      12.611  35.742  29.680  1.00101.15 LIG 0.21  HD
ENDBRANCH 45 46
ENDBRANCH 43 45
ENDBRANCH 40 43
ENDBRANCH 38 39
BRANCH 38 48
ATOM     48  CB  ASN X1001      10.056  36.244  25.673  1.00101.08 LIG 0.14  C 
BRANCH 48 49
ATOM     49  CG  ASN X1001       9.758  35.538  24.344  1.00100.04 LIG 0.22  C 
ATOM     50  ND2 ASN X1001       9.220  34.333  24.399  1.00 98.76 LIG-0.37  N 
ATOM     51 21HD ASN X1001       9.003  33.925  23.674  1.00 98.76 LIG 0.16  HD
ATOM     52 22HD ASN X1001       9.085  33.956  25.161  1.00 98.76 LIG 0.16  HD
ATOM     53 OD1  ASN X1001       9.965  36.110  23.284  1.00 97.91 LIG-0.27  OA
ENDBRANCH 48 49
ENDBRANCH 38 48
ENDBRANCH 34 38
ENDBRANCH 1 31
TORSDOF 19
ENDMDL
MODEL 57
USER: ADFR SOLUTION from run 146
USER: SCORE 13.748061 LL:  -3.471 LR: -11.354 RR:   0.000 FEB:  -5.687
USER: RMSD 9.549938
USER: SEED 145
USER: STATUS no improvement in best in 9 clusters for 5 generations
USER: GENES 21
USER: genes 0 Translation |==|  0.64045 0.68640 0.32534
USER: genes 1 Rotation |==|  0.44582 0.18164 0.16286 0.67903
USER: genes 2 Torsion [C]-N--CA-[CB] |==|  0.46763
USER: genes 3 Torsion [N]-CA--C-[N] |==|  0.40240
USER: genes 4 Torsion [C]-N--CA-[C] |==|  0.74576
USER: genes 5 Torsion [N]-CA--CB-[SG] |==|  0.24057
USER: genes 6 Torsion [CA]-CB--SG-[HG] |==|  0.37928
USER: genes 7 Torsion [N]-CA--C-[N] |==|  0.97383
USER: genes 8 Torsion [C]-N--CA-[CB] |==|  0.74827
USER: genes 9 Torsion [N]-CA--C-[N] |==|  0.20141
USER: genes 10 Torsion [C]-N--CA-[CB] |==|  0.35206
USER: genes 11 Torsion [N]-CA--C-[O] |==|  0.33764
USER: genes 12 Torsion [N]-CA--CB-[CG2] |==|  0.05785
USER: genes 13 Torsion [O]-C--CA-[N] |==|  0.46232
USER: genes 14 Torsion [N]-C--CA-[N] |==|  0.89480
USER: genes 15 Torsion [C]-CA--N-[C] |==|  0.81667
USER: genes 16 Torsion [N]-C--CA-[N] |==|  0.72784
USER: genes 17 Torsion [C]-CA--CB-[OG] |==|  0.11807
USER: genes 18 Torsion [CA]-CB--OG-[HG] |==|  0.09577
USER: genes 19 Torsion [C]-CA--CB-[CG] |==|  0.43820
USER: genes 20 Torsion [CA]-CB--CG-[ND2] |==|  0.62396
ROOT
ATOM      1  C   PRO X1002      19.500  41.483  23.129  1.00 98.27 LIG 0.24  C 
ATOM      2 O    PRO X1002      20.602  40.952  23.167  1.00 97.40 LIG-0.27  OA
ATOM      3  N   ALA X1003      18.703  41.587  24.189  1.00 97.43 LIG-0.35  N 
ATOM      4 H    ALA X1003      18.038  42.131  24.232  1.00 97.43 LIG 0.16  HD
ENDROOT
BRANCH 3 5
ATOM      5  CA  ALA X1003      18.888  40.774  25.392  1.00 96.73 LIG 0.17  C 
ATOM      6  CB  ALA X1003      18.031  41.299  26.521  1.00 96.74 LIG 0.04  C 
BRANCH 5 7
ATOM      7  C   ALA X1003      18.472  39.358  24.990  1.00 95.66 LIG 0.24  C 
ATOM      8 O    ALA X1003      17.550  39.211  24.204  1.00 95.14 LIG-0.27  OA
ATOM      9  N   CYS X1004      19.099  38.301  25.493  1.00 94.40 LIG-0.34  N 
ATOM     10 H    CYS X1004      19.013  37.523  25.136  1.00 94.40 LIG 0.16  HD
BRANCH 9 11
ATOM     11  CA  CYS X1004      19.982  38.269  26.660  1.00 94.17 LIG 0.18  C 
BRANCH 11 12
ATOM     12  CB  CYS X1004      19.812  36.885  27.328  1.00 94.12 LIG 0.10  C 
BRANCH 12 13
ATOM     13 SG   CYS X1004      20.800  35.531  26.752  1.00 91.26 LIG-0.18  SA
ATOM     14 HG   CYS X1004      21.220  34.913  27.691  1.00 91.26 LIG 0.10  HD
ENDBRANCH 12 13
ENDBRANCH 11 12
BRANCH 11 15
ATOM     15  C   CYS X1004      21.462  38.481  26.288  1.00 93.84 LIG 0.24  C 
ATOM     16 O    CYS X1004      22.305  38.698  27.145  1.00 93.01 LIG-0.27  OA
ATOM     17  N   VAL X1005      21.753  38.466  24.997  1.00 93.78 LIG-0.35  N 
ATOM     18 H    VAL X1005      21.156  38.450  24.377  1.00 93.78 LIG 0.16  HD
BRANCH 17 19
ATOM     19  CA  VAL X1005      23.130  38.473  24.494  1.00 93.73 LIG 0.18  C 
BRANCH 19 20
ATOM     20  C   VAL X1005      24.089  37.702  25.410  1.00 93.48 LIG 0.24  C 
ATOM     21  N   ALA X1006      23.980  36.375  25.401  1.00 93.27 LIG-0.35  N 
ATOM     22 H    ALA X1006      23.407  35.951  24.921  1.00 93.27 LIG 0.16  HD
ATOM     23 O    VAL X1005      24.896  38.301  26.113  1.00 93.20 LIG-0.27  OA
BRANCH 21 24
ATOM     24  CA  ALA X1006      24.829  35.504  26.211  1.00 93.01 LIG 0.16  C 
ATOM     25  CB  ALA X1006      23.984  34.575  27.033  1.00 92.79 LIG 0.04  C 
BRANCH 24 26
ATOM     26  C   ALA X1006      25.785  34.707  25.337  1.00 92.71 LIG 0.22  C 
ATOM     27 O    ALA X1006      27.001  34.786  25.485  1.00 91.80 LIG-0.29  OA
ENDBRANCH 24 26
ENDBRANCH 21 24
ENDBRANCH 19 20
BRANCH 19 28
ATOM     28  CB  VAL X1005      23.590  39.946  24.282  1.00 93.65 LIG 0.01  C 
ATOM     29  CG2 VAL X1005      22.723  40.866  25.110  1.00 92.72 LIG 0.01  C 
ATOM     30  CG1 VAL X1005      23.600  40.346  22.815  1.00 92.97 LIG 0.01  C 
ENDBRANCH 19 28
ENDBRANCH 17 19
ENDBRANCH 11 15
ENDBRANCH 9 11
ENDBRANCH 5 7
ENDBRANCH 3 5
BRANCH 1 31
ATOM     31  CA  PRO X1002      18.987  42.128  21.839  1.00 99.31 LIG 0.18  C 
ATOM     32  N   PRO X1002      17.558  42.451  21.817  1.00 99.88 LIG-0.34  N 
ATOM     33  CD  PRO X1002      17.344  43.895  21.957  1.00 99.70 LIG 0.13  C 
ATOM     34  C   ASN X1001      16.671  41.462  21.616  1.00100.64 LIG 0.24  C 
ATOM     35  CG  PRO X1002      18.533  44.435  21.281  1.00 99.65 LIG 0.02  C 
ATOM     36  CB  PRO X1002      19.649  43.494  21.635  1.00 99.37 LIG 0.04  C 
ATOM     37 O    ASN X1001      17.030  40.306  21.425  1.00100.22 LIG-0.27  OA
BRANCH 34 38
ATOM     38  CA  ASN X1001      15.176  41.834  21.518  1.00101.23 LIG 0.18  C 
BRANCH 38 39
ATOM     39  N   ASN X1001      14.942  42.906  22.497  1.00101.62 LIG-0.34  N 
ATOM     40  C   SER X1000      15.060  42.661  23.804  1.00101.89 LIG 0.26  C 
ATOM     41 O    SER X1000      14.948  41.523  24.282  1.00101.60 LIG-0.27  OA
ATOM     42 H    ASN X1001      14.733  43.669  22.160  1.00101.62 LIG 0.16  HD
BRANCH 40 43
ATOM     43  CA  SER X1000      15.336  43.860  24.723  1.00101.91 LIG 0.42  C 
ATOM     44  N   SER X1000      16.780  43.989  25.052  1.00101.55 LIG 0.62  N 
BRANCH 43 45
ATOM     45  CB  SER X1000      14.810  45.161  24.120  1.00101.96 LIG 0.21  C 
BRANCH 45 46
ATOM     46 OG   SER X1000      13.528  45.000  23.538  1.00101.15 LIG-0.40  OA
ATOM     47 HG   SER X1000      13.086  44.442  23.983  1.00101.15 LIG 0.21  HD
ENDBRANCH 45 46
ENDBRANCH 43 45
ENDBRANCH 40 43
ENDBRANCH 38 39
BRANCH 38 48
ATOM     48  CB  ASN X1001      14.663  42.208  20.105  1.00101.08 LIG 0.14  C 
BRANCH 48 49
ATOM     49  CG  ASN X1001      13.149  42.050  19.914  1.00100.04 LIG 0.22  C 
ATOM     50  ND2 ASN X1001      12.730  41.471  18.803  1.00 98.76 LIG-0.37  N 
ATOM     51 21HD ASN X1001      11.890  41.331  18.682  1.00 98.76 LIG 0.16  HD
ATOM     52 22HD ASN X1001      13.297  41.233  18.201  1.00 98.76 LIG 0.16  HD
ATOM     53 OD1  ASN X1001      12.377  42.404  20.794  1.00 97.91 LIG-0.27  OA
ENDBRANCH 48 49
ENDBRANCH 38 48
ENDBRANCH 34 38
ENDBRANCH 1 31
TORSDOF 19
ENDMDL
MODEL 58
USER: ADFR SOLUTION from run 96
USER: SCORE 12.746389 LL:  -3.032 LR: -11.329 RR:   0.000 FEB:  -5.661
USER: RMSD 9.634399
USER: SEED 95
USER: STATUS no improvement in best in 25 clusters for 5 generations
USER: GENES 21
USER: genes 0 Translation |==|  0.59937 0.63512 0.38437
USER: genes 1 Rotation |==|  0.55221 0.26795 0.18053 0.80227
USER: genes 2 Torsion [C]-N--CA-[CB] |==|  0.50575
USER: genes 3 Torsion [N]-CA--C-[N] |==|  0.47285
USER: genes 4 Torsion [C]-N--CA-[C] |==|  0.67015
USER: genes 5 Torsion [N]-CA--CB-[SG] |==|  0.46069
USER: genes 6 Torsion [CA]-CB--SG-[HG] |==|  0.93790
USER: genes 7 Torsion [N]-CA--C-[N] |==|  0.98026
USER: genes 8 Torsion [C]-N--CA-[CB] |==|  0.84980
USER: genes 9 Torsion [N]-CA--C-[N] |==|  0.97665
USER: genes 10 Torsion [C]-N--CA-[CB] |==|  0.51527
USER: genes 11 Torsion [N]-CA--C-[O] |==|  0.33162
USER: genes 12 Torsion [N]-CA--CB-[CG2] |==|  0.69274
USER: genes 13 Torsion [O]-C--CA-[N] |==|  0.72611
USER: genes 14 Torsion [N]-C--CA-[N] |==|  0.23000
USER: genes 15 Torsion [C]-CA--N-[C] |==|  0.70556
USER: genes 16 Torsion [N]-C--CA-[N] |==|  0.51066
USER: genes 17 Torsion [C]-CA--CB-[OG] |==|  0.37069
USER: genes 18 Torsion [CA]-CB--OG-[HG] |==|  0.19158
USER: genes 19 Torsion [C]-CA--CB-[CG] |==|  0.14795
USER: genes 20 Torsion [CA]-CB--CG-[ND2] |==|  0.28203
ROOT
ATOM      1  C   PRO X1002      18.514  40.444  24.280  1.00 98.27 LIG 0.24  C 
ATOM      2 O    PRO X1002      19.695  40.677  24.061  1.00 97.40 LIG-0.27  OA
ATOM      3  N   ALA X1003      18.092  39.719  25.312  1.00 97.43 LIG-0.35  N 
ATOM      4 H    ALA X1003      17.280  39.726  25.598  1.00 97.43 LIG 0.16  HD
ENDROOT
BRANCH 3 5
ATOM      5  CA  ALA X1003      18.982  38.834  26.066  1.00 96.73 LIG 0.17  C 
ATOM      6  CB  ALA X1003      18.213  38.106  27.145  1.00 96.74 LIG 0.04  C 
BRANCH 5 7
ATOM      7  C   ALA X1003      19.549  37.860  25.033  1.00 95.66 LIG 0.24  C 
ATOM      8 O    ALA X1003      19.071  37.840  23.910  1.00 95.14 LIG-0.27  OA
ATOM      9  N   CYS X1004      20.544  37.040  25.353  1.00 94.40 LIG-0.34  N 
ATOM     10 H    CYS X1004      20.998  36.635  24.744  1.00 94.40 LIG 0.16  HD
BRANCH 9 11
ATOM     11  CA  CYS X1004      21.014  36.700  26.697  1.00 94.17 LIG 0.18  C 
BRANCH 11 12
ATOM     12  CB  CYS X1004      20.873  35.170  26.861  1.00 94.12 LIG 0.10  C 
BRANCH 12 13
ATOM     13 SG   CYS X1004      21.696  34.377  28.216  1.00 91.26 LIG-0.18  SA
ATOM     14 HG   CYS X1004      22.606  35.064  28.589  1.00 91.26 LIG 0.10  HD
ENDBRANCH 12 13
ENDBRANCH 11 12
BRANCH 11 15
ATOM     15  C   CYS X1004      22.480  37.109  26.933  1.00 93.84 LIG 0.24  C 
ATOM     16 O    CYS X1004      22.980  37.061  28.046  1.00 93.01 LIG-0.27  OA
ATOM     17  N   VAL X1005      23.143  37.560  25.878  1.00 93.78 LIG-0.35  N 
ATOM     18 H    VAL X1005      22.770  37.728  25.122  1.00 93.78 LIG 0.16  HD
BRANCH 17 19
ATOM     19  CA  VAL X1005      24.586  37.817  25.900  1.00 93.73 LIG 0.18  C 
BRANCH 19 20
ATOM     20  C   VAL X1005      25.407  36.523  25.965  1.00 93.48 LIG 0.24  C 
ATOM     21  N   ALA X1006      24.726  35.396  26.167  1.00 93.27 LIG-0.35  N 
ATOM     22 H    ALA X1006      23.872  35.372  26.264  1.00 93.27 LIG 0.16  HD
ATOM     23 O    VAL X1005      26.627  36.552  25.847  1.00 93.20 LIG-0.27  OA
BRANCH 21 24
ATOM     24  CA  ALA X1006      25.366  34.084  26.242  1.00 93.01 LIG 0.16  C 
ATOM     25  CB  ALA X1006      24.327  33.007  26.342  1.00 92.79 LIG 0.04  C 
BRANCH 24 26
ATOM     26  C   ALA X1006      26.259  33.842  25.035  1.00 92.71 LIG 0.22  C 
ATOM     27 O    ALA X1006      27.464  33.648  25.162  1.00 91.80 LIG-0.29  OA
ENDBRANCH 24 26
ENDBRANCH 21 24
ENDBRANCH 19 20
BRANCH 19 28
ATOM     28  CB  VAL X1005      24.919  38.775  27.082  1.00 93.65 LIG 0.01  C 
ATOM     29  CG2 VAL X1005      25.336  40.120  26.535  1.00 92.72 LIG 0.01  C 
ATOM     30  CG1 VAL X1005      25.964  38.195  28.022  1.00 92.97 LIG 0.01  C 
ENDBRANCH 19 28
ENDBRANCH 17 19
ENDBRANCH 11 15
ENDBRANCH 9 11
ENDBRANCH 5 7
ENDBRANCH 3 5
BRANCH 1 31
ATOM     31  CA  PRO X1002      17.422  41.041  23.388  1.00 99.31 LIG 0.18  C 
ATOM     32  N   PRO X1002      16.769  42.246  23.906  1.00 99.88 LIG-0.34  N 
ATOM     33  CD  PRO X1002      17.222  43.440  23.185  1.00 99.70 LIG 0.13  C 
ATOM     34  C   ASN X1001      15.843  42.120  24.871  1.00100.64 LIG 0.24  C 
ATOM     35  CG  PRO X1002      17.464  42.896  21.840  1.00 99.65 LIG 0.02  C 
ATOM     36  CB  PRO X1002      18.028  41.521  22.066  1.00 99.37 LIG 0.04  C 
ATOM     37 O    ASN X1001      15.514  41.023  25.306  1.00100.22 LIG-0.27  OA
BRANCH 34 38
ATOM     38  CA  ASN X1001      15.112  43.393  25.348  1.00101.23 LIG 0.18  C 
BRANCH 38 39
ATOM     39  N   ASN X1001      14.021  43.638  24.393  1.00101.62 LIG-0.34  N 
ATOM     40  C   SER X1000      14.114  44.629  23.504  1.00101.89 LIG 0.26  C 
ATOM     41 O    SER X1000      14.849  45.611  23.675  1.00101.60 LIG-0.27  OA
ATOM     42 H    ASN X1001      13.350  43.104  24.462  1.00101.62 LIG 0.16  HD
BRANCH 40 43
ATOM     43  CA  SER X1000      13.257  44.518  22.234  1.00101.91 LIG 0.42  C 
ATOM     44  N   SER X1000      13.520  45.633  21.286  1.00101.55 LIG 0.62  N 
BRANCH 43 45
ATOM     45  CB  SER X1000      13.456  43.173  21.540  1.00101.96 LIG 0.21  C 
BRANCH 45 46
ATOM     46 OG   SER X1000      12.225  42.575  21.169  1.00101.15 LIG-0.40  OA
ATOM     47 HG   SER X1000      11.872  43.020  20.551  1.00101.15 LIG 0.21  HD
ENDBRANCH 45 46
ENDBRANCH 43 45
ENDBRANCH 40 43
ENDBRANCH 38 39
BRANCH 38 48
ATOM     48  CB  ASN X1001      14.615  43.378  26.816  1.00101.08 LIG 0.14  C 
BRANCH 48 49
ATOM     49  CG  ASN X1001      15.695  43.038  27.851  1.00100.04 LIG 0.22  C 
ATOM     50  ND2 ASN X1001      16.225  44.037  28.534  1.00 98.76 LIG-0.37  N 
ATOM     51 21HD ASN X1001      16.803  43.878  29.149  1.00 98.76 LIG 0.16  HD
ATOM     52 22HD ASN X1001      15.990  44.847  28.362  1.00 98.76 LIG 0.16  HD
ATOM     53 OD1  ASN X1001      16.000  41.872  28.062  1.00 97.91 LIG-0.27  OA
ENDBRANCH 48 49
ENDBRANCH 38 48
ENDBRANCH 34 38
ENDBRANCH 1 31
TORSDOF 19
ENDMDL
MODEL 59
USER: ADFR SOLUTION from run 131
USER: SCORE 12.709920 LL:  -2.758 LR: -11.317 RR:   0.000 FEB:  -5.649
USER: RMSD 9.719281
USER: SEED 130
USER: STATUS no improvement in best in 25 clusters for 5 generations
USER: GENES 21
USER: genes 0 Translation |==|  0.70925 0.62193 0.41728
USER: genes 1 Rotation |==|  0.39945 0.36120 0.90753 0.73354
USER: genes 2 Torsion [C]-N--CA-[CB] |==|  0.88052
USER: genes 3 Torsion [N]-CA--C-[N] |==|  0.43151
USER: genes 4 Torsion [C]-N--CA-[C] |==|  0.79287
USER: genes 5 Torsion [N]-CA--CB-[SG] |==|  0.36504
USER: genes 6 Torsion [CA]-CB--SG-[HG] |==|  0.25153
USER: genes 7 Torsion [N]-CA--C-[N] |==|  0.85699
USER: genes 8 Torsion [C]-N--CA-[CB] |==|  0.74444
USER: genes 9 Torsion [N]-CA--C-[N] |==|  0.24507
USER: genes 10 Torsion [C]-N--CA-[CB] |==|  0.21026
USER: genes 11 Torsion [N]-CA--C-[O] |==|  0.29788
USER: genes 12 Torsion [N]-CA--CB-[CG2] |==|  0.90512
USER: genes 13 Torsion [O]-C--CA-[N] |==|  0.00082
USER: genes 14 Torsion [N]-C--CA-[N] |==|  0.14152
USER: genes 15 Torsion [C]-CA--N-[C] |==|  0.62643
USER: genes 16 Torsion [N]-C--CA-[N] |==|  0.73877
USER: genes 17 Torsion [C]-CA--CB-[OG] |==|  0.15958
USER: genes 18 Torsion [CA]-CB--OG-[HG] |==|  0.62714
USER: genes 19 Torsion [C]-CA--CB-[CG] |==|  0.51286
USER: genes 20 Torsion [CA]-CB--CG-[ND2] |==|  0.19021
ROOT
ATOM      1  C   PRO X1002      21.151  40.177  24.922  1.00 98.27 LIG 0.24  C 
ATOM      2 O    PRO X1002      21.483  39.606  23.892  1.00 97.40 LIG-0.27  OA
ATOM      3  N   ALA X1003      20.057  40.927  25.021  1.00 97.43 LIG-0.35  N 
ATOM      4 H    ALA X1003      19.702  41.152  25.772  1.00 97.43 LIG 0.16  HD
ENDROOT
BRANCH 3 5
ATOM      5  CA  ALA X1003      19.350  41.443  23.848  1.00 96.73 LIG 0.17  C 
ATOM      6  CB  ALA X1003      20.333  41.964  22.826  1.00 96.74 LIG 0.04  C 
BRANCH 5 7
ATOM      7  C   ALA X1003      18.557  40.255  23.302  1.00 95.66 LIG 0.24  C 
ATOM      8 O    ALA X1003      18.946  39.122  23.537  1.00 95.14 LIG-0.27  OA
ATOM      9  N   CYS X1004      17.463  40.450  22.574  1.00 94.40 LIG-0.34  N 
ATOM     10 H    CYS X1004      16.907  39.810  22.429  1.00 94.40 LIG 0.16  HD
BRANCH 9 11
ATOM     11  CA  CYS X1004      17.037  41.695  21.933  1.00 94.17 LIG 0.18  C 
BRANCH 11 12
ATOM     12  CB  CYS X1004      15.939  41.333  20.907  1.00 94.12 LIG 0.10  C 
BRANCH 12 13
ATOM     13 SG   CYS X1004      14.433  42.267  20.902  1.00 91.26 LIG-0.18  SA
ATOM     14 HG   CYS X1004      14.541  43.197  20.153  1.00 91.26 LIG 0.10  HD
ENDBRANCH 12 13
ENDBRANCH 11 12
BRANCH 11 15
ATOM     15  C   CYS X1004      16.481  42.719  22.940  1.00 93.84 LIG 0.24  C 
ATOM     16 O    CYS X1004      16.927  43.855  23.000  1.00 93.01 LIG-0.27  OA
ATOM     17  N   VAL X1005      15.538  42.285  23.763  1.00 93.78 LIG-0.35  N 
ATOM     18 H    VAL X1005      15.310  41.458  23.826  1.00 93.78 LIG 0.16  HD
BRANCH 17 19
ATOM     19  CA  VAL X1005      14.787  43.177  24.650  1.00 93.73 LIG 0.18  C 
BRANCH 19 20
ATOM     20  C   VAL X1005      14.581  44.569  24.038  1.00 93.48 LIG 0.24  C 
ATOM     21  N   ALA X1006      13.499  44.729  23.278  1.00 93.27 LIG-0.35  N 
ATOM     22 H    ALA X1006      12.936  44.099  23.119  1.00 93.27 LIG 0.16  HD
ATOM     23 O    VAL X1005      15.390  45.466  24.243  1.00 93.20 LIG-0.27  OA
BRANCH 21 24
ATOM     24  CA  ALA X1006      13.161  45.998  22.635  1.00 93.01 LIG 0.16  C 
ATOM     25  CB  ALA X1006      14.046  46.226  21.445  1.00 92.79 LIG 0.04  C 
BRANCH 24 26
ATOM     26  C   ALA X1006      11.700  46.025  22.215  1.00 92.71 LIG 0.22  C 
ATOM     27 O    ALA X1006      10.876  46.709  22.817  1.00 91.80 LIG-0.29  OA
ENDBRANCH 24 26
ENDBRANCH 21 24
ENDBRANCH 19 20
BRANCH 19 28
ATOM     28  CB  VAL X1005      15.506  43.252  26.030  1.00 93.65 LIG 0.01  C 
ATOM     29  CG2 VAL X1005      16.134  41.914  26.340  1.00 92.72 LIG 0.01  C 
ATOM     30  CG1 VAL X1005      14.580  43.716  27.143  1.00 92.97 LIG 0.01  C 
ENDBRANCH 19 28
ENDBRANCH 17 19
ENDBRANCH 11 15
ENDBRANCH 9 11
ENDBRANCH 5 7
ENDBRANCH 3 5
BRANCH 1 31
ATOM     31  CA  PRO X1002      21.967  40.007  26.207  1.00 99.31 LIG 0.18  C 
ATOM     32  N   PRO X1002      23.142  39.139  26.101  1.00 99.88 LIG-0.34  N 
ATOM     33  CD  PRO X1002      24.378  39.927  26.090  1.00 99.70 LIG 0.13  C 
ATOM     34  C   ASN X1001      22.967  37.806  26.095  1.00100.64 LIG 0.24  C 
ATOM     35  CG  PRO X1002      24.010  41.062  26.949  1.00 99.65 LIG 0.02  C 
ATOM     36  CB  PRO X1002      22.572  41.351  26.626  1.00 99.37 LIG 0.04  C 
ATOM     37 O    ASN X1001      21.854  37.304  26.203  1.00100.22 LIG-0.27  OA
BRANCH 34 38
ATOM     38  CA  ASN X1001      24.222  36.908  26.062  1.00101.23 LIG 0.18  C 
BRANCH 38 39
ATOM     39  N   ASN X1001      25.105  37.375  27.139  1.00101.62 LIG-0.34  N 
ATOM     40  C   SER X1000      26.411  37.544  26.914  1.00101.89 LIG 0.26  C 
ATOM     41 O    SER X1000      27.011  36.958  26.003  1.00101.60 LIG-0.27  OA
ATOM     42 H    ASN X1001      24.717  37.522  27.893  1.00101.62 LIG 0.16  HD
BRANCH 40 43
ATOM     43  CA  SER X1000      27.167  38.504  27.845  1.00101.91 LIG 0.42  C 
ATOM     44  N   SER X1000      27.242  39.879  27.285  1.00101.55 LIG 0.62  N 
BRANCH 43 45
ATOM     45  CB  SER X1000      26.551  38.531  29.242  1.00101.96 LIG 0.21  C 
BRANCH 45 46
ATOM     46 OG   SER X1000      26.516  37.244  29.836  1.00101.15 LIG-0.40  OA
ATOM     47 HG   SER X1000      25.761  37.115  30.180  1.00101.15 LIG 0.21  HD
ENDBRANCH 45 46
ENDBRANCH 43 45
ENDBRANCH 40 43
ENDBRANCH 38 39
BRANCH 38 48
ATOM     48  CB  ASN X1001      23.963  35.382  26.135  1.00101.08 LIG 0.14  C 
BRANCH 48 49
ATOM     49  CG  ASN X1001      25.232  34.523  26.212  1.00100.04 LIG 0.22  C 
ATOM     50  ND2 ASN X1001      25.951  34.593  27.318  1.00 98.76 LIG-0.37  N 
ATOM     51 21HD ASN X1001      26.646  34.096  27.411  1.00 98.76 LIG 0.16  HD
ATOM     52 22HD ASN X1001      25.724  35.136  27.945  1.00 98.76 LIG 0.16  HD
ATOM     53 OD1  ASN X1001      25.519  33.766  25.296  1.00 97.91 LIG-0.27  OA
ENDBRANCH 48 49
ENDBRANCH 38 48
ENDBRANCH 34 38
ENDBRANCH 1 31
TORSDOF 19
ENDMDL
MODEL 60
USER: ADFR SOLUTION from run 159
USER: SCORE 13.930287 LL:  -3.894 LR: -11.309 RR:   0.000 FEB:  -5.642
USER: RMSD 8.313215
USER: SEED 158
USER: STATUS no improvement in best in 13 clusters for 5 generations
USER: GENES 21
USER: genes 0 Translation |==|  0.53871 0.72439 0.41451
USER: genes 1 Rotation |==|  0.28258 0.67880 0.50400 0.91321
USER: genes 2 Torsion [C]-N--CA-[CB] |==|  0.54510
USER: genes 3 Torsion [N]-CA--C-[N] |==|  0.34915
USER: genes 4 Torsion [C]-N--CA-[C] |==|  0.84335
USER: genes 5 Torsion [N]-CA--CB-[SG] |==|  0.27957
USER: genes 6 Torsion [CA]-CB--SG-[HG] |==|  0.26079
USER: genes 7 Torsion [N]-CA--C-[N] |==|  0.44770
USER: genes 8 Torsion [C]-N--CA-[CB] |==|  0.86429
USER: genes 9 Torsion [N]-CA--C-[N] |==|  0.84943
USER: genes 10 Torsion [C]-N--CA-[CB] |==|  0.82518
USER: genes 11 Torsion [N]-CA--C-[O] |==|  0.08818
USER: genes 12 Torsion [N]-CA--CB-[CG2] |==|  0.84699
USER: genes 13 Torsion [O]-C--CA-[N] |==|  0.32194
USER: genes 14 Torsion [N]-C--CA-[N] |==|  0.87090
USER: genes 15 Torsion [C]-CA--N-[C] |==|  0.84239
USER: genes 16 Torsion [N]-C--CA-[N] |==|  0.76744
USER: genes 17 Torsion [C]-CA--CB-[OG] |==|  0.18469
USER: genes 18 Torsion [CA]-CB--OG-[HG] |==|  0.19969
USER: genes 19 Torsion [C]-CA--CB-[CG] |==|  0.04757
USER: genes 20 Torsion [CA]-CB--CG-[ND2] |==|  0.69303
ROOT
ATOM      1  C   PRO X1002      17.058  42.252  24.868  1.00 98.27 LIG 0.24  C 
ATOM      2 O    PRO X1002      15.915  42.246  24.432  1.00 97.40 LIG-0.27  OA
ATOM      3  N   ALA X1003      18.127  42.490  24.113  1.00 97.43 LIG-0.35  N 
ATOM      4 H    ALA X1003      18.896  42.707  24.431  1.00 97.43 LIG 0.16  HD
ENDROOT
BRANCH 3 5
ATOM      5  CA  ALA X1003      18.090  42.403  22.651  1.00 96.73 LIG 0.17  C 
ATOM      6  CB  ALA X1003      19.492  42.328  22.091  1.00 96.74 LIG 0.04  C 
BRANCH 5 7
ATOM      7  C   ALA X1003      17.299  41.132  22.343  1.00 95.66 LIG 0.24  C 
ATOM      8 O    ALA X1003      17.658  40.075  22.836  1.00 95.14 LIG-0.27  OA
ATOM      9  N   CYS X1004      16.238  41.173  21.544  1.00 94.40 LIG-0.34  N 
ATOM     10 H    CYS X1004      15.677  40.521  21.518  1.00 94.40 LIG 0.16  HD
BRANCH 9 11
ATOM     11  CA  CYS X1004      15.860  42.252  20.630  1.00 94.17 LIG 0.18  C 
BRANCH 11 12
ATOM     12  CB  CYS X1004      14.511  41.858  19.986  1.00 94.12 LIG 0.10  C 
BRANCH 12 13
ATOM     13 SG   CYS X1004      13.021  42.583  20.613  1.00 91.26 LIG-0.18  SA
ATOM     14 HG   CYS X1004      12.747  43.557  19.967  1.00 91.26 LIG 0.10  HD
ENDBRANCH 12 13
ENDBRANCH 11 12
BRANCH 11 15
ATOM     15  C   CYS X1004      15.711  43.608  21.345  1.00 93.84 LIG 0.24  C 
ATOM     16 O    CYS X1004      15.515  43.671  22.549  1.00 93.01 LIG-0.27  OA
ATOM     17  N   VAL X1005      15.754  44.687  20.577  1.00 93.78 LIG-0.35  N 
ATOM     18 H    VAL X1005      15.755  44.656  19.718  1.00 93.78 LIG 0.16  HD
BRANCH 17 19
ATOM     19  CA  VAL X1005      15.807  46.046  21.123  1.00 93.73 LIG 0.18  C 
BRANCH 19 20
ATOM     20  C   VAL X1005      17.197  46.403  21.665  1.00 93.48 LIG 0.24  C 
ATOM     21  N   ALA X1006      17.716  45.570  22.565  1.00 93.27 LIG-0.35  N 
ATOM     22 H    ALA X1006      17.309  44.867  22.847  1.00 93.27 LIG 0.16  HD
ATOM     23 O    VAL X1005      17.775  47.415  21.281  1.00 93.20 LIG-0.27  OA
BRANCH 21 24
ATOM     24  CA  ALA X1006      19.034  45.769  23.164  1.00 93.01 LIG 0.16  C 
ATOM     25  CB  ALA X1006      20.098  45.702  22.109  1.00 92.79 LIG 0.04  C 
BRANCH 24 26
ATOM     26  C   ALA X1006      19.105  47.101  23.896  1.00 92.71 LIG 0.22  C 
ATOM     27 O    ALA X1006      18.115  47.583  24.439  1.00 91.80 LIG-0.29  OA
ENDBRANCH 24 26
ENDBRANCH 21 24
ENDBRANCH 19 20
BRANCH 19 28
ATOM     28  CB  VAL X1005      14.703  46.206  22.210  1.00 93.65 LIG 0.01  C 
ATOM     29  CG2 VAL X1005      13.361  45.842  21.618  1.00 92.72 LIG 0.01  C 
ATOM     30  CG1 VAL X1005      14.693  47.595  22.828  1.00 92.97 LIG 0.01  C 
ENDBRANCH 19 28
ENDBRANCH 17 19
ENDBRANCH 11 15
ENDBRANCH 9 11
ENDBRANCH 5 7
ENDBRANCH 3 5
BRANCH 1 31
ATOM     31  CA  PRO X1002      17.326  42.040  26.360  1.00 99.31 LIG 0.18  C 
ATOM     32  N   PRO X1002      18.079  40.830  26.703  1.00 99.88 LIG-0.34  N 
ATOM     33  CD  PRO X1002      19.458  41.158  27.079  1.00 99.70 LIG 0.13  C 
ATOM     34  C   ASN X1001      17.443  39.646  26.700  1.00100.64 LIG 0.24  C 
ATOM     35  CG  PRO X1002      19.285  42.477  27.706  1.00 99.65 LIG 0.02  C 
ATOM     36  CB  PRO X1002      18.219  43.162  26.898  1.00 99.37 LIG 0.04  C 
ATOM     37 O    ASN X1001      16.248  39.560  26.444  1.00100.22 LIG-0.27  OA
BRANCH 34 38
ATOM     38  CA  ASN X1001      18.233  38.395  27.139  1.00101.23 LIG 0.18  C 
BRANCH 38 39
ATOM     39  N   ASN X1001      19.527  38.447  26.444  1.00101.62 LIG-0.34  N 
ATOM     40  C   SER X1000      19.573  38.516  25.111  1.00101.89 LIG 0.26  C 
ATOM     41 O    SER X1000      18.641  38.131  24.391  1.00101.60 LIG-0.27  OA
ATOM     42 H    ASN X1001      20.218  38.428  26.956  1.00101.62 LIG 0.16  HD
BRANCH 40 43
ATOM     43  CA  SER X1000      20.849  39.092  24.479  1.00101.91 LIG 0.42  C 
ATOM     44  N   SER X1000      20.826  40.578  24.434  1.00101.55 LIG 0.62  N 
BRANCH 43 45
ATOM     45  CB  SER X1000      22.102  38.601  25.201  1.00101.96 LIG 0.21  C 
BRANCH 45 46
ATOM     46 OG   SER X1000      22.301  37.207  25.040  1.00101.15 LIG-0.40  OA
ATOM     47 HG   SER X1000      22.543  37.048  24.252  1.00101.15 LIG 0.21  HD
ENDBRANCH 45 46
ENDBRANCH 43 45
ENDBRANCH 40 43
ENDBRANCH 38 39
BRANCH 38 48
ATOM     48  CB  ASN X1001      18.396  38.200  28.668  1.00101.08 LIG 0.14  C 
BRANCH 48 49
ATOM     49  CG  ASN X1001      17.423  39.022  29.523  1.00100.04 LIG 0.22  C 
ATOM     50  ND2 ASN X1001      17.924  40.017  30.233  1.00 98.76 LIG-0.37  N 
ATOM     51 21HD ASN X1001      17.402  40.523  30.692  1.00 98.76 LIG 0.16  HD
ATOM     52 22HD ASN X1001      18.772  40.159  30.235  1.00 98.76 LIG 0.16  HD
ATOM     53 OD1  ASN X1001      16.224  38.785  29.491  1.00 97.91 LIG-0.27  OA
ENDBRANCH 48 49
ENDBRANCH 38 48
ENDBRANCH 34 38
ENDBRANCH 1 31
TORSDOF 19
ENDMDL
MODEL 61
USER: ADFR SOLUTION from run 177
USER: SCORE 13.913412 LL:  -4.195 LR: -11.307 RR:   0.000 FEB:  -5.640
USER: RMSD 10.723028
USER: SEED 176
USER: STATUS 1 or 2 clusters left
USER: GENES 21
USER: genes 0 Translation |==|  0.54015 0.68338 0.24303
USER: genes 1 Rotation |==|  0.46276 0.30177 0.91217 0.69858
USER: genes 2 Torsion [C]-N--CA-[CB] |==|  0.17757
USER: genes 3 Torsion [N]-CA--C-[N] |==|  0.13094
USER: genes 4 Torsion [C]-N--CA-[C] |==|  0.55994
USER: genes 5 Torsion [N]-CA--CB-[SG] |==|  0.77152
USER: genes 6 Torsion [CA]-CB--SG-[HG] |==|  0.13009
USER: genes 7 Torsion [N]-CA--C-[N] |==|  0.49055
USER: genes 8 Torsion [C]-N--CA-[CB] |==|  0.51300
USER: genes 9 Torsion [N]-CA--C-[N] |==|  0.31165
USER: genes 10 Torsion [C]-N--CA-[CB] |==|  0.21991
USER: genes 11 Torsion [N]-CA--C-[O] |==|  0.92079
USER: genes 12 Torsion [N]-CA--CB-[CG2] |==|  0.89706
USER: genes 13 Torsion [O]-C--CA-[N] |==|  0.28064
USER: genes 14 Torsion [N]-C--CA-[N] |==|  0.32018
USER: genes 15 Torsion [C]-CA--N-[C] |==|  0.83176
USER: genes 16 Torsion [N]-C--CA-[N] |==|  0.38396
USER: genes 17 Torsion [C]-CA--CB-[OG] |==|  0.31285
USER: genes 18 Torsion [CA]-CB--OG-[HG] |==|  0.20295
USER: genes 19 Torsion [C]-CA--CB-[CG] |==|  0.02459
USER: genes 20 Torsion [CA]-CB--CG-[ND2] |==|  0.65163
ROOT
ATOM      1  C   PRO X1002      17.093  41.421  21.524  1.00 98.27 LIG 0.24  C 
ATOM      2 O    PRO X1002      17.449  41.245  20.367  1.00 97.40 LIG-0.27  OA
ATOM      3  N   ALA X1003      15.871  41.826  21.858  1.00 97.43 LIG-0.35  N 
ATOM      4 H    ALA X1003      15.544  41.749  22.651  1.00 97.43 LIG 0.16  HD
ENDROOT
BRANCH 3 5
ATOM      5  CA  ALA X1003      14.959  42.446  20.896  1.00 96.73 LIG 0.17  C 
ATOM      6  CB  ALA X1003      14.599  41.467  19.802  1.00 96.74 LIG 0.04  C 
BRANCH 5 7
ATOM      7  C   ALA X1003      13.728  42.849  21.708  1.00 95.66 LIG 0.24  C 
ATOM      8 O    ALA X1003      12.618  42.581  21.277  1.00 95.14 LIG-0.27  OA
ATOM      9  N   CYS X1004      13.861  43.489  22.864  1.00 94.40 LIG-0.34  N 
ATOM     10 H    CYS X1004      13.205  43.546  23.418  1.00 94.40 LIG 0.16  HD
BRANCH 9 11
ATOM     11  CA  CYS X1004      15.058  44.164  23.369  1.00 94.17 LIG 0.18  C 
BRANCH 11 12
ATOM     12  CB  CYS X1004      15.118  45.557  22.700  1.00 94.12 LIG 0.10  C 
BRANCH 12 13
ATOM     13 SG   CYS X1004      15.797  45.692  21.069  1.00 91.26 LIG-0.18  SA
ATOM     14 HG   CYS X1004      15.330  44.837  20.368  1.00 91.26 LIG 0.10  HD
ENDBRANCH 12 13
ENDBRANCH 11 12
BRANCH 11 15
ATOM     15  C   CYS X1004      15.043  44.330  24.901  1.00 93.84 LIG 0.24  C 
ATOM     16 O    CYS X1004      14.062  44.021  25.561  1.00 93.01 LIG-0.27  OA
ATOM     17  N   VAL X1005      16.122  44.870  25.445  1.00 93.78 LIG-0.35  N 
ATOM     18 H    VAL X1005      16.762  45.216  24.986  1.00 93.78 LIG 0.16  HD
BRANCH 17 19
ATOM     19  CA  VAL X1005      16.334  44.929  26.895  1.00 93.73 LIG 0.18  C 
BRANCH 19 20
ATOM     20  C   VAL X1005      15.125  45.514  27.636  1.00 93.48 LIG 0.24  C 
ATOM     21  N   ALA X1006      14.445  44.678  28.419  1.00 93.27 LIG-0.35  N 
ATOM     22 H    ALA X1006      14.651  43.849  28.514  1.00 93.27 LIG 0.16  HD
ATOM     23 O    VAL X1005      14.814  46.692  27.489  1.00 93.20 LIG-0.27  OA
BRANCH 21 24
ATOM     24  CA  ALA X1006      13.278  45.090  29.196  1.00 93.01 LIG 0.16  C 
ATOM     25  CB  ALA X1006      12.066  45.156  28.315  1.00 92.79 LIG 0.04  C 
BRANCH 24 26
ATOM     26  C   ALA X1006      13.031  44.138  30.356  1.00 92.71 LIG 0.22  C 
ATOM     27 O    ALA X1006      13.365  42.958  30.295  1.00 91.80 LIG-0.29  OA
ENDBRANCH 24 26
ENDBRANCH 21 24
ENDBRANCH 19 20
BRANCH 19 28
ATOM     28  CB  VAL X1005      17.638  45.728  27.190  1.00 93.65 LIG 0.01  C 
ATOM     29  CG2 VAL X1005      18.669  45.412  26.133  1.00 92.72 LIG 0.01  C 
ATOM     30  CG1 VAL X1005      18.167  45.476  28.593  1.00 92.97 LIG 0.01  C 
ENDBRANCH 19 28
ENDBRANCH 17 19
ENDBRANCH 11 15
ENDBRANCH 9 11
ENDBRANCH 5 7
ENDBRANCH 3 5
BRANCH 1 31
ATOM     31  CA  PRO X1002      18.041  41.120  22.688  1.00 99.31 LIG 0.18  C 
ATOM     32  N   PRO X1002      18.700  42.284  23.285  1.00 99.88 LIG-0.34  N 
ATOM     33  CD  PRO X1002      18.112  42.610  24.588  1.00 99.70 LIG 0.13  C 
ATOM     34  C   ASN X1001      19.743  42.840  22.645  1.00100.64 LIG 0.24  C 
ATOM     35  CG  PRO X1002      17.730  41.278  25.079  1.00 99.65 LIG 0.02  C 
ATOM     36  CB  PRO X1002      17.257  40.530  23.865  1.00 99.37 LIG 0.04  C 
ATOM     37 O    ASN X1001      20.169  42.381  21.592  1.00100.22 LIG-0.27  OA
BRANCH 34 38
ATOM     38  CA  ASN X1001      20.473  44.016  23.328  1.00101.23 LIG 0.18  C 
BRANCH 38 39
ATOM     39  N   ASN X1001      21.838  43.555  23.620  1.00101.62 LIG-0.34  N 
ATOM     40  C   SER X1000      22.037  42.507  24.423  1.00101.89 LIG 0.26  C 
ATOM     41 O    SER X1000      21.203  42.144  25.264  1.00101.60 LIG-0.27  OA
ATOM     42 H    ASN X1001      22.464  44.006  23.240  1.00101.62 LIG 0.16  HD
BRANCH 40 43
ATOM     43  CA  SER X1000      23.366  41.751  24.278  1.00101.91 LIG 0.42  C 
ATOM     44  N   SER X1000      23.944  41.383  25.597  1.00101.55 LIG 0.62  N 
BRANCH 43 45
ATOM     45  CB  SER X1000      23.211  40.511  23.400  1.00101.96 LIG 0.21  C 
BRANCH 45 46
ATOM     46 OG   SER X1000      23.915  40.631  22.176  1.00101.15 LIG-0.40  OA
ATOM     47 HG   SER X1000      24.739  40.560  22.318  1.00101.15 LIG 0.21  HD
ENDBRANCH 45 46
ENDBRANCH 43 45
ENDBRANCH 40 43
ENDBRANCH 38 39
BRANCH 38 48
ATOM     48  CB  ASN X1001      20.459  45.360  22.557  1.00101.08 LIG 0.14  C 
BRANCH 48 49
ATOM     49  CG  ASN X1001      19.541  45.381  21.327  1.00100.04 LIG 0.22  C 
ATOM     50  ND2 ASN X1001      20.077  45.727  20.170  1.00 98.76 LIG-0.37  N 
ATOM     51 21HD ASN X1001      19.601  45.711  19.455  1.00 98.76 LIG 0.16  HD
ATOM     52 22HD ASN X1001      20.902  45.968  20.133  1.00 98.76 LIG 0.16  HD
ATOM     53 OD1  ASN X1001      18.374  45.032  21.426  1.00 97.91 LIG-0.27  OA
ENDBRANCH 48 49
ENDBRANCH 38 48
ENDBRANCH 34 38
ENDBRANCH 1 31
TORSDOF 19
ENDMDL
MODEL 62
USER: ADFR SOLUTION from run 80
USER: SCORE 14.066471 LL:  -4.156 LR: -11.296 RR:   0.000 FEB:  -5.628
USER: RMSD 10.819098
USER: SEED 79
USER: STATUS no improvement in best in 5 clusters for 5 generations
USER: GENES 21
USER: genes 0 Translation |==|  0.53602 0.69844 0.25683
USER: genes 1 Rotation |==|  0.46246 0.26515 0.91678 0.64046
USER: genes 2 Torsion [C]-N--CA-[CB] |==|  0.21542
USER: genes 3 Torsion [N]-CA--C-[N] |==|  0.14203
USER: genes 4 Torsion [C]-N--CA-[C] |==|  0.56995
USER: genes 5 Torsion [N]-CA--CB-[SG] |==|  0.04917
USER: genes 6 Torsion [CA]-CB--SG-[HG] |==|  0.74656
USER: genes 7 Torsion [N]-CA--C-[N] |==|  0.11397
USER: genes 8 Torsion [C]-N--CA-[CB] |==|  0.83884
USER: genes 9 Torsion [N]-CA--C-[N] |==|  0.95173
USER: genes 10 Torsion [C]-N--CA-[CB] |==|  0.15920
USER: genes 11 Torsion [N]-CA--C-[O] |==|  0.14068
USER: genes 12 Torsion [N]-CA--CB-[CG2] |==|  0.66088
USER: genes 13 Torsion [O]-C--CA-[N] |==|  0.20690
USER: genes 14 Torsion [N]-C--CA-[N] |==|  0.35495
USER: genes 15 Torsion [C]-CA--N-[C] |==|  0.84444
USER: genes 16 Torsion [N]-C--CA-[N] |==|  0.38878
USER: genes 17 Torsion [C]-CA--CB-[OG] |==|  0.33493
USER: genes 18 Torsion [CA]-CB--OG-[HG] |==|  0.20393
USER: genes 19 Torsion [C]-CA--CB-[CG] |==|  0.01513
USER: genes 20 Torsion [CA]-CB--CG-[ND2] |==|  0.64865
ROOT
ATOM      1  C   PRO X1002      16.993  41.726  21.793  1.00 98.27 LIG 0.24  C 
ATOM      2 O    PRO X1002      17.536  41.754  20.697  1.00 97.40 LIG-0.27  OA
ATOM      3  N   ALA X1003      15.679  41.839  21.960  1.00 97.43 LIG-0.35  N 
ATOM      4 H    ALA X1003      15.270  41.611  22.683  1.00 97.43 LIG 0.16  HD
ENDROOT
BRANCH 3 5
ATOM      5  CA  ALA X1003      14.797  42.366  20.917  1.00 96.73 LIG 0.17  C 
ATOM      6  CB  ALA X1003      14.547  41.318  19.857  1.00 96.74 LIG 0.04  C 
BRANCH 5 7
ATOM      7  C   ALA X1003      13.504  42.748  21.638  1.00 95.66 LIG 0.24  C 
ATOM      8 O    ALA X1003      12.439  42.344  21.200  1.00 95.14 LIG-0.27  OA
ATOM      9  N   CYS X1004      13.535  43.516  22.721  1.00 94.40 LIG-0.34  N 
ATOM     10 H    CYS X1004      12.853  43.576  23.242  1.00 94.40 LIG 0.16  HD
BRANCH 9 11
ATOM     11  CA  CYS X1004      14.651  44.338  23.191  1.00 94.17 LIG 0.18  C 
BRANCH 11 12
ATOM     12  CB  CYS X1004      14.575  45.689  22.442  1.00 94.12 LIG 0.10  C 
BRANCH 12 13
ATOM     13 SG   CYS X1004      13.055  46.142  21.651  1.00 91.26 LIG-0.18  SA
ATOM     14 HG   CYS X1004      13.065  45.758  20.514  1.00 91.26 LIG 0.10  HD
ENDBRANCH 12 13
ENDBRANCH 11 12
BRANCH 11 15
ATOM     15  C   CYS X1004      14.603  44.590  24.710  1.00 93.84 LIG 0.24  C 
ATOM     16 O    CYS X1004      14.916  45.672  25.182  1.00 93.01 LIG-0.27  OA
ATOM     17  N   VAL X1005      14.258  43.560  25.467  1.00 93.78 LIG-0.35  N 
ATOM     18 H    VAL X1005      14.167  42.760  25.164  1.00 93.78 LIG 0.16  HD
BRANCH 17 19
ATOM     19  CA  VAL X1005      13.994  43.685  26.903  1.00 93.73 LIG 0.18  C 
BRANCH 19 20
ATOM     20  C   VAL X1005      12.742  44.522  27.195  1.00 93.48 LIG 0.24  C 
ATOM     21  N   ALA X1006      12.297  45.291  26.202  1.00 93.27 LIG-0.35  N 
ATOM     22 H    ALA X1006      12.678  45.337  25.433  1.00 93.27 LIG 0.16  HD
ATOM     23 O    VAL X1005      12.204  44.477  28.296  1.00 93.20 LIG-0.27  OA
BRANCH 21 24
ATOM     24  CA  ALA X1006      11.111  46.137  26.324  1.00 93.01 LIG 0.16  C 
ATOM     25  CB  ALA X1006      11.271  47.090  27.471  1.00 92.79 LIG 0.04  C 
BRANCH 24 26
ATOM     26  C   ALA X1006      10.854  46.904  25.036  1.00 92.71 LIG 0.22  C 
ATOM     27 O    ALA X1006      10.819  46.333  23.950  1.00 91.80 LIG-0.29  OA
ENDBRANCH 24 26
ENDBRANCH 21 24
ENDBRANCH 19 20
BRANCH 19 28
ATOM     28  CB  VAL X1005      15.256  44.265  27.608  1.00 93.65 LIG 0.01  C 
ATOM     29  CG2 VAL X1005      15.721  43.302  28.675  1.00 92.72 LIG 0.01  C 
ATOM     30  CG1 VAL X1005      15.019  45.660  28.166  1.00 92.97 LIG 0.01  C 
ENDBRANCH 19 28
ENDBRANCH 17 19
ENDBRANCH 11 15
ENDBRANCH 9 11
ENDBRANCH 5 7
ENDBRANCH 3 5
BRANCH 1 31
ATOM     31  CA  PRO X1002      17.814  41.495  23.065  1.00 99.31 LIG 0.18  C 
ATOM     32  N   PRO X1002      18.621  42.632  23.515  1.00 99.88 LIG-0.34  N 
ATOM     33  CD  PRO X1002      18.023  43.268  24.693  1.00 99.70 LIG 0.13  C 
ATOM     34  C   ASN X1001      19.774  42.901  22.880  1.00100.64 LIG 0.24  C 
ATOM     35  CG  PRO X1002      17.401  42.116  25.364  1.00 99.65 LIG 0.02  C 
ATOM     36  CB  PRO X1002      16.880  41.247  24.254  1.00 99.37 LIG 0.04  C 
ATOM     37 O    ASN X1001      20.177  42.205  21.956  1.00100.22 LIG-0.27  OA
BRANCH 34 38
ATOM     38  CA  ASN X1001      20.647  44.055  23.418  1.00101.23 LIG 0.18  C 
BRANCH 38 39
ATOM     39  N   ASN X1001      21.999  43.509  23.609  1.00101.62 LIG-0.34  N 
ATOM     40  C   SER X1000      22.189  42.437  24.382  1.00101.89 LIG 0.26  C 
ATOM     41 O    SER X1000      21.394  42.110  25.274  1.00101.60 LIG-0.27  OA
ATOM     42 H    ASN X1001      22.624  43.928  23.192  1.00101.62 LIG 0.16  HD
BRANCH 40 43
ATOM     43  CA  SER X1000      23.457  41.607  24.136  1.00101.91 LIG 0.42  C 
ATOM     44  N   SER X1000      24.077  41.147  25.407  1.00101.55 LIG 0.62  N 
BRANCH 43 45
ATOM     45  CB  SER X1000      23.177  40.417  23.220  1.00101.96 LIG 0.21  C 
BRANCH 45 46
ATOM     46 OG   SER X1000      23.961  40.454  22.040  1.00101.15 LIG-0.40  OA
ATOM     47 HG   SER X1000      24.756  40.257  22.226  1.00101.15 LIG 0.21  HD
ENDBRANCH 45 46
ENDBRANCH 43 45
ENDBRANCH 40 43
ENDBRANCH 38 39
BRANCH 38 48
ATOM     48  CB  ASN X1001      20.653  45.352  22.569  1.00101.08 LIG 0.14  C 
BRANCH 48 49
ATOM     49  CG  ASN X1001      19.680  45.341  21.382  1.00100.04 LIG 0.22  C 
ATOM     50  ND2 ASN X1001      20.171  45.618  20.187  1.00 98.76 LIG-0.37  N 
ATOM     51 21HD ASN X1001      19.663  45.582  19.495  1.00 98.76 LIG 0.16  HD
ATOM     52 22HD ASN X1001      21.000  45.833  20.102  1.00 98.76 LIG 0.16  HD
ATOM     53 OD1  ASN X1001      18.510  45.030  21.549  1.00 97.91 LIG-0.27  OA
ENDBRANCH 48 49
ENDBRANCH 38 48
ENDBRANCH 34 38
ENDBRANCH 1 31
TORSDOF 19
ENDMDL
MODEL 63
USER: ADFR SOLUTION from run 69
USER: SCORE 12.845269 LL:  -3.016 LR: -11.289 RR:   0.000 FEB:  -5.621
USER: RMSD 9.255381
USER: SEED 68
USER: STATUS no improvement in best in 13 clusters for 5 generations
USER: GENES 21
USER: genes 0 Translation |==|  0.64559 0.55962 0.41809
USER: genes 1 Rotation |==|  0.40975 0.47753 0.79328 0.89413
USER: genes 2 Torsion [C]-N--CA-[CB] |==|  0.86111
USER: genes 3 Torsion [N]-CA--C-[N] |==|  0.51962
USER: genes 4 Torsion [C]-N--CA-[C] |==|  0.68161
USER: genes 5 Torsion [N]-CA--CB-[SG] |==|  0.21227
USER: genes 6 Torsion [CA]-CB--SG-[HG] |==|  0.19517
USER: genes 7 Torsion [N]-CA--C-[N] |==|  0.14024
USER: genes 8 Torsion [C]-N--CA-[CB] |==|  0.82955
USER: genes 9 Torsion [N]-CA--C-[N] |==|  0.93457
USER: genes 10 Torsion [C]-N--CA-[CB] |==|  0.14648
USER: genes 11 Torsion [N]-CA--C-[O] |==|  0.14201
USER: genes 12 Torsion [N]-CA--CB-[CG2] |==|  0.28266
USER: genes 13 Torsion [O]-C--CA-[N] |==|  0.39957
USER: genes 14 Torsion [N]-C--CA-[N] |==|  0.32855
USER: genes 15 Torsion [C]-CA--N-[C] |==|  0.80889
USER: genes 16 Torsion [N]-C--CA-[N] |==|  0.52374
USER: genes 17 Torsion [C]-CA--CB-[OG] |==|  0.38333
USER: genes 18 Torsion [CA]-CB--OG-[HG] |==|  0.47327
USER: genes 19 Torsion [C]-CA--CB-[CG] |==|  0.02513
USER: genes 20 Torsion [CA]-CB--CG-[ND2] |==|  0.73200
ROOT
ATOM      1  C   PRO X1002      19.623  38.915  24.938  1.00 98.27 LIG 0.24  C 
ATOM      2 O    PRO X1002      19.061  38.336  24.017  1.00 97.40 LIG-0.27  OA
ATOM      3  N   ALA X1003      19.529  40.226  25.141  1.00 97.43 LIG-0.35  N 
ATOM      4 H    ALA X1003      19.733  40.608  25.885  1.00 97.43 LIG 0.16  HD
ENDROOT
BRANCH 3 5
ATOM      5  CA  ALA X1003      19.064  41.150  24.105  1.00 96.73 LIG 0.17  C 
ATOM      6  CB  ALA X1003      19.810  40.912  22.812  1.00 96.74 LIG 0.04  C 
BRANCH 5 7
ATOM      7  C   ALA X1003      17.571  40.861  23.948  1.00 95.66 LIG 0.24  C 
ATOM      8 O    ALA X1003      17.032  40.085  24.722  1.00 95.14 LIG-0.27  OA
ATOM      9  N   CYS X1004      16.869  41.438  22.980  1.00 94.40 LIG-0.34  N 
ATOM     10 H    CYS X1004      16.009  41.442  22.997  1.00 94.40 LIG 0.16  HD
BRANCH 9 11
ATOM     11  CA  CYS X1004      17.391  42.120  21.794  1.00 94.17 LIG 0.18  C 
BRANCH 11 12
ATOM     12  CB  CYS X1004      16.750  41.450  20.558  1.00 94.12 LIG 0.10  C 
BRANCH 12 13
ATOM     13 SG   CYS X1004      15.068  41.834  20.154  1.00 91.26 LIG-0.18  SA
ATOM     14 HG   CYS X1004      14.999  42.963  19.754  1.00 91.26 LIG 0.10  HD
ENDBRANCH 12 13
ENDBRANCH 11 12
BRANCH 11 15
ATOM     15  C   CYS X1004      17.068  43.626  21.788  1.00 93.84 LIG 0.24  C 
ATOM     16 O    CYS X1004      16.602  44.169  20.797  1.00 93.01 LIG-0.27  OA
ATOM     17  N   VAL X1005      17.369  44.298  22.888  1.00 93.78 LIG-0.35  N 
ATOM     18 H    VAL X1005      17.819  43.962  23.539  1.00 93.78 LIG 0.16  HD
BRANCH 17 19
ATOM     19  CA  VAL X1005      16.962  45.690  23.104  1.00 93.73 LIG 0.18  C 
BRANCH 19 20
ATOM     20  C   VAL X1005      15.437  45.849  23.158  1.00 93.48 LIG 0.24  C 
ATOM     21  N   ALA X1006      14.720  44.906  22.551  1.00 93.27 LIG-0.35  N 
ATOM     22 H    ALA X1006      15.070  44.238  22.138  1.00 93.27 LIG 0.16  HD
ATOM     23 O    VAL X1005      14.931  46.809  23.728  1.00 93.20 LIG-0.27  OA
BRANCH 21 24
ATOM     24  CA  ALA X1006      13.258  44.914  22.526  1.00 93.01 LIG 0.16  C 
ATOM     25  CB  ALA X1006      12.756  46.235  22.022  1.00 92.79 LIG 0.04  C 
BRANCH 24 26
ATOM     26  C   ALA X1006      12.721  43.784  21.660  1.00 92.71 LIG 0.22  C 
ATOM     27 O    ALA X1006      13.098  42.626  21.817  1.00 91.80 LIG-0.29  OA
ENDBRANCH 24 26
ENDBRANCH 21 24
ENDBRANCH 19 20
BRANCH 19 28
ATOM     28  CB  VAL X1005      17.599  46.587  22.001  1.00 93.65 LIG 0.01  C 
ATOM     29  CG2 VAL X1005      16.559  46.907  20.953  1.00 92.72 LIG 0.01  C 
ATOM     30  CG1 VAL X1005      18.844  45.961  21.392  1.00 92.97 LIG 0.01  C 
ENDBRANCH 19 28
ENDBRANCH 17 19
ENDBRANCH 11 15
ENDBRANCH 9 11
ENDBRANCH 5 7
ENDBRANCH 3 5
BRANCH 1 31
ATOM     31  CA  PRO X1002      20.440  38.133  25.970  1.00 99.31 LIG 0.18  C 
ATOM     32  N   PRO X1002      21.647  38.802  26.462  1.00 99.88 LIG-0.34  N 
ATOM     33  CD  PRO X1002      21.452  39.301  27.827  1.00 99.70 LIG 0.13  C 
ATOM     34  C   ASN X1001      22.742  38.821  25.684  1.00100.64 LIG 0.24  C 
ATOM     35  CG  PRO X1002      20.535  38.293  28.380  1.00 99.65 LIG 0.02  C 
ATOM     36  CB  PRO X1002      19.617  37.931  27.247  1.00 99.37 LIG 0.04  C 
ATOM     37 O    ASN X1001      22.762  38.271  24.589  1.00100.22 LIG-0.27  OA
BRANCH 34 38
ATOM     38  CA  ASN X1001      24.026  39.463  26.251  1.00101.23 LIG 0.18  C 
BRANCH 38 39
ATOM     39  N   ASN X1001      25.044  38.402  26.298  1.00101.62 LIG-0.34  N 
ATOM     40  C   SER X1000      24.922  37.390  27.159  1.00101.89 LIG 0.26  C 
ATOM     41 O    SER X1000      24.249  37.474  28.197  1.00101.60 LIG-0.27  OA
ATOM     42 H    ASN X1001      25.693  38.496  25.742  1.00101.62 LIG 0.16  HD
BRANCH 40 43
ATOM     43  CA  SER X1000      25.664  36.088  26.825  1.00101.91 LIG 0.42  C 
ATOM     44  N   SER X1000      25.289  34.981  27.745  1.00101.55 LIG 0.62  N 
BRANCH 43 45
ATOM     45  CB  SER X1000      25.438  35.672  25.373  1.00101.96 LIG 0.21  C 
BRANCH 45 46
ATOM     46 OG   SER X1000      26.628  35.206  24.759  1.00101.15 LIG-0.40  OA
ATOM     47 HG   SER X1000      26.444  34.866  24.014  1.00101.15 LIG 0.21  HD
ENDBRANCH 45 46
ENDBRANCH 43 45
ENDBRANCH 40 43
ENDBRANCH 38 39
BRANCH 38 48
ATOM     48  CB  ASN X1001      24.532  40.730  25.516  1.00101.08 LIG 0.14  C 
BRANCH 48 49
ATOM     49  CG  ASN X1001      23.562  41.287  24.465  1.00100.04 LIG 0.22  C 
ATOM     50  ND2 ASN X1001      23.756  40.936  23.207  1.00 98.76 LIG-0.37  N 
ATOM     51 21HD ASN X1001      23.209  41.197  22.598  1.00 98.76 LIG 0.16  HD
ATOM     52 22HD ASN X1001      24.431  40.445  22.996  1.00 98.76 LIG 0.16  HD
ATOM     53 OD1  ASN X1001      22.616  41.982  24.808  1.00 97.91 LIG-0.27  OA
ENDBRANCH 48 49
ENDBRANCH 38 48
ENDBRANCH 34 38
ENDBRANCH 1 31
TORSDOF 19
ENDMDL
MODEL 64
USER: ADFR SOLUTION from run 134
USER: SCORE 12.369505 LL:  -3.245 LR: -11.293 RR:   0.000 FEB:  -5.625
USER: RMSD 9.073873
USER: SEED 133
USER: STATUS no improvement in best in 7 clusters for 5 generations
USER: GENES 21
USER: genes 0 Translation |==|  0.62839 0.57023 0.38291
USER: genes 1 Rotation |==|  0.70474 0.66853 0.92292 0.52858
USER: genes 2 Torsion [C]-N--CA-[CB] |==|  0.19806
USER: genes 3 Torsion [N]-CA--C-[N] |==|  0.50447
USER: genes 4 Torsion [C]-N--CA-[C] |==|  0.78208
USER: genes 5 Torsion [N]-CA--CB-[SG] |==|  0.94991
USER: genes 6 Torsion [CA]-CB--SG-[HG] |==|  0.64769
USER: genes 7 Torsion [N]-CA--C-[N] |==|  0.43734
USER: genes 8 Torsion [C]-N--CA-[CB] |==|  0.49079
USER: genes 9 Torsion [N]-CA--C-[N] |==|  0.38524
USER: genes 10 Torsion [C]-N--CA-[CB] |==|  0.80849
USER: genes 11 Torsion [N]-CA--C-[O] |==|  0.05220
USER: genes 12 Torsion [N]-CA--CB-[CG2] |==|  0.25786
USER: genes 13 Torsion [O]-C--CA-[N] |==|  0.36455
USER: genes 14 Torsion [N]-C--CA-[N] |==|  0.84053
USER: genes 15 Torsion [C]-CA--N-[C] |==|  0.70556
USER: genes 16 Torsion [N]-C--CA-[N] |==|  0.41978
USER: genes 17 Torsion [C]-CA--CB-[OG] |==|  0.05080
USER: genes 18 Torsion [CA]-CB--OG-[HG] |==|  0.69290
USER: genes 19 Torsion [C]-CA--CB-[CG] |==|  0.46964
USER: genes 20 Torsion [CA]-CB--CG-[ND2] |==|  0.89471
ROOT
ATOM      1  C   PRO X1002      19.210  39.130  24.252  1.00 98.27 LIG 0.24  C 
ATOM      2 O    PRO X1002      19.111  37.956  23.921  1.00 97.40 LIG-0.27  OA
ATOM      3  N   ALA X1003      18.878  39.580  25.458  1.00 97.43 LIG-0.35  N 
ATOM      4 H    ALA X1003      19.136  40.339  25.771  1.00 97.43 LIG 0.16  HD
ENDROOT
BRANCH 3 5
ATOM      5  CA  ALA X1003      18.031  38.815  26.375  1.00 96.73 LIG 0.17  C 
ATOM      6  CB  ALA X1003      18.783  37.621  26.917  1.00 96.74 LIG 0.04  C 
BRANCH 5 7
ATOM      7  C   ALA X1003      17.659  39.792  27.491  1.00 95.66 LIG 0.24  C 
ATOM      8 O    ALA X1003      18.065  40.942  27.432  1.00 95.14 LIG-0.27  OA
ATOM      9  N   CYS X1004      16.911  39.397  28.514  1.00 94.40 LIG-0.34  N 
ATOM     10 H    CYS X1004      16.535  39.968  29.036  1.00 94.40 LIG 0.16  HD
BRANCH 9 11
ATOM     11  CA  CYS X1004      16.612  38.020  28.912  1.00 94.17 LIG 0.18  C 
BRANCH 11 12
ATOM     12  CB  CYS X1004      16.137  38.058  30.382  1.00 94.12 LIG 0.10  C 
BRANCH 12 13
ATOM     13 SG   CYS X1004      16.502  39.490  31.361  1.00 91.26 LIG-0.18  SA
ATOM     14 HG   CYS X1004      17.049  39.154  32.375  1.00 91.26 LIG 0.10  HD
ENDBRANCH 12 13
ENDBRANCH 11 12
BRANCH 11 15
ATOM     15  C   CYS X1004      15.522  37.374  28.036  1.00 93.84 LIG 0.24  C 
ATOM     16 O    CYS X1004      14.694  38.055  27.452  1.00 93.01 LIG-0.27  OA
ATOM     17  N   VAL X1005      15.506  36.050  27.997  1.00 93.78 LIG-0.35  N 
ATOM     18 H    VAL X1005      15.992  35.556  28.506  1.00 93.78 LIG 0.16  HD
BRANCH 17 19
ATOM     19  CA  VAL X1005      14.651  35.295  27.076  1.00 93.73 LIG 0.18  C 
BRANCH 19 20
ATOM     20  C   VAL X1005      13.163  35.614  27.268  1.00 93.48 LIG 0.24  C 
ATOM     21  N   ALA X1006      12.435  35.743  26.160  1.00 93.27 LIG-0.35  N 
ATOM     22 H    ALA X1006      12.761  35.662  25.369  1.00 93.27 LIG 0.16  HD
ATOM     23 O    VAL X1005      12.695  35.750  28.393  1.00 93.20 LIG-0.27  OA
BRANCH 21 24
ATOM     24  CA  ALA X1006      11.003  36.036  26.181  1.00 93.01 LIG 0.16  C 
ATOM     25  CB  ALA X1006      10.242  34.859  26.717  1.00 92.79 LIG 0.04  C 
BRANCH 24 26
ATOM     26  C   ALA X1006      10.711  37.273  27.015  1.00 92.71 LIG 0.22  C 
ATOM     27 O    ALA X1006      11.593  38.083  27.285  1.00 91.80 LIG-0.29  OA
ENDBRANCH 24 26
ENDBRANCH 21 24
ENDBRANCH 19 20
BRANCH 19 28
ATOM     28  CB  VAL X1005      14.943  33.773  27.237  1.00 93.65 LIG 0.01  C 
ATOM     29  CG2 VAL X1005      13.983  33.183  28.244  1.00 92.72 LIG 0.01  C 
ATOM     30  CG1 VAL X1005      16.392  33.496  27.605  1.00 92.97 LIG 0.01  C 
ENDBRANCH 19 28
ENDBRANCH 17 19
ENDBRANCH 11 15
ENDBRANCH 9 11
ENDBRANCH 5 7
ENDBRANCH 3 5
BRANCH 1 31
ATOM     31  CA  PRO X1002      19.796  40.166  23.288  1.00 99.31 LIG 0.18  C 
ATOM     32  N   PRO X1002      19.015  41.395  23.127  1.00 99.88 LIG-0.34  N 
ATOM     33  CD  PRO X1002      19.650  42.517  23.826  1.00 99.70 LIG 0.13  C 
ATOM     34  C   ASN X1001      17.917  41.370  22.354  1.00100.64 LIG 0.24  C 
ATOM     35  CG  PRO X1002      21.075  42.176  23.693  1.00 99.65 LIG 0.02  C 
ATOM     36  CB  PRO X1002      21.137  40.681  23.822  1.00 99.37 LIG 0.04  C 
ATOM     37 O    ASN X1001      17.571  40.355  21.761  1.00100.22 LIG-0.27  OA
BRANCH 34 38
ATOM     38  CA  ASN X1001      17.152  42.693  22.134  1.00101.23 LIG 0.18  C 
BRANCH 38 39
ATOM     39  N   ASN X1001      16.777  43.191  23.466  1.00101.62 LIG-0.34  N 
ATOM     40  C   SER X1000      15.512  43.109  23.883  1.00101.89 LIG 0.26  C 
ATOM     41 O    SER X1000      14.555  43.027  23.100  1.00101.60 LIG-0.27  OA
ATOM     42 H    ASN X1001      17.423  43.523  23.926  1.00101.62 LIG 0.16  HD
BRANCH 40 43
ATOM     43  CA  SER X1000      15.268  43.129  25.400  1.00101.91 LIG 0.42  C 
ATOM     44  N   SER X1000      13.942  43.709  25.743  1.00101.55 LIG 0.62  N 
BRANCH 43 45
ATOM     45  CB  SER X1000      15.412  41.736  26.008  1.00101.96 LIG 0.21  C 
BRANCH 45 46
ATOM     46 OG   SER X1000      16.122  40.852  25.158  1.00101.15 LIG-0.40  OA
ATOM     47 HG   SER X1000      15.598  40.269  24.859  1.00101.15 LIG 0.21  HD
ENDBRANCH 45 46
ENDBRANCH 43 45
ENDBRANCH 40 43
ENDBRANCH 38 39
BRANCH 38 48
ATOM     48  CB  ASN X1001      17.885  43.767  21.291  1.00101.08 LIG 0.14  C 
BRANCH 48 49
ATOM     49  CG  ASN X1001      17.009  44.954  20.869  1.00100.04 LIG 0.22  C 
ATOM     50  ND2 ASN X1001      15.756  44.701  20.535  1.00 98.76 LIG-0.37  N 
ATOM     51 21HD ASN X1001      15.227  45.347  20.332  1.00 98.76 LIG 0.16  HD
ATOM     52 22HD ASN X1001      15.470  43.889  20.522  1.00 98.76 LIG 0.16  HD
ATOM     53 OD1  ASN X1001      17.457  46.091  20.902  1.00 97.91 LIG-0.27  OA
ENDBRANCH 48 49
ENDBRANCH 38 48
ENDBRANCH 34 38
ENDBRANCH 1 31
TORSDOF 19
ENDMDL
MODEL 65
USER: ADFR SOLUTION from run 66
USER: SCORE 15.008445 LL:  -4.508 LR: -11.262 RR:   0.000 FEB:  -5.594
USER: RMSD 8.678173
USER: SEED 65
USER: STATUS no improvement in best in 4 clusters for 5 generations
USER: GENES 21
USER: genes 0 Translation |==|  0.65847 0.72240 0.36270
USER: genes 1 Rotation |==|  0.35283 0.91982 0.43928 0.72001
USER: genes 2 Torsion [C]-N--CA-[CB] |==|  0.50146
USER: genes 3 Torsion [N]-CA--C-[N] |==|  0.41597
USER: genes 4 Torsion [C]-N--CA-[C] |==|  0.81022
USER: genes 5 Torsion [N]-CA--CB-[SG] |==|  0.45479
USER: genes 6 Torsion [CA]-CB--SG-[HG] |==|  0.22000
USER: genes 7 Torsion [N]-CA--C-[N] |==|  0.45595
USER: genes 8 Torsion [C]-N--CA-[CB] |==|  0.75514
USER: genes 9 Torsion [N]-CA--C-[N] |==|  0.17863
USER: genes 10 Torsion [C]-N--CA-[CB] |==|  0.16199
USER: genes 11 Torsion [N]-CA--C-[O] |==|  0.74892
USER: genes 12 Torsion [N]-CA--CB-[CG2] |==|  0.17445
USER: genes 13 Torsion [O]-C--CA-[N] |==|  0.28026
USER: genes 14 Torsion [N]-C--CA-[N] |==|  0.38140
USER: genes 15 Torsion [C]-CA--N-[C] |==|  0.82711
USER: genes 16 Torsion [N]-C--CA-[N] |==|  0.45750
USER: genes 17 Torsion [C]-CA--CB-[OG] |==|  0.17007
USER: genes 18 Torsion [CA]-CB--OG-[HG] |==|  0.73955
USER: genes 19 Torsion [C]-CA--CB-[CG] |==|  0.07797
USER: genes 20 Torsion [CA]-CB--CG-[ND2] |==|  0.66550
ROOT
ATOM      1  C   PRO X1002      19.932  42.212  23.858  1.00 98.27 LIG 0.24  C 
ATOM      2 O    PRO X1002      19.254  43.060  24.422  1.00 97.40 LIG-0.27  OA
ATOM      3  N   ALA X1003      19.705  41.804  22.612  1.00 97.43 LIG-0.35  N 
ATOM      4 H    ALA X1003      20.284  41.381  22.137  1.00 97.43 LIG 0.16  HD
ENDROOT
BRANCH 3 5
ATOM      5  CA  ALA X1003      18.433  42.043  21.928  1.00 96.73 LIG 0.17  C 
ATOM      6  CB  ALA X1003      18.464  41.458  20.535  1.00 96.74 LIG 0.04  C 
BRANCH 5 7
ATOM      7  C   ALA X1003      17.375  41.360  22.795  1.00 95.66 LIG 0.24  C 
ATOM      8 O    ALA X1003      17.683  40.368  23.436  1.00 95.14 LIG-0.27  OA
ATOM      9  N   CYS X1004      16.135  41.833  22.847  1.00 94.40 LIG-0.34  N 
ATOM     10 H    CYS X1004      15.592  41.587  23.467  1.00 94.40 LIG 0.16  HD
BRANCH 9 11
ATOM     11  CA  CYS X1004      15.513  42.786  21.926  1.00 94.17 LIG 0.18  C 
BRANCH 11 12
ATOM     12  CB  CYS X1004      14.007  42.845  22.273  1.00 94.12 LIG 0.10  C 
BRANCH 12 13
ATOM     13 SG   CYS X1004      13.042  44.199  21.660  1.00 91.26 LIG-0.18  SA
ATOM     14 HG   CYS X1004      12.762  44.004  20.510  1.00 91.26 LIG 0.10  HD
ENDBRANCH 12 13
ENDBRANCH 11 12
BRANCH 11 15
ATOM     15  C   CYS X1004      16.120  44.198  22.036  1.00 93.84 LIG 0.24  C 
ATOM     16 O    CYS X1004      16.767  44.534  23.016  1.00 93.01 LIG-0.27  OA
ATOM     17  N   VAL X1005      15.858  45.031  21.040  1.00 93.78 LIG-0.35  N 
ATOM     18 H    VAL X1005      15.296  44.856  20.413  1.00 93.78 LIG 0.16  HD
BRANCH 17 19
ATOM     19  CA  VAL X1005      16.505  46.340  20.910  1.00 93.73 LIG 0.18  C 
BRANCH 19 20
ATOM     20  C   VAL X1005      17.973  46.310  21.357  1.00 93.48 LIG 0.24  C 
ATOM     21  N   ALA X1006      18.797  45.548  20.640  1.00 93.27 LIG-0.35  N 
ATOM     22 H    ALA X1006      18.542  45.084  19.963  1.00 93.27 LIG 0.16  HD
ATOM     23 O    VAL X1005      18.340  46.954  22.333  1.00 93.20 LIG-0.27  OA
BRANCH 21 24
ATOM     24  CA  ALA X1006      20.223  45.426  20.935  1.00 93.01 LIG 0.16  C 
ATOM     25  CB  ALA X1006      20.421  44.919  22.333  1.00 92.79 LIG 0.04  C 
BRANCH 24 26
ATOM     26  C   ALA X1006      20.909  44.503  19.940  1.00 92.71 LIG 0.22  C 
ATOM     27 O    ALA X1006      21.004  43.297  20.150  1.00 91.80 LIG-0.29  OA
ENDBRANCH 24 26
ENDBRANCH 21 24
ENDBRANCH 19 20
BRANCH 19 28
ATOM     28  CB  VAL X1005      15.681  47.400  21.698  1.00 93.65 LIG 0.01  C 
ATOM     29  CG2 VAL X1005      15.679  47.042  23.166  1.00 92.72 LIG 0.01  C 
ATOM     30  CG1 VAL X1005      14.271  47.562  21.152  1.00 92.97 LIG 0.01  C 
ENDBRANCH 19 28
ENDBRANCH 17 19
ENDBRANCH 11 15
ENDBRANCH 9 11
ENDBRANCH 5 7
ENDBRANCH 3 5
BRANCH 1 31
ATOM     31  CA  PRO X1002      21.151  41.598  24.552  1.00 99.31 LIG 0.18  C 
ATOM     32  N   PRO X1002      20.946  40.269  25.135  1.00 99.88 LIG-0.34  N 
ATOM     33  CD  PRO X1002      21.592  39.233  24.324  1.00 99.70 LIG 0.13  C 
ATOM     34  C   ASN X1001      20.291  40.167  26.304  1.00100.64 LIG 0.24  C 
ATOM     35  CG  PRO X1002      22.758  39.958  23.797  1.00 99.65 LIG 0.02  C 
ATOM     36  CB  PRO X1002      22.269  41.354  23.533  1.00 99.37 LIG 0.04  C 
ATOM     37 O    ASN X1001      19.888  41.158  26.903  1.00100.22 LIG-0.27  OA
BRANCH 34 38
ATOM     38  CA  ASN X1001      20.153  38.768  26.941  1.00101.23 LIG 0.18  C 
BRANCH 38 39
ATOM     39  N   ASN X1001      20.413  38.930  28.379  1.00101.62 LIG-0.34  N 
ATOM     40  C   SER X1000      21.604  39.359  28.803  1.00101.89 LIG 0.26  C 
ATOM     41 O    SER X1000      22.634  39.244  28.126  1.00101.60 LIG-0.27  OA
ATOM     42 H    ASN X1001      19.753  38.730  28.893  1.00101.62 LIG 0.16  HD
BRANCH 40 43
ATOM     43  CA  SER X1000      21.663  40.008  30.194  1.00101.91 LIG 0.42  C 
ATOM     44  N   SER X1000      23.057  40.109  30.702  1.00101.55 LIG 0.62  N 
BRANCH 43 45
ATOM     45  CB  SER X1000      20.994  41.380  30.201  1.00101.96 LIG 0.21  C 
BRANCH 45 46
ATOM     46 OG   SER X1000      19.620  41.307  29.861  1.00101.15 LIG-0.40  OA
ATOM     47 HG   SER X1000      19.528  41.438  29.036  1.00101.15 LIG 0.21  HD
ENDBRANCH 45 46
ENDBRANCH 43 45
ENDBRANCH 40 43
ENDBRANCH 38 39
BRANCH 38 48
ATOM     48  CB  ASN X1001      18.820  38.028  26.665  1.00101.08 LIG 0.14  C 
BRANCH 48 49
ATOM     49  CG  ASN X1001      18.141  38.408  25.342  1.00100.04 LIG 0.22  C 
ATOM     50  ND2 ASN X1001      16.924  38.917  25.404  1.00 98.76 LIG-0.37  N 
ATOM     51 21HD ASN X1001      16.530  39.178  24.686  1.00 98.76 LIG 0.16  HD
ATOM     52 22HD ASN X1001      16.525  38.988  26.163  1.00 98.76 LIG 0.16  HD
ATOM     53 OD1  ASN X1001      18.744  38.290  24.285  1.00 97.91 LIG-0.27  OA
ENDBRANCH 48 49
ENDBRANCH 38 48
ENDBRANCH 34 38
ENDBRANCH 1 31
TORSDOF 19
ENDMDL
MODEL 66
USER: ADFR SOLUTION from run 61
USER: SCORE 12.377306 LL:  -3.412 LR: -11.258 RR:   0.000 FEB:  -5.590
USER: RMSD 5.851662
USER: SEED 60
USER: STATUS no improvement in best in 12 clusters for 5 generations
USER: GENES 21
USER: genes 0 Translation |==|  0.58681 0.61596 0.47921
USER: genes 1 Rotation |==|  0.39345 0.68591 0.60125 0.94026
USER: genes 2 Torsion [C]-N--CA-[CB] |==|  0.50692
USER: genes 3 Torsion [N]-CA--C-[N] |==|  0.43961
USER: genes 4 Torsion [C]-N--CA-[C] |==|  0.80993
USER: genes 5 Torsion [N]-CA--CB-[SG] |==|  0.30733
USER: genes 6 Torsion [CA]-CB--SG-[HG] |==|  0.17599
USER: genes 7 Torsion [N]-CA--C-[N] |==|  0.90621
USER: genes 8 Torsion [C]-N--CA-[CB] |==|  0.79828
USER: genes 9 Torsion [N]-CA--C-[N] |==|  0.67526
USER: genes 10 Torsion [C]-N--CA-[CB] |==|  0.80311
USER: genes 11 Torsion [N]-CA--C-[O] |==|  0.25101
USER: genes 12 Torsion [N]-CA--CB-[CG2] |==|  0.87948
USER: genes 13 Torsion [O]-C--CA-[N] |==|  0.13635
USER: genes 14 Torsion [N]-C--CA-[N] |==|  0.16988
USER: genes 15 Torsion [C]-CA--N-[C] |==|  0.55809
USER: genes 16 Torsion [N]-C--CA-[N] |==|  0.36972
USER: genes 17 Torsion [C]-CA--CB-[OG] |==|  0.22300
USER: genes 18 Torsion [CA]-CB--OG-[HG] |==|  0.67186
USER: genes 19 Torsion [C]-CA--CB-[CG] |==|  0.16704
USER: genes 20 Torsion [CA]-CB--CG-[ND2] |==|  0.26698
ROOT
ATOM      1  C   PRO X1002      18.212  40.056  26.130  1.00 98.27 LIG 0.24  C 
ATOM      2 O    PRO X1002      17.013  40.063  25.887  1.00 97.40 LIG-0.27  OA
ATOM      3  N   ALA X1003      19.087  40.844  25.511  1.00 97.43 LIG-0.35  N 
ATOM      4 H    ALA X1003      19.878  41.004  25.810  1.00 97.43 LIG 0.16  HD
ENDROOT
BRANCH 3 5
ATOM      5  CA  ALA X1003      18.780  41.518  24.248  1.00 96.73 LIG 0.17  C 
ATOM      6  CB  ALA X1003      19.981  42.292  23.756  1.00 96.74 LIG 0.04  C 
BRANCH 5 7
ATOM      7  C   ALA X1003      18.401  40.401  23.276  1.00 95.66 LIG 0.24  C 
ATOM      8 O    ALA X1003      18.788  39.264  23.499  1.00 95.14 LIG-0.27  OA
ATOM      9  N   CYS X1004      17.669  40.660  22.199  1.00 94.40 LIG-0.34  N 
ATOM     10 H    CYS X1004      17.289  40.027  21.758  1.00 94.40 LIG 0.16  HD
BRANCH 9 11
ATOM     11  CA  CYS X1004      17.398  41.972  21.609  1.00 94.17 LIG 0.18  C 
BRANCH 11 12
ATOM     12  CB  CYS X1004      16.696  41.731  20.253  1.00 94.12 LIG 0.10  C 
BRANCH 12 13
ATOM     13 SG   CYS X1004      14.987  42.169  20.086  1.00 91.26 LIG-0.18  SA
ATOM     14 HG   CYS X1004      14.861  43.354  20.227  1.00 91.26 LIG 0.10  HD
ENDBRANCH 12 13
ENDBRANCH 11 12
BRANCH 11 15
ATOM     15  C   CYS X1004      16.500  42.849  22.503  1.00 93.84 LIG 0.24  C 
ATOM     16 O    CYS X1004      16.668  44.056  22.579  1.00 93.01 LIG-0.27  OA
ATOM     17  N   VAL X1005      15.580  42.216  23.216  1.00 93.78 LIG-0.35  N 
ATOM     18 H    VAL X1005      15.538  41.359  23.279  1.00 93.78 LIG 0.16  HD
BRANCH 17 19
ATOM     19  CA  VAL X1005      14.539  42.919  23.971  1.00 93.73 LIG 0.18  C 
BRANCH 19 20
ATOM     20  C   VAL X1005      13.776  43.931  23.107  1.00 93.48 LIG 0.24  C 
ATOM     21  N   ALA X1006      13.878  45.211  23.462  1.00 93.27 LIG-0.35  N 
ATOM     22 H    ALA X1006      14.336  45.479  24.139  1.00 93.27 LIG 0.16  HD
ATOM     23 O    VAL X1005      13.105  43.555  22.153  1.00 93.20 LIG-0.27  OA
BRANCH 21 24
ATOM     24  CA  ALA X1006      13.218  46.292  22.732  1.00 93.01 LIG 0.16  C 
ATOM     25  CB  ALA X1006      13.881  46.497  21.401  1.00 92.79 LIG 0.04  C 
BRANCH 24 26
ATOM     26  C   ALA X1006      11.739  45.998  22.541  1.00 92.71 LIG 0.22  C 
ATOM     27 O    ALA X1006      10.905  46.363  23.364  1.00 91.80 LIG-0.29  OA
ENDBRANCH 24 26
ENDBRANCH 21 24
ENDBRANCH 19 20
BRANCH 19 28
ATOM     28  CB  VAL X1005      15.180  43.591  25.222  1.00 93.65 LIG 0.01  C 
ATOM     29  CG2 VAL X1005      16.144  42.626  25.871  1.00 92.72 LIG 0.01  C 
ATOM     30  CG1 VAL X1005      14.137  44.099  26.206  1.00 92.97 LIG 0.01  C 
ENDBRANCH 19 28
ENDBRANCH 17 19
ENDBRANCH 11 15
ENDBRANCH 9 11
ENDBRANCH 5 7
ENDBRANCH 3 5
BRANCH 1 31
ATOM     31  CA  PRO X1002      18.781  39.159  27.232  1.00 99.31 LIG 0.18  C 
ATOM     32  N   PRO X1002      18.352  37.758  27.194  1.00 99.88 LIG-0.34  N 
ATOM     33  CD  PRO X1002      19.431  36.891  26.712  1.00 99.70 LIG 0.13  C 
ATOM     34  C   ASN X1001      17.124  37.443  27.640  1.00100.64 LIG 0.24  C 
ATOM     35  CG  PRO X1002      20.619  37.590  27.221  1.00 99.65 LIG 0.02  C 
ATOM     36  CB  PRO X1002      20.303  39.053  27.090  1.00 99.37 LIG 0.04  C 
ATOM     37 O    ASN X1001      16.370  38.292  28.100  1.00100.22 LIG-0.27  OA
BRANCH 34 38
ATOM     38  CA  ASN X1001      16.719  35.954  27.664  1.00101.23 LIG 0.18  C 
BRANCH 38 39
ATOM     39  N   ASN X1001      17.659  35.274  28.567  1.00101.62 LIG-0.34  N 
ATOM     40  C   SER X1000      17.840  33.954  28.482  1.00101.89 LIG 0.26  C 
ATOM     41 O    SER X1000      16.992  33.196  27.991  1.00101.60 LIG-0.27  OA
ATOM     42 H    ASN X1001      18.062  35.787  29.128  1.00101.62 LIG 0.16  HD
BRANCH 40 43
ATOM     43  CA  SER X1000      19.156  33.386  29.031  1.00101.91 LIG 0.42  C 
ATOM     44  N   SER X1000      18.933  32.195  29.893  1.00101.55 LIG 0.62  N 
BRANCH 43 45
ATOM     45  CB  SER X1000      20.135  33.053  27.907  1.00101.96 LIG 0.21  C 
BRANCH 45 46
ATOM     46 OG   SER X1000      20.816  34.202  27.433  1.00101.15 LIG-0.40  OA
ATOM     47 HG   SER X1000      20.631  34.323  26.623  1.00101.15 LIG 0.21  HD
ENDBRANCH 45 46
ENDBRANCH 43 45
ENDBRANCH 40 43
ENDBRANCH 38 39
BRANCH 38 48
ATOM     48  CB  ASN X1001      15.241  35.660  28.026  1.00101.08 LIG 0.14  C 
BRANCH 48 49
ATOM     49  CG  ASN X1001      14.215  36.283  27.070  1.00100.04 LIG 0.22  C 
ATOM     50  ND2 ASN X1001      13.743  35.522  26.099  1.00 98.76 LIG-0.37  N 
ATOM     51 21HD ASN X1001      13.137  35.826  25.570  1.00 98.76 LIG 0.16  HD
ATOM     52 22HD ASN X1001      14.041  34.722  25.996  1.00 98.76 LIG 0.16  HD
ATOM     53 OD1  ASN X1001      13.819  37.426  27.252  1.00 97.91 LIG-0.27  OA
ENDBRANCH 48 49
ENDBRANCH 38 48
ENDBRANCH 34 38
ENDBRANCH 1 31
TORSDOF 19
ENDMDL
