MODEL 1
USER: ADFR SOLUTION from run 195
USER: SCORE 16.447922 LL:  -2.387 LR: -16.270 RR:   0.000 FEB: -10.304
USER: RMSD 8.651353
USER: SEED 194
USER: STATUS no improvement in best in 12 clusters for 5 generations
USER: GENES 22
USER: genes 0 Translation |==|  0.74730 0.58611 0.60322
USER: genes 1 Rotation |==|  0.95004 0.63369 0.32821 0.50892
USER: genes 2 Torsion [C]-CA--N-[C] |==|  0.20343
USER: genes 3 Torsion [N]-C--CA-[N] |==|  0.36616
USER: genes 4 Torsion [C]-CA--N-[C] |==|  0.88266
USER: genes 5 Torsion [N]-C--CA-[N] |==|  0.89407
USER: genes 6 Torsion [C]-CA--CB-[CG2] |==|  0.86089
USER: genes 7 Torsion [CA]-CB--OG1-[HG1] |==|  0.14290
USER: genes 8 Torsion [C]-CA--CB-[CG] |==|  0.31599
USER: genes 9 Torsion [CA]-CB--CG-[OD2] |==|  0.71430
USER: genes 10 Torsion [N]-CA--CB-[CG] |==|  0.79244
USER: genes 11 Torsion [CA]-CB--CG-[ND1] |==|  0.35767
USER: genes 12 Torsion [N]-CA--C-[N] |==|  0.68832
USER: genes 13 Torsion [C]-N--CA-[C] |==|  0.68394
USER: genes 14 Torsion [N]-CA--C-[N] |==|  0.50408
USER: genes 15 Torsion [C]-N--CA-[CB] |==|  0.49444
USER: genes 16 Torsion [N]-CA--C-[N] |==|  0.28375
USER: genes 17 Torsion [C]-N--CA-[CB] |==|  0.89379
USER: genes 18 Torsion [N]-CA--CB-[CG] |==|  0.35413
USER: genes 19 Torsion [CA]-CB--CG-[CD] |==|  0.60871
USER: genes 20 Torsion [CB]-CG--CD-[OE1] |==|  0.92191
USER: genes 21 Torsion [N]-CA--C-[OXT] |==|  0.94032
ROOT
ATOM      1  CA  HIS A 388     -23.882 -26.012  17.394  1.00 17.64 LIG 0.18  C 
ENDROOT
BRANCH 1 2
ATOM      2  N   HIS A 388     -25.101 -25.745  18.159  1.00 19.60 LIG-0.35  N 
ATOM      3 H    HIS A 388     -25.009 -25.147  18.770  1.00 19.60 LIG 0.16  HD
ATOM      4  C   ASP A 387     -26.246 -26.384  17.916  1.00 22.66 LIG 0.24  C 
ATOM      5 O    ASP A 387     -26.366 -27.225  17.020  1.00 22.02 LIG-0.27  OA
BRANCH 4 6
ATOM      6  CA  ASP A 387     -27.439 -26.011  18.791  1.00 25.57 LIG 0.19  C 
BRANCH 6 7
ATOM      7  N   ASP A 387     -28.569 -25.783  17.867  1.00 28.40 LIG-0.34  N 
ATOM      8 H    ASP A 387     -29.315 -26.117  18.134  1.00 28.40 LIG 0.16  HD
ATOM      9  C   THR A 386     -28.424 -25.112  16.714  1.00 31.30 LIG 0.26  C 
ATOM     10 O    THR A 386     -27.498 -24.300  16.519  1.00 31.60 LIG-0.27  OA
BRANCH 9 11
ATOM     11  CA  THR A 386     -29.488 -25.333  15.609  1.00 33.11 LIG 0.43  C 
ATOM     12  N   THR A 386     -29.969 -26.743  15.502  1.00 33.83 LIG 0.62  N 
BRANCH 11 13
ATOM     13  CB  THR A 386     -30.678 -24.341  15.761  1.00 33.77 LIG 0.16  C 
ATOM     14  CG2 THR A 386     -31.234 -24.324  17.188  1.00 34.60 LIG 0.04  C 
BRANCH 13 15
ATOM     15 OG1  THR A 386     -30.243 -22.994  15.522  1.00 35.18 LIG-0.39  OA
ATOM     16 HG1  THR A 386     -29.830 -22.959  14.790  1.00 35.18 LIG 0.21  HD
ENDBRANCH 13 15
ENDBRANCH 11 13
ENDBRANCH 9 11
ENDBRANCH 6 7
BRANCH 6 17
ATOM     17  CB  ASP A 387     -27.732 -27.148  19.809  1.00 25.68 LIG 0.15  C 
BRANCH 17 18
ATOM     18  CG  ASP A 387     -27.482 -26.730  21.275  1.00 25.80 LIG 0.17  C 
ATOM     19 OD2  ASP A 387     -26.460 -27.085  21.906  1.00 26.75 LIG-0.65  OA
ATOM     20 OD1  ASP A 387     -28.304 -26.004  21.898  1.00 21.65 LIG-0.65  OA
ENDBRANCH 17 18
ENDBRANCH 6 17
ENDBRANCH 4 6
ENDBRANCH 1 2
BRANCH 1 21
ATOM     21  CB  HIS A 388     -23.583 -27.531  17.247  1.00 17.51 LIG 0.10  C 
BRANCH 21 22
ATOM     22  CG  HIS A 388     -23.050 -28.204  18.490  1.00 19.36 LIG 0.06  A 
ATOM     23 ND1  HIS A 388     -23.589 -29.356  19.014  1.00 21.21 LIG-0.24  NA
ATOM     24  CE1 HIS A 388     -22.909 -29.714  20.089  1.00 22.16 LIG 0.23  A 
ATOM     25 NE2  HIS A 388     -21.962 -28.820  20.301  1.00 21.69 LIG-0.25  NA
ATOM     26  CD2 HIS A 388     -22.033 -27.861  19.319  1.00 21.19 LIG 0.14  A 
ENDBRANCH 21 22
ENDBRANCH 1 21
BRANCH 1 27
ATOM     27  C   HIS A 388     -24.017 -25.405  15.990  1.00 15.45 LIG 0.24  C 
ATOM     28 O    HIS A 388     -24.059 -24.193  15.862  1.00 14.42 LIG-0.27  OA
ATOM     29  N   GLY A 389     -24.097 -26.236  14.943  1.00 14.00 LIG-0.35  N 
ATOM     30 H    GLY A 389     -24.050 -27.093  15.001  1.00 14.00 LIG 0.16  HD
BRANCH 29 31
ATOM     31  CA  GLY A 389     -24.278 -25.727  13.584  1.00 13.01 LIG 0.23  C 
BRANCH 31 32
ATOM     32  C   GLY A 389     -25.615 -26.111  12.988  1.00 11.92 LIG 0.24  C 
ATOM     33 O    GLY A 389     -26.472 -26.747  13.648  1.00 12.61 LIG-0.27  OA
ATOM     34  N   ALA A 390     -25.826 -25.706  11.749  1.00 10.53 LIG-0.35  N 
ATOM     35 H    ALA A 390     -25.271 -25.221  11.308  1.00 10.53 LIG 0.16  HD
BRANCH 34 36
ATOM     36  CA  ALA A 390     -27.040 -26.050  11.004  1.00 11.53 LIG 0.17  C 
ATOM     37  CB  ALA A 390     -26.996 -25.395   9.640  1.00 11.91 LIG 0.04  C 
BRANCH 36 38
ATOM     38  C   ALA A 390     -27.156 -27.579  10.842  1.00 13.11 LIG 0.24  C 
ATOM     39  N   GLU A 391     -28.015 -28.166  11.662  1.00 14.39 LIG-0.34  N 
ATOM     40 H    GLU A 391     -28.504 -27.736  12.224  1.00 14.39 LIG 0.16  HD
ATOM     41 O    ALA A 390     -26.456 -28.215  10.044  1.00 12.73 LIG-0.27  OA
BRANCH 39 42
ATOM     42  CA  GLU A 391     -28.210 -29.589  11.689  1.00 15.60 LIG 0.19  C 
BRANCH 42 43
ATOM     43  CB  GLU A 391     -28.144 -30.130  10.257  1.00 17.03 LIG 0.05  C 
BRANCH 43 44
ATOM     44  CG  GLU A 391     -27.184 -31.267  10.040  1.00 23.68 LIG 0.12  C 
BRANCH 44 45
ATOM     45  CD  GLU A 391     -26.468 -31.123   8.699  1.00 29.63 LIG 0.17  C 
ATOM     46 OE1  GLU A 391     -27.076 -30.510   7.771  1.00 31.73 LIG-0.65  OA
ATOM     47 OE2  GLU A 391     -25.339 -31.673   8.575  1.00 33.20 LIG-0.65  OA
ENDBRANCH 44 45
ENDBRANCH 43 44
ENDBRANCH 42 43
BRANCH 42 48
ATOM     48  C   GLU A 391     -27.094 -30.184  12.543  1.00 14.85 LIG 0.20  C 
ATOM     49 OXT  GLU A 391     -26.062 -29.553  12.720  1.00 14.73 LIG-0.65  OA
ATOM     50 O    GLU A 391     -27.221 -31.304  13.040  1.00 14.85 LIG-0.65  OA
ENDBRANCH 42 48
ENDBRANCH 39 42
ENDBRANCH 36 38
ENDBRANCH 34 36
ENDBRANCH 31 32
ENDBRANCH 29 31
ENDBRANCH 1 27
TORSDOF 20
ENDMDL
MODEL 2
USER: ADFR SOLUTION from run 188
USER: SCORE 16.385634 LL:  -2.929 LR: -15.743 RR:   0.000 FEB:  -9.777
USER: RMSD 10.250574
USER: SEED 187
USER: STATUS no improvement in best in 15 clusters for 5 generations
USER: GENES 22
USER: genes 0 Translation |==|  0.66443 0.62423 0.50843
USER: genes 1 Rotation |==|  0.79697 0.81698 0.27553 0.60465
USER: genes 2 Torsion [C]-CA--N-[C] |==|  0.58087
USER: genes 3 Torsion [N]-C--CA-[N] |==|  0.20300
USER: genes 4 Torsion [C]-CA--N-[C] |==|  0.18848
USER: genes 5 Torsion [N]-C--CA-[N] |==|  0.00748
USER: genes 6 Torsion [C]-CA--CB-[CG2] |==|  0.17242
USER: genes 7 Torsion [CA]-CB--OG1-[HG1] |==|  0.43763
USER: genes 8 Torsion [C]-CA--CB-[CG] |==|  0.54516
USER: genes 9 Torsion [CA]-CB--CG-[OD2] |==|  0.70737
USER: genes 10 Torsion [N]-CA--CB-[CG] |==|  0.10201
USER: genes 11 Torsion [CA]-CB--CG-[ND1] |==|  0.79488
USER: genes 12 Torsion [N]-CA--C-[N] |==|  0.28619
USER: genes 13 Torsion [C]-N--CA-[C] |==|  0.81154
USER: genes 14 Torsion [N]-CA--C-[N] |==|  0.53657
USER: genes 15 Torsion [C]-N--CA-[CB] |==|  0.85350
USER: genes 16 Torsion [N]-CA--C-[N] |==|  0.18395
USER: genes 17 Torsion [C]-N--CA-[CB] |==|  0.34135
USER: genes 18 Torsion [N]-CA--CB-[CG] |==|  0.46807
USER: genes 19 Torsion [CA]-CB--CG-[CD] |==|  0.22970
USER: genes 20 Torsion [CB]-CG--CD-[OE1] |==|  0.23430
USER: genes 21 Torsion [N]-CA--C-[OXT] |==|  0.79992
ROOT
ATOM      1  CA  HIS A 388     -25.498 -25.354  15.332  1.00 17.64 LIG 0.18  C 
ENDROOT
BRANCH 1 2
ATOM      2  N   HIS A 388     -26.185 -25.962  16.472  1.00 19.60 LIG-0.35  N 
ATOM      3 H    HIS A 388     -26.689 -26.627  16.265  1.00 19.60 LIG 0.16  HD
ATOM      4  C   ASP A 387     -26.031 -25.511  17.718  1.00 22.66 LIG 0.24  C 
ATOM      5 O    ASP A 387     -25.286 -24.568  18.001  1.00 22.02 LIG-0.27  OA
BRANCH 4 6
ATOM      6  CA  ASP A 387     -26.809 -26.236  18.812  1.00 25.57 LIG 0.19  C 
BRANCH 6 7
ATOM      7  N   ASP A 387     -26.135 -27.536  19.002  1.00 28.40 LIG-0.34  N 
ATOM      8 H    ASP A 387     -26.601 -28.214  18.754  1.00 28.40 LIG 0.16  HD
ATOM      9  C   THR A 386     -24.900 -27.630  19.520  1.00 31.30 LIG 0.26  C 
ATOM     10 O    THR A 386     -24.085 -26.687  19.495  1.00 31.60 LIG-0.27  OA
BRANCH 9 11
ATOM     11  CA  THR A 386     -24.472 -28.991  20.128  1.00 33.11 LIG 0.43  C 
ATOM     12  N   THR A 386     -25.501 -30.066  19.996  1.00 33.83 LIG 0.62  N 
BRANCH 11 13
ATOM     13  CB  THR A 386     -23.096 -29.455  19.566  1.00 33.77 LIG 0.16  C 
ATOM     14  CG2 THR A 386     -21.971 -28.476  19.919  1.00 34.60 LIG 0.04  C 
BRANCH 13 15
ATOM     15 OG1  THR A 386     -22.702 -30.697  20.168  1.00 35.18 LIG-0.39  OA
ATOM     16 HG1  THR A 386     -22.150 -31.088  19.668  1.00 35.18 LIG 0.21  HD
ENDBRANCH 13 15
ENDBRANCH 11 13
ENDBRANCH 9 11
ENDBRANCH 6 7
BRANCH 6 17
ATOM     17  CB  ASP A 387     -26.824 -25.385  20.112  1.00 25.68 LIG 0.15  C 
BRANCH 17 18
ATOM     18  CG  ASP A 387     -27.231 -26.193  21.364  1.00 25.80 LIG 0.17  C 
ATOM     19 OD2  ASP A 387     -28.358 -26.077  21.898  1.00 26.75 LIG-0.65  OA
ATOM     20 OD1  ASP A 387     -26.437 -27.015  21.899  1.00 21.65 LIG-0.65  OA
ENDBRANCH 17 18
ENDBRANCH 6 17
ENDBRANCH 4 6
ENDBRANCH 1 2
BRANCH 1 21
ATOM     21  CB  HIS A 388     -24.092 -25.971  15.077  1.00 17.51 LIG 0.10  C 
BRANCH 21 22
ATOM     22  CG  HIS A 388     -23.989 -27.457  15.323  1.00 19.36 LIG 0.06  A 
ATOM     23 ND1  HIS A 388     -23.970 -28.013  16.581  1.00 21.21 LIG-0.24  NA
ATOM     24  CE1 HIS A 388     -23.888 -29.329  16.483  1.00 22.16 LIG 0.23  A 
ATOM     25 NE2  HIS A 388     -23.824 -29.648  15.204  1.00 21.69 LIG-0.25  NA
ATOM     26  CD2 HIS A 388     -23.879 -28.495  14.459  1.00 21.19 LIG 0.14  A 
ENDBRANCH 21 22
ENDBRANCH 1 21
BRANCH 1 27
ATOM     27  C   HIS A 388     -26.346 -25.539  14.067  1.00 15.45 LIG 0.24  C 
ATOM     28 O    HIS A 388     -26.356 -26.621  13.504  1.00 14.42 LIG-0.27  OA
ATOM     29  N   GLY A 389     -27.045 -24.492  13.611  1.00 14.00 LIG-0.35  N 
ATOM     30 H    GLY A 389     -27.074 -23.724  13.998  1.00 14.00 LIG 0.16  HD
BRANCH 29 31
ATOM     31  CA  GLY A 389     -27.834 -24.584  12.383  1.00 13.01 LIG 0.23  C 
BRANCH 31 32
ATOM     32  C   GLY A 389     -26.977 -24.737  11.145  1.00 11.92 LIG 0.24  C 
ATOM     33 O    GLY A 389     -25.763 -25.048  11.220  1.00 12.61 LIG-0.27  OA
ATOM     34  N   ALA A 390     -27.596 -24.555   9.994  1.00 10.53 LIG-0.35  N 
ATOM     35 H    ALA A 390     -28.439 -24.400   9.928  1.00 10.53 LIG 0.16  HD
BRANCH 34 36
ATOM     36  CA  ALA A 390     -26.898 -24.603   8.707  1.00 11.53 LIG 0.17  C 
ATOM     37  CB  ALA A 390     -25.713 -23.662   8.742  1.00 11.91 LIG 0.04  C 
BRANCH 36 38
ATOM     38  C   ALA A 390     -26.414 -26.037   8.411  1.00 13.11 LIG 0.24  C 
ATOM     39  N   GLU A 391     -27.379 -26.924   8.216  1.00 14.39 LIG-0.34  N 
ATOM     40 H    GLU A 391     -28.215 -26.723   8.216  1.00 14.39 LIG 0.16  HD
ATOM     41 O    ALA A 390     -25.216 -26.345   8.414  1.00 12.73 LIG-0.27  OA
BRANCH 39 42
ATOM     42  CA  GLU A 391     -27.113 -28.317   7.984  1.00 15.60 LIG 0.19  C 
BRANCH 42 43
ATOM     43  CB  GLU A 391     -27.844 -29.149   9.043  1.00 17.03 LIG 0.05  C 
BRANCH 43 44
ATOM     44  CG  GLU A 391     -27.889 -30.629   8.783  1.00 23.68 LIG 0.12  C 
BRANCH 44 45
ATOM     45  CD  GLU A 391     -26.597 -31.300   9.246  1.00 29.63 LIG 0.17  C 
ATOM     46 OE1  GLU A 391     -26.508 -31.624  10.469  1.00 31.73 LIG-0.65  OA
ATOM     47 OE2  GLU A 391     -25.672 -31.438   8.399  1.00 33.20 LIG-0.65  OA
ENDBRANCH 44 45
ENDBRANCH 43 44
ENDBRANCH 42 43
BRANCH 42 48
ATOM     48  C   GLU A 391     -27.626 -28.651   6.586  1.00 14.85 LIG 0.20  C 
ATOM     49 OXT  GLU A 391     -28.830 -28.710   6.379  1.00 14.73 LIG-0.65  OA
ATOM     50 O    GLU A 391     -26.835 -28.879   5.671  1.00 14.85 LIG-0.65  OA
ENDBRANCH 42 48
ENDBRANCH 39 42
ENDBRANCH 36 38
ENDBRANCH 34 36
ENDBRANCH 31 32
ENDBRANCH 29 31
ENDBRANCH 1 27
TORSDOF 20
ENDMDL
MODEL 3
USER: ADFR SOLUTION from run 24
USER: SCORE 16.715093 LL:  -2.572 LR: -15.678 RR:   0.000 FEB:  -9.712
USER: RMSD 8.814635
USER: SEED 23
USER: STATUS no improvement in best in 6 clusters for 5 generations
USER: GENES 22
USER: genes 0 Translation |==|  0.70560 0.59895 0.59349
USER: genes 1 Rotation |==|  0.93067 0.72323 0.37984 0.51583
USER: genes 2 Torsion [C]-CA--N-[C] |==|  0.67190
USER: genes 3 Torsion [N]-C--CA-[N] |==|  0.94213
USER: genes 4 Torsion [C]-CA--N-[C] |==|  0.70000
USER: genes 5 Torsion [N]-C--CA-[N] |==|  0.35179
USER: genes 6 Torsion [C]-CA--CB-[CG2] |==|  0.75759
USER: genes 7 Torsion [CA]-CB--OG1-[HG1] |==|  0.50610
USER: genes 8 Torsion [C]-CA--CB-[CG] |==|  0.17721
USER: genes 9 Torsion [CA]-CB--CG-[OD2] |==|  0.62173
USER: genes 10 Torsion [N]-CA--CB-[CG] |==|  0.78916
USER: genes 11 Torsion [CA]-CB--CG-[ND1] |==|  0.30953
USER: genes 12 Torsion [N]-CA--C-[N] |==|  0.88416
USER: genes 13 Torsion [C]-N--CA-[C] |==|  0.36168
USER: genes 14 Torsion [N]-CA--C-[N] |==|  0.26544
USER: genes 15 Torsion [C]-N--CA-[CB] |==|  0.84567
USER: genes 16 Torsion [N]-CA--C-[N] |==|  0.46012
USER: genes 17 Torsion [C]-N--CA-[CB] |==|  0.31308
USER: genes 18 Torsion [N]-CA--CB-[CG] |==|  0.81609
USER: genes 19 Torsion [CA]-CB--CG-[CD] |==|  0.82672
USER: genes 20 Torsion [CB]-CG--CD-[OE1] |==|  0.74536
USER: genes 21 Torsion [N]-CA--C-[OXT] |==|  0.89523
ROOT
ATOM      1  CA  HIS A 388     -24.695 -25.790  17.182  1.00 17.64 LIG 0.18  C 
ENDROOT
BRANCH 1 2
ATOM      2  N   HIS A 388     -26.016 -26.089  17.736  1.00 19.60 LIG-0.35  N 
ATOM      3 H    HIS A 388     -26.502 -26.591  17.236  1.00 19.60 LIG 0.16  HD
ATOM      4  C   ASP A 387     -26.416 -25.614  18.917  1.00 22.66 LIG 0.24  C 
ATOM      5 O    ASP A 387     -25.697 -24.910  19.633  1.00 22.02 LIG-0.27  OA
BRANCH 4 6
ATOM      6  CA  ASP A 387     -27.819 -26.000  19.374  1.00 25.57 LIG 0.19  C 
BRANCH 6 7
ATOM      7  N   ASP A 387     -28.553 -26.393  18.154  1.00 28.40 LIG-0.34  N 
ATOM      8 H    ASP A 387     -28.307 -27.146  17.822  1.00 28.40 LIG 0.16  HD
ATOM      9  C   THR A 386     -29.519 -25.625  17.624  1.00 31.30 LIG 0.26  C 
ATOM     10 O    THR A 386     -30.149 -24.781  18.289  1.00 31.60 LIG-0.27  OA
BRANCH 9 11
ATOM     11  CA  THR A 386     -29.884 -25.847  16.134  1.00 33.11 LIG 0.43  C 
ATOM     12  N   THR A 386     -31.338 -26.088  15.894  1.00 33.83 LIG 0.62  N 
BRANCH 11 13
ATOM     13  CB  THR A 386     -29.348 -24.691  15.240  1.00 33.77 LIG 0.16  C 
ATOM     14  CG2 THR A 386     -30.338 -23.524  15.156  1.00 34.60 LIG 0.04  C 
BRANCH 13 15
ATOM     15 OG1  THR A 386     -28.161 -24.122  15.813  1.00 35.18 LIG-0.39  OA
ATOM     16 HG1  THR A 386     -27.900 -23.480  15.338  1.00 35.18 LIG 0.21  HD
ENDBRANCH 13 15
ENDBRANCH 11 13
ENDBRANCH 9 11
ENDBRANCH 6 7
BRANCH 6 17
ATOM     17  CB  ASP A 387     -27.746 -27.153  20.413  1.00 25.68 LIG 0.15  C 
BRANCH 17 18
ATOM     18  CG  ASP A 387     -27.020 -26.753  21.716  1.00 25.80 LIG 0.17  C 
ATOM     19 OD2  ASP A 387     -26.183 -27.500  22.272  1.00 26.75 LIG-0.65  OA
ATOM     20 OD1  ASP A 387     -27.242 -25.643  22.274  1.00 21.65 LIG-0.65  OA
ENDBRANCH 17 18
ENDBRANCH 6 17
ENDBRANCH 4 6
ENDBRANCH 1 2
BRANCH 1 21
ATOM     21  CB  HIS A 388     -23.852 -27.069  16.912  1.00 17.51 LIG 0.10  C 
BRANCH 21 22
ATOM     22  CG  HIS A 388     -23.255 -27.717  18.139  1.00 19.36 LIG 0.06  A 
ATOM     23 ND1  HIS A 388     -23.663 -28.940  18.619  1.00 21.21 LIG-0.24  NA
ATOM     24  CE1 HIS A 388     -22.954 -29.253  19.690  1.00 22.16 LIG 0.23  A 
ATOM     25 NE2  HIS A 388     -22.118 -28.263  19.942  1.00 21.69 LIG-0.25  NA
ATOM     26  CD2 HIS A 388     -22.291 -27.288  18.989  1.00 21.19 LIG 0.14  A 
ENDBRANCH 21 22
ENDBRANCH 1 21
BRANCH 1 27
ATOM     27  C   HIS A 388     -24.856 -25.026  15.861  1.00 15.45 LIG 0.24  C 
ATOM     28 O    HIS A 388     -24.128 -24.076  15.625  1.00 14.42 LIG-0.27  OA
ATOM     29  N   GLY A 389     -25.808 -25.424  15.008  1.00 14.00 LIG-0.35  N 
ATOM     30 H    GLY A 389     -26.321 -26.102  15.138  1.00 14.00 LIG 0.16  HD
BRANCH 29 31
ATOM     31  CA  GLY A 389     -26.050 -24.710  13.754  1.00 13.01 LIG 0.23  C 
BRANCH 31 32
ATOM     32  C   GLY A 389     -26.100 -25.632  12.555  1.00 11.92 LIG 0.24  C 
ATOM     33 O    GLY A 389     -25.055 -26.019  11.978  1.00 12.61 LIG-0.27  OA
ATOM     34  N   ALA A 390     -27.305 -26.021  12.183  1.00 10.53 LIG-0.35  N 
ATOM     35 H    ALA A 390     -28.024 -25.809  12.606  1.00 10.53 LIG 0.16  HD
BRANCH 34 36
ATOM     36  CA  ALA A 390     -27.534 -26.860  11.005  1.00 11.53 LIG 0.17  C 
ATOM     37  CB  ALA A 390     -26.925 -26.196   9.788  1.00 11.91 LIG 0.04  C 
BRANCH 36 38
ATOM     38  C   ALA A 390     -26.904 -28.253  11.206  1.00 13.11 LIG 0.24  C 
ATOM     39  N   GLU A 391     -27.300 -29.177  10.343  1.00 14.39 LIG-0.34  N 
ATOM     40 H    GLU A 391     -27.840 -29.019   9.693  1.00 14.39 LIG 0.16  HD
ATOM     41 O    ALA A 390     -26.130 -28.501  12.139  1.00 12.73 LIG-0.27  OA
BRANCH 39 42
ATOM     42  CA  GLU A 391     -26.859 -30.542  10.416  1.00 15.60 LIG 0.19  C 
BRANCH 42 43
ATOM     43  CB  GLU A 391     -28.051 -31.434  10.781  1.00 17.03 LIG 0.05  C 
BRANCH 43 44
ATOM     44  CG  GLU A 391     -28.619 -31.221  12.157  1.00 23.68 LIG 0.12  C 
BRANCH 44 45
ATOM     45  CD  GLU A 391     -27.579 -31.544  13.228  1.00 29.63 LIG 0.17  C 
ATOM     46 OE1  GLU A 391     -27.552 -32.727  13.684  1.00 31.73 LIG-0.65  OA
ATOM     47 OE2  GLU A 391     -26.848 -30.601  13.639  1.00 33.20 LIG-0.65  OA
ENDBRANCH 44 45
ENDBRANCH 43 44
ENDBRANCH 42 43
BRANCH 42 48
ATOM     48  C   GLU A 391     -26.306 -30.915   9.044  1.00 14.85 LIG 0.20  C 
ATOM     49 OXT  GLU A 391     -26.851 -30.492   8.034  1.00 14.73 LIG-0.65  OA
ATOM     50 O    GLU A 391     -25.326 -31.654   8.947  1.00 14.85 LIG-0.65  OA
ENDBRANCH 42 48
ENDBRANCH 39 42
ENDBRANCH 36 38
ENDBRANCH 34 36
ENDBRANCH 31 32
ENDBRANCH 29 31
ENDBRANCH 1 27
TORSDOF 20
ENDMDL
MODEL 4
USER: ADFR SOLUTION from run 126
USER: SCORE 18.120342 LL:  -3.309 LR: -15.587 RR:   0.000 FEB:  -9.621
USER: RMSD 9.194355
USER: SEED 125
USER: STATUS no improvement in best in 5 clusters for 5 generations
USER: GENES 22
USER: genes 0 Translation |==|  0.74050 0.42744 0.68343
USER: genes 1 Rotation |==|  0.93643 0.39354 0.30218 0.59518
USER: genes 2 Torsion [C]-CA--N-[C] |==|  0.15450
USER: genes 3 Torsion [N]-C--CA-[N] |==|  0.50682
USER: genes 4 Torsion [C]-CA--N-[C] |==|  0.74686
USER: genes 5 Torsion [N]-C--CA-[N] |==|  0.82392
USER: genes 6 Torsion [C]-CA--CB-[CG2] |==|  0.54118
USER: genes 7 Torsion [CA]-CB--OG1-[HG1] |==|  0.30551
USER: genes 8 Torsion [C]-CA--CB-[CG] |==|  0.85156
USER: genes 9 Torsion [CA]-CB--CG-[OD2] |==|  0.73776
USER: genes 10 Torsion [N]-CA--CB-[CG] |==|  0.64598
USER: genes 11 Torsion [CA]-CB--CG-[ND1] |==|  0.41544
USER: genes 12 Torsion [N]-CA--C-[N] |==|  0.15469
USER: genes 13 Torsion [C]-N--CA-[C] |==|  0.27206
USER: genes 14 Torsion [N]-CA--C-[N] |==|  0.93492
USER: genes 15 Torsion [C]-N--CA-[CB] |==|  0.87774
USER: genes 16 Torsion [N]-CA--C-[N] |==|  0.89962
USER: genes 17 Torsion [C]-N--CA-[CB] |==|  0.34784
USER: genes 18 Torsion [N]-CA--CB-[CG] |==|  0.51060
USER: genes 19 Torsion [CA]-CB--CG-[CD] |==|  0.52278
USER: genes 20 Torsion [CB]-CG--CD-[OE1] |==|  0.19250
USER: genes 21 Torsion [N]-CA--C-[OXT] |==|  0.51540
ROOT
ATOM      1  CA  HIS A 388     -24.014 -28.749  19.139  1.00 17.64 LIG 0.18  C 
ENDROOT
BRANCH 1 2
ATOM      2  N   HIS A 388     -24.546 -27.393  19.281  1.00 19.60 LIG-0.35  N 
ATOM      3 H    HIS A 388     -24.005 -26.840  19.657  1.00 19.60 LIG 0.16  HD
ATOM      4  C   ASP A 387     -25.767 -27.060  18.857  1.00 22.66 LIG 0.24  C 
ATOM      5 O    ASP A 387     -26.523 -27.860  18.299  1.00 22.02 LIG-0.27  OA
BRANCH 4 6
ATOM      6  CA  ASP A 387     -26.197 -25.612  19.071  1.00 25.57 LIG 0.19  C 
BRANCH 6 7
ATOM      7  N   ASP A 387     -27.586 -25.520  18.579  1.00 28.40 LIG-0.34  N 
ATOM      8 H    ASP A 387     -28.183 -25.698  19.172  1.00 28.40 LIG 0.16  HD
ATOM      9  C   THR A 386     -27.874 -25.187  17.310  1.00 31.30 LIG 0.26  C 
ATOM     10 O    THR A 386     -27.085 -24.548  16.586  1.00 31.60 LIG-0.27  OA
BRANCH 9 11
ATOM     11  CA  THR A 386     -29.267 -25.580  16.757  1.00 33.11 LIG 0.43  C 
ATOM     12  N   THR A 386     -29.503 -27.054  16.695  1.00 33.83 LIG 0.62  N 
BRANCH 11 13
ATOM     13  CB  THR A 386     -30.409 -24.859  17.530  1.00 33.77 LIG 0.16  C 
ATOM     14  CG2 THR A 386     -31.777 -25.491  17.258  1.00 34.60 LIG 0.04  C 
BRANCH 13 15
ATOM     15 OG1  THR A 386     -30.219 -24.994  18.947  1.00 35.18 LIG-0.39  OA
ATOM     16 HG1  THR A 386     -30.006 -24.249  19.274  1.00 35.18 LIG 0.21  HD
ENDBRANCH 13 15
ENDBRANCH 11 13
ENDBRANCH 9 11
ENDBRANCH 6 7
BRANCH 6 17
ATOM     17  CB  ASP A 387     -26.079 -25.234  20.574  1.00 25.68 LIG 0.15  C 
BRANCH 17 18
ATOM     18  CG  ASP A 387     -26.829 -26.210  21.507  1.00 25.80 LIG 0.17  C 
ATOM     19 OD2  ASP A 387     -28.001 -25.997  21.895  1.00 26.75 LIG-0.65  OA
ATOM     20 OD1  ASP A 387     -26.286 -27.274  21.914  1.00 21.65 LIG-0.65  OA
ENDBRANCH 17 18
ENDBRANCH 6 17
ENDBRANCH 4 6
ENDBRANCH 1 2
BRANCH 1 21
ATOM     21  CB  HIS A 388     -24.798 -29.795  19.982  1.00 17.51 LIG 0.10  C 
BRANCH 21 22
ATOM     22  CG  HIS A 388     -23.950 -30.652  20.890  1.00 19.36 LIG 0.06  A 
ATOM     23 ND1  HIS A 388     -24.402 -31.162  22.085  1.00 21.21 LIG-0.24  NA
ATOM     24  CE1 HIS A 388     -23.448 -31.881  22.650  1.00 22.16 LIG 0.23  A 
ATOM     25 NE2  HIS A 388     -22.378 -31.836  21.878  1.00 21.69 LIG-0.25  NA
ATOM     26  CD2 HIS A 388     -22.665 -31.068  20.774  1.00 21.19 LIG 0.14  A 
ENDBRANCH 21 22
ENDBRANCH 1 21
BRANCH 1 27
ATOM     27  C   HIS A 388     -24.076 -29.169  17.664  1.00 15.45 LIG 0.24  C 
ATOM     28 O    HIS A 388     -24.655 -30.198  17.357  1.00 14.42 LIG-0.27  OA
ATOM     29  N   GLY A 389     -23.476 -28.391  16.754  1.00 14.00 LIG-0.35  N 
ATOM     30 H    GLY A 389     -23.079 -27.651  16.938  1.00 14.00 LIG 0.16  HD
BRANCH 29 31
ATOM     31  CA  GLY A 389     -23.453 -28.759  15.338  1.00 13.01 LIG 0.23  C 
BRANCH 31 32
ATOM     32  C   GLY A 389     -24.530 -28.062  14.535  1.00 11.92 LIG 0.24  C 
ATOM     33 O    GLY A 389     -24.435 -27.921  13.291  1.00 12.61 LIG-0.27  OA
ATOM     34  N   ALA A 390     -25.578 -27.648  15.221  1.00 10.53 LIG-0.35  N 
ATOM     35 H    ALA A 390     -25.681 -27.791  16.063  1.00 10.53 LIG 0.16  HD
BRANCH 34 36
ATOM     36  CA  ALA A 390     -26.677 -26.899  14.607  1.00 11.53 LIG 0.17  C 
ATOM     37  CB  ALA A 390     -26.111 -25.838  13.688  1.00 11.91 LIG 0.04  C 
BRANCH 36 38
ATOM     38  C   ALA A 390     -27.590 -27.847  13.804  1.00 13.11 LIG 0.24  C 
ATOM     39  N   GLU A 391     -26.962 -28.835  13.182  1.00 14.39 LIG-0.34  N 
ATOM     40 H    GLU A 391     -26.116 -28.970  13.240  1.00 14.39 LIG 0.16  HD
ATOM     41 O    ALA A 390     -28.810 -27.665  13.703  1.00 12.73 LIG-0.27  OA
BRANCH 39 42
ATOM     42  CA  GLU A 391     -27.647 -29.779  12.343  1.00 15.60 LIG 0.19  C 
BRANCH 42 43
ATOM     43  CB  GLU A 391     -26.985 -29.794  10.961  1.00 17.03 LIG 0.05  C 
BRANCH 43 44
ATOM     44  CG  GLU A 391     -27.648 -30.673   9.937  1.00 23.68 LIG 0.12  C 
BRANCH 44 45
ATOM     45  CD  GLU A 391     -26.797 -30.768   8.672  1.00 29.63 LIG 0.17  C 
ATOM     46 OE1  GLU A 391     -25.702 -31.403   8.747  1.00 31.73 LIG-0.65  OA
ATOM     47 OE2  GLU A 391     -27.204 -30.160   7.644  1.00 33.20 LIG-0.65  OA
ENDBRANCH 44 45
ENDBRANCH 43 44
ENDBRANCH 42 43
BRANCH 42 48
ATOM     48  C   GLU A 391     -27.534 -31.146  13.011  1.00 14.85 LIG 0.20  C 
ATOM     49 OXT  GLU A 391     -27.954 -32.140  12.435  1.00 14.73 LIG-0.65  OA
ATOM     50 O    GLU A 391     -27.039 -31.252  14.134  1.00 14.85 LIG-0.65  OA
ENDBRANCH 42 48
ENDBRANCH 39 42
ENDBRANCH 36 38
ENDBRANCH 34 36
ENDBRANCH 31 32
ENDBRANCH 29 31
ENDBRANCH 1 27
TORSDOF 20
ENDMDL
MODEL 5
USER: ADFR SOLUTION from run 193
USER: SCORE 17.248038 LL:  -3.094 LR: -15.521 RR:   0.000 FEB:  -9.555
USER: RMSD 9.867137
USER: SEED 192
USER: STATUS no improvement in best in 6 clusters for 5 generations
USER: GENES 22
USER: genes 0 Translation |==|  0.67839 0.53619 0.69901
USER: genes 1 Rotation |==|  0.15614 0.15258 0.60243 0.52394
USER: genes 2 Torsion [C]-CA--N-[C] |==|  0.71150
USER: genes 3 Torsion [N]-C--CA-[N] |==|  0.21720
USER: genes 4 Torsion [C]-CA--N-[C] |==|  0.74516
USER: genes 5 Torsion [N]-C--CA-[N] |==|  0.38048
USER: genes 6 Torsion [C]-CA--CB-[CG2] |==|  0.44933
USER: genes 7 Torsion [CA]-CB--OG1-[HG1] |==|  0.54597
USER: genes 8 Torsion [C]-CA--CB-[CG] |==|  0.17273
USER: genes 9 Torsion [CA]-CB--CG-[OD2] |==|  0.28184
USER: genes 10 Torsion [N]-CA--CB-[CG] |==|  0.15379
USER: genes 11 Torsion [CA]-CB--CG-[ND1] |==|  0.81530
USER: genes 12 Torsion [N]-CA--C-[N] |==|  0.99184
USER: genes 13 Torsion [C]-N--CA-[C] |==|  0.14946
USER: genes 14 Torsion [N]-CA--C-[N] |==|  0.16959
USER: genes 15 Torsion [C]-N--CA-[CB] |==|  0.19998
USER: genes 16 Torsion [N]-CA--C-[N] |==|  0.17303
USER: genes 17 Torsion [C]-N--CA-[CB] |==|  0.83798
USER: genes 18 Torsion [N]-CA--CB-[CG] |==|  0.49373
USER: genes 19 Torsion [CA]-CB--CG-[CD] |==|  0.49773
USER: genes 20 Torsion [CB]-CG--CD-[OE1] |==|  0.82527
USER: genes 21 Torsion [N]-CA--C-[OXT] |==|  0.51387
ROOT
ATOM      1  CA  HIS A 388     -25.225 -26.873  19.477  1.00 17.64 LIG 0.18  C 
ENDROOT
BRANCH 1 2
ATOM      2  N   HIS A 388     -26.091 -27.951  19.956  1.00 19.60 LIG-0.35  N 
ATOM      3 H    HIS A 388     -26.181 -28.602  19.402  1.00 19.60 LIG 0.16  HD
ATOM      4  C   ASP A 387     -26.682 -27.911  21.152  1.00 22.66 LIG 0.24  C 
ATOM      5 O    ASP A 387     -26.525 -26.977  21.945  1.00 22.02 LIG-0.27  OA
BRANCH 4 6
ATOM      6  CA  ASP A 387     -27.561 -29.101  21.524  1.00 25.57 LIG 0.19  C 
BRANCH 6 7
ATOM      7  N   ASP A 387     -26.639 -30.180  21.933  1.00 28.40 LIG-0.34  N 
ATOM      8 H    ASP A 387     -26.431 -30.168  22.767  1.00 28.40 LIG 0.16  HD
ATOM      9  C   THR A 386     -26.176 -31.091  21.062  1.00 31.30 LIG 0.26  C 
ATOM     10 O    THR A 386     -26.764 -31.365  19.998  1.00 31.60 LIG-0.27  OA
BRANCH 9 11
ATOM     11  CA  THR A 386     -24.881 -31.856  21.436  1.00 33.11 LIG 0.43  C 
ATOM     12  N   THR A 386     -24.934 -33.320  21.142  1.00 33.83 LIG 0.62  N 
BRANCH 11 13
ATOM     13  CB  THR A 386     -23.627 -31.197  20.793  1.00 33.77 LIG 0.16  C 
ATOM     14  CG2 THR A 386     -22.330 -31.634  21.481  1.00 34.60 LIG 0.04  C 
BRANCH 13 15
ATOM     15 OG1  THR A 386     -23.479 -31.623  19.430  1.00 35.18 LIG-0.39  OA
ATOM     16 HG1  THR A 386     -22.699 -31.453  19.166  1.00 35.18 LIG 0.21  HD
ENDBRANCH 13 15
ENDBRANCH 11 13
ENDBRANCH 9 11
ENDBRANCH 6 7
BRANCH 6 17
ATOM     17  CB  ASP A 387     -28.544 -28.705  22.661  1.00 25.68 LIG 0.15  C 
BRANCH 17 18
ATOM     18  CG  ASP A 387     -29.522 -27.581  22.256  1.00 25.80 LIG 0.17  C 
ATOM     19 OD2  ASP A 387     -30.710 -27.811  21.933  1.00 26.75 LIG-0.65  OA
ATOM     20 OD1  ASP A 387     -29.160 -26.372  22.239  1.00 21.65 LIG-0.65  OA
ENDBRANCH 17 18
ENDBRANCH 6 17
ENDBRANCH 4 6
ENDBRANCH 1 2
BRANCH 1 21
ATOM     21  CB  HIS A 388     -23.917 -27.397  18.820  1.00 17.51 LIG 0.10  C 
BRANCH 21 22
ATOM     22  CG  HIS A 388     -24.115 -28.376  17.687  1.00 19.36 LIG 0.06  A 
ATOM     23 ND1  HIS A 388     -24.644 -29.634  17.861  1.00 21.21 LIG-0.24  NA
ATOM     24  CE1 HIS A 388     -24.709 -30.252  16.695  1.00 22.16 LIG 0.23  A 
ATOM     25 NE2  HIS A 388     -24.214 -29.451  15.769  1.00 21.69 LIG-0.25  NA
ATOM     26  CD2 HIS A 388     -23.830 -28.274  16.366  1.00 21.19 LIG 0.14  A 
ENDBRANCH 21 22
ENDBRANCH 1 21
BRANCH 1 27
ATOM     27  C   HIS A 388     -25.985 -26.030  18.443  1.00 15.45 LIG 0.24  C 
ATOM     28 O    HIS A 388     -25.453 -25.039  17.971  1.00 14.42 LIG-0.27  OA
ATOM     29  N   GLY A 389     -27.222 -26.408  18.098  1.00 14.00 LIG-0.35  N 
ATOM     30 H    GLY A 389     -27.613 -27.112  18.399  1.00 14.00 LIG 0.16  HD
BRANCH 29 31
ATOM     31  CA  GLY A 389     -28.020 -25.623  17.157  1.00 13.01 LIG 0.23  C 
BRANCH 31 32
ATOM     32  C   GLY A 389     -27.301 -25.366  15.850  1.00 11.92 LIG 0.24  C 
ATOM     33 O    GLY A 389     -27.012 -24.204  15.475  1.00 12.61 LIG-0.27  OA
ATOM     34  N   ALA A 390     -26.973 -26.441  15.158  1.00 10.53 LIG-0.35  N 
ATOM     35 H    ALA A 390     -27.114 -27.244  15.432  1.00 10.53 LIG 0.16  HD
BRANCH 34 36
ATOM     36  CA  ALA A 390     -26.333 -26.366  13.842  1.00 11.53 LIG 0.17  C 
ATOM     37  CB  ALA A 390     -24.899 -25.911  14.006  1.00 11.91 LIG 0.04  C 
BRANCH 36 38
ATOM     38  C   ALA A 390     -26.364 -27.744  13.151  1.00 13.11 LIG 0.24  C 
ATOM     39  N   GLU A 391     -27.577 -28.216  12.899  1.00 14.39 LIG-0.34  N 
ATOM     40 H    GLU A 391     -28.299 -27.784  13.071  1.00 14.39 LIG 0.16  HD
ATOM     41 O    ALA A 390     -25.335 -28.384  12.901  1.00 12.73 LIG-0.27  OA
BRANCH 39 42
ATOM     42  CA  GLU A 391     -27.796 -29.509  12.311  1.00 15.60 LIG 0.19  C 
BRANCH 42 43
ATOM     43  CB  GLU A 391     -27.085 -29.569  10.955  1.00 17.03 LIG 0.05  C 
BRANCH 43 44
ATOM     44  CG  GLU A 391     -27.179 -30.885  10.234  1.00 23.68 LIG 0.12  C 
BRANCH 44 45
ATOM     45  CD  GLU A 391     -26.454 -30.821   8.892  1.00 29.63 LIG 0.17  C 
ATOM     46 OE1  GLU A 391     -26.894 -30.008   8.024  1.00 31.73 LIG-0.65  OA
ATOM     47 OE2  GLU A 391     -25.498 -31.623   8.702  1.00 33.20 LIG-0.65  OA
ENDBRANCH 44 45
ENDBRANCH 43 44
ENDBRANCH 42 43
BRANCH 42 48
ATOM     48  C   GLU A 391     -27.221 -30.548  13.269  1.00 14.85 LIG 0.20  C 
ATOM     49 OXT  GLU A 391     -27.204 -31.728  12.946  1.00 14.73 LIG-0.65  OA
ATOM     50 O    GLU A 391     -26.791 -30.208  14.371  1.00 14.85 LIG-0.65  OA
ENDBRANCH 42 48
ENDBRANCH 39 42
ENDBRANCH 36 38
ENDBRANCH 34 36
ENDBRANCH 31 32
ENDBRANCH 29 31
ENDBRANCH 1 27
TORSDOF 20
ENDMDL
MODEL 6
USER: ADFR SOLUTION from run 194
USER: SCORE 17.933973 LL:  -3.429 LR: -15.458 RR:   0.000 FEB:  -9.492
USER: RMSD 9.506448
USER: SEED 193
USER: STATUS no improvement in best in 4 clusters for 5 generations
USER: GENES 22
USER: genes 0 Translation |==|  0.63485 0.63484 0.51887
USER: genes 1 Rotation |==|  0.72857 0.85938 0.25133 0.58225
USER: genes 2 Torsion [C]-CA--N-[C] |==|  0.82020
USER: genes 3 Torsion [N]-C--CA-[N] |==|  0.00581
USER: genes 4 Torsion [C]-CA--N-[C] |==|  0.20553
USER: genes 5 Torsion [N]-C--CA-[N] |==|  0.02056
USER: genes 6 Torsion [C]-CA--CB-[CG2] |==|  0.42611
USER: genes 7 Torsion [CA]-CB--OG1-[HG1] |==|  0.27155
USER: genes 8 Torsion [C]-CA--CB-[CG] |==|  0.51174
USER: genes 9 Torsion [CA]-CB--CG-[OD2] |==|  0.70108
USER: genes 10 Torsion [N]-CA--CB-[CG] |==|  0.14568
USER: genes 11 Torsion [CA]-CB--CG-[ND1] |==|  0.76254
USER: genes 12 Torsion [N]-CA--C-[N] |==|  0.40427
USER: genes 13 Torsion [C]-N--CA-[C] |==|  0.75980
USER: genes 14 Torsion [N]-CA--C-[N] |==|  0.47394
USER: genes 15 Torsion [C]-N--CA-[CB] |==|  0.82778
USER: genes 16 Torsion [N]-CA--C-[N] |==|  0.19613
USER: genes 17 Torsion [C]-N--CA-[CB] |==|  0.48368
USER: genes 18 Torsion [N]-CA--CB-[CG] |==|  0.80703
USER: genes 19 Torsion [CA]-CB--CG-[CD] |==|  0.73843
USER: genes 20 Torsion [CB]-CG--CD-[OE1] |==|  0.29378
USER: genes 21 Torsion [N]-CA--C-[OXT] |==|  0.95030
ROOT
ATOM      1  CA  HIS A 388     -26.074 -25.171  15.559  1.00 17.64 LIG 0.18  C 
ENDROOT
BRANCH 1 2
ATOM      2  N   HIS A 388     -26.286 -25.890  16.817  1.00 19.60 LIG-0.35  N 
ATOM      3 H    HIS A 388     -25.663 -26.450  17.010  1.00 19.60 LIG 0.16  HD
ATOM      4  C   ASP A 387     -27.358 -25.682  17.583  1.00 22.66 LIG 0.24  C 
ATOM      5 O    ASP A 387     -28.233 -24.858  17.300  1.00 22.02 LIG-0.27  OA
BRANCH 4 6
ATOM      6  CA  ASP A 387     -27.455 -26.502  18.866  1.00 25.57 LIG 0.19  C 
BRANCH 6 7
ATOM      7  N   ASP A 387     -26.225 -27.317  18.925  1.00 28.40 LIG-0.34  N 
ATOM      8 H    ASP A 387     -26.345 -28.150  18.747  1.00 28.40 LIG 0.16  HD
ATOM      9  C   THR A 386     -25.030 -26.786  19.232  1.00 31.30 LIG 0.26  C 
ATOM     10 O    THR A 386     -24.774 -25.575  19.086  1.00 31.60 LIG-0.27  OA
BRANCH 9 11
ATOM     11  CA  THR A 386     -23.923 -27.742  19.742  1.00 33.11 LIG 0.43  C 
ATOM     12  N   THR A 386     -24.285 -29.189  19.662  1.00 33.83 LIG 0.62  N 
BRANCH 11 13
ATOM     13  CB  THR A 386     -22.563 -27.462  19.039  1.00 33.77 LIG 0.16  C 
ATOM     14  CG2 THR A 386     -21.370 -27.872  19.909  1.00 34.60 LIG 0.04  C 
BRANCH 13 15
ATOM     15 OG1  THR A 386     -22.439 -28.257  17.850  1.00 35.18 LIG-0.39  OA
ATOM     16 HG1  THR A 386     -22.654 -27.796  17.181  1.00 35.18 LIG 0.21  HD
ENDBRANCH 13 15
ENDBRANCH 11 13
ENDBRANCH 9 11
ENDBRANCH 6 7
BRANCH 6 17
ATOM     17  CB  ASP A 387     -27.596 -25.560  20.094  1.00 25.68 LIG 0.15  C 
BRANCH 17 18
ATOM     18  CG  ASP A 387     -27.596 -26.314  21.442  1.00 25.80 LIG 0.17  C 
ATOM     19 OD2  ASP A 387     -28.632 -26.449  22.132  1.00 26.75 LIG-0.65  OA
ATOM     20 OD1  ASP A 387     -26.542 -26.833  21.901  1.00 21.65 LIG-0.65  OA
ENDBRANCH 17 18
ENDBRANCH 6 17
ENDBRANCH 4 6
ENDBRANCH 1 2
BRANCH 1 21
ATOM     21  CB  HIS A 388     -24.694 -25.480  14.913  1.00 17.51 LIG 0.10  C 
BRANCH 21 22
ATOM     22  CG  HIS A 388     -24.384 -26.947  14.731  1.00 19.36 LIG 0.06  A 
ATOM     23 ND1  HIS A 388     -23.829 -27.729  15.717  1.00 21.21 LIG-0.24  NA
ATOM     24  CE1 HIS A 388     -23.688 -28.966  15.275  1.00 22.16 LIG 0.23  A 
ATOM     25 NE2  HIS A 388     -24.106 -29.013  14.024  1.00 21.69 LIG-0.25  NA
ATOM     26  CD2 HIS A 388     -24.541 -27.761  13.658  1.00 21.19 LIG 0.14  A 
ENDBRANCH 21 22
ENDBRANCH 1 21
BRANCH 1 27
ATOM     27  C   HIS A 388     -27.175 -25.555  14.561  1.00 15.45 LIG 0.24  C 
ATOM     28 O    HIS A 388     -27.612 -26.694  14.558  1.00 14.42 LIG-0.27  OA
ATOM     29  N   GLY A 389     -27.615 -24.621  13.708  1.00 14.00 LIG-0.35  N 
ATOM     30 H    GLY A 389     -27.340 -23.806  13.700  1.00 14.00 LIG 0.16  HD
BRANCH 29 31
ATOM     31  CA  GLY A 389     -28.625 -24.933  12.697  1.00 13.01 LIG 0.23  C 
BRANCH 31 32
ATOM     32  C   GLY A 389     -28.027 -25.485  11.422  1.00 11.92 LIG 0.24  C 
ATOM     33 O    GLY A 389     -26.786 -25.508  11.233  1.00 12.61 LIG-0.27  OA
ATOM     34  N   ALA A 390     -28.890 -25.965  10.546  1.00 10.53 LIG-0.35  N 
ATOM     35 H    ALA A 390     -29.737 -26.007  10.689  1.00 10.53 LIG 0.16  HD
BRANCH 34 36
ATOM     36  CA  ALA A 390     -28.482 -26.476   9.235  1.00 11.53 LIG 0.17  C 
ATOM     37  CB  ALA A 390     -27.842 -25.360   8.436  1.00 11.91 LIG 0.04  C 
BRANCH 36 38
ATOM     38  C   ALA A 390     -27.480 -27.636   9.400  1.00 13.11 LIG 0.24  C 
ATOM     39  N   GLU A 391     -27.997 -28.759   9.876  1.00 14.39 LIG-0.34  N 
ATOM     40 H    GLU A 391     -28.833 -28.859  10.052  1.00 14.39 LIG 0.16  HD
ATOM     41 O    ALA A 390     -26.272 -27.509   9.159  1.00 12.73 LIG-0.27  OA
BRANCH 39 42
ATOM     42  CA  GLU A 391     -27.201 -29.924  10.147  1.00 15.60 LIG 0.19  C 
BRANCH 42 43
ATOM     43  CB  GLU A 391     -28.078 -30.985  10.821  1.00 17.03 LIG 0.05  C 
BRANCH 43 44
ATOM     44  CG  GLU A 391     -28.516 -30.663  12.223  1.00 23.68 LIG 0.12  C 
BRANCH 44 45
ATOM     45  CD  GLU A 391     -27.559 -31.277  13.244  1.00 29.63 LIG 0.17  C 
ATOM     46 OE1  GLU A 391     -26.761 -30.496  13.844  1.00 31.73 LIG-0.65  OA
ATOM     47 OE2  GLU A 391     -27.579 -32.531  13.387  1.00 33.20 LIG-0.65  OA
ENDBRANCH 44 45
ENDBRANCH 43 44
ENDBRANCH 42 43
BRANCH 42 48
ATOM     48  C   GLU A 391     -26.670 -30.432   8.810  1.00 14.85 LIG 0.20  C 
ATOM     49 OXT  GLU A 391     -27.200 -30.070   7.768  1.00 14.73 LIG-0.65  OA
ATOM     50 O    GLU A 391     -25.723 -31.219   8.774  1.00 14.85 LIG-0.65  OA
ENDBRANCH 42 48
ENDBRANCH 39 42
ENDBRANCH 36 38
ENDBRANCH 34 36
ENDBRANCH 31 32
ENDBRANCH 29 31
ENDBRANCH 1 27
TORSDOF 20
ENDMDL
MODEL 7
USER: ADFR SOLUTION from run 85
USER: SCORE 16.355730 LL:  -2.764 LR: -15.237 RR:   0.000 FEB:  -9.271
USER: RMSD 9.090825
USER: SEED 84
USER: STATUS no improvement in best in 9 clusters for 5 generations
USER: GENES 22
USER: genes 0 Translation |==|  0.74753 0.57642 0.60061
USER: genes 1 Rotation |==|  0.04750 0.39755 0.68235 0.53866
USER: genes 2 Torsion [C]-CA--N-[C] |==|  0.16320
USER: genes 3 Torsion [N]-C--CA-[N] |==|  0.62932
USER: genes 4 Torsion [C]-CA--N-[C] |==|  0.15391
USER: genes 5 Torsion [N]-C--CA-[N] |==|  0.65656
USER: genes 6 Torsion [C]-CA--CB-[CG2] |==|  0.33503
USER: genes 7 Torsion [CA]-CB--OG1-[HG1] |==|  0.22705
USER: genes 8 Torsion [C]-CA--CB-[CG] |==|  0.66707
USER: genes 9 Torsion [CA]-CB--CG-[OD2] |==|  0.30561
USER: genes 10 Torsion [N]-CA--CB-[CG] |==|  0.82351
USER: genes 11 Torsion [CA]-CB--CG-[ND1] |==|  0.87304
USER: genes 12 Torsion [N]-CA--C-[N] |==|  0.65394
USER: genes 13 Torsion [C]-N--CA-[C] |==|  0.66175
USER: genes 14 Torsion [N]-CA--C-[N] |==|  0.07521
USER: genes 15 Torsion [C]-N--CA-[CB] |==|  0.86882
USER: genes 16 Torsion [N]-CA--C-[N] |==|  0.38447
USER: genes 17 Torsion [C]-N--CA-[CB] |==|  0.87511
USER: genes 18 Torsion [N]-CA--CB-[CG] |==|  0.41093
USER: genes 19 Torsion [CA]-CB--CG-[CD] |==|  0.57442
USER: genes 20 Torsion [CB]-CG--CD-[OE1] |==|  0.90616
USER: genes 21 Torsion [N]-CA--C-[OXT] |==|  0.46080
ROOT
ATOM      1  CA  HIS A 388     -23.877 -26.179  17.337  1.00 17.64 LIG 0.18  C 
ENDROOT
BRANCH 1 2
ATOM      2  N   HIS A 388     -24.967 -25.800  18.237  1.00 19.60 LIG-0.35  N 
ATOM      3 H    HIS A 388     -24.706 -25.481  18.992  1.00 19.60 LIG 0.16  HD
ATOM      4  C   ASP A 387     -26.250 -25.943  17.900  1.00 22.66 LIG 0.24  C 
ATOM      5 O    ASP A 387     -26.608 -26.383  16.803  1.00 22.02 LIG-0.27  OA
BRANCH 4 6
ATOM      6  CA  ASP A 387     -27.285 -25.511  18.934  1.00 25.57 LIG 0.19  C 
BRANCH 6 7
ATOM      7  N   ASP A 387     -28.278 -26.602  19.000  1.00 28.40 LIG-0.34  N 
ATOM      8 H    ASP A 387     -29.088 -26.350  18.860  1.00 28.40 LIG 0.16  HD
ATOM      9  C   THR A 386     -27.928 -27.872  19.259  1.00 31.30 LIG 0.26  C 
ATOM     10 O    THR A 386     -26.777 -28.308  19.057  1.00 31.60 LIG-0.27  OA
BRANCH 9 11
ATOM     11  CA  THR A 386     -29.025 -28.833  19.784  1.00 33.11 LIG 0.43  C 
ATOM     12  N   THR A 386     -28.690 -29.482  21.087  1.00 33.83 LIG 0.62  N 
BRANCH 11 13
ATOM     13  CB  THR A 386     -30.412 -28.131  19.843  1.00 33.77 LIG 0.16  C 
ATOM     14  CG2 THR A 386     -31.454 -28.842  18.973  1.00 34.60 LIG 0.04  C 
BRANCH 13 15
ATOM     15 OG1  THR A 386     -30.948 -28.189  21.174  1.00 35.18 LIG-0.39  OA
ATOM     16 HG1  THR A 386     -30.608 -27.576  21.639  1.00 35.18 LIG 0.21  HD
ENDBRANCH 13 15
ENDBRANCH 11 13
ENDBRANCH 9 11
ENDBRANCH 6 7
BRANCH 6 17
ATOM     17  CB  ASP A 387     -26.599 -25.257  20.305  1.00 25.68 LIG 0.15  C 
BRANCH 17 18
ATOM     18  CG  ASP A 387     -27.137 -26.164  21.432  1.00 25.80 LIG 0.17  C 
ATOM     19 OD2  ASP A 387     -26.452 -27.083  21.936  1.00 26.75 LIG-0.65  OA
ATOM     20 OD1  ASP A 387     -28.299 -26.008  21.899  1.00 21.65 LIG-0.65  OA
ENDBRANCH 17 18
ENDBRANCH 6 17
ENDBRANCH 4 6
ENDBRANCH 1 2
BRANCH 1 21
ATOM     21  CB  HIS A 388     -23.876 -27.697  16.999  1.00 17.51 LIG 0.10  C 
BRANCH 21 22
ATOM     22  CG  HIS A 388     -23.646 -28.617  18.174  1.00 19.36 LIG 0.06  A 
ATOM     23 ND1  HIS A 388     -22.662 -28.409  19.113  1.00 21.21 LIG-0.24  NA
ATOM     24  CE1 HIS A 388     -22.712 -29.364  20.025  1.00 22.16 LIG 0.23  A 
ATOM     25 NE2  HIS A 388     -23.675 -30.205  19.698  1.00 21.69 LIG-0.25  NA
ATOM     26  CD2 HIS A 388     -24.271 -29.763  18.541  1.00 21.19 LIG 0.14  A 
ENDBRANCH 21 22
ENDBRANCH 1 21
BRANCH 1 27
ATOM     27  C   HIS A 388     -23.999 -25.389  16.027  1.00 15.45 LIG 0.24  C 
ATOM     28 O    HIS A 388     -24.052 -24.171  16.063  1.00 14.42 LIG-0.27  OA
ATOM     29  N   GLY A 389     -24.055 -26.070  14.876  1.00 14.00 LIG-0.35  N 
ATOM     30 H    GLY A 389     -24.000 -26.927  14.818  1.00 14.00 LIG 0.16  HD
BRANCH 29 31
ATOM     31  CA  GLY A 389     -24.222 -25.383  13.595  1.00 13.01 LIG 0.23  C 
BRANCH 31 32
ATOM     32  C   GLY A 389     -25.453 -25.840  12.842  1.00 11.92 LIG 0.24  C 
ATOM     33 O    GLY A 389     -25.508 -25.806  11.588  1.00 12.61 LIG-0.27  OA
ATOM     34  N   ALA A 390     -26.441 -26.301  13.586  1.00 10.53 LIG-0.35  N 
ATOM     35 H    ALA A 390     -26.393 -26.383  14.441  1.00 10.53 LIG 0.16  HD
BRANCH 34 36
ATOM     36  CA  ALA A 390     -27.725 -26.721  13.020  1.00 11.53 LIG 0.17  C 
ATOM     37  CB  ALA A 390     -28.217 -25.668  12.051  1.00 11.91 LIG 0.04  C 
BRANCH 36 38
ATOM     38  C   ALA A 390     -27.572 -28.069  12.287  1.00 13.11 LIG 0.24  C 
ATOM     39  N   GLU A 391     -28.562 -28.929  12.484  1.00 14.39 LIG-0.34  N 
ATOM     40 H    GLU A 391     -29.259 -28.750  12.954  1.00 14.39 LIG 0.16  HD
ATOM     41 O    ALA A 390     -26.573 -28.347  11.611  1.00 12.73 LIG-0.27  OA
BRANCH 39 42
ATOM     42  CA  GLU A 391     -28.559 -30.253  11.926  1.00 15.60 LIG 0.19  C 
BRANCH 42 43
ATOM     43  CB  GLU A 391     -28.122 -30.176  10.459  1.00 17.03 LIG 0.05  C 
BRANCH 43 44
ATOM     44  CG  GLU A 391     -27.362 -31.369   9.948  1.00 23.68 LIG 0.12  C 
BRANCH 44 45
ATOM     45  CD  GLU A 391     -26.439 -30.971   8.798  1.00 29.63 LIG 0.17  C 
ATOM     46 OE1  GLU A 391     -26.832 -30.052   8.019  1.00 31.73 LIG-0.65  OA
ATOM     47 OE2  GLU A 391     -25.366 -31.621   8.655  1.00 33.20 LIG-0.65  OA
ENDBRANCH 44 45
ENDBRANCH 43 44
ENDBRANCH 42 43
BRANCH 42 48
ATOM     48  C   GLU A 391     -27.575 -31.087  12.739  1.00 14.85 LIG 0.20  C 
ATOM     49 OXT  GLU A 391     -27.579 -32.306  12.633  1.00 14.73 LIG-0.65  OA
ATOM     50 O    GLU A 391     -26.789 -30.543  13.515  1.00 14.85 LIG-0.65  OA
ENDBRANCH 42 48
ENDBRANCH 39 42
ENDBRANCH 36 38
ENDBRANCH 34 36
ENDBRANCH 31 32
ENDBRANCH 29 31
ENDBRANCH 1 27
TORSDOF 20
ENDMDL
MODEL 8
USER: ADFR SOLUTION from run 118
USER: SCORE 16.538678 LL:  -2.775 LR: -15.204 RR:   0.000 FEB:  -9.238
USER: RMSD 9.968597
USER: SEED 117
USER: STATUS no improvement in best in 7 clusters for 5 generations
USER: GENES 22
USER: genes 0 Translation |==|  0.63139 0.60153 0.68757
USER: genes 1 Rotation |==|  0.82064 0.85477 0.43612 0.63131
USER: genes 2 Torsion [C]-CA--N-[C] |==|  0.63398
USER: genes 3 Torsion [N]-C--CA-[N] |==|  0.16111
USER: genes 4 Torsion [C]-CA--N-[C] |==|  0.14134
USER: genes 5 Torsion [N]-C--CA-[N] |==|  0.32479
USER: genes 6 Torsion [C]-CA--CB-[CG2] |==|  0.49580
USER: genes 7 Torsion [CA]-CB--OG1-[HG1] |==|  0.49700
USER: genes 8 Torsion [C]-CA--CB-[CG] |==|  0.36726
USER: genes 9 Torsion [CA]-CB--CG-[OD2] |==|  0.99189
USER: genes 10 Torsion [N]-CA--CB-[CG] |==|  0.09544
USER: genes 11 Torsion [CA]-CB--CG-[ND1] |==|  0.03972
USER: genes 12 Torsion [N]-CA--C-[N] |==|  0.61191
USER: genes 13 Torsion [C]-N--CA-[C] |==|  0.76220
USER: genes 14 Torsion [N]-CA--C-[N] |==|  0.90082
USER: genes 15 Torsion [C]-N--CA-[CB] |==|  0.53475
USER: genes 16 Torsion [N]-CA--C-[N] |==|  0.40826
USER: genes 17 Torsion [C]-N--CA-[CB] |==|  0.45500
USER: genes 18 Torsion [N]-CA--CB-[CG] |==|  0.70884
USER: genes 19 Torsion [CA]-CB--CG-[CD] |==|  0.42413
USER: genes 20 Torsion [CB]-CG--CD-[OE1] |==|  0.06626
USER: genes 21 Torsion [N]-CA--C-[OXT] |==|  0.58777
ROOT
ATOM      1  CA  HIS A 388     -26.142 -25.746  19.229  1.00 17.64 LIG 0.18  C 
ENDROOT
BRANCH 1 2
ATOM      2  N   HIS A 388     -27.001 -26.872  19.594  1.00 19.60 LIG-0.35  N 
ATOM      3 H    HIS A 388     -26.956 -27.539  19.053  1.00 19.60 LIG 0.16  HD
ATOM      4  C   ASP A 387     -27.781 -26.850  20.677  1.00 22.66 LIG 0.24  C 
ATOM      5 O    ASP A 387     -27.817 -25.892  21.455  1.00 22.02 LIG-0.27  OA
BRANCH 4 6
ATOM      6  CA  ASP A 387     -28.629 -28.091  20.938  1.00 25.57 LIG 0.19  C 
BRANCH 6 7
ATOM      7  N   ASP A 387     -27.682 -29.220  21.043  1.00 28.40 LIG-0.34  N 
ATOM      8 H    ASP A 387     -27.880 -29.893  20.547  1.00 28.40 LIG 0.16  HD
ATOM      9  C   THR A 386     -26.609 -29.179  21.850  1.00 31.30 LIG 0.26  C 
ATOM     10 O    THR A 386     -26.097 -28.110  22.235  1.00 31.60 LIG-0.27  OA
BRANCH 9 11
ATOM     11  CA  THR A 386     -25.966 -30.526  22.268  1.00 33.11 LIG 0.43  C 
ATOM     12  N   THR A 386     -24.562 -30.703  21.791  1.00 33.83 LIG 0.62  N 
BRANCH 11 13
ATOM     13  CB  THR A 386     -26.073 -30.752  23.804  1.00 33.77 LIG 0.16  C 
ATOM     14  CG2 THR A 386     -25.475 -32.097  24.230  1.00 34.60 LIG 0.04  C 
BRANCH 13 15
ATOM     15 OG1  THR A 386     -25.301 -29.769  24.511  1.00 35.18 LIG-0.39  OA
ATOM     16 HG1  THR A 386     -25.379 -29.893  25.338  1.00 35.18 LIG 0.21  HD
ENDBRANCH 13 15
ENDBRANCH 11 13
ENDBRANCH 9 11
ENDBRANCH 6 7
BRANCH 6 17
ATOM     17  CB  ASP A 387     -29.466 -27.904  22.234  1.00 25.68 LIG 0.15  C 
BRANCH 17 18
ATOM     18  CG  ASP A 387     -30.953 -28.283  22.057  1.00 25.80 LIG 0.17  C 
ATOM     19 OD2  ASP A 387     -31.424 -28.647  20.956  1.00 26.75 LIG-0.65  OA
ATOM     20 OD1  ASP A 387     -31.758 -28.247  23.029  1.00 21.65 LIG-0.65  OA
ENDBRANCH 17 18
ENDBRANCH 6 17
ENDBRANCH 4 6
ENDBRANCH 1 2
BRANCH 1 21
ATOM     21  CB  HIS A 388     -24.633 -26.033  19.477  1.00 17.51 LIG 0.10  C 
BRANCH 21 22
ATOM     22  CG  HIS A 388     -24.205 -27.462  19.245  1.00 19.36 LIG 0.06  A 
ATOM     23 ND1  HIS A 388     -24.982 -28.384  18.581  1.00 21.21 LIG-0.24  NA
ATOM     24  CE1 HIS A 388     -24.343 -29.540  18.521  1.00 22.16 LIG 0.23  A 
ATOM     25 NE2  HIS A 388     -23.188 -29.412  19.147  1.00 21.69 LIG-0.25  NA
ATOM     26  CD2 HIS A 388     -23.081 -28.124  19.615  1.00 21.19 LIG 0.14  A 
ENDBRANCH 21 22
ENDBRANCH 1 21
BRANCH 1 27
ATOM     27  C   HIS A 388     -26.335 -25.418  17.742  1.00 15.45 LIG 0.24  C 
ATOM     28 O    HIS A 388     -27.455 -25.464  17.258  1.00 14.42 LIG-0.27  OA
ATOM     29  N   GLY A 389     -25.257 -25.101  17.014  1.00 14.00 LIG-0.35  N 
ATOM     30 H    GLY A 389     -24.461 -25.041  17.332  1.00 14.00 LIG 0.16  HD
BRANCH 29 31
ATOM     31  CA  GLY A 389     -25.363 -24.827  15.581  1.00 13.01 LIG 0.23  C 
BRANCH 31 32
ATOM     32  C   GLY A 389     -25.299 -26.082  14.738  1.00 11.92 LIG 0.24  C 
ATOM     33 O    GLY A 389     -25.953 -26.194  13.673  1.00 12.61 LIG-0.27  OA
ATOM     34  N   ALA A 390     -24.491 -27.028  15.181  1.00 10.53 LIG-0.35  N 
ATOM     35 H    ALA A 390     -23.995 -26.940  15.878  1.00 10.53 LIG 0.16  HD
BRANCH 34 36
ATOM     36  CA  ALA A 390     -24.363 -28.329  14.520  1.00 11.53 LIG 0.17  C 
ATOM     37  CB  ALA A 390     -23.613 -29.282  15.425  1.00 11.91 LIG 0.04  C 
BRANCH 36 38
ATOM     38  C   ALA A 390     -25.756 -28.906  14.198  1.00 13.11 LIG 0.24  C 
ATOM     39  N   GLU A 391     -25.819 -29.632  13.091  1.00 14.39 LIG-0.34  N 
ATOM     40 H    GLU A 391     -25.136 -29.806  12.599  1.00 14.39 LIG 0.16  HD
ATOM     41 O    ALA A 390     -26.752 -28.662  14.891  1.00 12.73 LIG-0.27  OA
BRANCH 39 42
ATOM     42  CA  GLU A 391     -27.046 -30.201  12.607  1.00 15.60 LIG 0.19  C 
BRANCH 42 43
ATOM     43  CB  GLU A 391     -26.862 -30.617  11.144  1.00 17.03 LIG 0.05  C 
BRANCH 43 44
ATOM     44  CG  GLU A 391     -27.511 -29.716  10.130  1.00 23.68 LIG 0.12  C 
BRANCH 44 45
ATOM     45  CD  GLU A 391     -26.768 -29.776   8.797  1.00 29.63 LIG 0.17  C 
ATOM     46 OE1  GLU A 391     -26.086 -30.816   8.551  1.00 31.73 LIG-0.65  OA
ATOM     47 OE2  GLU A 391     -26.829 -28.764   8.045  1.00 33.20 LIG-0.65  OA
ENDBRANCH 44 45
ENDBRANCH 43 44
ENDBRANCH 42 43
BRANCH 42 48
ATOM     48  C   GLU A 391     -27.360 -31.413  13.478  1.00 14.85 LIG 0.20  C 
ATOM     49 OXT  GLU A 391     -27.949 -32.371  12.997  1.00 14.73 LIG-0.65  OA
ATOM     50 O    GLU A 391     -27.040 -31.425  14.668  1.00 14.85 LIG-0.65  OA
ENDBRANCH 42 48
ENDBRANCH 39 42
ENDBRANCH 36 38
ENDBRANCH 34 36
ENDBRANCH 31 32
ENDBRANCH 29 31
ENDBRANCH 1 27
TORSDOF 20
ENDMDL
MODEL 9
USER: ADFR SOLUTION from run 162
USER: SCORE 15.991805 LL:  -2.399 LR: -15.102 RR:   0.000 FEB:  -9.136
USER: RMSD 8.603405
USER: SEED 161
USER: STATUS no improvement in best in 15 clusters for 5 generations
USER: GENES 22
USER: genes 0 Translation |==|  0.68019 0.61032 0.52560
USER: genes 1 Rotation |==|  0.16642 0.21107 0.73183 0.53878
USER: genes 2 Torsion [C]-CA--N-[C] |==|  0.67984
USER: genes 3 Torsion [N]-C--CA-[N] |==|  0.29917
USER: genes 4 Torsion [C]-CA--N-[C] |==|  0.74242
USER: genes 5 Torsion [N]-C--CA-[N] |==|  0.45300
USER: genes 6 Torsion [C]-CA--CB-[CG2] |==|  0.01164
USER: genes 7 Torsion [CA]-CB--OG1-[HG1] |==|  0.57493
USER: genes 8 Torsion [C]-CA--CB-[CG] |==|  0.56635
USER: genes 9 Torsion [CA]-CB--CG-[OD2] |==|  0.64910
USER: genes 10 Torsion [N]-CA--CB-[CG] |==|  0.01150
USER: genes 11 Torsion [CA]-CB--CG-[ND1] |==|  0.08611
USER: genes 12 Torsion [N]-CA--C-[N] |==|  0.65618
USER: genes 13 Torsion [C]-N--CA-[C] |==|  0.85855
USER: genes 14 Torsion [N]-CA--C-[N] |==|  0.37684
USER: genes 15 Torsion [C]-N--CA-[CB] |==|  0.86096
USER: genes 16 Torsion [N]-CA--C-[N] |==|  0.47218
USER: genes 17 Torsion [C]-N--CA-[CB] |==|  0.86830
USER: genes 18 Torsion [N]-CA--CB-[CG] |==|  0.83924
USER: genes 19 Torsion [CA]-CB--CG-[CD] |==|  0.67826
USER: genes 20 Torsion [CB]-CG--CD-[OE1] |==|  0.24689
USER: genes 21 Torsion [N]-CA--C-[OXT] |==|  0.08614
ROOT
ATOM      1  CA  HIS A 388     -25.190 -25.594  15.706  1.00 17.64 LIG 0.18  C 
ENDROOT
BRANCH 1 2
ATOM      2  N   HIS A 388     -25.814 -26.272  16.843  1.00 19.60 LIG-0.35  N 
ATOM      3 H    HIS A 388     -26.286 -26.958  16.627  1.00 19.60 LIG 0.16  HD
ATOM      4  C   ASP A 387     -25.655 -25.849  18.098  1.00 22.66 LIG 0.24  C 
ATOM      5 O    ASP A 387     -24.957 -24.874  18.392  1.00 22.02 LIG-0.27  OA
BRANCH 4 6
ATOM      6  CA  ASP A 387     -26.365 -26.647  19.187  1.00 25.57 LIG 0.19  C 
BRANCH 6 7
ATOM      7  N   ASP A 387     -25.309 -27.386  19.908  1.00 28.40 LIG-0.34  N 
ATOM      8 H    ASP A 387     -24.948 -26.946  20.552  1.00 28.40 LIG 0.16  HD
ATOM      9  C   THR A 386     -24.956 -28.637  19.571  1.00 31.30 LIG 0.26  C 
ATOM     10 O    THR A 386     -25.715 -29.406  18.949  1.00 31.60 LIG-0.27  OA
BRANCH 9 11
ATOM     11  CA  THR A 386     -23.563 -29.144  20.025  1.00 33.11 LIG 0.43  C 
ATOM     12  N   THR A 386     -23.408 -30.628  19.968  1.00 33.83 LIG 0.62  N 
BRANCH 11 13
ATOM     13  CB  THR A 386     -22.419 -28.427  19.250  1.00 33.77 LIG 0.16  C 
ATOM     14  CG2 THR A 386     -22.953 -27.337  18.315  1.00 34.60 LIG 0.04  C 
BRANCH 13 15
ATOM     15 OG1  THR A 386     -21.552 -27.735  20.161  1.00 35.18 LIG-0.39  OA
ATOM     16 HG1  THR A 386     -21.192 -27.086  19.767  1.00 35.18 LIG 0.21  HD
ENDBRANCH 13 15
ENDBRANCH 11 13
ENDBRANCH 9 11
ENDBRANCH 6 7
BRANCH 6 17
ATOM     17  CB  ASP A 387     -27.156 -25.691  20.122  1.00 25.68 LIG 0.15  C 
BRANCH 17 18
ATOM     18  CG  ASP A 387     -27.405 -26.282  21.527  1.00 25.80 LIG 0.17  C 
ATOM     19 OD2  ASP A 387     -28.550 -26.355  22.029  1.00 26.75 LIG-0.65  OA
ATOM     20 OD1  ASP A 387     -26.454 -26.724  22.229  1.00 21.65 LIG-0.65  OA
ENDBRANCH 17 18
ENDBRANCH 6 17
ENDBRANCH 4 6
ENDBRANCH 1 2
BRANCH 1 21
ATOM     21  CB  HIS A 388     -24.302 -26.543  14.852  1.00 17.51 LIG 0.10  C 
BRANCH 21 22
ATOM     22  CG  HIS A 388     -24.317 -27.992  15.277  1.00 19.36 LIG 0.06  A 
ATOM     23 ND1  HIS A 388     -25.409 -28.597  15.855  1.00 21.21 LIG-0.24  NA
ATOM     24  CE1 HIS A 388     -25.132 -29.865  16.105  1.00 22.16 LIG 0.23  A 
ATOM     25 NE2  HIS A 388     -23.887 -30.102  15.734  1.00 21.69 LIG-0.25  NA
ATOM     26  CD2 HIS A 388     -23.354 -28.945  15.219  1.00 21.19 LIG 0.14  A 
ENDBRANCH 21 22
ENDBRANCH 1 21
BRANCH 1 27
ATOM     27  C   HIS A 388     -26.281 -25.005  14.801  1.00 15.45 LIG 0.24  C 
ATOM     28 O    HIS A 388     -27.106 -24.241  15.276  1.00 14.42 LIG-0.27  OA
ATOM     29  N   GLY A 389     -26.300 -25.361  13.511  1.00 14.00 LIG-0.35  N 
ATOM     30 H    GLY A 389     -25.720 -25.881  13.145  1.00 14.00 LIG 0.16  HD
BRANCH 29 31
ATOM     31  CA  GLY A 389     -27.341 -24.878  12.605  1.00 13.01 LIG 0.23  C 
BRANCH 31 32
ATOM     32  C   GLY A 389     -28.737 -25.092  13.149  1.00 11.92 LIG 0.24  C 
ATOM     33 O    GLY A 389     -29.067 -26.164  13.712  1.00 12.61 LIG-0.27  OA
ATOM     34  N   ALA A 390     -29.564 -24.071  13.021  1.00 10.53 LIG-0.35  N 
ATOM     35 H    ALA A 390     -29.333 -23.312  12.690  1.00 10.53 LIG 0.16  HD
BRANCH 34 36
ATOM     36  CA  ALA A 390     -30.967 -24.137  13.435  1.00 11.53 LIG 0.17  C 
ATOM     37  CB  ALA A 390     -31.608 -25.377  12.850  1.00 11.91 LIG 0.04  C 
BRANCH 36 38
ATOM     38  C   ALA A 390     -31.072 -24.174  14.973  1.00 13.11 LIG 0.24  C 
ATOM     39  N   GLU A 391     -32.297 -24.025  15.455  1.00 14.39 LIG-0.34  N 
ATOM     40 H    GLU A 391     -32.995 -23.947  14.959  1.00 14.39 LIG 0.16  HD
ATOM     41 O    ALA A 390     -30.078 -24.279  15.703  1.00 12.73 LIG-0.27  OA
BRANCH 39 42
ATOM     42  CA  GLU A 391     -32.574 -23.978  16.864  1.00 15.60 LIG 0.19  C 
BRANCH 42 43
ATOM     43  CB  GLU A 391     -31.840 -25.132  17.556  1.00 17.03 LIG 0.05  C 
BRANCH 43 44
ATOM     44  CG  GLU A 391     -32.181 -26.508  17.054  1.00 23.68 LIG 0.12  C 
BRANCH 44 45
ATOM     45  CD  GLU A 391     -32.853 -27.334  18.149  1.00 29.63 LIG 0.17  C 
ATOM     46 OE1  GLU A 391     -34.115 -27.263  18.247  1.00 31.73 LIG-0.65  OA
ATOM     47 OE2  GLU A 391     -32.109 -27.991  18.928  1.00 33.20 LIG-0.65  OA
ENDBRANCH 44 45
ENDBRANCH 43 44
ENDBRANCH 42 43
BRANCH 42 48
ATOM     48  C   GLU A 391     -32.075 -22.633  17.381  1.00 14.85 LIG 0.20  C 
ATOM     49 OXT  GLU A 391     -32.089 -21.656  16.645  1.00 14.73 LIG-0.65  OA
ATOM     50 O    GLU A 391     -31.641 -22.529  18.529  1.00 14.85 LIG-0.65  OA
ENDBRANCH 42 48
ENDBRANCH 39 42
ENDBRANCH 36 38
ENDBRANCH 34 36
ENDBRANCH 31 32
ENDBRANCH 29 31
ENDBRANCH 1 27
TORSDOF 20
ENDMDL
MODEL 10
USER: ADFR SOLUTION from run 146
USER: SCORE 17.065974 LL:  -3.317 LR: -15.072 RR:   0.000 FEB:  -9.106
USER: RMSD 8.353407
USER: SEED 145
USER: STATUS no improvement in best in 1 clusters for 5 generations
USER: GENES 22
USER: genes 0 Translation |==|  0.69099 0.60826 0.57200
USER: genes 1 Rotation |==|  0.87856 0.72859 0.33251 0.66244
USER: genes 2 Torsion [C]-CA--N-[C] |==|  0.54742
USER: genes 3 Torsion [N]-C--CA-[N] |==|  0.94720
USER: genes 4 Torsion [C]-CA--N-[C] |==|  0.72222
USER: genes 5 Torsion [N]-C--CA-[N] |==|  0.46262
USER: genes 6 Torsion [C]-CA--CB-[CG2] |==|  0.57433
USER: genes 7 Torsion [CA]-CB--OG1-[HG1] |==|  0.56504
USER: genes 8 Torsion [C]-CA--CB-[CG] |==|  0.21642
USER: genes 9 Torsion [CA]-CB--CG-[OD2] |==|  0.10548
USER: genes 10 Torsion [N]-CA--CB-[CG] |==|  0.23168
USER: genes 11 Torsion [CA]-CB--CG-[ND1] |==|  0.19313
USER: genes 12 Torsion [N]-CA--C-[N] |==|  0.45438
USER: genes 13 Torsion [C]-N--CA-[C] |==|  0.11191
USER: genes 14 Torsion [N]-CA--C-[N] |==|  0.67036
USER: genes 15 Torsion [C]-N--CA-[CB] |==|  0.22581
USER: genes 16 Torsion [N]-CA--C-[N] |==|  0.05585
USER: genes 17 Torsion [C]-N--CA-[CB] |==|  0.23250
USER: genes 18 Torsion [N]-CA--CB-[CG] |==|  0.72393
USER: genes 19 Torsion [CA]-CB--CG-[CD] |==|  0.45557
USER: genes 20 Torsion [CB]-CG--CD-[OE1] |==|  0.58050
USER: genes 21 Torsion [N]-CA--C-[OXT] |==|  0.46975
ROOT
ATOM      1  CA  HIS A 388     -24.980 -25.630  16.715  1.00 17.64 LIG 0.18  C 
ENDROOT
BRANCH 1 2
ATOM      2  N   HIS A 388     -26.259 -25.887  17.377  1.00 19.60 LIG-0.35  N 
ATOM      3 H    HIS A 388     -26.831 -26.304  16.888  1.00 19.60 LIG 0.16  HD
ATOM      4  C   ASP A 387     -26.502 -25.502  18.631  1.00 22.66 LIG 0.24  C 
ATOM      5 O    ASP A 387     -25.662 -24.923  19.327  1.00 22.02 LIG-0.27  OA
BRANCH 4 6
ATOM      6  CA  ASP A 387     -27.879 -25.831  19.197  1.00 25.57 LIG 0.19  C 
BRANCH 6 7
ATOM      7  N   ASP A 387     -28.748 -26.096  18.032  1.00 28.40 LIG-0.34  N 
ATOM      8 H    ASP A 387     -28.660 -26.883  17.698  1.00 28.40 LIG 0.16  HD
ATOM      9  C   THR A 386     -29.596 -25.173  17.550  1.00 31.30 LIG 0.26  C 
ATOM     10 O    THR A 386     -30.024 -24.226  18.239  1.00 31.60 LIG-0.27  OA
BRANCH 9 11
ATOM     11  CA  THR A 386     -30.090 -25.337  16.090  1.00 33.11 LIG 0.43  C 
ATOM     12  N   THR A 386     -31.254 -24.468  15.741  1.00 33.83 LIG 0.62  N 
BRANCH 11 13
ATOM     13  CB  THR A 386     -28.925 -25.153  15.074  1.00 33.77 LIG 0.16  C 
ATOM     14  CG2 THR A 386     -29.423 -24.660  13.711  1.00 34.60 LIG 0.04  C 
BRANCH 13 15
ATOM     15 OG1  THR A 386     -28.022 -24.131  15.524  1.00 35.18 LIG-0.39  OA
ATOM     16 HG1  THR A 386     -27.605 -23.816  14.866  1.00 35.18 LIG 0.21  HD
ENDBRANCH 13 15
ENDBRANCH 11 13
ENDBRANCH 9 11
ENDBRANCH 6 7
BRANCH 6 17
ATOM     17  CB  ASP A 387     -27.788 -27.054  20.152  1.00 25.68 LIG 0.15  C 
BRANCH 17 18
ATOM     18  CG  ASP A 387     -27.224 -26.697  21.544  1.00 25.80 LIG 0.17  C 
ATOM     19 OD2  ASP A 387     -27.506 -25.624  22.126  1.00 26.75 LIG-0.65  OA
ATOM     20 OD1  ASP A 387     -26.453 -27.484  22.160  1.00 21.65 LIG-0.65  OA
ENDBRANCH 17 18
ENDBRANCH 6 17
ENDBRANCH 4 6
ENDBRANCH 1 2
BRANCH 1 21
ATOM     21  CB  HIS A 388     -23.851 -26.588  17.192  1.00 17.51 LIG 0.10  C 
BRANCH 21 22
ATOM     22  CG  HIS A 388     -23.817 -27.932  16.506  1.00 19.36 LIG 0.06  A 
ATOM     23 ND1  HIS A 388     -23.459 -28.096  15.187  1.00 21.21 LIG-0.24  NA
ATOM     24  CE1 HIS A 388     -23.508 -29.379  14.872  1.00 22.16 LIG 0.23  A 
ATOM     25 NE2  HIS A 388     -23.914 -30.054  15.931  1.00 21.69 LIG-0.25  NA
ATOM     26  CD2 HIS A 388     -24.119 -29.172  16.964  1.00 21.19 LIG 0.14  A 
ENDBRANCH 21 22
ENDBRANCH 1 21
BRANCH 1 27
ATOM     27  C   HIS A 388     -25.147 -25.794  15.198  1.00 15.45 LIG 0.24  C 
ATOM     28 O    HIS A 388     -26.120 -26.388  14.763  1.00 14.42 LIG-0.27  OA
ATOM     29  N   GLY A 389     -24.205 -25.287  14.395  1.00 14.00 LIG-0.35  N 
ATOM     30 H    GLY A 389     -23.520 -24.846  14.672  1.00 14.00 LIG 0.16  HD
BRANCH 29 31
ATOM     31  CA  GLY A 389     -24.276 -25.452  12.943  1.00 13.01 LIG 0.23  C 
BRANCH 31 32
ATOM     32  C   GLY A 389     -25.681 -25.295  12.404  1.00 11.92 LIG 0.24  C 
ATOM     33 O    GLY A 389     -26.308 -24.213  12.507  1.00 12.61 LIG-0.27  OA
ATOM     34  N   ALA A 390     -26.182 -26.354  11.795  1.00 10.53 LIG-0.35  N 
ATOM     35 H    ALA A 390     -25.740 -27.081  11.668  1.00 10.53 LIG 0.16  HD
BRANCH 34 36
ATOM     36  CA  ALA A 390     -27.550 -26.390  11.275  1.00 11.53 LIG 0.17  C 
ATOM     37  CB  ALA A 390     -27.595 -25.705   9.926  1.00 11.91 LIG 0.04  C 
BRANCH 36 38
ATOM     38  C   ALA A 390     -28.032 -27.848  11.133  1.00 13.11 LIG 0.24  C 
ATOM     39  N   GLU A 391     -27.360 -28.733  11.856  1.00 14.39 LIG-0.34  N 
ATOM     40 H    GLU A 391     -26.725 -28.520  12.395  1.00 14.39 LIG 0.16  HD
ATOM     41 O    ALA A 390     -28.940 -28.174  10.358  1.00 12.73 LIG-0.27  OA
BRANCH 39 42
ATOM     42  CA  GLU A 391     -27.635 -30.142  11.805  1.00 15.60 LIG 0.19  C 
BRANCH 42 43
ATOM     43  CB  GLU A 391     -26.891 -30.754  10.613  1.00 17.03 LIG 0.05  C 
BRANCH 43 44
ATOM     44  CG  GLU A 391     -27.721 -30.975   9.379  1.00 23.68 LIG 0.12  C 
BRANCH 44 45
ATOM     45  CD  GLU A 391     -26.829 -31.205   8.160  1.00 29.63 LIG 0.17  C 
ATOM     46 OE1  GLU A 391     -27.280 -30.857   7.028  1.00 31.73 LIG-0.65  OA
ATOM     47 OE2  GLU A 391     -25.721 -31.782   8.344  1.00 33.20 LIG-0.65  OA
ENDBRANCH 44 45
ENDBRANCH 43 44
ENDBRANCH 42 43
BRANCH 42 48
ATOM     48  C   GLU A 391     -27.146 -30.749  13.116  1.00 14.85 LIG 0.20  C 
ATOM     49 OXT  GLU A 391     -27.444 -31.900  13.402  1.00 14.73 LIG-0.65  OA
ATOM     50 O    GLU A 391     -26.468 -30.080  13.897  1.00 14.85 LIG-0.65  OA
ENDBRANCH 42 48
ENDBRANCH 39 42
ENDBRANCH 36 38
ENDBRANCH 34 36
ENDBRANCH 31 32
ENDBRANCH 29 31
ENDBRANCH 1 27
TORSDOF 20
ENDMDL
MODEL 11
USER: ADFR SOLUTION from run 74
USER: SCORE 17.192864 LL:  -3.609 LR: -15.065 RR:   0.000 FEB:  -9.099
USER: RMSD 9.158795
USER: SEED 73
USER: STATUS no improvement in best in 12 clusters for 5 generations
USER: GENES 22
USER: genes 0 Translation |==|  0.66753 0.61351 0.51895
USER: genes 1 Rotation |==|  0.77348 0.82963 0.25955 0.59347
USER: genes 2 Torsion [C]-CA--N-[C] |==|  0.78143
USER: genes 3 Torsion [N]-C--CA-[N] |==|  0.02567
USER: genes 4 Torsion [C]-CA--N-[C] |==|  0.21471
USER: genes 5 Torsion [N]-C--CA-[N] |==|  0.99575
USER: genes 6 Torsion [C]-CA--CB-[CG2] |==|  0.17440
USER: genes 7 Torsion [CA]-CB--OG1-[HG1] |==|  0.30650
USER: genes 8 Torsion [C]-CA--CB-[CG] |==|  0.53338
USER: genes 9 Torsion [CA]-CB--CG-[OD2] |==|  0.22056
USER: genes 10 Torsion [N]-CA--CB-[CG] |==|  0.11285
USER: genes 11 Torsion [CA]-CB--CG-[ND1] |==|  0.83957
USER: genes 12 Torsion [N]-CA--C-[N] |==|  0.26942
USER: genes 13 Torsion [C]-N--CA-[C] |==|  0.17480
USER: genes 14 Torsion [N]-CA--C-[N] |==|  0.03681
USER: genes 15 Torsion [C]-N--CA-[CB] |==|  0.81656
USER: genes 16 Torsion [N]-CA--C-[N] |==|  0.08557
USER: genes 17 Torsion [C]-N--CA-[CB] |==|  0.36474
USER: genes 18 Torsion [N]-CA--CB-[CG] |==|  0.62338
USER: genes 19 Torsion [CA]-CB--CG-[CD] |==|  0.57842
USER: genes 20 Torsion [CB]-CG--CD-[OE1] |==|  0.73739
USER: genes 21 Torsion [N]-CA--C-[OXT] |==|  0.41519
ROOT
ATOM      1  CA  HIS A 388     -25.437 -25.539  15.561  1.00 17.64 LIG 0.18  C 
ENDROOT
BRANCH 1 2
ATOM      2  N   HIS A 388     -25.949 -26.168  16.779  1.00 19.60 LIG-0.35  N 
ATOM      3 H    HIS A 388     -25.575 -26.918  16.972  1.00 19.60 LIG 0.16  HD
ATOM      4  C   ASP A 387     -26.913 -25.613  17.516  1.00 22.66 LIG 0.24  C 
ATOM      5 O    ASP A 387     -27.424 -24.524  17.236  1.00 22.02 LIG-0.27  OA
BRANCH 4 6
ATOM      6  CA  ASP A 387     -27.355 -26.377  18.759  1.00 25.57 LIG 0.19  C 
BRANCH 6 7
ATOM      7  N   ASP A 387     -26.387 -27.481  18.927  1.00 28.40 LIG-0.34  N 
ATOM      8 H    ASP A 387     -26.681 -28.248  18.674  1.00 28.40 LIG 0.16  HD
ATOM      9  C   THR A 386     -25.159 -27.283  19.433  1.00 31.30 LIG 0.26  C 
ATOM     10 O    THR A 386     -24.593 -26.173  19.412  1.00 31.60 LIG-0.27  OA
BRANCH 9 11
ATOM     11  CA  THR A 386     -24.412 -28.508  20.019  1.00 33.11 LIG 0.43  C 
ATOM     12  N   THR A 386     -25.197 -29.778  19.972  1.00 33.83 LIG 0.62  N 
BRANCH 11 13
ATOM     13  CB  THR A 386     -23.012 -28.686  19.362  1.00 33.77 LIG 0.16  C 
ATOM     14  CG2 THR A 386     -22.092 -27.493  19.637  1.00 34.60 LIG 0.04  C 
BRANCH 13 15
ATOM     15 OG1  THR A 386     -22.330 -29.814  19.932  1.00 35.18 LIG-0.39  OA
ATOM     16 HG1  THR A 386     -22.280 -30.429  19.362  1.00 35.18 LIG 0.21  HD
ENDBRANCH 13 15
ENDBRANCH 11 13
ENDBRANCH 9 11
ENDBRANCH 6 7
BRANCH 6 17
ATOM     17  CB  ASP A 387     -27.383 -25.429  19.990  1.00 25.68 LIG 0.15  C 
BRANCH 17 18
ATOM     18  CG  ASP A 387     -27.532 -26.177  21.332  1.00 25.80 LIG 0.17  C 
ATOM     19 OD2  ASP A 387     -26.564 -26.739  21.895  1.00 26.75 LIG-0.65  OA
ATOM     20 OD1  ASP A 387     -28.645 -26.247  21.923  1.00 21.65 LIG-0.65  OA
ENDBRANCH 17 18
ENDBRANCH 6 17
ENDBRANCH 4 6
ENDBRANCH 1 2
BRANCH 1 21
ATOM     21  CB  HIS A 388     -24.040 -26.080  15.145  1.00 17.51 LIG 0.10  C 
BRANCH 21 22
ATOM     22  CG  HIS A 388     -23.855 -27.571  15.302  1.00 19.36 LIG 0.06  A 
ATOM     23 ND1  HIS A 388     -24.014 -28.228  16.501  1.00 21.21 LIG-0.24  NA
ATOM     24  CE1 HIS A 388     -23.804 -29.521  16.328  1.00 22.16 LIG 0.23  A 
ATOM     25 NE2  HIS A 388     -23.485 -29.727  15.064  1.00 21.69 LIG-0.25  NA
ATOM     26  CD2 HIS A 388     -23.504 -28.523  14.403  1.00 21.19 LIG 0.14  A 
ENDBRANCH 21 22
ENDBRANCH 1 21
BRANCH 1 27
ATOM     27  C   HIS A 388     -26.418 -25.788  14.407  1.00 15.45 LIG 0.24  C 
ATOM     28 O    HIS A 388     -26.359 -26.836  13.785  1.00 14.42 LIG-0.27  OA
ATOM     29  N   GLY A 389     -27.308 -24.833  14.110  1.00 14.00 LIG-0.35  N 
ATOM     30 H    GLY A 389     -27.386 -24.094  14.543  1.00 14.00 LIG 0.16  HD
BRANCH 29 31
ATOM     31  CA  GLY A 389     -28.238 -24.984  12.991  1.00 13.01 LIG 0.23  C 
BRANCH 31 32
ATOM     32  C   GLY A 389     -29.188 -26.148  13.172  1.00 11.92 LIG 0.24  C 
ATOM     33 O    GLY A 389     -29.863 -26.601  12.216  1.00 12.61 LIG-0.27  OA
ATOM     34  N   ALA A 390     -29.231 -26.668  14.384  1.00 10.53 LIG-0.35  N 
ATOM     35 H    ALA A 390     -28.731 -26.403  15.032  1.00 10.53 LIG 0.16  HD
BRANCH 34 36
ATOM     36  CA  ALA A 390     -30.145 -27.755  14.743  1.00 11.53 LIG 0.17  C 
ATOM     37  CB  ALA A 390     -31.573 -27.259  14.668  1.00 11.91 LIG 0.04  C 
BRANCH 36 38
ATOM     38  C   ALA A 390     -29.959 -28.950  13.787  1.00 13.11 LIG 0.24  C 
ATOM     39  N   GLU A 391     -28.733 -29.098  13.308  1.00 14.39 LIG-0.34  N 
ATOM     40 H    GLU A 391     -28.072 -28.596  13.531  1.00 14.39 LIG 0.16  HD
ATOM     41 O    ALA A 390     -30.899 -29.680  13.448  1.00 12.73 LIG-0.27  OA
BRANCH 39 42
ATOM     42  CA  GLU A 391     -28.391 -30.123  12.360  1.00 15.60 LIG 0.19  C 
BRANCH 42 43
ATOM     43  CB  GLU A 391     -27.605 -29.494  11.205  1.00 17.03 LIG 0.05  C 
BRANCH 43 44
ATOM     44  CG  GLU A 391     -28.015 -29.939   9.828  1.00 23.68 LIG 0.12  C 
BRANCH 44 45
ATOM     45  CD  GLU A 391     -26.837 -29.856   8.859  1.00 29.63 LIG 0.17  C 
ATOM     46 OE1  GLU A 391     -26.720 -28.802   8.165  1.00 31.73 LIG-0.65  OA
ATOM     47 OE2  GLU A 391     -26.084 -30.865   8.763  1.00 33.20 LIG-0.65  OA
ENDBRANCH 44 45
ENDBRANCH 43 44
ENDBRANCH 42 43
BRANCH 42 48
ATOM     48  C   GLU A 391     -27.540 -31.155  13.094  1.00 14.85 LIG 0.20  C 
ATOM     49 OXT  GLU A 391     -27.579 -32.329  12.751  1.00 14.73 LIG-0.65  OA
ATOM     50 O    GLU A 391     -26.830 -30.817  14.041  1.00 14.85 LIG-0.65  OA
ENDBRANCH 42 48
ENDBRANCH 39 42
ENDBRANCH 36 38
ENDBRANCH 34 36
ENDBRANCH 31 32
ENDBRANCH 29 31
ENDBRANCH 1 27
TORSDOF 20
ENDMDL
MODEL 12
USER: ADFR SOLUTION from run 100
USER: SCORE 17.568419 LL:  -3.413 LR: -14.908 RR:   0.000 FEB:  -8.942
USER: RMSD 8.824923
USER: SEED 99
USER: STATUS no improvement in best in 4 clusters for 5 generations
USER: GENES 22
USER: genes 0 Translation |==|  0.64290 0.55536 0.68975
USER: genes 1 Rotation |==|  0.95048 0.68597 0.39420 0.53590
USER: genes 2 Torsion [C]-CA--N-[C] |==|  0.56575
USER: genes 3 Torsion [N]-C--CA-[N] |==|  0.06099
USER: genes 4 Torsion [C]-CA--N-[C] |==|  0.72945
USER: genes 5 Torsion [N]-C--CA-[N] |==|  0.87614
USER: genes 6 Torsion [C]-CA--CB-[CG2] |==|  0.80706
USER: genes 7 Torsion [CA]-CB--OG1-[HG1] |==|  0.69158
USER: genes 8 Torsion [C]-CA--CB-[CG] |==|  0.54720
USER: genes 9 Torsion [CA]-CB--CG-[OD2] |==|  0.14287
USER: genes 10 Torsion [N]-CA--CB-[CG] |==|  0.57498
USER: genes 11 Torsion [CA]-CB--CG-[ND1] |==|  0.96131
USER: genes 12 Torsion [N]-CA--C-[N] |==|  0.45258
USER: genes 13 Torsion [C]-N--CA-[C] |==|  0.80648
USER: genes 14 Torsion [N]-CA--C-[N] |==|  0.88446
USER: genes 15 Torsion [C]-N--CA-[CB] |==|  0.51116
USER: genes 16 Torsion [N]-CA--C-[N] |==|  0.47132
USER: genes 17 Torsion [C]-N--CA-[CB] |==|  0.48373
USER: genes 18 Torsion [N]-CA--CB-[CG] |==|  0.69937
USER: genes 19 Torsion [CA]-CB--CG-[CD] |==|  0.44119
USER: genes 20 Torsion [CB]-CG--CD-[OE1] |==|  0.43267
USER: genes 21 Torsion [N]-CA--C-[OXT] |==|  0.88485
ROOT
ATOM      1  CA  HIS A 388     -25.917 -26.542  19.276  1.00 17.64 LIG 0.18  C 
ENDROOT
BRANCH 1 2
ATOM      2  N   HIS A 388     -27.318 -26.608  19.695  1.00 19.60 LIG-0.35  N 
ATOM      3 H    HIS A 388     -27.881 -26.587  19.045  1.00 19.60 LIG 0.16  HD
ATOM      4  C   ASP A 387     -27.673 -26.693  20.978  1.00 22.66 LIG 0.24  C 
ATOM      5 O    ASP A 387     -26.851 -26.743  21.898  1.00 22.02 LIG-0.27  OA
BRANCH 4 6
ATOM      6  CA  ASP A 387     -29.168 -26.751  21.275  1.00 25.57 LIG 0.19  C 
BRANCH 6 7
ATOM      7  N   ASP A 387     -29.814 -27.228  20.035  1.00 28.40 LIG-0.34  N 
ATOM      8 H    ASP A 387     -29.801 -28.082  19.937  1.00 28.40 LIG 0.16  HD
ATOM      9  C   THR A 386     -30.368 -26.385  19.149  1.00 31.30 LIG 0.26  C 
ATOM     10 O    THR A 386     -30.752 -25.240  19.458  1.00 31.60 LIG-0.27  OA
BRANCH 9 11
ATOM     11  CA  THR A 386     -30.574 -26.892  17.699  1.00 33.11 LIG 0.43  C 
ATOM     12  N   THR A 386     -29.398 -27.625  17.139  1.00 33.83 LIG 0.62  N 
BRANCH 11 13
ATOM     13  CB  THR A 386     -31.876 -27.734  17.571  1.00 33.77 LIG 0.16  C 
ATOM     14  CG2 THR A 386     -31.765 -29.078  18.298  1.00 34.60 LIG 0.04  C 
BRANCH 13 15
ATOM     15 OG1  THR A 386     -32.972 -27.063  18.211  1.00 35.18 LIG-0.39  OA
ATOM     16 HG1  THR A 386     -33.199 -27.489  18.899  1.00 35.18 LIG 0.21  HD
ENDBRANCH 13 15
ENDBRANCH 11 13
ENDBRANCH 9 11
ENDBRANCH 6 7
BRANCH 6 17
ATOM     17  CB  ASP A 387     -29.439 -27.695  22.479  1.00 25.68 LIG 0.15  C 
BRANCH 17 18
ATOM     18  CG  ASP A 387     -30.915 -28.137  22.586  1.00 25.80 LIG 0.17  C 
ATOM     19 OD2  ASP A 387     -31.537 -28.630  21.617  1.00 26.75 LIG-0.65  OA
ATOM     20 OD1  ASP A 387     -31.556 -28.024  23.667  1.00 21.65 LIG-0.65  OA
ENDBRANCH 17 18
ENDBRANCH 6 17
ENDBRANCH 4 6
ENDBRANCH 1 2
BRANCH 1 21
ATOM     21  CB  HIS A 388     -25.247 -27.943  19.192  1.00 17.51 LIG 0.10  C 
BRANCH 21 22
ATOM     22  CG  HIS A 388     -23.751 -27.953  19.400  1.00 19.36 LIG 0.06  A 
ATOM     23 ND1  HIS A 388     -22.978 -26.815  19.371  1.00 21.21 LIG-0.24  NA
ATOM     24  CE1 HIS A 388     -21.715 -27.132  19.598  1.00 22.16 LIG 0.23  A 
ATOM     25 NE2  HIS A 388     -21.633 -28.441  19.746  1.00 21.69 LIG-0.25  NA
ATOM     26  CD2 HIS A 388     -22.892 -28.978  19.620  1.00 21.19 LIG 0.14  A 
ENDBRANCH 21 22
ENDBRANCH 1 21
BRANCH 1 27
ATOM     27  C   HIS A 388     -25.828 -25.877  17.895  1.00 15.45 LIG 0.24  C 
ATOM     28 O    HIS A 388     -26.829 -25.800  17.201  1.00 14.42 LIG-0.27  OA
ATOM     29  N   GLY A 389     -24.641 -25.410  17.489  1.00 14.00 LIG-0.35  N 
ATOM     30 H    GLY A 389     -23.925 -25.432  17.964  1.00 14.00 LIG 0.16  HD
BRANCH 29 31
ATOM     31  CA  GLY A 389     -24.475 -24.811  16.165  1.00 13.01 LIG 0.23  C 
BRANCH 31 32
ATOM     32  C   GLY A 389     -24.584 -25.824  15.046  1.00 11.92 LIG 0.24  C 
ATOM     33 O    GLY A 389     -25.183 -25.560  13.975  1.00 12.61 LIG-0.27  OA
ATOM     34  N   ALA A 390     -23.984 -26.980  15.260  1.00 10.53 LIG-0.35  N 
ATOM     35 H    ALA A 390     -23.522 -27.151  15.965  1.00 10.53 LIG 0.16  HD
BRANCH 34 36
ATOM     36  CA  ALA A 390     -24.049 -28.091  14.307  1.00 11.53 LIG 0.17  C 
ATOM     37  CB  ALA A 390     -23.346 -29.297  14.890  1.00 11.91 LIG 0.04  C 
BRANCH 36 38
ATOM     38  C   ALA A 390     -25.517 -28.446  13.997  1.00 13.11 LIG 0.24  C 
ATOM     39  N   GLU A 391     -25.688 -29.290  12.989  1.00 14.39 LIG-0.34  N 
ATOM     40 H    GLU A 391     -25.038 -29.647  12.555  1.00 14.39 LIG 0.16  HD
ATOM     41 O    ALA A 390     -26.466 -27.937  14.607  1.00 12.73 LIG-0.27  OA
BRANCH 39 42
ATOM     42  CA  GLU A 391     -26.989 -29.687  12.526  1.00 15.60 LIG 0.19  C 
BRANCH 42 43
ATOM     43  CB  GLU A 391     -26.830 -30.546  11.266  1.00 17.03 LIG 0.05  C 
BRANCH 43 44
ATOM     44  CG  GLU A 391     -27.249 -29.888   9.980  1.00 23.68 LIG 0.12  C 
BRANCH 44 45
ATOM     45  CD  GLU A 391     -26.592 -30.573   8.783  1.00 29.63 LIG 0.17  C 
ATOM     46 OE1  GLU A 391     -27.170 -30.472   7.659  1.00 31.73 LIG-0.65  OA
ATOM     47 OE2  GLU A 391     -25.546 -31.247   8.993  1.00 33.20 LIG-0.65  OA
ENDBRANCH 44 45
ENDBRANCH 43 44
ENDBRANCH 42 43
BRANCH 42 48
ATOM     48  C   GLU A 391     -27.646 -30.488  13.646  1.00 14.85 LIG 0.20  C 
ATOM     49 OXT  GLU A 391     -26.985 -31.298  14.281  1.00 14.73 LIG-0.65  OA
ATOM     50 O    GLU A 391     -28.841 -30.336  13.901  1.00 14.85 LIG-0.65  OA
ENDBRANCH 42 48
ENDBRANCH 39 42
ENDBRANCH 36 38
ENDBRANCH 34 36
ENDBRANCH 31 32
ENDBRANCH 29 31
ENDBRANCH 1 27
TORSDOF 20
ENDMDL
MODEL 13
USER: ADFR SOLUTION from run 124
USER: SCORE 15.980702 LL:  -2.924 LR: -14.902 RR:   0.000 FEB:  -8.936
USER: RMSD 8.774725
USER: SEED 123
USER: STATUS no improvement in best in 8 clusters for 5 generations
USER: GENES 22
USER: genes 0 Translation |==|  0.71799 0.57210 0.57943
USER: genes 1 Rotation |==|  0.05316 0.30573 0.61039 0.52024
USER: genes 2 Torsion [C]-CA--N-[C] |==|  0.66460
USER: genes 3 Torsion [N]-C--CA-[N] |==|  0.97809
USER: genes 4 Torsion [C]-CA--N-[C] |==|  0.68755
USER: genes 5 Torsion [N]-C--CA-[N] |==|  0.37190
USER: genes 6 Torsion [C]-CA--CB-[CG2] |==|  0.66907
USER: genes 7 Torsion [CA]-CB--OG1-[HG1] |==|  0.59237
USER: genes 8 Torsion [C]-CA--CB-[CG] |==|  0.25355
USER: genes 9 Torsion [CA]-CB--CG-[OD2] |==|  0.73309
USER: genes 10 Torsion [N]-CA--CB-[CG] |==|  0.14026
USER: genes 11 Torsion [CA]-CB--CG-[ND1] |==|  0.25269
USER: genes 12 Torsion [N]-CA--C-[N] |==|  0.81937
USER: genes 13 Torsion [C]-N--CA-[C] |==|  0.51747
USER: genes 14 Torsion [N]-CA--C-[N] |==|  0.04087
USER: genes 15 Torsion [C]-N--CA-[CB] |==|  0.85889
USER: genes 16 Torsion [N]-CA--C-[N] |==|  0.34064
USER: genes 17 Torsion [C]-N--CA-[CB] |==|  0.43710
USER: genes 18 Torsion [N]-CA--CB-[CG] |==|  0.47541
USER: genes 19 Torsion [CA]-CB--CG-[CD] |==|  0.18556
USER: genes 20 Torsion [CB]-CG--CD-[OE1] |==|  0.80545
USER: genes 21 Torsion [N]-CA--C-[OXT] |==|  0.42986
ROOT
ATOM      1  CA  HIS A 388     -24.453 -26.253  16.877  1.00 17.64 LIG 0.18  C 
ENDROOT
BRANCH 1 2
ATOM      2  N   HIS A 388     -25.804 -26.398  17.420  1.00 19.60 LIG-0.35  N 
ATOM      3 H    HIS A 388     -26.374 -26.722  16.864  1.00 19.60 LIG 0.16  HD
ATOM      4  C   ASP A 387     -26.107 -26.053  18.673  1.00 22.66 LIG 0.24  C 
ATOM      5 O    ASP A 387     -25.271 -25.610  19.466  1.00 22.02 LIG-0.27  OA
BRANCH 4 6
ATOM      6  CA  ASP A 387     -27.555 -26.253  19.110  1.00 25.57 LIG 0.19  C 
BRANCH 6 7
ATOM      7  N   ASP A 387     -28.302 -26.627  17.891  1.00 28.40 LIG-0.34  N 
ATOM      8 H    ASP A 387     -28.092 -27.397  17.571  1.00 28.40 LIG 0.16  HD
ATOM      9  C   THR A 386     -29.227 -25.821  17.346  1.00 31.30 LIG 0.26  C 
ATOM     10 O    THR A 386     -29.818 -24.937  17.996  1.00 31.60 LIG-0.27  OA
BRANCH 9 11
ATOM     11  CA  THR A 386     -29.596 -26.047  15.857  1.00 33.11 LIG 0.43  C 
ATOM     12  N   THR A 386     -31.065 -26.049  15.589  1.00 33.83 LIG 0.62  N 
BRANCH 11 13
ATOM     13  CB  THR A 386     -28.854 -25.040  14.930  1.00 33.77 LIG 0.16  C 
ATOM     14  CG2 THR A 386     -29.829 -24.153  14.149  1.00 34.60 LIG 0.04  C 
BRANCH 13 15
ATOM     15 OG1  THR A 386     -28.071 -24.123  15.710  1.00 35.18 LIG-0.39  OA
ATOM     16 HG1  THR A 386     -28.055 -23.374  15.329  1.00 35.18 LIG 0.21  HD
ENDBRANCH 13 15
ENDBRANCH 11 13
ENDBRANCH 9 11
ENDBRANCH 6 7
BRANCH 6 17
ATOM     17  CB  ASP A 387     -27.636 -27.348  20.209  1.00 25.68 LIG 0.15  C 
BRANCH 17 18
ATOM     18  CG  ASP A 387     -27.535 -26.781  21.642  1.00 25.80 LIG 0.17  C 
ATOM     19 OD2  ASP A 387     -26.454 -26.748  22.273  1.00 26.75 LIG-0.65  OA
ATOM     20 OD1  ASP A 387     -28.548 -26.319  22.236  1.00 21.65 LIG-0.65  OA
ENDBRANCH 17 18
ENDBRANCH 6 17
ENDBRANCH 4 6
ENDBRANCH 1 2
BRANCH 1 21
ATOM     21  CB  HIS A 388     -23.829 -27.611  16.444  1.00 17.51 LIG 0.10  C 
BRANCH 21 22
ATOM     22  CG  HIS A 388     -24.698 -28.460  15.547  1.00 19.36 LIG 0.06  A 
ATOM     23 ND1  HIS A 388     -24.658 -28.391  14.174  1.00 21.21 LIG-0.24  NA
ATOM     24  CE1 HIS A 388     -25.516 -29.257  13.662  1.00 22.16 LIG 0.23  A 
ATOM     25 NE2  HIS A 388     -26.134 -29.869  14.655  1.00 21.69 LIG-0.25  NA
ATOM     26  CD2 HIS A 388     -25.645 -29.384  15.844  1.00 21.19 LIG 0.14  A 
ENDBRANCH 21 22
ENDBRANCH 1 21
BRANCH 1 27
ATOM     27  C   HIS A 388     -24.492 -25.325  15.655  1.00 15.45 LIG 0.24  C 
ATOM     28 O    HIS A 388     -23.924 -24.246  15.703  1.00 14.42 LIG-0.27  OA
ATOM     29  N   GLY A 389     -25.164 -25.728  14.570  1.00 14.00 LIG-0.35  N 
ATOM     30 H    GLY A 389     -25.555 -26.491  14.500  1.00 14.00 LIG 0.16  HD
BRANCH 29 31
ATOM     31  CA  GLY A 389     -25.283 -24.872  13.390  1.00 13.01 LIG 0.23  C 
BRANCH 31 32
ATOM     32  C   GLY A 389     -26.205 -25.450  12.338  1.00 11.92 LIG 0.24  C 
ATOM     33 O    GLY A 389     -26.202 -25.027  11.156  1.00 12.61 LIG-0.27  OA
ATOM     34  N   ALA A 390     -26.980 -26.441  12.738  1.00 10.53 LIG-0.35  N 
ATOM     35 H    ALA A 390     -26.949 -26.777  13.529  1.00 10.53 LIG 0.16  HD
BRANCH 34 36
ATOM     36  CA  ALA A 390     -27.975 -27.066  11.864  1.00 11.53 LIG 0.17  C 
ATOM     37  CB  ALA A 390     -28.838 -25.994  11.234  1.00 11.91 LIG 0.04  C 
BRANCH 36 38
ATOM     38  C   ALA A 390     -27.278 -27.887  10.759  1.00 13.11 LIG 0.24  C 
ATOM     39  N   GLU A 391     -27.615 -29.167  10.716  1.00 14.39 LIG-0.34  N 
ATOM     40 H    GLU A 391     -28.203 -29.521  11.235  1.00 14.39 LIG 0.16  HD
ATOM     41 O    ALA A 390     -26.426 -27.397  10.008  1.00 12.73 LIG-0.27  OA
BRANCH 39 42
ATOM     42  CA  GLU A 391     -27.024 -30.092   9.789  1.00 15.60 LIG 0.19  C 
BRANCH 42 43
ATOM     43  CB  GLU A 391     -27.174 -31.515  10.337  1.00 17.03 LIG 0.05  C 
BRANCH 43 44
ATOM     44  CG  GLU A 391     -26.791 -32.616   9.387  1.00 23.68 LIG 0.12  C 
BRANCH 44 45
ATOM     45  CD  GLU A 391     -25.291 -32.588   9.102  1.00 29.63 LIG 0.17  C 
ATOM     46 OE1  GLU A 391     -24.843 -31.627   8.406  1.00 31.73 LIG-0.65  OA
ATOM     47 OE2  GLU A 391     -24.595 -33.553   9.524  1.00 33.20 LIG-0.65  OA
ENDBRANCH 44 45
ENDBRANCH 43 44
ENDBRANCH 42 43
BRANCH 42 48
ATOM     48  C   GLU A 391     -27.764 -29.942   8.463  1.00 14.85 LIG 0.20  C 
ATOM     49 OXT  GLU A 391     -27.204 -30.241   7.418  1.00 14.73 LIG-0.65  OA
ATOM     50 O    GLU A 391     -28.915 -29.505   8.439  1.00 14.85 LIG-0.65  OA
ENDBRANCH 42 48
ENDBRANCH 39 42
ENDBRANCH 36 38
ENDBRANCH 34 36
ENDBRANCH 31 32
ENDBRANCH 29 31
ENDBRANCH 1 27
TORSDOF 20
ENDMDL
MODEL 14
USER: ADFR SOLUTION from run 176
USER: SCORE 17.193827 LL:  -3.731 LR: -14.876 RR:   0.000 FEB:  -8.910
USER: RMSD 8.481789
USER: SEED 175
USER: STATUS no improvement in best in 5 clusters for 5 generations
USER: GENES 22
USER: genes 0 Translation |==|  0.71922 0.40980 0.58308
USER: genes 1 Rotation |==|  0.02690 0.44713 0.65291 0.50195
USER: genes 2 Torsion [C]-CA--N-[C] |==|  0.73889
USER: genes 3 Torsion [N]-C--CA-[N] |==|  0.86738
USER: genes 4 Torsion [C]-CA--N-[C] |==|  0.83407
USER: genes 5 Torsion [N]-C--CA-[N] |==|  0.03112
USER: genes 6 Torsion [C]-CA--CB-[CG2] |==|  0.52595
USER: genes 7 Torsion [CA]-CB--OG1-[HG1] |==|  0.39303
USER: genes 8 Torsion [C]-CA--CB-[CG] |==|  0.30960
USER: genes 9 Torsion [CA]-CB--CG-[OD2] |==|  0.22694
USER: genes 10 Torsion [N]-CA--CB-[CG] |==|  0.01143
USER: genes 11 Torsion [CA]-CB--CG-[ND1] |==|  0.75240
USER: genes 12 Torsion [N]-CA--C-[N] |==|  0.20522
USER: genes 13 Torsion [C]-N--CA-[C] |==|  0.23846
USER: genes 14 Torsion [N]-CA--C-[N] |==|  0.74736
USER: genes 15 Torsion [C]-N--CA-[CB] |==|  0.19705
USER: genes 16 Torsion [N]-CA--C-[N] |==|  0.08586
USER: genes 17 Torsion [C]-N--CA-[CB] |==|  0.15473
USER: genes 18 Torsion [N]-CA--CB-[CG] |==|  0.30055
USER: genes 19 Torsion [CA]-CB--CG-[CD] |==|  0.55492
USER: genes 20 Torsion [CB]-CG--CD-[OE1] |==|  0.38368
USER: genes 21 Torsion [N]-CA--C-[OXT] |==|  0.01066
ROOT
ATOM      1  CA  HIS A 388     -24.429 -29.053  16.956  1.00 17.64 LIG 0.18  C 
ENDROOT
BRANCH 1 2
ATOM      2  N   HIS A 388     -25.554 -28.359  17.585  1.00 19.60 LIG-0.35  N 
ATOM      3 H    HIS A 388     -26.321 -28.714  17.423  1.00 19.60 LIG 0.16  HD
ATOM      4  C   ASP A 387     -25.387 -27.272  18.340  1.00 22.66 LIG 0.24  C 
ATOM      5 O    ASP A 387     -24.276 -26.788  18.579  1.00 22.02 LIG-0.27  OA
BRANCH 4 6
ATOM      6  CA  ASP A 387     -26.645 -26.646  18.932  1.00 25.57 LIG 0.19  C 
BRANCH 6 7
ATOM      7  N   ASP A 387     -27.614 -26.545  17.821  1.00 28.40 LIG-0.34  N 
ATOM      8 H    ASP A 387     -28.346 -26.977  17.951  1.00 28.40 LIG 0.16  HD
ATOM      9  C   THR A 386     -27.355 -25.835  16.711  1.00 31.30 LIG 0.26  C 
ATOM     10 O    THR A 386     -26.523 -24.907  16.683  1.00 31.60 LIG-0.27  OA
BRANCH 9 11
ATOM     11  CA  THR A 386     -28.169 -26.166  15.434  1.00 33.11 LIG 0.43  C 
ATOM     12  N   THR A 386     -29.334 -27.070  15.674  1.00 33.83 LIG 0.62  N 
BRANCH 11 13
ATOM     13  CB  THR A 386     -28.604 -24.872  14.687  1.00 33.77 LIG 0.16  C 
ATOM     14  CG2 THR A 386     -29.596 -25.166  13.557  1.00 34.60 LIG 0.04  C 
BRANCH 13 15
ATOM     15 OG1  THR A 386     -29.311 -23.993  15.575  1.00 35.18 LIG-0.39  OA
ATOM     16 HG1  THR A 386     -29.094 -23.197  15.413  1.00 35.18 LIG 0.21  HD
ENDBRANCH 13 15
ENDBRANCH 11 13
ENDBRANCH 9 11
ENDBRANCH 6 7
BRANCH 6 17
ATOM     17  CB  ASP A 387     -27.180 -27.520  20.100  1.00 25.68 LIG 0.15  C 
BRANCH 17 18
ATOM     18  CG  ASP A 387     -27.039 -26.843  21.480  1.00 25.80 LIG 0.17  C 
ATOM     19 OD2  ASP A 387     -27.863 -25.999  21.899  1.00 26.75 LIG-0.65  OA
ATOM     20 OD1  ASP A 387     -26.079 -27.122  22.252  1.00 21.65 LIG-0.65  OA
ENDBRANCH 17 18
ENDBRANCH 6 17
ENDBRANCH 4 6
ENDBRANCH 1 2
BRANCH 1 21
ATOM     21  CB  HIS A 388     -24.632 -30.594  16.892  1.00 17.51 LIG 0.10  C 
BRANCH 21 22
ATOM     22  CG  HIS A 388     -25.970 -31.087  17.389  1.00 19.36 LIG 0.06  A 
ATOM     23 ND1  HIS A 388     -26.211 -31.418  18.703  1.00 21.21 LIG-0.24  NA
ATOM     24  CE1 HIS A 388     -27.468 -31.801  18.839  1.00 22.16 LIG 0.23  A 
ATOM     25 NE2  HIS A 388     -28.049 -31.758  17.655  1.00 21.69 LIG-0.25  NA
ATOM     26  CD2 HIS A 388     -27.131 -31.320  16.730  1.00 21.19 LIG 0.14  A 
ENDBRANCH 21 22
ENDBRANCH 1 21
BRANCH 1 27
ATOM     27  C   HIS A 388     -24.240 -28.528  15.526  1.00 15.45 LIG 0.24  C 
ATOM     28 O    HIS A 388     -24.566 -29.229  14.582  1.00 14.42 LIG-0.27  OA
ATOM     29  N   GLY A 389     -23.708 -27.311  15.360  1.00 14.00 LIG-0.35  N 
ATOM     30 H    GLY A 389     -23.489 -26.787  16.006  1.00 14.00 LIG 0.16  HD
BRANCH 29 31
ATOM     31  CA  GLY A 389     -23.454 -26.770  14.025  1.00 13.01 LIG 0.23  C 
BRANCH 31 32
ATOM     32  C   GLY A 389     -24.664 -26.083  13.431  1.00 11.92 LIG 0.24  C 
ATOM     33 O    GLY A 389     -24.873 -24.857  13.597  1.00 12.61 LIG-0.27  OA
ATOM     34  N   ALA A 390     -25.459 -26.849  12.706  1.00 10.53 LIG-0.35  N 
ATOM     35 H    ALA A 390     -25.295 -27.676  12.538  1.00 10.53 LIG 0.16  HD
BRANCH 34 36
ATOM     36  CA  ALA A 390     -26.705 -26.357  12.116  1.00 11.53 LIG 0.17  C 
ATOM     37  CB  ALA A 390     -26.385 -25.407  10.982  1.00 11.91 LIG 0.04  C 
BRANCH 36 38
ATOM     38  C   ALA A 390     -27.550 -27.533  11.585  1.00 13.11 LIG 0.24  C 
ATOM     39  N   GLU A 391     -27.409 -28.669  12.253  1.00 14.39 LIG-0.34  N 
ATOM     40 H    GLU A 391     -26.915 -28.750  12.951  1.00 14.39 LIG 0.16  HD
ATOM     41 O    ALA A 390     -28.261 -27.437  10.577  1.00 12.73 LIG-0.27  OA
BRANCH 39 42
ATOM     42  CA  GLU A 391     -28.075 -29.881  11.865  1.00 15.60 LIG 0.19  C 
BRANCH 42 43
ATOM     43  CB  GLU A 391     -27.719 -30.204  10.409  1.00 17.03 LIG 0.05  C 
BRANCH 43 44
ATOM     44  CG  GLU A 391     -26.795 -31.374  10.215  1.00 23.68 LIG 0.12  C 
BRANCH 44 45
ATOM     45  CD  GLU A 391     -26.129 -31.316   8.842  1.00 29.63 LIG 0.17  C 
ATOM     46 OE1  GLU A 391     -24.896 -31.605   8.774  1.00 31.73 LIG-0.65  OA
ATOM     47 OE2  GLU A 391     -26.829 -30.928   7.866  1.00 33.20 LIG-0.65  OA
ENDBRANCH 44 45
ENDBRANCH 43 44
ENDBRANCH 42 43
BRANCH 42 48
ATOM     48  C   GLU A 391     -27.587 -30.986  12.797  1.00 14.85 LIG 0.20  C 
ATOM     49 OXT  GLU A 391     -26.826 -30.714  13.716  1.00 14.73 LIG-0.65  OA
ATOM     50 O    GLU A 391     -27.941 -32.152  12.620  1.00 14.85 LIG-0.65  OA
ENDBRANCH 42 48
ENDBRANCH 39 42
ENDBRANCH 36 38
ENDBRANCH 34 36
ENDBRANCH 31 32
ENDBRANCH 29 31
ENDBRANCH 1 27
TORSDOF 20
ENDMDL
MODEL 15
USER: ADFR SOLUTION from run 122
USER: SCORE 15.946658 LL:  -2.926 LR: -14.884 RR:   0.000 FEB:  -8.918
USER: RMSD 4.350829
USER: SEED 121
USER: STATUS no improvement in best in 1 clusters for 5 generations
USER: GENES 22
USER: genes 0 Translation |==|  0.61678 0.60405 0.42469
USER: genes 1 Rotation |==|  0.30262 0.62172 0.26445 0.87515
USER: genes 2 Torsion [C]-CA--N-[C] |==|  0.82265
USER: genes 3 Torsion [N]-C--CA-[N] |==|  0.16006
USER: genes 4 Torsion [C]-CA--N-[C] |==|  0.16665
USER: genes 5 Torsion [N]-C--CA-[N] |==|  0.77100
USER: genes 6 Torsion [C]-CA--CB-[CG2] |==|  0.47972
USER: genes 7 Torsion [CA]-CB--OG1-[HG1] |==|  0.19753
USER: genes 8 Torsion [C]-CA--CB-[CG] |==|  0.54576
USER: genes 9 Torsion [CA]-CB--CG-[OD2] |==|  0.42840
USER: genes 10 Torsion [N]-CA--CB-[CG] |==|  0.85342
USER: genes 11 Torsion [CA]-CB--CG-[ND1] |==|  0.00280
USER: genes 12 Torsion [N]-CA--C-[N] |==|  0.41307
USER: genes 13 Torsion [C]-N--CA-[C] |==|  0.16545
USER: genes 14 Torsion [N]-CA--C-[N] |==|  0.68872
USER: genes 15 Torsion [C]-N--CA-[CB] |==|  0.44514
USER: genes 16 Torsion [N]-CA--C-[N] |==|  0.36690
USER: genes 17 Torsion [C]-N--CA-[CB] |==|  0.38170
USER: genes 18 Torsion [N]-CA--CB-[CG] |==|  0.58437
USER: genes 19 Torsion [CA]-CB--CG-[CD] |==|  0.61815
USER: genes 20 Torsion [CB]-CG--CD-[OE1] |==|  0.63269
USER: genes 21 Torsion [N]-CA--C-[OXT] |==|  0.96988
ROOT
ATOM      1  CA  HIS A 388     -26.427 -25.702  13.511  1.00 17.64 LIG 0.18  C 
ENDROOT
BRANCH 1 2
ATOM      2  N   HIS A 388     -27.326 -24.897  14.339  1.00 19.60 LIG-0.35  N 
ATOM      3 H    HIS A 388     -27.284 -24.052  14.184  1.00 19.60 LIG 0.16  HD
ATOM      4  C   ASP A 387     -28.134 -25.442  15.249  1.00 22.66 LIG 0.24  C 
ATOM      5 O    ASP A 387     -28.198 -26.660  15.443  1.00 22.02 LIG-0.27  OA
BRANCH 4 6
ATOM      6  CA  ASP A 387     -29.017 -24.486  16.045  1.00 25.57 LIG 0.19  C 
BRANCH 6 7
ATOM      7  N   ASP A 387     -29.821 -23.747  15.051  1.00 28.40 LIG-0.34  N 
ATOM      8 H    ASP A 387     -29.704 -22.895  15.067  1.00 28.40 LIG 0.16  HD
ATOM      9  C   THR A 386     -30.656 -24.369  14.204  1.00 31.30 LIG 0.26  C 
ATOM     10 O    THR A 386     -30.531 -25.570  13.894  1.00 31.60 LIG-0.27  OA
BRANCH 9 11
ATOM     11  CA  THR A 386     -31.788 -23.530  13.557  1.00 33.11 LIG 0.43  C 
ATOM     12  N   THR A 386     -32.993 -23.364  14.425  1.00 33.83 LIG 0.62  N 
BRANCH 11 13
ATOM     13  CB  THR A 386     -31.260 -22.154  13.057  1.00 33.77 LIG 0.16  C 
ATOM     14  CG2 THR A 386     -32.318 -21.388  12.258  1.00 34.60 LIG 0.04  C 
BRANCH 13 15
ATOM     15 OG1  THR A 386     -30.952 -21.300  14.170  1.00 35.18 LIG-0.39  OA
ATOM     16 HG1  THR A 386     -30.263 -21.585  14.559  1.00 35.18 LIG 0.21  HD
ENDBRANCH 13 15
ENDBRANCH 11 13
ENDBRANCH 9 11
ENDBRANCH 6 7
BRANCH 6 17
ATOM     17  CB  ASP A 387     -29.903 -25.282  17.044  1.00 25.68 LIG 0.15  C 
BRANCH 17 18
ATOM     18  CG  ASP A 387     -31.091 -24.461  17.590  1.00 25.80 LIG 0.17  C 
ATOM     19 OD2  ASP A 387     -32.145 -25.000  18.000  1.00 26.75 LIG-0.65  OA
ATOM     20 OD1  ASP A 387     -31.044 -23.201  17.651  1.00 21.65 LIG-0.65  OA
ENDBRANCH 17 18
ENDBRANCH 6 17
ENDBRANCH 4 6
ENDBRANCH 1 2
BRANCH 1 21
ATOM     21  CB  HIS A 388     -25.670 -24.858  12.446  1.00 17.51 LIG 0.10  C 
BRANCH 21 22
ATOM     22  CG  HIS A 388     -26.546 -23.999  11.567  1.00 19.36 LIG 0.06  A 
ATOM     23 ND1  HIS A 388     -27.914 -23.937  11.696  1.00 21.21 LIG-0.24  NA
ATOM     24  CE1 HIS A 388     -28.406 -23.095  10.802  1.00 22.16 LIG 0.23  A 
ATOM     25 NE2  HIS A 388     -27.408 -22.627  10.076  1.00 21.69 LIG-0.25  NA
ATOM     26  CD2 HIS A 388     -26.235 -23.182  10.530  1.00 21.19 LIG 0.14  A 
ENDBRANCH 21 22
ENDBRANCH 1 21
BRANCH 1 27
ATOM     27  C   HIS A 388     -25.391 -26.395  14.408  1.00 15.45 LIG 0.24  C 
ATOM     28 O    HIS A 388     -25.016 -25.842  15.429  1.00 14.42 LIG-0.27  OA
ATOM     29  N   GLY A 389     -24.919 -27.589  14.030  1.00 14.00 LIG-0.35  N 
ATOM     30 H    GLY A 389     -25.180 -28.011  13.327  1.00 14.00 LIG 0.16  HD
BRANCH 29 31
ATOM     31  CA  GLY A 389     -23.894 -28.281  14.810  1.00 13.01 LIG 0.23  C 
BRANCH 31 32
ATOM     32  C   GLY A 389     -24.332 -28.566  16.231  1.00 11.92 LIG 0.24  C 
ATOM     33 O    GLY A 389     -25.225 -29.410  16.487  1.00 12.61 LIG-0.27  OA
ATOM     34  N   ALA A 390     -23.693 -27.897  17.172  1.00 10.53 LIG-0.35  N 
ATOM     35 H    ALA A 390     -23.040 -27.360  17.012  1.00 10.53 LIG 0.16  HD
BRANCH 34 36
ATOM     36  CA  ALA A 390     -24.038 -28.007  18.591  1.00 11.53 LIG 0.17  C 
ATOM     37  CB  ALA A 390     -22.871 -27.536  19.432  1.00 11.91 LIG 0.04  C 
BRANCH 36 38
ATOM     38  C   ALA A 390     -25.283 -27.154  18.908  1.00 13.11 LIG 0.24  C 
ATOM     39  N   GLU A 391     -26.221 -27.772  19.611  1.00 14.39 LIG-0.34  N 
ATOM     40 H    GLU A 391     -26.141 -28.576  19.906  1.00 14.39 LIG 0.16  HD
ATOM     41 O    ALA A 390     -25.420 -25.998  18.487  1.00 12.73 LIG-0.27  OA
BRANCH 39 42
ATOM     42  CA  GLU A 391     -27.471 -27.150  19.949  1.00 15.60 LIG 0.19  C 
BRANCH 42 43
ATOM     43  CB  GLU A 391     -28.604 -28.162  19.750  1.00 17.03 LIG 0.05  C 
BRANCH 43 44
ATOM     44  CG  GLU A 391     -29.933 -27.575  19.360  1.00 23.68 LIG 0.12  C 
BRANCH 44 45
ATOM     45  CD  GLU A 391     -31.069 -28.246  20.130  1.00 29.63 LIG 0.17  C 
ATOM     46 OE1  GLU A 391     -32.080 -28.630  19.469  1.00 31.73 LIG-0.65  OA
ATOM     47 OE2  GLU A 391     -30.961 -28.324  21.385  1.00 33.20 LIG-0.65  OA
ENDBRANCH 44 45
ENDBRANCH 43 44
ENDBRANCH 42 43
BRANCH 42 48
ATOM     48  C   GLU A 391     -27.383 -26.717  21.410  1.00 14.85 LIG 0.20  C 
ATOM     49 OXT  GLU A 391     -26.452 -27.103  22.103  1.00 14.73 LIG-0.65  OA
ATOM     50 O    GLU A 391     -28.254 -25.997  21.899  1.00 14.85 LIG-0.65  OA
ENDBRANCH 42 48
ENDBRANCH 39 42
ENDBRANCH 36 38
ENDBRANCH 34 36
ENDBRANCH 31 32
ENDBRANCH 29 31
ENDBRANCH 1 27
TORSDOF 20
ENDMDL
MODEL 16
USER: ADFR SOLUTION from run 124
USER: SCORE 16.954160 LL:  -3.051 LR: -14.820 RR:   0.000 FEB:  -8.854
USER: RMSD 9.890128
USER: SEED 123
USER: STATUS no improvement in best in 8 clusters for 5 generations
USER: GENES 22
USER: genes 0 Translation |==|  0.72183 0.56104 0.52784
USER: genes 1 Rotation |==|  0.10621 0.28828 0.71264 0.56994
USER: genes 2 Torsion [C]-CA--N-[C] |==|  0.77545
USER: genes 3 Torsion [N]-C--CA-[N] |==|  0.10556
USER: genes 4 Torsion [C]-CA--N-[C] |==|  0.17222
USER: genes 5 Torsion [N]-C--CA-[N] |==|  0.06896
USER: genes 6 Torsion [C]-CA--CB-[CG2] |==|  0.37910
USER: genes 7 Torsion [CA]-CB--OG1-[HG1] |==|  0.41712
USER: genes 8 Torsion [C]-CA--CB-[CG] |==|  0.54928
USER: genes 9 Torsion [CA]-CB--CG-[OD2] |==|  0.24826
USER: genes 10 Torsion [N]-CA--CB-[CG] |==|  0.12272
USER: genes 11 Torsion [CA]-CB--CG-[ND1] |==|  0.26397
USER: genes 12 Torsion [N]-CA--C-[N] |==|  0.54867
USER: genes 13 Torsion [C]-N--CA-[C] |==|  0.74922
USER: genes 14 Torsion [N]-CA--C-[N] |==|  0.07187
USER: genes 15 Torsion [C]-N--CA-[CB] |==|  0.85967
USER: genes 16 Torsion [N]-CA--C-[N] |==|  0.35832
USER: genes 17 Torsion [C]-N--CA-[CB] |==|  0.46303
USER: genes 18 Torsion [N]-CA--CB-[CG] |==|  0.50114
USER: genes 19 Torsion [CA]-CB--CG-[CD] |==|  0.20176
USER: genes 20 Torsion [CB]-CG--CD-[OE1] |==|  0.80565
USER: genes 21 Torsion [N]-CA--C-[OXT] |==|  0.42981
ROOT
ATOM      1  CA  HIS A 388     -24.378 -26.444  15.755  1.00 17.64 LIG 0.18  C 
ENDROOT
BRANCH 1 2
ATOM      2  N   HIS A 388     -25.287 -26.762  16.856  1.00 19.60 LIG-0.35  N 
ATOM      3 H    HIS A 388     -25.677 -27.525  16.781  1.00 19.60 LIG 0.16  HD
ATOM      4  C   ASP A 387     -25.483 -25.930  17.880  1.00 22.66 LIG 0.24  C 
ATOM      5 O    ASP A 387     -24.898 -24.847  17.983  1.00 22.02 LIG-0.27  OA
BRANCH 4 6
ATOM      6  CA  ASP A 387     -26.460 -26.385  18.959  1.00 25.57 LIG 0.19  C 
BRANCH 6 7
ATOM      7  N   ASP A 387     -26.245 -27.837  19.121  1.00 28.40 LIG-0.34  N 
ATOM      8 H    ASP A 387     -26.933 -28.318  18.933  1.00 28.40 LIG 0.16  HD
ATOM      9  C   THR A 386     -25.070 -28.344  19.526  1.00 31.30 LIG 0.26  C 
ATOM     10 O    THR A 386     -23.992 -27.729  19.403  1.00 31.60 LIG-0.27  OA
BRANCH 9 11
ATOM     11  CA  THR A 386     -25.066 -29.773  20.127  1.00 33.11 LIG 0.43  C 
ATOM     12  N   THR A 386     -26.204 -30.627  19.671  1.00 33.83 LIG 0.62  N 
BRANCH 11 13
ATOM     13  CB  THR A 386     -23.701 -30.483  19.896  1.00 33.77 LIG 0.16  C 
ATOM     14  CG2 THR A 386     -23.218 -31.223  21.147  1.00 34.60 LIG 0.04  C 
BRANCH 13 15
ATOM     15 OG1  THR A 386     -23.829 -31.503  18.894  1.00 35.18 LIG-0.39  OA
ATOM     16 HG1  THR A 386     -23.098 -31.591  18.488  1.00 35.18 LIG 0.21  HD
ENDBRANCH 13 15
ENDBRANCH 11 13
ENDBRANCH 9 11
ENDBRANCH 6 7
BRANCH 6 17
ATOM     17  CB  ASP A 387     -26.205 -25.603  20.278  1.00 25.68 LIG 0.15  C 
BRANCH 17 18
ATOM     18  CG  ASP A 387     -26.829 -26.280  21.517  1.00 25.80 LIG 0.17  C 
ATOM     19 OD2  ASP A 387     -26.209 -27.128  22.199  1.00 26.75 LIG-0.65  OA
ATOM     20 OD1  ASP A 387     -27.998 -25.997  21.899  1.00 21.65 LIG-0.65  OA
ENDBRANCH 17 18
ENDBRANCH 6 17
ENDBRANCH 4 6
ENDBRANCH 1 2
BRANCH 1 21
ATOM     21  CB  HIS A 388     -23.897 -27.708  14.986  1.00 17.51 LIG 0.10  C 
BRANCH 21 22
ATOM     22  CG  HIS A 388     -24.975 -28.719  14.675  1.00 19.36 LIG 0.06  A 
ATOM     23 ND1  HIS A 388     -25.652 -28.756  13.478  1.00 21.21 LIG-0.24  NA
ATOM     24  CE1 HIS A 388     -26.521 -29.751  13.490  1.00 22.16 LIG 0.23  A 
ATOM     25 NE2  HIS A 388     -26.454 -30.349  14.665  1.00 21.69 LIG-0.25  NA
ATOM     26  CD2 HIS A 388     -25.499 -29.718  15.426  1.00 21.19 LIG 0.14  A 
ENDBRANCH 21 22
ENDBRANCH 1 21
BRANCH 1 27
ATOM     27  C   HIS A 388     -25.087 -25.512  14.762  1.00 15.45 LIG 0.24  C 
ATOM     28 O    HIS A 388     -26.094 -24.919  15.110  1.00 14.42 LIG-0.27  OA
ATOM     29  N   GLY A 389     -24.577 -25.388  13.530  1.00 14.00 LIG-0.35  N 
ATOM     30 H    GLY A 389     -23.858 -25.777  13.263  1.00 14.00 LIG 0.16  HD
BRANCH 29 31
ATOM     31  CA  GLY A 389     -25.230 -24.557  12.519  1.00 13.01 LIG 0.23  C 
BRANCH 31 32
ATOM     32  C   GLY A 389     -26.236 -25.326  11.689  1.00 11.92 LIG 0.24  C 
ATOM     33 O    GLY A 389     -26.514 -24.988  10.513  1.00 12.61 LIG-0.27  OA
ATOM     34  N   ALA A 390     -26.769 -26.383  12.272  1.00 10.53 LIG-0.35  N 
ATOM     35 H    ALA A 390     -26.543 -26.657  13.055  1.00 10.53 LIG 0.16  HD
BRANCH 34 36
ATOM     36  CA  ALA A 390     -27.806 -27.197  11.632  1.00 11.53 LIG 0.17  C 
ATOM     37  CB  ALA A 390     -28.915 -26.297  11.131  1.00 11.91 LIG 0.04  C 
BRANCH 36 38
ATOM     38  C   ALA A 390     -27.211 -27.993  10.453  1.00 13.11 LIG 0.24  C 
ATOM     39  N   GLU A 391     -27.476 -29.292  10.465  1.00 14.39 LIG-0.34  N 
ATOM     40 H    GLU A 391     -27.969 -29.670  11.059  1.00 14.39 LIG 0.16  HD
ATOM     41 O    ALA A 390     -26.493 -27.468   9.593  1.00 12.73 LIG-0.27  OA
BRANCH 39 42
ATOM     42  CA  GLU A 391     -26.957 -30.196   9.477  1.00 15.60 LIG 0.19  C 
BRANCH 42 43
ATOM     43  CB  GLU A 391     -27.167 -31.636   9.957  1.00 17.03 LIG 0.05  C 
BRANCH 43 44
ATOM     44  CG  GLU A 391     -26.663 -32.706   9.027  1.00 23.68 LIG 0.12  C 
BRANCH 44 45
ATOM     45  CD  GLU A 391     -25.136 -32.761   9.042  1.00 29.63 LIG 0.17  C 
ATOM     46 OE1  GLU A 391     -24.508 -31.794   8.515  1.00 31.73 LIG-0.65  OA
ATOM     47 OE2  GLU A 391     -24.591 -33.792   9.524  1.00 33.20 LIG-0.65  OA
ENDBRANCH 44 45
ENDBRANCH 43 44
ENDBRANCH 42 43
BRANCH 42 48
ATOM     48  C   GLU A 391     -27.721 -29.941   8.181  1.00 14.85 LIG 0.20  C 
ATOM     49 OXT  GLU A 391     -27.204 -30.213   7.107  1.00 14.73 LIG-0.65  OA
ATOM     50 O    GLU A 391     -28.849 -29.446   8.211  1.00 14.85 LIG-0.65  OA
ENDBRANCH 42 48
ENDBRANCH 39 42
ENDBRANCH 36 38
ENDBRANCH 34 36
ENDBRANCH 31 32
ENDBRANCH 29 31
ENDBRANCH 1 27
TORSDOF 20
ENDMDL
MODEL 17
USER: ADFR SOLUTION from run 20
USER: SCORE 16.655581 LL:  -3.249 LR: -14.811 RR:   0.000 FEB:  -8.845
USER: RMSD 8.395228
USER: SEED 19
USER: STATUS no improvement in best in 12 clusters for 5 generations
USER: GENES 22
USER: genes 0 Translation |==|  0.66813 0.63096 0.52866
USER: genes 1 Rotation |==|  0.77439 0.83567 0.26403 0.57971
USER: genes 2 Torsion [C]-CA--N-[C] |==|  0.82457
USER: genes 3 Torsion [N]-C--CA-[N] |==|  0.98989
USER: genes 4 Torsion [C]-CA--N-[C] |==|  0.22036
USER: genes 5 Torsion [N]-C--CA-[N] |==|  0.98562
USER: genes 6 Torsion [C]-CA--CB-[CG2] |==|  0.17378
USER: genes 7 Torsion [CA]-CB--OG1-[HG1] |==|  0.27994
USER: genes 8 Torsion [C]-CA--CB-[CG] |==|  0.53517
USER: genes 9 Torsion [CA]-CB--CG-[OD2] |==|  0.22228
USER: genes 10 Torsion [N]-CA--CB-[CG] |==|  0.13015
USER: genes 11 Torsion [CA]-CB--CG-[ND1] |==|  0.80806
USER: genes 12 Torsion [N]-CA--C-[N] |==|  0.94868
USER: genes 13 Torsion [C]-N--CA-[C] |==|  0.75250
USER: genes 14 Torsion [N]-CA--C-[N] |==|  0.15255
USER: genes 15 Torsion [C]-N--CA-[CB] |==|  0.88815
USER: genes 16 Torsion [N]-CA--C-[N] |==|  0.83933
USER: genes 17 Torsion [C]-N--CA-[CB] |==|  0.19067
USER: genes 18 Torsion [N]-CA--CB-[CG] |==|  0.63541
USER: genes 19 Torsion [CA]-CB--CG-[CD] |==|  0.23951
USER: genes 20 Torsion [CB]-CG--CD-[OE1] |==|  0.15236
USER: genes 21 Torsion [N]-CA--C-[OXT] |==|  0.58938
ROOT
ATOM      1  CA  HIS A 388     -25.425 -25.238  15.772  1.00 17.64 LIG 0.18  C 
ENDROOT
BRANCH 1 2
ATOM      2  N   HIS A 388     -25.910 -25.926  16.969  1.00 19.60 LIG-0.35  N 
ATOM      3 H    HIS A 388     -25.408 -26.575  17.230  1.00 19.60 LIG 0.16  HD
ATOM      4  C   ASP A 387     -27.034 -25.567  17.591  1.00 22.66 LIG 0.24  C 
ATOM      5 O    ASP A 387     -27.732 -24.619  17.216  1.00 22.02 LIG-0.27  OA
BRANCH 4 6
ATOM      6  CA  ASP A 387     -27.425 -26.372  18.826  1.00 25.57 LIG 0.19  C 
BRANCH 6 7
ATOM      7  N   ASP A 387     -26.423 -27.451  18.945  1.00 28.40 LIG-0.34  N 
ATOM      8 H    ASP A 387     -26.691 -28.214  18.655  1.00 28.40 LIG 0.16  HD
ATOM      9  C   THR A 386     -25.203 -27.237  19.465  1.00 31.30 LIG 0.26  C 
ATOM     10 O    THR A 386     -24.673 -26.110  19.498  1.00 31.60 LIG-0.27  OA
BRANCH 9 11
ATOM     11  CA  THR A 386     -24.418 -28.464  19.996  1.00 33.11 LIG 0.43  C 
ATOM     12  N   THR A 386     -25.194 -29.740  19.967  1.00 33.83 LIG 0.62  N 
BRANCH 11 13
ATOM     13  CB  THR A 386     -23.050 -28.618  19.271  1.00 33.77 LIG 0.16  C 
ATOM     14  CG2 THR A 386     -22.130 -27.418  19.517  1.00 34.60 LIG 0.04  C 
BRANCH 13 15
ATOM     15 OG1  THR A 386     -22.329 -29.745  19.795  1.00 35.18 LIG-0.39  OA
ATOM     16 HG1  THR A 386     -22.410 -30.397  19.272  1.00 35.18 LIG 0.21  HD
ENDBRANCH 13 15
ENDBRANCH 11 13
ENDBRANCH 9 11
ENDBRANCH 6 7
BRANCH 6 17
ATOM     17  CB  ASP A 387     -27.452 -25.453  20.078  1.00 25.68 LIG 0.15  C 
BRANCH 17 18
ATOM     18  CG  ASP A 387     -27.532 -26.236  21.406  1.00 25.80 LIG 0.17  C 
ATOM     19 OD2  ASP A 387     -26.526 -26.764  21.933  1.00 26.75 LIG-0.65  OA
ATOM     20 OD1  ASP A 387     -28.625 -26.372  22.022  1.00 21.65 LIG-0.65  OA
ENDBRANCH 17 18
ENDBRANCH 6 17
ENDBRANCH 4 6
ENDBRANCH 1 2
BRANCH 1 21
ATOM     21  CB  HIS A 388     -24.048 -25.772  15.286  1.00 17.51 LIG 0.10  C 
BRANCH 21 22
ATOM     22  CG  HIS A 388     -23.930 -27.276  15.218  1.00 19.36 LIG 0.06  A 
ATOM     23 ND1  HIS A 388     -23.906 -28.081  16.333  1.00 21.21 LIG-0.24  NA
ATOM     24  CE1 HIS A 388     -23.810 -29.347  15.963  1.00 22.16 LIG 0.23  A 
ATOM     25 NE2  HIS A 388     -23.742 -29.393  14.646  1.00 21.69 LIG-0.25  NA
ATOM     26  CD2 HIS A 388     -23.809 -28.110  14.157  1.00 21.19 LIG 0.14  A 
ENDBRANCH 21 22
ENDBRANCH 1 21
BRANCH 1 27
ATOM     27  C   HIS A 388     -26.443 -25.413  14.636  1.00 15.45 LIG 0.24  C 
ATOM     28 O    HIS A 388     -26.415 -24.650  13.684  1.00 14.42 LIG-0.27  OA
ATOM     29  N   GLY A 389     -27.343 -26.399  14.734  1.00 14.00 LIG-0.35  N 
ATOM     30 H    GLY A 389     -27.373 -26.963  15.382  1.00 14.00 LIG 0.16  HD
BRANCH 29 31
ATOM     31  CA  GLY A 389     -28.372 -26.590  13.712  1.00 13.01 LIG 0.23  C 
BRANCH 31 32
ATOM     32  C   GLY A 389     -29.631 -25.800  13.994  1.00 11.92 LIG 0.24  C 
ATOM     33 O    GLY A 389     -30.752 -26.357  14.084  1.00 12.61 LIG-0.27  OA
ATOM     34  N   ALA A 390     -29.465 -24.502  14.169  1.00 10.53 LIG-0.35  N 
ATOM     35 H    ALA A 390     -28.695 -24.118  14.167  1.00 10.53 LIG 0.16  HD
BRANCH 34 36
ATOM     36  CA  ALA A 390     -30.587 -23.585  14.385  1.00 11.53 LIG 0.17  C 
ATOM     37  CB  ALA A 390     -31.736 -23.973  13.480  1.00 11.91 LIG 0.04  C 
BRANCH 36 38
ATOM     38  C   ALA A 390     -31.045 -23.635  15.857  1.00 13.11 LIG 0.24  C 
ATOM     39  N   GLU A 391     -31.412 -24.833  16.288  1.00 14.39 LIG-0.34  N 
ATOM     40 H    GLU A 391     -31.370 -25.544  15.807  1.00 14.39 LIG 0.16  HD
ATOM     41 O    ALA A 390     -31.117 -22.622  16.563  1.00 12.73 LIG-0.27  OA
BRANCH 39 42
ATOM     42  CA  GLU A 391     -31.919 -25.055  17.614  1.00 15.60 LIG 0.19  C 
BRANCH 42 43
ATOM     43  CB  GLU A 391     -33.296 -24.394  17.740  1.00 17.03 LIG 0.05  C 
BRANCH 43 44
ATOM     44  CG  GLU A 391     -33.488 -23.531  18.957  1.00 23.68 LIG 0.12  C 
BRANCH 44 45
ATOM     45  CD  GLU A 391     -32.993 -22.110  18.697  1.00 29.63 LIG 0.17  C 
ATOM     46 OE1  GLU A 391     -33.470 -21.495  17.697  1.00 31.73 LIG-0.65  OA
ATOM     47 OE2  GLU A 391     -32.096 -21.653  19.458  1.00 33.20 LIG-0.65  OA
ENDBRANCH 44 45
ENDBRANCH 43 44
ENDBRANCH 42 43
BRANCH 42 48
ATOM     48  C   GLU A 391     -32.025 -26.564  17.813  1.00 14.85 LIG 0.20  C 
ATOM     49 OXT  GLU A 391     -32.909 -27.023  18.524  1.00 14.73 LIG-0.65  OA
ATOM     50 O    GLU A 391     -31.215 -27.321  17.278  1.00 14.85 LIG-0.65  OA
ENDBRANCH 42 48
ENDBRANCH 39 42
ENDBRANCH 36 38
ENDBRANCH 34 36
ENDBRANCH 31 32
ENDBRANCH 29 31
ENDBRANCH 1 27
TORSDOF 20
ENDMDL
MODEL 18
USER: ADFR SOLUTION from run 124
USER: SCORE 16.275785 LL:  -3.588 LR: -14.791 RR:   0.000 FEB:  -8.825
USER: RMSD 9.354428
USER: SEED 123
USER: STATUS no improvement in best in 8 clusters for 5 generations
USER: GENES 22
USER: genes 0 Translation |==|  0.72271 0.55730 0.52991
USER: genes 1 Rotation |==|  0.09756 0.29600 0.70720 0.55915
USER: genes 2 Torsion [C]-CA--N-[C] |==|  0.75718
USER: genes 3 Torsion [N]-C--CA-[N] |==|  0.11028
USER: genes 4 Torsion [C]-CA--N-[C] |==|  0.17189
USER: genes 5 Torsion [N]-C--CA-[N] |==|  0.12663
USER: genes 6 Torsion [C]-CA--CB-[CG2] |==|  0.38739
USER: genes 7 Torsion [CA]-CB--OG1-[HG1] |==|  0.33239
USER: genes 8 Torsion [C]-CA--CB-[CG] |==|  0.56203
USER: genes 9 Torsion [CA]-CB--CG-[OD2] |==|  0.25326
USER: genes 10 Torsion [N]-CA--CB-[CG] |==|  0.98047
USER: genes 11 Torsion [CA]-CB--CG-[ND1] |==|  0.63709
USER: genes 12 Torsion [N]-CA--C-[N] |==|  0.57551
USER: genes 13 Torsion [C]-N--CA-[C] |==|  0.78208
USER: genes 14 Torsion [N]-CA--C-[N] |==|  0.18687
USER: genes 15 Torsion [C]-N--CA-[CB] |==|  0.82332
USER: genes 16 Torsion [N]-CA--C-[N] |==|  0.09382
USER: genes 17 Torsion [C]-N--CA-[CB] |==|  0.17235
USER: genes 18 Torsion [N]-CA--CB-[CG] |==|  0.50805
USER: genes 19 Torsion [CA]-CB--CG-[CD] |==|  0.51748
USER: genes 20 Torsion [CB]-CG--CD-[OE1] |==|  0.84483
USER: genes 21 Torsion [N]-CA--C-[OXT] |==|  0.34073
ROOT
ATOM      1  CA  HIS A 388     -24.361 -26.509  15.799  1.00 17.64 LIG 0.18  C 
ENDROOT
BRANCH 1 2
ATOM      2  N   HIS A 388     -25.327 -26.758  16.870  1.00 19.60 LIG-0.35  N 
ATOM      3 H    HIS A 388     -25.795 -27.471  16.763  1.00 19.60 LIG 0.16  HD
ATOM      4  C   ASP A 387     -25.456 -25.940  17.916  1.00 22.66 LIG 0.24  C 
ATOM      5 O    ASP A 387     -24.760 -24.931  18.066  1.00 22.02 LIG-0.27  OA
BRANCH 4 6
ATOM      6  CA  ASP A 387     -26.504 -26.318  18.958  1.00 25.57 LIG 0.19  C 
BRANCH 6 7
ATOM      7  N   ASP A 387     -26.423 -27.785  19.108  1.00 28.40 LIG-0.34  N 
ATOM      8 H    ASP A 387     -27.144 -28.201  18.895  1.00 28.40 LIG 0.16  HD
ATOM      9  C   THR A 386     -25.310 -28.398  19.542  1.00 31.30 LIG 0.26  C 
ATOM     10 O    THR A 386     -24.179 -27.879  19.457  1.00 31.60 LIG-0.27  OA
BRANCH 9 11
ATOM     11  CA  THR A 386     -25.450 -29.827  20.125  1.00 33.11 LIG 0.43  C 
ATOM     12  N   THR A 386     -26.308 -30.735  19.306  1.00 33.83 LIG 0.62  N 
BRANCH 11 13
ATOM     13  CB  THR A 386     -24.059 -30.465  20.404  1.00 33.77 LIG 0.16  C 
ATOM     14  CG2 THR A 386     -24.039 -31.247  21.722  1.00 34.60 LIG 0.04  C 
BRANCH 13 15
ATOM     15 OG1  THR A 386     -23.742 -31.438  19.397  1.00 35.18 LIG-0.39  OA
ATOM     16 HG1  THR A 386     -23.037 -31.210  18.999  1.00 35.18 LIG 0.21  HD
ENDBRANCH 13 15
ENDBRANCH 11 13
ENDBRANCH 9 11
ENDBRANCH 6 7
BRANCH 6 17
ATOM     17  CB  ASP A 387     -26.224 -25.574  20.294  1.00 25.68 LIG 0.15  C 
BRANCH 17 18
ATOM     18  CG  ASP A 387     -26.852 -26.269  21.521  1.00 25.80 LIG 0.17  C 
ATOM     19 OD2  ASP A 387     -26.231 -27.122  22.197  1.00 26.75 LIG-0.65  OA
ATOM     20 OD1  ASP A 387     -28.025 -25.997  21.899  1.00 21.65 LIG-0.65  OA
ENDBRANCH 17 18
ENDBRANCH 6 17
ENDBRANCH 4 6
ENDBRANCH 1 2
BRANCH 1 21
ATOM     21  CB  HIS A 388     -23.877 -27.815  15.108  1.00 17.51 LIG 0.10  C 
BRANCH 21 22
ATOM     22  CG  HIS A 388     -24.345 -29.096  15.756  1.00 19.36 LIG 0.06  A 
ATOM     23 ND1  HIS A 388     -23.501 -30.137  16.067  1.00 21.21 LIG-0.24  NA
ATOM     24  CE1 HIS A 388     -24.189 -31.112  16.634  1.00 22.16 LIG 0.23  A 
ATOM     25 NE2  HIS A 388     -25.459 -30.755  16.680  1.00 21.69 LIG-0.25  NA
ATOM     26  CD2 HIS A 388     -25.584 -29.501  16.131  1.00 21.19 LIG 0.14  A 
ENDBRANCH 21 22
ENDBRANCH 1 21
BRANCH 1 27
ATOM     27  C   HIS A 388     -25.001 -25.605  14.736  1.00 15.45 LIG 0.24  C 
ATOM     28 O    HIS A 388     -25.897 -24.842  15.058  1.00 14.42 LIG-0.27  OA
ATOM     29  N   GLY A 389     -24.558 -25.692  13.476  1.00 14.00 LIG-0.35  N 
ATOM     30 H    GLY A 389     -23.914 -26.205  13.225  1.00 14.00 LIG 0.16  HD
BRANCH 29 31
ATOM     31  CA  GLY A 389     -25.157 -24.897  12.404  1.00 13.01 LIG 0.23  C 
BRANCH 31 32
ATOM     32  C   GLY A 389     -26.469 -25.470  11.914  1.00 11.92 LIG 0.24  C 
ATOM     33 O    GLY A 389     -26.581 -25.973  10.770  1.00 12.61 LIG-0.27  OA
ATOM     34  N   ALA A 390     -27.467 -25.432  12.777  1.00 10.53 LIG-0.35  N 
ATOM     35 H    ALA A 390     -27.387 -25.143  13.582  1.00 10.53 LIG 0.16  HD
BRANCH 34 36
ATOM     36  CA  ALA A 390     -28.819 -25.884  12.438  1.00 11.53 LIG 0.17  C 
ATOM     37  CB  ALA A 390     -29.384 -25.007  11.342  1.00 11.91 LIG 0.04  C 
BRANCH 36 38
ATOM     38  C   ALA A 390     -28.791 -27.352  11.966  1.00 13.11 LIG 0.24  C 
ATOM     39  N   GLU A 391     -27.881 -28.113  12.557  1.00 14.39 LIG-0.34  N 
ATOM     40 H    GLU A 391     -27.362 -27.832  13.182  1.00 14.39 LIG 0.16  HD
ATOM     41 O    ALA A 390     -29.526 -27.771  11.063  1.00 12.73 LIG-0.27  OA
BRANCH 39 42
ATOM     42  CA  GLU A 391     -27.676 -29.490  12.202  1.00 15.60 LIG 0.19  C 
BRANCH 42 43
ATOM     43  CB  GLU A 391     -27.232 -29.568  10.737  1.00 17.03 LIG 0.05  C 
BRANCH 43 44
ATOM     44  CG  GLU A 391     -27.042 -30.957  10.194  1.00 23.68 LIG 0.12  C 
BRANCH 44 45
ATOM     45  CD  GLU A 391     -26.454 -30.912   8.785  1.00 29.63 LIG 0.17  C 
ATOM     46 OE1  GLU A 391     -27.078 -30.243   7.908  1.00 31.73 LIG-0.65  OA
ATOM     47 OE2  GLU A 391     -25.414 -31.591   8.561  1.00 33.20 LIG-0.65  OA
ENDBRANCH 44 45
ENDBRANCH 43 44
ENDBRANCH 42 43
BRANCH 42 48
ATOM     48  C   GLU A 391     -26.593 -30.041  13.125  1.00 14.85 LIG 0.20  C 
ATOM     49 OXT  GLU A 391     -26.830 -31.016  13.824  1.00 14.73 LIG-0.65  OA
ATOM     50 O    GLU A 391     -25.489 -29.498  13.183  1.00 14.85 LIG-0.65  OA
ENDBRANCH 42 48
ENDBRANCH 39 42
ENDBRANCH 36 38
ENDBRANCH 34 36
ENDBRANCH 31 32
ENDBRANCH 29 31
ENDBRANCH 1 27
TORSDOF 20
ENDMDL
MODEL 19
USER: ADFR SOLUTION from run 32
USER: SCORE 16.017097 LL:  -3.178 LR: -14.780 RR:   0.000 FEB:  -8.814
USER: RMSD 3.886150
USER: SEED 31
USER: STATUS no improvement in best in 5 clusters for 5 generations
USER: GENES 22
USER: genes 0 Translation |==|  0.72568 0.47730 0.43667
USER: genes 1 Rotation |==|  0.54312 0.44923 0.34223 0.96976
USER: genes 2 Torsion [C]-CA--N-[C] |==|  0.83873
USER: genes 3 Torsion [N]-C--CA-[N] |==|  0.06422
USER: genes 4 Torsion [C]-CA--N-[C] |==|  0.72565
USER: genes 5 Torsion [N]-C--CA-[N] |==|  0.83793
USER: genes 6 Torsion [C]-CA--CB-[CG2] |==|  0.61728
USER: genes 7 Torsion [CA]-CB--OG1-[HG1] |==|  0.22235
USER: genes 8 Torsion [C]-CA--CB-[CG] |==|  0.16908
USER: genes 9 Torsion [CA]-CB--CG-[OD2] |==|  0.54410
USER: genes 10 Torsion [N]-CA--CB-[CG] |==|  0.12833
USER: genes 11 Torsion [CA]-CB--CG-[ND1] |==|  0.94634
USER: genes 12 Torsion [N]-CA--C-[N] |==|  0.93261
USER: genes 13 Torsion [C]-N--CA-[C] |==|  0.25807
USER: genes 14 Torsion [N]-CA--C-[N] |==|  0.98460
USER: genes 15 Torsion [C]-N--CA-[CB] |==|  0.32742
USER: genes 16 Torsion [N]-CA--C-[N] |==|  0.16489
USER: genes 17 Torsion [C]-N--CA-[CB] |==|  0.40087
USER: genes 18 Torsion [N]-CA--CB-[CG] |==|  0.23372
USER: genes 19 Torsion [CA]-CB--CG-[CD] |==|  0.35254
USER: genes 20 Torsion [CB]-CG--CD-[OE1] |==|  0.57711
USER: genes 21 Torsion [N]-CA--C-[OXT] |==|  0.04585
ROOT
ATOM      1  CA  HIS A 388     -24.303 -27.889  13.771  1.00 17.64 LIG 0.18  C 
ENDROOT
BRANCH 1 2
ATOM      2  N   HIS A 388     -25.740 -27.963  13.503  1.00 19.60 LIG-0.35  N 
ATOM      3 H    HIS A 388     -26.164 -27.229  13.650  1.00 19.60 LIG 0.16  HD
ATOM      4  C   ASP A 387     -26.325 -29.081  13.070  1.00 22.66 LIG 0.24  C 
ATOM      5 O    ASP A 387     -25.698 -30.121  12.845  1.00 22.02 LIG-0.27  OA
BRANCH 4 6
ATOM      6  CA  ASP A 387     -27.831 -29.021  12.834  1.00 25.57 LIG 0.19  C 
BRANCH 6 7
ATOM      7  N   ASP A 387     -28.155 -27.596  12.616  1.00 28.40 LIG-0.34  N 
ATOM      8 H    ASP A 387     -28.002 -27.318  11.818  1.00 28.40 LIG 0.16  HD
ATOM      9  C   THR A 386     -28.647 -26.819  13.594  1.00 31.30 LIG 0.26  C 
ATOM     10 O    THR A 386     -29.243 -27.280  14.587  1.00 31.60 LIG-0.27  OA
BRANCH 9 11
ATOM     11  CA  THR A 386     -28.500 -25.283  13.441  1.00 33.11 LIG 0.43  C 
ATOM     12  N   THR A 386     -27.086 -24.820  13.302  1.00 33.83 LIG 0.62  N 
BRANCH 11 13
ATOM     13  CB  THR A 386     -29.387 -24.741  12.283  1.00 33.77 LIG 0.16  C 
ATOM     14  CG2 THR A 386     -28.653 -23.696  11.436  1.00 34.60 LIG 0.04  C 
BRANCH 13 15
ATOM     15 OG1  THR A 386     -29.711 -25.795  11.363  1.00 35.18 LIG-0.39  OA
ATOM     16 HG1  THR A 386     -30.343 -26.254  11.673  1.00 35.18 LIG 0.21  HD
ENDBRANCH 13 15
ENDBRANCH 11 13
ENDBRANCH 9 11
ENDBRANCH 6 7
BRANCH 6 17
ATOM     17  CB  ASP A 387     -28.218 -29.905  11.616  1.00 25.68 LIG 0.15  C 
BRANCH 17 18
ATOM     18  CG  ASP A 387     -27.863 -31.395  11.809  1.00 25.80 LIG 0.17  C 
ATOM     19 OD2  ASP A 387     -27.825 -32.203  10.852  1.00 26.75 LIG-0.65  OA
ATOM     20 OD1  ASP A 387     -27.589 -31.861  12.949  1.00 21.65 LIG-0.65  OA
ENDBRANCH 17 18
ENDBRANCH 6 17
ENDBRANCH 4 6
ENDBRANCH 1 2
BRANCH 1 21
ATOM     21  CB  HIS A 388     -23.860 -26.492  14.294  1.00 17.51 LIG 0.10  C 
BRANCH 21 22
ATOM     22  CG  HIS A 388     -24.728 -25.908  15.382  1.00 19.36 LIG 0.06  A 
ATOM     23 ND1  HIS A 388     -26.015 -26.328  15.627  1.00 21.21 LIG-0.24  NA
ATOM     24  CE1 HIS A 388     -26.517 -25.648  16.643  1.00 22.16 LIG 0.23  A 
ATOM     25 NE2  HIS A 388     -25.612 -24.778  17.052  1.00 21.69 LIG-0.25  NA
ATOM     26  CD2 HIS A 388     -24.487 -24.917  16.275  1.00 21.19 LIG 0.14  A 
ENDBRANCH 21 22
ENDBRANCH 1 21
BRANCH 1 27
ATOM     27  C   HIS A 388     -23.925 -28.942  14.821  1.00 15.45 LIG 0.24  C 
ATOM     28 O    HIS A 388     -22.781 -29.365  14.861  1.00 14.42 LIG-0.27  OA
ATOM     29  N   GLY A 389     -24.874 -29.376  15.659  1.00 14.00 LIG-0.35  N 
ATOM     30 H    GLY A 389     -25.682 -29.082  15.668  1.00 14.00 LIG 0.16  HD
BRANCH 29 31
ATOM     31  CA  GLY A 389     -24.595 -30.415  16.650  1.00 13.01 LIG 0.23  C 
BRANCH 31 32
ATOM     32  C   GLY A 389     -24.182 -29.850  17.992  1.00 11.92 LIG 0.24  C 
ATOM     33 O    GLY A 389     -23.974 -30.592  18.983  1.00 12.61 LIG-0.27  OA
ATOM     34  N   ALA A 390     -24.026 -28.540  18.037  1.00 10.53 LIG-0.35  N 
ATOM     35 H    ALA A 390     -24.109 -28.029  17.351  1.00 10.53 LIG 0.16  HD
BRANCH 34 36
ATOM     36  CA  ALA A 390     -23.694 -27.828  19.273  1.00 11.53 LIG 0.17  C 
ATOM     37  CB  ALA A 390     -22.354 -27.142  19.115  1.00 11.91 LIG 0.04  C 
BRANCH 36 38
ATOM     38  C   ALA A 390     -24.778 -26.780  19.597  1.00 13.11 LIG 0.24  C 
ATOM     39  N   GLU A 391     -25.999 -27.270  19.758  1.00 14.39 LIG-0.34  N 
ATOM     40 H    GLU A 391     -26.182 -28.109  19.723  1.00 14.39 LIG 0.16  HD
ATOM     41 O    ALA A 390     -24.534 -25.568  19.646  1.00 12.73 LIG-0.27  OA
BRANCH 39 42
ATOM     42  CA  GLU A 391     -27.140 -26.434  20.009  1.00 15.60 LIG 0.19  C 
BRANCH 42 43
ATOM     43  CB  GLU A 391     -28.362 -27.031  19.304  1.00 17.03 LIG 0.05  C 
BRANCH 43 44
ATOM     44  CG  GLU A 391     -29.084 -28.108  20.065  1.00 23.68 LIG 0.12  C 
BRANCH 44 45
ATOM     45  CD  GLU A 391     -30.573 -27.785  20.182  1.00 29.63 LIG 0.17  C 
ATOM     46 OE1  GLU A 391     -31.198 -28.247  21.183  1.00 31.73 LIG-0.65  OA
ATOM     47 OE2  GLU A 391     -31.105 -27.128  19.245  1.00 33.20 LIG-0.65  OA
ENDBRANCH 44 45
ENDBRANCH 43 44
ENDBRANCH 42 43
BRANCH 42 48
ATOM     48  C   GLU A 391     -27.353 -26.397  21.520  1.00 14.85 LIG 0.20  C 
ATOM     49 OXT  GLU A 391     -26.454 -26.754  22.269  1.00 14.73 LIG-0.65  OA
ATOM     50 O    GLU A 391     -28.430 -26.027  21.988  1.00 14.85 LIG-0.65  OA
ENDBRANCH 42 48
ENDBRANCH 39 42
ENDBRANCH 36 38
ENDBRANCH 34 36
ENDBRANCH 31 32
ENDBRANCH 29 31
ENDBRANCH 1 27
TORSDOF 20
ENDMDL
MODEL 20
USER: ADFR SOLUTION from run 135
USER: SCORE 15.657559 LL:  -3.580 LR: -14.744 RR:   0.000 FEB:  -8.778
USER: RMSD 4.044135
USER: SEED 134
USER: STATUS no improvement in best in 3 clusters for 5 generations
USER: GENES 22
USER: genes 0 Translation |==|  0.71639 0.58694 0.42307
USER: genes 1 Rotation |==|  0.65859 0.45283 0.40914 0.96300
USER: genes 2 Torsion [C]-CA--N-[C] |==|  0.65618
USER: genes 3 Torsion [N]-C--CA-[N] |==|  0.42016
USER: genes 4 Torsion [C]-CA--N-[C] |==|  0.83852
USER: genes 5 Torsion [N]-C--CA-[N] |==|  0.49711
USER: genes 6 Torsion [C]-CA--CB-[CG2] |==|  0.48697
USER: genes 7 Torsion [CA]-CB--OG1-[HG1] |==|  0.27795
USER: genes 8 Torsion [C]-CA--CB-[CG] |==|  0.79451
USER: genes 9 Torsion [CA]-CB--CG-[OD2] |==|  0.97130
USER: genes 10 Torsion [N]-CA--CB-[CG] |==|  0.09829
USER: genes 11 Torsion [CA]-CB--CG-[ND1] |==|  0.79539
USER: genes 12 Torsion [N]-CA--C-[N] |==|  0.89865
USER: genes 13 Torsion [C]-N--CA-[C] |==|  0.30243
USER: genes 14 Torsion [N]-CA--C-[N] |==|  0.87659
USER: genes 15 Torsion [C]-N--CA-[CB] |==|  0.37411
USER: genes 16 Torsion [N]-CA--C-[N] |==|  0.24962
USER: genes 17 Torsion [C]-N--CA-[CB] |==|  0.42047
USER: genes 18 Torsion [N]-CA--CB-[CG] |==|  0.60511
USER: genes 19 Torsion [CA]-CB--CG-[CD] |==|  0.60401
USER: genes 20 Torsion [CB]-CG--CD-[OE1] |==|  0.06422
USER: genes 21 Torsion [N]-CA--C-[OXT] |==|  0.48731
ROOT
ATOM      1  CA  HIS A 388     -24.484 -25.997  13.476  1.00 17.64 LIG 0.18  C 
ENDROOT
BRANCH 1 2
ATOM      2  N   HIS A 388     -25.794 -26.306  12.900  1.00 19.60 LIG-0.35  N 
ATOM      3 H    HIS A 388     -26.353 -26.645  13.459  1.00 19.60 LIG 0.16  HD
ATOM      4  C   ASP A 387     -26.080 -26.075  11.618  1.00 22.66 LIG 0.24  C 
ATOM      5 O    ASP A 387     -25.272 -25.567  10.834  1.00 22.02 LIG-0.27  OA
BRANCH 4 6
ATOM      6  CA  ASP A 387     -27.483 -26.447  11.148  1.00 25.57 LIG 0.19  C 
BRANCH 6 7
ATOM      7  N   ASP A 387     -27.800 -25.527  10.037  1.00 28.40 LIG-0.34  N 
ATOM      8 H    ASP A 387     -27.986 -25.921   9.296  1.00 28.40 LIG 0.16  HD
ATOM      9  C   THR A 386     -27.793 -24.193  10.191  1.00 31.30 LIG 0.26  C 
ATOM     10 O    THR A 386     -27.933 -23.642  11.300  1.00 31.60 LIG-0.27  OA
BRANCH 9 11
ATOM     11  CA  THR A 386     -27.652 -23.319   8.918  1.00 33.11 LIG 0.43  C 
ATOM     12  N   THR A 386     -27.679 -21.849   9.185  1.00 33.83 LIG 0.62  N 
BRANCH 11 13
ATOM     13  CB  THR A 386     -26.395 -23.719   8.092  1.00 33.77 LIG 0.16  C 
ATOM     14  CG2 THR A 386     -26.303 -22.944   6.774  1.00 34.60 LIG 0.04  C 
BRANCH 13 15
ATOM     15 OG1  THR A 386     -25.196 -23.375   8.803  1.00 35.18 LIG-0.39  OA
ATOM     16 HG1  THR A 386     -24.886 -24.060   9.178  1.00 35.18 LIG 0.21  HD
ENDBRANCH 13 15
ENDBRANCH 11 13
ENDBRANCH 9 11
ENDBRANCH 6 7
BRANCH 6 17
ATOM     17  CB  ASP A 387     -27.523 -27.936  10.708  1.00 25.68 LIG 0.15  C 
BRANCH 17 18
ATOM     18  CG  ASP A 387     -26.830 -28.189   9.352  1.00 25.80 LIG 0.17  C 
ATOM     19 OD2  ASP A 387     -26.465 -27.254   8.603  1.00 26.75 LIG-0.65  OA
ATOM     20 OD1  ASP A 387     -26.597 -29.360   8.943  1.00 21.65 LIG-0.65  OA
ENDBRANCH 17 18
ENDBRANCH 6 17
ENDBRANCH 4 6
ENDBRANCH 1 2
BRANCH 1 21
ATOM     21  CB  HIS A 388     -24.551 -24.890  14.566  1.00 17.51 LIG 0.10  C 
BRANCH 21 22
ATOM     22  CG  HIS A 388     -25.793 -24.907  15.424  1.00 19.36 LIG 0.06  A 
ATOM     23 ND1  HIS A 388     -27.027 -24.498  14.972  1.00 21.21 LIG-0.24  NA
ATOM     24  CE1 HIS A 388     -27.920 -24.639  15.936  1.00 22.16 LIG 0.23  A 
ATOM     25 NE2  HIS A 388     -27.307 -25.100  17.010  1.00 21.69 LIG-0.25  NA
ATOM     26  CD2 HIS A 388     -25.975 -25.270  16.717  1.00 21.19 LIG 0.14  A 
ENDBRANCH 21 22
ENDBRANCH 1 21
BRANCH 1 27
ATOM     27  C   HIS A 388     -23.893 -27.265  14.107  1.00 15.45 LIG 0.24  C 
ATOM     28 O    HIS A 388     -22.693 -27.472  14.027  1.00 14.42 LIG-0.27  OA
ATOM     29  N   GLY A 389     -24.723 -28.118  14.721  1.00 14.00 LIG-0.35  N 
ATOM     30 H    GLY A 389     -25.569 -27.988  14.811  1.00 14.00 LIG 0.16  HD
BRANCH 29 31
ATOM     31  CA  GLY A 389     -24.234 -29.369  15.299  1.00 13.01 LIG 0.23  C 
BRANCH 31 32
ATOM     32  C   GLY A 389     -24.240 -29.357  16.812  1.00 11.92 LIG 0.24  C 
ATOM     33 O    GLY A 389     -24.634 -30.346  17.477  1.00 12.61 LIG-0.27  OA
ATOM     34  N   ALA A 390     -23.776 -28.258  17.377  1.00 10.53 LIG-0.35  N 
ATOM     35 H    ALA A 390     -23.450 -27.598  16.933  1.00 10.53 LIG 0.16  HD
BRANCH 34 36
ATOM     36  CA  ALA A 390     -23.774 -28.058  18.828  1.00 11.53 LIG 0.17  C 
ATOM     37  CB  ALA A 390     -22.433 -27.503  19.258  1.00 11.91 LIG 0.04  C 
BRANCH 36 38
ATOM     38  C   ALA A 390     -24.895 -27.081  19.238  1.00 13.11 LIG 0.24  C 
ATOM     39  N   GLU A 391     -26.060 -27.650  19.512  1.00 14.39 LIG-0.34  N 
ATOM     40 H    GLU A 391     -26.187 -28.500  19.501  1.00 14.39 LIG 0.16  HD
ATOM     41 O    ALA A 390     -24.732 -25.855  19.253  1.00 12.73 LIG-0.27  OA
BRANCH 39 42
ATOM     42  CA  GLU A 391     -27.229 -26.890  19.856  1.00 15.60 LIG 0.19  C 
BRANCH 42 43
ATOM     43  CB  GLU A 391     -28.477 -27.667  19.423  1.00 17.03 LIG 0.05  C 
BRANCH 43 44
ATOM     44  CG  GLU A 391     -29.600 -26.831  18.873  1.00 23.68 LIG 0.12  C 
BRANCH 44 45
ATOM     45  CD  GLU A 391     -30.953 -27.383  19.316  1.00 29.63 LIG 0.17  C 
ATOM     46 OE1  GLU A 391     -30.983 -28.096  20.364  1.00 31.73 LIG-0.65  OA
ATOM     47 OE2  GLU A 391     -31.952 -27.147  18.581  1.00 33.20 LIG-0.65  OA
ENDBRANCH 44 45
ENDBRANCH 43 44
ENDBRANCH 42 43
BRANCH 42 48
ATOM     48  C   GLU A 391     -27.214 -26.691  21.369  1.00 14.85 LIG 0.20  C 
ATOM     49 OXT  GLU A 391     -28.070 -25.997  21.899  1.00 14.73 LIG-0.65  OA
ATOM     50 O    GLU A 391     -26.335 -27.212  22.056  1.00 14.85 LIG-0.65  OA
ENDBRANCH 42 48
ENDBRANCH 39 42
ENDBRANCH 36 38
ENDBRANCH 34 36
ENDBRANCH 31 32
ENDBRANCH 29 31
ENDBRANCH 1 27
TORSDOF 20
ENDMDL
MODEL 21
USER: ADFR SOLUTION from run 43
USER: SCORE 17.109172 LL:  -3.462 LR: -14.731 RR:   0.000 FEB:  -8.765
USER: RMSD 4.075561
USER: SEED 42
USER: STATUS no improvement in best in 2 clusters for 5 generations
USER: GENES 22
USER: genes 0 Translation |==|  0.72369 0.54415 0.45507
USER: genes 1 Rotation |==|  0.58596 0.37626 0.39998 0.96615
USER: genes 2 Torsion [C]-CA--N-[C] |==|  0.12239
USER: genes 3 Torsion [N]-C--CA-[N] |==|  0.97530
USER: genes 4 Torsion [C]-CA--N-[C] |==|  0.72726
USER: genes 5 Torsion [N]-C--CA-[N] |==|  0.30465
USER: genes 6 Torsion [C]-CA--CB-[CG2] |==|  0.16446
USER: genes 7 Torsion [CA]-CB--OG1-[HG1] |==|  0.75138
USER: genes 8 Torsion [C]-CA--CB-[CG] |==|  0.90454
USER: genes 9 Torsion [CA]-CB--CG-[OD2] |==|  0.82757
USER: genes 10 Torsion [N]-CA--CB-[CG] |==|  0.15023
USER: genes 11 Torsion [CA]-CB--CG-[ND1] |==|  0.75591
USER: genes 12 Torsion [N]-CA--C-[N] |==|  0.12755
USER: genes 13 Torsion [C]-N--CA-[C] |==|  0.14341
USER: genes 14 Torsion [N]-CA--C-[N] |==|  0.60103
USER: genes 15 Torsion [C]-N--CA-[CB] |==|  0.52911
USER: genes 16 Torsion [N]-CA--C-[N] |==|  0.31486
USER: genes 17 Torsion [C]-N--CA-[CB] |==|  0.43304
USER: genes 18 Torsion [N]-CA--CB-[CG] |==|  0.13371
USER: genes 19 Torsion [CA]-CB--CG-[CD] |==|  0.41228
USER: genes 20 Torsion [CB]-CG--CD-[OE1] |==|  0.09852
USER: genes 21 Torsion [N]-CA--C-[OXT] |==|  0.56987
ROOT
ATOM      1  CA  HIS A 388     -24.342 -26.735  14.172  1.00 17.64 LIG 0.18  C 
ENDROOT
BRANCH 1 2
ATOM      2  N   HIS A 388     -25.555 -27.063  13.421  1.00 19.60 LIG-0.35  N 
ATOM      3 H    HIS A 388     -25.470 -26.994  12.568  1.00 19.60 LIG 0.16  HD
ATOM      4  C   ASP A 387     -26.686 -27.433  14.023  1.00 22.66 LIG 0.24  C 
ATOM      5 O    ASP A 387     -26.785 -27.547  15.249  1.00 22.02 LIG-0.27  OA
BRANCH 4 6
ATOM      6  CA  ASP A 387     -27.876 -27.742  13.120  1.00 25.57 LIG 0.19  C 
BRANCH 6 7
ATOM      7  N   ASP A 387     -27.479 -27.323  11.761  1.00 28.40 LIG-0.34  N 
ATOM      8 H    ASP A 387     -26.998 -27.899  11.341  1.00 28.40 LIG 0.16  HD
ATOM      9  C   THR A 386     -27.846 -26.140  11.243  1.00 31.30 LIG 0.26  C 
ATOM     10 O    THR A 386     -28.840 -25.506  11.649  1.00 31.60 LIG-0.27  OA
BRANCH 9 11
ATOM     11  CA  THR A 386     -27.016 -25.579  10.060  1.00 33.11 LIG 0.43  C 
ATOM     12  N   THR A 386     -27.736 -25.593   8.752  1.00 33.83 LIG 0.62  N 
BRANCH 11 13
ATOM     13  CB  THR A 386     -26.457 -24.162  10.381  1.00 33.77 LIG 0.16  C 
ATOM     14  CG2 THR A 386     -25.559 -24.166  11.622  1.00 34.60 LIG 0.04  C 
BRANCH 13 15
ATOM     15 OG1  THR A 386     -25.608 -23.705   9.317  1.00 35.18 LIG-0.39  OA
ATOM     16 HG1  THR A 386     -24.818 -23.949   9.464  1.00 35.18 LIG 0.21  HD
ENDBRANCH 13 15
ENDBRANCH 11 13
ENDBRANCH 9 11
ENDBRANCH 6 7
BRANCH 6 17
ATOM     17  CB  ASP A 387     -28.223 -29.255  13.191  1.00 25.68 LIG 0.15  C 
BRANCH 17 18
ATOM     18  CG  ASP A 387     -26.982 -30.157  13.368  1.00 25.80 LIG 0.17  C 
ATOM     19 OD2  ASP A 387     -26.067 -30.209  12.515  1.00 26.75 LIG-0.65  OA
ATOM     20 OD1  ASP A 387     -26.838 -30.879  14.393  1.00 21.65 LIG-0.65  OA
ENDBRANCH 17 18
ENDBRANCH 6 17
ENDBRANCH 4 6
ENDBRANCH 1 2
BRANCH 1 21
ATOM     21  CB  HIS A 388     -24.402 -25.327  14.829  1.00 17.51 LIG 0.10  C 
BRANCH 21 22
ATOM     22  CG  HIS A 388     -25.605 -25.080  15.708  1.00 19.36 LIG 0.06  A 
ATOM     23 ND1  HIS A 388     -26.801 -24.596  15.231  1.00 21.21 LIG-0.24  NA
ATOM     24  CE1 HIS A 388     -27.667 -24.497  16.224  1.00 22.16 LIG 0.23  A 
ATOM     25 NE2  HIS A 388     -27.068 -24.872  17.339  1.00 21.69 LIG-0.25  NA
ATOM     26  CD2 HIS A 388     -25.776 -25.235  17.044  1.00 21.19 LIG 0.14  A 
ENDBRANCH 21 22
ENDBRANCH 1 21
BRANCH 1 27
ATOM     27  C   HIS A 388     -24.129 -27.779  15.277  1.00 15.45 LIG 0.24  C 
ATOM     28 O    HIS A 388     -23.834 -27.409  16.402  1.00 14.42 LIG-0.27  OA
ATOM     29  N   GLY A 389     -24.263 -29.074  14.965  1.00 14.00 LIG-0.35  N 
ATOM     30 H    GLY A 389     -24.490 -29.362  14.187  1.00 14.00 LIG 0.16  HD
BRANCH 29 31
ATOM     31  CA  GLY A 389     -24.025 -30.122  15.957  1.00 13.01 LIG 0.23  C 
BRANCH 31 32
ATOM     32  C   GLY A 389     -24.795 -29.900  17.241  1.00 11.92 LIG 0.24  C 
ATOM     33 O    GLY A 389     -25.963 -29.441  17.236  1.00 12.61 LIG-0.27  OA
ATOM     34  N   ALA A 390     -24.171 -30.249  18.350  1.00 10.53 LIG-0.35  N 
ATOM     35 H    ALA A 390     -23.394 -30.618  18.361  1.00 10.53 LIG 0.16  HD
BRANCH 34 36
ATOM     36  CA  ALA A 390     -24.749 -30.040  19.679  1.00 11.53 LIG 0.17  C 
ATOM     37  CB  ALA A 390     -23.696 -30.303  20.734  1.00 11.91 LIG 0.04  C 
BRANCH 36 38
ATOM     38  C   ALA A 390     -25.272 -28.596  19.816  1.00 13.11 LIG 0.24  C 
ATOM     39  N   GLU A 391     -26.587 -28.485  19.933  1.00 14.39 LIG-0.34  N 
ATOM     40 H    GLU A 391     -27.119 -29.160  19.966  1.00 14.39 LIG 0.16  HD
ATOM     41 O    ALA A 390     -24.523 -27.612  19.763  1.00 12.73 LIG-0.27  OA
BRANCH 39 42
ATOM     42  CA  GLU A 391     -27.252 -27.214  20.013  1.00 15.60 LIG 0.19  C 
BRANCH 42 43
ATOM     43  CB  GLU A 391     -28.702 -27.377  19.543  1.00 17.03 LIG 0.05  C 
BRANCH 43 44
ATOM     44  CG  GLU A 391     -29.448 -28.536  20.143  1.00 23.68 LIG 0.12  C 
BRANCH 44 45
ATOM     45  CD  GLU A 391     -30.935 -28.212  20.275  1.00 29.63 LIG 0.17  C 
ATOM     46 OE1  GLU A 391     -31.465 -27.501  19.369  1.00 31.73 LIG-0.65  OA
ATOM     47 OE2  GLU A 391     -31.535 -28.622  21.307  1.00 33.20 LIG-0.65  OA
ENDBRANCH 44 45
ENDBRANCH 43 44
ENDBRANCH 42 43
BRANCH 42 48
ATOM     48  C   GLU A 391     -27.204 -26.768  21.471  1.00 14.85 LIG 0.20  C 
ATOM     49 OXT  GLU A 391     -28.053 -25.997  21.899  1.00 14.73 LIG-0.65  OA
ATOM     50 O    GLU A 391     -26.306 -27.164  22.215  1.00 14.85 LIG-0.65  OA
ENDBRANCH 42 48
ENDBRANCH 39 42
ENDBRANCH 36 38
ENDBRANCH 34 36
ENDBRANCH 31 32
ENDBRANCH 29 31
ENDBRANCH 1 27
TORSDOF 20
ENDMDL
MODEL 22
USER: ADFR SOLUTION from run 113
USER: SCORE 19.063429 LL:  -4.701 LR: -14.702 RR:   0.000 FEB:  -8.736
USER: RMSD 8.954577
USER: SEED 112
USER: STATUS no improvement in best in 2 clusters for 5 generations
USER: GENES 22
USER: genes 0 Translation |==|  0.69905 0.59521 0.61637
USER: genes 1 Rotation |==|  0.86694 0.82568 0.41187 0.53897
USER: genes 2 Torsion [C]-CA--N-[C] |==|  0.77214
USER: genes 3 Torsion [N]-C--CA-[N] |==|  0.92286
USER: genes 4 Torsion [C]-CA--N-[C] |==|  0.82717
USER: genes 5 Torsion [N]-C--CA-[N] |==|  0.46921
USER: genes 6 Torsion [C]-CA--CB-[CG2] |==|  0.28449
USER: genes 7 Torsion [CA]-CB--OG1-[HG1] |==|  0.95764
USER: genes 8 Torsion [C]-CA--CB-[CG] |==|  0.14188
USER: genes 9 Torsion [CA]-CB--CG-[OD2] |==|  0.17059
USER: genes 10 Torsion [N]-CA--CB-[CG] |==|  0.87089
USER: genes 11 Torsion [CA]-CB--CG-[ND1] |==|  0.15824
USER: genes 12 Torsion [N]-CA--C-[N] |==|  0.98895
USER: genes 13 Torsion [C]-N--CA-[C] |==|  0.26245
USER: genes 14 Torsion [N]-CA--C-[N] |==|  0.38920
USER: genes 15 Torsion [C]-N--CA-[CB] |==|  0.84769
USER: genes 16 Torsion [N]-CA--C-[N] |==|  0.41300
USER: genes 17 Torsion [C]-N--CA-[CB] |==|  0.28149
USER: genes 18 Torsion [N]-CA--CB-[CG] |==|  0.75854
USER: genes 19 Torsion [CA]-CB--CG-[CD] |==|  0.84466
USER: genes 20 Torsion [CB]-CG--CD-[OE1] |==|  0.25516
USER: genes 21 Torsion [N]-CA--C-[OXT] |==|  0.90811
ROOT
ATOM      1  CA  HIS A 388     -24.823 -25.855  17.680  1.00 17.64 LIG 0.18  C 
ENDROOT
BRANCH 1 2
ATOM      2  N   HIS A 388     -25.868 -26.790  18.096  1.00 19.60 LIG-0.35  N 
ATOM      3 H    HIS A 388     -25.723 -27.605  17.864  1.00 19.60 LIG 0.16  HD
ATOM      4  C   ASP A 387     -26.946 -26.395  18.776  1.00 22.66 LIG 0.24  C 
ATOM      5 O    ASP A 387     -27.128 -25.223  19.120  1.00 22.02 LIG-0.27  OA
BRANCH 4 6
ATOM      6  CA  ASP A 387     -27.960 -27.474  19.143  1.00 25.57 LIG 0.19  C 
BRANCH 6 7
ATOM      7  N   ASP A 387     -27.836 -28.522  18.109  1.00 28.40 LIG-0.34  N 
ATOM      8 H    ASP A 387     -27.587 -29.287  18.411  1.00 28.40 LIG 0.16  HD
ATOM      9  C   THR A 386     -28.095 -28.280  16.814  1.00 31.30 LIG 0.26  C 
ATOM     10 O    THR A 386     -28.825 -27.343  16.436  1.00 31.60 LIG-0.27  OA
BRANCH 9 11
ATOM     11  CA  THR A 386     -27.490 -29.246  15.763  1.00 33.11 LIG 0.43  C 
ATOM     12  N   THR A 386     -28.035 -29.062  14.384  1.00 33.83 LIG 0.62  N 
BRANCH 11 13
ATOM     13  CB  THR A 386     -25.935 -29.187  15.768  1.00 33.77 LIG 0.16  C 
ATOM     14  CG2 THR A 386     -25.316 -30.385  16.496  1.00 34.60 LIG 0.04  C 
BRANCH 13 15
ATOM     15 OG1  THR A 386     -25.425 -29.271  14.428  1.00 35.18 LIG-0.39  OA
ATOM     16 HG1  THR A 386     -26.032 -29.543  13.914  1.00 35.18 LIG 0.21  HD
ENDBRANCH 13 15
ENDBRANCH 11 13
ENDBRANCH 9 11
ENDBRANCH 6 7
BRANCH 6 17
ATOM     17  CB  ASP A 387     -27.669 -28.019  20.569  1.00 25.68 LIG 0.15  C 
BRANCH 17 18
ATOM     18  CG  ASP A 387     -27.528 -26.904  21.629  1.00 25.80 LIG 0.17  C 
ATOM     19 OD2  ASP A 387     -28.462 -26.116  21.900  1.00 26.75 LIG-0.65  OA
ATOM     20 OD1  ASP A 387     -26.454 -26.746  22.274  1.00 21.65 LIG-0.65  OA
ENDBRANCH 17 18
ENDBRANCH 6 17
ENDBRANCH 4 6
ENDBRANCH 1 2
BRANCH 1 21
ATOM     21  CB  HIS A 388     -23.455 -26.552  17.428  1.00 17.51 LIG 0.10  C 
BRANCH 21 22
ATOM     22  CG  HIS A 388     -23.024 -27.526  18.499  1.00 19.36 LIG 0.06  A 
ATOM     23 ND1  HIS A 388     -23.784 -28.605  18.888  1.00 21.21 LIG-0.24  NA
ATOM     24  CE1 HIS A 388     -23.147 -29.280  19.828  1.00 22.16 LIG 0.23  A 
ATOM     25 NE2  HIS A 388     -22.009 -28.663  20.087  1.00 21.69 LIG-0.25  NA
ATOM     26  CD2 HIS A 388     -21.912 -27.559  19.274  1.00 21.19 LIG 0.14  A 
ENDBRANCH 21 22
ENDBRANCH 1 21
BRANCH 1 27
ATOM     27  C   HIS A 388     -25.254 -25.150  16.386  1.00 15.45 LIG 0.24  C 
ATOM     28 O    HIS A 388     -24.551 -24.267  15.922  1.00 14.42 LIG-0.27  OA
ATOM     29  N   GLY A 389     -26.403 -25.523  15.811  1.00 14.00 LIG-0.35  N 
ATOM     30 H    GLY A 389     -26.907 -26.155  16.104  1.00 14.00 LIG 0.16  HD
BRANCH 29 31
ATOM     31  CA  GLY A 389     -26.898 -24.859  14.605  1.00 13.01 LIG 0.23  C 
BRANCH 31 32
ATOM     32  C   GLY A 389     -26.493 -25.573  13.334  1.00 11.92 LIG 0.24  C 
ATOM     33 O    GLY A 389     -25.361 -26.100  13.208  1.00 12.61 LIG-0.27  OA
ATOM     34  N   ALA A 390     -27.415 -25.630  12.391  1.00 10.53 LIG-0.35  N 
ATOM     35 H    ALA A 390     -28.212 -25.325  12.489  1.00 10.53 LIG 0.16  HD
BRANCH 34 36
ATOM     36  CA  ALA A 390     -27.163 -26.228  11.078  1.00 11.53 LIG 0.17  C 
ATOM     37  CB  ALA A 390     -25.956 -25.568  10.447  1.00 11.91 LIG 0.04  C 
BRANCH 36 38
ATOM     38  C   ALA A 390     -26.913 -27.743  11.216  1.00 13.11 LIG 0.24  C 
ATOM     39  N   GLU A 391     -27.307 -28.472  10.182  1.00 14.39 LIG-0.34  N 
ATOM     40 H    GLU A 391     -27.646 -28.137   9.467  1.00 14.39 LIG 0.16  HD
ATOM     41 O    ALA A 390     -26.432 -28.245  12.241  1.00 12.73 LIG-0.27  OA
BRANCH 39 42
ATOM     42  CA  GLU A 391     -27.203 -29.905  10.162  1.00 15.60 LIG 0.19  C 
BRANCH 42 43
ATOM     43  CB  GLU A 391     -28.579 -30.510  10.461  1.00 17.03 LIG 0.05  C 
BRANCH 43 44
ATOM     44  CG  GLU A 391     -28.900 -30.696  11.918  1.00 23.68 LIG 0.12  C 
BRANCH 44 45
ATOM     45  CD  GLU A 391     -27.832 -31.545  12.604  1.00 29.63 LIG 0.17  C 
ATOM     46 OE1  GLU A 391     -26.858 -30.940  13.146  1.00 31.73 LIG-0.65  OA
ATOM     47 OE2  GLU A 391     -27.949 -32.800  12.541  1.00 33.20 LIG-0.65  OA
ENDBRANCH 44 45
ENDBRANCH 43 44
ENDBRANCH 42 43
BRANCH 42 48
ATOM     48  C   GLU A 391     -26.727 -30.307   8.770  1.00 14.85 LIG 0.20  C 
ATOM     49 OXT  GLU A 391     -27.068 -29.648   7.797  1.00 14.73 LIG-0.65  OA
ATOM     50 O    GLU A 391     -26.016 -31.301   8.618  1.00 14.85 LIG-0.65  OA
ENDBRANCH 42 48
ENDBRANCH 39 42
ENDBRANCH 36 38
ENDBRANCH 34 36
ENDBRANCH 31 32
ENDBRANCH 29 31
ENDBRANCH 1 27
TORSDOF 20
ENDMDL
MODEL 23
USER: ADFR SOLUTION from run 76
USER: SCORE 16.290093 LL:  -3.270 LR: -14.683 RR:   0.000 FEB:  -8.717
USER: RMSD 8.350743
USER: SEED 75
USER: STATUS searching
USER: GENES 22
USER: genes 0 Translation |==|  0.66421 0.64343 0.64028
USER: genes 1 Rotation |==|  0.83158 0.72604 0.44612 0.79335
USER: genes 2 Torsion [C]-CA--N-[C] |==|  0.48743
USER: genes 3 Torsion [N]-C--CA-[N] |==|  0.95152
USER: genes 4 Torsion [C]-CA--N-[C] |==|  0.72699
USER: genes 5 Torsion [N]-C--CA-[N] |==|  0.32153
USER: genes 6 Torsion [C]-CA--CB-[CG2] |==|  0.83037
USER: genes 7 Torsion [CA]-CB--OG1-[HG1] |==|  0.53638
USER: genes 8 Torsion [C]-CA--CB-[CG] |==|  0.13692
USER: genes 9 Torsion [CA]-CB--CG-[OD2] |==|  0.12633
USER: genes 10 Torsion [N]-CA--CB-[CG] |==|  0.19444
USER: genes 11 Torsion [CA]-CB--CG-[ND1] |==|  0.32130
USER: genes 12 Torsion [N]-CA--C-[N] |==|  0.88968
USER: genes 13 Torsion [C]-N--CA-[C] |==|  0.78116
USER: genes 14 Torsion [N]-CA--C-[N] |==|  0.00135
USER: genes 15 Torsion [C]-N--CA-[CB] |==|  0.87776
USER: genes 16 Torsion [N]-CA--C-[N] |==|  0.91293
USER: genes 17 Torsion [C]-N--CA-[CB] |==|  0.25587
USER: genes 18 Torsion [N]-CA--CB-[CG] |==|  0.39078
USER: genes 19 Torsion [CA]-CB--CG-[CD] |==|  0.51961
USER: genes 20 Torsion [CB]-CG--CD-[OE1] |==|  0.36669
USER: genes 21 Torsion [N]-CA--C-[OXT] |==|  0.49441
ROOT
ATOM      1  CA  HIS A 388     -25.502 -25.023  18.200  1.00 17.64 LIG 0.18  C 
ENDROOT
BRANCH 1 2
ATOM      2  N   HIS A 388     -26.781 -25.729  18.276  1.00 19.60 LIG-0.35  N 
ATOM      3 H    HIS A 388     -26.957 -26.213  17.587  1.00 19.60 LIG 0.16  HD
ATOM      4  C   ASP A 387     -27.592 -25.621  19.329  1.00 22.66 LIG 0.24  C 
ATOM      5 O    ASP A 387     -27.314 -24.939  20.320  1.00 22.02 LIG-0.27  OA
BRANCH 4 6
ATOM      6  CA  ASP A 387     -28.897 -26.409  19.276  1.00 25.57 LIG 0.19  C 
BRANCH 6 7
ATOM      7  N   ASP A 387     -29.103 -26.765  17.858  1.00 28.40 LIG-0.34  N 
ATOM      8 H    ASP A 387     -28.662 -27.456  17.600  1.00 28.40 LIG 0.16  HD
ATOM      9  C   THR A 386     -29.914 -26.057  17.055  1.00 31.30 LIG 0.26  C 
ATOM     10 O    THR A 386     -30.839 -25.344  17.491  1.00 31.60 LIG-0.27  OA
BRANCH 9 11
ATOM     11  CA  THR A 386     -29.705 -26.181  15.524  1.00 33.11 LIG 0.43  C 
ATOM     12  N   THR A 386     -30.860 -26.792  14.800  1.00 33.83 LIG 0.62  N 
BRANCH 11 13
ATOM     13  CB  THR A 386     -29.303 -24.816  14.894  1.00 33.77 LIG 0.16  C 
ATOM     14  CG2 THR A 386     -30.384 -23.749  15.095  1.00 34.60 LIG 0.04  C 
BRANCH 13 15
ATOM     15 OG1  THR A 386     -28.139 -24.285  15.546  1.00 35.18 LIG-0.39  OA
ATOM     16 HG1  THR A 386     -28.038 -23.480  15.327  1.00 35.18 LIG 0.21  HD
ENDBRANCH 13 15
ENDBRANCH 11 13
ENDBRANCH 9 11
ENDBRANCH 6 7
BRANCH 6 17
ATOM     17  CB  ASP A 387     -28.803 -27.663  20.189  1.00 25.68 LIG 0.15  C 
BRANCH 17 18
ATOM     18  CG  ASP A 387     -28.282 -27.345  21.608  1.00 25.80 LIG 0.17  C 
ATOM     19 OD2  ASP A 387     -28.706 -26.373  22.274  1.00 26.75 LIG-0.65  OA
ATOM     20 OD1  ASP A 387     -27.403 -28.064  22.159  1.00 21.65 LIG-0.65  OA
ENDBRANCH 17 18
ENDBRANCH 6 17
ENDBRANCH 4 6
ENDBRANCH 1 2
BRANCH 1 21
ATOM     21  CB  HIS A 388     -24.581 -25.312  19.420  1.00 17.51 LIG 0.10  C 
BRANCH 21 22
ATOM     22  CG  HIS A 388     -24.014 -26.710  19.479  1.00 19.36 LIG 0.06  A 
ATOM     23 ND1  HIS A 388     -22.669 -26.983  19.384  1.00 21.21 LIG-0.24  NA
ATOM     24  CE1 HIS A 388     -22.473 -28.286  19.482  1.00 22.16 LIG 0.23  A 
ATOM     25 NE2  HIS A 388     -23.647 -28.876  19.611  1.00 21.69 LIG-0.25  NA
ATOM     26  CD2 HIS A 388     -24.627 -27.912  19.606  1.00 21.19 LIG 0.14  A 
ENDBRANCH 21 22
ENDBRANCH 1 21
BRANCH 1 27
ATOM     27  C   HIS A 388     -24.762 -25.443  16.923  1.00 15.45 LIG 0.24  C 
ATOM     28 O    HIS A 388     -24.163 -24.602  16.273  1.00 14.42 LIG-0.27  OA
ATOM     29  N   GLY A 389     -24.808 -26.729  16.553  1.00 14.00 LIG-0.35  N 
ATOM     30 H    GLY A 389     -25.205 -27.346  17.002  1.00 14.00 LIG 0.16  HD
BRANCH 29 31
ATOM     31  CA  GLY A 389     -24.168 -27.188  15.321  1.00 13.01 LIG 0.23  C 
BRANCH 31 32
ATOM     32  C   GLY A 389     -24.986 -26.878  14.085  1.00 11.92 LIG 0.24  C 
ATOM     33 O    GLY A 389     -24.611 -27.232  12.942  1.00 12.61 LIG-0.27  OA
ATOM     34  N   ALA A 390     -26.125 -26.245  14.298  1.00 10.53 LIG-0.35  N 
ATOM     35 H    ALA A 390     -26.420 -26.049  15.081  1.00 10.53 LIG 0.16  HD
BRANCH 34 36
ATOM     36  CA  ALA A 390     -27.002 -25.813  13.206  1.00 11.53 LIG 0.17  C 
ATOM     37  CB  ALA A 390     -26.169 -25.186  12.109  1.00 11.91 LIG 0.04  C 
BRANCH 36 38
ATOM     38  C   ALA A 390     -27.786 -27.014  12.641  1.00 13.11 LIG 0.24  C 
ATOM     39  N   GLU A 391     -27.151 -28.176  12.701  1.00 14.39 LIG-0.34  N 
ATOM     40 H    GLU A 391     -26.375 -28.274  13.056  1.00 14.39 LIG 0.16  HD
ATOM     41 O    ALA A 390     -28.902 -26.891  12.120  1.00 12.73 LIG-0.27  OA
BRANCH 39 42
ATOM     42  CA  GLU A 391     -27.708 -29.389  12.170  1.00 15.60 LIG 0.19  C 
BRANCH 42 43
ATOM     43  CB  GLU A 391     -27.237 -29.565  10.722  1.00 17.03 LIG 0.05  C 
BRANCH 43 44
ATOM     44  CG  GLU A 391     -26.893 -30.973  10.322  1.00 23.68 LIG 0.12  C 
BRANCH 44 45
ATOM     45  CD  GLU A 391     -26.275 -31.003   8.925  1.00 29.63 LIG 0.17  C 
ATOM     46 OE1  GLU A 391     -25.209 -31.671   8.769  1.00 31.73 LIG-0.65  OA
ATOM     47 OE2  GLU A 391     -26.828 -30.314   8.024  1.00 33.20 LIG-0.65  OA
ENDBRANCH 44 45
ENDBRANCH 43 44
ENDBRANCH 42 43
BRANCH 42 48
ATOM     48  C   GLU A 391     -27.210 -30.537  13.043  1.00 14.85 LIG 0.20  C 
ATOM     49 OXT  GLU A 391     -27.580 -31.680  12.813  1.00 14.73 LIG-0.65  OA
ATOM     50 O    GLU A 391     -26.453 -30.317  13.989  1.00 14.85 LIG-0.65  OA
ENDBRANCH 42 48
ENDBRANCH 39 42
ENDBRANCH 36 38
ENDBRANCH 34 36
ENDBRANCH 31 32
ENDBRANCH 29 31
ENDBRANCH 1 27
TORSDOF 20
ENDMDL
MODEL 24
USER: ADFR SOLUTION from run 107
USER: SCORE 15.892945 LL:  -3.216 LR: -14.663 RR:   0.000 FEB:  -8.697
USER: RMSD 9.413233
USER: SEED 106
USER: STATUS no improvement in best in 3 clusters for 5 generations
USER: GENES 22
USER: genes 0 Translation |==|  0.67190 0.45908 0.72182
USER: genes 1 Rotation |==|  0.01867 0.37753 0.54553 0.53538
USER: genes 2 Torsion [C]-CA--N-[C] |==|  0.69266
USER: genes 3 Torsion [N]-C--CA-[N] |==|  0.89172
USER: genes 4 Torsion [C]-CA--N-[C] |==|  0.87222
USER: genes 5 Torsion [N]-C--CA-[N] |==|  0.89828
USER: genes 6 Torsion [C]-CA--CB-[CG2] |==|  0.64432
USER: genes 7 Torsion [CA]-CB--OG1-[HG1] |==|  0.14714
USER: genes 8 Torsion [C]-CA--CB-[CG] |==|  0.56840
USER: genes 9 Torsion [CA]-CB--CG-[OD2] |==|  0.14628
USER: genes 10 Torsion [N]-CA--CB-[CG] |==|  0.64966
USER: genes 11 Torsion [CA]-CB--CG-[ND1] |==|  0.28979
USER: genes 12 Torsion [N]-CA--C-[N] |==|  0.80356
USER: genes 13 Torsion [C]-N--CA-[C] |==|  0.66208
USER: genes 14 Torsion [N]-CA--C-[N] |==|  0.73371
USER: genes 15 Torsion [C]-N--CA-[CB] |==|  0.23006
USER: genes 16 Torsion [N]-CA--C-[N] |==|  0.99162
USER: genes 17 Torsion [C]-N--CA-[CB] |==|  0.22754
USER: genes 18 Torsion [N]-CA--CB-[CG] |==|  0.50935
USER: genes 19 Torsion [CA]-CB--CG-[CD] |==|  0.53286
USER: genes 20 Torsion [CB]-CG--CD-[OE1] |==|  0.31249
USER: genes 21 Torsion [N]-CA--C-[OXT] |==|  0.97614
ROOT
ATOM      1  CA  HIS A 388     -25.352 -28.203  19.974  1.00 17.64 LIG 0.18  C 
ENDROOT
BRANCH 1 2
ATOM      2  N   HIS A 388     -26.767 -27.909  20.203  1.00 19.60 LIG-0.35  N 
ATOM      3 H    HIS A 388     -27.282 -28.125  19.548  1.00 19.60 LIG 0.16  HD
ATOM      4  C   ASP A 387     -27.204 -27.354  21.334  1.00 22.66 LIG 0.24  C 
ATOM      5 O    ASP A 387     -26.454 -27.070  22.273  1.00 22.02 LIG-0.27  OA
BRANCH 4 6
ATOM      6  CA  ASP A 387     -28.705 -27.099  21.440  1.00 25.57 LIG 0.19  C 
BRANCH 6 7
ATOM      7  N   ASP A 387     -29.137 -26.640  20.104  1.00 28.40 LIG-0.34  N 
ATOM      8 H    ASP A 387     -29.853 -27.019  19.817  1.00 28.40 LIG 0.16  HD
ATOM      9  C   THR A 386     -28.457 -25.711  19.414  1.00 31.30 LIG 0.26  C 
ATOM     10 O    THR A 386     -27.698 -24.887  19.961  1.00 31.60 LIG-0.27  OA
BRANCH 9 11
ATOM     11  CA  THR A 386     -28.676 -25.644  17.881  1.00 33.11 LIG 0.43  C 
ATOM     12  N   THR A 386     -28.860 -26.979  17.235  1.00 33.83 LIG 0.62  N 
BRANCH 11 13
ATOM     13  CB  THR A 386     -29.838 -24.675  17.515  1.00 33.77 LIG 0.16  C 
ATOM     14  CG2 THR A 386     -30.871 -25.337  16.598  1.00 34.60 LIG 0.04  C 
BRANCH 13 15
ATOM     15 OG1  THR A 386     -30.575 -24.309  18.692  1.00 35.18 LIG-0.39  OA
ATOM     16 HG1  THR A 386     -30.045 -24.014  19.274  1.00 35.18 LIG 0.21  HD
ENDBRANCH 13 15
ENDBRANCH 11 13
ENDBRANCH 9 11
ENDBRANCH 6 7
BRANCH 6 17
ATOM     17  CB  ASP A 387     -29.438 -28.395  21.883  1.00 25.68 LIG 0.15  C 
BRANCH 17 18
ATOM     18  CG  ASP A 387     -30.920 -28.434  21.450  1.00 25.80 LIG 0.17  C 
ATOM     19 OD2  ASP A 387     -31.276 -28.246  20.264  1.00 26.75 LIG-0.65  OA
ATOM     20 OD1  ASP A 387     -31.840 -28.664  22.283  1.00 21.65 LIG-0.65  OA
ENDBRANCH 17 18
ENDBRANCH 6 17
ENDBRANCH 4 6
ENDBRANCH 1 2
BRANCH 1 21
ATOM     21  CB  HIS A 388     -25.107 -29.670  19.518  1.00 17.51 LIG 0.10  C 
BRANCH 21 22
ATOM     22  CG  HIS A 388     -24.108 -30.441  20.346  1.00 19.36 LIG 0.06  A 
ATOM     23 ND1  HIS A 388     -24.469 -31.400  21.264  1.00 21.21 LIG-0.24  NA
ATOM     24  CE1 HIS A 388     -23.385 -31.910  21.821  1.00 22.16 LIG 0.23  A 
ATOM     25 NE2  HIS A 388     -22.329 -31.298  21.319  1.00 21.69 LIG-0.25  NA
ATOM     26  CD2 HIS A 388     -22.755 -30.370  20.399  1.00 21.19 LIG 0.14  A 
ENDBRANCH 21 22
ENDBRANCH 1 21
BRANCH 1 27
ATOM     27  C   HIS A 388     -24.804 -27.260  18.893  1.00 15.45 LIG 0.24  C 
ATOM     28 O    HIS A 388     -24.030 -26.371  19.209  1.00 14.42 LIG-0.27  OA
ATOM     29  N   GLY A 389     -25.206 -27.439  17.629  1.00 14.00 LIG-0.35  N 
ATOM     30 H    GLY A 389     -25.733 -28.069  17.374  1.00 14.00 LIG 0.16  HD
BRANCH 29 31
ATOM     31  CA  GLY A 389     -24.762 -26.546  16.558  1.00 13.01 LIG 0.23  C 
BRANCH 31 32
ATOM     32  C   GLY A 389     -25.913 -25.871  15.844  1.00 11.92 LIG 0.24  C 
ATOM     33 O    GLY A 389     -26.421 -24.807  16.274  1.00 12.61 LIG-0.27  OA
ATOM     34  N   ALA A 390     -26.319 -26.456  14.733  1.00 10.53 LIG-0.35  N 
ATOM     35 H    ALA A 390     -25.941 -27.152  14.398  1.00 10.53 LIG 0.16  HD
BRANCH 34 36
ATOM     36  CA  ALA A 390     -27.462 -25.968  13.957  1.00 11.53 LIG 0.17  C 
ATOM     37  CB  ALA A 390     -27.014 -24.838  13.056  1.00 11.91 LIG 0.04  C 
BRANCH 36 38
ATOM     38  C   ALA A 390     -28.057 -27.107  13.105  1.00 13.11 LIG 0.24  C 
ATOM     39  N   GLU A 391     -27.408 -28.260  13.179  1.00 14.39 LIG-0.34  N 
ATOM     40 H    GLU A 391     -26.726 -28.389  13.686  1.00 14.39 LIG 0.16  HD
ATOM     41 O    ALA A 390     -29.034 -26.940  12.364  1.00 12.73 LIG-0.27  OA
BRANCH 39 42
ATOM     42  CA  GLU A 391     -27.788 -29.413  12.410  1.00 15.60 LIG 0.19  C 
BRANCH 42 43
ATOM     43  CB  GLU A 391     -27.204 -29.287  10.999  1.00 17.03 LIG 0.05  C 
BRANCH 43 44
ATOM     44  CG  GLU A 391     -27.582 -30.386  10.044  1.00 23.68 LIG 0.12  C 
BRANCH 44 45
ATOM     45  CD  GLU A 391     -26.727 -30.323   8.780  1.00 29.63 LIG 0.17  C 
ATOM     46 OE1  GLU A 391     -25.905 -31.267   8.579  1.00 31.73 LIG-0.65  OA
ATOM     47 OE2  GLU A 391     -26.846 -29.307   8.041  1.00 33.20 LIG-0.65  OA
ENDBRANCH 44 45
ENDBRANCH 43 44
ENDBRANCH 42 43
BRANCH 42 48
ATOM     48  C   GLU A 391     -27.224 -30.639  13.121  1.00 14.85 LIG 0.20  C 
ATOM     49 OXT  GLU A 391     -26.454 -30.497  14.060  1.00 14.73 LIG-0.65  OA
ATOM     50 O    GLU A 391     -27.525 -31.772  12.741  1.00 14.85 LIG-0.65  OA
ENDBRANCH 42 48
ENDBRANCH 39 42
ENDBRANCH 36 38
ENDBRANCH 34 36
ENDBRANCH 31 32
ENDBRANCH 29 31
ENDBRANCH 1 27
TORSDOF 20
ENDMDL
MODEL 25
USER: ADFR SOLUTION from run 143
USER: SCORE 15.976815 LL:  -2.838 LR: -14.640 RR:   0.000 FEB:  -8.674
USER: RMSD 8.215659
USER: SEED 142
USER: STATUS no improvement in best in 8 clusters for 5 generations
USER: GENES 22
USER: genes 0 Translation |==|  0.72586 0.54530 0.52790
USER: genes 1 Rotation |==|  0.11594 0.28887 0.72293 0.59069
USER: genes 2 Torsion [C]-CA--N-[C] |==|  0.82193
USER: genes 3 Torsion [N]-C--CA-[N] |==|  0.09554
USER: genes 4 Torsion [C]-CA--N-[C] |==|  0.18137
USER: genes 5 Torsion [N]-C--CA-[N] |==|  0.84884
USER: genes 6 Torsion [C]-CA--CB-[CG2] |==|  0.03549
USER: genes 7 Torsion [CA]-CB--OG1-[HG1] |==|  0.70686
USER: genes 8 Torsion [C]-CA--CB-[CG] |==|  0.52609
USER: genes 9 Torsion [CA]-CB--CG-[OD2] |==|  0.72640
USER: genes 10 Torsion [N]-CA--CB-[CG] |==|  0.14593
USER: genes 11 Torsion [CA]-CB--CG-[ND1] |==|  0.28217
USER: genes 12 Torsion [N]-CA--C-[N] |==|  0.91294
USER: genes 13 Torsion [C]-N--CA-[C] |==|  0.51639
USER: genes 14 Torsion [N]-CA--C-[N] |==|  0.28360
USER: genes 15 Torsion [C]-N--CA-[CB] |==|  0.82133
USER: genes 16 Torsion [N]-CA--C-[N] |==|  0.19908
USER: genes 17 Torsion [C]-N--CA-[CB] |==|  0.44904
USER: genes 18 Torsion [N]-CA--CB-[CG] |==|  0.49776
USER: genes 19 Torsion [CA]-CB--CG-[CD] |==|  0.69094
USER: genes 20 Torsion [CB]-CG--CD-[OE1] |==|  0.37490
USER: genes 21 Torsion [N]-CA--C-[OXT] |==|  0.46498
ROOT
ATOM      1  CA  HIS A 388     -24.300 -26.716  15.756  1.00 17.64 LIG 0.18  C 
ENDROOT
BRANCH 1 2
ATOM      2  N   HIS A 388     -25.118 -27.080  16.913  1.00 19.60 LIG-0.35  N 
ATOM      3 H    HIS A 388     -25.340 -27.911  16.939  1.00 19.60 LIG 0.16  HD
ATOM      4  C   ASP A 387     -25.480 -26.189  17.837  1.00 22.66 LIG 0.24  C 
ATOM      5 O    ASP A 387     -25.135 -25.004  17.795  1.00 22.02 LIG-0.27  OA
BRANCH 4 6
ATOM      6  CA  ASP A 387     -26.337 -26.703  18.989  1.00 25.57 LIG 0.19  C 
BRANCH 6 7
ATOM      7  N   ASP A 387     -25.881 -28.083  19.256  1.00 28.40 LIG-0.34  N 
ATOM      8 H    ASP A 387     -26.471 -28.687  19.093  1.00 28.40 LIG 0.16  HD
ATOM      9  C   THR A 386     -24.647 -28.351  19.711  1.00 31.30 LIG 0.26  C 
ATOM     10 O    THR A 386     -23.688 -27.569  19.559  1.00 31.60 LIG-0.27  OA
BRANCH 9 11
ATOM     11  CA  THR A 386     -24.414 -29.714  20.411  1.00 33.11 LIG 0.43  C 
ATOM     12  N   THR A 386     -25.347 -29.981  21.547  1.00 33.83 LIG 0.62  N 
BRANCH 11 13
ATOM     13  CB  THR A 386     -24.423 -30.886  19.387  1.00 33.77 LIG 0.16  C 
ATOM     14  CG2 THR A 386     -24.342 -30.387  17.941  1.00 34.60 LIG 0.04  C 
BRANCH 13 15
ATOM     15 OG1  THR A 386     -23.257 -31.708  19.555  1.00 35.18 LIG-0.39  OA
ATOM     16 HG1  THR A 386     -22.717 -31.559  18.929  1.00 35.18 LIG 0.21  HD
ENDBRANCH 13 15
ENDBRANCH 11 13
ENDBRANCH 9 11
ENDBRANCH 6 7
BRANCH 6 17
ATOM     17  CB  ASP A 387     -26.177 -25.781  20.230  1.00 25.68 LIG 0.15  C 
BRANCH 17 18
ATOM     18  CG  ASP A 387     -26.828 -26.358  21.505  1.00 25.80 LIG 0.17  C 
ATOM     19 OD2  ASP A 387     -27.963 -26.001  21.897  1.00 26.75 LIG-0.65  OA
ATOM     20 OD1  ASP A 387     -26.238 -27.226  22.207  1.00 21.65 LIG-0.65  OA
ENDBRANCH 17 18
ENDBRANCH 6 17
ENDBRANCH 4 6
ENDBRANCH 1 2
BRANCH 1 21
ATOM     21  CB  HIS A 388     -23.907 -27.943  14.885  1.00 17.51 LIG 0.10  C 
BRANCH 21 22
ATOM     22  CG  HIS A 388     -25.059 -28.817  14.449  1.00 19.36 LIG 0.06  A 
ATOM     23 ND1  HIS A 388     -25.607 -28.769  13.188  1.00 21.21 LIG-0.24  NA
ATOM     24  CE1 HIS A 388     -26.585 -29.653  13.097  1.00 22.16 LIG 0.23  A 
ATOM     25 NE2  HIS A 388     -26.713 -30.257  14.263  1.00 21.69 LIG-0.25  NA
ATOM     26  CD2 HIS A 388     -25.774 -29.747  15.128  1.00 21.19 LIG 0.14  A 
ENDBRANCH 21 22
ENDBRANCH 1 21
BRANCH 1 27
ATOM     27  C   HIS A 388     -25.073 -25.723  14.876  1.00 15.45 LIG 0.24  C 
ATOM     28 O    HIS A 388     -24.460 -24.875  14.249  1.00 14.42 LIG-0.27  OA
ATOM     29  N   GLY A 389     -26.408 -25.815  14.834  1.00 14.00 LIG-0.35  N 
ATOM     30 H    GLY A 389     -26.864 -26.415  15.249  1.00 14.00 LIG 0.16  HD
BRANCH 29 31
ATOM     31  CA  GLY A 389     -27.209 -24.870  14.057  1.00 13.01 LIG 0.23  C 
BRANCH 31 32
ATOM     32  C   GLY A 389     -28.697 -25.061  14.257  1.00 11.92 LIG 0.24  C 
ATOM     33 O    GLY A 389     -29.319 -26.004  13.711  1.00 12.61 LIG-0.27  OA
ATOM     34  N   ALA A 390     -29.281 -24.194  15.063  1.00 10.53 LIG-0.35  N 
ATOM     35 H    ALA A 390     -28.855 -23.580  15.489  1.00 10.53 LIG 0.16  HD
BRANCH 34 36
ATOM     36  CA  ALA A 390     -30.725 -24.199  15.313  1.00 11.53 LIG 0.17  C 
ATOM     37  CB  ALA A 390     -31.459 -23.879  14.028  1.00 11.91 LIG 0.04  C 
BRANCH 36 38
ATOM     38  C   ALA A 390     -31.174 -25.577  15.838  1.00 13.11 LIG 0.24  C 
ATOM     39  N   GLU A 391     -30.798 -25.853  17.079  1.00 14.39 LIG-0.34  N 
ATOM     40 H    GLU A 391     -30.366 -25.302  17.577  1.00 14.39 LIG 0.16  HD
ATOM     41 O    ALA A 390     -31.791 -26.386  15.134  1.00 12.73 LIG-0.27  OA
BRANCH 39 42
ATOM     42  CA  GLU A 391     -31.080 -27.112  17.710  1.00 15.60 LIG 0.19  C 
BRANCH 42 43
ATOM     43  CB  GLU A 391     -30.148 -27.288  18.914  1.00 17.03 LIG 0.05  C 
BRANCH 43 44
ATOM     44  CG  GLU A 391     -30.337 -28.559  19.695  1.00 23.68 LIG 0.12  C 
BRANCH 44 45
ATOM     45  CD  GLU A 391     -30.915 -28.265  21.078  1.00 29.63 LIG 0.17  C 
ATOM     46 OE1  GLU A 391     -31.866 -28.998  21.486  1.00 31.73 LIG-0.65  OA
ATOM     47 OE2  GLU A 391     -30.455 -27.273  21.708  1.00 33.20 LIG-0.65  OA
ENDBRANCH 44 45
ENDBRANCH 43 44
ENDBRANCH 42 43
BRANCH 42 48
ATOM     48  C   GLU A 391     -32.539 -27.080  18.156  1.00 14.85 LIG 0.20  C 
ATOM     49 OXT  GLU A 391     -33.088 -28.113  18.512  1.00 14.73 LIG-0.65  OA
ATOM     50 O    GLU A 391     -33.171 -26.023  18.142  1.00 14.85 LIG-0.65  OA
ENDBRANCH 42 48
ENDBRANCH 39 42
ENDBRANCH 36 38
ENDBRANCH 34 36
ENDBRANCH 31 32
ENDBRANCH 29 31
ENDBRANCH 1 27
TORSDOF 20
ENDMDL
MODEL 26
USER: ADFR SOLUTION from run 151
USER: SCORE 17.710975 LL:  -4.250 LR: -14.644 RR:   0.000 FEB:  -8.678
USER: RMSD 4.546603
USER: SEED 150
USER: STATUS no improvement in best in 1 clusters for 5 generations
USER: GENES 22
USER: genes 0 Translation |==|  0.71333 0.58992 0.44652
USER: genes 1 Rotation |==|  0.30057 0.32725 0.49092 0.92462
USER: genes 2 Torsion [C]-CA--N-[C] |==|  0.76594
USER: genes 3 Torsion [N]-C--CA-[N] |==|  0.86373
USER: genes 4 Torsion [C]-CA--N-[C] |==|  0.81669
USER: genes 5 Torsion [N]-C--CA-[N] |==|  0.53327
USER: genes 6 Torsion [C]-CA--CB-[CG2] |==|  0.41630
USER: genes 7 Torsion [CA]-CB--OG1-[HG1] |==|  0.54662
USER: genes 8 Torsion [C]-CA--CB-[CG] |==|  0.29360
USER: genes 9 Torsion [CA]-CB--CG-[OD2] |==|  0.01710
USER: genes 10 Torsion [N]-CA--CB-[CG] |==|  0.02904
USER: genes 11 Torsion [CA]-CB--CG-[ND1] |==|  0.14011
USER: genes 12 Torsion [N]-CA--C-[N] |==|  0.03729
USER: genes 13 Torsion [C]-N--CA-[C] |==|  0.60889
USER: genes 14 Torsion [N]-CA--C-[N] |==|  0.00993
USER: genes 15 Torsion [C]-N--CA-[CB] |==|  0.80497
USER: genes 16 Torsion [N]-CA--C-[N] |==|  0.22613
USER: genes 17 Torsion [C]-N--CA-[CB] |==|  0.85988
USER: genes 18 Torsion [N]-CA--CB-[CG] |==|  0.59880
USER: genes 19 Torsion [CA]-CB--CG-[CD] |==|  0.86555
USER: genes 20 Torsion [CB]-CG--CD-[OE1] |==|  0.76221
USER: genes 21 Torsion [N]-CA--C-[OXT] |==|  0.25655
ROOT
ATOM      1  CA  HIS A 388     -24.544 -25.946  13.986  1.00 17.64 LIG 0.18  C 
ENDROOT
BRANCH 1 2
ATOM      2  N   HIS A 388     -25.738 -26.793  13.991  1.00 19.60 LIG-0.35  N 
ATOM      3 H    HIS A 388     -26.432 -26.424  13.642  1.00 19.60 LIG 0.16  HD
ATOM      4  C   ASP A 387     -25.732 -28.027  14.497  1.00 22.66 LIG 0.24  C 
ATOM      5 O    ASP A 387     -24.720 -28.549  14.975  1.00 22.02 LIG-0.27  OA
BRANCH 4 6
ATOM      6  CA  ASP A 387     -27.046 -28.799  14.441  1.00 25.57 LIG 0.19  C 
BRANCH 6 7
ATOM      7  N   ASP A 387     -28.079 -27.888  14.974  1.00 28.40 LIG-0.34  N 
ATOM      8 H    ASP A 387     -28.667 -27.645  14.395  1.00 28.40 LIG 0.16  HD
ATOM      9  C   THR A 386     -28.084 -27.485  16.254  1.00 31.30 LIG 0.26  C 
ATOM     10 O    THR A 386     -27.520 -28.125  17.164  1.00 31.60 LIG-0.27  OA
BRANCH 9 11
ATOM     11  CA  THR A 386     -28.869 -26.195  16.604  1.00 33.11 LIG 0.43  C 
ATOM     12  N   THR A 386     -28.593 -25.669  17.975  1.00 33.83 LIG 0.62  N 
BRANCH 11 13
ATOM     13  CB  THR A 386     -28.660 -25.094  15.525  1.00 33.77 LIG 0.16  C 
ATOM     14  CG2 THR A 386     -29.880 -24.175  15.397  1.00 34.60 LIG 0.04  C 
BRANCH 13 15
ATOM     15 OG1  THR A 386     -27.583 -24.222  15.899  1.00 35.18 LIG-0.39  OA
ATOM     16 HG1  THR A 386     -27.625 -23.515  15.446  1.00 35.18 LIG 0.21  HD
ENDBRANCH 13 15
ENDBRANCH 11 13
ENDBRANCH 9 11
ENDBRANCH 6 7
BRANCH 6 17
ATOM     17  CB  ASP A 387     -27.346 -29.240  12.982  1.00 25.68 LIG 0.15  C 
BRANCH 17 18
ATOM     18  CG  ASP A 387     -27.112 -30.747  12.741  1.00 25.80 LIG 0.17  C 
ATOM     19 OD2  ASP A 387     -26.829 -31.537  13.671  1.00 26.75 LIG-0.65  OA
ATOM     20 OD1  ASP A 387     -27.204 -31.248  11.586  1.00 21.65 LIG-0.65  OA
ENDBRANCH 17 18
ENDBRANCH 6 17
ENDBRANCH 4 6
ENDBRANCH 1 2
BRANCH 1 21
ATOM     21  CB  HIS A 388     -24.572 -24.872  12.861  1.00 17.51 LIG 0.10  C 
BRANCH 21 22
ATOM     22  CG  HIS A 388     -25.894 -24.725  12.147  1.00 19.36 LIG 0.06  A 
ATOM     23 ND1  HIS A 388     -27.092 -24.563  12.804  1.00 21.21 LIG-0.24  NA
ATOM     24  CE1 HIS A 388     -28.069 -24.447  11.921  1.00 22.16 LIG 0.23  A 
ATOM     25 NE2  HIS A 388     -27.554 -24.555  10.711  1.00 21.69 LIG-0.25  NA
ATOM     26  CD2 HIS A 388     -26.196 -24.736  10.825  1.00 21.19 LIG 0.14  A 
ENDBRANCH 21 22
ENDBRANCH 1 21
BRANCH 1 27
ATOM     27  C   HIS A 388     -24.421 -25.229  15.338  1.00 15.45 LIG 0.24  C 
ATOM     28 O    HIS A 388     -23.634 -24.305  15.457  1.00 14.42 LIG-0.27  OA
ATOM     29  N   GLY A 389     -25.180 -25.655  16.355  1.00 14.00 LIG-0.35  N 
ATOM     30 H    GLY A 389     -25.757 -26.290  16.295  1.00 14.00 LIG 0.16  HD
BRANCH 29 31
ATOM     31  CA  GLY A 389     -25.076 -25.050  17.683  1.00 13.01 LIG 0.23  C 
BRANCH 31 32
ATOM     32  C   GLY A 389     -25.176 -26.068  18.799  1.00 11.92 LIG 0.24  C 
ATOM     33 O    GLY A 389     -25.203 -25.721  20.005  1.00 12.61 LIG-0.27  OA
ATOM     34  N   ALA A 390     -25.265 -27.328  18.418  1.00 10.53 LIG-0.35  N 
ATOM     35 H    ALA A 390     -25.306 -27.573  17.594  1.00 10.53 LIG 0.16  HD
BRANCH 34 36
ATOM     36  CA  ALA A 390     -25.303 -28.439  19.371  1.00 11.53 LIG 0.17  C 
ATOM     37  CB  ALA A 390     -23.946 -28.590  20.024  1.00 11.91 LIG 0.04  C 
BRANCH 36 38
ATOM     38  C   ALA A 390     -26.373 -28.183  20.451  1.00 13.11 LIG 0.24  C 
ATOM     39  N   GLU A 391     -27.613 -28.483  20.093  1.00 14.39 LIG-0.34  N 
ATOM     40 H    GLU A 391     -27.817 -28.828  19.333  1.00 14.39 LIG 0.16  HD
ATOM     41 O    ALA A 390     -26.100 -27.682  21.549  1.00 12.73 LIG-0.27  OA
BRANCH 39 42
ATOM     42  CA  GLU A 391     -28.742 -28.256  20.952  1.00 15.60 LIG 0.19  C 
BRANCH 42 43
ATOM     43  CB  GLU A 391     -28.452 -28.859  22.331  1.00 17.03 LIG 0.05  C 
BRANCH 43 44
ATOM     44  CG  GLU A 391     -29.636 -29.464  23.033  1.00 23.68 LIG 0.12  C 
BRANCH 44 45
ATOM     45  CD  GLU A 391     -30.827 -28.508  23.009  1.00 29.63 LIG 0.17  C 
ATOM     46 OE1  GLU A 391     -30.895 -27.632  23.922  1.00 31.73 LIG-0.65  OA
ATOM     47 OE2  GLU A 391     -31.702 -28.684  22.118  1.00 33.20 LIG-0.65  OA
ENDBRANCH 44 45
ENDBRANCH 43 44
ENDBRANCH 42 43
BRANCH 42 48
ATOM     48  C   GLU A 391     -28.940 -26.747  21.054  1.00 14.85 LIG 0.20  C 
ATOM     49 OXT  GLU A 391     -29.699 -26.180  20.280  1.00 14.73 LIG-0.65  OA
ATOM     50 O    GLU A 391     -28.327 -26.094  21.899  1.00 14.85 LIG-0.65  OA
ENDBRANCH 42 48
ENDBRANCH 39 42
ENDBRANCH 36 38
ENDBRANCH 34 36
ENDBRANCH 31 32
ENDBRANCH 29 31
ENDBRANCH 1 27
TORSDOF 20
ENDMDL
MODEL 27
USER: ADFR SOLUTION from run 114
USER: SCORE 14.799525 LL:  -2.612 LR: -14.641 RR:   0.000 FEB:  -8.675
USER: RMSD 8.272771
USER: SEED 113
USER: STATUS no improvement in best in 7 clusters for 5 generations
USER: GENES 22
USER: genes 0 Translation |==|  0.64028 0.62787 0.66042
USER: genes 1 Rotation |==|  0.94388 0.67163 0.38894 0.60571
USER: genes 2 Torsion [C]-CA--N-[C] |==|  0.18003
USER: genes 3 Torsion [N]-C--CA-[N] |==|  0.14885
USER: genes 4 Torsion [C]-CA--N-[C] |==|  0.23141
USER: genes 5 Torsion [N]-C--CA-[N] |==|  0.52219
USER: genes 6 Torsion [C]-CA--CB-[CG2] |==|  0.20317
USER: genes 7 Torsion [CA]-CB--OG1-[HG1] |==|  0.51103
USER: genes 8 Torsion [C]-CA--CB-[CG] |==|  0.41679
USER: genes 9 Torsion [CA]-CB--CG-[OD2] |==|  0.31370
USER: genes 10 Torsion [N]-CA--CB-[CG] |==|  0.91043
USER: genes 11 Torsion [CA]-CB--CG-[ND1] |==|  0.41530
USER: genes 12 Torsion [N]-CA--C-[N] |==|  0.49816
USER: genes 13 Torsion [C]-N--CA-[C] |==|  0.77474
USER: genes 14 Torsion [N]-CA--C-[N] |==|  0.88333
USER: genes 15 Torsion [C]-N--CA-[CB] |==|  0.51683
USER: genes 16 Torsion [N]-CA--C-[N] |==|  0.43811
USER: genes 17 Torsion [C]-N--CA-[CB] |==|  0.41276
USER: genes 18 Torsion [N]-CA--CB-[CG] |==|  0.72979
USER: genes 19 Torsion [CA]-CB--CG-[CD] |==|  0.45652
USER: genes 20 Torsion [CB]-CG--CD-[OE1] |==|  0.49224
USER: genes 21 Torsion [N]-CA--C-[OXT] |==|  0.11896
ROOT
ATOM      1  CA  HIS A 388     -25.969 -25.291  18.638  1.00 17.64 LIG 0.18  C 
ENDROOT
BRANCH 1 2
ATOM      2  N   HIS A 388     -27.399 -25.279  18.945  1.00 19.60 LIG-0.35  N 
ATOM      3 H    HIS A 388     -27.641 -24.643  19.470  1.00 19.60 LIG 0.16  HD
ATOM      4  C   ASP A 387     -28.241 -26.186  18.446  1.00 22.66 LIG 0.24  C 
ATOM      5 O    ASP A 387     -27.881 -27.081  17.676  1.00 22.02 LIG-0.27  OA
BRANCH 4 6
ATOM      6  CA  ASP A 387     -29.707 -26.059  18.850  1.00 25.57 LIG 0.19  C 
BRANCH 6 7
ATOM      7  N   ASP A 387     -30.104 -24.674  18.523  1.00 28.40 LIG-0.34  N 
ATOM      8 H    ASP A 387     -30.066 -24.130  19.188  1.00 28.40 LIG 0.16  HD
ATOM      9  C   THR A 386     -30.487 -24.315  17.288  1.00 31.30 LIG 0.26  C 
ATOM     10 O    THR A 386     -30.161 -24.954  16.268  1.00 31.60 LIG-0.27  OA
BRANCH 9 11
ATOM     11  CA  THR A 386     -31.329 -23.022  17.139  1.00 33.11 LIG 0.43  C 
ATOM     12  N   THR A 386     -31.867 -22.803  15.762  1.00 33.83 LIG 0.62  N 
BRANCH 11 13
ATOM     13  CB  THR A 386     -32.462 -22.957  18.204  1.00 33.77 LIG 0.16  C 
ATOM     14  CG2 THR A 386     -31.919 -22.651  19.603  1.00 34.60 LIG 0.04  C 
BRANCH 13 15
ATOM     15 OG1  THR A 386     -33.361 -21.875  17.915  1.00 35.18 LIG-0.39  OA
ATOM     16 HG1  THR A 386     -33.935 -21.817  18.526  1.00 35.18 LIG 0.21  HD
ENDBRANCH 13 15
ENDBRANCH 11 13
ENDBRANCH 9 11
ENDBRANCH 6 7
BRANCH 6 17
ATOM     17  CB  ASP A 387     -30.564 -27.111  18.094  1.00 25.68 LIG 0.15  C 
BRANCH 17 18
ATOM     18  CG  ASP A 387     -31.804 -27.572  18.891  1.00 25.80 LIG 0.17  C 
ATOM     19 OD2  ASP A 387     -32.972 -27.306  18.524  1.00 26.75 LIG-0.65  OA
ATOM     20 OD1  ASP A 387     -31.688 -28.247  19.951  1.00 21.65 LIG-0.65  OA
ENDBRANCH 17 18
ENDBRANCH 6 17
ENDBRANCH 4 6
ENDBRANCH 1 2
BRANCH 1 21
ATOM     21  CB  HIS A 388     -25.288 -26.645  18.991  1.00 17.51 LIG 0.10  C 
BRANCH 21 22
ATOM     22  CG  HIS A 388     -25.874 -27.367  20.180  1.00 19.36 LIG 0.06  A 
ATOM     23 ND1  HIS A 388     -25.879 -28.737  20.303  1.00 21.21 LIG-0.24  NA
ATOM     24  CE1 HIS A 388     -26.443 -29.078  21.449  1.00 22.16 LIG 0.23  A 
ATOM     25 NE2  HIS A 388     -26.832 -27.978  22.066  1.00 21.69 LIG-0.25  NA
ATOM     26  CD2 HIS A 388     -26.494 -26.895  21.290  1.00 21.19 LIG 0.14  A 
ENDBRANCH 21 22
ENDBRANCH 1 21
BRANCH 1 27
ATOM     27  C   HIS A 388     -25.766 -25.022  17.141  1.00 15.45 LIG 0.24  C 
ATOM     28 O    HIS A 388     -26.739 -24.865  16.422  1.00 14.42 LIG-0.27  OA
ATOM     29  N   GLY A 389     -24.515 -24.980  16.665  1.00 14.00 LIG-0.35  N 
ATOM     30 H    GLY A 389     -23.810 -25.066  17.150  1.00 14.00 LIG 0.16  HD
BRANCH 29 31
ATOM     31  CA  GLY A 389     -24.252 -24.778  15.240  1.00 13.01 LIG 0.23  C 
BRANCH 31 32
ATOM     32  C   GLY A 389     -24.388 -26.051  14.433  1.00 11.92 LIG 0.24  C 
ATOM     33 O    GLY A 389     -24.929 -26.057  13.301  1.00 12.61 LIG-0.27  OA
ATOM     34  N   ALA A 390     -23.875 -27.135  14.984  1.00 10.53 LIG-0.35  N 
ATOM     35 H    ALA A 390     -23.451 -27.132  15.732  1.00 10.53 LIG 0.16  HD
BRANCH 34 36
ATOM     36  CA  ALA A 390     -23.980 -28.459  14.366  1.00 11.53 LIG 0.17  C 
ATOM     37  CB  ALA A 390     -23.426 -29.502  15.312  1.00 11.91 LIG 0.04  C 
BRANCH 36 38
ATOM     38  C   ALA A 390     -25.452 -28.783  14.039  1.00 13.11 LIG 0.24  C 
ATOM     39  N   GLU A 391     -25.628 -29.697  13.096  1.00 14.39 LIG-0.34  N 
ATOM     40 H    GLU A 391     -24.980 -30.112  12.711  1.00 14.39 LIG 0.16  HD
ATOM     41 O    ALA A 390     -26.396 -28.192  14.578  1.00 12.73 LIG-0.27  OA
BRANCH 39 42
ATOM     42  CA  GLU A 391     -26.929 -30.082  12.625  1.00 15.60 LIG 0.19  C 
BRANCH 42 43
ATOM     43  CB  GLU A 391     -26.830 -30.477  11.147  1.00 17.03 LIG 0.05  C 
BRANCH 43 44
ATOM     44  CG  GLU A 391     -27.204 -29.402  10.165  1.00 23.68 LIG 0.12  C 
BRANCH 44 45
ATOM     45  CD  GLU A 391     -26.712 -29.754   8.762  1.00 29.63 LIG 0.17  C 
ATOM     46 OE1  GLU A 391     -27.006 -28.959   7.820  1.00 31.73 LIG-0.65  OA
ATOM     47 OE2  GLU A 391     -26.093 -30.844   8.614  1.00 33.20 LIG-0.65  OA
ENDBRANCH 44 45
ENDBRANCH 43 44
ENDBRANCH 42 43
BRANCH 42 48
ATOM     48  C   GLU A 391     -27.387 -31.265  13.471  1.00 14.85 LIG 0.20  C 
ATOM     49 OXT  GLU A 391     -27.208 -31.253  14.681  1.00 14.73 LIG-0.65  OA
ATOM     50 O    GLU A 391     -27.919 -32.241  12.941  1.00 14.85 LIG-0.65  OA
ENDBRANCH 42 48
ENDBRANCH 39 42
ENDBRANCH 36 38
ENDBRANCH 34 36
ENDBRANCH 31 32
ENDBRANCH 29 31
ENDBRANCH 1 27
TORSDOF 20
ENDMDL
MODEL 28
USER: ADFR SOLUTION from run 74
USER: SCORE 17.069991 LL:  -3.182 LR: -14.636 RR:   0.000 FEB:  -8.670
USER: RMSD 9.704199
USER: SEED 73
USER: STATUS no improvement in best in 12 clusters for 5 generations
USER: GENES 22
USER: genes 0 Translation |==|  0.67727 0.62004 0.52476
USER: genes 1 Rotation |==|  0.78908 0.82557 0.26530 0.57315
USER: genes 2 Torsion [C]-CA--N-[C] |==|  0.80598
USER: genes 3 Torsion [N]-C--CA-[N] |==|  0.01568
USER: genes 4 Torsion [C]-CA--N-[C] |==|  0.21072
USER: genes 5 Torsion [N]-C--CA-[N] |==|  0.99562
USER: genes 6 Torsion [C]-CA--CB-[CG2] |==|  0.17059
USER: genes 7 Torsion [CA]-CB--OG1-[HG1] |==|  0.30777
USER: genes 8 Torsion [C]-CA--CB-[CG] |==|  0.53729
USER: genes 9 Torsion [CA]-CB--CG-[OD2] |==|  0.22287
USER: genes 10 Torsion [N]-CA--CB-[CG] |==|  0.10743
USER: genes 11 Torsion [CA]-CB--CG-[ND1] |==|  0.82655
USER: genes 12 Torsion [N]-CA--C-[N] |==|  0.96119
USER: genes 13 Torsion [C]-N--CA-[C] |==|  0.17550
USER: genes 14 Torsion [N]-CA--C-[N] |==|  0.53194
USER: genes 15 Torsion [C]-N--CA-[CB] |==|  0.87222
USER: genes 16 Torsion [N]-CA--C-[N] |==|  0.90424
USER: genes 17 Torsion [C]-N--CA-[CB] |==|  0.19093
USER: genes 18 Torsion [N]-CA--CB-[CG] |==|  0.62552
USER: genes 19 Torsion [CA]-CB--CG-[CD] |==|  0.58299
USER: genes 20 Torsion [CB]-CG--CD-[OE1] |==|  0.73840
USER: genes 21 Torsion [N]-CA--C-[OXT] |==|  0.41743
ROOT
ATOM      1  CA  HIS A 388     -25.247 -25.426  15.688  1.00 17.64 LIG 0.18  C 
ENDROOT
BRANCH 1 2
ATOM      2  N   HIS A 388     -25.804 -26.086  16.869  1.00 19.60 LIG-0.35  N 
ATOM      3 H    HIS A 388     -25.411 -26.822  17.079  1.00 19.60 LIG 0.16  HD
ATOM      4  C   ASP A 387     -26.833 -25.578  17.549  1.00 22.66 LIG 0.24  C 
ATOM      5 O    ASP A 387     -27.372 -24.509  17.246  1.00 22.02 LIG-0.27  OA
BRANCH 4 6
ATOM      6  CA  ASP A 387     -27.316 -26.371  18.760  1.00 25.57 LIG 0.19  C 
BRANCH 6 7
ATOM      7  N   ASP A 387     -26.362 -27.487  18.925  1.00 28.40 LIG-0.34  N 
ATOM      8 H    ASP A 387     -26.663 -28.248  18.662  1.00 28.40 LIG 0.16  HD
ATOM      9  C   THR A 386     -25.137 -27.308  19.444  1.00 31.30 LIG 0.26  C 
ATOM     10 O    THR A 386     -24.558 -26.204  19.440  1.00 31.60 LIG-0.27  OA
BRANCH 9 11
ATOM     11  CA  THR A 386     -24.410 -28.547  20.025  1.00 33.11 LIG 0.43  C 
ATOM     12  N   THR A 386     -25.209 -29.807  19.960  1.00 33.83 LIG 0.62  N 
BRANCH 11 13
ATOM     13  CB  THR A 386     -23.007 -28.736  19.378  1.00 33.77 LIG 0.16  C 
ATOM     14  CG2 THR A 386     -22.085 -27.541  19.644  1.00 34.60 LIG 0.04  C 
BRANCH 13 15
ATOM     15 OG1  THR A 386     -22.330 -29.858  19.966  1.00 35.18 LIG-0.39  OA
ATOM     16 HG1  THR A 386     -22.272 -30.478  19.401  1.00 35.18 LIG 0.21  HD
ENDBRANCH 13 15
ENDBRANCH 11 13
ENDBRANCH 9 11
ENDBRANCH 6 7
BRANCH 6 17
ATOM     17  CB  ASP A 387     -27.371 -25.454  20.013  1.00 25.68 LIG 0.15  C 
BRANCH 17 18
ATOM     18  CG  ASP A 387     -27.529 -26.238  21.334  1.00 25.80 LIG 0.17  C 
ATOM     19 OD2  ASP A 387     -26.560 -26.791  21.904  1.00 26.75 LIG-0.65  OA
ATOM     20 OD1  ASP A 387     -28.651 -26.348  21.900  1.00 21.65 LIG-0.65  OA
ENDBRANCH 17 18
ENDBRANCH 6 17
ENDBRANCH 4 6
ENDBRANCH 1 2
BRANCH 1 21
ATOM     21  CB  HIS A 388     -23.903 -26.056  15.223  1.00 17.51 LIG 0.10  C 
BRANCH 21 22
ATOM     22  CG  HIS A 388     -23.829 -27.561  15.328  1.00 19.36 LIG 0.06  A 
ATOM     23 ND1  HIS A 388     -23.920 -28.239  16.521  1.00 21.21 LIG-0.24  NA
ATOM     24  CE1 HIS A 388     -23.836 -29.539  16.300  1.00 22.16 LIG 0.23  A 
ATOM     25 NE2  HIS A 388     -23.665 -29.732  15.005  1.00 21.69 LIG-0.25  NA
ATOM     26  CD2 HIS A 388     -23.650 -28.510  14.376  1.00 21.19 LIG 0.14  A 
ENDBRANCH 21 22
ENDBRANCH 1 21
BRANCH 1 27
ATOM     27  C   HIS A 388     -26.252 -25.518  14.531  1.00 15.45 LIG 0.24  C 
ATOM     28 O    HIS A 388     -26.102 -24.809  13.549  1.00 14.42 LIG-0.27  OA
ATOM     29  N   GLY A 389     -27.276 -26.372  14.643  1.00 14.00 LIG-0.35  N 
ATOM     30 H    GLY A 389     -27.396 -26.898  15.313  1.00 14.00 LIG 0.16  HD
BRANCH 29 31
ATOM     31  CA  GLY A 389     -28.298 -26.473  13.601  1.00 13.01 LIG 0.23  C 
BRANCH 31 32
ATOM     32  C   GLY A 389     -27.740 -26.950  12.278  1.00 11.92 LIG 0.24  C 
ATOM     33 O    GLY A 389     -26.590 -27.446  12.188  1.00 12.61 LIG-0.27  OA
ATOM     34  N   ALA A 390     -28.550 -26.838  11.242  1.00 10.53 LIG-0.35  N 
ATOM     35 H    ALA A 390     -29.360 -26.554  11.301  1.00 10.53 LIG 0.16  HD
BRANCH 34 36
ATOM     36  CA  ALA A 390     -28.142 -27.192   9.880  1.00 11.53 LIG 0.17  C 
ATOM     37  CB  ALA A 390     -26.777 -26.604   9.595  1.00 11.91 LIG 0.04  C 
BRANCH 36 38
ATOM     38  C   ALA A 390     -28.093 -28.724   9.716  1.00 13.11 LIG 0.24  C 
ATOM     39  N   GLU A 391     -27.706 -29.391  10.794  1.00 14.39 LIG-0.34  N 
ATOM     40 H    GLU A 391     -27.526 -29.014  11.546  1.00 14.39 LIG 0.16  HD
ATOM     41 O    ALA A 390     -28.341 -29.284   8.640  1.00 12.73 LIG-0.27  OA
BRANCH 39 42
ATOM     42  CA  GLU A 391     -27.548 -30.819  10.805  1.00 15.60 LIG 0.19  C 
BRANCH 42 43
ATOM     43  CB  GLU A 391     -26.349 -31.197   9.928  1.00 17.03 LIG 0.05  C 
BRANCH 43 44
ATOM     44  CG  GLU A 391     -26.574 -32.351   8.991  1.00 23.68 LIG 0.12  C 
BRANCH 44 45
ATOM     45  CD  GLU A 391     -25.270 -33.105   8.737  1.00 29.63 LIG 0.17  C 
ATOM     46 OE1  GLU A 391     -24.592 -32.779   7.716  1.00 31.73 LIG-0.65  OA
ATOM     47 OE2  GLU A 391     -24.973 -34.046   9.524  1.00 33.20 LIG-0.65  OA
ENDBRANCH 44 45
ENDBRANCH 43 44
ENDBRANCH 42 43
BRANCH 42 48
ATOM     48  C   GLU A 391     -27.312 -31.239  12.253  1.00 14.85 LIG 0.20  C 
ATOM     49 OXT  GLU A 391     -27.675 -32.343  12.632  1.00 14.73 LIG-0.65  OA
ATOM     50 O    GLU A 391     -26.774 -30.465  13.046  1.00 14.85 LIG-0.65  OA
ENDBRANCH 42 48
ENDBRANCH 39 42
ENDBRANCH 36 38
ENDBRANCH 34 36
ENDBRANCH 31 32
ENDBRANCH 29 31
ENDBRANCH 1 27
TORSDOF 20
ENDMDL
MODEL 29
USER: ADFR SOLUTION from run 65
USER: SCORE 16.315267 LL:  -3.053 LR: -14.631 RR:   0.000 FEB:  -8.665
USER: RMSD 3.569347
USER: SEED 64
USER: STATUS no improvement in best in 4 clusters for 5 generations
USER: GENES 22
USER: genes 0 Translation |==|  0.59672 0.46832 0.40237
USER: genes 1 Rotation |==|  0.68021 0.43630 0.55845 0.95831
USER: genes 2 Torsion [C]-CA--N-[C] |==|  0.67144
USER: genes 3 Torsion [N]-C--CA-[N] |==|  0.42973
USER: genes 4 Torsion [C]-CA--N-[C] |==|  0.81513
USER: genes 5 Torsion [N]-C--CA-[N] |==|  0.64575
USER: genes 6 Torsion [C]-CA--CB-[CG2] |==|  0.20323
USER: genes 7 Torsion [CA]-CB--OG1-[HG1] |==|  0.88396
USER: genes 8 Torsion [C]-CA--CB-[CG] |==|  0.78203
USER: genes 9 Torsion [CA]-CB--CG-[OD2] |==|  0.32158
USER: genes 10 Torsion [N]-CA--CB-[CG] |==|  0.50736
USER: genes 11 Torsion [CA]-CB--CG-[ND1] |==|  0.07348
USER: genes 12 Torsion [N]-CA--C-[N] |==|  0.43133
USER: genes 13 Torsion [C]-N--CA-[C] |==|  0.75744
USER: genes 14 Torsion [N]-CA--C-[N] |==|  0.67654
USER: genes 15 Torsion [C]-N--CA-[CB] |==|  0.48965
USER: genes 16 Torsion [N]-CA--C-[N] |==|  0.32300
USER: genes 17 Torsion [C]-N--CA-[CB] |==|  0.36952
USER: genes 18 Torsion [N]-CA--CB-[CG] |==|  0.32469
USER: genes 19 Torsion [CA]-CB--CG-[CD] |==|  0.32475
USER: genes 20 Torsion [CB]-CG--CD-[OE1] |==|  0.98956
USER: genes 21 Torsion [N]-CA--C-[OXT] |==|  0.50249
ROOT
ATOM      1  CA  HIS A 388     -26.818 -28.043  13.025  1.00 17.64 LIG 0.18  C 
ENDROOT
BRANCH 1 2
ATOM      2  N   HIS A 388     -27.589 -28.924  12.147  1.00 19.60 LIG-0.35  N 
ATOM      3 H    HIS A 388     -28.072 -29.501  12.563  1.00 19.60 LIG 0.16  HD
ATOM      4  C   ASP A 387     -27.536 -28.825  10.817  1.00 22.66 LIG 0.24  C 
ATOM      5 O    ASP A 387     -26.853 -27.976  10.236  1.00 22.02 LIG-0.27  OA
BRANCH 4 6
ATOM      6  CA  ASP A 387     -28.388 -29.809  10.021  1.00 25.57 LIG 0.19  C 
BRANCH 6 7
ATOM      7  N   ASP A 387     -28.660 -29.157   8.723  1.00 28.40 LIG-0.34  N 
ATOM      8 H    ASP A 387     -28.293 -29.546   8.050  1.00 28.40 LIG 0.16  HD
ATOM      9  C   THR A 386     -29.417 -28.053   8.624  1.00 31.30 LIG 0.26  C 
ATOM     10 O    THR A 386     -30.260 -27.734   9.486  1.00 31.60 LIG-0.27  OA
BRANCH 9 11
ATOM     11  CA  THR A 386     -29.257 -27.177   7.355  1.00 33.11 LIG 0.43  C 
ATOM     12  N   THR A 386     -28.997 -25.734   7.642  1.00 33.83 LIG 0.62  N 
BRANCH 11 13
ATOM     13  CB  THR A 386     -28.182 -27.763   6.394  1.00 33.77 LIG 0.16  C 
ATOM     14  CG2 THR A 386     -28.679 -29.021   5.674  1.00 34.60 LIG 0.04  C 
BRANCH 13 15
ATOM     15 OG1  THR A 386     -27.889 -26.832   5.341  1.00 35.18 LIG-0.39  OA
ATOM     16 HG1  THR A 386     -28.604 -26.484   5.068  1.00 35.18 LIG 0.21  HD
ENDBRANCH 13 15
ENDBRANCH 11 13
ENDBRANCH 9 11
ENDBRANCH 6 7
BRANCH 6 17
ATOM     17  CB  ASP A 387     -27.635 -31.158   9.855  1.00 25.68 LIG 0.15  C 
BRANCH 17 18
ATOM     18  CG  ASP A 387     -26.551 -31.119   8.756  1.00 25.80 LIG 0.17  C 
ATOM     19 OD2  ASP A 387     -25.333 -31.262   9.011  1.00 26.75 LIG-0.65  OA
ATOM     20 OD1  ASP A 387     -26.854 -30.945   7.543  1.00 21.65 LIG-0.65  OA
ENDBRANCH 17 18
ENDBRANCH 6 17
ENDBRANCH 4 6
ENDBRANCH 1 2
BRANCH 1 21
ATOM     21  CB  HIS A 388     -27.716 -27.226  13.998  1.00 17.51 LIG 0.10  C 
BRANCH 21 22
ATOM     22  CG  HIS A 388     -26.979 -26.253  14.887  1.00 19.36 LIG 0.06  A 
ATOM     23 ND1  HIS A 388     -25.771 -25.688  14.549  1.00 21.21 LIG-0.24  NA
ATOM     24  CE1 HIS A 388     -25.380 -24.871  15.512  1.00 22.16 LIG 0.23  A 
ATOM     25 NE2  HIS A 388     -26.277 -24.905  16.479  1.00 21.69 LIG-0.25  NA
ATOM     26  CD2 HIS A 388     -27.284 -25.767  16.116  1.00 21.19 LIG 0.14  A 
ENDBRANCH 21 22
ENDBRANCH 1 21
BRANCH 1 27
ATOM     27  C   HIS A 388     -25.839 -28.883  13.858  1.00 15.45 LIG 0.24  C 
ATOM     28 O    HIS A 388     -26.093 -30.056  14.079  1.00 14.42 LIG-0.27  OA
ATOM     29  N   GLY A 389     -24.734 -28.292  14.329  1.00 14.00 LIG-0.35  N 
ATOM     30 H    GLY A 389     -24.520 -27.474  14.172  1.00 14.00 LIG 0.16  HD
BRANCH 29 31
ATOM     31  CA  GLY A 389     -23.785 -29.020  15.171  1.00 13.01 LIG 0.23  C 
BRANCH 31 32
ATOM     32  C   GLY A 389     -24.142 -28.962  16.641  1.00 11.92 LIG 0.24  C 
ATOM     33 O    GLY A 389     -25.189 -29.493  17.085  1.00 12.61 LIG-0.27  OA
ATOM     34  N   ALA A 390     -23.268 -28.350  17.418  1.00 10.53 LIG-0.35  N 
ATOM     35 H    ALA A 390     -22.521 -28.034  17.134  1.00 10.53 LIG 0.16  HD
BRANCH 34 36
ATOM     36  CA  ALA A 390     -23.493 -28.150  18.852  1.00 11.53 LIG 0.17  C 
ATOM     37  CB  ALA A 390     -22.271 -27.503  19.467  1.00 11.91 LIG 0.04  C 
BRANCH 36 38
ATOM     38  C   ALA A 390     -24.726 -27.254  19.082  1.00 13.11 LIG 0.24  C 
ATOM     39  N   GLU A 391     -25.733 -27.839  19.714  1.00 14.39 LIG-0.34  N 
ATOM     40 H    GLU A 391     -25.702 -28.645  20.011  1.00 14.39 LIG 0.16  HD
ATOM     41 O    ALA A 390     -24.791 -26.093  18.657  1.00 12.73 LIG-0.27  OA
BRANCH 39 42
ATOM     42  CA  GLU A 391     -26.981 -27.173  19.964  1.00 15.60 LIG 0.19  C 
BRANCH 42 43
ATOM     43  CB  GLU A 391     -28.133 -28.106  19.577  1.00 17.03 LIG 0.05  C 
BRANCH 43 44
ATOM     44  CG  GLU A 391     -29.038 -28.518  20.705  1.00 23.68 LIG 0.12  C 
BRANCH 44 45
ATOM     45  CD  GLU A 391     -30.459 -28.008  20.474  1.00 29.63 LIG 0.17  C 
ATOM     46 OE1  GLU A 391     -30.664 -27.280  19.457  1.00 31.73 LIG-0.65  OA
ATOM     47 OE2  GLU A 391     -31.332 -28.292  21.340  1.00 33.20 LIG-0.65  OA
ENDBRANCH 44 45
ENDBRANCH 43 44
ENDBRANCH 42 43
BRANCH 42 48
ATOM     48  C   GLU A 391     -27.030 -26.843  21.453  1.00 14.85 LIG 0.20  C 
ATOM     49 OXT  GLU A 391     -28.013 -26.283  21.919  1.00 14.73 LIG-0.65  OA
ATOM     50 O    GLU A 391     -26.079 -27.122  22.184  1.00 14.85 LIG-0.65  OA
ENDBRANCH 42 48
ENDBRANCH 39 42
ENDBRANCH 36 38
ENDBRANCH 34 36
ENDBRANCH 31 32
ENDBRANCH 29 31
ENDBRANCH 1 27
TORSDOF 20
ENDMDL
MODEL 30
USER: ADFR SOLUTION from run 141
USER: SCORE 16.679367 LL:  -3.326 LR: -14.608 RR:   0.000 FEB:  -8.642
USER: RMSD 8.850523
USER: SEED 140
USER: STATUS no improvement in best in 9 clusters for 5 generations
USER: GENES 22
USER: genes 0 Translation |==|  0.62896 0.62037 0.61440
USER: genes 1 Rotation |==|  0.73973 0.91825 0.38207 0.56075
USER: genes 2 Torsion [C]-CA--N-[C] |==|  0.82631
USER: genes 3 Torsion [N]-C--CA-[N] |==|  0.99755
USER: genes 4 Torsion [C]-CA--N-[C] |==|  0.68755
USER: genes 5 Torsion [N]-C--CA-[N] |==|  0.28921
USER: genes 6 Torsion [C]-CA--CB-[CG2] |==|  0.09379
USER: genes 7 Torsion [CA]-CB--OG1-[HG1] |==|  0.18074
USER: genes 8 Torsion [C]-CA--CB-[CG] |==|  0.88765
USER: genes 9 Torsion [CA]-CB--CG-[OD2] |==|  0.78869
USER: genes 10 Torsion [N]-CA--CB-[CG] |==|  0.23831
USER: genes 11 Torsion [CA]-CB--CG-[ND1] |==|  0.76017
USER: genes 12 Torsion [N]-CA--C-[N] |==|  0.95456
USER: genes 13 Torsion [C]-N--CA-[C] |==|  0.28215
USER: genes 14 Torsion [N]-CA--C-[N] |==|  0.53036
USER: genes 15 Torsion [C]-N--CA-[CB] |==|  0.83479
USER: genes 16 Torsion [N]-CA--C-[N] |==|  0.08050
USER: genes 17 Torsion [C]-N--CA-[CB] |==|  0.89688
USER: genes 18 Torsion [N]-CA--CB-[CG] |==|  0.31844
USER: genes 19 Torsion [CA]-CB--CG-[CD] |==|  0.57411
USER: genes 20 Torsion [CB]-CG--CD-[OE1] |==|  0.49980
USER: genes 21 Torsion [N]-CA--C-[OXT] |==|  0.92665
ROOT
ATOM      1  CA  HIS A 388     -26.189 -25.421  17.637  1.00 17.64 LIG 0.18  C 
ENDROOT
BRANCH 1 2
ATOM      2  N   HIS A 388     -26.437 -26.706  18.291  1.00 19.60 LIG-0.35  N 
ATOM      3 H    HIS A 388     -25.753 -27.228  18.312  1.00 19.60 LIG 0.16  HD
ATOM      4  C   ASP A 387     -27.626 -27.026  18.804  1.00 22.66 LIG 0.24  C 
ATOM      5 O    ASP A 387     -28.592 -26.257  18.784  1.00 22.02 LIG-0.27  OA
BRANCH 4 6
ATOM      6  CA  ASP A 387     -27.747 -28.401  19.454  1.00 25.57 LIG 0.19  C 
BRANCH 6 7
ATOM      7  N   ASP A 387     -26.425 -29.043  19.304  1.00 28.40 LIG-0.34  N 
ATOM      8 H    ASP A 387     -25.799 -28.670  19.760  1.00 28.40 LIG 0.16  HD
ATOM      9  C   THR A 386     -26.238 -30.114  18.517  1.00 31.30 LIG 0.26  C 
ATOM     10 O    THR A 386     -27.164 -30.885  18.197  1.00 31.60 LIG-0.27  OA
BRANCH 9 11
ATOM     11  CA  THR A 386     -24.795 -30.416  18.037  1.00 33.11 LIG 0.43  C 
ATOM     12  N   THR A 386     -24.142 -31.552  18.755  1.00 33.83 LIG 0.62  N 
BRANCH 11 13
ATOM     13  CB  THR A 386     -24.741 -30.618  16.495  1.00 33.77 LIG 0.16  C 
ATOM     14  CG2 THR A 386     -25.755 -29.732  15.764  1.00 34.60 LIG 0.04  C 
BRANCH 13 15
ATOM     15 OG1  THR A 386     -23.463 -30.212  15.981  1.00 35.18 LIG-0.39  OA
ATOM     16 HG1  THR A 386     -22.865 -30.718  16.285  1.00 35.18 LIG 0.21  HD
ENDBRANCH 13 15
ENDBRANCH 11 13
ENDBRANCH 9 11
ENDBRANCH 6 7
BRANCH 6 17
ATOM     17  CB  ASP A 387     -28.163 -28.253  20.944  1.00 25.68 LIG 0.15  C 
BRANCH 17 18
ATOM     18  CG  ASP A 387     -27.454 -27.084  21.661  1.00 25.80 LIG 0.17  C 
ATOM     19 OD2  ASP A 387     -26.259 -27.152  22.032  1.00 26.75 LIG-0.65  OA
ATOM     20 OD1  ASP A 387     -28.055 -26.000  21.899  1.00 21.65 LIG-0.65  OA
ENDBRANCH 17 18
ENDBRANCH 6 17
ENDBRANCH 4 6
ENDBRANCH 1 2
BRANCH 1 21
ATOM     21  CB  HIS A 388     -24.709 -25.246  17.193  1.00 17.51 LIG 0.10  C 
BRANCH 21 22
ATOM     22  CG  HIS A 388     -24.372 -25.821  15.838  1.00 19.36 LIG 0.06  A 
ATOM     23 ND1  HIS A 388     -24.008 -27.134  15.646  1.00 21.21 LIG-0.24  NA
ATOM     24  CE1 HIS A 388     -23.789 -27.349  14.361  1.00 22.16 LIG 0.23  A 
ATOM     25 NE2  HIS A 388     -23.970 -26.215  13.710  1.00 21.69 LIG-0.25  NA
ATOM     26  CD2 HIS A 388     -24.330 -25.243  14.613  1.00 21.19 LIG 0.14  A 
ENDBRANCH 21 22
ENDBRANCH 1 21
BRANCH 1 27
ATOM     27  C   HIS A 388     -27.086 -25.298  16.397  1.00 15.45 LIG 0.24  C 
ATOM     28 O    HIS A 388     -27.266 -24.201  15.894  1.00 14.42 LIG-0.27  OA
ATOM     29  N   GLY A 389     -27.656 -26.407  15.911  1.00 14.00 LIG-0.35  N 
ATOM     30 H    GLY A 389     -27.531 -27.195  16.232  1.00 14.00 LIG 0.16  HD
BRANCH 29 31
ATOM     31  CA  GLY A 389     -28.562 -26.354  14.764  1.00 13.01 LIG 0.23  C 
BRANCH 31 32
ATOM     32  C   GLY A 389     -27.898 -26.785  13.474  1.00 11.92 LIG 0.24  C 
ATOM     33 O    GLY A 389     -26.781 -27.357  13.467  1.00 12.61 LIG-0.27  OA
ATOM     34  N   ALA A 390     -28.585 -26.549  12.371  1.00 10.53 LIG-0.35  N 
ATOM     35 H    ALA A 390     -29.376 -26.212  12.368  1.00 10.53 LIG 0.16  HD
BRANCH 34 36
ATOM     36  CA  ALA A 390     -28.059 -26.845  11.036  1.00 11.53 LIG 0.17  C 
ATOM     37  CB  ALA A 390     -26.781 -26.065  10.814  1.00 11.91 LIG 0.04  C 
BRANCH 36 38
ATOM     38  C   ALA A 390     -27.777 -28.354  10.893  1.00 13.11 LIG 0.24  C 
ATOM     39  N   GLU A 391     -28.548 -29.140  11.630  1.00 14.39 LIG-0.34  N 
ATOM     40 H    GLU A 391     -29.184 -28.848  12.129  1.00 14.39 LIG 0.16  HD
ATOM     41 O    ALA A 390     -26.861 -28.793  10.185  1.00 12.73 LIG-0.27  OA
BRANCH 39 42
ATOM     42  CA  GLU A 391     -28.389 -30.568  11.664  1.00 15.60 LIG 0.19  C 
BRANCH 42 43
ATOM     43  CB  GLU A 391     -28.013 -31.063  10.263  1.00 17.03 LIG 0.05  C 
BRANCH 43 44
ATOM     44  CG  GLU A 391     -26.640 -31.664  10.138  1.00 23.68 LIG 0.12  C 
BRANCH 44 45
ATOM     45  CD  GLU A 391     -26.112 -31.517   8.712  1.00 29.63 LIG 0.17  C 
ATOM     46 OE1  GLU A 391     -24.959 -31.980   8.462  1.00 31.73 LIG-0.65  OA
ATOM     47 OE2  GLU A 391     -26.829 -30.892   7.883  1.00 33.20 LIG-0.65  OA
ENDBRANCH 44 45
ENDBRANCH 43 44
ENDBRANCH 42 43
BRANCH 42 48
ATOM     48  C   GLU A 391     -27.278 -30.877  12.663  1.00 14.85 LIG 0.20  C 
ATOM     49 OXT  GLU A 391     -26.410 -30.044  12.884  1.00 14.73 LIG-0.65  OA
ATOM     50 O    GLU A 391     -27.239 -31.968  13.233  1.00 14.85 LIG-0.65  OA
ENDBRANCH 42 48
ENDBRANCH 39 42
ENDBRANCH 36 38
ENDBRANCH 34 36
ENDBRANCH 31 32
ENDBRANCH 29 31
ENDBRANCH 1 27
TORSDOF 20
ENDMDL
MODEL 31
USER: ADFR SOLUTION from run 158
USER: SCORE 16.301046 LL:  -4.549 LR: -14.575 RR:   0.000 FEB:  -8.609
USER: RMSD 7.730356
USER: SEED 157
USER: STATUS no improvement in best in 4 clusters for 5 generations
USER: GENES 22
USER: genes 0 Translation |==|  0.71880 0.62972 0.57895
USER: genes 1 Rotation |==|  0.38007 0.09706 0.63866 0.73245
USER: genes 2 Torsion [C]-CA--N-[C] |==|  0.76393
USER: genes 3 Torsion [N]-C--CA-[N] |==|  0.54548
USER: genes 4 Torsion [C]-CA--N-[C] |==|  0.19042
USER: genes 5 Torsion [N]-C--CA-[N] |==|  0.65571
USER: genes 6 Torsion [C]-CA--CB-[CG2] |==|  0.47926
USER: genes 7 Torsion [CA]-CB--OG1-[HG1] |==|  0.31470
USER: genes 8 Torsion [C]-CA--CB-[CG] |==|  0.25647
USER: genes 9 Torsion [CA]-CB--CG-[OD2] |==|  0.61667
USER: genes 10 Torsion [N]-CA--CB-[CG] |==|  0.12279
USER: genes 11 Torsion [CA]-CB--CG-[ND1] |==|  0.25504
USER: genes 12 Torsion [N]-CA--C-[N] |==|  0.18368
USER: genes 13 Torsion [C]-N--CA-[C] |==|  0.22925
USER: genes 14 Torsion [N]-CA--C-[N] |==|  0.02073
USER: genes 15 Torsion [C]-N--CA-[CB] |==|  0.45507
USER: genes 16 Torsion [N]-CA--C-[N] |==|  0.17087
USER: genes 17 Torsion [C]-N--CA-[CB] |==|  0.28355
USER: genes 18 Torsion [N]-CA--CB-[CG] |==|  0.88343
USER: genes 19 Torsion [CA]-CB--CG-[CD] |==|  0.32403
USER: genes 20 Torsion [CB]-CG--CD-[OE1] |==|  0.94467
USER: genes 21 Torsion [N]-CA--C-[OXT] |==|  0.65606
ROOT
ATOM      1  CA  HIS A 388     -24.437 -25.259  16.866  1.00 17.64 LIG 0.18  C 
ENDROOT
BRANCH 1 2
ATOM      2  N   HIS A 388     -24.145 -26.690  16.773  1.00 19.60 LIG-0.35  N 
ATOM      3 H    HIS A 388     -24.265 -27.023  15.989  1.00 19.60 LIG 0.16  HD
ATOM      4  C   ASP A 387     -23.729 -27.401  17.823  1.00 22.66 LIG 0.24  C 
ATOM      5 O    ASP A 387     -23.541 -26.902  18.936  1.00 22.02 LIG-0.27  OA
BRANCH 4 6
ATOM      6  CA  ASP A 387     -23.464 -28.885  17.586  1.00 25.57 LIG 0.19  C 
BRANCH 6 7
ATOM      7  N   ASP A 387     -23.417 -29.510  18.924  1.00 28.40 LIG-0.34  N 
ATOM      8 H    ASP A 387     -22.638 -29.791  19.153  1.00 28.40 LIG 0.16  HD
ATOM      9  C   THR A 386     -24.507 -29.621  19.699  1.00 31.30 LIG 0.26  C 
ATOM     10 O    THR A 386     -25.503 -28.882  19.570  1.00 31.60 LIG-0.27  OA
BRANCH 9 11
ATOM     11  CA  THR A 386     -24.489 -30.686  20.825  1.00 33.11 LIG 0.43  C 
ATOM     12  N   THR A 386     -25.618 -31.662  20.756  1.00 33.83 LIG 0.62  N 
BRANCH 11 13
ATOM     13  CB  THR A 386     -23.116 -31.416  20.894  1.00 33.77 LIG 0.16  C 
ATOM     14  CG2 THR A 386     -23.016 -32.339  22.112  1.00 34.60 LIG 0.04  C 
BRANCH 13 15
ATOM     15 OG1  THR A 386     -22.952 -32.284  19.762  1.00 35.18 LIG-0.39  OA
ATOM     16 HG1  THR A 386     -22.331 -31.996  19.275  1.00 35.18 LIG 0.21  HD
ENDBRANCH 13 15
ENDBRANCH 11 13
ENDBRANCH 9 11
ENDBRANCH 6 7
BRANCH 6 17
ATOM     17  CB  ASP A 387     -24.580 -29.492  16.692  1.00 25.68 LIG 0.15  C 
BRANCH 17 18
ATOM     18  CG  ASP A 387     -24.237 -29.462  15.187  1.00 25.80 LIG 0.17  C 
ATOM     19 OD2  ASP A 387     -25.080 -29.153  14.314  1.00 26.75 LIG-0.65  OA
ATOM     20 OD1  ASP A 387     -23.079 -29.747  14.773  1.00 21.65 LIG-0.65  OA
ENDBRANCH 17 18
ENDBRANCH 6 17
ENDBRANCH 4 6
ENDBRANCH 1 2
BRANCH 1 21
ATOM     21  CB  HIS A 388     -24.279 -24.522  15.506  1.00 17.51 LIG 0.10  C 
BRANCH 21 22
ATOM     22  CG  HIS A 388     -24.874 -25.236  14.315  1.00 19.36 LIG 0.06  A 
ATOM     23 ND1  HIS A 388     -26.160 -25.025  13.875  1.00 21.21 LIG-0.24  NA
ATOM     24  CE1 HIS A 388     -26.393 -25.775  12.813  1.00 22.16 LIG 0.23  A 
ATOM     25 NE2  HIS A 388     -25.313 -26.490  12.561  1.00 21.69 LIG-0.25  NA
ATOM     26  CD2 HIS A 388     -24.350 -26.175  13.490  1.00 21.19 LIG 0.14  A 
ENDBRANCH 21 22
ENDBRANCH 1 21
BRANCH 1 27
ATOM     27  C   HIS A 388     -25.878 -25.064  17.359  1.00 15.45 LIG 0.24  C 
ATOM     28 O    HIS A 388     -26.702 -24.555  16.617  1.00 14.42 LIG-0.27  OA
ATOM     29  N   GLY A 389     -26.183 -25.450  18.604  1.00 14.00 LIG-0.35  N 
ATOM     30 H    GLY A 389     -25.628 -25.830  19.142  1.00 14.00 LIG 0.16  HD
BRANCH 29 31
ATOM     31  CA  GLY A 389     -27.522 -25.247  19.155  1.00 13.01 LIG 0.23  C 
BRANCH 31 32
ATOM     32  C   GLY A 389     -28.496 -26.328  18.741  1.00 11.92 LIG 0.24  C 
ATOM     33 O    GLY A 389     -29.725 -26.233  18.978  1.00 12.61 LIG-0.27  OA
ATOM     34  N   ALA A 390     -27.973 -27.351  18.091  1.00 10.53 LIG-0.35  N 
ATOM     35 H    ALA A 390     -27.143 -27.400  17.873  1.00 10.53 LIG 0.16  HD
BRANCH 34 36
ATOM     36  CA  ALA A 390     -28.766 -28.512  17.678  1.00 11.53 LIG 0.17  C 
ATOM     37  CB  ALA A 390     -28.001 -29.300  16.636  1.00 11.91 LIG 0.04  C 
BRANCH 36 38
ATOM     38  C   ALA A 390     -29.070 -29.414  18.891  1.00 13.11 LIG 0.24  C 
ATOM     39  N   GLU A 391     -29.780 -28.839  19.851  1.00 14.39 LIG-0.34  N 
ATOM     40 H    GLU A 391     -30.084 -28.037  19.801  1.00 14.39 LIG 0.16  HD
ATOM     41 O    ALA A 390     -28.635 -30.568  18.984  1.00 12.73 LIG-0.27  OA
BRANCH 39 42
ATOM     42  CA  GLU A 391     -30.108 -29.512  21.078  1.00 15.60 LIG 0.19  C 
BRANCH 42 43
ATOM     43  CB  GLU A 391     -29.178 -29.010  22.188  1.00 17.03 LIG 0.05  C 
BRANCH 43 44
ATOM     44  CG  GLU A 391     -27.737 -28.841  21.795  1.00 23.68 LIG 0.12  C 
BRANCH 44 45
ATOM     45  CD  GLU A 391     -27.315 -27.376  21.900  1.00 29.63 LIG 0.17  C 
ATOM     46 OE1  GLU A 391     -28.230 -26.499  21.899  1.00 31.73 LIG-0.65  OA
ATOM     47 OE2  GLU A 391     -26.079 -27.122  21.921  1.00 33.20 LIG-0.65  OA
ENDBRANCH 44 45
ENDBRANCH 43 44
ENDBRANCH 42 43
BRANCH 42 48
ATOM     48  C   GLU A 391     -31.562 -29.183  21.401  1.00 14.85 LIG 0.20  C 
ATOM     49 OXT  GLU A 391     -31.846 -28.675  22.477  1.00 14.73 LIG-0.65  OA
ATOM     50 O    GLU A 391     -32.454 -29.444  20.593  1.00 14.85 LIG-0.65  OA
ENDBRANCH 42 48
ENDBRANCH 39 42
ENDBRANCH 36 38
ENDBRANCH 34 36
ENDBRANCH 31 32
ENDBRANCH 29 31
ENDBRANCH 1 27
TORSDOF 20
ENDMDL
MODEL 32
USER: ADFR SOLUTION from run 161
USER: SCORE 15.329542 LL:  -2.324 LR: -14.555 RR:   0.000 FEB:  -8.589
USER: RMSD 9.765284
USER: SEED 160
USER: STATUS no improvement in best in 8 clusters for 5 generations
USER: GENES 22
USER: genes 0 Translation |==|  0.72012 0.59198 0.58778
USER: genes 1 Rotation |==|  0.04368 0.32876 0.60712 0.46874
USER: genes 2 Torsion [C]-CA--N-[C] |==|  0.63165
USER: genes 3 Torsion [N]-C--CA-[N] |==|  0.94411
USER: genes 4 Torsion [C]-CA--N-[C] |==|  0.62222
USER: genes 5 Torsion [N]-C--CA-[N] |==|  0.10788
USER: genes 6 Torsion [C]-CA--CB-[CG2] |==|  0.83698
USER: genes 7 Torsion [CA]-CB--OG1-[HG1] |==|  0.76856
USER: genes 8 Torsion [C]-CA--CB-[CG] |==|  0.23489
USER: genes 9 Torsion [CA]-CB--CG-[OD2] |==|  0.25088
USER: genes 10 Torsion [N]-CA--CB-[CG] |==|  0.73781
USER: genes 11 Torsion [CA]-CB--CG-[ND1] |==|  0.82574
USER: genes 12 Torsion [N]-CA--C-[N] |==|  0.78178
USER: genes 13 Torsion [C]-N--CA-[C] |==|  0.70441
USER: genes 14 Torsion [N]-CA--C-[N] |==|  0.54164
USER: genes 15 Torsion [C]-N--CA-[CB] |==|  0.17632
USER: genes 16 Torsion [N]-CA--C-[N] |==|  0.08950
USER: genes 17 Torsion [C]-N--CA-[CB] |==|  0.81588
USER: genes 18 Torsion [N]-CA--CB-[CG] |==|  0.63073
USER: genes 19 Torsion [CA]-CB--CG-[CD] |==|  0.31153
USER: genes 20 Torsion [CB]-CG--CD-[OE1] |==|  0.46589
USER: genes 21 Torsion [N]-CA--C-[OXT] |==|  0.14483
ROOT
ATOM      1  CA  HIS A 388     -24.412 -25.910  17.058  1.00 17.64 LIG 0.18  C 
ENDROOT
BRANCH 1 2
ATOM      2  N   HIS A 388     -25.813 -25.885  17.481  1.00 19.60 LIG-0.35  N 
ATOM      3 H    HIS A 388     -26.367 -26.144  16.876  1.00 19.60 LIG 0.16  HD
ATOM      4  C   ASP A 387     -26.180 -25.492  18.701  1.00 22.66 LIG 0.24  C 
ATOM      5 O    ASP A 387     -25.369 -25.144  19.565  1.00 22.02 LIG-0.27  OA
BRANCH 4 6
ATOM      6  CA  ASP A 387     -27.674 -25.512  19.008  1.00 25.57 LIG 0.19  C 
BRANCH 6 7
ATOM      7  N   ASP A 387     -28.362 -25.506  17.701  1.00 28.40 LIG-0.34  N 
ATOM      8 H    ASP A 387     -28.020 -26.041  17.121  1.00 28.40 LIG 0.16  HD
ATOM      9  C   THR A 386     -29.426 -24.725  17.457  1.00 31.30 LIG 0.26  C 
ATOM     10 O    THR A 386     -30.157 -24.281  18.364  1.00 31.60 LIG-0.27  OA
BRANCH 9 11
ATOM     11  CA  THR A 386     -29.772 -24.414  15.979  1.00 33.11 LIG 0.43  C 
ATOM     12  N   THR A 386     -29.582 -25.571  15.054  1.00 33.83 LIG 0.62  N 
BRANCH 11 13
ATOM     13  CB  THR A 386     -31.203 -23.815  15.845  1.00 33.77 LIG 0.16  C 
ATOM     14  CG2 THR A 386     -32.275 -24.759  16.399  1.00 34.60 LIG 0.04  C 
BRANCH 13 15
ATOM     15 OG1  THR A 386     -31.323 -22.622  16.635  1.00 35.18 LIG-0.39  OA
ATOM     16 HG1  THR A 386     -31.497 -22.828  17.431  1.00 35.18 LIG 0.21  HD
ENDBRANCH 13 15
ENDBRANCH 11 13
ENDBRANCH 9 11
ENDBRANCH 6 7
BRANCH 6 17
ATOM     17  CB  ASP A 387     -28.031 -26.765  19.855  1.00 25.68 LIG 0.15  C 
BRANCH 17 18
ATOM     18  CG  ASP A 387     -27.808 -26.561  21.369  1.00 25.80 LIG 0.17  C 
ATOM     19 OD2  ASP A 387     -28.707 -26.128  22.125  1.00 26.75 LIG-0.65  OA
ATOM     20 OD1  ASP A 387     -26.699 -26.831  21.909  1.00 21.65 LIG-0.65  OA
ENDBRANCH 17 18
ENDBRANCH 6 17
ENDBRANCH 4 6
ENDBRANCH 1 2
BRANCH 1 21
ATOM     21  CB  HIS A 388     -23.835 -27.352  16.967  1.00 17.51 LIG 0.10  C 
BRANCH 21 22
ATOM     22  CG  HIS A 388     -23.111 -27.834  18.201  1.00 19.36 LIG 0.06  A 
ATOM     23 ND1  HIS A 388     -21.969 -27.240  18.686  1.00 21.21 LIG-0.24  NA
ATOM     24  CE1 HIS A 388     -21.573 -27.867  19.779  1.00 22.16 LIG 0.23  A 
ATOM     25 NE2  HIS A 388     -22.402 -28.868  20.010  1.00 21.69 LIG-0.25  NA
ATOM     26  CD2 HIS A 388     -23.369 -28.873  19.034  1.00 21.19 LIG 0.14  A 
ENDBRANCH 21 22
ENDBRANCH 1 21
BRANCH 1 27
ATOM     27  C   HIS A 388     -24.282 -25.247  15.680  1.00 15.45 LIG 0.24  C 
ATOM     28 O    HIS A 388     -23.880 -24.098  15.603  1.00 14.42 LIG-0.27  OA
ATOM     29  N   GLY A 389     -24.630 -25.955  14.598  1.00 14.00 LIG-0.35  N 
ATOM     30 H    GLY A 389     -24.897 -26.772  14.620  1.00 14.00 LIG 0.16  HD
BRANCH 29 31
ATOM     31  CA  GLY A 389     -24.580 -25.367  13.259  1.00 13.01 LIG 0.23  C 
BRANCH 31 32
ATOM     32  C   GLY A 389     -25.953 -25.056  12.704  1.00 11.92 LIG 0.24  C 
ATOM     33 O    GLY A 389     -26.965 -24.999  13.444  1.00 12.61 LIG-0.27  OA
ATOM     34  N   ALA A 390     -26.004 -24.818  11.407  1.00 10.53 LIG-0.35  N 
ATOM     35 H    ALA A 390     -25.310 -24.797  10.900  1.00 10.53 LIG 0.16  HD
BRANCH 34 36
ATOM     36  CA  ALA A 390     -27.263 -24.566  10.701  1.00 11.53 LIG 0.17  C 
ATOM     37  CB  ALA A 390     -27.890 -23.294  11.230  1.00 11.91 LIG 0.04  C 
BRANCH 36 38
ATOM     38  C   ALA A 390     -27.011 -24.429   9.186  1.00 13.11 LIG 0.24  C 
ATOM     39  N   GLU A 391     -26.013 -25.164   8.716  1.00 14.39 LIG-0.34  N 
ATOM     40 H    GLU A 391     -25.554 -25.706   9.200  1.00 14.39 LIG 0.16  HD
ATOM     41 O    ALA A 390     -27.656 -23.649   8.474  1.00 12.73 LIG-0.27  OA
BRANCH 39 42
ATOM     42  CA  GLU A 391     -25.601 -25.120   7.340  1.00 15.60 LIG 0.19  C 
BRANCH 42 43
ATOM     43  CB  GLU A 391     -26.724 -25.684   6.463  1.00 17.03 LIG 0.05  C 
BRANCH 43 44
ATOM     44  CG  GLU A 391     -26.293 -26.685   5.427  1.00 23.68 LIG 0.12  C 
BRANCH 44 45
ATOM     45  CD  GLU A 391     -26.833 -28.075   5.758  1.00 29.63 LIG 0.17  C 
ATOM     46 OE1  GLU A 391     -26.754 -28.965   4.859  1.00 31.73 LIG-0.65  OA
ATOM     47 OE2  GLU A 391     -27.380 -28.239   6.883  1.00 33.20 LIG-0.65  OA
ENDBRANCH 44 45
ENDBRANCH 43 44
ENDBRANCH 42 43
BRANCH 42 48
ATOM     48  C   GLU A 391     -25.328 -23.659   6.994  1.00 14.85 LIG 0.20  C 
ATOM     49 OXT  GLU A 391     -24.580 -22.997   7.700  1.00 14.73 LIG-0.65  OA
ATOM     50 O    GLU A 391     -25.872 -23.138   6.019  1.00 14.85 LIG-0.65  OA
ENDBRANCH 42 48
ENDBRANCH 39 42
ENDBRANCH 36 38
ENDBRANCH 34 36
ENDBRANCH 31 32
ENDBRANCH 29 31
ENDBRANCH 1 27
TORSDOF 20
ENDMDL
MODEL 33
USER: ADFR SOLUTION from run 38
USER: SCORE 17.648768 LL:  -4.053 LR: -14.553 RR:   0.000 FEB:  -8.587
USER: RMSD 8.382427
USER: SEED 37
USER: STATUS no improvement in best in 3 clusters for 5 generations
USER: GENES 22
USER: genes 0 Translation |==|  0.69271 0.48364 0.71147
USER: genes 1 Rotation |==|  0.02107 0.35746 0.51452 0.50978
USER: genes 2 Torsion [C]-CA--N-[C] |==|  0.66983
USER: genes 3 Torsion [N]-C--CA-[N] |==|  0.95438
USER: genes 4 Torsion [C]-CA--N-[C] |==|  0.82166
USER: genes 5 Torsion [N]-C--CA-[N] |==|  0.02919
USER: genes 6 Torsion [C]-CA--CB-[CG2] |==|  0.88914
USER: genes 7 Torsion [CA]-CB--OG1-[HG1] |==|  0.43362
USER: genes 8 Torsion [C]-CA--CB-[CG] |==|  0.52862
USER: genes 9 Torsion [CA]-CB--CG-[OD2] |==|  0.09315
USER: genes 10 Torsion [N]-CA--CB-[CG] |==|  0.22743
USER: genes 11 Torsion [CA]-CB--CG-[ND1] |==|  0.20958
USER: genes 12 Torsion [N]-CA--C-[N] |==|  0.97619
USER: genes 13 Torsion [C]-N--CA-[C] |==|  0.29683
USER: genes 14 Torsion [N]-CA--C-[N] |==|  0.25610
USER: genes 15 Torsion [C]-N--CA-[CB] |==|  0.85984
USER: genes 16 Torsion [N]-CA--C-[N] |==|  0.33333
USER: genes 17 Torsion [C]-N--CA-[CB] |==|  0.80061
USER: genes 18 Torsion [N]-CA--CB-[CG] |==|  0.66803
USER: genes 19 Torsion [CA]-CB--CG-[CD] |==|  0.40936
USER: genes 20 Torsion [CB]-CG--CD-[OE1] |==|  0.25951
USER: genes 21 Torsion [N]-CA--C-[OXT] |==|  0.63475
ROOT
ATOM      1  CA  HIS A 388     -24.946 -27.779  19.749  1.00 17.64 LIG 0.18  C 
ENDROOT
BRANCH 1 2
ATOM      2  N   HIS A 388     -26.398 -27.594  19.748  1.00 19.60 LIG-0.35  N 
ATOM      3 H    HIS A 388     -26.777 -27.784  19.000  1.00 19.60 LIG 0.16  HD
ATOM      4  C   ASP A 387     -27.060 -27.167  20.825  1.00 22.66 LIG 0.24  C 
ATOM      5 O    ASP A 387     -26.503 -26.919  21.898  1.00 22.02 LIG-0.27  OA
BRANCH 4 6
ATOM      6  CA  ASP A 387     -28.572 -27.015  20.685  1.00 25.57 LIG 0.19  C 
BRANCH 6 7
ATOM      7  N   ASP A 387     -28.852 -27.014  19.235  1.00 28.40 LIG-0.34  N 
ATOM      8 H    ASP A 387     -29.324 -27.681  18.967  1.00 28.40 LIG 0.16  HD
ATOM      9  C   THR A 386     -28.400 -26.047  18.421  1.00 31.30 LIG 0.26  C 
ATOM     10 O    THR A 386     -28.091 -24.911  18.831  1.00 31.60 LIG-0.27  OA
BRANCH 9 11
ATOM     11  CA  THR A 386     -28.310 -26.360  16.906  1.00 33.11 LIG 0.43  C 
ATOM     12  N   THR A 386     -28.978 -27.636  16.508  1.00 33.83 LIG 0.62  N 
BRANCH 11 13
ATOM     13  CB  THR A 386     -28.821 -25.165  16.049  1.00 33.77 LIG 0.16  C 
ATOM     14  CG2 THR A 386     -30.060 -24.505  16.663  1.00 34.60 LIG 0.04  C 
BRANCH 13 15
ATOM     15 OG1  THR A 386     -27.836 -24.122  16.004  1.00 35.18 LIG-0.39  OA
ATOM     16 HG1  THR A 386     -27.954 -23.654  15.316  1.00 35.18 LIG 0.21  HD
ENDBRANCH 13 15
ENDBRANCH 11 13
ENDBRANCH 9 11
ENDBRANCH 6 7
BRANCH 6 17
ATOM     17  CB  ASP A 387     -29.297 -28.174  21.424  1.00 25.68 LIG 0.15  C 
BRANCH 17 18
ATOM     18  CG  ASP A 387     -30.810 -28.236  21.122  1.00 25.80 LIG 0.17  C 
ATOM     19 OD2  ASP A 387     -31.283 -27.916  20.007  1.00 26.75 LIG-0.65  OA
ATOM     20 OD1  ASP A 387     -31.637 -28.620  21.994  1.00 21.65 LIG-0.65  OA
ENDBRANCH 17 18
ENDBRANCH 6 17
ENDBRANCH 4 6
ENDBRANCH 1 2
BRANCH 1 21
ATOM     21  CB  HIS A 388     -24.525 -29.243  19.431  1.00 17.51 LIG 0.10  C 
BRANCH 21 22
ATOM     22  CG  HIS A 388     -24.499 -29.599  17.964  1.00 19.36 LIG 0.06  A 
ATOM     23 ND1  HIS A 388     -23.505 -29.190  17.106  1.00 21.21 LIG-0.24  NA
ATOM     24  CE1 HIS A 388     -23.742 -29.665  15.895  1.00 22.16 LIG 0.23  A 
ATOM     25 NE2  HIS A 388     -24.872 -30.346  15.927  1.00 21.69 LIG-0.25  NA
ATOM     26  CD2 HIS A 388     -25.368 -30.316  17.208  1.00 21.19 LIG 0.14  A 
ENDBRANCH 21 22
ENDBRANCH 1 21
BRANCH 1 27
ATOM     27  C   HIS A 388     -24.314 -26.854  18.700  1.00 15.45 LIG 0.24  C 
ATOM     28 O    HIS A 388     -23.100 -26.734  18.660  1.00 14.42 LIG-0.27  OA
ATOM     29  N   GLY A 389     -25.123 -26.192  17.864  1.00 14.00 LIG-0.35  N 
ATOM     30 H    GLY A 389     -25.979 -26.273  17.855  1.00 14.00 LIG 0.16  HD
BRANCH 29 31
ATOM     31  CA  GLY A 389     -24.590 -25.256  16.875  1.00 13.01 LIG 0.23  C 
BRANCH 31 32
ATOM     32  C   GLY A 389     -24.649 -25.798  15.463  1.00 11.92 LIG 0.24  C 
ATOM     33 O    GLY A 389     -23.733 -26.517  14.995  1.00 12.61 LIG-0.27  OA
ATOM     34  N   ALA A 390     -25.735 -25.492  14.778  1.00 10.53 LIG-0.35  N 
ATOM     35 H    ALA A 390     -26.394 -25.049  15.107  1.00 10.53 LIG 0.16  HD
BRANCH 34 36
ATOM     36  CA  ALA A 390     -25.920 -25.882  13.378  1.00 11.53 LIG 0.17  C 
ATOM     37  CB  ALA A 390     -24.700 -25.479  12.577  1.00 11.91 LIG 0.04  C 
BRANCH 36 38
ATOM     38  C   ALA A 390     -26.133 -27.405  13.269  1.00 13.11 LIG 0.24  C 
ATOM     39  N   GLU A 391     -27.287 -27.772  12.731  1.00 14.39 LIG-0.34  N 
ATOM     40 H    GLU A 391     -27.868 -27.215  12.429  1.00 14.39 LIG 0.16  HD
ATOM     41 O    ALA A 390     -25.312 -28.222  13.705  1.00 12.73 LIG-0.27  OA
BRANCH 39 42
ATOM     42  CA  GLU A 391     -27.677 -29.148  12.602  1.00 15.60 LIG 0.19  C 
BRANCH 42 43
ATOM     43  CB  GLU A 391     -26.829 -29.810  11.511  1.00 17.03 LIG 0.05  C 
BRANCH 43 44
ATOM     44  CG  GLU A 391     -27.598 -30.362  10.342  1.00 23.68 LIG 0.12  C 
BRANCH 44 45
ATOM     45  CD  GLU A 391     -26.783 -30.249   9.055  1.00 29.63 LIG 0.17  C 
ATOM     46 OE1  GLU A 391     -26.079 -31.247   8.715  1.00 31.73 LIG-0.65  OA
ATOM     47 OE2  GLU A 391     -26.812 -29.149   8.438  1.00 33.20 LIG-0.65  OA
ENDBRANCH 44 45
ENDBRANCH 43 44
ENDBRANCH 42 43
BRANCH 42 48
ATOM     48  C   GLU A 391     -27.437 -29.817  13.952  1.00 14.85 LIG 0.20  C 
ATOM     49 OXT  GLU A 391     -26.837 -30.882  14.005  1.00 14.73 LIG-0.65  OA
ATOM     50 O    GLU A 391     -27.860 -29.300  14.987  1.00 14.85 LIG-0.65  OA
ENDBRANCH 42 48
ENDBRANCH 39 42
ENDBRANCH 36 38
ENDBRANCH 34 36
ENDBRANCH 31 32
ENDBRANCH 29 31
ENDBRANCH 1 27
TORSDOF 20
ENDMDL
MODEL 34
USER: ADFR SOLUTION from run 82
USER: SCORE 14.938183 LL:  -2.844 LR: -14.501 RR:   0.000 FEB:  -8.535
USER: RMSD 8.982081
USER: SEED 81
USER: STATUS no improvement in best in 8 clusters for 5 generations
USER: GENES 22
USER: genes 0 Translation |==|  0.75017 0.58155 0.59768
USER: genes 1 Rotation |==|  0.05256 0.40262 0.69894 0.52711
USER: genes 2 Torsion [C]-CA--N-[C] |==|  0.16108
USER: genes 3 Torsion [N]-C--CA-[N] |==|  0.60058
USER: genes 4 Torsion [C]-CA--N-[C] |==|  0.73308
USER: genes 5 Torsion [N]-C--CA-[N] |==|  0.80594
USER: genes 6 Torsion [C]-CA--CB-[CG2] |==|  0.74455
USER: genes 7 Torsion [CA]-CB--OG1-[HG1] |==|  0.84584
USER: genes 8 Torsion [C]-CA--CB-[CG] |==|  0.66922
USER: genes 9 Torsion [CA]-CB--CG-[OD2] |==|  0.81704
USER: genes 10 Torsion [N]-CA--CB-[CG] |==|  0.82090
USER: genes 11 Torsion [CA]-CB--CG-[ND1] |==|  0.38443
USER: genes 12 Torsion [N]-CA--C-[N] |==|  0.66652
USER: genes 13 Torsion [C]-N--CA-[C] |==|  0.72519
USER: genes 14 Torsion [N]-CA--C-[N] |==|  0.69207
USER: genes 15 Torsion [C]-N--CA-[CB] |==|  0.23147
USER: genes 16 Torsion [N]-CA--C-[N] |==|  0.03697
USER: genes 17 Torsion [C]-N--CA-[CB] |==|  0.86527
USER: genes 18 Torsion [N]-CA--CB-[CG] |==|  0.84321
USER: genes 19 Torsion [CA]-CB--CG-[CD] |==|  0.86765
USER: genes 20 Torsion [CB]-CG--CD-[OE1] |==|  0.74740
USER: genes 21 Torsion [N]-CA--C-[OXT] |==|  0.96290
ROOT
ATOM      1  CA  HIS A 388     -23.826 -26.090  17.273  1.00 17.64 LIG 0.18  C 
ENDROOT
BRANCH 1 2
ATOM      2  N   HIS A 388     -24.864 -25.663  18.212  1.00 19.60 LIG-0.35  N 
ATOM      3 H    HIS A 388     -24.561 -25.306  18.933  1.00 19.60 LIG 0.16  HD
ATOM      4  C   ASP A 387     -26.164 -25.821  17.955  1.00 22.66 LIG 0.24  C 
ATOM      5 O    ASP A 387     -26.582 -26.316  16.904  1.00 22.02 LIG-0.27  OA
BRANCH 4 6
ATOM      6  CA  ASP A 387     -27.139 -25.334  19.021  1.00 25.57 LIG 0.19  C 
BRANCH 6 7
ATOM      7  N   ASP A 387     -28.261 -26.295  19.020  1.00 28.40 LIG-0.34  N 
ATOM      8 H    ASP A 387     -28.122 -26.999  19.493  1.00 28.40 LIG 0.16  HD
ATOM      9  C   THR A 386     -29.392 -26.071  18.332  1.00 31.30 LIG 0.26  C 
ATOM     10 O    THR A 386     -29.764 -24.928  18.000  1.00 31.60 LIG-0.27  OA
BRANCH 9 11
ATOM     11  CA  THR A 386     -30.283 -27.292  17.987  1.00 33.11 LIG 0.43  C 
ATOM     12  N   THR A 386     -29.689 -28.209  16.968  1.00 33.83 LIG 0.62  N 
BRANCH 11 13
ATOM     13  CB  THR A 386     -30.702 -28.068  19.268  1.00 33.77 LIG 0.16  C 
ATOM     14  CG2 THR A 386     -29.725 -29.200  19.601  1.00 34.60 LIG 0.04  C 
BRANCH 13 15
ATOM     15 OG1  THR A 386     -30.665 -27.204  20.414  1.00 35.18 LIG-0.39  OA
ATOM     16 HG1  THR A 386     -29.900 -26.860  20.481  1.00 35.18 LIG 0.21  HD
ENDBRANCH 13 15
ENDBRANCH 11 13
ENDBRANCH 9 11
ENDBRANCH 6 7
BRANCH 6 17
ATOM     17  CB  ASP A 387     -26.430 -25.260  20.402  1.00 25.68 LIG 0.15  C 
BRANCH 17 18
ATOM     18  CG  ASP A 387     -27.069 -26.181  21.464  1.00 25.80 LIG 0.17  C 
ATOM     19 OD2  ASP A 387     -28.229 -25.997  21.899  1.00 26.75 LIG-0.65  OA
ATOM     20 OD1  ASP A 387     -26.442 -27.170  21.936  1.00 21.65 LIG-0.65  OA
ENDBRANCH 17 18
ENDBRANCH 6 17
ENDBRANCH 4 6
ENDBRANCH 1 2
BRANCH 1 21
ATOM     21  CB  HIS A 388     -23.830 -27.626  17.029  1.00 17.51 LIG 0.10  C 
BRANCH 21 22
ATOM     22  CG  HIS A 388     -23.500 -28.470  18.237  1.00 19.36 LIG 0.06  A 
ATOM     23 ND1  HIS A 388     -24.167 -29.631  18.551  1.00 21.21 LIG-0.24  NA
ATOM     24  CE1 HIS A 388     -23.651 -30.156  19.649  1.00 22.16 LIG 0.23  A 
ATOM     25 NE2  HIS A 388     -22.689 -29.361  20.079  1.00 21.69 LIG-0.25  NA
ATOM     26  CD2 HIS A 388     -22.578 -28.297  19.216  1.00 21.19 LIG 0.14  A 
ENDBRANCH 21 22
ENDBRANCH 1 21
BRANCH 1 27
ATOM     27  C   HIS A 388     -24.032 -25.383  15.927  1.00 15.45 LIG 0.24  C 
ATOM     28 O    HIS A 388     -24.012 -24.164  15.880  1.00 14.42 LIG-0.27  OA
ATOM     29  N   GLY A 389     -24.242 -26.134  14.839  1.00 14.00 LIG-0.35  N 
ATOM     30 H    GLY A 389     -24.241 -26.994  14.838  1.00 14.00 LIG 0.16  HD
BRANCH 29 31
ATOM     31  CA  GLY A 389     -24.497 -25.525  13.534  1.00 13.01 LIG 0.23  C 
BRANCH 31 32
ATOM     32  C   GLY A 389     -25.969 -25.480  13.185  1.00 11.92 LIG 0.24  C 
ATOM     33 O    GLY A 389     -26.763 -24.710  13.779  1.00 12.61 LIG-0.27  OA
ATOM     34  N   ALA A 390     -26.348 -26.275  12.202  1.00 10.53 LIG-0.35  N 
ATOM     35 H    ALA A 390     -25.804 -26.764  11.750  1.00 10.53 LIG 0.16  HD
BRANCH 34 36
ATOM     36  CA  ALA A 390     -27.747 -26.401  11.785  1.00 11.53 LIG 0.17  C 
ATOM     37  CB  ALA A 390     -28.091 -25.277  10.832  1.00 11.91 LIG 0.04  C 
BRANCH 36 38
ATOM     38  C   ALA A 390     -27.980 -27.758  11.092  1.00 13.11 LIG 0.24  C 
ATOM     39  N   GLU A 391     -27.003 -28.640  11.244  1.00 14.39 LIG-0.34  N 
ATOM     40 H    GLU A 391     -26.302 -28.494  11.720  1.00 14.39 LIG 0.16  HD
ATOM     41 O    ALA A 390     -28.979 -27.985  10.398  1.00 12.73 LIG-0.27  OA
BRANCH 39 42
ATOM     42  CA  GLU A 391     -27.025 -29.935  10.622  1.00 15.60 LIG 0.19  C 
BRANCH 42 43
ATOM     43  CB  GLU A 391     -28.387 -30.589  10.878  1.00 17.03 LIG 0.05  C 
BRANCH 43 44
ATOM     44  CG  GLU A 391     -28.777 -30.724  12.324  1.00 23.68 LIG 0.12  C 
BRANCH 44 45
ATOM     45  CD  GLU A 391     -27.627 -31.307  13.143  1.00 29.63 LIG 0.17  C 
ATOM     46 OE1  GLU A 391     -27.578 -32.567  13.274  1.00 31.73 LIG-0.65  OA
ATOM     47 OE2  GLU A 391     -26.828 -30.498  13.691  1.00 33.20 LIG-0.65  OA
ENDBRANCH 44 45
ENDBRANCH 43 44
ENDBRANCH 42 43
BRANCH 42 48
ATOM     48  C   GLU A 391     -26.799 -29.725   9.128  1.00 14.85 LIG 0.20  C 
ATOM     49 OXT  GLU A 391     -26.886 -28.602   8.652  1.00 14.73 LIG-0.65  OA
ATOM     50 O    GLU A 391     -26.548 -30.683   8.396  1.00 14.85 LIG-0.65  OA
ENDBRANCH 42 48
ENDBRANCH 39 42
ENDBRANCH 36 38
ENDBRANCH 34 36
ENDBRANCH 31 32
ENDBRANCH 29 31
ENDBRANCH 1 27
TORSDOF 20
ENDMDL
MODEL 35
USER: ADFR SOLUTION from run 135
USER: SCORE 17.277509 LL:  -3.859 LR: -14.459 RR:   0.000 FEB:  -8.493
USER: RMSD 3.565040
USER: SEED 134
USER: STATUS no improvement in best in 3 clusters for 5 generations
USER: GENES 22
USER: genes 0 Translation |==|  0.65329 0.55245 0.39881
USER: genes 1 Rotation |==|  0.54398 0.51438 0.44309 0.99459
USER: genes 2 Torsion [C]-CA--N-[C] |==|  0.77240
USER: genes 3 Torsion [N]-C--CA-[N] |==|  0.43527
USER: genes 4 Torsion [C]-CA--N-[C] |==|  0.80554
USER: genes 5 Torsion [N]-C--CA-[N] |==|  0.37785
USER: genes 6 Torsion [C]-CA--CB-[CG2] |==|  0.88214
USER: genes 7 Torsion [CA]-CB--OG1-[HG1] |==|  0.84059
USER: genes 8 Torsion [C]-CA--CB-[CG] |==|  0.87451
USER: genes 9 Torsion [CA]-CB--CG-[OD2] |==|  0.33883
USER: genes 10 Torsion [N]-CA--CB-[CG] |==|  0.26606
USER: genes 11 Torsion [CA]-CB--CG-[ND1] |==|  0.75141
USER: genes 12 Torsion [N]-CA--C-[N] |==|  0.97168
USER: genes 13 Torsion [C]-N--CA-[C] |==|  0.25061
USER: genes 14 Torsion [N]-CA--C-[N] |==|  0.32655
USER: genes 15 Torsion [C]-N--CA-[CB] |==|  0.83886
USER: genes 16 Torsion [N]-CA--C-[N] |==|  0.21140
USER: genes 17 Torsion [C]-N--CA-[CB] |==|  0.41350
USER: genes 18 Torsion [N]-CA--CB-[CG] |==|  0.17124
USER: genes 19 Torsion [CA]-CB--CG-[CD] |==|  0.36505
USER: genes 20 Torsion [CB]-CG--CD-[OE1] |==|  0.15545
USER: genes 21 Torsion [N]-CA--C-[OXT] |==|  0.55567
ROOT
ATOM      1  CA  HIS A 388     -25.715 -26.592  12.948  1.00 17.64 LIG 0.18  C 
ENDROOT
BRANCH 1 2
ATOM      2  N   HIS A 388     -27.010 -27.273  12.974  1.00 19.60 LIG-0.35  N 
ATOM      3 H    HIS A 388     -27.571 -26.941  13.536  1.00 19.60 LIG 0.16  HD
ATOM      4  C   ASP A 387     -27.282 -28.316  12.189  1.00 22.66 LIG 0.24  C 
ATOM      5 O    ASP A 387     -26.473 -28.767  11.372  1.00 22.02 LIG-0.27  OA
BRANCH 4 6
ATOM      6  CA  ASP A 387     -28.671 -28.933  12.321  1.00 25.57 LIG 0.19  C 
BRANCH 6 7
ATOM      7  N   ASP A 387     -28.934 -29.626  11.044  1.00 28.40 LIG-0.34  N 
ATOM      8 H    ASP A 387     -28.938 -30.484  11.103  1.00 28.40 LIG 0.16  HD
ATOM      9  C   THR A 386     -29.147 -28.957   9.899  1.00 31.30 LIG 0.26  C 
ATOM     10 O    THR A 386     -29.545 -27.776   9.873  1.00 31.60 LIG-0.27  OA
BRANCH 9 11
ATOM     11  CA  THR A 386     -28.930 -29.717   8.566  1.00 33.11 LIG 0.43  C 
ATOM     12  N   THR A 386     -30.001 -29.482   7.551  1.00 33.83 LIG 0.62  N 
BRANCH 11 13
ATOM     13  CB  THR A 386     -27.520 -29.432   7.973  1.00 33.77 LIG 0.16  C 
ATOM     14  CG2 THR A 386     -27.139 -27.952   8.083  1.00 34.60 LIG 0.04  C 
BRANCH 13 15
ATOM     15 OG1  THR A 386     -26.511 -30.126   8.723  1.00 35.18 LIG-0.39  OA
ATOM     16 HG1  THR A 386     -26.552 -29.894   9.530  1.00 35.18 LIG 0.21  HD
ENDBRANCH 13 15
ENDBRANCH 11 13
ENDBRANCH 9 11
ENDBRANCH 6 7
BRANCH 6 17
ATOM     17  CB  ASP A 387     -28.713 -29.901  13.535  1.00 25.68 LIG 0.15  C 
BRANCH 17 18
ATOM     18  CG  ASP A 387     -27.488 -30.839  13.609  1.00 25.80 LIG 0.17  C 
ATOM     19 OD2  ASP A 387     -26.730 -30.873  14.605  1.00 26.75 LIG-0.65  OA
ATOM     20 OD1  ASP A 387     -27.204 -31.621  12.660  1.00 21.65 LIG-0.65  OA
ENDBRANCH 17 18
ENDBRANCH 6 17
ENDBRANCH 4 6
ENDBRANCH 1 2
BRANCH 1 21
ATOM     21  CB  HIS A 388     -25.790 -25.133  13.481  1.00 17.51 LIG 0.10  C 
BRANCH 21 22
ATOM     22  CG  HIS A 388     -25.425 -24.962  14.937  1.00 19.36 LIG 0.06  A 
ATOM     23 ND1  HIS A 388     -26.342 -25.051  15.959  1.00 21.21 LIG-0.24  NA
ATOM     24  CE1 HIS A 388     -25.732 -24.872  17.118  1.00 22.16 LIG 0.23  A 
ATOM     25 NE2  HIS A 388     -24.453 -24.642  16.885  1.00 21.69 LIG-0.25  NA
ATOM     26  CD2 HIS A 388     -24.237 -24.687  15.529  1.00 21.19 LIG 0.14  A 
ENDBRANCH 21 22
ENDBRANCH 1 21
BRANCH 1 27
ATOM     27  C   HIS A 388     -24.711 -27.373  13.808  1.00 15.45 LIG 0.24  C 
ATOM     28 O    HIS A 388     -23.527 -27.083  13.759  1.00 14.42 LIG-0.27  OA
ATOM     29  N   GLY A 389     -25.170 -28.363  14.582  1.00 14.00 LIG-0.35  N 
ATOM     30 H    GLY A 389     -26.001 -28.576  14.653  1.00 14.00 LIG 0.16  HD
BRANCH 29 31
ATOM     31  CA  GLY A 389     -24.263 -29.180  15.387  1.00 13.01 LIG 0.23  C 
BRANCH 31 32
ATOM     32  C   GLY A 389     -24.041 -28.616  16.774  1.00 11.92 LIG 0.24  C 
ATOM     33 O    GLY A 389     -23.537 -27.480  16.950  1.00 12.61 LIG-0.27  OA
ATOM     34  N   ALA A 390     -24.441 -29.380  17.773  1.00 10.53 LIG-0.35  N 
ATOM     35 H    ALA A 390     -24.840 -30.134  17.664  1.00 10.53 LIG 0.16  HD
BRANCH 34 36
ATOM     36  CA  ALA A 390     -24.241 -29.012  19.177  1.00 11.53 LIG 0.17  C 
ATOM     37  CB  ALA A 390     -22.764 -28.810  19.439  1.00 11.91 LIG 0.04  C 
BRANCH 36 38
ATOM     38  C   ALA A 390     -25.008 -27.716  19.506  1.00 13.11 LIG 0.24  C 
ATOM     39  N   GLU A 391     -26.317 -27.862  19.653  1.00 14.39 LIG-0.34  N 
ATOM     40 H    GLU A 391     -26.718 -28.622  19.605  1.00 14.39 LIG 0.16  HD
ATOM     41 O    ALA A 390     -24.450 -26.613  19.572  1.00 12.73 LIG-0.27  OA
BRANCH 39 42
ATOM     42  CA  GLU A 391     -27.196 -26.754  19.906  1.00 15.60 LIG 0.19  C 
BRANCH 42 43
ATOM     43  CB  GLU A 391     -28.564 -27.047  19.280  1.00 17.03 LIG 0.05  C 
BRANCH 43 44
ATOM     44  CG  GLU A 391     -29.277 -28.254  19.824  1.00 23.68 LIG 0.12  C 
BRANCH 44 45
ATOM     45  CD  GLU A 391     -30.725 -27.916  20.173  1.00 29.63 LIG 0.17  C 
ATOM     46 OE1  GLU A 391     -31.452 -27.427  19.256  1.00 31.73 LIG-0.65  OA
ATOM     47 OE2  GLU A 391     -31.097 -28.088  21.366  1.00 33.20 LIG-0.65  OA
ENDBRANCH 44 45
ENDBRANCH 43 44
ENDBRANCH 42 43
BRANCH 42 48
ATOM     48  C   GLU A 391     -27.315 -26.606  21.420  1.00 14.85 LIG 0.20  C 
ATOM     49 OXT  GLU A 391     -28.262 -25.997  21.898  1.00 14.73 LIG-0.65  OA
ATOM     50 O    GLU A 391     -26.453 -27.079  22.162  1.00 14.85 LIG-0.65  OA
ENDBRANCH 42 48
ENDBRANCH 39 42
ENDBRANCH 36 38
ENDBRANCH 34 36
ENDBRANCH 31 32
ENDBRANCH 29 31
ENDBRANCH 1 27
TORSDOF 20
ENDMDL
MODEL 36
USER: ADFR SOLUTION from run 118
USER: SCORE 15.789930 LL:  -2.322 LR: -14.440 RR:   0.000 FEB:  -8.474
USER: RMSD 10.502848
USER: SEED 117
USER: STATUS no improvement in best in 7 clusters for 5 generations
USER: GENES 22
USER: genes 0 Translation |==|  0.62957 0.60129 0.68879
USER: genes 1 Rotation |==|  0.82987 0.85942 0.43205 0.58594
USER: genes 2 Torsion [C]-CA--N-[C] |==|  0.65353
USER: genes 3 Torsion [N]-C--CA-[N] |==|  0.17088
USER: genes 4 Torsion [C]-CA--N-[C] |==|  0.14098
USER: genes 5 Torsion [N]-C--CA-[N] |==|  0.32187
USER: genes 6 Torsion [C]-CA--CB-[CG2] |==|  0.49886
USER: genes 7 Torsion [CA]-CB--OG1-[HG1] |==|  0.48543
USER: genes 8 Torsion [C]-CA--CB-[CG] |==|  0.36217
USER: genes 9 Torsion [CA]-CB--CG-[OD2] |==|  0.99534
USER: genes 10 Torsion [N]-CA--CB-[CG] |==|  0.13565
USER: genes 11 Torsion [CA]-CB--CG-[ND1] |==|  0.23923
USER: genes 12 Torsion [N]-CA--C-[N] |==|  0.06595
USER: genes 13 Torsion [C]-N--CA-[C] |==|  0.16714
USER: genes 14 Torsion [N]-CA--C-[N] |==|  0.67061
USER: genes 15 Torsion [C]-N--CA-[CB] |==|  0.86982
USER: genes 16 Torsion [N]-CA--C-[N] |==|  0.40718
USER: genes 17 Torsion [C]-N--CA-[CB] |==|  0.43862
USER: genes 18 Torsion [N]-CA--CB-[CG] |==|  0.69243
USER: genes 19 Torsion [CA]-CB--CG-[CD] |==|  0.45584
USER: genes 20 Torsion [CB]-CG--CD-[OE1] |==|  0.08527
USER: genes 21 Torsion [N]-CA--C-[OXT] |==|  0.62341
ROOT
ATOM      1  CA  HIS A 388     -26.177 -25.750  19.255  1.00 17.64 LIG 0.18  C 
ENDROOT
BRANCH 1 2
ATOM      2  N   HIS A 388     -27.034 -26.883  19.608  1.00 19.60 LIG-0.35  N 
ATOM      3 H    HIS A 388     -27.021 -27.525  19.036  1.00 19.60 LIG 0.16  HD
ATOM      4  C   ASP A 387     -27.764 -26.901  20.725  1.00 22.66 LIG 0.24  C 
ATOM      5 O    ASP A 387     -27.753 -25.979  21.546  1.00 22.02 LIG-0.27  OA
BRANCH 4 6
ATOM      6  CA  ASP A 387     -28.615 -28.144  20.968  1.00 25.57 LIG 0.19  C 
BRANCH 6 7
ATOM      7  N   ASP A 387     -27.670 -29.275  21.066  1.00 28.40 LIG-0.34  N 
ATOM      8 H    ASP A 387     -27.868 -29.943  20.563  1.00 28.40 LIG 0.16  HD
ATOM      9  C   THR A 386     -26.600 -29.243  21.876  1.00 31.30 LIG 0.26  C 
ATOM     10 O    THR A 386     -26.088 -28.179  22.274  1.00 31.60 LIG-0.27  OA
BRANCH 9 11
ATOM     11  CA  THR A 386     -25.961 -30.595  22.284  1.00 33.11 LIG 0.43  C 
ATOM     12  N   THR A 386     -24.564 -30.781  21.789  1.00 33.83 LIG 0.62  N 
BRANCH 11 13
ATOM     13  CB  THR A 386     -26.050 -30.824  23.821  1.00 33.77 LIG 0.16  C 
ATOM     14  CG2 THR A 386     -25.431 -32.161  24.240  1.00 34.60 LIG 0.04  C 
BRANCH 13 15
ATOM     15 OG1  THR A 386     -25.284 -29.831  24.521  1.00 35.18 LIG-0.39  OA
ATOM     16 HG1  THR A 386     -25.397 -29.922  25.349  1.00 35.18 LIG 0.21  HD
ENDBRANCH 13 15
ENDBRANCH 11 13
ENDBRANCH 9 11
ENDBRANCH 6 7
BRANCH 6 17
ATOM     17  CB  ASP A 387     -29.459 -27.969  22.261  1.00 25.68 LIG 0.15  C 
BRANCH 17 18
ATOM     18  CG  ASP A 387     -30.954 -28.302  22.062  1.00 25.80 LIG 0.17  C 
ATOM     19 OD2  ASP A 387     -31.421 -28.643  20.951  1.00 26.75 LIG-0.65  OA
ATOM     20 OD1  ASP A 387     -31.771 -28.247  23.022  1.00 21.65 LIG-0.65  OA
ENDBRANCH 17 18
ENDBRANCH 6 17
ENDBRANCH 4 6
ENDBRANCH 1 2
BRANCH 1 21
ATOM     21  CB  HIS A 388     -24.665 -26.115  19.254  1.00 17.51 LIG 0.10  C 
BRANCH 21 22
ATOM     22  CG  HIS A 388     -24.309 -27.371  18.495  1.00 19.36 LIG 0.06  A 
ATOM     23 ND1  HIS A 388     -24.057 -27.389  17.143  1.00 21.21 LIG-0.24  NA
ATOM     24  CE1 HIS A 388     -23.760 -28.620  16.764  1.00 22.16 LIG 0.23  A 
ATOM     25 NE2  HIS A 388     -23.837 -29.411  17.818  1.00 21.69 LIG-0.25  NA
ATOM     26  CD2 HIS A 388     -24.184 -28.655  18.912  1.00 21.19 LIG 0.14  A 
ENDBRANCH 21 22
ENDBRANCH 1 21
BRANCH 1 27
ATOM     27  C   HIS A 388     -26.555 -25.240  17.857  1.00 15.45 LIG 0.24  C 
ATOM     28 O    HIS A 388     -25.735 -24.616  17.205  1.00 14.42 LIG-0.27  OA
ATOM     29  N   GLY A 389     -27.789 -25.490  17.401  1.00 14.00 LIG-0.35  N 
ATOM     30 H    GLY A 389     -28.380 -25.945  17.829  1.00 14.00 LIG 0.16  HD
BRANCH 29 31
ATOM     31  CA  GLY A 389     -28.231 -24.990  16.099  1.00 13.01 LIG 0.23  C 
BRANCH 31 32
ATOM     32  C   GLY A 389     -27.388 -25.509  14.955  1.00 11.92 LIG 0.24  C 
ATOM     33 O    GLY A 389     -27.331 -26.733  14.682  1.00 12.61 LIG-0.27  OA
ATOM     34  N   ALA A 390     -26.751 -24.591  14.252  1.00 10.53 LIG-0.35  N 
ATOM     35 H    ALA A 390     -26.829 -23.747  14.393  1.00 10.53 LIG 0.16  HD
BRANCH 34 36
ATOM     36  CA  ALA A 390     -25.843 -24.929  13.154  1.00 11.53 LIG 0.17  C 
ATOM     37  CB  ALA A 390     -24.907 -26.034  13.595  1.00 11.91 LIG 0.04  C 
BRANCH 36 38
ATOM     38  C   ALA A 390     -26.642 -25.390  11.918  1.00 13.11 LIG 0.24  C 
ATOM     39  N   GLU A 391     -26.104 -25.068  10.751  1.00 14.39 LIG-0.34  N 
ATOM     40 H    GLU A 391     -25.349 -24.664  10.672  1.00 14.39 LIG 0.16  HD
ATOM     41 O    ALA A 390     -27.733 -25.967  12.012  1.00 12.73 LIG-0.27  OA
BRANCH 39 42
ATOM     42  CA  GLU A 391     -26.739 -25.368   9.498  1.00 15.60 LIG 0.19  C 
BRANCH 42 43
ATOM     43  CB  GLU A 391     -26.191 -24.426   8.421  1.00 17.03 LIG 0.05  C 
BRANCH 43 44
ATOM     44  CG  GLU A 391     -27.161 -23.399   7.905  1.00 23.68 LIG 0.12  C 
BRANCH 44 45
ATOM     45  CD  GLU A 391     -26.429 -22.291   7.152  1.00 29.63 LIG 0.17  C 
ATOM     46 OE1  GLU A 391     -25.358 -22.599   6.548  1.00 31.73 LIG-0.65  OA
ATOM     47 OE2  GLU A 391     -26.900 -21.122   7.225  1.00 33.20 LIG-0.65  OA
ENDBRANCH 44 45
ENDBRANCH 43 44
ENDBRANCH 42 43
BRANCH 42 48
ATOM     48  C   GLU A 391     -26.417 -26.820   9.160  1.00 14.85 LIG 0.20  C 
ATOM     49 OXT  GLU A 391     -26.079 -27.119   8.023  1.00 14.73 LIG-0.65  OA
ATOM     50 O    GLU A 391     -26.513 -27.696  10.021  1.00 14.85 LIG-0.65  OA
ENDBRANCH 42 48
ENDBRANCH 39 42
ENDBRANCH 36 38
ENDBRANCH 34 36
ENDBRANCH 31 32
ENDBRANCH 29 31
ENDBRANCH 1 27
TORSDOF 20
ENDMDL
MODEL 37
USER: ADFR SOLUTION from run 199
USER: SCORE 16.601836 LL:  -3.226 LR: -14.439 RR:   0.000 FEB:  -8.473
USER: RMSD 3.364061
USER: SEED 198
USER: STATUS no improvement in best in 6 clusters for 5 generations
USER: GENES 22
USER: genes 0 Translation |==|  0.67361 0.60263 0.38641
USER: genes 1 Rotation |==|  0.32789 0.35039 0.49359 0.94492
USER: genes 2 Torsion [C]-CA--N-[C] |==|  0.80219
USER: genes 3 Torsion [N]-C--CA-[N] |==|  0.90292
USER: genes 4 Torsion [C]-CA--N-[C] |==|  0.81559
USER: genes 5 Torsion [N]-C--CA-[N] |==|  0.17577
USER: genes 6 Torsion [C]-CA--CB-[CG2] |==|  0.14076
USER: genes 7 Torsion [CA]-CB--OG1-[HG1] |==|  0.82145
USER: genes 8 Torsion [C]-CA--CB-[CG] |==|  0.25561
USER: genes 9 Torsion [CA]-CB--CG-[OD2] |==|  0.51819
USER: genes 10 Torsion [N]-CA--CB-[CG] |==|  0.90208
USER: genes 11 Torsion [CA]-CB--CG-[ND1] |==|  0.34372
USER: genes 12 Torsion [N]-CA--C-[N] |==|  0.35370
USER: genes 13 Torsion [C]-N--CA-[C] |==|  0.19147
USER: genes 14 Torsion [N]-CA--C-[N] |==|  0.13634
USER: genes 15 Torsion [C]-N--CA-[CB] |==|  0.79431
USER: genes 16 Torsion [N]-CA--C-[N] |==|  0.58594
USER: genes 17 Torsion [C]-N--CA-[CB] |==|  0.24830
USER: genes 18 Torsion [N]-CA--CB-[CG] |==|  0.69011
USER: genes 19 Torsion [CA]-CB--CG-[CD] |==|  0.68391
USER: genes 20 Torsion [CB]-CG--CD-[OE1] |==|  0.95603
USER: genes 21 Torsion [N]-CA--C-[OXT] |==|  0.99280
ROOT
ATOM      1  CA  HIS A 388     -25.319 -25.727  12.678  1.00 17.64 LIG 0.18  C 
ENDROOT
BRANCH 1 2
ATOM      2  N   HIS A 388     -26.500 -26.589  12.708  1.00 19.60 LIG-0.35  N 
ATOM      3 H    HIS A 388     -27.191 -26.253  12.321  1.00 19.60 LIG 0.16  HD
ATOM      4  C   ASP A 387     -26.490 -27.790  13.289  1.00 22.66 LIG 0.24  C 
ATOM      5 O    ASP A 387     -25.484 -28.267  13.822  1.00 22.02 LIG-0.27  OA
BRANCH 4 6
ATOM      6  CA  ASP A 387     -27.793 -28.583  13.250  1.00 25.57 LIG 0.19  C 
BRANCH 6 7
ATOM      7  N   ASP A 387     -28.881 -27.591  13.360  1.00 28.40 LIG-0.34  N 
ATOM      8 H    ASP A 387     -29.368 -27.523  12.655  1.00 28.40 LIG 0.16  HD
ATOM      9  C   THR A 386     -29.075 -26.865  14.473  1.00 31.30 LIG 0.26  C 
ATOM     10 O    THR A 386     -28.668 -27.228  15.593  1.00 31.60 LIG-0.27  OA
BRANCH 9 11
ATOM     11  CA  THR A 386     -29.884 -25.549  14.346  1.00 33.11 LIG 0.43  C 
ATOM     12  N   THR A 386     -31.300 -25.745  13.914  1.00 33.83 LIG 0.62  N 
BRANCH 11 13
ATOM     13  CB  THR A 386     -29.805 -24.707  15.653  1.00 33.77 LIG 0.16  C 
ATOM     14  CG2 THR A 386     -28.361 -24.514  16.126  1.00 34.60 LIG 0.04  C 
BRANCH 13 15
ATOM     15 OG1  THR A 386     -30.295 -23.377  15.423  1.00 35.18 LIG-0.39  OA
ATOM     16 HG1  THR A 386     -29.795 -22.985  14.873  1.00 35.18 LIG 0.21  HD
ENDBRANCH 13 15
ENDBRANCH 11 13
ENDBRANCH 9 11
ENDBRANCH 6 7
BRANCH 6 17
ATOM     17  CB  ASP A 387     -27.879 -29.407  11.935  1.00 25.68 LIG 0.15  C 
BRANCH 17 18
ATOM     18  CG  ASP A 387     -27.312 -30.837  12.074  1.00 25.80 LIG 0.17  C 
ATOM     19 OD2  ASP A 387     -27.186 -31.605  11.093  1.00 26.75 LIG-0.65  OA
ATOM     20 OD1  ASP A 387     -26.945 -31.289  13.194  1.00 21.65 LIG-0.65  OA
ENDBRANCH 17 18
ENDBRANCH 6 17
ENDBRANCH 4 6
ENDBRANCH 1 2
BRANCH 1 21
ATOM     21  CB  HIS A 388     -25.474 -24.524  11.704  1.00 17.51 LIG 0.10  C 
BRANCH 21 22
ATOM     22  CG  HIS A 388     -26.260 -24.814  10.447  1.00 19.36 LIG 0.06  A 
ATOM     23 ND1  HIS A 388     -27.374 -24.099  10.073  1.00 21.21 LIG-0.24  NA
ATOM     24  CE1 HIS A 388     -27.838 -24.569   8.928  1.00 22.16 LIG 0.23  A 
ATOM     25 NE2  HIS A 388     -27.082 -25.586   8.557  1.00 21.69 LIG-0.25  NA
ATOM     26  CD2 HIS A 388     -26.092 -25.763   9.493  1.00 21.19 LIG 0.14  A 
ENDBRANCH 21 22
ENDBRANCH 1 21
BRANCH 1 27
ATOM     27  C   HIS A 388     -25.052 -25.178  14.087  1.00 15.45 LIG 0.24  C 
ATOM     28 O    HIS A 388     -25.948 -24.609  14.689  1.00 14.42 LIG-0.27  OA
ATOM     29  N   GLY A 389     -23.829 -25.334  14.610  1.00 14.00 LIG-0.35  N 
ATOM     30 H    GLY A 389     -23.185 -25.748  14.218  1.00 14.00 LIG 0.16  HD
BRANCH 29 31
ATOM     31  CA  GLY A 389     -23.492 -24.791  15.926  1.00 13.01 LIG 0.23  C 
BRANCH 31 32
ATOM     32  C   GLY A 389     -24.203 -25.507  17.054  1.00 11.92 LIG 0.24  C 
ATOM     33 O    GLY A 389     -24.838 -24.879  17.935  1.00 12.61 LIG-0.27  OA
ATOM     34  N   ALA A 390     -24.135 -26.825  17.027  1.00 10.53 LIG-0.35  N 
ATOM     35 H    ALA A 390     -23.752 -27.268  16.397  1.00 10.53 LIG 0.16  HD
BRANCH 34 36
ATOM     36  CA  ALA A 390     -24.712 -27.666  18.079  1.00 11.53 LIG 0.17  C 
ATOM     37  CB  ALA A 390     -23.847 -27.587  19.319  1.00 11.91 LIG 0.04  C 
BRANCH 36 38
ATOM     38  C   ALA A 390     -26.143 -27.199  18.414  1.00 13.11 LIG 0.24  C 
ATOM     39  N   GLU A 391     -26.515 -27.393  19.671  1.00 14.39 LIG-0.34  N 
ATOM     40 H    GLU A 391     -25.997 -27.721  20.274  1.00 14.39 LIG 0.16  HD
ATOM     41 O    ALA A 390     -26.905 -26.731  17.559  1.00 12.73 LIG-0.27  OA
BRANCH 39 42
ATOM     42  CA  GLU A 391     -27.832 -27.071  20.146  1.00 15.60 LIG 0.19  C 
BRANCH 42 43
ATOM     43  CB  GLU A 391     -28.744 -28.289  19.959  1.00 17.03 LIG 0.05  C 
BRANCH 43 44
ATOM     44  CG  GLU A 391     -29.823 -28.133  18.924  1.00 23.68 LIG 0.12  C 
BRANCH 44 45
ATOM     45  CD  GLU A 391     -31.205 -28.147  19.575  1.00 29.63 LIG 0.17  C 
ATOM     46 OE1  GLU A 391     -31.290 -28.580  20.764  1.00 31.73 LIG-0.65  OA
ATOM     47 OE2  GLU A 391     -32.188 -27.783  18.873  1.00 33.20 LIG-0.65  OA
ENDBRANCH 44 45
ENDBRANCH 43 44
ENDBRANCH 42 43
BRANCH 42 48
ATOM     48  C   GLU A 391     -27.707 -26.713  21.624  1.00 14.85 LIG 0.20  C 
ATOM     49 OXT  GLU A 391     -26.619 -26.787  22.178  1.00 14.73 LIG-0.65  OA
ATOM     50 O    GLU A 391     -28.699 -26.367  22.267  1.00 14.85 LIG-0.65  OA
ENDBRANCH 42 48
ENDBRANCH 39 42
ENDBRANCH 36 38
ENDBRANCH 34 36
ENDBRANCH 31 32
ENDBRANCH 29 31
ENDBRANCH 1 27
TORSDOF 20
ENDMDL
MODEL 38
USER: ADFR SOLUTION from run 197
USER: SCORE 16.509429 LL:  -3.070 LR: -14.436 RR:   0.000 FEB:  -8.470
USER: RMSD 9.855876
USER: SEED 196
USER: STATUS no improvement in best in 10 clusters for 5 generations
USER: GENES 22
USER: genes 0 Translation |==|  0.69259 0.58329 0.63881
USER: genes 1 Rotation |==|  0.88064 0.80680 0.39822 0.52500
USER: genes 2 Torsion [C]-CA--N-[C] |==|  0.74938
USER: genes 3 Torsion [N]-C--CA-[N] |==|  0.14255
USER: genes 4 Torsion [C]-CA--N-[C] |==|  0.18733
USER: genes 5 Torsion [N]-C--CA-[N] |==|  0.30814
USER: genes 6 Torsion [C]-CA--CB-[CG2] |==|  0.33030
USER: genes 7 Torsion [CA]-CB--OG1-[HG1] |==|  0.40639
USER: genes 8 Torsion [C]-CA--CB-[CG] |==|  0.53684
USER: genes 9 Torsion [CA]-CB--CG-[OD2] |==|  0.29541
USER: genes 10 Torsion [N]-CA--CB-[CG] |==|  0.14977
USER: genes 11 Torsion [CA]-CB--CG-[ND1] |==|  0.74304
USER: genes 12 Torsion [N]-CA--C-[N] |==|  0.98678
USER: genes 13 Torsion [C]-N--CA-[C] |==|  0.22257
USER: genes 14 Torsion [N]-CA--C-[N] |==|  0.38995
USER: genes 15 Torsion [C]-N--CA-[CB] |==|  0.86841
USER: genes 16 Torsion [N]-CA--C-[N] |==|  0.39560
USER: genes 17 Torsion [C]-N--CA-[CB] |==|  0.25420
USER: genes 18 Torsion [N]-CA--CB-[CG] |==|  0.78939
USER: genes 19 Torsion [CA]-CB--CG-[CD] |==|  0.80981
USER: genes 20 Torsion [CB]-CG--CD-[OE1] |==|  0.34282
USER: genes 21 Torsion [N]-CA--C-[OXT] |==|  0.42480
ROOT
ATOM      1  CA  HIS A 388     -24.948 -26.060  18.168  1.00 17.64 LIG 0.18  C 
ENDROOT
BRANCH 1 2
ATOM      2  N   HIS A 388     -26.059 -26.880  18.653  1.00 19.60 LIG-0.35  N 
ATOM      3 H    HIS A 388     -26.076 -27.677  18.329  1.00 19.60 LIG 0.16  HD
ATOM      4  C   ASP A 387     -26.959 -26.417  19.523  1.00 22.66 LIG 0.24  C 
ATOM      5 O    ASP A 387     -26.907 -25.277  19.995  1.00 22.02 LIG-0.27  OA
BRANCH 4 6
ATOM      6  CA  ASP A 387     -28.067 -27.377  19.942  1.00 25.57 LIG 0.19  C 
BRANCH 6 7
ATOM      7  N   ASP A 387     -27.393 -28.620  20.370  1.00 28.40 LIG-0.34  N 
ATOM      8 H    ASP A 387     -27.536 -29.294  19.856  1.00 28.40 LIG 0.16  HD
ATOM      9  C   THR A 386     -26.626 -28.673  21.471  1.00 31.30 LIG 0.26  C 
ATOM     10 O    THR A 386     -26.091 -27.663  21.968  1.00 31.60 LIG-0.27  OA
BRANCH 9 11
ATOM     11  CA  THR A 386     -26.368 -30.062  22.107  1.00 33.11 LIG 0.43  C 
ATOM     12  N   THR A 386     -24.958 -30.539  21.974  1.00 33.83 LIG 0.62  N 
BRANCH 11 13
ATOM     13  CB  THR A 386     -26.839 -30.104  23.589  1.00 33.77 LIG 0.16  C 
ATOM     14  CG2 THR A 386     -27.935 -31.151  23.815  1.00 34.60 LIG 0.04  C 
BRANCH 13 15
ATOM     15 OG1  THR A 386     -25.763 -30.511  24.448  1.00 35.18 LIG-0.39  OA
ATOM     16 HG1  THR A 386     -25.831 -30.119  25.188  1.00 35.18 LIG 0.21  HD
ENDBRANCH 13 15
ENDBRANCH 11 13
ENDBRANCH 9 11
ENDBRANCH 6 7
BRANCH 6 17
ATOM     17  CB  ASP A 387     -28.919 -26.748  21.080  1.00 25.68 LIG 0.15  C 
BRANCH 17 18
ATOM     18  CG  ASP A 387     -29.845 -27.766  21.780  1.00 25.80 LIG 0.17  C 
ATOM     19 OD2  ASP A 387     -29.611 -28.202  22.931  1.00 26.75 LIG-0.65  OA
ATOM     20 OD1  ASP A 387     -30.888 -28.198  21.216  1.00 21.65 LIG-0.65  OA
ENDBRANCH 17 18
ENDBRANCH 6 17
ENDBRANCH 4 6
ENDBRANCH 1 2
BRANCH 1 21
ATOM     21  CB  HIS A 388     -23.680 -26.898  17.839  1.00 17.51 LIG 0.10  C 
BRANCH 21 22
ATOM     22  CG  HIS A 388     -23.899 -28.046  16.883  1.00 19.36 LIG 0.06  A 
ATOM     23 ND1  HIS A 388     -24.188 -29.326  17.296  1.00 21.21 LIG-0.24  NA
ATOM     24  CE1 HIS A 388     -24.340 -30.109  16.242  1.00 22.16 LIG 0.23  A 
ATOM     25 NE2  HIS A 388     -24.132 -29.389  15.155  1.00 21.69 LIG-0.25  NA
ATOM     26  CD2 HIS A 388     -23.848 -28.098  15.529  1.00 21.19 LIG 0.14  A 
ENDBRANCH 21 22
ENDBRANCH 1 21
BRANCH 1 27
ATOM     27  C   HIS A 388     -25.381 -25.315  16.898  1.00 15.45 LIG 0.24  C 
ATOM     28 O    HIS A 388     -24.626 -24.500  16.394  1.00 14.42 LIG-0.27  OA
ATOM     29  N   GLY A 389     -26.590 -25.576  16.387  1.00 14.00 LIG-0.35  N 
ATOM     30 H    GLY A 389     -27.135 -26.159  16.708  1.00 14.00 LIG 0.16  HD
BRANCH 29 31
ATOM     31  CA  GLY A 389     -27.086 -24.865  15.208  1.00 13.01 LIG 0.23  C 
BRANCH 31 32
ATOM     32  C   GLY A 389     -26.529 -25.417  13.914  1.00 11.92 LIG 0.24  C 
ATOM     33 O    GLY A 389     -25.341 -25.811  13.823  1.00 12.61 LIG-0.27  OA
ATOM     34  N   ALA A 390     -27.381 -25.485  12.908  1.00 10.53 LIG-0.35  N 
ATOM     35 H    ALA A 390     -28.211 -25.273  12.974  1.00 10.53 LIG 0.16  HD
BRANCH 34 36
ATOM     36  CA  ALA A 390     -26.987 -25.933  11.570  1.00 11.53 LIG 0.17  C 
ATOM     37  CB  ALA A 390     -25.713 -25.227  11.157  1.00 11.91 LIG 0.04  C 
BRANCH 36 38
ATOM     38  C   ALA A 390     -26.762 -27.458  11.559  1.00 13.11 LIG 0.24  C 
ATOM     39  N   GLU A 391     -27.163 -28.075  10.457  1.00 14.39 LIG-0.34  N 
ATOM     40 H    GLU A 391     -27.493 -27.666   9.778  1.00 14.39 LIG 0.16  HD
ATOM     41 O    ALA A 390     -26.294 -28.066  12.531  1.00 12.73 LIG-0.27  OA
BRANCH 39 42
ATOM     42  CA  GLU A 391     -27.082 -29.501  10.297  1.00 15.60 LIG 0.19  C 
BRANCH 42 43
ATOM     43  CB  GLU A 391     -28.397 -30.132  10.766  1.00 17.03 LIG 0.05  C 
BRANCH 43 44
ATOM     44  CG  GLU A 391     -28.582 -30.206  12.257  1.00 23.68 LIG 0.12  C 
BRANCH 44 45
ATOM     45  CD  GLU A 391     -27.602 -31.201  12.876  1.00 29.63 LIG 0.17  C 
ATOM     46 OE1  GLU A 391     -26.829 -30.777  13.786  1.00 31.73 LIG-0.65  OA
ATOM     47 OE2  GLU A 391     -27.579 -32.372  12.404  1.00 33.20 LIG-0.65  OA
ENDBRANCH 44 45
ENDBRANCH 43 44
ENDBRANCH 42 43
BRANCH 42 48
ATOM     48  C   GLU A 391     -26.848 -29.779   8.815  1.00 14.85 LIG 0.20  C 
ATOM     49 OXT  GLU A 391     -26.268 -30.800   8.473  1.00 14.73 LIG-0.65  OA
ATOM     50 O    GLU A 391     -27.225 -28.973   7.963  1.00 14.85 LIG-0.65  OA
ENDBRANCH 42 48
ENDBRANCH 39 42
ENDBRANCH 36 38
ENDBRANCH 34 36
ENDBRANCH 31 32
ENDBRANCH 29 31
ENDBRANCH 1 27
TORSDOF 20
ENDMDL
MODEL 39
USER: ADFR SOLUTION from run 26
USER: SCORE 16.610592 LL:  -3.501 LR: -14.431 RR:   0.000 FEB:  -8.465
USER: RMSD 4.836029
USER: SEED 25
USER: STATUS 1 or 2 clusters left
USER: GENES 22
USER: genes 0 Translation |==|  0.71441 0.59707 0.43419
USER: genes 1 Rotation |==|  0.68380 0.41760 0.31047 0.91654
USER: genes 2 Torsion [C]-CA--N-[C] |==|  0.61025
USER: genes 3 Torsion [N]-C--CA-[N] |==|  0.07543
USER: genes 4 Torsion [C]-CA--N-[C] |==|  0.64468
USER: genes 5 Torsion [N]-C--CA-[N] |==|  0.86910
USER: genes 6 Torsion [C]-CA--CB-[CG2] |==|  0.63934
USER: genes 7 Torsion [CA]-CB--OG1-[HG1] |==|  0.76365
USER: genes 8 Torsion [C]-CA--CB-[CG] |==|  0.29071
USER: genes 9 Torsion [CA]-CB--CG-[OD2] |==|  0.91608
USER: genes 10 Torsion [N]-CA--CB-[CG] |==|  0.16880
USER: genes 11 Torsion [CA]-CB--CG-[ND1] |==|  0.85603
USER: genes 12 Torsion [N]-CA--C-[N] |==|  0.47319
USER: genes 13 Torsion [C]-N--CA-[C] |==|  0.77654
USER: genes 14 Torsion [N]-CA--C-[N] |==|  0.88943
USER: genes 15 Torsion [C]-N--CA-[CB] |==|  0.48338
USER: genes 16 Torsion [N]-CA--C-[N] |==|  0.52191
USER: genes 17 Torsion [C]-N--CA-[CB] |==|  0.26144
USER: genes 18 Torsion [N]-CA--CB-[CG] |==|  0.40662
USER: genes 19 Torsion [CA]-CB--CG-[CD] |==|  0.25439
USER: genes 20 Torsion [CB]-CG--CD-[OE1] |==|  0.17135
USER: genes 21 Torsion [N]-CA--C-[OXT] |==|  0.41573
ROOT
ATOM      1  CA  HIS A 388     -24.523 -25.823  13.718  1.00 17.64 LIG 0.18  C 
ENDROOT
BRANCH 1 2
ATOM      2  N   HIS A 388     -25.794 -25.453  13.093  1.00 19.60 LIG-0.35  N 
ATOM      3 H    HIS A 388     -26.485 -25.797  13.471  1.00 19.60 LIG 0.16  HD
ATOM      4  C   ASP A 387     -25.856 -24.651  12.028  1.00 22.66 LIG 0.24  C 
ATOM      5 O    ASP A 387     -24.855 -24.149  11.510  1.00 22.02 LIG-0.27  OA
BRANCH 4 6
ATOM      6  CA  ASP A 387     -27.246 -24.351  11.475  1.00 25.57 LIG 0.19  C 
BRANCH 6 7
ATOM      7  N   ASP A 387     -28.177 -24.480  12.615  1.00 28.40 LIG-0.34  N 
ATOM      8 H    ASP A 387     -27.952 -24.022  13.307  1.00 28.40 LIG 0.16  HD
ATOM      9  C   THR A 386     -29.275 -25.250  12.556  1.00 31.30 LIG 0.26  C 
ATOM     10 O    THR A 386     -29.816 -25.570  11.480  1.00 31.60 LIG-0.27  OA
BRANCH 9 11
ATOM     11  CA  THR A 386     -29.908 -25.711  13.893  1.00 33.11 LIG 0.43  C 
ATOM     12  N   THR A 386     -28.922 -26.253  14.877  1.00 33.83 LIG 0.62  N 
BRANCH 11 13
ATOM     13  CB  THR A 386     -30.776 -24.586  14.527  1.00 33.77 LIG 0.16  C 
ATOM     14  CG2 THR A 386     -30.425 -24.349  16.000  1.00 34.60 LIG 0.04  C 
BRANCH 13 15
ATOM     15 OG1  THR A 386     -30.518 -23.329  13.883  1.00 35.18 LIG-0.39  OA
ATOM     16 HG1  THR A 386     -29.849 -22.965  14.238  1.00 35.18 LIG 0.21  HD
ENDBRANCH 13 15
ENDBRANCH 11 13
ENDBRANCH 9 11
ENDBRANCH 6 7
BRANCH 6 17
ATOM     17  CB  ASP A 387     -27.277 -22.929  10.848  1.00 25.68 LIG 0.15  C 
BRANCH 17 18
ATOM     18  CG  ASP A 387     -27.266 -22.945   9.304  1.00 25.80 LIG 0.17  C 
ATOM     19 OD2  ASP A 387     -26.706 -23.853   8.648  1.00 26.75 LIG-0.65  OA
ATOM     20 OD1  ASP A 387     -27.832 -22.036   8.636  1.00 21.65 LIG-0.65  OA
ENDBRANCH 17 18
ENDBRANCH 6 17
ENDBRANCH 4 6
ENDBRANCH 1 2
BRANCH 1 21
ATOM     21  CB  HIS A 388     -24.201 -24.970  14.978  1.00 17.51 LIG 0.10  C 
BRANCH 21 22
ATOM     22  CG  HIS A 388     -25.207 -25.078  16.100  1.00 19.36 LIG 0.06  A 
ATOM     23 ND1  HIS A 388     -26.558 -24.894  15.922  1.00 21.21 LIG-0.24  NA
ATOM     24  CE1 HIS A 388     -27.184 -25.065  17.074  1.00 22.16 LIG 0.23  A 
ATOM     25 NE2  HIS A 388     -26.284 -25.326  18.003  1.00 21.69 LIG-0.25  NA
ATOM     26  CD2 HIS A 388     -25.039 -25.334  17.421  1.00 21.19 LIG 0.14  A 
ENDBRANCH 21 22
ENDBRANCH 1 21
BRANCH 1 27
ATOM     27  C   HIS A 388     -24.567 -27.301  14.129  1.00 15.45 LIG 0.24  C 
ATOM     28 O    HIS A 388     -25.627 -27.904  14.084  1.00 14.42 LIG-0.27  OA
ATOM     29  N   GLY A 389     -23.433 -27.882  14.539  1.00 14.00 LIG-0.35  N 
ATOM     30 H    GLY A 389     -22.669 -27.487  14.561  1.00 14.00 LIG 0.16  HD
BRANCH 29 31
ATOM     31  CA  GLY A 389     -23.414 -29.272  14.993  1.00 13.01 LIG 0.23  C 
BRANCH 31 32
ATOM     32  C   GLY A 389     -23.885 -29.428  16.423  1.00 11.92 LIG 0.24  C 
ATOM     33 O    GLY A 389     -24.590 -30.402  16.781  1.00 12.61 LIG-0.27  OA
ATOM     34  N   ALA A 390     -23.481 -28.494  17.263  1.00 10.53 LIG-0.35  N 
ATOM     35 H    ALA A 390     -22.951 -27.854  17.042  1.00 10.53 LIG 0.16  HD
BRANCH 34 36
ATOM     36  CA  ALA A 390     -23.901 -28.460  18.666  1.00 11.53 LIG 0.17  C 
ATOM     37  CB  ALA A 390     -23.152 -27.362  19.391  1.00 11.91 LIG 0.04  C 
BRANCH 36 38
ATOM     38  C   ALA A 390     -25.418 -28.207  18.766  1.00 13.11 LIG 0.24  C 
ATOM     39  N   GLU A 391     -25.871 -27.996  19.994  1.00 14.39 LIG-0.34  N 
ATOM     40 H    GLU A 391     -25.364 -27.965  20.688  1.00 14.39 LIG 0.16  HD
ATOM     41 O    ALA A 390     -26.165 -28.254  17.780  1.00 12.73 LIG-0.27  OA
BRANCH 39 42
ATOM     42  CA  GLU A 391     -27.265 -27.799  20.281  1.00 15.60 LIG 0.19  C 
BRANCH 42 43
ATOM     43  CB  GLU A 391     -27.892 -29.144  20.666  1.00 17.03 LIG 0.05  C 
BRANCH 43 44
ATOM     44  CG  GLU A 391     -28.990 -29.074  21.691  1.00 23.68 LIG 0.12  C 
BRANCH 44 45
ATOM     45  CD  GLU A 391     -30.353 -28.937  21.016  1.00 29.63 LIG 0.17  C 
ATOM     46 OE1  GLU A 391     -30.728 -29.878  20.253  1.00 31.73 LIG-0.65  OA
ATOM     47 OE2  GLU A 391     -31.000 -27.871  21.209  1.00 33.20 LIG-0.65  OA
ENDBRANCH 44 45
ENDBRANCH 43 44
ENDBRANCH 42 43
BRANCH 42 48
ATOM     48  C   GLU A 391     -27.355 -26.810  21.439  1.00 14.85 LIG 0.20  C 
ATOM     49 OXT  GLU A 391     -28.320 -26.062  21.525  1.00 14.73 LIG-0.65  OA
ATOM     50 O    GLU A 391     -26.454 -26.746  22.275  1.00 14.85 LIG-0.65  OA
ENDBRANCH 42 48
ENDBRANCH 39 42
ENDBRANCH 36 38
ENDBRANCH 34 36
ENDBRANCH 31 32
ENDBRANCH 29 31
ENDBRANCH 1 27
TORSDOF 20
ENDMDL
MODEL 40
USER: ADFR SOLUTION from run 76
USER: SCORE 17.256571 LL:  -3.256 LR: -14.381 RR:   0.000 FEB:  -8.415
USER: RMSD 8.849744
USER: SEED 75
USER: STATUS searching
USER: GENES 22
USER: genes 0 Translation |==|  0.65288 0.64479 0.64114
USER: genes 1 Rotation |==|  0.85970 0.69303 0.45623 0.78538
USER: genes 2 Torsion [C]-CA--N-[C] |==|  0.83678
USER: genes 3 Torsion [N]-C--CA-[N] |==|  0.03679
USER: genes 4 Torsion [C]-CA--N-[C] |==|  0.75556
USER: genes 5 Torsion [N]-C--CA-[N] |==|  0.64647
USER: genes 6 Torsion [C]-CA--CB-[CG2] |==|  0.34811
USER: genes 7 Torsion [CA]-CB--OG1-[HG1] |==|  0.72943
USER: genes 8 Torsion [C]-CA--CB-[CG] |==|  0.74321
USER: genes 9 Torsion [CA]-CB--CG-[OD2] |==|  0.90519
USER: genes 10 Torsion [N]-CA--CB-[CG] |==|  0.23717
USER: genes 11 Torsion [CA]-CB--CG-[ND1] |==|  0.79686
USER: genes 12 Torsion [N]-CA--C-[N] |==|  0.87853
USER: genes 13 Torsion [C]-N--CA-[C] |==|  0.76376
USER: genes 14 Torsion [N]-CA--C-[N] |==|  0.00444
USER: genes 15 Torsion [C]-N--CA-[CB] |==|  0.88307
USER: genes 16 Torsion [N]-CA--C-[N] |==|  0.90588
USER: genes 17 Torsion [C]-N--CA-[CB] |==|  0.25546
USER: genes 18 Torsion [N]-CA--CB-[CG] |==|  0.39543
USER: genes 19 Torsion [CA]-CB--CG-[CD] |==|  0.51344
USER: genes 20 Torsion [CB]-CG--CD-[OE1] |==|  0.36433
USER: genes 21 Torsion [N]-CA--C-[OXT] |==|  0.49351
ROOT
ATOM      1  CA  HIS A 388     -25.723 -24.999  18.219  1.00 17.64 LIG 0.18  C 
ENDROOT
BRANCH 1 2
ATOM      2  N   HIS A 388     -27.075 -25.548  18.102  1.00 19.60 LIG-0.35  N 
ATOM      3 H    HIS A 388     -27.298 -26.074  18.746  1.00 19.60 LIG 0.16  HD
ATOM      4  C   ASP A 387     -27.878 -25.249  17.080  1.00 22.66 LIG 0.24  C 
ATOM      5 O    ASP A 387     -27.549 -24.475  16.175  1.00 22.02 LIG-0.27  OA
BRANCH 4 6
ATOM      6  CA  ASP A 387     -29.260 -25.894  17.081  1.00 25.57 LIG 0.19  C 
BRANCH 6 7
ATOM      7  N   ASP A 387     -29.450 -26.455  18.434  1.00 28.40 LIG-0.34  N 
ATOM      8 H    ASP A 387     -29.835 -25.921  18.986  1.00 28.40 LIG 0.16  HD
ATOM      9  C   THR A 386     -29.048 -27.695  18.755  1.00 31.30 LIG 0.26  C 
ATOM     10 O    THR A 386     -28.880 -28.590  17.904  1.00 31.60 LIG-0.27  OA
BRANCH 9 11
ATOM     11  CA  THR A 386     -28.835 -28.021  20.255  1.00 33.11 LIG 0.43  C 
ATOM     12  N   THR A 386     -27.495 -28.605  20.566  1.00 33.83 LIG 0.62  N 
BRANCH 11 13
ATOM     13  CB  THR A 386     -29.133 -26.785  21.152  1.00 33.77 LIG 0.16  C 
ATOM     14  CG2 THR A 386     -30.168 -27.099  22.237  1.00 34.60 LIG 0.04  C 
BRANCH 13 15
ATOM     15 OG1  THR A 386     -27.955 -26.392  21.873  1.00 35.18 LIG-0.39  OA
ATOM     16 HG1  THR A 386     -27.980 -26.717  22.648  1.00 35.18 LIG 0.21  HD
ENDBRANCH 13 15
ENDBRANCH 11 13
ENDBRANCH 9 11
ENDBRANCH 6 7
BRANCH 6 17
ATOM     17  CB  ASP A 387     -30.344 -24.838  16.726  1.00 25.68 LIG 0.15  C 
BRANCH 17 18
ATOM     18  CG  ASP A 387     -30.956 -24.153  17.967  1.00 25.80 LIG 0.17  C 
ATOM     19 OD2  ASP A 387     -31.124 -24.758  19.050  1.00 26.75 LIG-0.65  OA
ATOM     20 OD1  ASP A 387     -31.310 -22.941  17.939  1.00 21.65 LIG-0.65  OA
ENDBRANCH 17 18
ENDBRANCH 6 17
ENDBRANCH 4 6
ENDBRANCH 1 2
BRANCH 1 21
ATOM     21  CB  HIS A 388     -24.976 -25.501  19.488  1.00 17.51 LIG 0.10  C 
BRANCH 21 22
ATOM     22  CG  HIS A 388     -24.266 -26.825  19.334  1.00 19.36 LIG 0.06  A 
ATOM     23 ND1  HIS A 388     -24.925 -28.031  19.267  1.00 21.21 LIG-0.24  NA
ATOM     24  CE1 HIS A 388     -24.047 -29.008  19.119  1.00 22.16 LIG 0.23  A 
ATOM     25 NE2  HIS A 388     -22.836 -28.483  19.115  1.00 21.69 LIG-0.25  NA
ATOM     26  CD2 HIS A 388     -22.945 -27.120  19.254  1.00 21.19 LIG 0.14  A 
ENDBRANCH 21 22
ENDBRANCH 1 21
BRANCH 1 27
ATOM     27  C   HIS A 388     -24.902 -25.397  16.984  1.00 15.45 LIG 0.24  C 
ATOM     28 O    HIS A 388     -24.202 -24.562  16.435  1.00 14.42 LIG-0.27  OA
ATOM     29  N   GLY A 389     -24.993 -26.656  16.538  1.00 14.00 LIG-0.35  N 
ATOM     30 H    GLY A 389     -25.461 -27.270  16.916  1.00 14.00 LIG 0.16  HD
BRANCH 29 31
ATOM     31  CA  GLY A 389     -24.278 -27.088  15.337  1.00 13.01 LIG 0.23  C 
BRANCH 31 32
ATOM     32  C   GLY A 389     -25.042 -26.796  14.064  1.00 11.92 LIG 0.24  C 
ATOM     33 O    GLY A 389     -24.608 -27.150  12.940  1.00 12.61 LIG-0.27  OA
ATOM     34  N   ALA A 390     -26.198 -26.178  14.219  1.00 10.53 LIG-0.35  N 
ATOM     35 H    ALA A 390     -26.531 -25.982  14.987  1.00 10.53 LIG 0.16  HD
BRANCH 34 36
ATOM     36  CA  ALA A 390     -27.029 -25.764  13.086  1.00 11.53 LIG 0.17  C 
ATOM     37  CB  ALA A 390     -26.149 -25.174  12.005  1.00 11.91 LIG 0.04  C 
BRANCH 36 38
ATOM     38  C   ALA A 390     -27.806 -26.970  12.522  1.00 13.11 LIG 0.24  C 
ATOM     39  N   GLU A 391     -27.166 -28.128  12.585  1.00 14.39 LIG-0.34  N 
ATOM     40 H    GLU A 391     -26.390 -28.222  12.943  1.00 14.39 LIG 0.16  HD
ATOM     41 O    ALA A 390     -28.921 -26.853  11.998  1.00 12.73 LIG-0.27  OA
BRANCH 39 42
ATOM     42  CA  GLU A 391     -27.715 -29.346  12.056  1.00 15.60 LIG 0.19  C 
BRANCH 42 43
ATOM     43  CB  GLU A 391     -27.243 -29.520  10.609  1.00 17.03 LIG 0.05  C 
BRANCH 43 44
ATOM     44  CG  GLU A 391     -26.928 -30.932  10.198  1.00 23.68 LIG 0.12  C 
BRANCH 44 45
ATOM     45  CD  GLU A 391     -26.357 -30.970   8.782  1.00 29.63 LIG 0.17  C 
ATOM     46 OE1  GLU A 391     -25.295 -31.637   8.594  1.00 31.73 LIG-0.65  OA
ATOM     47 OE2  GLU A 391     -26.941 -30.288   7.895  1.00 33.20 LIG-0.65  OA
ENDBRANCH 44 45
ENDBRANCH 43 44
ENDBRANCH 42 43
BRANCH 42 48
ATOM     48  C   GLU A 391     -27.211 -30.490  12.930  1.00 14.85 LIG 0.20  C 
ATOM     49 OXT  GLU A 391     -27.579 -31.634  12.705  1.00 14.73 LIG-0.65  OA
ATOM     50 O    GLU A 391     -26.450 -30.265  13.872  1.00 14.85 LIG-0.65  OA
ENDBRANCH 42 48
ENDBRANCH 39 42
ENDBRANCH 36 38
ENDBRANCH 34 36
ENDBRANCH 31 32
ENDBRANCH 29 31
ENDBRANCH 1 27
TORSDOF 20
ENDMDL
MODEL 41
USER: ADFR SOLUTION from run 132
USER: SCORE 16.815884 LL:  -3.809 LR: -14.348 RR:   0.000 FEB:  -8.382
USER: RMSD 8.268434
USER: SEED 131
USER: STATUS no improvement in best in 10 clusters for 5 generations
USER: GENES 22
USER: genes 0 Translation |==|  0.70307 0.56279 0.69280
USER: genes 1 Rotation |==|  0.97802 0.60299 0.43510 0.58172
USER: genes 2 Torsion [C]-CA--N-[C] |==|  0.17339
USER: genes 3 Torsion [N]-C--CA-[N] |==|  0.38161
USER: genes 4 Torsion [C]-CA--N-[C] |==|  0.87078
USER: genes 5 Torsion [N]-C--CA-[N] |==|  0.88628
USER: genes 6 Torsion [C]-CA--CB-[CG2] |==|  0.69279
USER: genes 7 Torsion [CA]-CB--OG1-[HG1] |==|  0.29656
USER: genes 8 Torsion [C]-CA--CB-[CG] |==|  0.26173
USER: genes 9 Torsion [CA]-CB--CG-[OD2] |==|  0.38210
USER: genes 10 Torsion [N]-CA--CB-[CG] |==|  0.90157
USER: genes 11 Torsion [CA]-CB--CG-[ND1] |==|  0.40185
USER: genes 12 Torsion [N]-CA--C-[N] |==|  0.05562
USER: genes 13 Torsion [C]-N--CA-[C] |==|  0.20717
USER: genes 14 Torsion [N]-CA--C-[N] |==|  0.84141
USER: genes 15 Torsion [C]-N--CA-[CB] |==|  0.49631
USER: genes 16 Torsion [N]-CA--C-[N] |==|  0.46111
USER: genes 17 Torsion [C]-N--CA-[CB] |==|  0.39715
USER: genes 18 Torsion [N]-CA--CB-[CG] |==|  0.21753
USER: genes 19 Torsion [CA]-CB--CG-[CD] |==|  0.57561
USER: genes 20 Torsion [CB]-CG--CD-[OE1] |==|  0.89422
USER: genes 21 Torsion [N]-CA--C-[OXT] |==|  0.61771
ROOT
ATOM      1  CA  HIS A 388     -24.744 -26.414  19.342  1.00 17.64 LIG 0.18  C 
ENDROOT
BRANCH 1 2
ATOM      2  N   HIS A 388     -26.155 -26.026  19.356  1.00 19.60 LIG-0.35  N 
ATOM      3 H    HIS A 388     -26.347 -25.417  19.931  1.00 19.60 LIG 0.16  HD
ATOM      4  C   ASP A 387     -27.053 -26.582  18.540  1.00 22.66 LIG 0.24  C 
ATOM      5 O    ASP A 387     -26.756 -27.441  17.705  1.00 22.02 LIG-0.27  OA
BRANCH 4 6
ATOM      6  CA  ASP A 387     -28.491 -26.087  18.662  1.00 25.57 LIG 0.19  C 
BRANCH 6 7
ATOM      7  N   ASP A 387     -28.990 -25.933  17.280  1.00 28.40 LIG-0.34  N 
ATOM      8 H    ASP A 387     -29.770 -26.269  17.148  1.00 28.40 LIG 0.16  HD
ATOM      9  C   THR A 386     -28.272 -25.319  16.326  1.00 31.30 LIG 0.26  C 
ATOM     10 O    THR A 386     -27.371 -24.498  16.585  1.00 31.60 LIG-0.27  OA
BRANCH 9 11
ATOM     11  CA  THR A 386     -28.625 -25.622  14.848  1.00 33.11 LIG 0.43  C 
ATOM     12  N   THR A 386     -28.930 -27.059  14.577  1.00 33.83 LIG 0.62  N 
BRANCH 11 13
ATOM     13  CB  THR A 386     -29.769 -24.698  14.337  1.00 33.77 LIG 0.16  C 
ATOM     14  CG2 THR A 386     -31.070 -25.471  14.099  1.00 34.60 LIG 0.04  C 
BRANCH 13 15
ATOM     15 OG1  THR A 386     -30.103 -23.717  15.331  1.00 35.18 LIG-0.39  OA
ATOM     16 HG1  THR A 386     -29.814 -22.965  15.092  1.00 35.18 LIG 0.21  HD
ENDBRANCH 13 15
ENDBRANCH 11 13
ENDBRANCH 9 11
ENDBRANCH 6 7
BRANCH 6 17
ATOM     17  CB  ASP A 387     -29.337 -27.098  19.484  1.00 25.68 LIG 0.15  C 
BRANCH 17 18
ATOM     18  CG  ASP A 387     -29.416 -26.747  20.986  1.00 25.80 LIG 0.17  C 
ATOM     19 OD2  ASP A 387     -30.481 -26.833  21.638  1.00 26.75 LIG-0.65  OA
ATOM     20 OD1  ASP A 387     -28.396 -26.361  21.622  1.00 21.65 LIG-0.65  OA
ENDBRANCH 17 18
ENDBRANCH 6 17
ENDBRANCH 4 6
ENDBRANCH 1 2
BRANCH 1 21
ATOM     21  CB  HIS A 388     -24.532 -27.929  19.625  1.00 17.51 LIG 0.10  C 
BRANCH 21 22
ATOM     22  CG  HIS A 388     -25.497 -28.538  20.614  1.00 19.36 LIG 0.06  A 
ATOM     23 ND1  HIS A 388     -25.971 -29.825  20.510  1.00 21.21 LIG-0.24  NA
ATOM     24  CE1 HIS A 388     -26.783 -30.082  21.522  1.00 22.16 LIG 0.23  A 
ATOM     25 NE2  HIS A 388     -26.877 -28.996  22.267  1.00 21.69 LIG-0.25  NA
ATOM     26  CD2 HIS A 388     -26.087 -28.015  21.717  1.00 21.19 LIG 0.14  A 
ENDBRANCH 21 22
ENDBRANCH 1 21
BRANCH 1 27
ATOM     27  C   HIS A 388     -24.138 -26.087  17.970  1.00 15.45 LIG 0.24  C 
ATOM     28 O    HIS A 388     -23.106 -26.637  17.624  1.00 14.42 LIG-0.27  OA
ATOM     29  N   GLY A 389     -24.762 -25.190  17.196  1.00 14.00 LIG-0.35  N 
ATOM     30 H    GLY A 389     -25.501 -24.803  17.405  1.00 14.00 LIG 0.16  HD
BRANCH 29 31
ATOM     31  CA  GLY A 389     -24.212 -24.794  15.900  1.00 13.01 LIG 0.23  C 
BRANCH 31 32
ATOM     32  C   GLY A 389     -24.393 -25.857  14.838  1.00 11.92 LIG 0.24  C 
ATOM     33 O    GLY A 389     -24.970 -25.611  13.751  1.00 12.61 LIG-0.27  OA
ATOM     34  N   ALA A 390     -23.877 -27.039  15.119  1.00 10.53 LIG-0.35  N 
ATOM     35 H    ALA A 390     -23.429 -27.204  15.834  1.00 10.53 LIG 0.16  HD
BRANCH 34 36
ATOM     36  CA  ALA A 390     -24.020 -28.194  14.228  1.00 11.53 LIG 0.17  C 
ATOM     37  CB  ALA A 390     -23.290 -29.380  14.820  1.00 11.91 LIG 0.04  C 
BRANCH 36 38
ATOM     38  C   ALA A 390     -25.510 -28.543  14.038  1.00 13.11 LIG 0.24  C 
ATOM     39  N   GLU A 391     -25.767 -29.373  13.037  1.00 14.39 LIG-0.34  N 
ATOM     40 H    GLU A 391     -25.157 -29.726  12.545  1.00 14.39 LIG 0.16  HD
ATOM     41 O    ALA A 390     -26.402 -28.040  14.732  1.00 12.73 LIG-0.27  OA
BRANCH 39 42
ATOM     42  CA  GLU A 391     -27.103 -29.762  12.679  1.00 15.60 LIG 0.19  C 
BRANCH 42 43
ATOM     43  CB  GLU A 391     -27.198 -29.881  11.154  1.00 17.03 LIG 0.05  C 
BRANCH 43 44
ATOM     44  CG  GLU A 391     -26.620 -31.139  10.567  1.00 23.68 LIG 0.12  C 
BRANCH 44 45
ATOM     45  CD  GLU A 391     -26.151 -30.902   9.133  1.00 29.63 LIG 0.17  C 
ATOM     46 OE1  GLU A 391     -26.857 -30.146   8.401  1.00 31.73 LIG-0.65  OA
ATOM     47 OE2  GLU A 391     -25.121 -31.519   8.744  1.00 33.20 LIG-0.65  OA
ENDBRANCH 44 45
ENDBRANCH 43 44
ENDBRANCH 42 43
BRANCH 42 48
ATOM     48  C   GLU A 391     -27.377 -31.108  13.343  1.00 14.85 LIG 0.20  C 
ATOM     49 OXT  GLU A 391     -27.953 -31.988  12.718  1.00 14.73 LIG-0.65  OA
ATOM     50 O    GLU A 391     -27.039 -31.307  14.511  1.00 14.85 LIG-0.65  OA
ENDBRANCH 42 48
ENDBRANCH 39 42
ENDBRANCH 36 38
ENDBRANCH 34 36
ENDBRANCH 31 32
ENDBRANCH 29 31
ENDBRANCH 1 27
TORSDOF 20
ENDMDL
MODEL 42
USER: ADFR SOLUTION from run 148
USER: SCORE 16.336784 LL:  -3.308 LR: -14.338 RR:   0.000 FEB:  -8.372
USER: RMSD 6.941551
USER: SEED 147
USER: STATUS no improvement in best in 4 clusters for 5 generations
USER: GENES 22
USER: genes 0 Translation |==|  0.62228 0.69070 0.37842
USER: genes 1 Rotation |==|  0.43918 0.06383 0.71873 0.59062
USER: genes 2 Torsion [C]-CA--N-[C] |==|  0.74183
USER: genes 3 Torsion [N]-C--CA-[N] |==|  0.48235
USER: genes 4 Torsion [C]-CA--N-[C] |==|  0.21058
USER: genes 5 Torsion [N]-C--CA-[N] |==|  0.50032
USER: genes 6 Torsion [C]-CA--CB-[CG2] |==|  0.37378
USER: genes 7 Torsion [CA]-CB--OG1-[HG1] |==|  0.47481
USER: genes 8 Torsion [C]-CA--CB-[CG] |==|  0.52955
USER: genes 9 Torsion [CA]-CB--CG-[OD2] |==|  0.32202
USER: genes 10 Torsion [N]-CA--CB-[CG] |==|  0.18292
USER: genes 11 Torsion [CA]-CB--CG-[ND1] |==|  0.95281
USER: genes 12 Torsion [N]-CA--C-[N] |==|  0.49796
USER: genes 13 Torsion [C]-N--CA-[C] |==|  0.20731
USER: genes 14 Torsion [N]-CA--C-[N] |==|  0.05429
USER: genes 15 Torsion [C]-N--CA-[CB] |==|  0.86609
USER: genes 16 Torsion [N]-CA--C-[N] |==|  0.37248
USER: genes 17 Torsion [C]-N--CA-[CB] |==|  0.42485
USER: genes 18 Torsion [N]-CA--CB-[CG] |==|  0.52690
USER: genes 19 Torsion [CA]-CB--CG-[CD] |==|  0.58127
USER: genes 20 Torsion [CB]-CG--CD-[OE1] |==|  0.64779
USER: genes 21 Torsion [N]-CA--C-[OXT] |==|  0.06124
ROOT
ATOM      1  CA  HIS A 388     -26.320 -24.207  12.505  1.00 17.64 LIG 0.18  C 
ENDROOT
BRANCH 1 2
ATOM      2  N   HIS A 388     -25.407 -25.248  12.979  1.00 19.60 LIG-0.35  N 
ATOM      3 H    HIS A 388     -25.108 -25.763  12.359  1.00 19.60 LIG 0.16  HD
ATOM      4  C   ASP A 387     -25.079 -25.373  14.267  1.00 22.66 LIG 0.24  C 
ATOM      5 O    ASP A 387     -25.501 -24.612  15.142  1.00 22.02 LIG-0.27  OA
BRANCH 4 6
ATOM      6  CA  ASP A 387     -24.120 -26.505  14.624  1.00 25.57 LIG 0.19  C 
BRANCH 6 7
ATOM      7  N   ASP A 387     -23.799 -26.332  16.056  1.00 28.40 LIG-0.34  N 
ATOM      8 H    ASP A 387     -23.019 -26.004  16.205  1.00 28.40 LIG 0.16  HD
ATOM      9  C   THR A 386     -24.665 -26.665  17.026  1.00 31.30 LIG 0.26  C 
ATOM     10 O    THR A 386     -25.895 -26.741  16.835  1.00 31.60 LIG-0.27  OA
BRANCH 9 11
ATOM     11  CA  THR A 386     -24.099 -26.915  18.447  1.00 33.11 LIG 0.43  C 
ATOM     12  N   THR A 386     -25.135 -27.282  19.459  1.00 33.83 LIG 0.62  N 
BRANCH 11 13
ATOM     13  CB  THR A 386     -22.942 -27.956  18.422  1.00 33.77 LIG 0.16  C 
ATOM     14  CG2 THR A 386     -21.744 -27.505  19.264  1.00 34.60 LIG 0.04  C 
BRANCH 13 15
ATOM     15 OG1  THR A 386     -23.365 -29.191  19.020  1.00 35.18 LIG-0.39  OA
ATOM     16 HG1  THR A 386     -22.780 -29.780  18.890  1.00 35.18 LIG 0.21  HD
ENDBRANCH 13 15
ENDBRANCH 11 13
ENDBRANCH 9 11
ENDBRANCH 6 7
BRANCH 6 17
ATOM     17  CB  ASP A 387     -24.781 -27.880  14.331  1.00 25.68 LIG 0.15  C 
BRANCH 17 18
ATOM     18  CG  ASP A 387     -23.985 -29.072  14.905  1.00 25.80 LIG 0.17  C 
ATOM     19 OD2  ASP A 387     -24.448 -29.819  15.797  1.00 26.75 LIG-0.65  OA
ATOM     20 OD1  ASP A 387     -22.826 -29.347  14.487  1.00 21.65 LIG-0.65  OA
ENDBRANCH 17 18
ENDBRANCH 6 17
ENDBRANCH 4 6
ENDBRANCH 1 2
BRANCH 1 21
ATOM     21  CB  HIS A 388     -25.956 -23.690  11.084  1.00 17.51 LIG 0.10  C 
BRANCH 21 22
ATOM     22  CG  HIS A 388     -26.106 -24.703   9.974  1.00 19.36 LIG 0.06  A 
ATOM     23 ND1  HIS A 388     -26.198 -26.057  10.196  1.00 21.21 LIG-0.24  NA
ATOM     24  CE1 HIS A 388     -26.335 -26.687   9.042  1.00 22.16 LIG 0.23  A 
ATOM     25 NE2  HIS A 388     -26.308 -25.793   8.072  1.00 21.69 LIG-0.25  NA
ATOM     26  CD2 HIS A 388     -26.159 -24.545   8.628  1.00 21.19 LIG 0.14  A 
ENDBRANCH 21 22
ENDBRANCH 1 21
BRANCH 1 27
ATOM     27  C   HIS A 388     -27.751 -24.761  12.469  1.00 15.45 LIG 0.24  C 
ATOM     28 O    HIS A 388     -27.953 -25.921  12.788  1.00 14.42 LIG-0.27  OA
ATOM     29  N   GLY A 389     -28.738 -23.948  12.073  1.00 14.00 LIG-0.35  N 
ATOM     30 H    GLY A 389     -28.628 -23.122  11.862  1.00 14.00 LIG 0.16  HD
BRANCH 29 31
ATOM     31  CA  GLY A 389     -30.117 -24.426  11.966  1.00 13.01 LIG 0.23  C 
BRANCH 31 32
ATOM     32  C   GLY A 389     -30.783 -24.598  13.314  1.00 11.92 LIG 0.24  C 
ATOM     33 O    GLY A 389     -31.782 -25.342  13.464  1.00 12.61 LIG-0.27  OA
ATOM     34  N   ALA A 390     -30.224 -23.944  14.316  1.00 10.53 LIG-0.35  N 
ATOM     35 H    ALA A 390     -29.506 -23.478  14.236  1.00 10.53 LIG 0.16  HD
BRANCH 34 36
ATOM     36  CA  ALA A 390     -30.782 -23.951  15.670  1.00 11.53 LIG 0.17  C 
ATOM     37  CB  ALA A 390     -32.265 -23.657  15.606  1.00 11.91 LIG 0.04  C 
BRANCH 36 38
ATOM     38  C   ALA A 390     -30.553 -25.322  16.338  1.00 13.11 LIG 0.24  C 
ATOM     39  N   GLU A 391     -30.101 -25.270  17.582  1.00 14.39 LIG-0.34  N 
ATOM     40 H    GLU A 391     -29.973 -24.535  18.010  1.00 14.39 LIG 0.16  HD
ATOM     41 O    ALA A 390     -30.725 -26.389  15.736  1.00 12.73 LIG-0.27  OA
BRANCH 39 42
ATOM     42  CA  GLU A 391     -29.778 -26.449  18.338  1.00 15.60 LIG 0.19  C 
BRANCH 42 43
ATOM     43  CB  GLU A 391     -28.710 -26.099  19.379  1.00 17.03 LIG 0.05  C 
BRANCH 43 44
ATOM     44  CG  GLU A 391     -28.101 -27.271  20.098  1.00 23.68 LIG 0.12  C 
BRANCH 44 45
ATOM     45  CD  GLU A 391     -27.653 -26.873  21.503  1.00 29.63 LIG 0.17  C 
ATOM     46 OE1  GLU A 391     -26.454 -27.123  21.831  1.00 31.73 LIG-0.65  OA
ATOM     47 OE2  GLU A 391     -28.518 -26.373  22.274  1.00 33.20 LIG-0.65  OA
ENDBRANCH 44 45
ENDBRANCH 43 44
ENDBRANCH 42 43
BRANCH 42 48
ATOM     48  C   GLU A 391     -31.061 -26.919  19.017  1.00 14.85 LIG 0.20  C 
ATOM     49 OXT  GLU A 391     -32.146 -26.581  18.565  1.00 14.73 LIG-0.65  OA
ATOM     50 O    GLU A 391     -31.009 -27.621  20.027  1.00 14.85 LIG-0.65  OA
ENDBRANCH 42 48
ENDBRANCH 39 42
ENDBRANCH 36 38
ENDBRANCH 34 36
ENDBRANCH 31 32
ENDBRANCH 29 31
ENDBRANCH 1 27
TORSDOF 20
ENDMDL
MODEL 43
USER: ADFR SOLUTION from run 186
USER: SCORE 16.577723 LL:  -3.752 LR: -14.330 RR:   0.000 FEB:  -8.364
USER: RMSD 9.513267
USER: SEED 185
USER: STATUS searching
USER: GENES 22
USER: genes 0 Translation |==|  0.69630 0.59695 0.51309
USER: genes 1 Rotation |==|  0.15988 0.22236 0.73851 0.51854
USER: genes 2 Torsion [C]-CA--N-[C] |==|  0.73832
USER: genes 3 Torsion [N]-C--CA-[N] |==|  0.09861
USER: genes 4 Torsion [C]-CA--N-[C] |==|  0.18333
USER: genes 5 Torsion [N]-C--CA-[N] |==|  0.53246
USER: genes 6 Torsion [C]-CA--CB-[CG2] |==|  0.38308
USER: genes 7 Torsion [CA]-CB--OG1-[HG1] |==|  0.58013
USER: genes 8 Torsion [C]-CA--CB-[CG] |==|  0.50779
USER: genes 9 Torsion [CA]-CB--CG-[OD2] |==|  0.23010
USER: genes 10 Torsion [N]-CA--CB-[CG] |==|  0.01927
USER: genes 11 Torsion [CA]-CB--CG-[ND1] |==|  0.10862
USER: genes 12 Torsion [N]-CA--C-[N] |==|  0.00987
USER: genes 13 Torsion [C]-N--CA-[C] |==|  0.20053
USER: genes 14 Torsion [N]-CA--C-[N] |==|  0.77202
USER: genes 15 Torsion [C]-N--CA-[CB] |==|  0.46712
USER: genes 16 Torsion [N]-CA--C-[N] |==|  0.45086
USER: genes 17 Torsion [C]-N--CA-[CB] |==|  0.26810
USER: genes 18 Torsion [N]-CA--CB-[CG] |==|  0.79884
USER: genes 19 Torsion [CA]-CB--CG-[CD] |==|  0.80056
USER: genes 20 Torsion [CB]-CG--CD-[OE1] |==|  0.80342
USER: genes 21 Torsion [N]-CA--C-[OXT] |==|  0.43180
ROOT
ATOM      1  CA  HIS A 388     -24.876 -25.825  15.434  1.00 17.64 LIG 0.18  C 
ENDROOT
BRANCH 1 2
ATOM      2  N   HIS A 388     -25.547 -26.392  16.604  1.00 19.60 LIG-0.35  N 
ATOM      3 H    HIS A 388     -25.770 -27.218  16.515  1.00 19.60 LIG 0.16  HD
ATOM      4  C   ASP A 387     -25.785 -25.677  17.704  1.00 22.66 LIG 0.24  C 
ATOM      5 O    ASP A 387     -25.439 -24.497  17.823  1.00 22.02 LIG-0.27  OA
BRANCH 4 6
ATOM      6  CA  ASP A 387     -26.496 -26.392  18.849  1.00 25.57 LIG 0.19  C 
BRANCH 6 7
ATOM      7  N   ASP A 387     -25.999 -27.783  18.834  1.00 28.40 LIG-0.34  N 
ATOM      8 H    ASP A 387     -26.597 -28.368  18.636  1.00 28.40 LIG 0.16  HD
ATOM      9  C   THR A 386     -24.721 -28.088  19.109  1.00 31.30 LIG 0.26  C 
ATOM     10 O    THR A 386     -23.792 -27.265  18.990  1.00 31.60 LIG-0.27  OA
BRANCH 9 11
ATOM     11  CA  THR A 386     -24.401 -29.540  19.545  1.00 33.11 LIG 0.43  C 
ATOM     12  N   THR A 386     -23.023 -29.721  20.092  1.00 33.83 LIG 0.62  N 
BRANCH 11 13
ATOM     13  CB  THR A 386     -25.474 -30.086  20.532  1.00 33.77 LIG 0.16  C 
ATOM     14  CG2 THR A 386     -25.859 -31.535  20.219  1.00 34.60 LIG 0.04  C 
BRANCH 13 15
ATOM     15 OG1  THR A 386     -24.953 -30.126  21.869  1.00 35.18 LIG-0.39  OA
ATOM     16 HG1  THR A 386     -25.330 -30.742  22.298  1.00 35.18 LIG 0.21  HD
ENDBRANCH 13 15
ENDBRANCH 11 13
ENDBRANCH 9 11
ENDBRANCH 6 7
BRANCH 6 17
ATOM     17  CB  ASP A 387     -26.198 -25.675  20.195  1.00 25.68 LIG 0.15  C 
BRANCH 17 18
ATOM     18  CG  ASP A 387     -26.829 -26.383  21.414  1.00 25.80 LIG 0.17  C 
ATOM     19 OD2  ASP A 387     -26.283 -27.360  21.977  1.00 26.75 LIG-0.65  OA
ATOM     20 OD1  ASP A 387     -27.929 -25.997  21.898  1.00 21.65 LIG-0.65  OA
ENDBRANCH 17 18
ENDBRANCH 6 17
ENDBRANCH 4 6
ENDBRANCH 1 2
BRANCH 1 21
ATOM     21  CB  HIS A 388     -23.964 -26.852  14.705  1.00 17.51 LIG 0.10  C 
BRANCH 21 22
ATOM     22  CG  HIS A 388     -24.055 -28.269  15.218  1.00 19.36 LIG 0.06  A 
ATOM     23 ND1  HIS A 388     -25.237 -28.856  15.606  1.00 21.21 LIG-0.24  NA
ATOM     24  CE1 HIS A 388     -25.008 -30.099  15.994  1.00 22.16 LIG 0.23  A 
ATOM     25 NE2  HIS A 388     -23.713 -30.334  15.899  1.00 21.69 LIG-0.25  NA
ATOM     26  CD2 HIS A 388     -23.094 -29.204  15.422  1.00 21.19 LIG 0.14  A 
ENDBRANCH 21 22
ENDBRANCH 1 21
BRANCH 1 27
ATOM     27  C   HIS A 388     -25.928 -25.317  14.438  1.00 15.45 LIG 0.24  C 
ATOM     28 O    HIS A 388     -25.568 -24.855  13.368  1.00 14.42 LIG-0.27  OA
ATOM     29  N   GLY A 389     -27.219 -25.388  14.785  1.00 14.00 LIG-0.35  N 
ATOM     30 H    GLY A 389     -27.504 -25.727  15.522  1.00 14.00 LIG 0.16  HD
BRANCH 29 31
ATOM     31  CA  GLY A 389     -28.270 -24.876  13.905  1.00 13.01 LIG 0.23  C 
BRANCH 31 32
ATOM     32  C   GLY A 389     -28.487 -25.745  12.685  1.00 11.92 LIG 0.24  C 
ATOM     33 O    GLY A 389     -29.425 -26.576  12.627  1.00 12.61 LIG-0.27  OA
ATOM     34  N   ALA A 390     -27.650 -25.544  11.684  1.00 10.53 LIG-0.35  N 
ATOM     35 H    ALA A 390     -27.040 -24.937  11.690  1.00 10.53 LIG 0.16  HD
BRANCH 34 36
ATOM     36  CA  ALA A 390     -27.681 -26.344  10.458  1.00 11.53 LIG 0.17  C 
ATOM     37  CB  ALA A 390     -26.809 -25.691   9.407  1.00 11.91 LIG 0.04  C 
BRANCH 36 38
ATOM     38  C   ALA A 390     -27.174 -27.774  10.737  1.00 13.11 LIG 0.24  C 
ATOM     39  N   GLU A 391     -27.496 -28.671   9.817  1.00 14.39 LIG-0.34  N 
ATOM     40 H    GLU A 391     -27.925 -28.480   9.097  1.00 14.39 LIG 0.16  HD
ATOM     41 O    ALA A 390     -26.562 -28.070  11.771  1.00 12.73 LIG-0.27  OA
BRANCH 39 42
ATOM     42  CA  GLU A 391     -27.156 -30.062   9.940  1.00 15.60 LIG 0.19  C 
BRANCH 42 43
ATOM     43  CB  GLU A 391     -28.357 -30.821  10.515  1.00 17.03 LIG 0.05  C 
BRANCH 43 44
ATOM     44  CG  GLU A 391     -28.638 -30.578  11.972  1.00 23.68 LIG 0.12  C 
BRANCH 44 45
ATOM     45  CD  GLU A 391     -27.579 -31.245  12.847  1.00 29.63 LIG 0.17  C 
ATOM     46 OE1  GLU A 391     -27.586 -32.511  12.916  1.00 31.73 LIG-0.65  OA
ATOM     47 OE2  GLU A 391     -26.798 -30.497  13.497  1.00 33.20 LIG-0.65  OA
ENDBRANCH 44 45
ENDBRANCH 43 44
ENDBRANCH 42 43
BRANCH 42 48
ATOM     48  C   GLU A 391     -26.812 -30.572   8.544  1.00 14.85 LIG 0.20  C 
ATOM     49 OXT  GLU A 391     -26.081 -31.544   8.416  1.00 14.73 LIG-0.65  OA
ATOM     50 O    GLU A 391     -27.251 -29.999   7.546  1.00 14.85 LIG-0.65  OA
ENDBRANCH 42 48
ENDBRANCH 39 42
ENDBRANCH 36 38
ENDBRANCH 34 36
ENDBRANCH 31 32
ENDBRANCH 29 31
ENDBRANCH 1 27
TORSDOF 20
ENDMDL
MODEL 44
USER: ADFR SOLUTION from run 197
USER: SCORE 15.797556 LL:  -2.943 LR: -14.322 RR:   0.000 FEB:  -8.356
USER: RMSD 10.273843
USER: SEED 196
USER: STATUS no improvement in best in 10 clusters for 5 generations
USER: GENES 22
USER: genes 0 Translation |==|  0.68118 0.57208 0.66962
USER: genes 1 Rotation |==|  0.88127 0.80815 0.40706 0.53218
USER: genes 2 Torsion [C]-CA--N-[C] |==|  0.73784
USER: genes 3 Torsion [N]-C--CA-[N] |==|  0.15554
USER: genes 4 Torsion [C]-CA--N-[C] |==|  0.14935
USER: genes 5 Torsion [N]-C--CA-[N] |==|  0.37171
USER: genes 6 Torsion [C]-CA--CB-[CG2] |==|  0.30947
USER: genes 7 Torsion [CA]-CB--OG1-[HG1] |==|  0.30352
USER: genes 8 Torsion [C]-CA--CB-[CG] |==|  0.53741
USER: genes 9 Torsion [CA]-CB--CG-[OD2] |==|  0.25051
USER: genes 10 Torsion [N]-CA--CB-[CG] |==|  0.95691
USER: genes 11 Torsion [CA]-CB--CG-[ND1] |==|  0.66255
USER: genes 12 Torsion [N]-CA--C-[N] |==|  0.02042
USER: genes 13 Torsion [C]-N--CA-[C] |==|  0.21465
USER: genes 14 Torsion [N]-CA--C-[N] |==|  0.51355
USER: genes 15 Torsion [C]-N--CA-[CB] |==|  0.86004
USER: genes 16 Torsion [N]-CA--C-[N] |==|  0.75741
USER: genes 17 Torsion [C]-N--CA-[CB] |==|  0.19860
USER: genes 18 Torsion [N]-CA--CB-[CG] |==|  0.50888
USER: genes 19 Torsion [CA]-CB--CG-[CD] |==|  0.54842
USER: genes 20 Torsion [CB]-CG--CD-[OE1] |==|  0.11063
USER: genes 21 Torsion [N]-CA--C-[OXT] |==|  0.50868
ROOT
ATOM      1  CA  HIS A 388     -25.171 -26.254  18.838  1.00 17.64 LIG 0.18  C 
ENDROOT
BRANCH 1 2
ATOM      2  N   HIS A 388     -26.294 -27.086  19.272  1.00 19.60 LIG-0.35  N 
ATOM      3 H    HIS A 388     -26.319 -27.862  18.904  1.00 19.60 LIG 0.16  HD
ATOM      4  C   ASP A 387     -27.191 -26.661  20.163  1.00 22.66 LIG 0.24  C 
ATOM      5 O    ASP A 387     -27.127 -25.550  20.699  1.00 22.02 LIG-0.27  OA
BRANCH 4 6
ATOM      6  CA  ASP A 387     -28.313 -27.629  20.524  1.00 25.57 LIG 0.19  C 
BRANCH 6 7
ATOM      7  N   ASP A 387     -27.653 -28.864  20.994  1.00 28.40 LIG-0.34  N 
ATOM      8 H    ASP A 387     -27.908 -29.577  20.585  1.00 28.40 LIG 0.16  HD
ATOM      9  C   THR A 386     -26.737 -28.855  21.975  1.00 31.30 LIG 0.26  C 
ATOM     10 O    THR A 386     -26.079 -27.840  22.273  1.00 31.60 LIG-0.27  OA
BRANCH 9 11
ATOM     11  CA  THR A 386     -26.466 -30.185  22.724  1.00 33.11 LIG 0.43  C 
ATOM     12  N   THR A 386     -25.016 -30.496  22.904  1.00 33.83 LIG 0.62  N 
BRANCH 11 13
ATOM     13  CB  THR A 386     -27.226 -30.237  24.081  1.00 33.77 LIG 0.16  C 
ATOM     14  CG2 THR A 386     -28.350 -31.278  24.071  1.00 34.60 LIG 0.04  C 
BRANCH 13 15
ATOM     15 OG1  THR A 386     -26.346 -30.658  25.134  1.00 35.18 LIG-0.39  OA
ATOM     16 HG1  THR A 386     -26.185 -30.008  25.642  1.00 35.18 LIG 0.21  HD
ENDBRANCH 13 15
ENDBRANCH 11 13
ENDBRANCH 9 11
ENDBRANCH 6 7
BRANCH 6 17
ATOM     17  CB  ASP A 387     -29.232 -27.004  21.611  1.00 25.68 LIG 0.15  C 
BRANCH 17 18
ATOM     18  CG  ASP A 387     -30.184 -28.028  22.266  1.00 25.80 LIG 0.17  C 
ATOM     19 OD2  ASP A 387     -29.867 -28.677  23.289  1.00 26.75 LIG-0.65  OA
ATOM     20 OD1  ASP A 387     -31.333 -28.249  21.794  1.00 21.65 LIG-0.65  OA
ENDBRANCH 17 18
ENDBRANCH 6 17
ENDBRANCH 4 6
ENDBRANCH 1 2
BRANCH 1 21
ATOM     21  CB  HIS A 388     -23.880 -27.078  18.565  1.00 17.51 LIG 0.10  C 
BRANCH 21 22
ATOM     22  CG  HIS A 388     -23.883 -28.479  19.128  1.00 19.36 LIG 0.06  A 
ATOM     23 ND1  HIS A 388     -22.942 -28.934  20.023  1.00 21.21 LIG-0.24  NA
ATOM     24  CE1 HIS A 388     -23.208 -30.188  20.345  1.00 22.16 LIG 0.23  A 
ATOM     25 NE2  HIS A 388     -24.274 -30.576  19.670  1.00 21.69 LIG-0.25  NA
ATOM     26  CD2 HIS A 388     -24.711 -29.528  18.897  1.00 21.19 LIG 0.14  A 
ENDBRANCH 21 22
ENDBRANCH 1 21
BRANCH 1 27
ATOM     27  C   HIS A 388     -25.554 -25.511  17.551  1.00 15.45 LIG 0.24  C 
ATOM     28 O    HIS A 388     -24.708 -24.859  16.960  1.00 14.42 LIG-0.27  OA
ATOM     29  N   GLY A 389     -26.819 -25.593  17.121  1.00 14.00 LIG-0.35  N 
ATOM     30 H    GLY A 389     -27.431 -26.060  17.505  1.00 14.00 LIG 0.16  HD
BRANCH 29 31
ATOM     31  CA  GLY A 389     -27.264 -24.869  15.930  1.00 13.01 LIG 0.23  C 
BRANCH 31 32
ATOM     32  C   GLY A 389     -26.827 -25.534  14.643  1.00 11.92 LIG 0.24  C 
ATOM     33 O    GLY A 389     -26.259 -26.653  14.640  1.00 12.61 LIG-0.27  OA
ATOM     34  N   ALA A 390     -27.111 -24.876  13.534  1.00 10.53 LIG-0.35  N 
ATOM     35 H    ALA A 390     -27.551 -24.137  13.520  1.00 10.53 LIG 0.16  HD
BRANCH 34 36
ATOM     36  CA  ALA A 390     -26.700 -25.348  12.210  1.00 11.53 LIG 0.17  C 
ATOM     37  CB  ALA A 390     -25.222 -25.675  12.228  1.00 11.91 LIG 0.04  C 
BRANCH 36 38
ATOM     38  C   ALA A 390     -27.504 -26.603  11.814  1.00 13.11 LIG 0.24  C 
ATOM     39  N   GLU A 391     -26.988 -27.752  12.227  1.00 14.39 LIG-0.34  N 
ATOM     40 H    GLU A 391     -26.278 -27.807  12.709  1.00 14.39 LIG 0.16  HD
ATOM     41 O    ALA A 390     -28.523 -26.544  11.115  1.00 12.73 LIG-0.27  OA
BRANCH 39 42
ATOM     42  CA  GLU A 391     -27.572 -29.023  11.902  1.00 15.60 LIG 0.19  C 
BRANCH 42 43
ATOM     43  CB  GLU A 391     -27.339 -29.316  10.415  1.00 17.03 LIG 0.05  C 
BRANCH 43 44
ATOM     44  CG  GLU A 391     -27.962 -30.585   9.902  1.00 23.68 LIG 0.12  C 
BRANCH 44 45
ATOM     45  CD  GLU A 391     -27.332 -30.999   8.574  1.00 29.63 LIG 0.17  C 
ATOM     46 OE1  GLU A 391     -26.079 -30.853   8.446  1.00 31.73 LIG-0.65  OA
ATOM     47 OE2  GLU A 391     -28.103 -31.405   7.661  1.00 33.20 LIG-0.65  OA
ENDBRANCH 44 45
ENDBRANCH 43 44
ENDBRANCH 42 43
BRANCH 42 48
ATOM     48  C   GLU A 391     -26.890 -30.074  12.772  1.00 14.85 LIG 0.20  C 
ATOM     49 OXT  GLU A 391     -27.178 -31.255  12.638  1.00 14.73 LIG-0.65  OA
ATOM     50 O    GLU A 391     -26.064 -29.737  13.622  1.00 14.85 LIG-0.65  OA
ENDBRANCH 42 48
ENDBRANCH 39 42
ENDBRANCH 36 38
ENDBRANCH 34 36
ENDBRANCH 31 32
ENDBRANCH 29 31
ENDBRANCH 1 27
TORSDOF 20
ENDMDL
MODEL 45
USER: ADFR SOLUTION from run 36
USER: SCORE 15.491684 LL:  -2.543 LR: -14.292 RR:   0.000 FEB:  -8.326
USER: RMSD 9.286251
USER: SEED 35
USER: STATUS no improvement in best in 12 clusters for 5 generations
USER: GENES 22
USER: genes 0 Translation |==|  0.70945 0.60747 0.57577
USER: genes 1 Rotation |==|  0.91547 0.70273 0.31293 0.53586
USER: genes 2 Torsion [C]-CA--N-[C] |==|  0.64756
USER: genes 3 Torsion [N]-C--CA-[N] |==|  0.84831
USER: genes 4 Torsion [C]-CA--N-[C] |==|  0.22202
USER: genes 5 Torsion [N]-C--CA-[N] |==|  0.47467
USER: genes 6 Torsion [C]-CA--CB-[CG2] |==|  0.89591
USER: genes 7 Torsion [CA]-CB--OG1-[HG1] |==|  0.76720
USER: genes 8 Torsion [C]-CA--CB-[CG] |==|  0.33472
USER: genes 9 Torsion [CA]-CB--CG-[OD2] |==|  0.70047
USER: genes 10 Torsion [N]-CA--CB-[CG] |==|  0.83296
USER: genes 11 Torsion [CA]-CB--CG-[ND1] |==|  0.78512
USER: genes 12 Torsion [N]-CA--C-[N] |==|  0.55490
USER: genes 13 Torsion [C]-N--CA-[C] |==|  0.81287
USER: genes 14 Torsion [N]-CA--C-[N] |==|  0.94483
USER: genes 15 Torsion [C]-N--CA-[CB] |==|  0.85000
USER: genes 16 Torsion [N]-CA--C-[N] |==|  0.37341
USER: genes 17 Torsion [C]-N--CA-[CB] |==|  0.50256
USER: genes 18 Torsion [N]-CA--CB-[CG] |==|  0.54431
USER: genes 19 Torsion [CA]-CB--CG-[CD] |==|  0.16752
USER: genes 20 Torsion [CB]-CG--CD-[OE1] |==|  0.28346
USER: genes 21 Torsion [N]-CA--C-[OXT] |==|  0.89888
ROOT
ATOM      1  CA  HIS A 388     -24.620 -25.643  16.797  1.00 17.64 LIG 0.18  C 
ENDROOT
BRANCH 1 2
ATOM      2  N   HIS A 388     -25.800 -25.750  17.656  1.00 19.60 LIG-0.35  N 
ATOM      3 H    HIS A 388     -26.435 -26.225  17.323  1.00 19.60 LIG 0.16  HD
ATOM      4  C   ASP A 387     -25.868 -25.156  18.848  1.00 22.66 LIG 0.24  C 
ATOM      5 O    ASP A 387     -24.938 -24.495  19.320  1.00 22.02 LIG-0.27  OA
BRANCH 4 6
ATOM      6  CA  ASP A 387     -27.159 -25.347  19.638  1.00 25.57 LIG 0.19  C 
BRANCH 6 7
ATOM      7  N   ASP A 387     -28.253 -24.915  18.746  1.00 28.40 LIG-0.34  N 
ATOM      8 H    ASP A 387     -28.545 -24.121  18.904  1.00 28.40 LIG 0.16  HD
ATOM      9  C   THR A 386     -28.738 -25.706  17.776  1.00 31.30 LIG 0.26  C 
ATOM     10 O    THR A 386     -28.082 -26.643  17.280  1.00 31.60 LIG-0.27  OA
BRANCH 9 11
ATOM     11  CA  THR A 386     -30.155 -25.396  17.229  1.00 33.11 LIG 0.43  C 
ATOM     12  N   THR A 386     -30.524 -26.185  16.015  1.00 33.83 LIG 0.62  N 
BRANCH 11 13
ATOM     13  CB  THR A 386     -31.235 -25.534  18.341  1.00 33.77 LIG 0.16  C 
ATOM     14  CG2 THR A 386     -30.937 -26.700  19.290  1.00 34.60 LIG 0.04  C 
BRANCH 13 15
ATOM     15 OG1  THR A 386     -31.241 -24.370  19.182  1.00 35.18 LIG-0.39  OA
ATOM     16 HG1  THR A 386     -30.648 -24.449  19.773  1.00 35.18 LIG 0.21  HD
ENDBRANCH 13 15
ENDBRANCH 11 13
ENDBRANCH 9 11
ENDBRANCH 6 7
BRANCH 6 17
ATOM     17  CB  ASP A 387     -27.306 -26.831  20.073  1.00 25.68 LIG 0.15  C 
BRANCH 17 18
ATOM     18  CG  ASP A 387     -27.389 -27.012  21.604  1.00 25.80 LIG 0.17  C 
ATOM     19 OD2  ASP A 387     -26.447 -27.497  22.273  1.00 26.75 LIG-0.65  OA
ATOM     20 OD1  ASP A 387     -28.417 -26.668  22.250  1.00 21.65 LIG-0.65  OA
ENDBRANCH 17 18
ENDBRANCH 6 17
ENDBRANCH 4 6
ENDBRANCH 1 2
BRANCH 1 21
ATOM     21  CB  HIS A 388     -23.865 -26.994  16.639  1.00 17.51 LIG 0.10  C 
BRANCH 21 22
ATOM     22  CG  HIS A 388     -23.346 -27.594  17.923  1.00 19.36 LIG 0.06  A 
ATOM     23 ND1  HIS A 388     -22.214 -27.143  18.562  1.00 21.21 LIG-0.24  NA
ATOM     24  CE1 HIS A 388     -22.016 -27.847  19.663  1.00 22.16 LIG 0.23  A 
ATOM     25 NE2  HIS A 388     -22.965 -28.761  19.750  1.00 21.69 LIG-0.25  NA
ATOM     26  CD2 HIS A 388     -23.805 -28.627  18.671  1.00 21.19 LIG 0.14  A 
ENDBRANCH 21 22
ENDBRANCH 1 21
BRANCH 1 27
ATOM     27  C   HIS A 388     -25.044 -25.158  15.404  1.00 15.45 LIG 0.24  C 
ATOM     28 O    HIS A 388     -26.122 -24.604  15.265  1.00 14.42 LIG-0.27  OA
ATOM     29  N   GLY A 389     -24.215 -25.372  14.375  1.00 14.00 LIG-0.35  N 
ATOM     30 H    GLY A 389     -23.441 -25.741  14.447  1.00 14.00 LIG 0.16  HD
BRANCH 29 31
ATOM     31  CA  GLY A 389     -24.579 -24.981  13.013  1.00 13.01 LIG 0.23  C 
BRANCH 31 32
ATOM     32  C   GLY A 389     -25.728 -25.794  12.458  1.00 11.92 LIG 0.24  C 
ATOM     33 O    GLY A 389     -26.396 -25.401  11.471  1.00 12.61 LIG-0.27  OA
ATOM     34  N   ALA A 390     -25.955 -26.948  13.058  1.00 10.53 LIG-0.35  N 
ATOM     35 H    ALA A 390     -25.468 -27.254  13.697  1.00 10.53 LIG 0.16  HD
BRANCH 34 36
ATOM     36  CA  ALA A 390     -27.068 -27.824  12.687  1.00 11.53 LIG 0.17  C 
ATOM     37  CB  ALA A 390     -28.364 -27.043  12.741  1.00 11.91 LIG 0.04  C 
BRANCH 36 38
ATOM     38  C   ALA A 390     -26.859 -28.385  11.266  1.00 13.11 LIG 0.24  C 
ATOM     39  N   GLU A 391     -27.088 -29.684  11.137  1.00 14.39 LIG-0.34  N 
ATOM     40 H    GLU A 391     -27.365 -30.183  11.780  1.00 14.39 LIG 0.16  HD
ATOM     41 O    ALA A 390     -26.454 -27.684  10.330  1.00 12.73 LIG-0.27  OA
BRANCH 39 42
ATOM     42  CA  GLU A 391     -26.889 -30.386   9.900  1.00 15.60 LIG 0.19  C 
BRANCH 42 43
ATOM     43  CB  GLU A 391     -27.266 -31.858  10.093  1.00 17.03 LIG 0.05  C 
BRANCH 43 44
ATOM     44  CG  GLU A 391     -26.771 -32.796   9.027  1.00 23.68 LIG 0.12  C 
BRANCH 44 45
ATOM     45  CD  GLU A 391     -25.246 -32.774   8.951  1.00 29.63 LIG 0.17  C 
ATOM     46 OE1  GLU A 391     -24.616 -33.735   9.486  1.00 31.73 LIG-0.65  OA
ATOM     47 OE2  GLU A 391     -24.700 -31.771   8.412  1.00 33.20 LIG-0.65  OA
ENDBRANCH 44 45
ENDBRANCH 43 44
ENDBRANCH 42 43
BRANCH 42 48
ATOM     48  C   GLU A 391     -27.789 -29.730   8.856  1.00 14.85 LIG 0.20  C 
ATOM     49 OXT  GLU A 391     -28.893 -29.315   9.180  1.00 14.73 LIG-0.65  OA
ATOM     50 O    GLU A 391     -27.417 -29.633   7.686  1.00 14.85 LIG-0.65  OA
ENDBRANCH 42 48
ENDBRANCH 39 42
ENDBRANCH 36 38
ENDBRANCH 34 36
ENDBRANCH 31 32
ENDBRANCH 29 31
ENDBRANCH 1 27
TORSDOF 20
ENDMDL
MODEL 46
USER: ADFR SOLUTION from run 39
USER: SCORE 14.979950 LL:  -3.371 LR: -14.282 RR:   0.000 FEB:  -8.316
USER: RMSD 4.142695
USER: SEED 38
USER: STATUS no improvement in best in 4 clusters for 5 generations
USER: GENES 22
USER: genes 0 Translation |==|  0.65260 0.57799 0.43702
USER: genes 1 Rotation |==|  0.60914 0.56988 0.45719 0.98101
USER: genes 2 Torsion [C]-CA--N-[C] |==|  0.81159
USER: genes 3 Torsion [N]-C--CA-[N] |==|  0.18361
USER: genes 4 Torsion [C]-CA--N-[C] |==|  0.76134
USER: genes 5 Torsion [N]-C--CA-[N] |==|  0.29418
USER: genes 6 Torsion [C]-CA--CB-[CG2] |==|  0.73810
USER: genes 7 Torsion [CA]-CB--OG1-[HG1] |==|  0.36681
USER: genes 8 Torsion [C]-CA--CB-[CG] |==|  0.19856
USER: genes 9 Torsion [CA]-CB--CG-[OD2] |==|  0.48183
USER: genes 10 Torsion [N]-CA--CB-[CG] |==|  0.18795
USER: genes 11 Torsion [CA]-CB--CG-[ND1] |==|  0.29473
USER: genes 12 Torsion [N]-CA--C-[N] |==|  0.94286
USER: genes 13 Torsion [C]-N--CA-[C] |==|  0.43888
USER: genes 14 Torsion [N]-CA--C-[N] |==|  0.87899
USER: genes 15 Torsion [C]-N--CA-[CB] |==|  0.28206
USER: genes 16 Torsion [N]-CA--C-[N] |==|  0.73112
USER: genes 17 Torsion [C]-N--CA-[CB] |==|  0.16411
USER: genes 18 Torsion [N]-CA--CB-[CG] |==|  0.43737
USER: genes 19 Torsion [CA]-CB--CG-[CD] |==|  0.25673
USER: genes 20 Torsion [CB]-CG--CD-[OE1] |==|  0.39903
USER: genes 21 Torsion [N]-CA--C-[OXT] |==|  0.91912
ROOT
ATOM      1  CA  HIS A 388     -25.728 -26.152  13.779  1.00 17.64 LIG 0.18  C 
ENDROOT
BRANCH 1 2
ATOM      2  N   HIS A 388     -26.971 -26.923  13.833  1.00 19.60 LIG-0.35  N 
ATOM      3 H    HIS A 388     -27.512 -26.675  14.453  1.00 19.60 LIG 0.16  HD
ATOM      4  C   ASP A 387     -27.225 -27.922  12.985  1.00 22.66 LIG 0.24  C 
ATOM      5 O    ASP A 387     -26.445 -28.251  12.086  1.00 22.02 LIG-0.27  OA
BRANCH 4 6
ATOM      6  CA  ASP A 387     -28.557 -28.645  13.155  1.00 25.57 LIG 0.19  C 
BRANCH 6 7
ATOM      7  N   ASP A 387     -29.604 -27.657  12.823  1.00 28.40 LIG-0.34  N 
ATOM      8 H    ASP A 387     -29.867 -27.684  12.004  1.00 28.40 LIG 0.16  HD
ATOM      9  C   THR A 386     -30.091 -26.800  13.733  1.00 31.30 LIG 0.26  C 
ATOM     10 O    THR A 386     -30.033 -27.015  14.960  1.00 31.60 LIG-0.27  OA
BRANCH 9 11
ATOM     11  CA  THR A 386     -30.794 -25.518  13.218  1.00 33.11 LIG 0.43  C 
ATOM     12  N   THR A 386     -32.282 -25.545  13.353  1.00 33.83 LIG 0.62  N 
BRANCH 11 13
ATOM     13  CB  THR A 386     -30.192 -24.239  13.869  1.00 33.77 LIG 0.16  C 
ATOM     14  CG2 THR A 386     -30.979 -23.800  15.108  1.00 34.60 LIG 0.04  C 
BRANCH 13 15
ATOM     15 OG1  THR A 386     -28.865 -24.500  14.352  1.00 35.18 LIG-0.39  OA
ATOM     16 HG1  THR A 386     -28.348 -23.888  14.096  1.00 35.18 LIG 0.21  HD
ENDBRANCH 13 15
ENDBRANCH 11 13
ENDBRANCH 9 11
ENDBRANCH 6 7
BRANCH 6 17
ATOM     17  CB  ASP A 387     -28.611 -29.892  12.230  1.00 25.68 LIG 0.15  C 
BRANCH 17 18
ATOM     18  CG  ASP A 387     -27.686 -31.037  12.698  1.00 25.80 LIG 0.17  C 
ATOM     19 OD2  ASP A 387     -27.685 -32.163  12.149  1.00 26.75 LIG-0.65  OA
ATOM     20 OD1  ASP A 387     -26.883 -30.878  13.658  1.00 21.65 LIG-0.65  OA
ENDBRANCH 17 18
ENDBRANCH 6 17
ENDBRANCH 4 6
ENDBRANCH 1 2
BRANCH 1 21
ATOM     21  CB  HIS A 388     -25.748 -24.912  14.718  1.00 17.51 LIG 0.10  C 
BRANCH 21 22
ATOM     22  CG  HIS A 388     -25.761 -25.226  16.196  1.00 19.36 LIG 0.06  A 
ATOM     23 ND1  HIS A 388     -24.666 -25.061  17.011  1.00 21.21 LIG-0.24  NA
ATOM     24  CE1 HIS A 388     -24.980 -25.401  18.249  1.00 22.16 LIG 0.23  A 
ATOM     25 NE2  HIS A 388     -26.235 -25.809  18.264  1.00 21.69 LIG-0.25  NA
ATOM     26  CD2 HIS A 388     -26.744 -25.715  16.991  1.00 21.19 LIG 0.14  A 
ENDBRANCH 21 22
ENDBRANCH 1 21
BRANCH 1 27
ATOM     27  C   HIS A 388     -24.552 -27.050  14.186  1.00 15.45 LIG 0.24  C 
ATOM     28 O    HIS A 388     -23.420 -26.746  13.847  1.00 14.42 LIG-0.27  OA
ATOM     29  N   GLY A 389     -24.810 -28.156  14.895  1.00 14.00 LIG-0.35  N 
ATOM     30 H    GLY A 389     -25.594 -28.384  15.165  1.00 14.00 LIG 0.16  HD
BRANCH 29 31
ATOM     31  CA  GLY A 389     -23.743 -29.082  15.272  1.00 13.01 LIG 0.23  C 
BRANCH 31 32
ATOM     32  C   GLY A 389     -24.105 -29.939  16.466  1.00 11.92 LIG 0.24  C 
ATOM     33 O    GLY A 389     -23.828 -31.162  16.506  1.00 12.61 LIG-0.27  OA
ATOM     34  N   ALA A 390     -24.696 -29.308  17.463  1.00 10.53 LIG-0.35  N 
ATOM     35 H    ALA A 390     -24.838 -28.460  17.471  1.00 10.53 LIG 0.16  HD
BRANCH 34 36
ATOM     36  CA  ALA A 390     -25.170 -30.002  18.664  1.00 11.53 LIG 0.17  C 
ATOM     37  CB  ALA A 390     -24.183 -29.789  19.791  1.00 11.91 LIG 0.04  C 
BRANCH 36 38
ATOM     38  C   ALA A 390     -26.555 -29.469  19.080  1.00 13.11 LIG 0.24  C 
ATOM     39  N   GLU A 391     -26.537 -28.540  20.024  1.00 14.39 LIG-0.34  N 
ATOM     40 H    GLU A 391     -25.814 -28.223  20.364  1.00 14.39 LIG 0.16  HD
ATOM     41 O    ALA A 390     -27.607 -29.917  18.607  1.00 12.73 LIG-0.27  OA
BRANCH 39 42
ATOM     42  CA  GLU A 391     -27.737 -27.972  20.573  1.00 15.60 LIG 0.19  C 
BRANCH 42 43
ATOM     43  CB  GLU A 391     -28.585 -29.091  21.188  1.00 17.03 LIG 0.05  C 
BRANCH 43 44
ATOM     44  CG  GLU A 391     -29.570 -28.652  22.237  1.00 23.68 LIG 0.12  C 
BRANCH 44 45
ATOM     45  CD  GLU A 391     -30.932 -28.357  21.612  1.00 29.63 LIG 0.17  C 
ATOM     46 OE1  GLU A 391     -31.964 -28.661  22.281  1.00 31.73 LIG-0.65  OA
ATOM     47 OE2  GLU A 391     -30.950 -27.883  20.442  1.00 33.20 LIG-0.65  OA
ENDBRANCH 44 45
ENDBRANCH 43 44
ENDBRANCH 42 43
BRANCH 42 48
ATOM     48  C   GLU A 391     -27.317 -26.964  21.639  1.00 14.85 LIG 0.20  C 
ATOM     49 OXT  GLU A 391     -26.271 -27.129  22.252  1.00 14.73 LIG-0.65  OA
ATOM     50 O    GLU A 391     -28.034 -25.997  21.899  1.00 14.85 LIG-0.65  OA
ENDBRANCH 42 48
ENDBRANCH 39 42
ENDBRANCH 36 38
ENDBRANCH 34 36
ENDBRANCH 31 32
ENDBRANCH 29 31
ENDBRANCH 1 27
TORSDOF 20
ENDMDL
