MODEL 1
USER: ADFR SOLUTION from run 83
USER: SCORE 13.182114 LL:  -2.583 LR: -10.765 RR:   0.000 FEB:  -6.589
USER: RMSD 7.999484
USER: SEED 82
USER: STATUS no improvement in best in 10 clusters for 5 generations
USER: GENES 16
USER: genes 0 Translation |==|  0.30171 0.29919 0.66172
USER: genes 1 Rotation |==|  0.88575 0.34446 0.77452 0.54054
USER: genes 2 Torsion [N]-CA--C-[N] |==|  0.75578
USER: genes 3 Torsion [C]-N--CA-[CB] |==|  0.83479
USER: genes 4 Torsion [N]-CA--CB-[CG2] |==|  0.57968
USER: genes 5 Torsion [CA]-CB--OG1-[HG1] |==|  0.96530
USER: genes 6 Torsion [N]-CA--C-[N] |==|  0.33459
USER: genes 7 Torsion [C]-N--CA-[CB] |==|  0.24359
USER: genes 8 Torsion [N]-CA--CB-[CG] |==|  0.73684
USER: genes 9 Torsion [CA]-CB--CG-[CD1] |==|  0.92573
USER: genes 10 Torsion [N]-CA--C-[O] |==|  0.60050
USER: genes 11 Torsion [O]-C--CA-[N] |==|  0.92263
USER: genes 12 Torsion [N]-C--CA-[N] |==|  0.81398
USER: genes 13 Torsion [C]-CA--CB-[CG] |==|  0.30725
USER: genes 14 Torsion [CA]-CB--CG-[SD] |==|  0.51081
USER: genes 15 Torsion [CB]-CG--SD-[CE] |==|  0.58385
ROOT
ATOM      1  C   PRO R   4       2.197  -3.905 -11.878  1.00 60.54 LIG 0.24  C 
ATOM      2 O    PRO R   4       1.966  -3.154 -10.928  1.00 63.53 LIG-0.27  OA
ATOM      3  N   PRO R   5       3.144  -4.860 -11.849  1.00 48.92 LIG-0.34  N 
ATOM      4  CA  PRO R   5       4.001  -5.037 -10.669  1.00 52.68 LIG 0.18  C 
ATOM      5  CB  PRO R   5       4.913  -6.201 -11.071  1.00 55.54 LIG 0.04  C 
ATOM      6  CG  PRO R   5       4.141  -6.962 -12.082  1.00 46.13 LIG 0.02  C 
ATOM      7  CD  PRO R   5       3.337  -5.938 -12.836  1.00 43.47 LIG 0.13  C 
ENDROOT
BRANCH 4 8
ATOM      8  C   PRO R   5       4.851  -3.807 -10.338  1.00 58.07 LIG 0.24  C 
ATOM      9 O    PRO R   5       4.434  -2.948  -9.557  1.00 51.36 LIG-0.27  OA
ATOM     10  N   THR R   6       6.034  -3.733 -10.943  1.00 69.24 LIG-0.34  N 
ATOM     11 H    THR R   6       6.348  -4.351 -11.452  1.00 69.24 LIG 0.16  HD
BRANCH 10 12
ATOM     12  CA  THR R   6       6.913  -2.578 -10.793  1.00 55.31 LIG 0.20  C 
BRANCH 12 13
ATOM     13  CB  THR R   6       6.233  -1.278 -11.275  1.00 60.29 LIG 0.15  C 
ATOM     14  CG2 THR R   6       7.265  -0.281 -11.780  1.00 62.01 LIG 0.04  C 
BRANCH 13 15
ATOM     15 OG1  THR R   6       5.316  -1.578 -12.335  1.00 91.48 LIG-0.39  OA
ATOM     16 HG1  THR R   6       5.447  -2.362 -12.605  1.00 91.48 LIG 0.21  HD
ENDBRANCH 13 15
ENDBRANCH 12 13
BRANCH 12 17
ATOM     17  C   THR R   6       7.314  -2.424  -9.333  1.00 56.48 LIG 0.24  C 
ATOM     18  N   LEU R   7       8.618  -2.480  -9.072  1.00 43.78 LIG-0.35  N 
ATOM     19 H    LEU R   7       9.224  -2.581  -9.674  1.00 43.78 LIG 0.16  HD
ATOM     20 O    THR R   6       6.457  -2.262  -8.461  1.00 41.48 LIG-0.27  OA
BRANCH 18 21
ATOM     21  CA  LEU R   7       9.130  -2.372  -7.713  1.00 53.52 LIG 0.16  C 
BRANCH 21 22
ATOM     22  CB  LEU R   7       9.172  -3.749  -7.047  1.00 41.32 LIG 0.04  C 
BRANCH 22 23
ATOM     23  CG  LEU R   7       7.944  -4.098  -6.200  1.00 48.65 LIG-0.02  C 
ATOM     24  CD1 LEU R   7       7.266  -2.845  -5.660  1.00 40.28 LIG 0.01  C 
ATOM     25  CD2 LEU R   7       6.957  -4.942  -6.998  1.00 37.72 LIG 0.01  C 
ENDBRANCH 22 23
ENDBRANCH 21 22
BRANCH 21 26
ATOM     26  C   LEU R   7      10.510  -1.720  -7.685  1.00 46.73 LIG 0.22  C 
ATOM     27 O    LEU R   7      11.365  -2.089  -6.878  1.00 57.50 LIG-0.29  OA
ENDBRANCH 21 26
ENDBRANCH 18 21
ENDBRANCH 12 17
ENDBRANCH 10 12
ENDBRANCH 4 8
BRANCH 1 28
ATOM     28  CA  PRO R   4       1.369  -3.760 -13.155  1.00 54.23 LIG 0.18  C 
ATOM     29  N   PRO R   4       0.045  -3.222 -12.829  1.00 66.40 LIG-0.34  N 
ATOM     30  CD  PRO R   4      -0.009  -1.773 -13.071  1.00 55.20 LIG 0.13  C 
ATOM     31  C   MET R   3      -1.059  -3.900 -12.469  1.00 65.13 LIG 0.26  C 
ATOM     32  CG  PRO R   4       0.914  -1.615 -14.236  1.00 51.34 LIG 0.02  C 
ATOM     33  CB  PRO R   4       1.979  -2.670 -14.058  1.00 43.90 LIG 0.04  C 
ATOM     34 O    MET R   3      -2.109  -3.335 -12.153  1.00 74.37 LIG-0.27  OA
BRANCH 31 35
ATOM     35  CA  MET R   3      -0.983  -5.425 -12.469  1.00 67.30 LIG 0.40  C 
ATOM     36  N   MET R   3      -0.827  -5.986 -13.808  1.00 55.69 LIG 0.61  N 
BRANCH 35 37
ATOM     37  CB  MET R   3       0.174  -5.857 -11.560  1.00 55.44 LIG 0.06  C 
BRANCH 37 38
ATOM     38  CG  MET R   3      -0.234  -6.540 -10.274  1.00 49.90 LIG 0.08  C 
BRANCH 38 39
ATOM     39 SD   MET R   3       1.224  -6.880  -9.270  1.00 67.63 LIG-0.17  SA
ATOM     40  CE  MET R   3       0.702  -8.359  -8.403  1.00 69.90 LIG 0.09  C 
ENDBRANCH 38 39
ENDBRANCH 37 38
ENDBRANCH 35 37
ENDBRANCH 31 35
ENDBRANCH 1 28
TORSDOF 14
ENDMDL
MODEL 2
USER: ADFR SOLUTION from run 102
USER: SCORE 12.354326 LL:  -2.906 LR: -10.555 RR:   0.000 FEB:  -6.379
USER: RMSD 9.271546
USER: SEED 101
USER: STATUS no improvement in best in 26 clusters for 5 generations
USER: GENES 16
USER: genes 0 Translation |==|  0.28665 0.36164 0.55554
USER: genes 1 Rotation |==|  0.38090 0.59304 0.97506 0.53845
USER: genes 2 Torsion [N]-CA--C-[N] |==|  0.89839
USER: genes 3 Torsion [C]-N--CA-[CB] |==|  0.22205
USER: genes 4 Torsion [N]-CA--CB-[CG2] |==|  0.63130
USER: genes 5 Torsion [CA]-CB--OG1-[HG1] |==|  0.17190
USER: genes 6 Torsion [N]-CA--C-[N] |==|  0.27418
USER: genes 7 Torsion [C]-N--CA-[CB] |==|  0.87853
USER: genes 8 Torsion [N]-CA--CB-[CG] |==|  0.39295
USER: genes 9 Torsion [CA]-CB--CG-[CD1] |==|  0.40408
USER: genes 10 Torsion [N]-CA--C-[O] |==|  0.02401
USER: genes 11 Torsion [O]-C--CA-[N] |==|  0.80974
USER: genes 12 Torsion [N]-C--CA-[N] |==|  0.33808
USER: genes 13 Torsion [C]-CA--CB-[CG] |==|  0.44139
USER: genes 14 Torsion [CA]-CB--CG-[SD] |==|  0.28121
USER: genes 15 Torsion [CB]-CG--SD-[CE] |==|  0.24729
ROOT
ATOM      1  C   PRO R   4       1.926  -2.641 -14.028  1.00 60.54 LIG 0.24  C 
ATOM      2 O    PRO R   4       2.016  -2.346 -15.222  1.00 63.53 LIG-0.27  OA
ATOM      3  N   PRO R   5       0.854  -2.338 -13.274  1.00 48.92 LIG-0.34  N 
ATOM      4  CA  PRO R   5      -0.277  -1.587 -13.838  1.00 52.68 LIG 0.18  C 
ATOM      5  CB  PRO R   5      -1.241  -1.467 -12.652  1.00 55.54 LIG 0.04  C 
ATOM      6  CG  PRO R   5      -0.921  -2.621 -11.778  1.00 46.13 LIG 0.02  C 
ATOM      7  CD  PRO R   5       0.561  -2.839 -11.919  1.00 43.47 LIG 0.13  C 
ENDROOT
BRANCH 4 8
ATOM      8  C   PRO R   5       0.102  -0.190 -14.336  1.00 58.07 LIG 0.24  C 
ATOM      9 O    PRO R   5      -0.421   0.276 -15.352  1.00 51.36 LIG-0.27  OA
ATOM     10  N   THR R   6       1.014   0.462 -13.619  1.00 69.24 LIG-0.34  N 
ATOM     11 H    THR R   6       1.347   0.160 -12.886  1.00 69.24 LIG 0.16  HD
BRANCH 10 12
ATOM     12  CA  THR R   6       1.536   1.763 -14.021  1.00 55.31 LIG 0.20  C 
BRANCH 12 13
ATOM     13  CB  THR R   6       0.564   2.906 -13.653  1.00 60.29 LIG 0.15  C 
ATOM     14  CG2 THR R   6       0.366   3.850 -14.829  1.00 62.01 LIG 0.04  C 
BRANCH 13 15
ATOM     15 OG1  THR R   6      -0.706   2.355 -13.278  1.00 91.48 LIG-0.39  OA
ATOM     16 HG1  THR R   6      -0.611   1.870 -12.600  1.00 91.48 LIG 0.21  HD
ENDBRANCH 13 15
ENDBRANCH 12 13
BRANCH 12 17
ATOM     17  C   THR R   6       2.878   2.009 -13.347  1.00 56.48 LIG 0.24  C 
ATOM     18  N   LEU R   7       3.959   1.761 -14.082  1.00 43.78 LIG-0.35  N 
ATOM     19 H    LEU R   7       3.934   1.491 -14.899  1.00 43.78 LIG 0.16  HD
ATOM     20 O    THR R   6       2.931   2.411 -12.183  1.00 41.48 LIG-0.27  OA
BRANCH 18 21
ATOM     21  CA  LEU R   7       5.303   1.932 -13.546  1.00 53.52 LIG 0.16  C 
BRANCH 21 22
ATOM     22  CB  LEU R   7       5.398   3.237 -12.753  1.00 41.32 LIG 0.04  C 
BRANCH 22 23
ATOM     23  CG  LEU R   7       6.248   3.163 -11.481  1.00 48.65 LIG-0.02  C 
ATOM     24  CD1 LEU R   7       6.986   4.471 -11.226  1.00 40.28 LIG 0.01  C 
ATOM     25  CD2 LEU R   7       5.391   2.786 -10.278  1.00 37.72 LIG 0.01  C 
ENDBRANCH 22 23
ENDBRANCH 21 22
BRANCH 21 26
ATOM     26  C   LEU R   7       5.714   0.745 -12.676  1.00 46.73 LIG 0.22  C 
ATOM     27 O    LEU R   7       5.016  -0.269 -12.626  1.00 57.50 LIG-0.29  OA
ENDBRANCH 21 26
ENDBRANCH 18 21
ENDBRANCH 12 17
ENDBRANCH 10 12
ENDBRANCH 4 8
BRANCH 1 28
ATOM     28  CA  PRO R   4       3.077  -3.393 -13.362  1.00 54.23 LIG 0.18  C 
ATOM     29  N   PRO R   4       3.158  -4.754 -13.900  1.00 66.40 LIG-0.34  N 
ATOM     30  CD  PRO R   4       4.190  -4.847 -14.943  1.00 55.20 LIG 0.13  C 
ATOM     31  C   MET R   3       2.506  -5.852 -13.479  1.00 65.13 LIG 0.26  C 
ATOM     32  CG  PRO R   4       5.207  -3.861 -14.467  1.00 51.34 LIG 0.02  C 
ATOM     33  CB  PRO R   4       4.424  -2.770 -13.777  1.00 43.90 LIG 0.04  C 
ATOM     34 O    MET R   3       2.602  -6.940 -14.051  1.00 74.37 LIG-0.27  OA
BRANCH 31 35
ATOM     35  CA  MET R   3       1.627  -5.718 -12.237  1.00 67.30 LIG 0.40  C 
ATOM     36  N   MET R   3       0.233  -6.077 -12.487  1.00 55.69 LIG 0.61  N 
BRANCH 35 37
ATOM     37  CB  MET R   3       2.220  -6.589 -11.123  1.00 55.44 LIG 0.06  C 
BRANCH 37 38
ATOM     38  CG  MET R   3       1.801  -6.214  -9.718  1.00 49.90 LIG 0.08  C 
BRANCH 38 39
ATOM     39 SD   MET R   3       0.516  -7.337  -9.139  1.00 67.63 LIG-0.17  SA
ATOM     40  CE  MET R   3       1.505  -8.637  -8.403  1.00 69.90 LIG 0.09  C 
ENDBRANCH 38 39
ENDBRANCH 37 38
ENDBRANCH 35 37
ENDBRANCH 31 35
ENDBRANCH 1 28
TORSDOF 14
ENDMDL
MODEL 3
USER: ADFR SOLUTION from run 134
USER: SCORE 12.524482 LL:  -3.072 LR: -10.436 RR:   0.000 FEB:  -6.259
USER: RMSD 9.850267
USER: SEED 133
USER: STATUS no improvement in best in 10 clusters for 5 generations
USER: GENES 16
USER: genes 0 Translation |==|  0.29434 0.31095 0.64738
USER: genes 1 Rotation |==|  0.20344 0.50693 0.90249 0.50306
USER: genes 2 Torsion [N]-CA--C-[N] |==|  0.41003
USER: genes 3 Torsion [C]-N--CA-[CB] |==|  0.92154
USER: genes 4 Torsion [N]-CA--CB-[CG2] |==|  0.44416
USER: genes 5 Torsion [CA]-CB--OG1-[HG1] |==|  0.41371
USER: genes 6 Torsion [N]-CA--C-[N] |==|  0.81667
USER: genes 7 Torsion [C]-N--CA-[CB] |==|  0.36688
USER: genes 8 Torsion [N]-CA--CB-[CG] |==|  0.49106
USER: genes 9 Torsion [CA]-CB--CG-[CD1] |==|  0.22839
USER: genes 10 Torsion [N]-CA--C-[O] |==|  0.76280
USER: genes 11 Torsion [O]-C--CA-[N] |==|  0.89768
USER: genes 12 Torsion [N]-C--CA-[N] |==|  0.40583
USER: genes 13 Torsion [C]-CA--CB-[CG] |==|  0.17951
USER: genes 14 Torsion [CA]-CB--CG-[SD] |==|  0.27276
USER: genes 15 Torsion [CB]-CG--SD-[CE] |==|  0.22247
ROOT
ATOM      1  C   PRO R   4       2.064  -3.667 -12.169  1.00 60.54 LIG 0.24  C 
ATOM      2 O    PRO R   4       2.788  -3.028 -12.934  1.00 63.53 LIG-0.27  OA
ATOM      3  N   PRO R   5       0.748  -3.848 -12.379  1.00 48.92 LIG-0.34  N 
ATOM      4  CA  PRO R   5       0.080  -3.245 -13.540  1.00 52.68 LIG 0.18  C 
ATOM      5  CB  PRO R   5      -1.377  -3.696 -13.378  1.00 55.54 LIG 0.04  C 
ATOM      6  CG  PRO R   5      -1.305  -4.949 -12.589  1.00 46.13 LIG 0.02  C 
ATOM      7  CD  PRO R   5      -0.140  -4.773 -11.652  1.00 43.47 LIG 0.13  C 
ENDROOT
BRANCH 4 8
ATOM      8  C   PRO R   5       0.145  -1.715 -13.559  1.00 58.07 LIG 0.24  C 
ATOM      9 O    PRO R   5       0.141  -1.074 -12.505  1.00 51.36 LIG-0.27  OA
ATOM     10  N   THR R   6       0.199  -1.146 -14.760  1.00 69.24 LIG-0.34  N 
ATOM     11 H    THR R   6       0.248  -1.589 -15.496  1.00 69.24 LIG 0.16  HD
BRANCH 10 12
ATOM     12  CA  THR R   6       0.176   0.302 -14.937  1.00 55.31 LIG 0.20  C 
BRANCH 12 13
ATOM     13  CB  THR R   6      -0.583   1.004 -13.789  1.00 60.29 LIG 0.15  C 
ATOM     14  CG2 THR R   6      -0.195   2.472 -13.700  1.00 62.01 LIG 0.04  C 
BRANCH 13 15
ATOM     15 OG1  THR R   6      -1.995   0.907 -14.015  1.00 91.48 LIG-0.39  OA
ATOM     16 HG1  THR R   6      -2.396   0.881 -13.278  1.00 91.48 LIG 0.21  HD
ENDBRANCH 13 15
ENDBRANCH 12 13
BRANCH 12 17
ATOM     17  C   THR R   6       1.601   0.835 -14.996  1.00 56.48 LIG 0.24  C 
ATOM     18  N   LEU R   7       2.318   0.721 -13.881  1.00 43.78 LIG-0.35  N 
ATOM     19 H    LEU R   7       2.026   0.358 -13.157  1.00 43.78 LIG 0.16  HD
ATOM     20 O    THR R   6       2.038   1.342 -16.031  1.00 41.48 LIG-0.27  OA
BRANCH 18 21
ATOM     21  CA  LEU R   7       3.686   1.214 -13.799  1.00 53.52 LIG 0.16  C 
BRANCH 21 22
ATOM     22  CB  LEU R   7       3.878   2.045 -12.528  1.00 41.32 LIG 0.04  C 
BRANCH 22 23
ATOM     23  CG  LEU R   7       5.305   2.553 -12.296  1.00 48.65 LIG-0.02  C 
ATOM     24  CD1 LEU R   7       5.580   3.823 -13.092  1.00 40.28 LIG 0.01  C 
ATOM     25  CD2 LEU R   7       5.564   2.783 -10.812  1.00 37.72 LIG 0.01  C 
ENDBRANCH 22 23
ENDBRANCH 21 22
BRANCH 21 26
ATOM     26  C   LEU R   7       4.697   0.071 -13.852  1.00 46.73 LIG 0.22  C 
ATOM     27 O    LEU R   7       5.016  -0.535 -12.827  1.00 57.50 LIG-0.29  OA
ENDBRANCH 21 26
ENDBRANCH 18 21
ENDBRANCH 12 17
ENDBRANCH 10 12
ENDBRANCH 4 8
BRANCH 1 28
ATOM     28  CA  PRO R   4       2.680  -4.297 -10.920  1.00 54.23 LIG 0.18  C 
ATOM     29  N   PRO R   4       4.027  -4.789 -11.225  1.00 66.40 LIG-0.34  N 
ATOM     30  CD  PRO R   4       5.050  -3.825 -10.792  1.00 55.20 LIG 0.13  C 
ATOM     31  C   MET R   3       4.379  -5.989 -11.719  1.00 65.13 LIG 0.26  C 
ATOM     32  CG  PRO R   4       4.419  -3.222  -9.579  1.00 51.34 LIG 0.02  C 
ATOM     33  CB  PRO R   4       2.935  -3.214  -9.853  1.00 43.90 LIG 0.04  C 
ATOM     34 O    MET R   3       5.546  -6.273 -11.999  1.00 74.37 LIG-0.27  OA
BRANCH 31 35
ATOM     35  CA  MET R   3       3.272  -7.022 -11.922  1.00 67.30 LIG 0.40  C 
ATOM     36  N   MET R   3       3.503  -7.881 -13.080  1.00 55.69 LIG 0.61  N 
BRANCH 35 37
ATOM     37  CB  MET R   3       3.143  -7.857 -10.642  1.00 55.44 LIG 0.06  C 
BRANCH 37 38
ATOM     38  CG  MET R   3       2.690  -7.095  -9.416  1.00 49.90 LIG 0.08  C 
BRANCH 38 39
ATOM     39 SD   MET R   3       0.919  -7.325  -9.169  1.00 67.63 LIG-0.17  SA
ATOM     40  CE  MET R   3       0.891  -8.936  -8.386  1.00 69.90 LIG 0.09  C 
ENDBRANCH 38 39
ENDBRANCH 37 38
ENDBRANCH 35 37
ENDBRANCH 31 35
ENDBRANCH 1 28
TORSDOF 14
ENDMDL
MODEL 4
USER: ADFR SOLUTION from run 53
USER: SCORE 12.628003 LL:  -3.220 LR: -10.223 RR:   0.000 FEB:  -6.047
USER: RMSD 10.894263
USER: SEED 52
USER: STATUS no improvement in best in 4 clusters for 5 generations
USER: GENES 16
USER: genes 0 Translation |==|  0.27366 0.30334 0.66205
USER: genes 1 Rotation |==|  0.78924 0.56840 0.09859 0.52305
USER: genes 2 Torsion [N]-CA--C-[N] |==|  0.24837
USER: genes 3 Torsion [C]-N--CA-[CB] |==|  0.48889
USER: genes 4 Torsion [N]-CA--CB-[CG2] |==|  0.62596
USER: genes 5 Torsion [CA]-CB--OG1-[HG1] |==|  0.85916
USER: genes 6 Torsion [N]-CA--C-[N] |==|  0.51228
USER: genes 7 Torsion [C]-N--CA-[CB] |==|  0.50365
USER: genes 8 Torsion [N]-CA--CB-[CG] |==|  0.99480
USER: genes 9 Torsion [CA]-CB--CG-[CD1] |==|  0.22405
USER: genes 10 Torsion [N]-CA--C-[O] |==|  0.89274
USER: genes 11 Torsion [O]-C--CA-[N] |==|  0.86331
USER: genes 12 Torsion [N]-C--CA-[N] |==|  0.37222
USER: genes 13 Torsion [C]-CA--CB-[CG] |==|  0.18525
USER: genes 14 Torsion [CA]-CB--CG-[SD] |==|  0.31148
USER: genes 15 Torsion [CB]-CG--SD-[CE] |==|  0.70057
ROOT
ATOM      1  C   PRO R   4       1.692  -3.821 -11.871  1.00 60.54 LIG 0.24  C 
ATOM      2 O    PRO R   4       2.193  -2.891 -12.506  1.00 63.53 LIG-0.27  OA
ATOM      3  N   PRO R   5       0.458  -4.299 -12.115  1.00 48.92 LIG-0.34  N 
ATOM      4  CA  PRO R   5      -0.393  -3.697 -13.150  1.00 52.68 LIG 0.18  C 
ATOM      5  CB  PRO R   5      -1.676  -4.534 -13.078  1.00 55.54 LIG 0.04  C 
ATOM      6  CG  PRO R   5      -1.249  -5.843 -12.528  1.00 46.13 LIG 0.02  C 
ATOM      7  CD  PRO R   5      -0.129  -5.537 -11.571  1.00 43.47 LIG 0.13  C 
ENDROOT
BRANCH 4 8
ATOM      8  C   PRO R   5      -0.724  -2.224 -12.892  1.00 58.07 LIG 0.24  C 
ATOM      9 O    PRO R   5      -1.734  -1.911 -12.257  1.00 51.36 LIG-0.27  OA
ATOM     10  N   THR R   6       0.129  -1.335 -13.394  1.00 69.24 LIG-0.34  N 
ATOM     11 H    THR R   6       0.858  -1.549 -13.797  1.00 69.24 LIG 0.16  HD
BRANCH 10 12
ATOM     12  CA  THR R   6      -0.102   0.102 -13.303  1.00 55.31 LIG 0.20  C 
BRANCH 12 13
ATOM     13  CB  THR R   6       1.085   0.908 -13.875  1.00 60.29 LIG 0.15  C 
ATOM     14  CG2 THR R   6       1.459   2.055 -12.948  1.00 62.01 LIG 0.04  C 
BRANCH 13 15
ATOM     15 OG1  THR R   6       2.220   0.046 -14.033  1.00 91.48 LIG-0.39  OA
ATOM     16 HG1  THR R   6       2.356  -0.371 -13.317  1.00 91.48 LIG 0.21  HD
ENDBRANCH 13 15
ENDBRANCH 12 13
BRANCH 12 17
ATOM     17  C   THR R   6      -1.369   0.468 -14.062  1.00 56.48 LIG 0.24  C 
ATOM     18  N   LEU R   7      -1.655   1.765 -14.140  1.00 43.78 LIG-0.35  N 
ATOM     19 H    LEU R   7      -1.163   2.386 -13.805  1.00 43.78 LIG 0.16  HD
ATOM     20 O    THR R   6      -2.075  -0.410 -14.563  1.00 41.48 LIG-0.27  OA
BRANCH 18 21
ATOM     21  CA  LEU R   7      -2.852   2.244 -14.818  1.00 53.52 LIG 0.16  C 
BRANCH 21 22
ATOM     22  CB  LEU R   7      -2.909   3.773 -14.782  1.00 41.32 LIG 0.04  C 
BRANCH 22 23
ATOM     23  CG  LEU R   7      -1.759   4.447 -14.028  1.00 48.65 LIG-0.02  C 
ATOM     24  CD1 LEU R   7      -0.506   4.541 -14.889  1.00 40.28 LIG 0.01  C 
ATOM     25  CD2 LEU R   7      -2.172   5.826 -13.528  1.00 37.72 LIG 0.01  C 
ENDBRANCH 22 23
ENDBRANCH 21 22
BRANCH 21 26
ATOM     26  C   LEU R   7      -2.921   1.738 -16.257  1.00 46.73 LIG 0.22  C 
ATOM     27 O    LEU R   7      -1.903   1.664 -16.948  1.00 57.50 LIG-0.29  OA
ENDBRANCH 21 26
ENDBRANCH 18 21
ENDBRANCH 12 17
ENDBRANCH 10 12
ENDBRANCH 4 8
BRANCH 1 28
ATOM     28  CA  PRO R   4       2.503  -4.478 -10.755  1.00 54.23 LIG 0.18  C 
ATOM     29  N   PRO R   4       3.844  -4.808 -11.246  1.00 66.40 LIG-0.34  N 
ATOM     30  CD  PRO R   4       4.819  -3.782 -10.845  1.00 55.20 LIG 0.13  C 
ATOM     31  C   MET R   3       4.245  -5.927 -11.875  1.00 65.13 LIG 0.26  C 
ATOM     32  CG  PRO R   4       4.281  -3.337  -9.524  1.00 51.34 LIG 0.02  C 
ATOM     33  CB  PRO R   4       2.781  -3.458  -9.634  1.00 43.90 LIG 0.04  C 
ATOM     34 O    MET R   3       5.392  -6.071 -12.304  1.00 74.37 LIG-0.27  OA
BRANCH 31 35
ATOM     35  CA  MET R   3       3.220  -7.047 -12.045  1.00 67.30 LIG 0.40  C 
ATOM     36  N   MET R   3       3.206  -7.604 -13.395  1.00 55.69 LIG 0.61  N 
BRANCH 35 37
ATOM     37  CB  MET R   3       3.515  -8.139 -11.010  1.00 55.44 LIG 0.06  C 
BRANCH 37 38
ATOM     38  CG  MET R   3       3.297  -7.738  -9.567  1.00 49.90 LIG 0.08  C 
BRANCH 38 39
ATOM     39 SD   MET R   3       1.898  -8.646  -8.883  1.00 67.63 LIG-0.17  SA
ATOM     40  CE  MET R   3       0.668  -7.348  -8.778  1.00 69.90 LIG 0.09  C 
ENDBRANCH 38 39
ENDBRANCH 37 38
ENDBRANCH 35 37
ENDBRANCH 31 35
ENDBRANCH 1 28
TORSDOF 14
ENDMDL
MODEL 5
USER: ADFR SOLUTION from run 12
USER: SCORE 11.917837 LL:  -2.265 LR: -10.174 RR:   0.000 FEB:  -5.997
USER: RMSD 8.681664
USER: SEED 336873
USER: STATUS no improvement in best in 31 clusters for 5 generations
USER: GENES 16
USER: genes 0 Translation |==|  0.30914 0.27604 0.68708
USER: genes 1 Rotation |==|  0.86472 0.33489 0.79706 0.53837
USER: genes 2 Torsion [N]-CA--C-[N] |==|  0.46767
USER: genes 3 Torsion [C]-N--CA-[CB] |==|  0.50000
USER: genes 4 Torsion [N]-CA--CB-[CG2] |==|  0.22255
USER: genes 5 Torsion [CA]-CB--OG1-[HG1] |==|  0.08516
USER: genes 6 Torsion [N]-CA--C-[N] |==|  0.46609
USER: genes 7 Torsion [C]-N--CA-[CB] |==|  0.83471
USER: genes 8 Torsion [N]-CA--CB-[CG] |==|  0.85591
USER: genes 9 Torsion [CA]-CB--CG-[CD1] |==|  0.44291
USER: genes 10 Torsion [N]-CA--C-[O] |==|  0.09208
USER: genes 11 Torsion [O]-C--CA-[N] |==|  0.93408
USER: genes 12 Torsion [N]-C--CA-[N] |==|  0.79322
USER: genes 13 Torsion [C]-CA--CB-[CG] |==|  0.29606
USER: genes 14 Torsion [CA]-CB--CG-[SD] |==|  0.52772
USER: genes 15 Torsion [CB]-CG--SD-[CE] |==|  0.64485
ROOT
ATOM      1  C   PRO R   4       2.330  -4.374 -11.365  1.00 60.54 LIG 0.24  C 
ATOM      2 O    PRO R   4       2.020  -3.605 -10.453  1.00 63.53 LIG-0.27  OA
ATOM      3  N   PRO R   5       3.224  -5.368 -11.217  1.00 48.92 LIG-0.34  N 
ATOM      4  CA  PRO R   5       3.923  -5.570  -9.940  1.00 52.68 LIG 0.18  C 
ATOM      5  CB  PRO R   5       4.826  -6.777 -10.223  1.00 55.54 LIG 0.04  C 
ATOM      6  CG  PRO R   5       4.149  -7.514 -11.317  1.00 46.13 LIG 0.02  C 
ATOM      7  CD  PRO R   5       3.488  -6.463 -12.168  1.00 43.47 LIG 0.13  C 
ENDROOT
BRANCH 4 8
ATOM      8  C   PRO R   5       4.781  -4.375  -9.514  1.00 58.07 LIG 0.24  C 
ATOM      9 O    PRO R   5       5.019  -3.460 -10.307  1.00 51.36 LIG-0.27  OA
ATOM     10  N   THR R   6       5.242  -4.399  -8.267  1.00 69.24 LIG-0.34  N 
ATOM     11 H    THR R   6       5.041  -5.011  -7.697  1.00 69.24 LIG 0.16  HD
BRANCH 10 12
ATOM     12  CA  THR R   6       6.142  -3.375  -7.750  1.00 55.31 LIG 0.20  C 
BRANCH 12 13
ATOM     13  CB  THR R   6       6.523  -3.641  -6.277  1.00 60.29 LIG 0.15  C 
ATOM     14  CG2 THR R   6       7.620  -4.691  -6.182  1.00 62.01 LIG 0.04  C 
BRANCH 13 15
ATOM     15 OG1  THR R   6       6.985  -2.427  -5.671  1.00 91.48 LIG-0.39  OA
ATOM     16 HG1  THR R   6       6.598  -1.772  -6.026  1.00 91.48 LIG 0.21  HD
ENDBRANCH 13 15
ENDBRANCH 12 13
BRANCH 12 17
ATOM     17  C   THR R   6       7.407  -3.328  -8.595  1.00 56.48 LIG 0.24  C 
ATOM     18  N   LEU R   7       8.205  -2.282  -8.402  1.00 43.78 LIG-0.35  N 
ATOM     19 H    LEU R   7       8.051  -1.659  -7.829  1.00 43.78 LIG 0.16  HD
ATOM     20 O    THR R   6       7.650  -4.222  -9.409  1.00 41.48 LIG-0.27  OA
BRANCH 18 21
ATOM     21  CA  LEU R   7       9.434  -2.107  -9.166  1.00 53.52 LIG 0.16  C 
BRANCH 21 22
ATOM     22  CB  LEU R   7      10.372  -3.296  -8.946  1.00 41.32 LIG 0.04  C 
BRANCH 22 23
ATOM     23  CG  LEU R   7      10.648  -3.641  -7.480  1.00 48.65 LIG-0.02  C 
ATOM     24  CD1 LEU R   7      11.143  -5.074  -7.328  1.00 40.28 LIG 0.01  C 
ATOM     25  CD2 LEU R   7      11.642  -2.661  -6.869  1.00 37.72 LIG 0.01  C 
ENDBRANCH 22 23
ENDBRANCH 21 22
BRANCH 21 26
ATOM     26  C   LEU R   7       9.145  -1.918 -10.653  1.00 46.73 LIG 0.22  C 
ATOM     27 O    LEU R   7       8.125  -1.339 -11.028  1.00 57.50 LIG-0.29  OA
ENDBRANCH 21 26
ENDBRANCH 18 21
ENDBRANCH 12 17
ENDBRANCH 10 12
ENDBRANCH 4 8
BRANCH 1 28
ATOM     28  CA  PRO R   4       1.671  -4.206 -12.733  1.00 54.23 LIG 0.18  C 
ATOM     29  N   PRO R   4       0.385  -3.519 -12.582  1.00 66.40 LIG-0.34  N 
ATOM     30  CD  PRO R   4       0.515  -2.086 -12.881  1.00 55.20 LIG 0.13  C 
ATOM     31  C   MET R   3      -0.819  -4.061 -12.328  1.00 65.13 LIG 0.26  C 
ATOM     32  CG  PRO R   4       1.573  -2.080 -13.936  1.00 51.34 LIG 0.02  C 
ATOM     33  CB  PRO R   4       2.491  -3.229 -13.598  1.00 43.90 LIG 0.04  C 
ATOM     34 O    MET R   3      -1.831  -3.377 -12.157  1.00 74.37 LIG-0.27  OA
BRANCH 31 35
ATOM     35  CA  MET R   3      -0.909  -5.584 -12.264  1.00 67.30 LIG 0.40  C 
ATOM     36  N   MET R   3      -0.840  -6.213 -13.581  1.00 55.69 LIG 0.61  N 
BRANCH 35 37
ATOM     37  CB  MET R   3       0.211  -6.102 -11.355  1.00 55.44 LIG 0.06  C 
BRANCH 37 38
ATOM     38  CG  MET R   3      -0.235  -6.596  -9.996  1.00 49.90 LIG 0.08  C 
BRANCH 38 39
ATOM     39 SD   MET R   3       1.201  -6.892  -8.948  1.00 67.63 LIG-0.17  SA
ATOM     40  CE  MET R   3       0.884  -8.569  -8.403  1.00 69.90 LIG 0.09  C 
ENDBRANCH 38 39
ENDBRANCH 37 38
ENDBRANCH 35 37
ENDBRANCH 31 35
ENDBRANCH 1 28
TORSDOF 14
ENDMDL
MODEL 6
USER: ADFR SOLUTION from run 114
USER: SCORE 12.296896 LL:  -2.349 LR: -10.168 RR:   0.000 FEB:  -5.991
USER: RMSD 10.628550
USER: SEED 113
USER: STATUS no improvement in best in 21 clusters for 5 generations
USER: GENES 16
USER: genes 0 Translation |==|  0.35288 0.24507 0.68400
USER: genes 1 Rotation |==|  0.64132 0.43952 0.07869 0.72105
USER: genes 2 Torsion [N]-CA--C-[N] |==|  0.29711
USER: genes 3 Torsion [C]-N--CA-[CB] |==|  0.75955
USER: genes 4 Torsion [N]-CA--CB-[CG2] |==|  0.76379
USER: genes 5 Torsion [CA]-CB--OG1-[HG1] |==|  0.10852
USER: genes 6 Torsion [N]-CA--C-[N] |==|  0.24267
USER: genes 7 Torsion [C]-N--CA-[CB] |==|  0.50799
USER: genes 8 Torsion [N]-CA--CB-[CG] |==|  0.50349
USER: genes 9 Torsion [CA]-CB--CG-[CD1] |==|  0.40572
USER: genes 10 Torsion [N]-CA--C-[O] |==|  0.22351
USER: genes 11 Torsion [O]-C--CA-[N] |==|  0.81369
USER: genes 12 Torsion [N]-C--CA-[N] |==|  0.40167
USER: genes 13 Torsion [C]-CA--CB-[CG] |==|  0.23746
USER: genes 14 Torsion [CA]-CB--CG-[SD] |==|  0.58432
USER: genes 15 Torsion [CB]-CG--SD-[CE] |==|  0.75679
ROOT
ATOM      1  C   PRO R   4       3.118  -5.001 -11.427  1.00 60.54 LIG 0.24  C 
ATOM      2 O    PRO R   4       2.959  -4.988 -12.649  1.00 63.53 LIG-0.27  OA
ATOM      3  N   PRO R   5       2.302  -5.661 -10.585  1.00 48.92 LIG-0.34  N 
ATOM      4  CA  PRO R   5       1.126  -6.385 -11.087  1.00 52.68 LIG 0.18  C 
ATOM      5  CB  PRO R   5       0.502  -6.964  -9.812  1.00 55.54 LIG 0.04  C 
ATOM      6  CG  PRO R   5       1.626  -7.078  -8.852  1.00 46.13 LIG 0.02  C 
ATOM      7  CD  PRO R   5       2.537  -5.919  -9.153  1.00 43.47 LIG 0.13  C 
ENDROOT
BRANCH 4 8
ATOM      8  C   PRO R   5       0.109  -5.488 -11.796  1.00 58.07 LIG 0.24  C 
ATOM      9 O    PRO R   5      -0.607  -4.719 -11.149  1.00 51.36 LIG-0.27  OA
ATOM     10  N   THR R   6       0.051  -5.600 -13.121  1.00 69.24 LIG-0.34  N 
ATOM     11 H    THR R   6       0.579  -6.100 -13.580  1.00 69.24 LIG 0.16  HD
BRANCH 10 12
ATOM     12  CA  THR R   6      -0.929  -4.873 -13.921  1.00 55.31 LIG 0.20  C 
BRANCH 12 13
ATOM     13  CB  THR R   6      -2.262  -5.647 -14.029  1.00 60.29 LIG 0.15  C 
ATOM     14  CG2 THR R   6      -2.212  -6.658 -15.164  1.00 62.01 LIG 0.04  C 
BRANCH 13 15
ATOM     15 OG1  THR R   6      -2.519  -6.338 -12.799  1.00 91.48 LIG-0.39  OA
ATOM     16 HG1  THR R   6      -2.291  -5.853 -12.153  1.00 91.48 LIG 0.21  HD
ENDBRANCH 13 15
ENDBRANCH 12 13
BRANCH 12 17
ATOM     17  C   THR R   6      -1.189  -3.509 -13.300  1.00 56.48 LIG 0.24  C 
ATOM     18  N   LEU R   7      -0.373  -2.527 -13.675  1.00 43.78 LIG-0.35  N 
ATOM     19 H    LEU R   7       0.263  -2.623 -14.246  1.00 43.78 LIG 0.16  HD
ATOM     20 O    THR R   6      -2.109  -3.352 -12.494  1.00 41.48 LIG-0.27  OA
BRANCH 18 21
ATOM     21  CA  LEU R   7      -0.501  -1.180 -13.135  1.00 53.52 LIG 0.16  C 
BRANCH 21 22
ATOM     22  CB  LEU R   7       0.516  -0.244 -13.792  1.00 41.32 LIG 0.04  C 
BRANCH 22 23
ATOM     23  CG  LEU R   7       0.495   1.199 -13.278  1.00 48.65 LIG-0.02  C 
ATOM     24  CD1 LEU R   7       1.890   1.812 -13.279  1.00 40.28 LIG 0.01  C 
ATOM     25  CD2 LEU R   7      -0.467   2.053 -14.096  1.00 37.72 LIG 0.01  C 
ENDBRANCH 22 23
ENDBRANCH 21 22
BRANCH 21 26
ATOM     26  C   LEU R   7      -1.918  -0.639 -13.308  1.00 46.73 LIG 0.22  C 
ATOM     27 O    LEU R   7      -2.815  -0.964 -12.528  1.00 57.50 LIG-0.29  OA
ENDBRANCH 21 26
ENDBRANCH 18 21
ENDBRANCH 12 17
ENDBRANCH 10 12
ENDBRANCH 4 8
BRANCH 1 28
ATOM     28  CA  PRO R   4       4.300  -4.242 -10.826  1.00 54.23 LIG 0.18  C 
ATOM     29  N   PRO R   4       5.556  -4.880 -11.228  1.00 66.40 LIG-0.34  N 
ATOM     30  CD  PRO R   4       6.162  -4.178 -12.369  1.00 55.20 LIG 0.13  C 
ATOM     31  C   MET R   3       6.201  -5.894 -10.624  1.00 65.13 LIG 0.26  C 
ATOM     32  CG  PRO R   4       5.756  -2.762 -12.118  1.00 51.34 LIG 0.02  C 
ATOM     33  CB  PRO R   4       4.401  -2.839 -11.456  1.00 43.90 LIG 0.04  C 
ATOM     34 O    MET R   3       7.226  -6.398 -11.090  1.00 74.37 LIG-0.27  OA
BRANCH 31 35
ATOM     35  CA  MET R   3       5.626  -6.413  -9.309  1.00 67.30 LIG 0.40  C 
ATOM     36  N   MET R   3       5.785  -7.857  -9.150  1.00 55.69 LIG 0.61  N 
BRANCH 35 37
ATOM     37  CB  MET R   3       6.295  -5.663  -8.152  1.00 55.44 LIG 0.06  C 
BRANCH 37 38
ATOM     38  CG  MET R   3       5.660  -4.339  -7.786  1.00 49.90 LIG 0.08  C 
BRANCH 38 39
ATOM     39 SD   MET R   3       6.911  -3.214  -7.141  1.00 67.63 LIG-0.17  SA
ATOM     40  CE  MET R   3       6.897  -3.649  -5.403  1.00 69.90 LIG 0.09  C 
ENDBRANCH 38 39
ENDBRANCH 37 38
ENDBRANCH 35 37
ENDBRANCH 31 35
ENDBRANCH 1 28
TORSDOF 14
ENDMDL
MODEL 7
USER: ADFR SOLUTION from run 24
USER: SCORE 11.867230 LL:  -3.517 LR: -10.055 RR:   0.000 FEB:  -5.879
USER: RMSD 9.302165
USER: SEED 23
USER: STATUS no improvement in best in 14 clusters for 5 generations
USER: GENES 16
USER: genes 0 Translation |==|  0.30496 0.27017 0.65077
USER: genes 1 Rotation |==|  0.25085 0.72529 0.86481 0.56386
USER: genes 2 Torsion [N]-CA--C-[N] |==|  0.84345
USER: genes 3 Torsion [C]-N--CA-[CB] |==|  0.41224
USER: genes 4 Torsion [N]-CA--CB-[CG2] |==|  0.69127
USER: genes 5 Torsion [CA]-CB--OG1-[HG1] |==|  0.10900
USER: genes 6 Torsion [N]-CA--C-[N] |==|  0.69344
USER: genes 7 Torsion [C]-N--CA-[CB] |==|  0.47732
USER: genes 8 Torsion [N]-CA--CB-[CG] |==|  0.06975
USER: genes 9 Torsion [CA]-CB--CG-[CD1] |==|  0.40444
USER: genes 10 Torsion [N]-CA--C-[O] |==|  0.59851
USER: genes 11 Torsion [O]-C--CA-[N] |==|  0.02308
USER: genes 12 Torsion [N]-C--CA-[N] |==|  0.38409
USER: genes 13 Torsion [C]-CA--CB-[CG] |==|  0.43307
USER: genes 14 Torsion [CA]-CB--CG-[SD] |==|  0.75889
USER: genes 15 Torsion [CB]-CG--SD-[CE] |==|  0.21634
ROOT
ATOM      1  C   PRO R   4       2.255  -4.493 -12.100  1.00 60.54 LIG 0.24  C 
ATOM      2 O    PRO R   4       2.990  -4.957 -12.974  1.00 63.53 LIG-0.27  OA
ATOM      3  N   PRO R   5       1.114  -3.834 -12.370  1.00 48.92 LIG-0.34  N 
ATOM      4  CA  PRO R   5       0.693  -3.593 -13.757  1.00 52.68 LIG 0.18  C 
ATOM      5  CB  PRO R   5      -0.624  -2.825 -13.593  1.00 55.54 LIG 0.04  C 
ATOM      6  CG  PRO R   5      -1.143  -3.231 -12.266  1.00 46.13 LIG 0.02  C 
ATOM      7  CD  PRO R   5       0.071  -3.448 -11.403  1.00 43.47 LIG 0.13  C 
ENDROOT
BRANCH 4 8
ATOM      8  C   PRO R   5       1.685  -2.749 -14.562  1.00 58.07 LIG 0.24  C 
ATOM      9 O    PRO R   5       2.164  -3.179 -15.615  1.00 51.36 LIG-0.27  OA
ATOM     10  N   THR R   6       1.988  -1.558 -14.054  1.00 69.24 LIG-0.34  N 
ATOM     11 H    THR R   6       1.623  -1.235 -13.345  1.00 69.24 LIG 0.16  HD
BRANCH 10 12
ATOM     12  CA  THR R   6       2.983  -0.682 -14.663  1.00 55.31 LIG 0.20  C 
BRANCH 12 13
ATOM     13  CB  THR R   6       2.638   0.809 -14.448  1.00 60.29 LIG 0.15  C 
ATOM     14  CG2 THR R   6       2.244   1.469 -15.760  1.00 62.01 LIG 0.04  C 
BRANCH 13 15
ATOM     15 OG1  THR R   6       1.549   0.922 -13.523  1.00 91.48 LIG-0.39  OA
ATOM     16 HG1  THR R   6       1.641   0.354 -12.911  1.00 91.48 LIG 0.21  HD
ENDBRANCH 13 15
ENDBRANCH 12 13
BRANCH 12 17
ATOM     17  C   THR R   6       4.354  -0.971 -14.070  1.00 56.48 LIG 0.24  C 
ATOM     18  N   LEU R   7       4.867  -0.026 -13.286  1.00 43.78 LIG-0.35  N 
ATOM     19 H    LEU R   7       4.464   0.710 -13.094  1.00 43.78 LIG 0.16  HD
ATOM     20 O    THR R   6       4.937  -2.028 -14.322  1.00 41.48 LIG-0.27  OA
BRANCH 18 21
ATOM     21  CA  LEU R   7       6.183  -0.169 -12.677  1.00 53.52 LIG 0.16  C 
BRANCH 21 22
ATOM     22  CB  LEU R   7       6.602   1.137 -12.000  1.00 41.32 LIG 0.04  C 
BRANCH 22 23
ATOM     23  CG  LEU R   7       5.445   2.042 -11.566  1.00 48.65 LIG-0.02  C 
ATOM     24  CD1 LEU R   7       5.774   2.787 -10.278  1.00 40.28 LIG 0.01  C 
ATOM     25  CD2 LEU R   7       5.077   3.022 -12.674  1.00 37.72 LIG 0.01  C 
ENDBRANCH 22 23
ENDBRANCH 21 22
BRANCH 21 26
ATOM     26  C   LEU R   7       6.215  -1.325 -11.680  1.00 46.73 LIG 0.22  C 
ATOM     27 O    LEU R   7       6.892  -1.252 -10.653  1.00 57.50 LIG-0.29  OA
ENDBRANCH 21 26
ENDBRANCH 18 21
ENDBRANCH 12 17
ENDBRANCH 10 12
ENDBRANCH 4 8
BRANCH 1 28
ATOM     28  CA  PRO R   4       2.644  -4.674 -10.633  1.00 54.23 LIG 0.18  C 
ATOM     29  N   PRO R   4       3.994  -5.237 -10.544  1.00 66.40 LIG-0.34  N 
ATOM     30  CD  PRO R   4       4.989  -4.184 -10.293  1.00 55.20 LIG 0.13  C 
ATOM     31  C   MET R   3       4.354  -6.533 -10.556  1.00 65.13 LIG 0.26  C 
ATOM     32  CG  PRO R   4       4.216  -3.214  -9.460  1.00 51.34 LIG 0.02  C 
ATOM     33  CB  PRO R   4       2.792  -3.299  -9.953  1.00 43.90 LIG 0.04  C 
ATOM     34 O    MET R   3       5.534  -6.893 -10.540  1.00 74.37 LIG-0.27  OA
BRANCH 31 35
ATOM     35  CA  MET R   3       3.238  -7.576 -10.583  1.00 67.30 LIG 0.40  C 
ATOM     36  N   MET R   3       3.520  -8.686 -11.489  1.00 55.69 LIG 0.61  N 
BRANCH 35 37
ATOM     37  CB  MET R   3       3.011  -8.085  -9.154  1.00 55.44 LIG 0.06  C 
BRANCH 37 38
ATOM     38  CG  MET R   3       1.637  -8.657  -8.883  1.00 49.90 LIG 0.08  C 
BRANCH 38 39
ATOM     39 SD   MET R   3       0.506  -7.339  -8.403  1.00 67.63 LIG-0.17  SA
ATOM     40  CE  MET R   3       0.141  -6.606  -9.997  1.00 69.90 LIG 0.09  C 
ENDBRANCH 38 39
ENDBRANCH 37 38
ENDBRANCH 35 37
ENDBRANCH 31 35
ENDBRANCH 1 28
TORSDOF 14
ENDMDL
MODEL 8
USER: ADFR SOLUTION from run 136
USER: SCORE 11.713202 LL:  -3.372 LR: -10.046 RR:   0.000 FEB:  -5.870
USER: RMSD 9.176408
USER: SEED 135
USER: STATUS no improvement in best in 4 clusters for 5 generations
USER: GENES 16
USER: genes 0 Translation |==|  0.30416 0.32798 0.59021
USER: genes 1 Rotation |==|  0.66042 0.35835 0.04816 0.50634
USER: genes 2 Torsion [N]-CA--C-[N] |==|  0.89352
USER: genes 3 Torsion [C]-N--CA-[CB] |==|  0.30958
USER: genes 4 Torsion [N]-CA--CB-[CG2] |==|  0.79613
USER: genes 5 Torsion [CA]-CB--OG1-[HG1] |==|  0.72676
USER: genes 6 Torsion [N]-CA--C-[N] |==|  0.75619
USER: genes 7 Torsion [C]-N--CA-[CB] |==|  0.51514
USER: genes 8 Torsion [N]-CA--CB-[CG] |==|  0.56787
USER: genes 9 Torsion [CA]-CB--CG-[CD1] |==|  0.72722
USER: genes 10 Torsion [N]-CA--C-[O] |==|  0.87597
USER: genes 11 Torsion [O]-C--CA-[N] |==|  0.80616
USER: genes 12 Torsion [N]-C--CA-[N] |==|  0.41759
USER: genes 13 Torsion [C]-CA--CB-[CG] |==|  0.24038
USER: genes 14 Torsion [CA]-CB--CG-[SD] |==|  0.61979
USER: genes 15 Torsion [CB]-CG--SD-[CE] |==|  0.38636
ROOT
ATOM      1  C   PRO R   4       2.241  -3.322 -13.326  1.00 60.54 LIG 0.24  C 
ATOM      2 O    PRO R   4       2.469  -3.318 -14.538  1.00 63.53 LIG-0.27  OA
ATOM      3  N   PRO R   5       1.039  -3.022 -12.802  1.00 48.92 LIG-0.34  N 
ATOM      4  CA  PRO R   5      -0.082  -2.626 -13.664  1.00 52.68 LIG 0.18  C 
ATOM      5  CB  PRO R   5      -1.219  -2.378 -12.665  1.00 55.54 LIG 0.04  C 
ATOM      6  CG  PRO R   5      -0.886  -3.216 -11.489  1.00 46.13 LIG 0.02  C 
ATOM      7  CD  PRO R   5       0.616  -3.218 -11.403  1.00 43.47 LIG 0.13  C 
ENDROOT
BRANCH 4 8
ATOM      8  C   PRO R   5       0.183  -1.350 -14.468  1.00 58.07 LIG 0.24  C 
ATOM      9 O    PRO R   5      -0.211  -1.251 -15.633  1.00 51.36 LIG-0.27  OA
ATOM     10  N   THR R   6       0.856  -0.390 -13.840  1.00 69.24 LIG-0.34  N 
ATOM     11 H    THR R   6       1.092  -0.437 -13.014  1.00 69.24 LIG 0.16  HD
BRANCH 10 12
ATOM     12  CA  THR R   6       1.257   0.843 -14.507  1.00 55.31 LIG 0.20  C 
BRANCH 12 13
ATOM     13  CB  THR R   6       0.484   2.064 -13.961  1.00 60.29 LIG 0.15  C 
ATOM     14  CG2 THR R   6      -0.956   2.057 -14.452  1.00 62.01 LIG 0.04  C 
BRANCH 13 15
ATOM     15 OG1  THR R   6       0.489   2.036 -12.528  1.00 91.48 LIG-0.39  OA
ATOM     16 HG1  THR R   6      -0.234   1.711 -12.252  1.00 91.48 LIG 0.21  HD
ENDBRANCH 13 15
ENDBRANCH 12 13
BRANCH 12 17
ATOM     17  C   THR R   6       2.750   1.068 -14.317  1.00 56.48 LIG 0.24  C 
ATOM     18  N   LEU R   7       3.109   1.729 -13.218  1.00 43.78 LIG-0.35  N 
ATOM     19 H    LEU R   7       2.555   2.011 -12.625  1.00 43.78 LIG 0.16  HD
ATOM     20 O    THR R   6       3.558   0.655 -15.151  1.00 41.48 LIG-0.27  OA
BRANCH 18 21
ATOM     21  CA  LEU R   7       4.506   2.031 -12.932  1.00 53.52 LIG 0.16  C 
BRANCH 21 22
ATOM     22  CB  LEU R   7       4.639   2.673 -11.549  1.00 41.32 LIG 0.04  C 
BRANCH 22 23
ATOM     23  CG  LEU R   7       5.882   3.547 -11.358  1.00 48.65 LIG-0.02  C 
ATOM     24  CD1 LEU R   7       6.995   2.786 -10.648  1.00 40.28 LIG 0.01  C 
ATOM     25  CD2 LEU R   7       6.373   4.093 -12.694  1.00 37.72 LIG 0.01  C 
ENDBRANCH 22 23
ENDBRANCH 21 22
BRANCH 21 26
ATOM     26  C   LEU R   7       5.380   0.782 -13.030  1.00 46.73 LIG 0.22  C 
ATOM     27 O    LEU R   7       5.016  -0.282 -12.528  1.00 57.50 LIG-0.29  OA
ENDBRANCH 21 26
ENDBRANCH 18 21
ENDBRANCH 12 17
ENDBRANCH 10 12
ENDBRANCH 4 8
BRANCH 1 28
ATOM     28  CA  PRO R   4       3.368  -3.692 -12.362  1.00 54.23 LIG 0.18  C 
ATOM     29  N   PRO R   4       3.681  -5.118 -12.489  1.00 66.40 LIG-0.34  N 
ATOM     30  CD  PRO R   4       4.853  -5.325 -13.352  1.00 55.20 LIG 0.13  C 
ATOM     31  C   MET R   3       3.110  -6.152 -11.847  1.00 65.13 LIG 0.26  C 
ATOM     32  CG  PRO R   4       5.671  -4.108 -13.069  1.00 51.34 LIG 0.02  C 
ATOM     33  CB  PRO R   4       4.678  -3.005 -12.794  1.00 43.90 LIG 0.04  C 
ATOM     34 O    MET R   3       3.411  -7.325 -12.080  1.00 74.37 LIG-0.27  OA
BRANCH 31 35
ATOM     35  CA  MET R   3       2.056  -5.831 -10.788  1.00 67.30 LIG 0.40  C 
ATOM     36  N   MET R   3       1.049  -6.880 -10.653  1.00 55.69 LIG 0.61  N 
BRANCH 35 37
ATOM     37  CB  MET R   3       2.766  -5.585  -9.452  1.00 55.44 LIG 0.06  C 
BRANCH 37 38
ATOM     38  CG  MET R   3       3.242  -4.167  -9.224  1.00 49.90 LIG 0.08  C 
BRANCH 38 39
ATOM     39 SD   MET R   3       4.900  -4.180  -8.519  1.00 67.63 LIG-0.17  SA
ATOM     40  CE  MET R   3       5.666  -2.835  -9.422  1.00 69.90 LIG 0.09  C 
ENDBRANCH 38 39
ENDBRANCH 37 38
ENDBRANCH 35 37
ENDBRANCH 31 35
ENDBRANCH 1 28
TORSDOF 14
ENDMDL
MODEL 9
USER: ADFR SOLUTION from run 118
USER: SCORE 12.461956 LL:  -2.897 LR:  -9.940 RR:   0.000 FEB:  -5.764
USER: RMSD 7.305534
USER: SEED 117
USER: STATUS no improvement in best in 25 clusters for 5 generations
USER: GENES 16
USER: genes 0 Translation |==|  0.29422 0.26334 0.63102
USER: genes 1 Rotation |==|  0.71384 0.42784 0.84388 0.78427
USER: genes 2 Torsion [N]-CA--C-[N] |==|  0.64287
USER: genes 3 Torsion [C]-N--CA-[CB] |==|  0.21397
USER: genes 4 Torsion [N]-CA--CB-[CG2] |==|  0.74480
USER: genes 5 Torsion [CA]-CB--OG1-[HG1] |==|  0.23513
USER: genes 6 Torsion [N]-CA--C-[N] |==|  0.02888
USER: genes 7 Torsion [C]-N--CA-[CB] |==|  0.26119
USER: genes 8 Torsion [N]-CA--CB-[CG] |==|  0.96612
USER: genes 9 Torsion [CA]-CB--CG-[CD1] |==|  0.37979
USER: genes 10 Torsion [N]-CA--C-[O] |==|  0.59888
USER: genes 11 Torsion [O]-C--CA-[N] |==|  0.93427
USER: genes 12 Torsion [N]-C--CA-[N] |==|  0.85988
USER: genes 13 Torsion [C]-CA--CB-[CG] |==|  0.12467
USER: genes 14 Torsion [CA]-CB--CG-[SD] |==|  0.13907
USER: genes 15 Torsion [CB]-CG--SD-[CE] |==|  0.58347
ROOT
ATOM      1  C   PRO R   4       2.062  -4.631 -12.500  1.00 60.54 LIG 0.24  C 
ATOM      2 O    PRO R   4       2.294  -3.470 -12.840  1.00 63.53 LIG-0.27  OA
ATOM      3  N   PRO R   5       2.382  -5.122 -11.289  1.00 48.92 LIG-0.34  N 
ATOM      4  CA  PRO R   5       3.076  -4.289 -10.297  1.00 52.68 LIG 0.18  C 
ATOM      5  CB  PRO R   5       3.239  -5.234  -9.101  1.00 55.54 LIG 0.04  C 
ATOM      6  CG  PRO R   5       2.141  -6.221  -9.239  1.00 46.13 LIG 0.02  C 
ATOM      7  CD  PRO R   5       1.948  -6.410 -10.719  1.00 43.47 LIG 0.13  C 
ENDROOT
BRANCH 4 8
ATOM      8  C   PRO R   5       4.452  -3.803 -10.760  1.00 58.07 LIG 0.24  C 
ATOM      9 O    PRO R   5       4.586  -3.248 -11.853  1.00 51.36 LIG-0.27  OA
ATOM     10  N   THR R   6       5.464  -4.024  -9.924  1.00 69.24 LIG-0.34  N 
ATOM     11 H    THR R   6       5.368  -4.369  -9.142  1.00 69.24 LIG 0.16  HD
BRANCH 10 12
ATOM     12  CA  THR R   6       6.843  -3.696 -10.267  1.00 55.31 LIG 0.20  C 
BRANCH 12 13
ATOM     13  CB  THR R   6       7.114  -2.179 -10.146  1.00 60.29 LIG 0.15  C 
ATOM     14  CG2 THR R   6       6.874  -1.478 -11.474  1.00 62.01 LIG 0.04  C 
BRANCH 13 15
ATOM     15 OG1  THR R   6       6.248  -1.613  -9.154  1.00 91.48 LIG-0.39  OA
ATOM     16 HG1  THR R   6       6.591  -1.710  -8.394  1.00 91.48 LIG 0.21  HD
ENDBRANCH 13 15
ENDBRANCH 12 13
BRANCH 12 17
ATOM     17  C   THR R   6       7.794  -4.451  -9.351  1.00 56.48 LIG 0.24  C 
ATOM     18  N   LEU R   7       7.250  -5.397  -8.589  1.00 43.78 LIG-0.35  N 
ATOM     19 H    LEU R   7       6.415  -5.603  -8.603  1.00 43.78 LIG 0.16  HD
ATOM     20 O    THR R   6       8.996  -4.178  -9.332  1.00 41.48 LIG-0.27  OA
BRANCH 18 21
ATOM     21  CA  LEU R   7       8.048  -6.175  -7.651  1.00 53.52 LIG 0.16  C 
BRANCH 21 22
ATOM     22  CB  LEU R   7       8.002  -5.541  -6.258  1.00 41.32 LIG 0.04  C 
BRANCH 22 23
ATOM     23  CG  LEU R   7       7.409  -4.129  -6.209  1.00 48.65 LIG-0.02  C 
ATOM     24  CD1 LEU R   7       6.461  -3.964  -5.028  1.00 40.28 LIG 0.01  C 
ATOM     25  CD2 LEU R   7       8.513  -3.079  -6.162  1.00 37.72 LIG 0.01  C 
ENDBRANCH 22 23
ENDBRANCH 21 22
BRANCH 21 26
ATOM     26  C   LEU R   7       7.585  -7.629  -7.594  1.00 46.73 LIG 0.22  C 
ATOM     27 O    LEU R   7       7.611  -8.257  -6.534  1.00 57.50 LIG-0.29  OA
ENDBRANCH 21 26
ENDBRANCH 18 21
ENDBRANCH 12 17
ENDBRANCH 10 12
ENDBRANCH 4 8
BRANCH 1 28
ATOM     28  CA  PRO R   4       1.372  -5.569 -13.490  1.00 54.23 LIG 0.18  C 
ATOM     29  N   PRO R   4       0.611  -4.786 -14.467  1.00 66.40 LIG-0.34  N 
ATOM     30  CD  PRO R   4       1.367  -4.624 -15.717  1.00 55.20 LIG 0.13  C 
ATOM     31  C   MET R   3      -0.654  -4.341 -14.367  1.00 65.13 LIG 0.26  C 
ATOM     32  CG  PRO R   4       2.132  -5.905 -15.790  1.00 51.34 LIG 0.02  C 
ATOM     33  CB  PRO R   4       2.424  -6.286 -14.358  1.00 43.90 LIG 0.04  C 
ATOM     34 O    MET R   3      -1.176  -3.630 -15.230  1.00 74.37 LIG-0.27  OA
BRANCH 31 35
ATOM     35  CA  MET R   3      -1.453  -4.753 -13.132  1.00 67.30 LIG 0.40  C 
ATOM     36  N   MET R   3      -1.411  -6.192 -12.883  1.00 55.69 LIG 0.61  N 
BRANCH 35 37
ATOM     37  CB  MET R   3      -0.918  -3.977 -11.923  1.00 55.44 LIG 0.06  C 
BRANCH 37 38
ATOM     38  CG  MET R   3      -0.678  -2.501 -12.157  1.00 49.90 LIG 0.08  C 
BRANCH 38 39
ATOM     39 SD   MET R   3      -2.136  -1.753 -12.907  1.00 67.63 LIG-0.17  SA
ATOM     40  CE  MET R   3      -1.388  -0.440 -13.870  1.00 69.90 LIG 0.09  C 
ENDBRANCH 38 39
ENDBRANCH 37 38
ENDBRANCH 35 37
ENDBRANCH 31 35
ENDBRANCH 1 28
TORSDOF 14
ENDMDL
MODEL 10
USER: ADFR SOLUTION from run 142
USER: SCORE 12.821208 LL:  -2.983 LR:  -9.916 RR:   0.000 FEB:  -5.740
USER: RMSD 7.555639
USER: SEED 141
USER: STATUS no improvement in best in 10 clusters for 5 generations
USER: GENES 16
USER: genes 0 Translation |==|  0.29882 0.29012 0.66553
USER: genes 1 Rotation |==|  0.86562 0.35021 0.79950 0.56466
USER: genes 2 Torsion [N]-CA--C-[N] |==|  0.77451
USER: genes 3 Torsion [C]-N--CA-[CB] |==|  0.84139
USER: genes 4 Torsion [N]-CA--CB-[CG2] |==|  0.56115
USER: genes 5 Torsion [CA]-CB--OG1-[HG1] |==|  0.84316
USER: genes 6 Torsion [N]-CA--C-[N] |==|  0.34755
USER: genes 7 Torsion [C]-N--CA-[CB] |==|  0.24005
USER: genes 8 Torsion [N]-CA--CB-[CG] |==|  0.74397
USER: genes 9 Torsion [CA]-CB--CG-[CD1] |==|  0.92495
USER: genes 10 Torsion [N]-CA--C-[O] |==|  0.60592
USER: genes 11 Torsion [O]-C--CA-[N] |==|  0.91476
USER: genes 12 Torsion [N]-C--CA-[N] |==|  0.24005
USER: genes 13 Torsion [C]-CA--CB-[CG] |==|  0.24701
USER: genes 14 Torsion [CA]-CB--CG-[SD] |==|  0.77634
USER: genes 15 Torsion [CB]-CG--SD-[CE] |==|  0.29801
ROOT
ATOM      1  C   PRO R   4       2.145  -4.089 -11.801  1.00 60.54 LIG 0.24  C 
ATOM      2 O    PRO R   4       1.877  -3.214 -10.975  1.00 63.53 LIG-0.27  OA
ATOM      3  N   PRO R   5       3.029  -5.075 -11.569  1.00 48.92 LIG-0.34  N 
ATOM      4  CA  PRO R   5       3.770  -5.141 -10.301  1.00 52.68 LIG 0.18  C 
ATOM      5  CB  PRO R   5       4.645  -6.388 -10.473  1.00 55.54 LIG 0.04  C 
ATOM      6  CG  PRO R   5       3.920  -7.234 -11.450  1.00 46.13 LIG 0.02  C 
ATOM      7  CD  PRO R   5       3.244  -6.277 -12.394  1.00 43.47 LIG 0.13  C 
ENDROOT
BRANCH 4 8
ATOM      8  C   PRO R   5       4.659  -3.920 -10.046  1.00 58.07 LIG 0.24  C 
ATOM      9 O    PRO R   5       4.272  -3.005  -9.315  1.00 51.36 LIG-0.27  OA
ATOM     10  N   THR R   6       5.840  -3.916 -10.659  1.00 69.24 LIG-0.34  N 
ATOM     11 H    THR R   6       6.133  -4.571 -11.132  1.00 69.24 LIG 0.16  HD
BRANCH 10 12
ATOM     12  CA  THR R   6       6.754  -2.782 -10.579  1.00 55.31 LIG 0.20  C 
BRANCH 12 13
ATOM     13  CB  THR R   6       6.089  -1.479 -11.079  1.00 60.29 LIG 0.15  C 
ATOM     14  CG2 THR R   6       7.139  -0.463 -11.502  1.00 62.01 LIG 0.04  C 
BRANCH 13 15
ATOM     15 OG1  THR R   6       5.241  -1.769 -12.198  1.00 91.48 LIG-0.39  OA
ATOM     16 HG1  THR R   6       5.690  -2.147 -12.798  1.00 91.48 LIG 0.21  HD
ENDBRANCH 13 15
ENDBRANCH 12 13
BRANCH 12 17
ATOM     17  C   THR R   6       7.213  -2.592  -9.141  1.00 56.48 LIG 0.24  C 
ATOM     18  N   LEU R   7       8.529  -2.579  -8.941  1.00 43.78 LIG-0.35  N 
ATOM     19 H    LEU R   7       9.111  -2.655  -9.570  1.00 43.78 LIG 0.16  HD
ATOM     20 O    THR R   6       6.390  -2.464  -8.231  1.00 41.48 LIG-0.27  OA
BRANCH 18 21
ATOM     21  CA  LEU R   7       9.097  -2.430  -7.608  1.00 53.52 LIG 0.16  C 
BRANCH 21 22
ATOM     22  CB  LEU R   7       9.211  -3.793  -6.922  1.00 41.32 LIG 0.04  C 
BRANCH 22 23
ATOM     23  CG  LEU R   7       8.006  -4.190  -6.064  1.00 48.65 LIG-0.02  C 
ATOM     24  CD1 LEU R   7       7.271  -2.964  -5.534  1.00 40.28 LIG 0.01  C 
ATOM     25  CD2 LEU R   7       7.056  -5.089  -6.845  1.00 37.72 LIG 0.01  C 
ENDBRANCH 22 23
ENDBRANCH 21 22
BRANCH 21 26
ATOM     26  C   LEU R   7      10.456  -1.736  -7.653  1.00 46.73 LIG 0.22  C 
ATOM     27 O    LEU R   7      11.368  -2.089  -6.903  1.00 57.50 LIG-0.29  OA
ENDBRANCH 21 26
ENDBRANCH 18 21
ENDBRANCH 12 17
ENDBRANCH 10 12
ENDBRANCH 4 8
BRANCH 1 28
ATOM     28  CA  PRO R   4       1.440  -4.068 -13.157  1.00 54.23 LIG 0.18  C 
ATOM     29  N   PRO R   4       0.099  -3.494 -13.010  1.00 66.40 LIG-0.34  N 
ATOM     30  CD  PRO R   4       0.088  -2.076 -13.399  1.00 55.20 LIG 0.13  C 
ATOM     31  C   MET R   3      -1.043  -4.127 -12.688  1.00 65.13 LIG 0.26  C 
ATOM     32  CG  PRO R   4       1.116  -2.040 -14.483  1.00 51.34 LIG 0.02  C 
ATOM     33  CB  PRO R   4       2.144  -3.077 -14.103  1.00 43.90 LIG 0.04  C 
ATOM     34 O    MET R   3      -2.109  -3.528 -12.528  1.00 74.37 LIG-0.27  OA
BRANCH 31 35
ATOM     35  CA  MET R   3      -0.989  -5.645 -12.529  1.00 67.30 LIG 0.40  C 
ATOM     36  N   MET R   3      -0.601  -6.062 -11.184  1.00 55.69 LIG 0.61  N 
BRANCH 35 37
ATOM     37  CB  MET R   3      -2.358  -6.224 -12.903  1.00 55.44 LIG 0.06  C 
BRANCH 37 38
ATOM     38  CG  MET R   3      -2.538  -6.566 -14.366  1.00 49.90 LIG 0.08  C 
BRANCH 38 39
ATOM     39 SD   MET R   3      -2.924  -5.076 -15.303  1.00 67.63 LIG-0.17  SA
ATOM     40  CE  MET R   3      -1.383  -4.816 -16.180  1.00 69.90 LIG 0.09  C 
ENDBRANCH 38 39
ENDBRANCH 37 38
ENDBRANCH 35 37
ENDBRANCH 31 35
ENDBRANCH 1 28
TORSDOF 14
ENDMDL
MODEL 11
USER: ADFR SOLUTION from run 149
USER: SCORE 12.175505 LL:  -3.296 LR:  -9.875 RR:   0.000 FEB:  -5.699
USER: RMSD 8.337292
USER: SEED 148
USER: STATUS no improvement in best in 17 clusters for 5 generations
USER: GENES 16
USER: genes 0 Translation |==|  0.30956 0.30144 0.65643
USER: genes 1 Rotation |==|  0.89267 0.34424 0.76684 0.51864
USER: genes 2 Torsion [N]-CA--C-[N] |==|  0.91048
USER: genes 3 Torsion [C]-N--CA-[CB] |==|  0.25000
USER: genes 4 Torsion [N]-CA--CB-[CG2] |==|  0.41265
USER: genes 5 Torsion [CA]-CB--OG1-[HG1] |==|  0.06068
USER: genes 6 Torsion [N]-CA--C-[N] |==|  0.41603
USER: genes 7 Torsion [C]-N--CA-[CB] |==|  0.13631
USER: genes 8 Torsion [N]-CA--CB-[CG] |==|  0.34960
USER: genes 9 Torsion [CA]-CB--CG-[CD1] |==|  0.24292
USER: genes 10 Torsion [N]-CA--C-[O] |==|  0.96846
USER: genes 11 Torsion [O]-C--CA-[N] |==|  0.93290
USER: genes 12 Torsion [N]-C--CA-[N] |==|  0.81752
USER: genes 13 Torsion [C]-CA--CB-[CG] |==|  0.26422
USER: genes 14 Torsion [CA]-CB--CG-[SD] |==|  0.51652
USER: genes 15 Torsion [CB]-CG--SD-[CE] |==|  0.61632
ROOT
ATOM      1  C   PRO R   4       2.338  -3.860 -11.985  1.00 60.54 LIG 0.24  C 
ATOM      2 O    PRO R   4       2.081  -3.200 -10.976  1.00 63.53 LIG-0.27  OA
ATOM      3  N   PRO R   5       3.335  -4.761 -12.042  1.00 48.92 LIG-0.34  N 
ATOM      4  CA  PRO R   5       4.216  -4.985 -10.887  1.00 52.68 LIG 0.18  C 
ATOM      5  CB  PRO R   5       5.183  -6.063 -11.390  1.00 55.54 LIG 0.04  C 
ATOM      6  CG  PRO R   5       4.439  -6.782 -12.451  1.00 46.13 LIG 0.02  C 
ATOM      7  CD  PRO R   5       3.571  -5.746 -13.114  1.00 43.47 LIG 0.13  C 
ENDROOT
BRANCH 4 8
ATOM      8  C   PRO R   5       5.005  -3.741 -10.468  1.00 58.07 LIG 0.24  C 
ATOM      9 O    PRO R   5       5.288  -3.549  -9.282  1.00 51.36 LIG-0.27  OA
ATOM     10  N   THR R   6       5.345  -2.905 -11.445  1.00 69.24 LIG-0.34  N 
ATOM     11 H    THR R   6       5.191  -3.058 -12.277  1.00 69.24 LIG 0.16  HD
BRANCH 10 12
ATOM     12  CA  THR R   6       6.021  -1.639 -11.185  1.00 55.31 LIG 0.20  C 
BRANCH 12 13
ATOM     13  CB  THR R   6       7.557  -1.799 -11.200  1.00 60.29 LIG 0.15  C 
ATOM     14  CG2 THR R   6       8.230  -0.528 -11.696  1.00 62.01 LIG 0.04  C 
BRANCH 13 15
ATOM     15 OG1  THR R   6       8.024  -2.089  -9.876  1.00 91.48 LIG-0.39  OA
ATOM     16 HG1  THR R   6       7.395  -2.406  -9.420  1.00 91.48 LIG 0.21  HD
ENDBRANCH 13 15
ENDBRANCH 12 13
BRANCH 12 17
ATOM     17  C   THR R   6       5.613  -0.615 -12.234  1.00 56.48 LIG 0.24  C 
ATOM     18  N   LEU R   7       5.603   0.657 -11.842  1.00 43.78 LIG-0.35  N 
ATOM     19 H    LEU R   7       5.824   0.918 -11.053  1.00 43.78 LIG 0.16  HD
ATOM     20 O    THR R   6       5.309  -0.972 -13.375  1.00 41.48 LIG-0.27  OA
BRANCH 18 21
ATOM     21  CA  LEU R   7       5.206   1.731 -12.743  1.00 53.52 LIG 0.16  C 
BRANCH 21 22
ATOM     22  CB  LEU R   7       3.884   1.388 -13.432  1.00 41.32 LIG 0.04  C 
BRANCH 22 23
ATOM     23  CG  LEU R   7       2.784   2.444 -13.286  1.00 48.65 LIG-0.02  C 
ATOM     24  CD1 LEU R   7       2.875   3.498 -14.383  1.00 40.28 LIG 0.01  C 
ATOM     25  CD2 LEU R   7       1.406   1.795 -13.278  1.00 37.72 LIG 0.01  C 
ENDBRANCH 22 23
ENDBRANCH 21 22
BRANCH 21 26
ATOM     26  C   LEU R   7       5.099   3.066 -12.010  1.00 46.73 LIG 0.22  C 
ATOM     27 O    LEU R   7       5.129   3.112 -10.779  1.00 57.50 LIG-0.29  OA
ENDBRANCH 21 26
ENDBRANCH 18 21
ENDBRANCH 12 17
ENDBRANCH 10 12
ENDBRANCH 4 8
BRANCH 1 28
ATOM     28  CA  PRO R   4       1.487  -3.659 -13.238  1.00 54.23 LIG 0.18  C 
ATOM     29  N   PRO R   4       0.169  -3.136 -12.864  1.00 66.40 LIG-0.34  N 
ATOM     30  CD  PRO R   4       0.111  -1.678 -13.040  1.00 55.20 LIG 0.13  C 
ATOM     31  C   MET R   3      -0.928  -3.830 -12.514  1.00 65.13 LIG 0.26  C 
ATOM     32  CG  PRO R   4       1.012  -1.468 -14.214  1.00 51.34 LIG 0.02  C 
ATOM     33  CB  PRO R   4       2.079  -2.529 -14.103  1.00 43.90 LIG 0.04  C 
ATOM     34 O    MET R   3      -1.972  -3.280 -12.153  1.00 74.37 LIG-0.27  OA
BRANCH 31 35
ATOM     35  CA  MET R   3      -0.853  -5.354 -12.582  1.00 67.30 LIG 0.40  C 
ATOM     36  N   MET R   3      -0.692  -5.853 -13.945  1.00 55.69 LIG 0.61  N 
BRANCH 35 37
ATOM     37  CB  MET R   3       0.302  -5.826 -11.691  1.00 55.44 LIG 0.06  C 
BRANCH 37 38
ATOM     38  CG  MET R   3      -0.090  -6.232 -10.287  1.00 49.90 LIG 0.08  C 
BRANCH 38 39
ATOM     39 SD   MET R   3       1.385  -6.593  -9.317  1.00 67.63 LIG-0.17  SA
ATOM     40  CE  MET R   3       0.862  -8.062  -8.435  1.00 69.90 LIG 0.09  C 
ENDBRANCH 38 39
ENDBRANCH 37 38
ENDBRANCH 35 37
ENDBRANCH 31 35
ENDBRANCH 1 28
TORSDOF 14
ENDMDL
MODEL 12
USER: ADFR SOLUTION from run 154
USER: SCORE 11.782339 LL:  -3.038 LR:  -9.842 RR:   0.000 FEB:  -5.666
USER: RMSD 8.593371
USER: SEED 153
USER: STATUS no improvement in best in 17 clusters for 5 generations
USER: GENES 16
USER: genes 0 Translation |==|  0.26536 0.35739 0.53461
USER: genes 1 Rotation |==|  0.42660 0.58860 0.98316 0.55762
USER: genes 2 Torsion [N]-CA--C-[N] |==|  0.87491
USER: genes 3 Torsion [C]-N--CA-[CB] |==|  0.21384
USER: genes 4 Torsion [N]-CA--CB-[CG2] |==|  0.63732
USER: genes 5 Torsion [CA]-CB--OG1-[HG1] |==|  0.18556
USER: genes 6 Torsion [N]-CA--C-[N] |==|  0.28166
USER: genes 7 Torsion [C]-N--CA-[CB] |==|  0.86837
USER: genes 8 Torsion [N]-CA--CB-[CG] |==|  0.39585
USER: genes 9 Torsion [CA]-CB--CG-[CD1] |==|  0.40204
USER: genes 10 Torsion [N]-CA--C-[O] |==|  0.05908
USER: genes 11 Torsion [O]-C--CA-[N] |==|  0.92691
USER: genes 12 Torsion [N]-C--CA-[N] |==|  0.85313
USER: genes 13 Torsion [C]-CA--CB-[CG] |==|  0.59607
USER: genes 14 Torsion [CA]-CB--CG-[SD] |==|  0.57622
USER: genes 15 Torsion [CB]-CG--SD-[CE] |==|  0.36109
ROOT
ATOM      1  C   PRO R   4       1.542  -2.727 -14.452  1.00 60.54 LIG 0.24  C 
ATOM      2 O    PRO R   4       1.469  -2.368 -15.629  1.00 63.53 LIG-0.27  OA
ATOM      3  N   PRO R   5       0.645  -2.372 -13.516  1.00 48.92 LIG-0.34  N 
ATOM      4  CA  PRO R   5      -0.478  -1.483 -13.846  1.00 52.68 LIG 0.18  C 
ATOM      5  CB  PRO R   5      -1.219  -1.347 -12.511  1.00 55.54 LIG 0.04  C 
ATOM      6  CG  PRO R   5      -0.884  -2.579 -11.758  1.00 46.13 LIG 0.02  C 
ATOM      7  CD  PRO R   5       0.525  -2.928 -12.156  1.00 43.47 LIG 0.13  C 
ENDROOT
BRANCH 4 8
ATOM      8  C   PRO R   5      -0.041  -0.099 -14.335  1.00 58.07 LIG 0.24  C 
ATOM      9 O    PRO R   5      -0.570   0.411 -15.326  1.00 51.36 LIG-0.27  OA
ATOM     10  N   THR R   6       0.926   0.491 -13.638  1.00 69.24 LIG-0.34  N 
ATOM     11 H    THR R   6       1.265   0.161 -12.921  1.00 69.24 LIG 0.16  HD
BRANCH 10 12
ATOM     12  CA  THR R   6       1.503   1.770 -14.037  1.00 55.31 LIG 0.20  C 
BRANCH 12 13
ATOM     13  CB  THR R   6       0.571   2.951 -13.686  1.00 60.29 LIG 0.15  C 
ATOM     14  CG2 THR R   6       0.384   3.869 -14.884  1.00 62.01 LIG 0.04  C 
BRANCH 13 15
ATOM     15 OG1  THR R   6      -0.709   2.449 -13.278  1.00 91.48 LIG-0.39  OA
ATOM     16 HG1  THR R   6      -0.628   2.035 -12.552  1.00 91.48 LIG 0.21  HD
ENDBRANCH 13 15
ENDBRANCH 12 13
BRANCH 12 17
ATOM     17  C   THR R   6       2.844   1.966 -13.346  1.00 56.48 LIG 0.24  C 
ATOM     18  N   LEU R   7       3.927   1.727 -14.083  1.00 43.78 LIG-0.35  N 
ATOM     19 H    LEU R   7       3.902   1.490 -14.909  1.00 43.78 LIG 0.16  HD
ATOM     20 O    THR R   6       2.896   2.323 -12.166  1.00 41.48 LIG-0.27  OA
BRANCH 18 21
ATOM     21  CA  LEU R   7       5.269   1.854 -13.531  1.00 53.52 LIG 0.16  C 
BRANCH 21 22
ATOM     22  CB  LEU R   7       5.408   3.171 -12.764  1.00 41.32 LIG 0.04  C 
BRANCH 22 23
ATOM     23  CG  LEU R   7       6.258   3.094 -11.492  1.00 48.65 LIG-0.02  C 
ATOM     24  CD1 LEU R   7       7.052   4.375 -11.274  1.00 40.28 LIG 0.01  C 
ATOM     25  CD2 LEU R   7       5.390   2.786 -10.278  1.00 37.72 LIG 0.01  C 
ENDBRANCH 22 23
ENDBRANCH 21 22
BRANCH 21 26
ATOM     26  C   LEU R   7       5.619   0.670 -12.632  1.00 46.73 LIG 0.22  C 
ATOM     27 O    LEU R   7       5.017  -0.400 -12.737  1.00 57.50 LIG-0.29  OA
ENDBRANCH 21 26
ENDBRANCH 18 21
ENDBRANCH 12 17
ENDBRANCH 10 12
ENDBRANCH 4 8
BRANCH 1 28
ATOM     28  CA  PRO R   4       2.702  -3.626 -14.024  1.00 54.23 LIG 0.18  C 
ATOM     29  N   PRO R   4       3.177  -4.402 -15.172  1.00 66.40 LIG-0.34  N 
ATOM     30  CD  PRO R   4       4.367  -3.781 -15.772  1.00 55.20 LIG 0.13  C 
ATOM     31  C   MET R   3       2.727  -5.590 -15.613  1.00 65.13 LIG 0.26  C 
ATOM     32  CG  PRO R   4       5.040  -3.177 -14.582  1.00 51.34 LIG 0.02  C 
ATOM     33  CB  PRO R   4       3.926  -2.767 -13.650  1.00 43.90 LIG 0.04  C 
ATOM     34 O    MET R   3       3.162  -6.125 -16.636  1.00 74.37 LIG-0.27  OA
BRANCH 31 35
ATOM     35  CA  MET R   3       1.641  -6.283 -14.793  1.00 67.30 LIG 0.40  C 
ATOM     36  N   MET R   3       1.997  -6.424 -13.383  1.00 55.69 LIG 0.61  N 
BRANCH 35 37
ATOM     37  CB  MET R   3       0.335  -5.495 -14.946  1.00 55.44 LIG 0.06  C 
BRANCH 37 38
ATOM     38  CG  MET R   3      -0.549  -5.463 -13.718  1.00 49.90 LIG 0.08  C 
BRANCH 38 39
ATOM     39 SD   MET R   3      -2.271  -5.257 -14.206  1.00 67.63 LIG-0.17  SA
ATOM     40  CE  MET R   3      -3.048  -6.579 -13.278  1.00 69.90 LIG 0.09  C 
ENDBRANCH 38 39
ENDBRANCH 37 38
ENDBRANCH 35 37
ENDBRANCH 31 35
ENDBRANCH 1 28
TORSDOF 14
ENDMDL
MODEL 13
USER: ADFR SOLUTION from run 166
USER: SCORE 12.172203 LL:  -4.044 LR:  -9.833 RR:   0.000 FEB:  -5.657
USER: RMSD 10.092595
USER: SEED 165
USER: STATUS no improvement in best in 24 clusters for 5 generations
USER: GENES 16
USER: genes 0 Translation |==|  0.51071 0.31881 0.81439
USER: genes 1 Rotation |==|  0.78182 0.84880 0.30425 0.60296
USER: genes 2 Torsion [N]-CA--C-[N] |==|  0.59142
USER: genes 3 Torsion [C]-N--CA-[CB] |==|  0.42676
USER: genes 4 Torsion [N]-CA--CB-[CG2] |==|  0.18093
USER: genes 5 Torsion [CA]-CB--OG1-[HG1] |==|  0.86678
USER: genes 6 Torsion [N]-CA--C-[N] |==|  0.11487
USER: genes 7 Torsion [C]-N--CA-[CB] |==|  0.45312
USER: genes 8 Torsion [N]-CA--CB-[CG] |==|  0.91901
USER: genes 9 Torsion [CA]-CB--CG-[CD1] |==|  0.46441
USER: genes 10 Torsion [N]-CA--C-[O] |==|  0.09564
USER: genes 11 Torsion [O]-C--CA-[N] |==|  0.86271
USER: genes 12 Torsion [N]-C--CA-[N] |==|  0.41945
USER: genes 13 Torsion [C]-CA--CB-[CG] |==|  0.03052
USER: genes 14 Torsion [CA]-CB--CG-[SD] |==|  0.30846
USER: genes 15 Torsion [CB]-CG--SD-[CE] |==|  0.53221
ROOT
ATOM      1  C   PRO R   4       5.959  -3.508  -8.787  1.00 60.54 LIG 0.24  C 
ATOM      2 O    PRO R   4       5.319  -2.527  -8.402  1.00 63.53 LIG-0.27  OA
ATOM      3  N   PRO R   5       5.811  -4.051 -10.008  1.00 48.92 LIG-0.34  N 
ATOM      4  CA  PRO R   5       4.827  -3.514 -10.958  1.00 52.68 LIG 0.18  C 
ATOM      5  CB  PRO R   5       4.995  -4.420 -12.184  1.00 55.54 LIG 0.04  C 
ATOM      6  CG  PRO R   5       6.386  -4.926 -12.099  1.00 46.13 LIG 0.02  C 
ATOM      7  CD  PRO R   5       6.679  -5.067 -10.630  1.00 43.47 LIG 0.13  C 
ENDROOT
BRANCH 4 8
ATOM      8  C   PRO R   5       3.383  -3.592 -10.455  1.00 58.07 LIG 0.24  C 
ATOM      9 O    PRO R   5       3.131  -3.483  -9.252  1.00 51.36 LIG-0.27  OA
ATOM     10  N   THR R   6       2.449  -3.788 -11.382  1.00 69.24 LIG-0.34  N 
ATOM     11 H    THR R   6       2.614  -3.819 -12.226  1.00 69.24 LIG 0.16  HD
BRANCH 10 12
ATOM     12  CA  THR R   6       1.042  -3.970 -11.043  1.00 55.31 LIG 0.20  C 
BRANCH 12 13
ATOM     13  CB  THR R   6       0.116  -3.533 -12.200  1.00 60.29 LIG 0.15  C 
ATOM     14  CG2 THR R   6       0.308  -4.428 -13.415  1.00 62.01 LIG 0.04  C 
BRANCH 13 15
ATOM     15 OG1  THR R   6      -1.252  -3.608 -11.777  1.00 91.48 LIG-0.39  OA
ATOM     16 HG1  THR R   6      -1.390  -4.347 -11.405  1.00 91.48 LIG 0.21  HD
ENDBRANCH 13 15
ENDBRANCH 12 13
BRANCH 12 17
ATOM     17  C   THR R   6       0.778  -5.432 -10.713  1.00 56.48 LIG 0.24  C 
ATOM     18  N   LEU R   7       1.704  -6.045  -9.979  1.00 43.78 LIG-0.35  N 
ATOM     19 H    LEU R   7       2.412  -5.660  -9.681  1.00 43.78 LIG 0.16  HD
ATOM     20 O    THR R   6      -0.242  -5.993 -11.120  1.00 41.48 LIG-0.27  OA
BRANCH 18 21
ATOM     21  CA  LEU R   7       1.582  -7.451  -9.617  1.00 53.52 LIG 0.16  C 
BRANCH 21 22
ATOM     22  CB  LEU R   7       2.933  -8.000  -9.152  1.00 41.32 LIG 0.04  C 
BRANCH 22 23
ATOM     23  CG  LEU R   7       4.157  -7.323  -9.777  1.00 48.65 LIG-0.02  C 
ATOM     24  CD1 LEU R   7       5.438  -7.701  -9.043  1.00 40.28 LIG 0.01  C 
ATOM     25  CD2 LEU R   7       4.267  -7.662 -11.258  1.00 37.72 LIG 0.01  C 
ENDBRANCH 22 23
ENDBRANCH 21 22
BRANCH 21 26
ATOM     26  C   LEU R   7       0.519  -7.662  -8.541  1.00 46.73 LIG 0.22  C 
ATOM     27 O    LEU R   7      -0.496  -6.964  -8.515  1.00 57.50 LIG-0.29  OA
ENDBRANCH 21 26
ENDBRANCH 18 21
ENDBRANCH 12 17
ENDBRANCH 10 12
ENDBRANCH 4 8
BRANCH 1 28
ATOM     28  CA  PRO R   4       6.978  -4.144  -7.842  1.00 54.23 LIG 0.18  C 
ATOM     29  N   PRO R   4       7.852  -3.108  -7.285  1.00 66.40 LIG-0.34  N 
ATOM     30  CD  PRO R   4       7.408  -2.710  -5.941  1.00 55.20 LIG 0.13  C 
ATOM     31  C   MET R   3       8.990  -2.616  -7.805  1.00 65.13 LIG 0.26  C 
ATOM     32  CG  PRO R   4       6.846  -3.987  -5.405  1.00 51.34 LIG 0.02  C 
ATOM     33  CB  PRO R   4       6.264  -4.707  -6.597  1.00 43.90 LIG 0.04  C 
ATOM     34 O    MET R   3       9.615  -1.693  -7.278  1.00 74.37 LIG-0.27  OA
BRANCH 31 35
ATOM     35  CA  MET R   3       9.510  -3.251  -9.094  1.00 67.30 LIG 0.40  C 
ATOM     36  N   MET R   3      10.273  -2.318  -9.919  1.00 55.69 LIG 0.61  N 
BRANCH 35 37
ATOM     37  CB  MET R   3      10.360  -4.473  -8.729  1.00 55.44 LIG 0.06  C 
BRANCH 37 38
ATOM     38  CG  MET R   3      10.275  -4.911  -7.283  1.00 49.90 LIG 0.08  C 
BRANCH 38 39
ATOM     39 SD   MET R   3       9.417  -6.492  -7.169  1.00 67.63 LIG-0.17  SA
ATOM     40  CE  MET R   3       9.141  -6.603  -5.402  1.00 69.90 LIG 0.09  C 
ENDBRANCH 38 39
ENDBRANCH 37 38
ENDBRANCH 35 37
ENDBRANCH 31 35
ENDBRANCH 1 28
TORSDOF 14
ENDMDL
MODEL 14
USER: ADFR SOLUTION from run 123
USER: SCORE 12.483768 LL:  -2.771 LR:  -9.814 RR:   0.000 FEB:  -5.638
USER: RMSD 10.695152
USER: SEED 122
USER: STATUS no improvement in best in 10 clusters for 5 generations
USER: GENES 16
USER: genes 0 Translation |==|  0.54542 0.23569 0.82224
USER: genes 1 Rotation |==|  0.27139 0.06394 0.43436 0.55730
USER: genes 2 Torsion [N]-CA--C-[N] |==|  0.84651
USER: genes 3 Torsion [C]-N--CA-[CB] |==|  0.85000
USER: genes 4 Torsion [N]-CA--CB-[CG2] |==|  0.36311
USER: genes 5 Torsion [CA]-CB--OG1-[HG1] |==|  0.74407
USER: genes 6 Torsion [N]-CA--C-[N] |==|  0.41062
USER: genes 7 Torsion [C]-N--CA-[CB] |==|  0.16257
USER: genes 8 Torsion [N]-CA--CB-[CG] |==|  0.64703
USER: genes 9 Torsion [CA]-CB--CG-[CD1] |==|  0.34488
USER: genes 10 Torsion [N]-CA--C-[O] |==|  0.31890
USER: genes 11 Torsion [O]-C--CA-[N] |==|  0.01742
USER: genes 12 Torsion [N]-C--CA-[N] |==|  0.86604
USER: genes 13 Torsion [C]-CA--CB-[CG] |==|  0.56298
USER: genes 14 Torsion [CA]-CB--CG-[SD] |==|  0.23214
USER: genes 15 Torsion [CB]-CG--SD-[CE] |==|  0.65618
ROOT
ATOM      1  C   PRO R   4       6.584  -5.191  -8.628  1.00 60.54 LIG 0.24  C 
ATOM      2 O    PRO R   4       5.816  -5.465  -7.703  1.00 63.53 LIG-0.27  OA
ATOM      3  N   PRO R   5       6.335  -4.224  -9.529  1.00 48.92 LIG-0.34  N 
ATOM      4  CA  PRO R   5       5.087  -3.450  -9.480  1.00 52.68 LIG 0.18  C 
ATOM      5  CB  PRO R   5       5.225  -2.490 -10.668  1.00 55.54 LIG 0.04  C 
ATOM      6  CG  PRO R   5       6.685  -2.345 -10.877  1.00 46.13 LIG 0.02  C 
ATOM      7  CD  PRO R   5       7.282  -3.679 -10.519  1.00 43.47 LIG 0.13  C 
ENDROOT
BRANCH 4 8
ATOM      8  C   PRO R   5       3.828  -4.304  -9.652  1.00 58.07 LIG 0.24  C 
ATOM      9 O    PRO R   5       2.933  -4.279  -8.803  1.00 51.36 LIG-0.27  OA
ATOM     10  N   THR R   6       3.776  -5.057 -10.747  1.00 69.24 LIG-0.34  N 
ATOM     11 H    THR R   6       4.375  -5.043 -11.364  1.00 69.24 LIG 0.16  HD
BRANCH 10 12
ATOM     12  CA  THR R   6       2.680  -5.987 -11.001  1.00 55.31 LIG 0.20  C 
BRANCH 12 13
ATOM     13  CB  THR R   6       2.478  -6.964  -9.821  1.00 60.29 LIG 0.15  C 
ATOM     14  CG2 THR R   6       1.015  -7.018  -9.408  1.00 62.01 LIG 0.04  C 
BRANCH 13 15
ATOM     15 OG1  THR R   6       2.904  -8.277 -10.205  1.00 91.48 LIG-0.39  OA
ATOM     16 HG1  THR R   6       2.250  -8.705 -10.512  1.00 91.48 LIG 0.21  HD
ENDBRANCH 13 15
ENDBRANCH 12 13
BRANCH 12 17
ATOM     17  C   THR R   6       1.393  -5.211 -11.237  1.00 56.48 LIG 0.24  C 
ATOM     18  N   LEU R   7       0.522  -5.759 -12.082  1.00 43.78 LIG-0.35  N 
ATOM     19 H    LEU R   7       0.645  -6.514 -12.474  1.00 43.78 LIG 0.16  HD
ATOM     20 O    THR R   6       1.196  -4.134 -10.668  1.00 41.48 LIG-0.27  OA
BRANCH 18 21
ATOM     21  CA  LEU R   7      -0.736  -5.104 -12.413  1.00 53.52 LIG 0.16  C 
BRANCH 21 22
ATOM     22  CB  LEU R   7      -0.476  -3.721 -13.014  1.00 41.32 LIG 0.04  C 
BRANCH 22 23
ATOM     23  CG  LEU R   7      -1.224  -2.569 -12.336  1.00 48.65 LIG-0.02  C 
ATOM     24  CD1 LEU R   7      -0.264  -1.484 -11.862  1.00 40.28 LIG 0.01  C 
ATOM     25  CD2 LEU R   7      -2.278  -1.983 -13.268  1.00 37.72 LIG 0.01  C 
ENDBRANCH 22 23
ENDBRANCH 21 22
BRANCH 21 26
ATOM     26  C   LEU R   7      -1.576  -5.954 -13.364  1.00 46.73 LIG 0.22  C 
ATOM     27 O    LEU R   7      -2.658  -6.419 -13.004  1.00 57.50 LIG-0.29  OA
ENDBRANCH 21 26
ENDBRANCH 18 21
ENDBRANCH 12 17
ENDBRANCH 10 12
ENDBRANCH 4 8
BRANCH 1 28
ATOM     28  CA  PRO R   4       7.887  -5.977  -8.765  1.00 54.23 LIG 0.18  C 
ATOM     29  N   PRO R   4       7.913  -7.070  -7.790  1.00 66.40 LIG-0.34  N 
ATOM     30  CD  PRO R   4       7.515  -8.341  -8.413  1.00 55.20 LIG 0.13  C 
ATOM     31  C   MET R   3       8.342  -7.035  -6.516  1.00 65.13 LIG 0.26  C 
ATOM     32  CG  PRO R   4       8.034  -8.184  -9.805  1.00 51.34 LIG 0.02  C 
ATOM     33  CB  PRO R   4       7.920  -6.712 -10.119  1.00 43.90 LIG 0.04  C 
ATOM     34 O    MET R   3       8.256  -8.007  -5.761  1.00 74.37 LIG-0.27  OA
BRANCH 31 35
ATOM     35  CA  MET R   3       8.961  -5.732  -6.015  1.00 67.30 LIG 0.40  C 
ATOM     36  N   MET R   3       9.963  -5.191  -6.929  1.00 55.69 LIG 0.61  N 
BRANCH 35 37
ATOM     37  CB  MET R   3       7.837  -4.716  -5.779  1.00 55.44 LIG 0.06  C 
BRANCH 37 38
ATOM     38  CG  MET R   3       8.262  -3.264  -5.805  1.00 49.90 LIG 0.08  C 
BRANCH 38 39
ATOM     39 SD   MET R   3       8.318  -2.671  -7.506  1.00 67.63 LIG-0.17  SA
ATOM     40  CE  MET R   3      10.009  -2.089  -7.609  1.00 69.90 LIG 0.09  C 
ENDBRANCH 38 39
ENDBRANCH 37 38
ENDBRANCH 35 37
ENDBRANCH 31 35
ENDBRANCH 1 28
TORSDOF 14
ENDMDL
MODEL 15
USER: ADFR SOLUTION from run 166
USER: SCORE 12.347221 LL:  -3.352 LR:  -9.809 RR:   0.000 FEB:  -5.633
USER: RMSD 7.161623
USER: SEED 165
USER: STATUS no improvement in best in 24 clusters for 5 generations
USER: GENES 16
USER: genes 0 Translation |==|  0.30806 0.26671 0.62668
USER: genes 1 Rotation |==|  0.69543 0.36890 0.84335 0.77699
USER: genes 2 Torsion [N]-CA--C-[N] |==|  0.23667
USER: genes 3 Torsion [C]-N--CA-[CB] |==|  0.48889
USER: genes 4 Torsion [N]-CA--CB-[CG2] |==|  0.56333
USER: genes 5 Torsion [CA]-CB--OG1-[HG1] |==|  0.97443
USER: genes 6 Torsion [N]-CA--C-[N] |==|  0.37017
USER: genes 7 Torsion [C]-N--CA-[CB] |==|  0.28220
USER: genes 8 Torsion [N]-CA--CB-[CG] |==|  0.72593
USER: genes 9 Torsion [CA]-CB--CG-[CD1] |==|  0.87064
USER: genes 10 Torsion [N]-CA--C-[O] |==|  0.45955
USER: genes 11 Torsion [O]-C--CA-[N] |==|  0.89843
USER: genes 12 Torsion [N]-C--CA-[N] |==|  0.86252
USER: genes 13 Torsion [C]-CA--CB-[CG] |==|  0.09171
USER: genes 14 Torsion [CA]-CB--CG-[SD] |==|  0.16490
USER: genes 15 Torsion [CB]-CG--SD-[CE] |==|  0.60893
ROOT
ATOM      1  C   PRO R   4       2.311  -4.563 -12.588  1.00 60.54 LIG 0.24  C 
ATOM      2 O    PRO R   4       2.696  -3.399 -12.714  1.00 63.53 LIG-0.27  OA
ATOM      3  N   PRO R   5       2.352  -5.230 -11.420  1.00 48.92 LIG-0.34  N 
ATOM      4  CA  PRO R   5       2.906  -4.603 -10.213  1.00 52.68 LIG 0.18  C 
ATOM      5  CB  PRO R   5       2.759  -5.700  -9.151  1.00 55.54 LIG 0.04  C 
ATOM      6  CG  PRO R   5       1.633  -6.542  -9.623  1.00 46.13 LIG 0.02  C 
ATOM      7  CD  PRO R   5       1.715  -6.526 -11.125  1.00 43.47 LIG 0.13  C 
ENDROOT
BRANCH 4 8
ATOM      8  C   PRO R   5       4.380  -4.210 -10.346  1.00 58.07 LIG 0.24  C 
ATOM      9 O    PRO R   5       5.269  -4.968  -9.949  1.00 51.36 LIG-0.27  OA
ATOM     10  N   THR R   6       4.623  -3.025 -10.898  1.00 69.24 LIG-0.34  N 
ATOM     11 H    THR R   6       4.009  -2.514 -11.218  1.00 69.24 LIG 0.16  HD
BRANCH 10 12
ATOM     12  CA  THR R   6       5.971  -2.480 -11.011  1.00 55.31 LIG 0.20  C 
BRANCH 12 13
ATOM     13  CB  THR R   6       5.982  -1.139 -11.778  1.00 60.29 LIG 0.15  C 
ATOM     14  CG2 THR R   6       7.356  -0.865 -12.371  1.00 62.01 LIG 0.04  C 
BRANCH 13 15
ATOM     15 OG1  THR R   6       5.016  -1.182 -12.836  1.00 91.48 LIG-0.39  OA
ATOM     16 HG1  THR R   6       4.722  -1.964 -12.915  1.00 91.48 LIG 0.21  HD
ENDBRANCH 13 15
ENDBRANCH 12 13
BRANCH 12 17
ATOM     17  C   THR R   6       6.557  -2.270  -9.622  1.00 56.48 LIG 0.24  C 
ATOM     18  N   LEU R   7       7.799  -2.711  -9.435  1.00 43.78 LIG-0.35  N 
ATOM     19 H    LEU R   7       8.274  -3.084 -10.048  1.00 43.78 LIG 0.16  HD
ATOM     20 O    THR R   6       5.895  -1.722  -8.738  1.00 41.48 LIG-0.27  OA
BRANCH 18 21
ATOM     21  CA  LEU R   7       8.464  -2.593  -8.144  1.00 53.52 LIG 0.16  C 
BRANCH 21 22
ATOM     22  CB  LEU R   7       8.439  -3.933  -7.407  1.00 41.32 LIG 0.04  C 
BRANCH 22 23
ATOM     23  CG  LEU R   7       7.338  -4.070  -6.350  1.00 48.65 LIG-0.02  C 
ATOM     24  CD1 LEU R   7       7.266  -2.838  -5.457  1.00 40.28 LIG 0.01  C 
ATOM     25  CD2 LEU R   7       5.989  -4.339  -7.005  1.00 37.72 LIG 0.01  C 
ENDBRANCH 22 23
ENDBRANCH 21 22
BRANCH 21 26
ATOM     26  C   LEU R   7       9.899  -2.092  -8.298  1.00 46.73 LIG 0.22  C 
ATOM     27 O    LEU R   7      10.529  -1.677  -7.324  1.00 57.50 LIG-0.29  OA
ENDBRANCH 21 26
ENDBRANCH 18 21
ENDBRANCH 12 17
ENDBRANCH 10 12
ENDBRANCH 4 8
BRANCH 1 28
ATOM     28  CA  PRO R   4       1.753  -5.294 -13.808  1.00 54.23 LIG 0.18  C 
ATOM     29  N   PRO R   4       0.988  -4.360 -14.639  1.00 66.40 LIG-0.34  N 
ATOM     30  CD  PRO R   4       1.799  -3.872 -15.765  1.00 55.20 LIG 0.13  C 
ATOM     31  C   MET R   3      -0.311  -4.030 -14.535  1.00 65.13 LIG 0.26  C 
ATOM     32  CG  PRO R   4       2.664  -5.053 -16.064  1.00 51.34 LIG 0.02  C 
ATOM     33  CB  PRO R   4       2.904  -5.728 -14.736  1.00 43.90 LIG 0.04  C 
ATOM     34 O    MET R   3      -0.838  -3.178 -15.253  1.00 74.37 LIG-0.27  OA
BRANCH 31 35
ATOM     35  CA  MET R   3      -1.143  -4.761 -13.482  1.00 67.30 LIG 0.40  C 
ATOM     36  N   MET R   3      -0.986  -6.212 -13.542  1.00 55.69 LIG 0.61  N 
BRANCH 35 37
ATOM     37  CB  MET R   3      -0.756  -4.229 -12.098  1.00 55.44 LIG 0.06  C 
BRANCH 37 38
ATOM     38  CG  MET R   3      -0.364  -2.768 -12.053  1.00 49.90 LIG 0.08  C 
BRANCH 38 39
ATOM     39 SD   MET R   3      -1.729  -1.748 -12.637  1.00 67.63 LIG-0.17  SA
ATOM     40  CE  MET R   3      -0.847  -0.508 -13.583  1.00 69.90 LIG 0.09  C 
ENDBRANCH 38 39
ENDBRANCH 37 38
ENDBRANCH 35 37
ENDBRANCH 31 35
ENDBRANCH 1 28
TORSDOF 14
ENDMDL
MODEL 16
USER: ADFR SOLUTION from run 184
USER: SCORE 11.071851 LL:  -2.982 LR:  -9.794 RR:   0.000 FEB:  -5.618
USER: RMSD 8.828192
USER: SEED 183
USER: STATUS no improvement in best in 20 clusters for 5 generations
USER: GENES 16
USER: genes 0 Translation |==|  0.42998 0.29412 0.73431
USER: genes 1 Rotation |==|  0.73652 0.56157 0.85595 0.75213
USER: genes 2 Torsion [N]-CA--C-[N] |==|  0.22493
USER: genes 3 Torsion [C]-N--CA-[CB] |==|  0.37816
USER: genes 4 Torsion [N]-CA--CB-[CG2] |==|  0.83943
USER: genes 5 Torsion [CA]-CB--OG1-[HG1] |==|  0.30852
USER: genes 6 Torsion [N]-CA--C-[N] |==|  0.48823
USER: genes 7 Torsion [C]-N--CA-[CB] |==|  0.84109
USER: genes 8 Torsion [N]-CA--CB-[CG] |==|  0.89948
USER: genes 9 Torsion [CA]-CB--CG-[CD1] |==|  0.35293
USER: genes 10 Torsion [N]-CA--C-[O] |==|  0.08096
USER: genes 11 Torsion [O]-C--CA-[N] |==|  0.02135
USER: genes 12 Torsion [N]-C--CA-[N] |==|  0.43849
USER: genes 13 Torsion [C]-CA--CB-[CG] |==|  0.26950
USER: genes 14 Torsion [CA]-CB--CG-[SD] |==|  0.39705
USER: genes 15 Torsion [CB]-CG--SD-[CE] |==|  0.34475
ROOT
ATOM      1  C   PRO R   4       4.506  -4.008 -10.408  1.00 60.54 LIG 0.24  C 
ATOM      2 O    PRO R   4       4.169  -3.001 -11.034  1.00 63.53 LIG-0.27  OA
ATOM      3  N   PRO R   5       5.301  -3.971  -9.324  1.00 48.92 LIG-0.34  N 
ATOM      4  CA  PRO R   5       5.855  -2.699  -8.839  1.00 52.68 LIG 0.18  C 
ATOM      5  CB  PRO R   5       6.683  -3.123  -7.620  1.00 55.54 LIG 0.04  C 
ATOM      6  CG  PRO R   5       6.060  -4.383  -7.151  1.00 46.13 LIG 0.02  C 
ATOM      7  CD  PRO R   5       5.569  -5.080  -8.391  1.00 43.47 LIG 0.13  C 
ENDROOT
BRANCH 4 8
ATOM      8  C   PRO R   5       6.758  -1.996  -9.856  1.00 58.07 LIG 0.24  C 
ATOM      9 O    PRO R   5       7.985  -2.089  -9.774  1.00 51.36 LIG-0.27  OA
ATOM     10  N   THR R   6       6.140  -1.292 -10.800  1.00 69.24 LIG-0.34  N 
ATOM     11 H    THR R   6       5.285  -1.262 -10.889  1.00 69.24 LIG 0.16  HD
BRANCH 10 12
ATOM     12  CA  THR R   6       6.870  -0.499 -11.783  1.00 55.31 LIG 0.20  C 
BRANCH 12 13
ATOM     13  CB  THR R   6       6.295  -0.683 -13.205  1.00 60.29 LIG 0.15  C 
ATOM     14  CG2 THR R   6       6.325  -2.148 -13.616  1.00 62.01 LIG 0.04  C 
BRANCH 13 15
ATOM     15 OG1  THR R   6       4.940  -0.216 -13.241  1.00 91.48 LIG-0.39  OA
ATOM     16 HG1  THR R   6       4.897   0.480 -13.707  1.00 91.48 LIG 0.21  HD
ENDBRANCH 13 15
ENDBRANCH 12 13
BRANCH 12 17
ATOM     17  C   THR R   6       6.808   0.973 -11.403  1.00 56.48 LIG 0.24  C 
ATOM     18  N   LEU R   7       7.508   1.808 -12.167  1.00 43.78 LIG-0.35  N 
ATOM     19 H    LEU R   7       7.966   1.562 -12.852  1.00 43.78 LIG 0.16  HD
ATOM     20 O    THR R   6       6.141   1.343 -10.434  1.00 41.48 LIG-0.27  OA
BRANCH 18 21
ATOM     21  CA  LEU R   7       7.552   3.238 -11.894  1.00 53.52 LIG 0.16  C 
BRANCH 21 22
ATOM     22  CB  LEU R   7       6.137   3.823 -11.886  1.00 41.32 LIG 0.04  C 
BRANCH 22 23
ATOM     23  CG  LEU R   7       5.176   3.207 -12.908  1.00 48.65 LIG-0.02  C 
ATOM     24  CD1 LEU R   7       3.890   2.730 -12.245  1.00 40.28 LIG 0.01  C 
ATOM     25  CD2 LEU R   7       4.869   4.194 -14.027  1.00 37.72 LIG 0.01  C 
ENDBRANCH 22 23
ENDBRANCH 21 22
BRANCH 21 26
ATOM     26  C   LEU R   7       8.263   3.535 -10.576  1.00 46.73 LIG 0.22  C 
ATOM     27 O    LEU R   7       9.145   2.786 -10.154  1.00 57.50 LIG-0.29  OA
ENDBRANCH 21 26
ENDBRANCH 18 21
ENDBRANCH 12 17
ENDBRANCH 10 12
ENDBRANCH 4 8
BRANCH 1 28
ATOM     28  CA  PRO R   4       3.997  -5.372 -10.873  1.00 54.23 LIG 0.18  C 
ATOM     29  N   PRO R   4       3.301  -5.231 -12.155  1.00 66.40 LIG-0.34  N 
ATOM     30  CD  PRO R   4       4.182  -5.592 -13.275  1.00 55.20 LIG 0.13  C 
ATOM     31  C   MET R   3       2.006  -4.937 -12.367  1.00 65.13 LIG 0.26  C 
ATOM     32  CG  PRO R   4       5.033  -6.662 -12.673  1.00 51.34 LIG 0.02  C 
ATOM     33  CB  PRO R   4       5.186  -6.290 -11.218  1.00 43.90 LIG 0.04  C 
ATOM     34 O    MET R   3       1.539  -4.779 -13.498  1.00 74.37 LIG-0.27  OA
BRANCH 31 35
ATOM     35  CA  MET R   3       1.101  -4.807 -11.144  1.00 67.30 LIG 0.40  C 
ATOM     36  N   MET R   3      -0.096  -4.012 -11.404  1.00 55.69 LIG 0.61  N 
BRANCH 35 37
ATOM     37  CB  MET R   3       0.724  -6.214 -10.663  1.00 55.44 LIG 0.06  C 
BRANCH 37 38
ATOM     38  CG  MET R   3       1.566  -6.756  -9.529  1.00 49.90 LIG 0.08  C 
BRANCH 38 39
ATOM     39 SD   MET R   3       0.535  -7.714  -8.403  1.00 67.63 LIG-0.17  SA
ATOM     40  CE  MET R   3       1.399  -9.284  -8.403  1.00 69.90 LIG 0.09  C 
ENDBRANCH 38 39
ENDBRANCH 37 38
ENDBRANCH 35 37
ENDBRANCH 31 35
ENDBRANCH 1 28
TORSDOF 14
ENDMDL
MODEL 17
USER: ADFR SOLUTION from run 10
USER: SCORE 12.003950 LL:  -3.188 LR:  -9.784 RR:   0.000 FEB:  -5.608
USER: RMSD 7.939573
USER: SEED 186913
USER: STATUS no improvement in best in 10 clusters for 5 generations
USER: GENES 16
USER: genes 0 Translation |==|  0.29167 0.28910 0.61430
USER: genes 1 Rotation |==|  0.89239 0.27366 0.71074 0.51962
USER: genes 2 Torsion [N]-CA--C-[N] |==|  0.39084
USER: genes 3 Torsion [C]-N--CA-[CB] |==|  0.21667
USER: genes 4 Torsion [N]-CA--CB-[CG2] |==|  0.15034
USER: genes 5 Torsion [CA]-CB--OG1-[HG1] |==|  0.59517
USER: genes 6 Torsion [N]-CA--C-[N] |==|  0.40335
USER: genes 7 Torsion [C]-N--CA-[CB] |==|  0.84029
USER: genes 8 Torsion [N]-CA--CB-[CG] |==|  0.82777
USER: genes 9 Torsion [CA]-CB--CG-[CD1] |==|  0.95496
USER: genes 10 Torsion [N]-CA--C-[O] |==|  0.64642
USER: genes 11 Torsion [O]-C--CA-[N] |==|  0.91890
USER: genes 12 Torsion [N]-C--CA-[N] |==|  0.86947
USER: genes 13 Torsion [C]-CA--CB-[CG] |==|  0.06047
USER: genes 14 Torsion [CA]-CB--CG-[SD] |==|  0.44419
USER: genes 15 Torsion [CB]-CG--SD-[CE] |==|  0.31914
ROOT
ATOM      1  C   PRO R   4       2.016  -4.110 -12.838  1.00 60.54 LIG 0.24  C 
ATOM      2 O    PRO R   4       2.072  -3.665 -11.690  1.00 63.53 LIG-0.27  OA
ATOM      3  N   PRO R   5       2.742  -5.162 -13.256  1.00 48.92 LIG-0.34  N 
ATOM      4  CA  PRO R   5       3.692  -5.829 -12.355  1.00 52.68 LIG 0.18  C 
ATOM      5  CB  PRO R   5       4.283  -6.939 -13.232  1.00 55.54 LIG 0.04  C 
ATOM      6  CG  PRO R   5       3.245  -7.217 -14.253  1.00 46.13 LIG 0.02  C 
ATOM      7  CD  PRO R   5       2.577  -5.896 -14.524  1.00 43.47 LIG 0.13  C 
ENDROOT
BRANCH 4 8
ATOM      8  C   PRO R   5       4.813  -4.913 -11.858  1.00 58.07 LIG 0.24  C 
ATOM      9 O    PRO R   5       5.337  -4.095 -12.619  1.00 51.36 LIG-0.27  OA
ATOM     10  N   THR R   6       5.174  -5.064 -10.587  1.00 69.24 LIG-0.34  N 
ATOM     11 H    THR R   6       4.781  -5.600 -10.041  1.00 69.24 LIG 0.16  HD
BRANCH 10 12
ATOM     12  CA  THR R   6       6.285  -4.323 -10.000  1.00 55.31 LIG 0.20  C 
BRANCH 12 13
ATOM     13  CB  THR R   6       5.884  -2.870  -9.660  1.00 60.29 LIG 0.15  C 
ATOM     14  CG2 THR R   6       4.645  -2.842  -8.778  1.00 62.01 LIG 0.04  C 
BRANCH 13 15
ATOM     15 OG1  THR R   6       6.962  -2.222  -8.972  1.00 91.48 LIG-0.39  OA
ATOM     16 HG1  THR R   6       6.650  -1.685  -8.407  1.00 91.48 LIG 0.21  HD
ENDBRANCH 13 15
ENDBRANCH 12 13
BRANCH 12 17
ATOM     17  C   THR R   6       6.757  -5.023  -8.734  1.00 56.48 LIG 0.24  C 
ATOM     18  N   LEU R   7       8.064  -4.971  -8.486  1.00 43.78 LIG-0.35  N 
ATOM     19 H    LEU R   7       8.631  -4.560  -8.985  1.00 43.78 LIG 0.16  HD
ATOM     20 O    THR R   6       5.953  -5.603  -8.000  1.00 41.48 LIG-0.27  OA
BRANCH 18 21
ATOM     21  CA  LEU R   7       8.646  -5.623  -7.320  1.00 53.52 LIG 0.16  C 
BRANCH 21 22
ATOM     22  CB  LEU R   7       7.997  -5.099  -6.037  1.00 41.32 LIG 0.04  C 
BRANCH 22 23
ATOM     23  CG  LEU R   7       8.190  -3.602  -5.778  1.00 48.65 LIG-0.02  C 
ATOM     24  CD1 LEU R   7       9.311  -3.028  -6.636  1.00 40.28 LIG 0.01  C 
ATOM     25  CD2 LEU R   7       6.892  -2.839  -6.010  1.00 37.72 LIG 0.01  C 
ENDBRANCH 22 23
ENDBRANCH 21 22
BRANCH 21 26
ATOM     26  C   LEU R   7       8.517  -7.142  -7.406  1.00 46.73 LIG 0.22  C 
ATOM     27 O    LEU R   7       8.017  -7.784  -6.481  1.00 57.50 LIG-0.29  OA
ENDBRANCH 21 26
ENDBRANCH 18 21
ENDBRANCH 12 17
ENDBRANCH 10 12
ENDBRANCH 4 8
BRANCH 1 28
ATOM     28  CA  PRO R   4       1.076  -3.447 -13.844  1.00 54.23 LIG 0.18  C 
ATOM     29  N   PRO R   4      -0.071  -2.864 -13.142  1.00 66.40 LIG-0.34  N 
ATOM     30  CD  PRO R   4       0.119  -1.421 -12.930  1.00 55.20 LIG 0.13  C 
ATOM     31  C   MET R   3      -1.228  -3.460 -12.807  1.00 65.13 LIG 0.26  C 
ATOM     32  CG  PRO R   4       0.900  -1.026 -14.141  1.00 51.34 LIG 0.02  C 
ATOM     33  CB  PRO R   4       1.760  -2.220 -14.478  1.00 43.90 LIG 0.04  C 
ATOM     34 O    MET R   3      -2.104  -2.887 -12.154  1.00 74.37 LIG-0.27  OA
BRANCH 31 35
ATOM     35  CA  MET R   3      -1.442  -4.899 -13.272  1.00 67.30 LIG 0.40  C 
ATOM     36  N   MET R   3      -1.108  -5.097 -14.680  1.00 55.69 LIG 0.61  N 
BRANCH 35 37
ATOM     37  CB  MET R   3      -0.610  -5.830 -12.381  1.00 55.44 LIG 0.06  C 
BRANCH 37 38
ATOM     38  CG  MET R   3      -0.232  -5.263 -11.030  1.00 49.90 LIG 0.08  C 
BRANCH 38 39
ATOM     39 SD   MET R   3       0.199  -6.600  -9.901  1.00 67.63 LIG-0.17  SA
ATOM     40  CE  MET R   3       1.936  -6.261  -9.620  1.00 69.90 LIG 0.09  C 
ENDBRANCH 38 39
ENDBRANCH 37 38
ENDBRANCH 35 37
ENDBRANCH 31 35
ENDBRANCH 1 28
TORSDOF 14
ENDMDL
MODEL 18
USER: ADFR SOLUTION from run 30
USER: SCORE 10.797447 LL:  -2.781 LR:  -9.721 RR:   0.000 FEB:  -5.544
USER: RMSD 8.186896
USER: SEED 29
USER: STATUS no improvement in best in 27 clusters for 5 generations
USER: GENES 16
USER: genes 0 Translation |==|  0.30076 0.29968 0.67604
USER: genes 1 Rotation |==|  0.87012 0.34427 0.79769 0.51153
USER: genes 2 Torsion [N]-CA--C-[N] |==|  0.71347
USER: genes 3 Torsion [C]-N--CA-[CB] |==|  0.40764
USER: genes 4 Torsion [N]-CA--CB-[CG2] |==|  0.70743
USER: genes 5 Torsion [CA]-CB--OG1-[HG1] |==|  0.83716
USER: genes 6 Torsion [N]-CA--C-[N] |==|  0.13796
USER: genes 7 Torsion [C]-N--CA-[CB] |==|  0.84927
USER: genes 8 Torsion [N]-CA--CB-[CG] |==|  0.79957
USER: genes 9 Torsion [CA]-CB--CG-[CD1] |==|  0.44254
USER: genes 10 Torsion [N]-CA--C-[O] |==|  0.06369
USER: genes 11 Torsion [O]-C--CA-[N] |==|  0.93097
USER: genes 12 Torsion [N]-C--CA-[N] |==|  0.80137
USER: genes 13 Torsion [C]-CA--CB-[CG] |==|  0.26136
USER: genes 14 Torsion [CA]-CB--CG-[SD] |==|  0.50361
USER: genes 15 Torsion [CB]-CG--SD-[CE] |==|  0.61648
ROOT
ATOM      1  C   PRO R   4       2.180  -3.896 -11.588  1.00 60.54 LIG 0.24  C 
ATOM      2 O    PRO R   4       1.777  -3.214 -10.643  1.00 63.53 LIG-0.27  OA
ATOM      3  N   PRO R   5       3.165  -4.804 -11.474  1.00 48.92 LIG-0.34  N 
ATOM      4  CA  PRO R   5       3.856  -5.011 -10.194  1.00 52.68 LIG 0.18  C 
ATOM      5  CB  PRO R   5       4.878  -6.105 -10.522  1.00 55.54 LIG 0.04  C 
ATOM      6  CG  PRO R   5       4.298  -6.840 -11.671  1.00 46.13 LIG 0.02  C 
ATOM      7  CD  PRO R   5       3.553  -5.812 -12.478  1.00 43.47 LIG 0.13  C 
ENDROOT
BRANCH 4 8
ATOM      8  C   PRO R   5       4.583  -3.764  -9.682  1.00 58.07 LIG 0.24  C 
ATOM      9 O    PRO R   5       3.952  -2.839  -9.164  1.00 51.36 LIG-0.27  OA
ATOM     10  N   THR R   6       5.904  -3.750  -9.838  1.00 69.24 LIG-0.34  N 
ATOM     11 H    THR R   6       6.353  -4.411 -10.156  1.00 69.24 LIG 0.16  HD
BRANCH 10 12
ATOM     12  CA  THR R   6       6.718  -2.594  -9.478  1.00 55.31 LIG 0.20  C 
BRANCH 12 13
ATOM     13  CB  THR R   6       8.112  -3.017  -8.964  1.00 60.29 LIG 0.15  C 
ATOM     14  CG2 THR R   6       8.204  -2.859  -7.454  1.00 62.01 LIG 0.04  C 
BRANCH 13 15
ATOM     15 OG1  THR R   6       8.356  -4.388  -9.305  1.00 91.48 LIG-0.39  OA
ATOM     16 HG1  THR R   6       7.759  -4.871  -8.967  1.00 91.48 LIG 0.21  HD
ENDBRANCH 13 15
ENDBRANCH 12 13
BRANCH 12 17
ATOM     17  C   THR R   6       6.883  -1.686 -10.688  1.00 56.48 LIG 0.24  C 
ATOM     18  N   LEU R   7       5.768  -1.366 -11.339  1.00 43.78 LIG-0.35  N 
ATOM     19 H    LEU R   7       4.983  -1.628 -11.105  1.00 43.78 LIG 0.16  HD
ATOM     20 O    THR R   6       8.001  -1.288 -11.026  1.00 41.48 LIG-0.27  OA
BRANCH 18 21
ATOM     21  CA  LEU R   7       5.793  -0.524 -12.528  1.00 53.52 LIG 0.16  C 
BRANCH 21 22
ATOM     22  CB  LEU R   7       6.518   0.792 -12.234  1.00 41.32 LIG 0.04  C 
BRANCH 22 23
ATOM     23  CG  LEU R   7       5.747   1.772 -11.345  1.00 48.65 LIG-0.02  C 
ATOM     24  CD1 LEU R   7       6.679   2.785 -10.693  1.00 40.28 LIG 0.01  C 
ATOM     25  CD2 LEU R   7       4.654   2.479 -12.137  1.00 37.72 LIG 0.01  C 
ENDBRANCH 22 23
ENDBRANCH 21 22
BRANCH 21 26
ATOM     26  C   LEU R   7       6.442  -1.242 -13.709  1.00 46.73 LIG 0.22  C 
ATOM     27 O    LEU R   7       6.487  -2.473 -13.749  1.00 57.50 LIG-0.29  OA
ENDBRANCH 21 26
ENDBRANCH 18 21
ENDBRANCH 12 17
ENDBRANCH 10 12
ENDBRANCH 4 8
BRANCH 1 28
ATOM     28  CA  PRO R   4       1.532  -3.714 -12.960  1.00 54.23 LIG 0.18  C 
ATOM     29  N   PRO R   4       0.173  -3.191 -12.802  1.00 66.40 LIG-0.34  N 
ATOM     30  CD  PRO R   4       0.141  -1.735 -13.005  1.00 55.20 LIG 0.13  C 
ATOM     31  C   MET R   3      -0.965  -3.883 -12.617  1.00 65.13 LIG 0.26  C 
ATOM     32  CG  PRO R   4       1.212  -1.537 -14.028  1.00 51.34 LIG 0.02  C 
ATOM     33  CB  PRO R   4       2.251  -2.594 -13.739  1.00 43.90 LIG 0.04  C 
ATOM     34 O    MET R   3      -2.053  -3.332 -12.430  1.00 74.37 LIG-0.27  OA
BRANCH 31 35
ATOM     35  CA  MET R   3      -0.879  -5.408 -12.652  1.00 67.30 LIG 0.40  C 
ATOM     36  N   MET R   3      -0.641  -5.932 -13.995  1.00 55.69 LIG 0.61  N 
BRANCH 35 37
ATOM     37  CB  MET R   3       0.228  -5.856 -11.691  1.00 55.44 LIG 0.06  C 
BRANCH 37 38
ATOM     38  CG  MET R   3      -0.234  -6.214 -10.295  1.00 49.90 LIG 0.08  C 
BRANCH 38 39
ATOM     39 SD   MET R   3       1.180  -6.682  -9.280  1.00 67.63 LIG-0.17  SA
ATOM     40  CE  MET R   3       0.517  -8.096  -8.403  1.00 69.90 LIG 0.09  C 
ENDBRANCH 38 39
ENDBRANCH 37 38
ENDBRANCH 35 37
ENDBRANCH 31 35
ENDBRANCH 1 28
TORSDOF 14
ENDMDL
MODEL 19
USER: ADFR SOLUTION from run 100
USER: SCORE 12.429443 LL:  -3.046 LR:  -9.706 RR:   0.000 FEB:  -5.530
USER: RMSD 10.124296
USER: SEED 99
USER: STATUS no improvement in best in 17 clusters for 5 generations
USER: GENES 16
USER: genes 0 Translation |==|  0.29493 0.35607 0.57365
USER: genes 1 Rotation |==|  0.35081 0.56895 0.97182 0.51928
USER: genes 2 Torsion [N]-CA--C-[N] |==|  0.86339
USER: genes 3 Torsion [C]-N--CA-[CB] |==|  0.77778
USER: genes 4 Torsion [N]-CA--CB-[CG2] |==|  0.63894
USER: genes 5 Torsion [CA]-CB--OG1-[HG1] |==|  0.99441
USER: genes 6 Torsion [N]-CA--C-[N] |==|  0.17156
USER: genes 7 Torsion [C]-N--CA-[CB] |==|  0.84738
USER: genes 8 Torsion [N]-CA--CB-[CG] |==|  0.83220
USER: genes 9 Torsion [CA]-CB--CG-[CD1] |==|  0.39743
USER: genes 10 Torsion [N]-CA--C-[O] |==|  0.79710
USER: genes 11 Torsion [O]-C--CA-[N] |==|  0.79810
USER: genes 12 Torsion [N]-C--CA-[N] |==|  0.32325
USER: genes 13 Torsion [C]-CA--CB-[CG] |==|  0.32617
USER: genes 14 Torsion [CA]-CB--CG-[SD] |==|  0.94536
USER: genes 15 Torsion [CB]-CG--SD-[CE] |==|  0.63291
ROOT
ATOM      1  C   PRO R   4       2.075  -2.754 -13.662  1.00 60.54 LIG 0.24  C 
ATOM      2 O    PRO R   4       2.256  -2.371 -14.819  1.00 63.53 LIG-0.27  OA
ATOM      3  N   PRO R   5       0.900  -2.626 -13.019  1.00 48.92 LIG-0.34  N 
ATOM      4  CA  PRO R   5      -0.246  -1.971 -13.665  1.00 52.68 LIG 0.18  C 
ATOM      5  CB  PRO R   5      -1.339  -2.042 -12.592  1.00 55.54 LIG 0.04  C 
ATOM      6  CG  PRO R   5      -0.977  -3.209 -11.752  1.00 46.13 LIG 0.02  C 
ATOM      7  CD  PRO R   5       0.527  -3.248 -11.735  1.00 43.47 LIG 0.13  C 
ENDROOT
BRANCH 4 8
ATOM      8  C   PRO R   5       0.013  -0.510 -14.040  1.00 58.07 LIG 0.24  C 
ATOM      9 O    PRO R   5      -0.245  -0.098 -15.174  1.00 51.36 LIG-0.27  OA
ATOM     10  N   THR R   6       0.528   0.258 -13.084  1.00 69.24 LIG-0.34  N 
ATOM     11 H    THR R   6       0.667  -0.012 -12.279  1.00 69.24 LIG 0.16  HD
BRANCH 10 12
ATOM     12  CA  THR R   6       0.909   1.646 -13.321  1.00 55.31 LIG 0.20  C 
BRANCH 12 13
ATOM     13  CB  THR R   6       2.285   1.749 -14.016  1.00 60.29 LIG 0.15  C 
ATOM     14  CG2 THR R   6       3.190   2.728 -13.284  1.00 62.01 LIG 0.04  C 
BRANCH 13 15
ATOM     15 OG1  THR R   6       2.912   0.460 -14.036  1.00 91.48 LIG-0.39  OA
ATOM     16 HG1  THR R   6       2.421  -0.096 -13.642  1.00 91.48 LIG 0.21  HD
ENDBRANCH 13 15
ENDBRANCH 12 13
BRANCH 12 17
ATOM     17  C   THR R   6      -0.142   2.326 -14.187  1.00 56.48 LIG 0.24  C 
ATOM     18  N   LEU R   7      -1.368   2.400 -13.674  1.00 43.78 LIG-0.35  N 
ATOM     19 H    LEU R   7      -1.582   2.104 -12.895  1.00 43.78 LIG 0.16  HD
ATOM     20 O    THR R   6       0.152   2.771 -15.298  1.00 41.48 LIG-0.27  OA
BRANCH 18 21
ATOM     21  CA  LEU R   7      -2.470   3.004 -14.412  1.00 53.52 LIG 0.16  C 
BRANCH 21 22
ATOM     22  CB  LEU R   7      -2.106   4.426 -14.843  1.00 41.32 LIG 0.04  C 
BRANCH 22 23
ATOM     23  CG  LEU R   7      -1.795   5.391 -13.695  1.00 48.65 LIG-0.02  C 
ATOM     24  CD1 LEU R   7      -0.670   6.351 -14.063  1.00 40.28 LIG 0.01  C 
ATOM     25  CD2 LEU R   7      -3.043   6.161 -13.280  1.00 37.72 LIG 0.01  C 
ENDBRANCH 22 23
ENDBRANCH 21 22
BRANCH 21 26
ATOM     26  C   LEU R   7      -2.861   2.160 -15.623  1.00 46.73 LIG 0.22  C 
ATOM     27 O    LEU R   7      -2.139   2.118 -16.621  1.00 57.50 LIG-0.29  OA
ENDBRANCH 21 26
ENDBRANCH 18 21
ENDBRANCH 12 17
ENDBRANCH 10 12
ENDBRANCH 4 8
BRANCH 1 28
ATOM     28  CA  PRO R   4       3.230  -3.414 -12.911  1.00 54.23 LIG 0.18  C 
ATOM     29  N   PRO R   4       3.466  -4.758 -13.445  1.00 66.40 LIG-0.34  N 
ATOM     30  CD  PRO R   4       4.579  -4.755 -14.406  1.00 55.20 LIG 0.13  C 
ATOM     31  C   MET R   3       2.878  -5.910 -13.079  1.00 65.13 LIG 0.26  C 
ATOM     32  CG  PRO R   4       5.471  -3.693 -13.850  1.00 51.34 LIG 0.02  C 
ATOM     33  CB  PRO R   4       4.549  -2.678 -13.219  1.00 43.90 LIG 0.04  C 
ATOM     34 O    MET R   3       3.108  -6.981 -13.646  1.00 74.37 LIG-0.27  OA
BRANCH 31 35
ATOM     35  CA  MET R   3       1.898  -5.862 -11.908  1.00 67.30 LIG 0.40  C 
ATOM     36  N   MET R   3       0.534  -6.214 -12.294  1.00 55.69 LIG 0.61  N 
BRANCH 35 37
ATOM     37  CB  MET R   3       2.408  -6.798 -10.806  1.00 55.44 LIG 0.06  C 
BRANCH 37 38
ATOM     38  CG  MET R   3       2.754  -6.124  -9.496  1.00 49.90 LIG 0.08  C 
BRANCH 38 39
ATOM     39 SD   MET R   3       3.015  -4.361  -9.762  1.00 67.63 LIG-0.17  SA
ATOM     40  CE  MET R   3       4.556  -4.107  -8.883  1.00 69.90 LIG 0.09  C 
ENDBRANCH 38 39
ENDBRANCH 37 38
ENDBRANCH 35 37
ENDBRANCH 31 35
ENDBRANCH 1 28
TORSDOF 14
ENDMDL
MODEL 20
USER: ADFR SOLUTION from run 162
USER: SCORE 11.900982 LL:  -3.899 LR:  -9.707 RR:   0.000 FEB:  -5.530
USER: RMSD 8.998839
USER: SEED 161
USER: STATUS no improvement in best in 20 clusters for 5 generations
USER: GENES 16
USER: genes 0 Translation |==|  0.51503 0.32090 0.80828
USER: genes 1 Rotation |==|  0.77465 0.86131 0.31146 0.59206
USER: genes 2 Torsion [N]-CA--C-[N] |==|  0.57264
USER: genes 3 Torsion [C]-N--CA-[CB] |==|  0.44406
USER: genes 4 Torsion [N]-CA--CB-[CG2] |==|  0.16954
USER: genes 5 Torsion [CA]-CB--OG1-[HG1] |==|  0.87001
USER: genes 6 Torsion [N]-CA--C-[N] |==|  0.11645
USER: genes 7 Torsion [C]-N--CA-[CB] |==|  0.45662
USER: genes 8 Torsion [N]-CA--CB-[CG] |==|  0.92267
USER: genes 9 Torsion [CA]-CB--CG-[CD1] |==|  0.44290
USER: genes 10 Torsion [N]-CA--C-[O] |==|  0.08221
USER: genes 11 Torsion [O]-C--CA-[N] |==|  0.87088
USER: genes 12 Torsion [N]-C--CA-[N] |==|  0.86232
USER: genes 13 Torsion [C]-CA--CB-[CG] |==|  0.30259
USER: genes 14 Torsion [CA]-CB--CG-[SD] |==|  0.50199
USER: genes 15 Torsion [CB]-CG--SD-[CE] |==|  0.14516
ROOT
ATOM      1  C   PRO R   4       6.037  -3.466  -8.910  1.00 60.54 LIG 0.24  C 
ATOM      2 O    PRO R   4       5.377  -2.534  -8.447  1.00 63.53 LIG-0.27  OA
ATOM      3  N   PRO R   5       5.864  -3.943 -10.156  1.00 48.92 LIG-0.34  N 
ATOM      4  CA  PRO R   5       4.827  -3.390 -11.038  1.00 52.68 LIG 0.18  C 
ATOM      5  CB  PRO R   5       4.982  -4.216 -12.320  1.00 55.54 LIG 0.04  C 
ATOM      6  CG  PRO R   5       6.392  -4.673 -12.314  1.00 46.13 LIG 0.02  C 
ATOM      7  CD  PRO R   5       6.744  -4.888 -10.867  1.00 43.47 LIG 0.13  C 
ENDROOT
BRANCH 4 8
ATOM      8  C   PRO R   5       3.406  -3.552 -10.491  1.00 58.07 LIG 0.24  C 
ATOM      9 O    PRO R   5       3.208  -3.646  -9.277  1.00 51.36 LIG-0.27  OA
ATOM     10  N   THR R   6       2.430  -3.589 -11.395  1.00 69.24 LIG-0.34  N 
ATOM     11 H    THR R   6       2.558  -3.477 -12.238  1.00 69.24 LIG 0.16  HD
BRANCH 10 12
ATOM     12  CA  THR R   6       1.038  -3.826 -11.028  1.00 55.31 LIG 0.20  C 
BRANCH 12 13
ATOM     13  CB  THR R   6       0.069  -3.338 -12.127  1.00 60.29 LIG 0.15  C 
ATOM     14  CG2 THR R   6       0.312  -4.080 -13.433  1.00 62.01 LIG 0.04  C 
BRANCH 13 15
ATOM     15 OG1  THR R   6      -1.285  -3.560 -11.710  1.00 91.48 LIG-0.39  OA
ATOM     16 HG1  THR R   6      -1.359  -4.339 -11.404  1.00 91.48 LIG 0.21  HD
ENDBRANCH 13 15
ENDBRANCH 12 13
BRANCH 12 17
ATOM     17  C   THR R   6       0.817  -5.312 -10.786  1.00 56.48 LIG 0.24  C 
ATOM     18  N   LEU R   7       1.771  -5.946 -10.110  1.00 43.78 LIG-0.35  N 
ATOM     19 H    LEU R   7       2.477  -5.563  -9.801  1.00 43.78 LIG 0.16  HD
ATOM     20 O    THR R   6      -0.197  -5.872 -11.209  1.00 41.48 LIG-0.27  OA
BRANCH 18 21
ATOM     21  CA  LEU R   7       1.691  -7.375  -9.835  1.00 53.52 LIG 0.16  C 
BRANCH 21 22
ATOM     22  CB  LEU R   7       3.057  -7.911  -9.401  1.00 41.32 LIG 0.04  C 
BRANCH 22 23
ATOM     23  CG  LEU R   7       4.261  -7.142  -9.955  1.00 48.65 LIG-0.02  C 
ATOM     24  CD1 LEU R   7       5.511  -7.388  -9.119  1.00 40.28 LIG 0.01  C 
ATOM     25  CD2 LEU R   7       4.511  -7.502 -11.414  1.00 37.72 LIG 0.01  C 
ENDBRANCH 22 23
ENDBRANCH 21 22
BRANCH 21 26
ATOM     26  C   LEU R   7       0.634  -7.682  -8.777  1.00 46.73 LIG 0.22  C 
ATOM     27 O    LEU R   7      -0.359  -6.964  -8.653  1.00 57.50 LIG-0.29  OA
ENDBRANCH 21 26
ENDBRANCH 18 21
ENDBRANCH 12 17
ENDBRANCH 10 12
ENDBRANCH 4 8
BRANCH 1 28
ATOM     28  CA  PRO R   4       7.112  -4.116  -8.041  1.00 54.23 LIG 0.18  C 
ATOM     29  N   PRO R   4       7.924  -3.079  -7.399  1.00 66.40 LIG-0.34  N 
ATOM     30  CD  PRO R   4       7.478  -2.839  -6.018  1.00 55.20 LIG 0.13  C 
ATOM     31  C   MET R   3       9.018  -2.465  -7.883  1.00 65.13 LIG 0.26  C 
ATOM     32  CG  PRO R   4       7.012  -4.195  -5.599  1.00 51.34 LIG 0.02  C 
ATOM     33  CB  PRO R   4       6.459  -4.840  -6.847  1.00 43.90 LIG 0.04  C 
ATOM     34 O    MET R   3       9.589  -1.554  -7.278  1.00 74.37 LIG-0.27  OA
BRANCH 31 35
ATOM     35  CA  MET R   3       9.557  -2.940  -9.231  1.00 67.30 LIG 0.40  C 
ATOM     36  N   MET R   3       9.711  -4.390  -9.302  1.00 55.69 LIG 0.61  N 
BRANCH 35 37
ATOM     37  CB  MET R   3       8.618  -2.439 -10.335  1.00 55.44 LIG 0.06  C 
BRANCH 37 38
ATOM     38  CG  MET R   3       9.178  -1.339 -11.210  1.00 49.90 LIG 0.08  C 
BRANCH 38 39
ATOM     39 SD   MET R   3       7.955  -0.848 -12.439  1.00 67.63 LIG-0.17  SA
ATOM     40  CE  MET R   3       6.534  -0.528 -11.396  1.00 69.90 LIG 0.09  C 
ENDBRANCH 38 39
ENDBRANCH 37 38
ENDBRANCH 35 37
ENDBRANCH 31 35
ENDBRANCH 1 28
TORSDOF 14
ENDMDL
MODEL 21
USER: ADFR SOLUTION from run 125
USER: SCORE 12.131220 LL:  -3.099 LR:  -9.712 RR:   0.000 FEB:  -5.535
USER: RMSD 8.066759
USER: SEED 124
USER: STATUS no improvement in best in 7 clusters for 5 generations
USER: GENES 16
USER: genes 0 Translation |==|  0.29113 0.28754 0.69130
USER: genes 1 Rotation |==|  0.83567 0.32627 0.81984 0.56964
USER: genes 2 Torsion [N]-CA--C-[N] |==|  0.52913
USER: genes 3 Torsion [C]-N--CA-[CB] |==|  0.48333
USER: genes 4 Torsion [N]-CA--CB-[CG2] |==|  0.21859
USER: genes 5 Torsion [CA]-CB--OG1-[HG1] |==|  0.02530
USER: genes 6 Torsion [N]-CA--C-[N] |==|  0.46239
USER: genes 7 Torsion [C]-N--CA-[CB] |==|  0.83720
USER: genes 8 Torsion [N]-CA--CB-[CG] |==|  0.78319
USER: genes 9 Torsion [CA]-CB--CG-[CD1] |==|  0.98688
USER: genes 10 Torsion [N]-CA--C-[O] |==|  0.10222
USER: genes 11 Torsion [O]-C--CA-[N] |==|  0.89526
USER: genes 12 Torsion [N]-C--CA-[N] |==|  0.21631
USER: genes 13 Torsion [C]-CA--CB-[CG] |==|  0.19192
USER: genes 14 Torsion [CA]-CB--CG-[SD] |==|  0.07032
USER: genes 15 Torsion [CB]-CG--SD-[CE] |==|  0.67419
ROOT
ATOM      1  C   PRO R   4       2.006  -4.141 -11.279  1.00 60.54 LIG 0.24  C 
ATOM      2 O    PRO R   4       1.723  -3.239 -10.489  1.00 63.53 LIG-0.27  OA
ATOM      3  N   PRO R   5       2.740  -5.215 -10.938  1.00 48.92 LIG-0.34  N 
ATOM      4  CA  PRO R   5       3.289  -5.354  -9.582  1.00 52.68 LIG 0.18  C 
ATOM      5  CB  PRO R   5       4.041  -6.689  -9.645  1.00 55.54 LIG 0.04  C 
ATOM      6  CG  PRO R   5       3.371  -7.457 -10.721  1.00 46.13 LIG 0.02  C 
ATOM      7  CD  PRO R   5       2.937  -6.437 -11.739  1.00 43.47 LIG 0.13  C 
ENDROOT
BRANCH 4 8
ATOM      8  C   PRO R   5       4.259  -4.235  -9.195  1.00 58.07 LIG 0.24  C 
ATOM      9 O    PRO R   5       4.377  -3.234  -9.906  1.00 51.36 LIG-0.27  OA
ATOM     10  N   THR R   6       4.949  -4.419  -8.073  1.00 69.24 LIG-0.34  N 
ATOM     11 H    THR R   6       4.837  -5.092  -7.550  1.00 69.24 LIG 0.16  HD
BRANCH 10 12
ATOM     12  CA  THR R   6       5.972  -3.480  -7.625  1.00 55.31 LIG 0.20  C 
BRANCH 12 13
ATOM     13  CB  THR R   6       6.512  -3.850  -6.226  1.00 60.29 LIG 0.15  C 
ATOM     14  CG2 THR R   6       7.514  -4.991  -6.316  1.00 62.01 LIG 0.04  C 
BRANCH 13 15
ATOM     15 OG1  THR R   6       7.154  -2.710  -5.640  1.00 91.48 LIG-0.39  OA
ATOM     16 HG1  THR R   6       7.005  -2.032  -6.112  1.00 91.48 LIG 0.21  HD
ENDBRANCH 13 15
ENDBRANCH 12 13
BRANCH 12 17
ATOM     17  C   THR R   6       7.124  -3.463  -8.620  1.00 56.48 LIG 0.24  C 
ATOM     18  N   LEU R   7       7.992  -2.462  -8.496  1.00 43.78 LIG-0.35  N 
ATOM     19 H    LEU R   7       7.942  -1.854  -7.890  1.00 43.78 LIG 0.16  HD
ATOM     20 O    THR R   6       7.219  -4.337  -9.484  1.00 41.48 LIG-0.27  OA
BRANCH 18 21
ATOM     21  CA  LEU R   7       9.125  -2.318  -9.402  1.00 53.52 LIG 0.16  C 
BRANCH 21 22
ATOM     22  CB  LEU R   7      10.009  -3.566  -9.353  1.00 41.32 LIG 0.04  C 
BRANCH 22 23
ATOM     23  CG  LEU R   7      10.936  -3.656  -8.137  1.00 48.65 LIG-0.02  C 
ATOM     24  CD1 LEU R   7      10.855  -2.399  -7.280  1.00 40.28 LIG 0.01  C 
ATOM     25  CD2 LEU R   7      10.622  -4.894  -7.306  1.00 37.72 LIG 0.01  C 
ENDBRANCH 22 23
ENDBRANCH 21 22
BRANCH 21 26
ATOM     26  C   LEU R   7       8.666  -2.040 -10.831  1.00 46.73 LIG 0.22  C 
ATOM     27 O    LEU R   7       7.682  -1.332 -11.050  1.00 57.50 LIG-0.29  OA
ENDBRANCH 21 26
ENDBRANCH 18 21
ENDBRANCH 12 17
ENDBRANCH 10 12
ENDBRANCH 4 8
BRANCH 1 28
ATOM     28  CA  PRO R   4       1.500  -4.051 -12.718  1.00 54.23 LIG 0.18  C 
ATOM     29  N   PRO R   4       0.148  -3.487 -12.734  1.00 66.40 LIG-0.34  N 
ATOM     30  CD  PRO R   4       0.180  -2.051 -13.047  1.00 55.20 LIG 0.13  C 
ATOM     31  C   MET R   3      -1.023  -4.137 -12.610  1.00 65.13 LIG 0.26  C 
ATOM     32  CG  PRO R   4       1.350  -1.957 -13.971  1.00 51.34 LIG 0.02  C 
ATOM     33  CB  PRO R   4       2.324  -3.011 -13.503  1.00 43.90 LIG 0.04  C 
ATOM     34 O    MET R   3      -2.106  -3.549 -12.573  1.00 74.37 LIG-0.27  OA
BRANCH 31 35
ATOM     35  CA  MET R   3      -0.979  -5.661 -12.523  1.00 67.30 LIG 0.40  C 
ATOM     36  N   MET R   3      -0.586  -6.144 -11.202  1.00 55.69 LIG 0.61  N 
BRANCH 35 37
ATOM     37  CB  MET R   3      -2.355  -6.213 -12.915  1.00 55.44 LIG 0.06  C 
BRANCH 37 38
ATOM     38  CG  MET R   3      -2.725  -6.049 -14.373  1.00 49.90 LIG 0.08  C 
BRANCH 38 39
ATOM     39 SD   MET R   3      -1.233  -5.938 -15.377  1.00 67.63 LIG-0.17  SA
ATOM     40  CE  MET R   3      -1.401  -4.289 -16.057  1.00 69.90 LIG 0.09  C 
ENDBRANCH 38 39
ENDBRANCH 37 38
ENDBRANCH 35 37
ENDBRANCH 31 35
ENDBRANCH 1 28
TORSDOF 14
ENDMDL
MODEL 22
USER: ADFR SOLUTION from run 144
USER: SCORE 12.007069 LL:  -3.269 LR:  -9.659 RR:   0.000 FEB:  -5.483
USER: RMSD 8.031949
USER: SEED 143
USER: STATUS no improvement in best in 28 clusters for 5 generations
USER: GENES 16
USER: genes 0 Translation |==|  0.29094 0.28676 0.69044
USER: genes 1 Rotation |==|  0.82921 0.32058 0.81920 0.58687
USER: genes 2 Torsion [N]-CA--C-[N] |==|  0.95825
USER: genes 3 Torsion [C]-N--CA-[CB] |==|  0.21023
USER: genes 4 Torsion [N]-CA--CB-[CG2] |==|  0.24692
USER: genes 5 Torsion [CA]-CB--OG1-[HG1] |==|  0.09798
USER: genes 6 Torsion [N]-CA--C-[N] |==|  0.48083
USER: genes 7 Torsion [C]-N--CA-[CB] |==|  0.44553
USER: genes 8 Torsion [N]-CA--CB-[CG] |==|  0.81862
USER: genes 9 Torsion [CA]-CB--CG-[CD1] |==|  0.50153
USER: genes 10 Torsion [N]-CA--C-[O] |==|  0.94290
USER: genes 11 Torsion [O]-C--CA-[N] |==|  0.88475
USER: genes 12 Torsion [N]-C--CA-[N] |==|  0.21718
USER: genes 13 Torsion [C]-CA--CB-[CG] |==|  0.27666
USER: genes 14 Torsion [CA]-CB--CG-[SD] |==|  0.83453
USER: genes 15 Torsion [CB]-CG--SD-[CE] |==|  0.26872
ROOT
ATOM      1  C   PRO R   4       2.003  -4.157 -11.297  1.00 60.54 LIG 0.24  C 
ATOM      2 O    PRO R   4       1.787  -3.211 -10.537  1.00 63.53 LIG-0.27  OA
ATOM      3  N   PRO R   5       2.664  -5.267 -10.922  1.00 48.92 LIG-0.34  N 
ATOM      4  CA  PRO R   5       3.212  -5.397  -9.565  1.00 52.68 LIG 0.18  C 
ATOM      5  CB  PRO R   5       3.870  -6.781  -9.585  1.00 55.54 LIG 0.04  C 
ATOM      6  CG  PRO R   5       3.141  -7.538 -10.630  1.00 46.13 LIG 0.02  C 
ATOM      7  CD  PRO R   5       2.771  -6.526 -11.681  1.00 43.47 LIG 0.13  C 
ENDROOT
BRANCH 4 8
ATOM      8  C   PRO R   5       4.259  -4.334  -9.221  1.00 58.07 LIG 0.24  C 
ATOM      9 O    PRO R   5       4.595  -4.140  -8.050  1.00 51.36 LIG-0.27  OA
ATOM     10  N   THR R   6       4.759  -3.651 -10.247  1.00 69.24 LIG-0.34  N 
ATOM     11 H    THR R   6       4.563  -3.813 -11.069  1.00 69.24 LIG 0.16  HD
BRANCH 10 12
ATOM     12  CA  THR R   6       5.699  -2.550 -10.065  1.00 55.31 LIG 0.20  C 
BRANCH 12 13
ATOM     13  CB  THR R   6       7.115  -3.061  -9.719  1.00 60.29 LIG 0.15  C 
ATOM     14  CG2 THR R   6       7.925  -3.312 -10.982  1.00 62.01 LIG 0.04  C 
BRANCH 13 15
ATOM     15 OG1  THR R   6       7.795  -2.089  -8.914  1.00 91.48 LIG-0.39  OA
ATOM     16 HG1  THR R   6       7.244  -1.714  -8.403  1.00 91.48 LIG 0.21  HD
ENDBRANCH 13 15
ENDBRANCH 12 13
BRANCH 12 17
ATOM     17  C   THR R   6       5.763  -1.714 -11.335  1.00 56.48 LIG 0.24  C 
ATOM     18  N   LEU R   7       6.475  -0.591 -11.264  1.00 43.78 LIG-0.35  N 
ATOM     19 H    LEU R   7       6.898  -0.334 -10.561  1.00 43.78 LIG 0.16  HD
ATOM     20 O    THR R   6       5.176  -2.078 -12.356  1.00 41.48 LIG-0.27  OA
BRANCH 18 21
ATOM     21  CA  LEU R   7       6.594   0.310 -12.403  1.00 53.52 LIG 0.16  C 
BRANCH 21 22
ATOM     22  CB  LEU R   7       7.026   1.702 -11.938  1.00 41.32 LIG 0.04  C 
BRANCH 22 23
ATOM     23  CG  LEU R   7       6.010   2.435 -11.057  1.00 48.65 LIG-0.02  C 
ATOM     24  CD1 LEU R   7       6.516   3.814 -10.653  1.00 40.28 LIG 0.01  C 
ATOM     25  CD2 LEU R   7       4.661   2.542 -11.759  1.00 37.72 LIG 0.01  C 
ENDBRANCH 22 23
ENDBRANCH 21 22
BRANCH 21 26
ATOM     26  C   LEU R   7       7.567  -0.234 -13.447  1.00 46.73 LIG 0.22  C 
ATOM     27 O    LEU R   7       8.409  -1.079 -13.142  1.00 57.50 LIG-0.29  OA
ENDBRANCH 21 26
ENDBRANCH 18 21
ENDBRANCH 12 17
ENDBRANCH 10 12
ENDBRANCH 4 8
BRANCH 1 28
ATOM     28  CA  PRO R   4       1.494  -4.082 -12.736  1.00 54.23 LIG 0.18  C 
ATOM     29  N   PRO R   4       0.145  -3.509 -12.755  1.00 66.40 LIG-0.34  N 
ATOM     30  CD  PRO R   4       0.186  -2.077 -13.087  1.00 55.20 LIG 0.13  C 
ATOM     31  C   MET R   3      -1.030  -4.150 -12.621  1.00 65.13 LIG 0.26  C 
ATOM     32  CG  PRO R   4       1.354  -2.002 -14.014  1.00 51.34 LIG 0.02  C 
ATOM     33  CB  PRO R   4       2.322  -3.057 -13.535  1.00 43.90 LIG 0.04  C 
ATOM     34 O    MET R   3      -2.109  -3.554 -12.588  1.00 74.37 LIG-0.27  OA
BRANCH 31 35
ATOM     35  CA  MET R   3      -0.995  -5.673 -12.515  1.00 67.30 LIG 0.40  C 
ATOM     36  N   MET R   3      -0.609  -6.141 -11.186  1.00 55.69 LIG 0.61  N 
BRANCH 35 37
ATOM     37  CB  MET R   3      -2.373  -6.221 -12.904  1.00 55.44 LIG 0.06  C 
BRANCH 37 38
ATOM     38  CG  MET R   3      -2.484  -6.745 -14.319  1.00 49.90 LIG 0.08  C 
BRANCH 38 39
ATOM     39 SD   MET R   3      -2.103  -5.431 -15.493  1.00 67.63 LIG-0.17  SA
ATOM     40  CE  MET R   3      -0.377  -5.769 -15.834  1.00 69.90 LIG 0.09  C 
ENDBRANCH 38 39
ENDBRANCH 37 38
ENDBRANCH 35 37
ENDBRANCH 31 35
ENDBRANCH 1 28
TORSDOF 14
ENDMDL
MODEL 23
USER: ADFR SOLUTION from run 92
USER: SCORE 12.032749 LL:  -3.238 LR:  -9.624 RR:   0.000 FEB:  -5.447
USER: RMSD 7.924056
USER: SEED 91
USER: STATUS no improvement in best in 22 clusters for 5 generations
USER: GENES 16
USER: genes 0 Translation |==|  0.28922 0.29057 0.69193
USER: genes 1 Rotation |==|  0.82852 0.32369 0.82235 0.58414
USER: genes 2 Torsion [N]-CA--C-[N] |==|  0.53951
USER: genes 3 Torsion [C]-N--CA-[CB] |==|  0.47783
USER: genes 4 Torsion [N]-CA--CB-[CG2] |==|  0.25568
USER: genes 5 Torsion [CA]-CB--OG1-[HG1] |==|  0.98695
USER: genes 6 Torsion [N]-CA--C-[N] |==|  0.41667
USER: genes 7 Torsion [C]-N--CA-[CB] |==|  0.29011
USER: genes 8 Torsion [N]-CA--CB-[CG] |==|  0.95853
USER: genes 9 Torsion [CA]-CB--CG-[CD1] |==|  0.40678
USER: genes 10 Torsion [N]-CA--C-[O] |==|  0.98415
USER: genes 11 Torsion [O]-C--CA-[N] |==|  0.88458
USER: genes 12 Torsion [N]-C--CA-[N] |==|  0.21593
USER: genes 13 Torsion [C]-CA--CB-[CG] |==|  0.26991
USER: genes 14 Torsion [CA]-CB--CG-[SD] |==|  0.84735
USER: genes 15 Torsion [CB]-CG--SD-[CE] |==|  0.27907
ROOT
ATOM      1  C   PRO R   4       1.972  -4.080 -11.266  1.00 60.54 LIG 0.24  C 
ATOM      2 O    PRO R   4       1.732  -3.133 -10.515  1.00 63.53 LIG-0.27  OA
ATOM      3  N   PRO R   5       2.647  -5.177 -10.877  1.00 48.92 LIG-0.34  N 
ATOM      4  CA  PRO R   5       3.180  -5.290  -9.513  1.00 52.68 LIG 0.18  C 
ATOM      5  CB  PRO R   5       3.861  -6.663  -9.517  1.00 55.54 LIG 0.04  C 
ATOM      6  CG  PRO R   5       3.157  -7.438 -10.567  1.00 46.13 LIG 0.02  C 
ATOM      7  CD  PRO R   5       2.783  -6.438 -11.628  1.00 43.47 LIG 0.13  C 
ENDROOT
BRANCH 4 8
ATOM      8  C   PRO R   5       4.206  -4.208  -9.164  1.00 58.07 LIG 0.24  C 
ATOM      9 O    PRO R   5       4.331  -3.209  -9.877  1.00 51.36 LIG-0.27  OA
ATOM     10  N   THR R   6       4.934  -4.421  -8.071  1.00 69.24 LIG-0.34  N 
ATOM     11 H    THR R   6       4.818  -5.092  -7.545  1.00 69.24 LIG 0.16  HD
BRANCH 10 12
ATOM     12  CA  THR R   6       6.008  -3.522  -7.663  1.00 55.31 LIG 0.20  C 
BRANCH 12 13
ATOM     13  CB  THR R   6       6.557  -3.887  -6.266  1.00 60.29 LIG 0.15  C 
ATOM     14  CG2 THR R   6       7.735  -4.843  -6.379  1.00 62.01 LIG 0.04  C 
BRANCH 13 15
ATOM     15 OG1  THR R   6       6.984  -2.697  -5.590  1.00 91.48 LIG-0.39  OA
ATOM     16 HG1  THR R   6       6.913  -2.040  -6.109  1.00 91.48 LIG 0.21  HD
ENDBRANCH 13 15
ENDBRANCH 12 13
BRANCH 12 17
ATOM     17  C   THR R   6       7.139  -3.581  -8.679  1.00 56.48 LIG 0.24  C 
ATOM     18  N   LEU R   7       7.856  -2.469  -8.826  1.00 43.78 LIG-0.35  N 
ATOM     19 H    LEU R   7       7.721  -1.748  -8.376  1.00 43.78 LIG 0.16  HD
ATOM     20 O    THR R   6       7.355  -4.613  -9.319  1.00 41.48 LIG-0.27  OA
BRANCH 18 21
ATOM     21  CA  LEU R   7       8.951  -2.387  -9.784  1.00 53.52 LIG 0.16  C 
BRANCH 21 22
ATOM     22  CB  LEU R   7       8.526  -1.577 -11.011  1.00 41.32 LIG 0.04  C 
BRANCH 22 23
ATOM     23  CG  LEU R   7       7.017  -1.350 -11.147  1.00 48.65 LIG-0.02  C 
ATOM     24  CD1 LEU R   7       6.712   0.003 -11.777  1.00 40.28 LIG 0.01  C 
ATOM     25  CD2 LEU R   7       6.369  -2.474 -11.946  1.00 37.72 LIG 0.01  C 
ENDBRANCH 22 23
ENDBRANCH 21 22
BRANCH 21 26
ATOM     26  C   LEU R   7      10.204  -1.786  -9.151  1.00 46.73 LIG 0.22  C 
ATOM     27 O    LEU R   7      10.178  -1.343  -8.002  1.00 57.50 LIG-0.29  OA
ENDBRANCH 21 26
ENDBRANCH 18 21
ENDBRANCH 12 17
ENDBRANCH 10 12
ENDBRANCH 4 8
BRANCH 1 28
ATOM     28  CA  PRO R   4       1.479  -4.021 -12.712  1.00 54.23 LIG 0.18  C 
ATOM     29  N   PRO R   4       0.121  -3.472 -12.750  1.00 66.40 LIG-0.34  N 
ATOM     30  CD  PRO R   4       0.140  -2.041 -13.089  1.00 55.20 LIG 0.13  C 
ATOM     31  C   MET R   3      -1.044  -4.132 -12.626  1.00 65.13 LIG 0.26  C 
ATOM     32  CG  PRO R   4       1.319  -1.951 -14.004  1.00 51.34 LIG 0.02  C 
ATOM     33  CB  PRO R   4       2.299  -2.987 -13.507  1.00 43.90 LIG 0.04  C 
ATOM     34 O    MET R   3      -2.134  -3.555 -12.610  1.00 74.37 LIG-0.27  OA
BRANCH 31 35
ATOM     35  CA  MET R   3      -0.985  -5.654 -12.512  1.00 67.30 LIG 0.40  C 
ATOM     36  N   MET R   3      -0.596  -6.108 -11.179  1.00 55.69 LIG 0.61  N 
BRANCH 35 37
ATOM     37  CB  MET R   3      -2.352  -6.227 -12.903  1.00 55.44 LIG 0.06  C 
BRANCH 37 38
ATOM     38  CG  MET R   3      -2.465  -6.709 -14.333  1.00 49.90 LIG 0.08  C 
BRANCH 38 39
ATOM     39 SD   MET R   3      -2.003  -5.385 -15.465  1.00 67.63 LIG-0.17  SA
ATOM     40  CE  MET R   3      -0.326  -5.860 -15.879  1.00 69.90 LIG 0.09  C 
ENDBRANCH 38 39
ENDBRANCH 37 38
ENDBRANCH 35 37
ENDBRANCH 31 35
ENDBRANCH 1 28
TORSDOF 14
ENDMDL
MODEL 24
USER: ADFR SOLUTION from run 158
USER: SCORE 11.312482 LL:  -2.184 LR:  -9.605 RR:   0.000 FEB:  -5.429
USER: RMSD 7.919596
USER: SEED 157
USER: STATUS no improvement in best in 19 clusters for 5 generations
USER: GENES 16
USER: genes 0 Translation |==|  0.37354 0.29075 0.75456
USER: genes 1 Rotation |==|  0.83184 0.56661 0.77515 0.74441
USER: genes 2 Torsion [N]-CA--C-[N] |==|  0.97293
USER: genes 3 Torsion [C]-N--CA-[CB] |==|  0.56684
USER: genes 4 Torsion [N]-CA--CB-[CG2] |==|  0.80953
USER: genes 5 Torsion [CA]-CB--OG1-[HG1] |==|  0.07165
USER: genes 6 Torsion [N]-CA--C-[N] |==|  0.28370
USER: genes 7 Torsion [C]-N--CA-[CB] |==|  0.15266
USER: genes 8 Torsion [N]-CA--CB-[CG] |==|  0.61852
USER: genes 9 Torsion [CA]-CB--CG-[CD1] |==|  0.88248
USER: genes 10 Torsion [N]-CA--C-[O] |==|  0.70076
USER: genes 11 Torsion [O]-C--CA-[N] |==|  0.30654
USER: genes 12 Torsion [N]-C--CA-[N] |==|  0.45969
USER: genes 13 Torsion [C]-CA--CB-[CG] |==|  0.30199
USER: genes 14 Torsion [CA]-CB--CG-[SD] |==|  0.28811
USER: genes 15 Torsion [CB]-CG--SD-[CE] |==|  0.64948
ROOT
ATOM      1  C   PRO R   4       3.490  -4.076  -9.998  1.00 60.54 LIG 0.24  C 
ATOM      2 O    PRO R   4       3.142  -2.933 -10.299  1.00 63.53 LIG-0.27  OA
ATOM      3  N   PRO R   5       4.649  -4.353  -9.375  1.00 48.92 LIG-0.34  N 
ATOM      4  CA  PRO R   5       5.603  -3.285  -9.046  1.00 52.68 LIG 0.18  C 
ATOM      5  CB  PRO R   5       6.752  -4.040  -8.368  1.00 55.54 LIG 0.04  C 
ATOM      6  CG  PRO R   5       6.131  -5.267  -7.814  1.00 46.13 LIG 0.02  C 
ATOM      7  CD  PRO R   5       5.042  -5.644  -8.780  1.00 43.47 LIG 0.13  C 
ENDROOT
BRANCH 4 8
ATOM      8  C   PRO R   5       6.132  -2.537 -10.273  1.00 58.07 LIG 0.24  C 
ATOM      9 O    PRO R   5       6.792  -1.502 -10.139  1.00 51.36 LIG-0.27  OA
ATOM     10  N   THR R   6       5.831  -3.064 -11.457  1.00 69.24 LIG-0.34  N 
ATOM     11 H    THR R   6       5.412  -3.808 -11.553  1.00 69.24 LIG 0.16  HD
BRANCH 10 12
ATOM     12  CA  THR R   6       6.192  -2.414 -12.712  1.00 55.31 LIG 0.20  C 
BRANCH 12 13
ATOM     13  CB  THR R   6       5.267  -2.856 -13.868  1.00 60.29 LIG 0.15  C 
ATOM     14  CG2 THR R   6       5.506  -4.316 -14.225  1.00 62.01 LIG 0.04  C 
BRANCH 13 15
ATOM     15 OG1  THR R   6       3.897  -2.689 -13.480  1.00 91.48 LIG-0.39  OA
ATOM     16 HG1  THR R   6       3.843  -2.089 -12.895  1.00 91.48 LIG 0.21  HD
ENDBRANCH 13 15
ENDBRANCH 12 13
BRANCH 12 17
ATOM     17  C   THR R   6       6.108  -0.904 -12.551  1.00 56.48 LIG 0.24  C 
ATOM     18  N   LEU R   7       7.264  -0.264 -12.393  1.00 43.78 LIG-0.35  N 
ATOM     19 H    LEU R   7       8.032  -0.652 -12.393  1.00 43.78 LIG 0.16  HD
ATOM     20 O    THR R   6       5.016  -0.331 -12.566  1.00 41.48 LIG-0.27  OA
BRANCH 18 21
ATOM     21  CA  LEU R   7       7.319   1.180 -12.204  1.00 53.52 LIG 0.16  C 
BRANCH 21 22
ATOM     22  CB  LEU R   7       6.441   1.596 -11.021  1.00 41.32 LIG 0.04  C 
BRANCH 22 23
ATOM     23  CG  LEU R   7       5.594   2.851 -11.253  1.00 48.65 LIG-0.02  C 
ATOM     24  CD1 LEU R   7       6.390   3.936 -11.968  1.00 40.28 LIG 0.01  C 
ATOM     25  CD2 LEU R   7       4.326   2.515 -12.028  1.00 37.72 LIG 0.01  C 
ENDBRANCH 22 23
ENDBRANCH 21 22
BRANCH 21 26
ATOM     26  C   LEU R   7       8.753   1.664 -12.004  1.00 46.73 LIG 0.22  C 
ATOM     27 O    LEU R   7       9.142   2.040 -10.898  1.00 57.50 LIG-0.29  OA
ENDBRANCH 21 26
ENDBRANCH 18 21
ENDBRANCH 12 17
ENDBRANCH 10 12
ENDBRANCH 4 8
BRANCH 1 28
ATOM     28  CA  PRO R   4       2.566  -5.245 -10.338  1.00 54.23 LIG 0.18  C 
ATOM     29  N   PRO R   4       3.162  -6.055 -11.404  1.00 66.40 LIG-0.34  N 
ATOM     30  CD  PRO R   4       3.841  -7.236 -10.851  1.00 55.20 LIG 0.13  C 
ATOM     31  C   MET R   3       3.052  -5.886 -12.733  1.00 65.13 LIG 0.26  C 
ATOM     32  CG  PRO R   4       2.997  -7.554  -9.659  1.00 51.34 LIG 0.02  C 
ATOM     33  CB  PRO R   4       2.494  -6.224  -9.150  1.00 43.90 LIG 0.04  C 
ATOM     34 O    MET R   3       3.654  -6.595 -13.543  1.00 74.37 LIG-0.27  OA
BRANCH 31 35
ATOM     35  CA  MET R   3       2.134  -4.771 -13.231  1.00 67.30 LIG 0.40  C 
ATOM     36  N   MET R   3       2.340  -4.453 -14.641  1.00 55.69 LIG 0.61  N 
BRANCH 35 37
ATOM     37  CB  MET R   3       0.680  -5.185 -12.974  1.00 55.44 LIG 0.06  C 
BRANCH 37 38
ATOM     38  CG  MET R   3      -0.025  -4.423 -11.874  1.00 49.90 LIG 0.08  C 
BRANCH 38 39
ATOM     39 SD   MET R   3      -1.155  -3.215 -12.589  1.00 67.63 LIG-0.17  SA
ATOM     40  CE  MET R   3      -0.608  -1.714 -11.778  1.00 69.90 LIG 0.09  C 
ENDBRANCH 38 39
ENDBRANCH 37 38
ENDBRANCH 35 37
ENDBRANCH 31 35
ENDBRANCH 1 28
TORSDOF 14
ENDMDL
MODEL 25
USER: ADFR SOLUTION from run 135
USER: SCORE 11.963414 LL:  -2.813 LR:  -9.597 RR:   0.000 FEB:  -5.421
USER: RMSD 9.387188
USER: SEED 134
USER: STATUS no improvement in best in 15 clusters for 5 generations
USER: GENES 16
USER: genes 0 Translation |==|  0.38453 0.26428 0.71129
USER: genes 1 Rotation |==|  0.78442 0.55615 0.83971 0.72484
USER: genes 2 Torsion [N]-CA--C-[N] |==|  0.99438
USER: genes 3 Torsion [C]-N--CA-[CB] |==|  0.55801
USER: genes 4 Torsion [N]-CA--CB-[CG2] |==|  0.52954
USER: genes 5 Torsion [CA]-CB--OG1-[HG1] |==|  0.02900
USER: genes 6 Torsion [N]-CA--C-[N] |==|  0.31826
USER: genes 7 Torsion [C]-N--CA-[CB] |==|  0.14165
USER: genes 8 Torsion [N]-CA--CB-[CG] |==|  0.60829
USER: genes 9 Torsion [CA]-CB--CG-[CD1] |==|  0.89993
USER: genes 10 Torsion [N]-CA--C-[O] |==|  0.68398
USER: genes 11 Torsion [O]-C--CA-[N] |==|  0.85300
USER: genes 12 Torsion [N]-C--CA-[N] |==|  0.50005
USER: genes 13 Torsion [C]-CA--CB-[CG] |==|  0.67138
USER: genes 14 Torsion [CA]-CB--CG-[SD] |==|  0.72203
USER: genes 15 Torsion [CB]-CG--SD-[CE] |==|  0.89822
ROOT
ATOM      1  C   PRO R   4       3.688  -4.612 -10.874  1.00 60.54 LIG 0.24  C 
ATOM      2 O    PRO R   4       3.252  -3.529 -11.270  1.00 63.53 LIG-0.27  OA
ATOM      3  N   PRO R   5       4.655  -4.723  -9.946  1.00 48.92 LIG-0.34  N 
ATOM      4  CA  PRO R   5       5.286  -3.528  -9.369  1.00 52.68 LIG 0.18  C 
ATOM      5  CB  PRO R   5       6.308  -4.114  -8.387  1.00 55.54 LIG 0.04  C 
ATOM      6  CG  PRO R   5       5.770  -5.446  -8.022  1.00 46.13 LIG 0.02  C 
ATOM      7  CD  PRO R   5       5.075  -5.956  -9.255  1.00 43.47 LIG 0.13  C 
ENDROOT
BRANCH 4 8
ATOM      8  C   PRO R   5       6.005  -2.655 -10.401  1.00 58.07 LIG 0.24  C 
ATOM      9 O    PRO R   5       6.543  -1.597 -10.061  1.00 51.36 LIG-0.27  OA
ATOM     10  N   THR R   6       6.002  -3.104 -11.653  1.00 69.24 LIG-0.34  N 
ATOM     11 H    THR R   6       5.669  -3.861 -11.886  1.00 69.24 LIG 0.16  HD
BRANCH 10 12
ATOM     12  CA  THR R   6       6.570  -2.337 -12.756  1.00 55.31 LIG 0.20  C 
BRANCH 12 13
ATOM     13  CB  THR R   6       6.004  -2.794 -14.119  1.00 60.29 LIG 0.15  C 
ATOM     14  CG2 THR R   6       6.788  -2.176 -15.266  1.00 62.01 LIG 0.04  C 
BRANCH 13 15
ATOM     15 OG1  THR R   6       6.080  -4.222 -14.218  1.00 91.48 LIG-0.39  OA
ATOM     16 HG1  THR R   6       6.282  -4.544 -13.469  1.00 91.48 LIG 0.21  HD
ENDBRANCH 13 15
ENDBRANCH 12 13
BRANCH 12 17
ATOM     17  C   THR R   6       6.273  -0.857 -12.560  1.00 56.48 LIG 0.24  C 
ATOM     18  N   LEU R   7       7.325  -0.069 -12.350  1.00 43.78 LIG-0.35  N 
ATOM     19 H    LEU R   7       8.139  -0.348 -12.336  1.00 43.78 LIG 0.16  HD
ATOM     20 O    THR R   6       5.113  -0.440 -12.593  1.00 41.48 LIG-0.27  OA
BRANCH 18 21
ATOM     21  CA  LEU R   7       7.173   1.362 -12.123  1.00 53.52 LIG 0.16  C 
BRANCH 21 22
ATOM     22  CB  LEU R   7       6.141   1.620 -11.023  1.00 41.32 LIG 0.04  C 
BRANCH 22 23
ATOM     23  CG  LEU R   7       5.222   2.821 -11.267  1.00 48.65 LIG-0.02  C 
ATOM     24  CD1 LEU R   7       5.963   3.960 -11.957  1.00 40.28 LIG 0.01  C 
ATOM     25  CD2 LEU R   7       3.996   2.411 -12.074  1.00 37.72 LIG 0.01  C 
ENDBRANCH 22 23
ENDBRANCH 21 22
BRANCH 21 26
ATOM     26  C   LEU R   7       8.507   2.017 -11.771  1.00 46.73 LIG 0.22  C 
ATOM     27 O    LEU R   7       8.697   2.499 -10.653  1.00 57.50 LIG-0.29  OA
ENDBRANCH 21 26
ENDBRANCH 18 21
ENDBRANCH 12 17
ENDBRANCH 10 12
ENDBRANCH 4 8
BRANCH 1 28
ATOM     28  CA  PRO R   4       3.104  -5.901 -11.454  1.00 54.23 LIG 0.18  C 
ATOM     29  N   PRO R   4       1.644  -5.886 -11.325  1.00 66.40 LIG-0.34  N 
ATOM     30  CD  PRO R   4       1.009  -5.470 -12.583  1.00 55.20 LIG 0.13  C 
ATOM     31  C   MET R   3       0.900  -6.294 -10.282  1.00 65.13 LIG 0.26  C 
ATOM     32  CG  PRO R   4       1.951  -6.016 -13.606  1.00 51.34 LIG 0.02  C 
ATOM     33  CB  PRO R   4       3.322  -5.940 -12.979  1.00 43.90 LIG 0.04  C 
ATOM     34 O    MET R   3      -0.327  -6.175 -10.257  1.00 74.37 LIG-0.27  OA
BRANCH 31 35
ATOM     35  CA  MET R   3       1.629  -6.934  -9.101  1.00 67.30 LIG 0.40  C 
ATOM     36  N   MET R   3       0.725  -7.339  -8.028  1.00 55.69 LIG 0.61  N 
BRANCH 35 37
ATOM     37  CB  MET R   3       2.433  -8.133  -9.616  1.00 55.44 LIG 0.06  C 
BRANCH 37 38
ATOM     38  CG  MET R   3       2.038  -9.473  -9.035  1.00 49.90 LIG 0.08  C 
BRANCH 38 39
ATOM     39 SD   MET R   3       3.187  -9.940  -7.728  1.00 67.63 LIG-0.17  SA
ATOM     40  CE  MET R   3       4.730  -9.317  -8.392  1.00 69.90 LIG 0.09  C 
ENDBRANCH 38 39
ENDBRANCH 37 38
ENDBRANCH 35 37
ENDBRANCH 31 35
ENDBRANCH 1 28
TORSDOF 14
ENDMDL
MODEL 26
USER: ADFR SOLUTION from run 13
USER: SCORE 11.729270 LL:  -2.777 LR:  -9.583 RR:   0.000 FEB:  -5.406
USER: RMSD 10.109413
USER: SEED 800722
USER: STATUS no improvement in best in 44 clusters for 5 generations
USER: GENES 16
USER: genes 0 Translation |==|  0.38212 0.28366 0.65261
USER: genes 1 Rotation |==|  0.85353 0.83221 0.40229 0.57148
USER: genes 2 Torsion [N]-CA--C-[N] |==|  0.31657
USER: genes 3 Torsion [C]-N--CA-[CB] |==|  0.23734
USER: genes 4 Torsion [N]-CA--CB-[CG2] |==|  0.74797
USER: genes 5 Torsion [CA]-CB--OG1-[HG1] |==|  0.99151
USER: genes 6 Torsion [N]-CA--C-[N] |==|  0.96488
USER: genes 7 Torsion [C]-N--CA-[CB] |==|  0.54432
USER: genes 8 Torsion [N]-CA--CB-[CG] |==|  0.96202
USER: genes 9 Torsion [CA]-CB--CG-[CD1] |==|  0.25611
USER: genes 10 Torsion [N]-CA--C-[O] |==|  0.35937
USER: genes 11 Torsion [O]-C--CA-[N] |==|  0.00869
USER: genes 12 Torsion [N]-C--CA-[N] |==|  0.26604
USER: genes 13 Torsion [C]-CA--CB-[CG] |==|  0.76350
USER: genes 14 Torsion [CA]-CB--CG-[SD] |==|  0.36482
USER: genes 15 Torsion [CB]-CG--SD-[CE] |==|  0.09732
ROOT
ATOM      1  C   PRO R   4       3.644  -4.220 -12.063  1.00 60.54 LIG 0.24  C 
ATOM      2 O    PRO R   4       3.076  -3.301 -11.469  1.00 63.53 LIG-0.27  OA
ATOM      3  N   PRO R   5       3.777  -4.262 -13.400  1.00 48.92 LIG-0.34  N 
ATOM      4  CA  PRO R   5       3.202  -3.209 -14.249  1.00 52.68 LIG 0.18  C 
ATOM      5  CB  PRO R   5       3.581  -3.657 -15.666  1.00 55.54 LIG 0.04  C 
ATOM      6  CG  PRO R   5       4.794  -4.490 -15.494  1.00 46.13 LIG 0.02  C 
ATOM      7  CD  PRO R   5       4.624  -5.189 -14.172  1.00 43.47 LIG 0.13  C 
ENDROOT
BRANCH 4 8
ATOM      8  C   PRO R   5       1.680  -3.091 -14.135  1.00 58.07 LIG 0.24  C 
ATOM      9 O    PRO R   5       0.950  -4.003 -14.532  1.00 51.36 LIG-0.27  OA
ATOM     10  N   THR R   6       1.217  -1.964 -13.600  1.00 69.24 LIG-0.34  N 
ATOM     11 H    THR R   6       1.723  -1.347 -13.280  1.00 69.24 LIG 0.16  HD
BRANCH 10 12
ATOM     12  CA  THR R   6      -0.209  -1.675 -13.508  1.00 55.31 LIG 0.20  C 
BRANCH 12 13
ATOM     13  CB  THR R   6      -0.835  -2.292 -12.237  1.00 60.29 LIG 0.15  C 
ATOM     14  CG2 THR R   6      -1.358  -3.693 -12.515  1.00 62.01 LIG 0.04  C 
BRANCH 13 15
ATOM     15 OG1  THR R   6       0.151  -2.359 -11.199  1.00 91.48 LIG-0.39  OA
ATOM     16 HG1  THR R   6       0.889  -2.089 -11.496  1.00 91.48 LIG 0.21  HD
ENDBRANCH 13 15
ENDBRANCH 12 13
BRANCH 12 17
ATOM     17  C   THR R   6      -0.429  -0.170 -13.497  1.00 56.48 LIG 0.24  C 
ATOM     18  N   LEU R   7       0.654   0.581 -13.306  1.00 43.78 LIG-0.35  N 
ATOM     19 H    LEU R   7       1.447   0.263 -13.207  1.00 43.78 LIG 0.16  HD
ATOM     20 O    THR R   6      -1.558   0.301 -13.653  1.00 41.48 LIG-0.27  OA
BRANCH 18 21
ATOM     21  CA  LEU R   7       0.575   2.035 -13.248  1.00 53.52 LIG 0.16  C 
BRANCH 21 22
ATOM     22  CB  LEU R   7       1.965   2.651 -13.418  1.00 41.32 LIG 0.04  C 
BRANCH 22 23
ATOM     23  CG  LEU R   7       3.131   1.668 -13.278  1.00 48.65 LIG-0.02  C 
ATOM     24  CD1 LEU R   7       3.537   1.088 -14.627  1.00 40.28 LIG 0.01  C 
ATOM     25  CD2 LEU R   7       4.322   2.333 -12.599  1.00 37.72 LIG 0.01  C 
ENDBRANCH 22 23
ENDBRANCH 21 22
BRANCH 21 26
ATOM     26  C   LEU R   7      -0.389   2.585 -14.298  1.00 46.73 LIG 0.22  C 
ATOM     27 O    LEU R   7      -1.274   3.382 -13.983  1.00 57.50 LIG-0.29  OA
ENDBRANCH 21 26
ENDBRANCH 18 21
ENDBRANCH 12 17
ENDBRANCH 10 12
ENDBRANCH 4 8
BRANCH 1 28
ATOM     28  CA  PRO R   4       4.238  -5.370 -11.250  1.00 54.23 LIG 0.18  C 
ATOM     29  N   PRO R   4       3.936  -5.181  -9.829  1.00 66.40 LIG-0.34  N 
ATOM     30  CD  PRO R   4       2.774  -5.987  -9.426  1.00 55.20 LIG 0.13  C 
ATOM     31  C   MET R   3       4.638  -4.485  -8.918  1.00 65.13 LIG 0.26  C 
ATOM     32  CG  PRO R   4       2.905  -7.188 -10.305  1.00 51.34 LIG 0.02  C 
ATOM     33  CB  PRO R   4       3.513  -6.687 -11.592  1.00 43.90 LIG 0.04  C 
ATOM     34 O    MET R   3       4.253  -4.339  -7.755  1.00 74.37 LIG-0.27  OA
BRANCH 31 35
ATOM     35  CA  MET R   3       5.962  -3.870  -9.365  1.00 67.30 LIG 0.40  C 
ATOM     36  N   MET R   3       5.832  -2.472  -9.768  1.00 55.69 LIG 0.61  N 
BRANCH 35 37
ATOM     37  CB  MET R   3       6.978  -4.014  -8.226  1.00 55.44 LIG 0.06  C 
BRANCH 37 38
ATOM     38  CG  MET R   3       6.935  -2.922  -7.180  1.00 49.90 LIG 0.08  C 
BRANCH 38 39
ATOM     39 SD   MET R   3       6.906  -3.650  -5.532  1.00 67.63 LIG-0.17  SA
ATOM     40  CE  MET R   3       7.945  -5.089  -5.777  1.00 69.90 LIG 0.09  C 
ENDBRANCH 38 39
ENDBRANCH 37 38
ENDBRANCH 35 37
ENDBRANCH 31 35
ENDBRANCH 1 28
TORSDOF 14
ENDMDL
MODEL 27
USER: ADFR SOLUTION from run 158
USER: SCORE 12.122272 LL:  -2.674 LR:  -9.583 RR:   0.000 FEB:  -5.407
USER: RMSD 11.620855
USER: SEED 157
USER: STATUS no improvement in best in 19 clusters for 5 generations
USER: GENES 16
USER: genes 0 Translation |==|  0.54496 0.23652 0.85122
USER: genes 1 Rotation |==|  0.75846 0.72486 0.22242 0.73576
USER: genes 2 Torsion [N]-CA--C-[N] |==|  0.54638
USER: genes 3 Torsion [C]-N--CA-[CB] |==|  0.86579
USER: genes 4 Torsion [N]-CA--CB-[CG2] |==|  0.47111
USER: genes 5 Torsion [CA]-CB--OG1-[HG1] |==|  0.89119
USER: genes 6 Torsion [N]-CA--C-[N] |==|  0.38303
USER: genes 7 Torsion [C]-N--CA-[CB] |==|  0.46225
USER: genes 8 Torsion [N]-CA--CB-[CG] |==|  0.22540
USER: genes 9 Torsion [CA]-CB--CG-[CD1] |==|  0.42605
USER: genes 10 Torsion [N]-CA--C-[O] |==|  0.59885
USER: genes 11 Torsion [O]-C--CA-[N] |==|  0.81840
USER: genes 12 Torsion [N]-C--CA-[N] |==|  0.41368
USER: genes 13 Torsion [C]-CA--CB-[CG] |==|  0.22539
USER: genes 14 Torsion [CA]-CB--CG-[SD] |==|  0.25321
USER: genes 15 Torsion [CB]-CG--SD-[CE] |==|  0.06581
ROOT
ATOM      1  C   PRO R   4       6.575  -5.174  -8.041  1.00 60.54 LIG 0.24  C 
ATOM      2 O    PRO R   4       6.037  -4.216  -8.599  1.00 63.53 LIG-0.27  OA
ATOM      3  N   PRO R   5       6.594  -6.414  -8.561  1.00 48.92 LIG-0.34  N 
ATOM      4  CA  PRO R   5       5.924  -6.708  -9.836  1.00 52.68 LIG 0.18  C 
ATOM      5  CB  PRO R   5       6.191  -8.205 -10.034  1.00 55.54 LIG 0.04  C 
ATOM      6  CG  PRO R   5       7.435  -8.476  -9.276  1.00 46.13 LIG 0.02  C 
ATOM      7  CD  PRO R   5       7.396  -7.557  -8.085  1.00 43.47 LIG 0.13  C 
ENDROOT
BRANCH 4 8
ATOM      8  C   PRO R   5       4.414  -6.454  -9.808  1.00 58.07 LIG 0.24  C 
ATOM      9 O    PRO R   5       3.910  -5.771  -8.912  1.00 51.36 LIG-0.27  OA
ATOM     10  N   THR R   6       3.708  -7.012 -10.787  1.00 69.24 LIG-0.34  N 
ATOM     11 H    THR R   6       4.060  -7.449 -11.439  1.00 69.24 LIG 0.16  HD
BRANCH 10 12
ATOM     12  CA  THR R   6       2.252  -6.929 -10.841  1.00 55.31 LIG 0.20  C 
BRANCH 12 13
ATOM     13  CB  THR R   6       1.611  -7.295  -9.484  1.00 60.29 LIG 0.15  C 
ATOM     14  CG2 THR R   6       0.127  -6.961  -9.479  1.00 62.01 LIG 0.04  C 
BRANCH 13 15
ATOM     15 OG1  THR R   6       1.774  -8.698  -9.236  1.00 91.48 LIG-0.39  OA
ATOM     16 HG1  THR R   6       1.668  -9.123  -9.953  1.00 91.48 LIG 0.21  HD
ENDBRANCH 13 15
ENDBRANCH 12 13
BRANCH 12 17
ATOM     17  C   THR R   6       1.832  -5.520 -11.231  1.00 56.48 LIG 0.24  C 
ATOM     18  N   LEU R   7       0.835  -5.425 -12.108  1.00 43.78 LIG-0.35  N 
ATOM     19 H    LEU R   7       0.422  -6.102 -12.441  1.00 43.78 LIG 0.16  HD
ATOM     20 O    THR R   6       2.404  -4.539 -10.750  1.00 41.48 LIG-0.27  OA
BRANCH 18 21
ATOM     21  CA  LEU R   7       0.356  -4.133 -12.582  1.00 53.52 LIG 0.16  C 
BRANCH 21 22
ATOM     22  CB  LEU R   7      -0.541  -4.316 -13.808  1.00 41.32 LIG 0.04  C 
BRANCH 22 23
ATOM     23  CG  LEU R   7      -1.989  -4.711 -13.499  1.00 48.65 LIG-0.02  C 
ATOM     24  CD1 LEU R   7      -2.938  -4.255 -14.600  1.00 40.28 LIG 0.01  C 
ATOM     25  CD2 LEU R   7      -2.105  -6.214 -13.278  1.00 37.72 LIG 0.01  C 
ENDBRANCH 22 23
ENDBRANCH 21 22
BRANCH 21 26
ATOM     26  C   LEU R   7      -0.384  -3.373 -11.484  1.00 46.73 LIG 0.22  C 
ATOM     27 O    LEU R   7      -1.359  -2.670 -11.752  1.00 57.50 LIG-0.29  OA
ENDBRANCH 21 26
ENDBRANCH 18 21
ENDBRANCH 12 17
ENDBRANCH 10 12
ENDBRANCH 4 8
BRANCH 1 28
ATOM     28  CA  PRO R   4       7.264  -4.956  -6.694  1.00 54.23 LIG 0.18  C 
ATOM     29  N   PRO R   4       8.419  -4.069  -6.866  1.00 66.40 LIG-0.34  N 
ATOM     30  CD  PRO R   4       8.081  -2.687  -6.499  1.00 55.20 LIG 0.13  C 
ATOM     31  C   MET R   3       9.680  -4.405  -7.192  1.00 65.13 LIG 0.26  C 
ATOM     32  CG  PRO R   4       7.085  -2.887  -5.403  1.00 51.34 LIG 0.02  C 
ATOM     33  CB  PRO R   4       6.343  -4.154  -5.754  1.00 43.90 LIG 0.04  C 
ATOM     34 O    MET R   3      10.563  -3.563  -7.374  1.00 74.37 LIG-0.27  OA
BRANCH 31 35
ATOM     35  CA  MET R   3      10.003  -5.891  -7.328  1.00 67.30 LIG 0.40  C 
ATOM     36  N   MET R   3      11.047  -6.158  -8.314  1.00 55.69 LIG 0.61  N 
BRANCH 35 37
ATOM     37  CB  MET R   3      10.406  -6.431  -5.951  1.00 55.44 LIG 0.06  C 
BRANCH 37 38
ATOM     38  CG  MET R   3       9.256  -6.771  -5.028  1.00 49.90 LIG 0.08  C 
BRANCH 38 39
ATOM     39 SD   MET R   3       8.788  -8.498  -5.241  1.00 67.63 LIG-0.17  SA
ATOM     40  CE  MET R   3      10.310  -9.186  -5.892  1.00 69.90 LIG 0.09  C 
ENDBRANCH 38 39
ENDBRANCH 37 38
ENDBRANCH 35 37
ENDBRANCH 31 35
ENDBRANCH 1 28
TORSDOF 14
ENDMDL
MODEL 28
USER: ADFR SOLUTION from run 18
USER: SCORE 12.407032 LL:  -3.476 LR:  -9.580 RR:   0.000 FEB:  -5.404
USER: RMSD 6.847482
USER: SEED 17
USER: STATUS no improvement in best in 16 clusters for 5 generations
USER: GENES 16
USER: genes 0 Translation |==|  0.40802 0.30114 0.65013
USER: genes 1 Rotation |==|  0.65072 0.41281 0.87378 0.78279
USER: genes 2 Torsion [N]-CA--C-[N] |==|  0.93024
USER: genes 3 Torsion [C]-N--CA-[CB] |==|  0.80533
USER: genes 4 Torsion [N]-CA--CB-[CG2] |==|  0.88142
USER: genes 5 Torsion [CA]-CB--OG1-[HG1] |==|  0.97574
USER: genes 6 Torsion [N]-CA--C-[N] |==|  0.14449
USER: genes 7 Torsion [C]-N--CA-[CB] |==|  0.49667
USER: genes 8 Torsion [N]-CA--CB-[CG] |==|  0.82110
USER: genes 9 Torsion [CA]-CB--CG-[CD1] |==|  0.88221
USER: genes 10 Torsion [N]-CA--C-[O] |==|  0.36235
USER: genes 11 Torsion [O]-C--CA-[N] |==|  0.86946
USER: genes 12 Torsion [N]-C--CA-[N] |==|  0.88865
USER: genes 13 Torsion [C]-CA--CB-[CG] |==|  0.16307
USER: genes 14 Torsion [CA]-CB--CG-[SD] |==|  0.12512
USER: genes 15 Torsion [CB]-CG--SD-[CE] |==|  0.53910
ROOT
ATOM      1  C   PRO R   4       4.110  -3.866 -12.113  1.00 60.54 LIG 0.24  C 
ATOM      2 O    PRO R   4       4.428  -2.745 -12.516  1.00 63.53 LIG-0.27  OA
ATOM      3  N   PRO R   5       4.104  -4.207 -10.812  1.00 48.92 LIG-0.34  N 
ATOM      4  CA  PRO R   5       4.524  -3.249  -9.780  1.00 52.68 LIG 0.18  C 
ATOM      5  CB  PRO R   5       4.368  -4.046  -8.479  1.00 55.54 LIG 0.04  C 
ATOM      6  CG  PRO R   5       3.337  -5.069  -8.778  1.00 46.13 LIG 0.02  C 
ATOM      7  CD  PRO R   5       3.531  -5.432 -10.225  1.00 43.47 LIG 0.13  C 
ENDROOT
BRANCH 4 8
ATOM      8  C   PRO R   5       5.976  -2.785  -9.927  1.00 58.07 LIG 0.24  C 
ATOM      9 O    PRO R   5       6.334  -1.694  -9.476  1.00 51.36 LIG-0.27  OA
ATOM     10  N   THR R   6       6.796  -3.617 -10.564  1.00 69.24 LIG-0.34  N 
ATOM     11 H    THR R   6       6.562  -4.397 -10.840  1.00 69.24 LIG 0.16  HD
BRANCH 10 12
ATOM     12  CA  THR R   6       8.182  -3.271 -10.856  1.00 55.31 LIG 0.20  C 
BRANCH 12 13
ATOM     13  CB  THR R   6       8.280  -2.171 -11.936  1.00 60.29 LIG 0.15  C 
ATOM     14  CG2 THR R   6       7.296  -2.433 -13.067  1.00 62.01 LIG 0.04  C 
BRANCH 13 15
ATOM     15 OG1  THR R   6       7.991  -0.894 -11.352  1.00 91.48 LIG-0.39  OA
ATOM     16 HG1  THR R   6       7.709  -1.003 -10.568  1.00 91.48 LIG 0.21  HD
ENDBRANCH 13 15
ENDBRANCH 12 13
BRANCH 12 17
ATOM     17  C   THR R   6       8.870  -2.790  -9.586  1.00 56.48 LIG 0.24  C 
ATOM     18  N   LEU R   7       8.773  -3.589  -8.527  1.00 43.78 LIG-0.35  N 
ATOM     19 H    LEU R   7       8.366  -4.347  -8.532  1.00 43.78 LIG 0.16  HD
ATOM     20 O    THR R   6       9.472  -1.714  -9.568  1.00 41.48 LIG-0.27  OA
BRANCH 18 21
ATOM     21  CA  LEU R   7       9.366  -3.232  -7.244  1.00 53.52 LIG 0.16  C 
BRANCH 21 22
ATOM     22  CB  LEU R   7       9.076  -4.315  -6.203  1.00 41.32 LIG 0.04  C 
BRANCH 22 23
ATOM     23  CG  LEU R   7       7.596  -4.496  -5.851  1.00 48.65 LIG-0.02  C 
ATOM     24  CD1 LEU R   7       6.891  -3.154  -5.699  1.00 40.28 LIG 0.01  C 
ATOM     25  CD2 LEU R   7       6.892  -5.358  -6.893  1.00 37.72 LIG 0.01  C 
ENDBRANCH 22 23
ENDBRANCH 21 22
BRANCH 21 26
ATOM     26  C   LEU R   7      10.869  -2.996  -7.369  1.00 46.73 LIG 0.22  C 
ATOM     27 O    LEU R   7      11.387  -1.980  -6.903  1.00 57.50 LIG-0.29  OA
ENDBRANCH 21 26
ENDBRANCH 18 21
ENDBRANCH 12 17
ENDBRANCH 10 12
ENDBRANCH 4 8
BRANCH 1 28
ATOM     28  CA  PRO R   4       3.694  -4.928 -13.130  1.00 54.23 LIG 0.18  C 
ATOM     29  N   PRO R   4       2.735  -4.356 -14.079  1.00 66.40 LIG-0.34  N 
ATOM     30  CD  PRO R   4       3.403  -3.955 -15.326  1.00 55.20 LIG 0.13  C 
ATOM     31  C   MET R   3       1.397  -4.280 -13.962  1.00 65.13 LIG 0.26  C 
ATOM     32  CG  PRO R   4       4.490  -4.974 -15.441  1.00 51.34 LIG 0.02  C 
ATOM     33  CB  PRO R   4       4.893  -5.301 -14.024  1.00 43.90 LIG 0.04  C 
ATOM     34 O    MET R   3       0.690  -3.716 -14.800  1.00 74.37 LIG-0.27  OA
BRANCH 31 35
ATOM     35  CA  MET R   3       0.758  -4.933 -12.738  1.00 67.30 LIG 0.40  C 
ATOM     36  N   MET R   3       1.369  -6.214 -12.393  1.00 55.69 LIG 0.61  N 
BRANCH 35 37
ATOM     37  CB  MET R   3       0.845  -3.955 -11.561  1.00 55.44 LIG 0.06  C 
BRANCH 37 38
ATOM     38  CG  MET R   3       0.175  -2.617 -11.781  1.00 49.90 LIG 0.08  C 
BRANCH 38 39
ATOM     39 SD   MET R   3      -1.448  -2.858 -12.528  1.00 67.63 LIG-0.17  SA
ATOM     40  CE  MET R   3      -1.826  -1.192 -13.067  1.00 69.90 LIG 0.09  C 
ENDBRANCH 38 39
ENDBRANCH 37 38
ENDBRANCH 35 37
ENDBRANCH 31 35
ENDBRANCH 1 28
TORSDOF 14
ENDMDL
MODEL 29
USER: ADFR SOLUTION from run 162
USER: SCORE 11.769344 LL:  -3.246 LR:  -9.577 RR:   0.000 FEB:  -5.401
USER: RMSD 7.892090
USER: SEED 161
USER: STATUS no improvement in best in 20 clusters for 5 generations
USER: GENES 16
USER: genes 0 Translation |==|  0.30441 0.28338 0.69293
USER: genes 1 Rotation |==|  0.81848 0.31300 0.81655 0.61573
USER: genes 2 Torsion [N]-CA--C-[N] |==|  0.81008
USER: genes 3 Torsion [C]-N--CA-[CB] |==|  0.83331
USER: genes 4 Torsion [N]-CA--CB-[CG2] |==|  0.91191
USER: genes 5 Torsion [CA]-CB--OG1-[HG1] |==|  0.15258
USER: genes 6 Torsion [N]-CA--C-[N] |==|  0.09913
USER: genes 7 Torsion [C]-N--CA-[CB] |==|  0.80181
USER: genes 8 Torsion [N]-CA--CB-[CG] |==|  0.80069
USER: genes 9 Torsion [CA]-CB--CG-[CD1] |==|  0.89644
USER: genes 10 Torsion [N]-CA--C-[O] |==|  0.19906
USER: genes 11 Torsion [O]-C--CA-[N] |==|  0.87157
USER: genes 12 Torsion [N]-C--CA-[N] |==|  0.23816
USER: genes 13 Torsion [C]-CA--CB-[CG] |==|  0.23085
USER: genes 14 Torsion [CA]-CB--CG-[SD] |==|  0.76201
USER: genes 15 Torsion [CB]-CG--SD-[CE] |==|  0.31075
ROOT
ATOM      1  C   PRO R   4       2.245  -4.226 -11.246  1.00 60.54 LIG 0.24  C 
ATOM      2 O    PRO R   4       2.150  -3.218 -10.543  1.00 63.53 LIG-0.27  OA
ATOM      3  N   PRO R   5       2.787  -5.378 -10.813  1.00 48.92 LIG-0.34  N 
ATOM      4  CA  PRO R   5       3.343  -5.487  -9.457  1.00 52.68 LIG 0.18  C 
ATOM      5  CB  PRO R   5       3.844  -6.935  -9.400  1.00 55.54 LIG 0.04  C 
ATOM      6  CG  PRO R   5       3.016  -7.666 -10.389  1.00 46.13 LIG 0.02  C 
ATOM      7  CD  PRO R   5       2.740  -6.684 -11.495  1.00 43.47 LIG 0.13  C 
ENDROOT
BRANCH 4 8
ATOM      8  C   PRO R   5       4.507  -4.528  -9.192  1.00 58.07 LIG 0.24  C 
ATOM      9 O    PRO R   5       4.377  -3.585  -8.407  1.00 51.36 LIG-0.27  OA
ATOM     10  N   THR R   6       5.633  -4.776  -9.856  1.00 69.24 LIG-0.34  N 
ATOM     11 H    THR R   6       5.744  -5.458 -10.368  1.00 69.24 LIG 0.16  HD
BRANCH 10 12
ATOM     12  CA  THR R   6       6.795  -3.899  -9.771  1.00 55.31 LIG 0.20  C 
BRANCH 12 13
ATOM     13  CB  THR R   6       6.466  -2.469 -10.255  1.00 60.29 LIG 0.15  C 
ATOM     14  CG2 THR R   6       5.407  -2.497 -11.346  1.00 62.01 LIG 0.04  C 
BRANCH 13 15
ATOM     15 OG1  THR R   6       5.983  -1.687  -9.155  1.00 91.48 LIG-0.39  OA
ATOM     16 HG1  THR R   6       6.543  -1.708  -8.530  1.00 91.48 LIG 0.21  HD
ENDBRANCH 13 15
ENDBRANCH 12 13
BRANCH 12 17
ATOM     17  C   THR R   6       7.291  -3.841  -8.334  1.00 56.48 LIG 0.24  C 
ATOM     18  N   LEU R   7       7.194  -4.967  -7.632  1.00 43.78 LIG-0.35  N 
ATOM     19 H    LEU R   7       6.888  -5.706  -7.949  1.00 43.78 LIG 0.16  HD
ATOM     20 O    THR R   6       7.749  -2.794  -7.870  1.00 41.48 LIG-0.27  OA
BRANCH 18 21
ATOM     21  CA  LEU R   7       7.611  -5.037  -6.237  1.00 53.52 LIG 0.16  C 
BRANCH 21 22
ATOM     22  CB  LEU R   7       9.136  -4.971  -6.133  1.00 41.32 LIG 0.04  C 
BRANCH 22 23
ATOM     23  CG  LEU R   7       9.872  -6.229  -6.605  1.00 48.65 LIG-0.02  C 
ATOM     24  CD1 LEU R   7       9.111  -7.494  -6.229  1.00 40.28 LIG 0.01  C 
ATOM     25  CD2 LEU R   7      10.123  -6.179  -8.107  1.00 37.72 LIG 0.01  C 
ENDBRANCH 22 23
ENDBRANCH 21 22
BRANCH 21 26
ATOM     26  C   LEU R   7       6.968  -3.929  -5.406  1.00 46.73 LIG 0.22  C 
ATOM     27 O    LEU R   7       5.767  -3.964  -5.132  1.00 57.50 LIG-0.29  OA
ENDBRANCH 21 26
ENDBRANCH 18 21
ENDBRANCH 12 17
ENDBRANCH 10 12
ENDBRANCH 4 8
BRANCH 1 28
ATOM     28  CA  PRO R   4       1.720  -4.179 -12.681  1.00 54.23 LIG 0.18  C 
ATOM     29  N   PRO R   4       0.391  -3.563 -12.703  1.00 66.40 LIG-0.34  N 
ATOM     30  CD  PRO R   4       0.474  -2.145 -13.081  1.00 55.20 LIG 0.13  C 
ATOM     31  C   MET R   3      -0.802  -4.160 -12.534  1.00 65.13 LIG 0.26  C 
ATOM     32  CG  PRO R   4       1.633  -2.139 -14.025  1.00 51.34 LIG 0.02  C 
ATOM     33  CB  PRO R   4       2.571  -3.209 -13.523  1.00 43.90 LIG 0.04  C 
ATOM     34 O    MET R   3      -1.861  -3.528 -12.508  1.00 74.37 LIG-0.27  OA
BRANCH 31 35
ATOM     35  CA  MET R   3      -0.817  -5.679 -12.379  1.00 67.30 LIG 0.40  C 
ATOM     36  N   MET R   3      -0.601  -6.111 -11.000  1.00 55.69 LIG 0.61  N 
BRANCH 35 37
ATOM     37  CB  MET R   3      -2.152  -6.212 -12.912  1.00 55.44 LIG 0.06  C 
BRANCH 37 38
ATOM     38  CG  MET R   3      -2.214  -6.415 -14.411  1.00 49.90 LIG 0.08  C 
BRANCH 38 39
ATOM     39 SD   MET R   3      -2.674  -4.872 -15.221  1.00 67.63 LIG-0.17  SA
ATOM     40  CE  MET R   3      -1.152  -4.470 -16.078  1.00 69.90 LIG 0.09  C 
ENDBRANCH 38 39
ENDBRANCH 37 38
ENDBRANCH 35 37
ENDBRANCH 31 35
ENDBRANCH 1 28
TORSDOF 14
ENDMDL
MODEL 30
USER: ADFR SOLUTION from run 81
USER: SCORE 12.356129 LL:  -3.532 LR:  -9.571 RR:   0.000 FEB:  -5.395
USER: RMSD 10.229141
USER: SEED 80
USER: STATUS no improvement in best in 15 clusters for 5 generations
USER: GENES 16
USER: genes 0 Translation |==|  0.39381 0.26451 0.72036
USER: genes 1 Rotation |==|  0.73514 0.46464 0.08564 0.64752
USER: genes 2 Torsion [N]-CA--C-[N] |==|  0.47787
USER: genes 3 Torsion [C]-N--CA-[CB] |==|  0.88262
USER: genes 4 Torsion [N]-CA--CB-[CG2] |==|  0.56403
USER: genes 5 Torsion [CA]-CB--OG1-[HG1] |==|  0.90311
USER: genes 6 Torsion [N]-CA--C-[N] |==|  0.81721
USER: genes 7 Torsion [C]-N--CA-[CB] |==|  0.30429
USER: genes 8 Torsion [N]-CA--CB-[CG] |==|  0.93937
USER: genes 9 Torsion [CA]-CB--CG-[CD1] |==|  0.44639
USER: genes 10 Torsion [N]-CA--C-[O] |==|  0.72511
USER: genes 11 Torsion [O]-C--CA-[N] |==|  0.89125
USER: genes 12 Torsion [N]-C--CA-[N] |==|  0.43149
USER: genes 13 Torsion [C]-CA--CB-[CG] |==|  0.97299
USER: genes 14 Torsion [CA]-CB--CG-[SD] |==|  0.30706
USER: genes 15 Torsion [CB]-CG--SD-[CE] |==|  0.50794
ROOT
ATOM      1  C   PRO R   4       3.855  -4.608 -10.691  1.00 60.54 LIG 0.24  C 
ATOM      2 O    PRO R   4       4.113  -4.201 -11.825  1.00 63.53 LIG-0.27  OA
ATOM      3  N   PRO R   5       2.741  -5.300 -10.393  1.00 48.92 LIG-0.34  N 
ATOM      4  CA  PRO R   5       1.730  -5.582 -11.421  1.00 52.68 LIG 0.18  C 
ATOM      5  CB  PRO R   5       0.660  -6.367 -10.653  1.00 55.54 LIG 0.04  C 
ATOM      6  CG  PRO R   5       1.382  -6.991  -9.519  1.00 46.13 LIG 0.02  C 
ATOM      7  CD  PRO R   5       2.458  -6.012  -9.133  1.00 43.47 LIG 0.13  C 
ENDROOT
BRANCH 4 8
ATOM      8  C   PRO R   5       1.106  -4.323 -12.030  1.00 58.07 LIG 0.24  C 
ATOM      9 O    PRO R   5       1.344  -3.211 -11.551  1.00 51.36 LIG-0.27  OA
ATOM     10  N   THR R   6       0.308  -4.512 -13.077  1.00 69.24 LIG-0.34  N 
ATOM     11 H    THR R   6       0.176  -5.279 -13.443  1.00 69.24 LIG 0.16  HD
BRANCH 10 12
ATOM     12  CA  THR R   6      -0.424  -3.417 -13.705  1.00 55.31 LIG 0.20  C 
BRANCH 12 13
ATOM     13  CB  THR R   6      -1.036  -2.465 -12.654  1.00 60.29 LIG 0.15  C 
ATOM     14  CG2 THR R   6      -2.215  -1.701 -13.236  1.00 62.01 LIG 0.04  C 
BRANCH 13 15
ATOM     15 OG1  THR R   6      -1.483  -3.221 -11.521  1.00 91.48 LIG-0.39  OA
ATOM     16 HG1  THR R   6      -1.776  -3.964 -11.778  1.00 91.48 LIG 0.21  HD
ENDBRANCH 13 15
ENDBRANCH 12 13
BRANCH 12 17
ATOM     17  C   THR R   6       0.509  -2.630 -14.613  1.00 56.48 LIG 0.24  C 
ATOM     18  N   LEU R   7       1.499  -1.974 -14.013  1.00 43.78 LIG-0.35  N 
ATOM     19 H    LEU R   7       1.638  -1.987 -13.164  1.00 43.78 LIG 0.16  HD
ATOM     20 O    THR R   6       0.332  -2.616 -15.834  1.00 41.48 LIG-0.27  OA
BRANCH 18 21
ATOM     21  CA  LEU R   7       2.445  -1.162 -14.768  1.00 53.52 LIG 0.16  C 
BRANCH 21 22
ATOM     22  CB  LEU R   7       2.214   0.324 -14.488  1.00 41.32 LIG 0.04  C 
BRANCH 22 23
ATOM     23  CG  LEU R   7       0.818   0.676 -13.964  1.00 48.65 LIG-0.02  C 
ATOM     24  CD1 LEU R   7       0.807   2.036 -13.278  1.00 40.28 LIG 0.01  C 
ATOM     25  CD2 LEU R   7      -0.210   0.633 -15.089  1.00 37.72 LIG 0.01  C 
ENDBRANCH 22 23
ENDBRANCH 21 22
BRANCH 21 26
ATOM     26  C   LEU R   7       3.889  -1.550 -14.454  1.00 46.73 LIG 0.22  C 
ATOM     27 O    LEU R   7       4.556  -0.894 -13.653  1.00 57.50 LIG-0.29  OA
ENDBRANCH 21 26
ENDBRANCH 18 21
ENDBRANCH 12 17
ENDBRANCH 10 12
ENDBRANCH 4 8
BRANCH 1 28
ATOM     28  CA  PRO R   4       4.842  -4.324  -9.560  1.00 54.23 LIG 0.18  C 
ATOM     29  N   PRO R   4       6.215  -4.465 -10.053  1.00 66.40 LIG-0.34  N 
ATOM     30  CD  PRO R   4       6.792  -3.155 -10.387  1.00 55.20 LIG 0.13  C 
ATOM     31  C   MET R   3       6.964  -5.581 -10.111  1.00 65.13 LIG 0.26  C 
ATOM     32  CG  PRO R   4       6.141  -2.260  -9.383  1.00 51.34 LIG 0.02  C 
ATOM     33  CB  PRO R   4       4.766  -2.839  -9.153  1.00 43.90 LIG 0.04  C 
ATOM     34 O    MET R   3       8.092  -5.595 -10.609  1.00 74.37 LIG-0.27  OA
BRANCH 31 35
ATOM     35  CA  MET R   3       6.372  -6.861  -9.525  1.00 67.30 LIG 0.40  C 
ATOM     36  N   MET R   3       6.942  -8.071 -10.111  1.00 55.69 LIG 0.61  N 
BRANCH 35 37
ATOM     37  CB  MET R   3       6.579  -6.844  -8.006  1.00 55.44 LIG 0.06  C 
BRANCH 37 38
ATOM     38  CG  MET R   3       7.483  -5.745  -7.490  1.00 49.90 LIG 0.08  C 
BRANCH 38 39
ATOM     39 SD   MET R   3       6.516  -4.539  -6.564  1.00 67.63 LIG-0.17  SA
ATOM     40  CE  MET R   3       7.778  -3.335  -6.152  1.00 69.90 LIG 0.09  C 
ENDBRANCH 38 39
ENDBRANCH 37 38
ENDBRANCH 35 37
ENDBRANCH 31 35
ENDBRANCH 1 28
TORSDOF 14
ENDMDL
MODEL 31
USER: ADFR SOLUTION from run 183
USER: SCORE 10.725908 LL:  -2.170 LR:  -9.543 RR:   0.000 FEB:  -5.367
USER: RMSD 5.021177
USER: SEED 182
USER: STATUS no improvement in best in 41 clusters for 5 generations
USER: GENES 16
USER: genes 0 Translation |==|  0.53279 0.48800 0.64250
USER: genes 1 Rotation |==|  0.37270 0.73003 0.22907 0.82784
USER: genes 2 Torsion [N]-CA--C-[N] |==|  0.56971
USER: genes 3 Torsion [C]-N--CA-[CB] |==|  0.82553
USER: genes 4 Torsion [N]-CA--CB-[CG2] |==|  0.64562
USER: genes 5 Torsion [CA]-CB--OG1-[HG1] |==|  0.24345
USER: genes 6 Torsion [N]-CA--C-[N] |==|  0.11111
USER: genes 7 Torsion [C]-N--CA-[CB] |==|  0.84989
USER: genes 8 Torsion [N]-CA--CB-[CG] |==|  0.62277
USER: genes 9 Torsion [CA]-CB--CG-[CD1] |==|  0.48857
USER: genes 10 Torsion [N]-CA--C-[O] |==|  0.82825
USER: genes 11 Torsion [O]-C--CA-[N] |==|  0.07268
USER: genes 12 Torsion [N]-C--CA-[N] |==|  0.22713
USER: genes 13 Torsion [C]-CA--CB-[CG] |==|  0.82867
USER: genes 14 Torsion [CA]-CB--CG-[SD] |==|  0.79302
USER: genes 15 Torsion [CB]-CG--SD-[CE] |==|  0.37677
ROOT
ATOM      1  C   PRO R   4       6.356  -0.082 -12.267  1.00 60.54 LIG 0.24  C 
ATOM      2 O    PRO R   4       5.241  -0.607 -12.279  1.00 63.53 LIG-0.27  OA
ATOM      3  N   PRO R   5       7.496  -0.777 -12.106  1.00 48.92 LIG-0.34  N 
ATOM      4  CA  PRO R   5       7.470  -2.230 -11.891  1.00 52.68 LIG 0.18  C 
ATOM      5  CB  PRO R   5       8.954  -2.590 -11.755  1.00 55.54 LIG 0.04  C 
ATOM      6  CG  PRO R   5       9.676  -1.530 -12.498  1.00 46.13 LIG 0.02  C 
ATOM      7  CD  PRO R   5       8.868  -0.275 -12.302  1.00 43.47 LIG 0.13  C 
ENDROOT
BRANCH 4 8
ATOM      8  C   PRO R   5       6.720  -2.650 -10.623  1.00 58.07 LIG 0.24  C 
ATOM      9 O    PRO R   5       5.848  -1.923 -10.142  1.00 51.36 LIG-0.27  OA
ATOM     10  N   THR R   6       7.074  -3.817 -10.092  1.00 69.24 LIG-0.34  N 
ATOM     11 H    THR R   6       7.649  -4.348 -10.449  1.00 69.24 LIG 0.16  HD
BRANCH 10 12
ATOM     12  CA  THR R   6       6.510  -4.304  -8.839  1.00 55.31 LIG 0.20  C 
BRANCH 12 13
ATOM     13  CB  THR R   6       6.861  -3.373  -7.656  1.00 60.29 LIG 0.15  C 
ATOM     14  CG2 THR R   6       7.482  -4.160  -6.513  1.00 62.01 LIG 0.04  C 
BRANCH 13 15
ATOM     15 OG1  THR R   6       7.788  -2.371  -8.092  1.00 91.48 LIG-0.39  OA
ATOM     16 HG1  THR R   6       7.366  -1.714  -8.401  1.00 91.48 LIG 0.21  HD
ENDBRANCH 13 15
ENDBRANCH 12 13
BRANCH 12 17
ATOM     17  C   THR R   6       4.997  -4.410  -8.963  1.00 56.48 LIG 0.24  C 
ATOM     18  N   LEU R   7       4.533  -4.871 -10.122  1.00 43.78 LIG-0.35  N 
ATOM     19 H    LEU R   7       5.034  -5.118 -10.775  1.00 43.78 LIG 0.16  HD
ATOM     20 O    THR R   6       4.266  -4.075  -8.028  1.00 41.48 LIG-0.27  OA
BRANCH 18 21
ATOM     21  CA  LEU R   7       3.104  -4.996 -10.376  1.00 53.52 LIG 0.16  C 
BRANCH 21 22
ATOM     22  CB  LEU R   7       2.437  -5.824  -9.276  1.00 41.32 LIG 0.04  C 
BRANCH 22 23
ATOM     23  CG  LEU R   7       1.436  -6.873  -9.771  1.00 48.65 LIG-0.02  C 
ATOM     24  CD1 LEU R   7       0.897  -7.716  -8.622  1.00 40.28 LIG 0.01  C 
ATOM     25  CD2 LEU R   7       0.293  -6.214 -10.535  1.00 37.72 LIG 0.01  C 
ENDBRANCH 22 23
ENDBRANCH 21 22
BRANCH 21 26
ATOM     26  C   LEU R   7       2.435  -3.629 -10.498  1.00 46.73 LIG 0.22  C 
ATOM     27 O    LEU R   7       2.437  -2.841  -9.551  1.00 57.50 LIG-0.29  OA
ENDBRANCH 21 26
ENDBRANCH 18 21
ENDBRANCH 12 17
ENDBRANCH 10 12
ENDBRANCH 4 8
BRANCH 1 28
ATOM     28  CA  PRO R   4       6.463   1.431 -12.451  1.00 54.23 LIG 0.18  C 
ATOM     29  N   PRO R   4       5.224   2.074 -12.004  1.00 66.40 LIG-0.34  N 
ATOM     30  CD  PRO R   4       5.367   2.602 -10.639  1.00 55.20 LIG 0.13  C 
ATOM     31  C   MET R   3       4.106   2.302 -12.715  1.00 65.13 LIG 0.26  C 
ATOM     32  CG  PRO R   4       6.808   2.997 -10.604  1.00 51.34 LIG 0.02  C 
ATOM     33  CB  PRO R   4       7.523   2.006 -11.490  1.00 43.90 LIG 0.04  C 
ATOM     34 O    MET R   3       3.093   2.796 -12.215  1.00 74.37 LIG-0.27  OA
BRANCH 31 35
ATOM     35  CA  MET R   3       4.123   1.933 -14.197  1.00 67.30 LIG 0.40  C 
ATOM     36  N   MET R   3       3.872   0.514 -14.432  1.00 55.69 LIG 0.61  N 
BRANCH 35 37
ATOM     37  CB  MET R   3       3.088   2.796 -14.927  1.00 55.44 LIG 0.06  C 
BRANCH 37 38
ATOM     38  CG  MET R   3       1.656   2.608 -14.475  1.00 49.90 LIG 0.08  C 
BRANCH 38 39
ATOM     39 SD   MET R   3       1.014   1.045 -15.103  1.00 67.63 LIG-0.17  SA
ATOM     40  CE  MET R   3       0.185   0.409 -13.648  1.00 69.90 LIG 0.09  C 
ENDBRANCH 38 39
ENDBRANCH 37 38
ENDBRANCH 35 37
ENDBRANCH 31 35
ENDBRANCH 1 28
TORSDOF 14
ENDMDL
MODEL 32
USER: ADFR SOLUTION from run 44
USER: SCORE 11.190466 LL:  -3.380 LR:  -9.515 RR:   0.000 FEB:  -5.339
USER: RMSD 10.641921
USER: SEED 43
USER: STATUS no improvement in best in 28 clusters for 5 generations
USER: GENES 16
USER: genes 0 Translation |==|  0.27400 0.30557 0.65487
USER: genes 1 Rotation |==|  0.78097 0.56255 0.09134 0.51203
USER: genes 2 Torsion [N]-CA--C-[N] |==|  0.24897
USER: genes 3 Torsion [C]-N--CA-[CB] |==|  0.48990
USER: genes 4 Torsion [N]-CA--CB-[CG2] |==|  0.61101
USER: genes 5 Torsion [CA]-CB--OG1-[HG1] |==|  0.96293
USER: genes 6 Torsion [N]-CA--C-[N] |==|  0.66009
USER: genes 7 Torsion [C]-N--CA-[CB] |==|  0.86869
USER: genes 8 Torsion [N]-CA--CB-[CG] |==|  0.82042
USER: genes 9 Torsion [CA]-CB--CG-[CD1] |==|  0.95365
USER: genes 10 Torsion [N]-CA--C-[O] |==|  0.06822
USER: genes 11 Torsion [O]-C--CA-[N] |==|  0.87215
USER: genes 12 Torsion [N]-C--CA-[N] |==|  0.37171
USER: genes 13 Torsion [C]-CA--CB-[CG] |==|  0.20408
USER: genes 14 Torsion [CA]-CB--CG-[SD] |==|  0.14201
USER: genes 15 Torsion [CB]-CG--SD-[CE] |==|  0.37993
ROOT
ATOM      1  C   PRO R   4       1.698  -3.776 -12.017  1.00 60.54 LIG 0.24  C 
ATOM      2 O    PRO R   4       2.210  -2.868 -12.675  1.00 63.53 LIG-0.27  OA
ATOM      3  N   PRO R   5       0.434  -4.197 -12.201  1.00 48.92 LIG-0.34  N 
ATOM      4  CA  PRO R   5      -0.438  -3.554 -13.194  1.00 52.68 LIG 0.18  C 
ATOM      5  CB  PRO R   5      -1.753  -4.331 -13.059  1.00 55.54 LIG 0.04  C 
ATOM      6  CG  PRO R   5      -1.361  -5.660 -12.531  1.00 46.13 LIG 0.02  C 
ATOM      7  CD  PRO R   5      -0.183  -5.407 -11.629  1.00 43.47 LIG 0.13  C 
ENDROOT
BRANCH 4 8
ATOM      8  C   PRO R   5      -0.689  -2.068 -12.919  1.00 58.07 LIG 0.24  C 
ATOM      9 O    PRO R   5      -1.650  -1.711 -12.233  1.00 51.36 LIG-0.27  OA
ATOM     10  N   THR R   6       0.176  -1.217 -13.465  1.00 69.24 LIG-0.34  N 
ATOM     11 H    THR R   6       0.873  -1.463 -13.905  1.00 69.24 LIG 0.16  HD
BRANCH 10 12
ATOM     12  CA  THR R   6       0.015   0.229 -13.363  1.00 55.31 LIG 0.20  C 
BRANCH 12 13
ATOM     13  CB  THR R   6       1.202   0.981 -14.005  1.00 60.29 LIG 0.15  C 
ATOM     14  CG2 THR R   6       1.595   2.189 -13.167  1.00 62.01 LIG 0.04  C 
BRANCH 13 15
ATOM     15 OG1  THR R   6       2.329   0.101 -14.112  1.00 91.48 LIG-0.39  OA
ATOM     16 HG1  THR R   6       2.193  -0.585 -13.648  1.00 91.48 LIG 0.21  HD
ENDBRANCH 13 15
ENDBRANCH 12 13
BRANCH 12 17
ATOM     17  C   THR R   6      -1.277   0.651 -14.048  1.00 56.48 LIG 0.24  C 
ATOM     18  N   LEU R   7      -1.157   1.541 -15.031  1.00 43.78 LIG-0.35  N 
ATOM     19 H    LEU R   7      -0.406   1.865 -15.297  1.00 43.78 LIG 0.16  HD
ATOM     20 O    THR R   6      -2.359   0.182 -13.690  1.00 41.48 LIG-0.27  OA
BRANCH 18 21
ATOM     21  CA  LEU R   7      -2.320   2.045 -15.750  1.00 53.52 LIG 0.16  C 
BRANCH 21 22
ATOM     22  CB  LEU R   7      -3.234   0.890 -16.163  1.00 41.32 LIG 0.04  C 
BRANCH 22 23
ATOM     23  CG  LEU R   7      -2.623  -0.092 -17.168  1.00 48.65 LIG-0.02  C 
ATOM     24  CD1 LEU R   7      -1.398   0.501 -17.852  1.00 40.28 LIG 0.01  C 
ATOM     25  CD2 LEU R   7      -2.275  -1.413 -16.493  1.00 37.72 LIG 0.01  C 
ENDBRANCH 22 23
ENDBRANCH 21 22
BRANCH 21 26
ATOM     26  C   LEU R   7      -3.091   3.069 -14.918  1.00 46.73 LIG 0.22  C 
ATOM     27 O    LEU R   7      -2.528   3.709 -14.029  1.00 57.50 LIG-0.29  OA
ENDBRANCH 21 26
ENDBRANCH 18 21
ENDBRANCH 12 17
ENDBRANCH 10 12
ENDBRANCH 4 8
BRANCH 1 28
ATOM     28  CA  PRO R   4       2.532  -4.472 -10.941  1.00 54.23 LIG 0.18  C 
ATOM     29  N   PRO R   4       3.859  -4.794 -11.474  1.00 66.40 LIG-0.34  N 
ATOM     30  CD  PRO R   4       4.849  -3.786 -11.065  1.00 55.20 LIG 0.13  C 
ATOM     31  C   MET R   3       4.237  -5.894 -12.147  1.00 65.13 LIG 0.26  C 
ATOM     32  CG  PRO R   4       4.345  -3.380  -9.718  1.00 51.34 LIG 0.02  C 
ATOM     33  CB  PRO R   4       2.842  -3.488  -9.796  1.00 43.90 LIG 0.04  C 
ATOM     34 O    MET R   3       5.373  -6.032 -12.607  1.00 74.37 LIG-0.27  OA
BRANCH 31 35
ATOM     35  CA  MET R   3       3.202  -7.003 -12.327  1.00 67.30 LIG 0.40  C 
ATOM     36  N   MET R   3       3.149  -7.515 -13.694  1.00 55.69 LIG 0.61  N 
BRANCH 35 37
ATOM     37  CB  MET R   3       3.517  -8.131 -11.337  1.00 55.44 LIG 0.06  C 
BRANCH 37 38
ATOM     38  CG  MET R   3       3.187  -7.832  -9.891  1.00 49.90 LIG 0.08  C 
BRANCH 38 39
ATOM     39 SD   MET R   3       1.490  -7.239  -9.758  1.00 67.63 LIG-0.17  SA
ATOM     40  CE  MET R   3       0.925  -8.143  -8.318  1.00 69.90 LIG 0.09  C 
ENDBRANCH 38 39
ENDBRANCH 37 38
ENDBRANCH 35 37
ENDBRANCH 31 35
ENDBRANCH 1 28
TORSDOF 14
ENDMDL
MODEL 33
USER: ADFR SOLUTION from run 90
USER: SCORE 12.097843 LL:  -3.043 LR:  -9.506 RR:   0.000 FEB:  -5.330
USER: RMSD 4.955539
USER: SEED 89
USER: STATUS no improvement in best in 34 clusters for 5 generations
USER: GENES 16
USER: genes 0 Translation |==|  0.51547 0.50644 0.62023
USER: genes 1 Rotation |==|  0.32581 0.72750 0.24808 0.82316
USER: genes 2 Torsion [N]-CA--C-[N] |==|  0.25492
USER: genes 3 Torsion [C]-N--CA-[CB] |==|  0.56975
USER: genes 4 Torsion [N]-CA--CB-[CG2] |==|  0.45140
USER: genes 5 Torsion [CA]-CB--OG1-[HG1] |==|  0.14794
USER: genes 6 Torsion [N]-CA--C-[N] |==|  0.29447
USER: genes 7 Torsion [C]-N--CA-[CB] |==|  0.33507
USER: genes 8 Torsion [N]-CA--CB-[CG] |==|  0.72355
USER: genes 9 Torsion [CA]-CB--CG-[CD1] |==|  0.04256
USER: genes 10 Torsion [N]-CA--C-[O] |==|  0.07885
USER: genes 11 Torsion [O]-C--CA-[N] |==|  0.04669
USER: genes 12 Torsion [N]-C--CA-[N] |==|  0.38085
USER: genes 13 Torsion [C]-CA--CB-[CG] |==|  0.19226
USER: genes 14 Torsion [CA]-CB--CG-[SD] |==|  0.69811
USER: genes 15 Torsion [CB]-CG--SD-[CE] |==|  0.40944
ROOT
ATOM      1  C   PRO R   4       6.044   0.291 -12.718  1.00 60.54 LIG 0.24  C 
ATOM      2 O    PRO R   4       5.016  -0.364 -12.539  1.00 63.53 LIG-0.27  OA
ATOM      3  N   PRO R   5       7.278  -0.239 -12.643  1.00 48.92 LIG-0.34  N 
ATOM      4  CA  PRO R   5       7.472  -1.653 -12.297  1.00 52.68 LIG 0.18  C 
ATOM      5  CB  PRO R   5       8.996  -1.813 -12.322  1.00 55.54 LIG 0.04  C 
ATOM      6  CG  PRO R   5       9.479  -0.757 -13.243  1.00 46.13 LIG 0.02  C 
ATOM      7  CD  PRO R   5       8.539   0.404 -13.059  1.00 43.47 LIG 0.13  C 
ENDROOT
BRANCH 4 8
ATOM      8  C   PRO R   5       6.938  -2.025 -10.911  1.00 58.07 LIG 0.24  C 
ATOM      9 O    PRO R   5       7.655  -1.918  -9.913  1.00 51.36 LIG-0.27  OA
ATOM     10  N   THR R   6       5.683  -2.464 -10.865  1.00 69.24 LIG-0.34  N 
ATOM     11 H    THR R   6       5.164  -2.496 -11.550  1.00 69.24 LIG 0.16  HD
BRANCH 10 12
ATOM     12  CA  THR R   6       5.069  -2.936  -9.629  1.00 55.31 LIG 0.20  C 
BRANCH 12 13
ATOM     13  CB  THR R   6       3.918  -3.928  -9.907  1.00 60.29 LIG 0.15  C 
ATOM     14  CG2 THR R   6       3.578  -4.728  -8.659  1.00 62.01 LIG 0.04  C 
BRANCH 13 15
ATOM     15 OG1  THR R   6       2.753  -3.208 -10.332  1.00 91.48 LIG-0.39  OA
ATOM     16 HG1  THR R   6       2.952  -2.710 -10.977  1.00 91.48 LIG 0.21  HD
ENDBRANCH 13 15
ENDBRANCH 12 13
BRANCH 12 17
ATOM     17  C   THR R   6       6.118  -3.615  -8.761  1.00 56.48 LIG 0.24  C 
ATOM     18  N   LEU R   7       6.531  -2.934  -7.695  1.00 43.78 LIG-0.35  N 
ATOM     19 H    LEU R   7       6.230  -2.159  -7.475  1.00 43.78 LIG 0.16  HD
ATOM     20 O    THR R   6       6.547  -4.734  -9.055  1.00 41.48 LIG-0.27  OA
BRANCH 18 21
ATOM     21  CA  LEU R   7       7.551  -3.462  -6.799  1.00 53.52 LIG 0.16  C 
BRANCH 21 22
ATOM     22  CB  LEU R   7       8.754  -2.518  -6.743  1.00 41.32 LIG 0.04  C 
BRANCH 22 23
ATOM     23  CG  LEU R   7       9.941  -2.929  -7.619  1.00 48.65 LIG-0.02  C 
ATOM     24  CD1 LEU R   7       9.540  -3.984  -8.643  1.00 40.28 LIG 0.01  C 
ATOM     25  CD2 LEU R   7      10.551  -1.715  -8.310  1.00 37.72 LIG 0.01  C 
ENDBRANCH 22 23
ENDBRANCH 21 22
BRANCH 21 26
ATOM     26  C   LEU R   7       6.993  -3.704  -5.398  1.00 46.73 LIG 0.22  C 
ATOM     27 O    LEU R   7       5.801  -3.967  -5.232  1.00 57.50 LIG-0.29  OA
ENDBRANCH 21 26
ENDBRANCH 18 21
ENDBRANCH 12 17
ENDBRANCH 10 12
ENDBRANCH 4 8
BRANCH 1 28
ATOM     28  CA  PRO R   4       5.926   1.779 -13.049  1.00 54.23 LIG 0.18  C 
ATOM     29  N   PRO R   4       4.584   2.257 -12.706  1.00 66.40 LIG-0.34  N 
ATOM     30  CD  PRO R   4       4.582   2.928 -11.398  1.00 55.20 LIG 0.13  C 
ATOM     31  C   MET R   3       3.477   2.239 -13.470  1.00 65.13 LIG 0.26  C 
ATOM     32  CG  PRO R   4       5.941   3.546 -11.360  1.00 51.34 LIG 0.02  C 
ATOM     33  CB  PRO R   4       6.840   2.601 -12.119  1.00 43.90 LIG 0.04  C 
ATOM     34 O    MET R   3       2.378   2.612 -13.053  1.00 74.37 LIG-0.27  OA
BRANCH 31 35
ATOM     35  CA  MET R   3       3.618   1.739 -14.907  1.00 67.30 LIG 0.40  C 
ATOM     36  N   MET R   3       2.529   0.853 -15.309  1.00 55.69 LIG 0.61  N 
BRANCH 35 37
ATOM     37  CB  MET R   3       3.703   2.953 -15.840  1.00 55.44 LIG 0.06  C 
BRANCH 37 38
ATOM     38  CG  MET R   3       4.974   3.766 -15.727  1.00 49.90 LIG 0.08  C 
BRANCH 38 39
ATOM     39 SD   MET R   3       4.623   5.349 -14.939  1.00 67.63 LIG-0.17  SA
ATOM     40  CE  MET R   3       6.156   5.639 -14.059  1.00 69.90 LIG 0.09  C 
ENDBRANCH 38 39
ENDBRANCH 37 38
ENDBRANCH 35 37
ENDBRANCH 31 35
ENDBRANCH 1 28
TORSDOF 14
ENDMDL
MODEL 34
USER: ADFR SOLUTION from run 148
USER: SCORE 11.333447 LL:  -3.111 LR:  -9.502 RR:   0.000 FEB:  -5.326
USER: RMSD 8.965238
USER: SEED 147
USER: STATUS no improvement in best in 18 clusters for 5 generations
USER: GENES 16
USER: genes 0 Translation |==|  0.27146 0.32248 0.57629
USER: genes 1 Rotation |==|  0.94376 0.64870 0.65569 0.58200
USER: genes 2 Torsion [N]-CA--C-[N] |==|  0.23663
USER: genes 3 Torsion [C]-N--CA-[CB] |==|  0.41114
USER: genes 4 Torsion [N]-CA--CB-[CG2] |==|  0.93031
USER: genes 5 Torsion [CA]-CB--OG1-[HG1] |==|  0.52715
USER: genes 6 Torsion [N]-CA--C-[N] |==|  0.94663
USER: genes 7 Torsion [C]-N--CA-[CB] |==|  0.47112
USER: genes 8 Torsion [N]-CA--CB-[CG] |==|  0.27464
USER: genes 9 Torsion [CA]-CB--CG-[CD1] |==|  0.39848
USER: genes 10 Torsion [N]-CA--C-[O] |==|  0.45883
USER: genes 11 Torsion [O]-C--CA-[N] |==|  0.88155
USER: genes 12 Torsion [N]-C--CA-[N] |==|  0.88010
USER: genes 13 Torsion [C]-CA--CB-[CG] |==|  0.08341
USER: genes 14 Torsion [CA]-CB--CG-[SD] |==|  0.44128
USER: genes 15 Torsion [CB]-CG--SD-[CE] |==|  0.77617
ROOT
ATOM      1  C   PRO R   4       1.652  -3.434 -13.608  1.00 60.54 LIG 0.24  C 
ATOM      2 O    PRO R   4       1.104  -2.501 -13.018  1.00 63.53 LIG-0.27  OA
ATOM      3  N   PRO R   5       2.888  -3.350 -14.132  1.00 48.92 LIG-0.34  N 
ATOM      4  CA  PRO R   5       3.654  -2.098 -14.061  1.00 52.68 LIG 0.18  C 
ATOM      5  CB  PRO R   5       4.966  -2.451 -14.771  1.00 55.54 LIG 0.04  C 
ATOM      6  CG  PRO R   5       5.104  -3.919 -14.616  1.00 46.13 LIG 0.02  C 
ATOM      7  CD  PRO R   5       3.703  -4.465 -14.648  1.00 43.47 LIG 0.13  C 
ENDROOT
BRANCH 4 8
ATOM      8  C   PRO R   5       2.980  -0.925 -14.778  1.00 58.07 LIG 0.24  C 
ATOM      9 O    PRO R   5       3.281  -0.645 -15.941  1.00 51.36 LIG-0.27  OA
ATOM     10  N   THR R   6       2.080  -0.246 -14.072  1.00 69.24 LIG-0.34  N 
ATOM     11 H    THR R   6       1.834  -0.464 -13.278  1.00 69.24 LIG 0.16  HD
BRANCH 10 12
ATOM     12  CA  THR R   6       1.422   0.948 -14.593  1.00 55.31 LIG 0.20  C 
BRANCH 12 13
ATOM     13  CB  THR R   6      -0.018   1.088 -14.050  1.00 60.29 LIG 0.15  C 
ATOM     14  CG2 THR R   6      -0.581  -0.268 -13.653  1.00 62.01 LIG 0.04  C 
BRANCH 13 15
ATOM     15 OG1  THR R   6      -0.018   1.948 -12.903  1.00 91.48 LIG-0.39  OA
ATOM     16 HG1  THR R   6      -0.770   1.917 -12.531  1.00 91.48 LIG 0.21  HD
ENDBRANCH 13 15
ENDBRANCH 12 13
BRANCH 12 17
ATOM     17  C   THR R   6       2.224   2.183 -14.214  1.00 56.48 LIG 0.24  C 
ATOM     18  N   LEU R   7       3.082   2.041 -13.206  1.00 43.78 LIG-0.35  N 
ATOM     19 H    LEU R   7       3.208   1.303 -12.784  1.00 43.78 LIG 0.16  HD
ATOM     20 O    THR R   6       2.066   3.245 -14.821  1.00 41.48 LIG-0.27  OA
BRANCH 18 21
ATOM     21  CA  LEU R   7       3.891   3.155 -12.729  1.00 53.52 LIG 0.16  C 
BRANCH 21 22
ATOM     22  CB  LEU R   7       4.585   2.786 -11.416  1.00 41.32 LIG 0.04  C 
BRANCH 22 23
ATOM     23  CG  LEU R   7       6.045   2.343 -11.557  1.00 48.65 LIG-0.02  C 
ATOM     24  CD1 LEU R   7       6.891   2.833 -10.389  1.00 40.28 LIG 0.01  C 
ATOM     25  CD2 LEU R   7       6.141   0.828 -11.692  1.00 37.72 LIG 0.01  C 
ENDBRANCH 22 23
ENDBRANCH 21 22
BRANCH 21 26
ATOM     26  C   LEU R   7       4.916   3.590 -13.774  1.00 46.73 LIG 0.22  C 
ATOM     27 O    LEU R   7       5.499   4.670 -13.672  1.00 57.50 LIG-0.29  OA
ENDBRANCH 21 26
ENDBRANCH 18 21
ENDBRANCH 12 17
ENDBRANCH 10 12
ENDBRANCH 4 8
BRANCH 1 28
ATOM     28  CA  PRO R   4       0.905  -4.759 -13.753  1.00 54.23 LIG 0.18  C 
ATOM     29  N   PRO R   4       0.239  -5.093 -12.491  1.00 66.40 LIG-0.34  N 
ATOM     30  CD  PRO R   4      -1.181  -4.713 -12.528  1.00 55.20 LIG 0.13  C 
ATOM     31  C   MET R   3       0.743  -5.761 -11.439  1.00 65.13 LIG 0.26  C 
ATOM     32  CG  PRO R   4      -1.525  -4.925 -13.967  1.00 51.34 LIG 0.02  C 
ATOM     33  CB  PRO R   4      -0.270  -4.597 -14.738  1.00 43.90 LIG 0.04  C 
ATOM     34 O    MET R   3       0.109  -5.930 -10.395  1.00 74.37 LIG-0.27  OA
BRANCH 31 35
ATOM     35  CA  MET R   3       2.155  -6.328 -11.573  1.00 67.30 LIG 0.40  C 
ATOM     36  N   MET R   3       2.391  -6.964 -12.867  1.00 55.69 LIG 0.61  N 
BRANCH 35 37
ATOM     37  CB  MET R   3       3.161  -5.196 -11.333  1.00 55.44 LIG 0.06  C 
BRANCH 37 38
ATOM     38  CG  MET R   3       2.696  -4.108 -10.391  1.00 49.90 LIG 0.08  C 
BRANCH 38 39
ATOM     39 SD   MET R   3       4.118  -3.221  -9.727  1.00 67.63 LIG-0.17  SA
ATOM     40  CE  MET R   3       4.640  -4.339  -8.427  1.00 69.90 LIG 0.09  C 
ENDBRANCH 38 39
ENDBRANCH 37 38
ENDBRANCH 35 37
ENDBRANCH 31 35
ENDBRANCH 1 28
TORSDOF 14
ENDMDL
MODEL 35
USER: ADFR SOLUTION from run 98
USER: SCORE 12.212728 LL:  -2.750 LR:  -9.499 RR:   0.000 FEB:  -5.323
USER: RMSD 10.485817
USER: SEED 97
USER: STATUS no improvement in best in 22 clusters for 5 generations
USER: GENES 16
USER: genes 0 Translation |==|  0.51460 0.29445 0.81655
USER: genes 1 Rotation |==|  0.73826 0.89934 0.36641 0.62614
USER: genes 2 Torsion [N]-CA--C-[N] |==|  0.69317
USER: genes 3 Torsion [C]-N--CA-[CB] |==|  0.85526
USER: genes 4 Torsion [N]-CA--CB-[CG2] |==|  0.41851
USER: genes 5 Torsion [CA]-CB--OG1-[HG1] |==|  0.83621
USER: genes 6 Torsion [N]-CA--C-[N] |==|  0.37222
USER: genes 7 Torsion [C]-N--CA-[CB] |==|  0.15777
USER: genes 8 Torsion [N]-CA--CB-[CG] |==|  0.65628
USER: genes 9 Torsion [CA]-CB--CG-[CD1] |==|  0.29271
USER: genes 10 Torsion [N]-CA--C-[O] |==|  0.23314
USER: genes 11 Torsion [O]-C--CA-[N] |==|  0.82003
USER: genes 12 Torsion [N]-C--CA-[N] |==|  0.41153
USER: genes 13 Torsion [C]-CA--CB-[CG] |==|  0.04680
USER: genes 14 Torsion [CA]-CB--CG-[SD] |==|  0.29725
USER: genes 15 Torsion [CB]-CG--SD-[CE] |==|  0.53552
ROOT
ATOM      1  C   PRO R   4       6.029  -4.001  -8.743  1.00 60.54 LIG 0.24  C 
ATOM      2 O    PRO R   4       5.081  -3.351  -8.298  1.00 63.53 LIG-0.27  OA
ATOM      3  N   PRO R   5       6.147  -4.338 -10.039  1.00 48.92 LIG-0.34  N 
ATOM      4  CA  PRO R   5       5.108  -3.973 -11.012  1.00 52.68 LIG 0.18  C 
ATOM      5  CB  PRO R   5       5.643  -4.550 -12.328  1.00 55.54 LIG 0.04  C 
ATOM      6  CG  PRO R   5       7.114  -4.608 -12.152  1.00 46.13 LIG 0.02  C 
ATOM      7  CD  PRO R   5       7.338  -4.909 -10.695  1.00 43.47 LIG 0.13  C 
ENDROOT
BRANCH 4 8
ATOM      8  C   PRO R   5       3.737  -4.582 -10.702  1.00 58.07 LIG 0.24  C 
ATOM      9 O    PRO R   5       3.089  -4.202  -9.724  1.00 51.36 LIG-0.27  OA
ATOM     10  N   THR R   6       3.314  -5.527 -11.537  1.00 69.24 LIG-0.34  N 
ATOM     11 H    THR R   6       3.741  -5.763 -12.246  1.00 69.24 LIG 0.16  HD
BRANCH 10 12
ATOM     12  CA  THR R   6       2.070  -6.257 -11.319  1.00 55.31 LIG 0.20  C 
BRANCH 12 13
ATOM     13  CB  THR R   6       2.005  -6.860  -9.898  1.00 60.29 LIG 0.15  C 
ATOM     14  CG2 THR R   6       0.565  -6.964  -9.419  1.00 62.01 LIG 0.04  C 
BRANCH 13 15
ATOM     15 OG1  THR R   6       2.591  -8.168  -9.903  1.00 91.48 LIG-0.39  OA
ATOM     16 HG1  THR R   6       2.178  -8.658 -10.445  1.00 91.48 LIG 0.21  HD
ENDBRANCH 13 15
ENDBRANCH 12 13
BRANCH 12 17
ATOM     17  C   THR R   6       0.885  -5.325 -11.524  1.00 56.48 LIG 0.24  C 
ATOM     18  N   LEU R   7      -0.115  -5.798 -12.264  1.00 43.78 LIG-0.35  N 
ATOM     19 H    LEU R   7      -0.127  -6.587 -12.607  1.00 43.78 LIG 0.16  HD
ATOM     20 O    THR R   6       0.880  -4.197 -11.024  1.00 41.48 LIG-0.27  OA
BRANCH 18 21
ATOM     21  CA  LEU R   7      -1.296  -4.996 -12.555  1.00 53.52 LIG 0.16  C 
BRANCH 21 22
ATOM     22  CB  LEU R   7      -0.895  -3.685 -13.235  1.00 41.32 LIG 0.04  C 
BRANCH 22 23
ATOM     23  CG  LEU R   7      -1.376  -2.414 -12.528  1.00 48.65 LIG-0.02  C 
ATOM     24  CD1 LEU R   7      -0.234  -1.714 -11.802  1.00 40.28 LIG 0.01  C 
ATOM     25  CD2 LEU R   7      -2.047  -1.466 -13.514  1.00 37.72 LIG 0.01  C 
ENDBRANCH 22 23
ENDBRANCH 21 22
BRANCH 21 26
ATOM     26  C   LEU R   7      -2.296  -5.764 -13.417  1.00 46.73 LIG 0.22  C 
ATOM     27 O    LEU R   7      -3.105  -6.538 -12.903  1.00 57.50 LIG-0.29  OA
ENDBRANCH 21 26
ENDBRANCH 18 21
ENDBRANCH 12 17
ENDBRANCH 10 12
ENDBRANCH 4 8
BRANCH 1 28
ATOM     28  CA  PRO R   4       7.134  -4.447  -7.786  1.00 54.23 LIG 0.18  C 
ATOM     29  N   PRO R   4       7.832  -3.274  -7.254  1.00 66.40 LIG-0.34  N 
ATOM     30  CD  PRO R   4       7.329  -2.922  -5.918  1.00 55.20 LIG 0.13  C 
ATOM     31  C   MET R   3       8.880  -2.621  -7.787  1.00 65.13 LIG 0.26  C 
ATOM     32  CG  PRO R   4       6.975  -4.259  -5.353  1.00 51.34 LIG 0.02  C 
ATOM     33  CB  PRO R   4       6.516  -5.088  -6.528  1.00 43.90 LIG 0.04  C 
ATOM     34 O    MET R   3       9.350  -1.599  -7.281  1.00 74.37 LIG-0.27  OA
BRANCH 31 35
ATOM     35  CA  MET R   3       9.495  -3.193  -9.062  1.00 67.30 LIG 0.40  C 
ATOM     36  N   MET R   3      10.044  -2.163  -9.940  1.00 55.69 LIG 0.61  N 
BRANCH 35 37
ATOM     37  CB  MET R   3      10.578  -4.206  -8.670  1.00 55.44 LIG 0.06  C 
BRANCH 37 38
ATOM     38  CG  MET R   3      10.517  -4.695  -7.240  1.00 49.90 LIG 0.08  C 
BRANCH 38 39
ATOM     39 SD   MET R   3       9.918  -6.394  -7.196  1.00 67.63 LIG-0.17  SA
ATOM     40  CE  MET R   3       9.573  -6.589  -5.449  1.00 69.90 LIG 0.09  C 
ENDBRANCH 38 39
ENDBRANCH 37 38
ENDBRANCH 35 37
ENDBRANCH 31 35
ENDBRANCH 1 28
TORSDOF 14
ENDMDL
MODEL 36
USER: ADFR SOLUTION from run 157
USER: SCORE 12.143315 LL:  -3.078 LR:  -9.492 RR:   0.000 FEB:  -5.316
USER: RMSD 9.634627
USER: SEED 156
USER: STATUS no improvement in best in 13 clusters for 5 generations
USER: GENES 16
USER: genes 0 Translation |==|  0.39485 0.24407 0.77498
USER: genes 1 Rotation |==|  0.85972 0.50644 0.82083 0.63277
USER: genes 2 Torsion [N]-CA--C-[N] |==|  0.79638
USER: genes 3 Torsion [C]-N--CA-[CB] |==|  0.51119
USER: genes 4 Torsion [N]-CA--CB-[CG2] |==|  0.22635
USER: genes 5 Torsion [CA]-CB--OG1-[HG1] |==|  0.07912
USER: genes 6 Torsion [N]-CA--C-[N] |==|  0.45351
USER: genes 7 Torsion [C]-N--CA-[CB] |==|  0.47985
USER: genes 8 Torsion [N]-CA--CB-[CG] |==|  0.66866
USER: genes 9 Torsion [CA]-CB--CG-[CD1] |==|  0.85120
USER: genes 10 Torsion [N]-CA--C-[O] |==|  0.24214
USER: genes 11 Torsion [O]-C--CA-[N] |==|  0.85670
USER: genes 12 Torsion [N]-C--CA-[N] |==|  0.47638
USER: genes 13 Torsion [C]-CA--CB-[CG] |==|  0.43048
USER: genes 14 Torsion [CA]-CB--CG-[SD] |==|  0.63013
USER: genes 15 Torsion [CB]-CG--SD-[CE] |==|  0.45758
ROOT
ATOM      1  C   PRO R   4       3.873  -5.021  -9.585  1.00 60.54 LIG 0.24  C 
ATOM      2 O    PRO R   4       3.343  -3.934  -9.351  1.00 63.53 LIG-0.27  OA
ATOM      3  N   PRO R   5       5.015  -5.425  -9.000  1.00 48.92 LIG-0.34  N 
ATOM      4  CA  PRO R   5       5.729  -4.554  -8.057  1.00 52.68 LIG 0.18  C 
ATOM      5  CB  PRO R   5       6.945  -5.396  -7.655  1.00 55.54 LIG 0.04  C 
ATOM      6  CG  PRO R   5       6.523  -6.802  -7.860  1.00 46.13 LIG 0.02  C 
ATOM      7  CD  PRO R   5       5.595  -6.780  -9.044  1.00 43.47 LIG 0.13  C 
ENDROOT
BRANCH 4 8
ATOM      8  C   PRO R   5       6.199  -3.235  -8.677  1.00 58.07 LIG 0.24  C 
ATOM      9 O    PRO R   5       5.628  -2.175  -8.404  1.00 51.36 LIG-0.27  OA
ATOM     10  N   THR R   6       7.233  -3.314  -9.510  1.00 69.24 LIG-0.34  N 
ATOM     11 H    THR R   6       7.663  -4.042  -9.667  1.00 69.24 LIG 0.16  HD
BRANCH 10 12
ATOM     12  CA  THR R   6       7.734  -2.155 -10.241  1.00 55.31 LIG 0.20  C 
BRANCH 12 13
ATOM     13  CB  THR R   6       8.872  -2.542 -11.211  1.00 60.29 LIG 0.15  C 
ATOM     14  CG2 THR R   6       8.312  -3.111 -12.506  1.00 62.01 LIG 0.04  C 
BRANCH 13 15
ATOM     15 OG1  THR R   6       9.662  -1.384 -11.513  1.00 91.48 LIG-0.39  OA
ATOM     16 HG1  THR R   6       9.633  -0.849 -10.867  1.00 91.48 LIG 0.21  HD
ENDBRANCH 13 15
ENDBRANCH 12 13
BRANCH 12 17
ATOM     17  C   THR R   6       6.600  -1.515 -11.028  1.00 56.48 LIG 0.24  C 
ATOM     18  N   LEU R   7       6.811  -0.274 -11.460  1.00 43.78 LIG-0.35  N 
ATOM     19 H    LEU R   7       7.541   0.162 -11.331  1.00 43.78 LIG 0.16  HD
ATOM     20 O    THR R   6       5.553  -2.133 -11.235  1.00 41.48 LIG-0.27  OA
BRANCH 18 21
ATOM     21  CA  LEU R   7       5.794   0.459 -12.203  1.00 53.52 LIG 0.16  C 
BRANCH 21 22
ATOM     22  CB  LEU R   7       6.232   1.910 -12.415  1.00 41.32 LIG 0.04  C 
BRANCH 22 23
ATOM     23  CG  LEU R   7       5.305   2.963 -11.799  1.00 48.65 LIG-0.02  C 
ATOM     24  CD1 LEU R   7       3.864   2.774 -12.258  1.00 40.28 LIG 0.01  C 
ATOM     25  CD2 LEU R   7       5.392   2.939 -10.278  1.00 37.72 LIG 0.01  C 
ENDBRANCH 22 23
ENDBRANCH 21 22
BRANCH 21 26
ATOM     26  C   LEU R   7       5.488  -0.210 -13.541  1.00 46.73 LIG 0.22  C 
ATOM     27 O    LEU R   7       4.641  -1.102 -13.619  1.00 57.50 LIG-0.29  OA
ENDBRANCH 21 26
ENDBRANCH 18 21
ENDBRANCH 12 17
ENDBRANCH 10 12
ENDBRANCH 4 8
BRANCH 1 28
ATOM     28  CA  PRO R   4       3.208  -5.970 -10.581  1.00 54.23 LIG 0.18  C 
ATOM     29  N   PRO R   4       1.799  -6.156 -10.223  1.00 66.40 LIG-0.34  N 
ATOM     30  CD  PRO R   4       0.930  -5.290 -11.034  1.00 55.20 LIG 0.13  C 
ATOM     31  C   MET R   3       1.271  -7.055  -9.372  1.00 65.13 LIG 0.26  C 
ATOM     32  CG  PRO R   4       1.668  -5.232 -12.331  1.00 51.34 LIG 0.02  C 
ATOM     33  CB  PRO R   4       3.132  -5.308 -11.971  1.00 43.90 LIG 0.04  C 
ATOM     34 O    MET R   3       0.070  -7.079  -9.096  1.00 74.37 LIG-0.27  OA
BRANCH 31 35
ATOM     35  CA  MET R   3       2.219  -8.076  -8.747  1.00 67.30 LIG 0.40  C 
ATOM     36  N   MET R   3       1.585  -8.871  -7.697  1.00 55.69 LIG 0.61  N 
BRANCH 35 37
ATOM     37  CB  MET R   3       2.765  -8.981  -9.858  1.00 55.44 LIG 0.06  C 
BRANCH 37 38
ATOM     38  CG  MET R   3       4.101  -9.628  -9.567  1.00 49.90 LIG 0.08  C 
BRANCH 38 39
ATOM     39 SD   MET R   3       5.195  -9.444 -10.987  1.00 67.63 LIG-0.17  SA
ATOM     40  CE  MET R   3       6.779  -9.842 -10.251  1.00 69.90 LIG 0.09  C 
ENDBRANCH 38 39
ENDBRANCH 37 38
ENDBRANCH 35 37
ENDBRANCH 31 35
ENDBRANCH 1 28
TORSDOF 14
ENDMDL
MODEL 37
USER: ADFR SOLUTION from run 155
USER: SCORE 11.399818 LL:  -2.586 LR:  -9.464 RR:   0.000 FEB:  -5.288
USER: RMSD 4.905857
USER: SEED 154
USER: STATUS no improvement in best in 22 clusters for 5 generations
USER: GENES 16
USER: genes 0 Translation |==|  0.52622 0.50047 0.64749
USER: genes 1 Rotation |==|  0.36758 0.70495 0.23420 0.84614
USER: genes 2 Torsion [N]-CA--C-[N] |==|  0.48164
USER: genes 3 Torsion [C]-N--CA-[CB] |==|  0.87695
USER: genes 4 Torsion [N]-CA--CB-[CG2] |==|  0.59063
USER: genes 5 Torsion [CA]-CB--OG1-[HG1] |==|  0.35439
USER: genes 6 Torsion [N]-CA--C-[N] |==|  0.30003
USER: genes 7 Torsion [C]-N--CA-[CB] |==|  0.21561
USER: genes 8 Torsion [N]-CA--CB-[CG] |==|  0.55792
USER: genes 9 Torsion [CA]-CB--CG-[CD1] |==|  0.33899
USER: genes 10 Torsion [N]-CA--C-[O] |==|  0.45578
USER: genes 11 Torsion [O]-C--CA-[N] |==|  0.05510
USER: genes 12 Torsion [N]-C--CA-[N] |==|  0.35186
USER: genes 13 Torsion [C]-CA--CB-[CG] |==|  0.04565
USER: genes 14 Torsion [CA]-CB--CG-[SD] |==|  0.20778
USER: genes 15 Torsion [CB]-CG--SD-[CE] |==|  0.08839
ROOT
ATOM      1  C   PRO R   4       6.238   0.170 -12.166  1.00 60.54 LIG 0.24  C 
ATOM      2 O    PRO R   4       5.177  -0.453 -12.246  1.00 63.53 LIG-0.27  OA
ATOM      3  N   PRO R   5       7.416  -0.414 -11.883  1.00 48.92 LIG-0.34  N 
ATOM      4  CA  PRO R   5       7.497  -1.855 -11.608  1.00 52.68 LIG 0.18  C 
ATOM      5  CB  PRO R   5       8.990  -2.075 -11.337  1.00 55.54 LIG 0.04  C 
ATOM      6  CG  PRO R   5       9.677  -0.981 -12.063  1.00 46.13 LIG 0.02  C 
ATOM      7  CD  PRO R   5       8.751   0.202 -11.989  1.00 43.47 LIG 0.13  C 
ENDROOT
BRANCH 4 8
ATOM      8  C   PRO R   5       6.682  -2.293 -10.389  1.00 58.07 LIG 0.24  C 
ATOM      9 O    PRO R   5       6.141  -1.456  -9.662  1.00 51.36 LIG-0.27  OA
ATOM     10  N   THR R   6       6.608  -3.604 -10.174  1.00 69.24 LIG-0.34  N 
ATOM     11 H    THR R   6       6.944  -4.193 -10.703  1.00 69.24 LIG 0.16  HD
BRANCH 10 12
ATOM     12  CA  THR R   6       5.941  -4.164  -9.003  1.00 55.31 LIG 0.20  C 
BRANCH 12 13
ATOM     13  CB  THR R   6       6.315  -3.400  -7.714  1.00 60.29 LIG 0.15  C 
ATOM     14  CG2 THR R   6       6.334  -4.335  -6.515  1.00 62.01 LIG 0.04  C 
BRANCH 13 15
ATOM     15 OG1  THR R   6       7.612  -2.807  -7.865  1.00 91.48 LIG-0.39  OA
ATOM     16 HG1  THR R   6       7.569  -1.989  -7.680  1.00 91.48 LIG 0.21  HD
ENDBRANCH 13 15
ENDBRANCH 12 13
BRANCH 12 17
ATOM     17  C   THR R   6       4.433  -4.112  -9.198  1.00 56.48 LIG 0.24  C 
ATOM     18  N   LEU R   7       3.828  -5.277  -9.420  1.00 43.78 LIG-0.35  N 
ATOM     19 H    LEU R   7       4.236  -6.034  -9.442  1.00 43.78 LIG 0.16  HD
ATOM     20 O    THR R   6       3.831  -3.037  -9.153  1.00 41.48 LIG-0.27  OA
BRANCH 18 21
ATOM     21  CA  LEU R   7       2.391  -5.360  -9.647  1.00 53.52 LIG 0.16  C 
BRANCH 21 22
ATOM     22  CB  LEU R   7       2.052  -4.932 -11.076  1.00 41.32 LIG 0.04  C 
BRANCH 22 23
ATOM     23  CG  LEU R   7       0.599  -4.498 -11.295  1.00 48.65 LIG-0.02  C 
ATOM     24  CD1 LEU R   7       0.518  -3.074 -11.832  1.00 40.28 LIG 0.01  C 
ATOM     25  CD2 LEU R   7      -0.122  -5.464 -12.227  1.00 37.72 LIG 0.01  C 
ENDBRANCH 22 23
ENDBRANCH 21 22
BRANCH 21 26
ATOM     26  C   LEU R   7       1.861  -6.765  -9.367  1.00 46.73 LIG 0.22  C 
ATOM     27 O    LEU R   7       0.654  -6.964  -9.219  1.00 57.50 LIG-0.29  OA
ENDBRANCH 21 26
ENDBRANCH 18 21
ENDBRANCH 12 17
ENDBRANCH 10 12
ENDBRANCH 4 8
BRANCH 1 28
ATOM     28  CA  PRO R   4       6.229   1.680 -12.406  1.00 54.23 LIG 0.18  C 
ATOM     29  N   PRO R   4       4.870   2.201 -12.235  1.00 66.40 LIG-0.34  N 
ATOM     30  CD  PRO R   4       4.694   2.786 -10.898  1.00 55.20 LIG 0.13  C 
ATOM     31  C   MET R   3       3.893   2.285 -13.156  1.00 65.13 LIG 0.26  C 
ATOM     32  CG  PRO R   4       6.055   3.333 -10.613  1.00 51.34 LIG 0.02  C 
ATOM     33  CB  PRO R   4       7.021   2.395 -11.294  1.00 43.90 LIG 0.04  C 
ATOM     34 O    MET R   3       2.759   2.685 -12.883  1.00 74.37 LIG-0.27  OA
BRANCH 31 35
ATOM     35  CA  MET R   3       4.233   1.872 -14.586  1.00 67.30 LIG 0.40  C 
ATOM     36  N   MET R   3       3.310   0.875 -15.123  1.00 55.69 LIG 0.61  N 
BRANCH 35 37
ATOM     37  CB  MET R   3       4.249   3.127 -15.467  1.00 55.44 LIG 0.06  C 
BRANCH 37 38
ATOM     38  CG  MET R   3       4.329   4.440 -14.719  1.00 49.90 LIG 0.08  C 
BRANCH 38 39
ATOM     39 SD   MET R   3       6.000   4.688 -14.092  1.00 67.63 LIG-0.17  SA
ATOM     40  CE  MET R   3       6.965   3.864 -15.357  1.00 69.90 LIG 0.09  C 
ENDBRANCH 38 39
ENDBRANCH 37 38
ENDBRANCH 35 37
ENDBRANCH 31 35
ENDBRANCH 1 28
TORSDOF 14
ENDMDL
MODEL 38
USER: ADFR SOLUTION from run 58
USER: SCORE 11.716971 LL:  -3.961 LR:  -9.460 RR:   0.000 FEB:  -5.284
USER: RMSD 7.810382
USER: SEED 57
USER: STATUS no improvement in best in 19 clusters for 5 generations
USER: GENES 16
USER: genes 0 Translation |==|  0.27000 0.29524 0.68425
USER: genes 1 Rotation |==|  0.82965 0.33118 0.83058 0.55955
USER: genes 2 Torsion [N]-CA--C-[N] |==|  0.67905
USER: genes 3 Torsion [C]-N--CA-[CB] |==|  0.43787
USER: genes 4 Torsion [N]-CA--CB-[CG2] |==|  0.67411
USER: genes 5 Torsion [CA]-CB--OG1-[HG1] |==|  0.52063
USER: genes 6 Torsion [N]-CA--C-[N] |==|  0.05768
USER: genes 7 Torsion [C]-N--CA-[CB] |==|  0.43707
USER: genes 8 Torsion [N]-CA--CB-[CG] |==|  0.91475
USER: genes 9 Torsion [CA]-CB--CG-[CD1] |==|  0.50887
USER: genes 10 Torsion [N]-CA--C-[O] |==|  0.71799
USER: genes 11 Torsion [O]-C--CA-[N] |==|  0.89337
USER: genes 12 Torsion [N]-C--CA-[N] |==|  0.18389
USER: genes 13 Torsion [C]-CA--CB-[CG] |==|  0.29295
USER: genes 14 Torsion [CA]-CB--CG-[SD] |==|  0.87000
USER: genes 15 Torsion [CB]-CG--SD-[CE] |==|  0.27097
ROOT
ATOM      1  C   PRO R   4       1.626  -3.985 -11.422  1.00 60.54 LIG 0.24  C 
ATOM      2 O    PRO R   4       1.266  -3.092 -10.653  1.00 63.53 LIG-0.27  OA
ATOM      3  N   PRO R   5       2.379  -5.031 -11.035  1.00 48.92 LIG-0.34  N 
ATOM      4  CA  PRO R   5       2.856  -5.146  -9.650  1.00 52.68 LIG 0.18  C 
ATOM      5  CB  PRO R   5       3.658  -6.452  -9.665  1.00 55.54 LIG 0.04  C 
ATOM      6  CG  PRO R   5       3.077  -7.247 -10.773  1.00 46.13 LIG 0.02  C 
ATOM      7  CD  PRO R   5       2.664  -6.247 -11.818  1.00 43.47 LIG 0.13  C 
ENDROOT
BRANCH 4 8
ATOM      8  C   PRO R   5       3.761  -3.990  -9.216  1.00 58.07 LIG 0.24  C 
ATOM      9 O    PRO R   5       3.322  -2.839  -9.153  1.00 51.36 LIG-0.27  OA
ATOM     10  N   THR R   6       5.020  -4.309  -8.926  1.00 69.24 LIG-0.34  N 
ATOM     11 H    THR R   6       5.319  -5.115  -8.924  1.00 69.24 LIG 0.16  HD
BRANCH 10 12
ATOM     12  CA  THR R   6       6.018  -3.302  -8.583  1.00 55.31 LIG 0.20  C 
BRANCH 12 13
ATOM     13  CB  THR R   6       7.187  -3.911  -7.776  1.00 60.29 LIG 0.15  C 
ATOM     14  CG2 THR R   6       7.266  -3.295  -6.387  1.00 62.01 LIG 0.04  C 
BRANCH 13 15
ATOM     15 OG1  THR R   6       6.999  -5.326  -7.649  1.00 91.48 LIG-0.39  OA
ATOM     16 HG1  THR R   6       7.577  -5.640  -7.127  1.00 91.48 LIG 0.21  HD
ENDBRANCH 13 15
ENDBRANCH 12 13
BRANCH 12 17
ATOM     17  C   THR R   6       6.563  -2.665  -9.852  1.00 56.48 LIG 0.24  C 
ATOM     18  N   LEU R   7       5.802  -2.775 -10.939  1.00 43.78 LIG-0.35  N 
ATOM     19 H    LEU R   7       5.035  -3.164 -10.950  1.00 43.78 LIG 0.16  HD
ATOM     20 O    THR R   6       7.653  -2.089  -9.848  1.00 41.48 LIG-0.27  OA
BRANCH 18 21
ATOM     21  CA  LEU R   7       6.221  -2.230 -12.223  1.00 53.52 LIG 0.16  C 
BRANCH 21 22
ATOM     22  CB  LEU R   7       5.496  -2.943 -13.367  1.00 41.32 LIG 0.04  C 
BRANCH 22 23
ATOM     23  CG  LEU R   7       5.135  -4.406 -13.092  1.00 48.65 LIG-0.02  C 
ATOM     24  CD1 LEU R   7       4.489  -5.058 -14.308  1.00 40.28 LIG 0.01  C 
ATOM     25  CD2 LEU R   7       6.361  -5.194 -12.649  1.00 37.72 LIG 0.01  C 
ENDBRANCH 22 23
ENDBRANCH 21 22
BRANCH 21 26
ATOM     26  C   LEU R   7       5.986  -0.723 -12.295  1.00 46.73 LIG 0.22  C 
ATOM     27 O    LEU R   7       5.016  -0.266 -12.903  1.00 57.50 LIG-0.29  OA
ENDBRANCH 21 26
ENDBRANCH 18 21
ENDBRANCH 12 17
ENDBRANCH 10 12
ENDBRANCH 4 8
BRANCH 1 28
ATOM     28  CA  PRO R   4       1.198  -3.918 -12.887  1.00 54.23 LIG 0.18  C 
ATOM     29  N   PRO R   4      -0.177  -3.419 -12.980  1.00 66.40 LIG-0.34  N 
ATOM     30  CD  PRO R   4      -0.197  -1.983 -13.293  1.00 55.20 LIG 0.13  C 
ATOM     31  C   MET R   3      -1.321  -4.125 -12.921  1.00 65.13 LIG 0.26  C 
ATOM     32  CG  PRO R   4       1.018  -1.832 -14.150  1.00 51.34 LIG 0.02  C 
ATOM     33  CB  PRO R   4       2.013  -2.839 -13.626  1.00 43.90 LIG 0.04  C 
ATOM     34 O    MET R   3      -2.431  -3.589 -12.945  1.00 74.37 LIG-0.27  OA
BRANCH 31 35
ATOM     35  CA  MET R   3      -1.209  -5.645 -12.829  1.00 67.30 LIG 0.40  C 
ATOM     36  N   MET R   3      -0.609  -6.096 -11.576  1.00 55.69 LIG 0.61  N 
BRANCH 35 37
ATOM     37  CB  MET R   3      -2.606  -6.250 -13.011  1.00 55.44 LIG 0.06  C 
BRANCH 37 38
ATOM     38  CG  MET R   3      -2.858  -6.903 -14.352  1.00 49.90 LIG 0.08  C 
BRANCH 38 39
ATOM     39 SD   MET R   3      -2.290  -5.823 -15.678  1.00 67.63 LIG-0.17  SA
ATOM     40  CE  MET R   3      -0.675  -6.520 -16.018  1.00 69.90 LIG 0.09  C 
ENDBRANCH 38 39
ENDBRANCH 37 38
ENDBRANCH 35 37
ENDBRANCH 31 35
ENDBRANCH 1 28
TORSDOF 14
ENDMDL
MODEL 39
USER: ADFR SOLUTION from run 186
USER: SCORE 10.983861 LL:  -2.939 LR:  -9.460 RR:   0.000 FEB:  -5.284
USER: RMSD 8.087009
USER: SEED 185
USER: STATUS no improvement in best in 6 clusters for 5 generations
USER: GENES 16
USER: genes 0 Translation |==|  0.42722 0.27032 0.72107
USER: genes 1 Rotation |==|  0.70172 0.58435 0.87175 0.75297
USER: genes 2 Torsion [N]-CA--C-[N] |==|  0.20859
USER: genes 3 Torsion [C]-N--CA-[CB] |==|  0.41775
USER: genes 4 Torsion [N]-CA--CB-[CG2] |==|  0.79506
USER: genes 5 Torsion [CA]-CB--OG1-[HG1] |==|  0.80482
USER: genes 6 Torsion [N]-CA--C-[N] |==|  0.83334
USER: genes 7 Torsion [C]-N--CA-[CB] |==|  0.47766
USER: genes 8 Torsion [N]-CA--CB-[CG] |==|  0.85106
USER: genes 9 Torsion [CA]-CB--CG-[CD1] |==|  0.41546
USER: genes 10 Torsion [N]-CA--C-[O] |==|  0.34689
USER: genes 11 Torsion [O]-C--CA-[N] |==|  0.01836
USER: genes 12 Torsion [N]-C--CA-[N] |==|  0.87520
USER: genes 13 Torsion [C]-CA--CB-[CG] |==|  0.17337
USER: genes 14 Torsion [CA]-CB--CG-[SD] |==|  0.27135
USER: genes 15 Torsion [CB]-CG--SD-[CE] |==|  0.74632
ROOT
ATOM      1  C   PRO R   4       4.456  -4.490 -10.676  1.00 60.54 LIG 0.24  C 
ATOM      2 O    PRO R   4       4.093  -3.605 -11.453  1.00 63.53 LIG-0.27  OA
ATOM      3  N   PRO R   5       5.145  -4.243  -9.548  1.00 48.92 LIG-0.34  N 
ATOM      4  CA  PRO R   5       5.546  -2.874  -9.194  1.00 52.68 LIG 0.18  C 
ATOM      5  CB  PRO R   5       6.295  -3.062  -7.869  1.00 55.54 LIG 0.04  C 
ATOM      6  CG  PRO R   5       5.741  -4.307  -7.288  1.00 46.13 LIG 0.02  C 
ATOM      7  CD  PRO R   5       5.422  -5.197  -8.459  1.00 43.47 LIG 0.13  C 
ENDROOT
BRANCH 4 8
ATOM      8  C   PRO R   5       6.473  -2.220 -10.222  1.00 58.07 LIG 0.24  C 
ATOM      9 O    PRO R   5       7.677  -2.089  -9.986  1.00 51.36 LIG-0.27  OA
ATOM     10  N   THR R   6       5.901  -1.810 -11.351  1.00 69.24 LIG-0.34  N 
ATOM     11 H    THR R   6       5.072  -1.941 -11.539  1.00 69.24 LIG 0.16  HD
BRANCH 10 12
ATOM     12  CA  THR R   6       6.641  -1.092 -12.382  1.00 55.31 LIG 0.20  C 
BRANCH 12 13
ATOM     13  CB  THR R   6       6.063  -1.361 -13.790  1.00 60.29 LIG 0.15  C 
ATOM     14  CG2 THR R   6       6.423  -2.761 -14.265  1.00 62.01 LIG 0.04  C 
BRANCH 13 15
ATOM     15 OG1  THR R   6       4.636  -1.232 -13.757  1.00 91.48 LIG-0.39  OA
ATOM     16 HG1  THR R   6       4.307  -1.873 -13.326  1.00 91.48 LIG 0.21  HD
ENDBRANCH 13 15
ENDBRANCH 12 13
BRANCH 12 17
ATOM     17  C   THR R   6       6.599   0.402 -12.099  1.00 56.48 LIG 0.24  C 
ATOM     18  N   LEU R   7       5.391   0.960 -12.064  1.00 43.78 LIG-0.35  N 
ATOM     19 H    LEU R   7       4.658   0.525 -12.175  1.00 43.78 LIG 0.16  HD
ATOM     20 O    THR R   6       7.641   1.037 -11.920  1.00 41.48 LIG-0.27  OA
BRANCH 18 21
ATOM     21  CA  LEU R   7       5.216   2.387 -11.827  1.00 53.52 LIG 0.16  C 
BRANCH 21 22
ATOM     22  CB  LEU R   7       3.753   2.786 -12.036  1.00 41.32 LIG 0.04  C 
BRANCH 22 23
ATOM     23  CG  LEU R   7       3.157   2.379 -13.387  1.00 48.65 LIG-0.02  C 
ATOM     24  CD1 LEU R   7       1.662   2.108 -13.278  1.00 40.28 LIG 0.01  C 
ATOM     25  CD2 LEU R   7       3.435   3.441 -14.445  1.00 37.72 LIG 0.01  C 
ENDBRANCH 22 23
ENDBRANCH 21 22
BRANCH 21 26
ATOM     26  C   LEU R   7       5.687   2.784 -10.430  1.00 46.73 LIG 0.22  C 
ATOM     27 O    LEU R   7       6.526   3.673 -10.278  1.00 57.50 LIG-0.29  OA
ENDBRANCH 21 26
ENDBRANCH 18 21
ENDBRANCH 12 17
ENDBRANCH 10 12
ENDBRANCH 4 8
BRANCH 1 28
ATOM     28  CA  PRO R   4       4.107  -5.943 -10.995  1.00 54.23 LIG 0.18  C 
ATOM     29  N   PRO R   4       3.495  -6.026 -12.324  1.00 66.40 LIG-0.34  N 
ATOM     30  CD  PRO R   4       4.483  -6.431 -13.334  1.00 55.20 LIG 0.13  C 
ATOM     31  C   MET R   3       2.197  -5.889 -12.649  1.00 65.13 LIG 0.26  C 
ATOM     32  CG  PRO R   4       5.382  -7.332 -12.551  1.00 51.34 LIG 0.02  C 
ATOM     33  CB  PRO R   4       5.395  -6.774 -11.149  1.00 43.90 LIG 0.04  C 
ATOM     34 O    MET R   3       1.800  -5.914 -13.816  1.00 74.37 LIG-0.27  OA
BRANCH 31 35
ATOM     35  CA  MET R   3       1.199  -5.702 -11.508  1.00 67.30 LIG 0.40  C 
ATOM     36  N   MET R   3       1.426  -6.625 -10.398  1.00 55.69 LIG 0.61  N 
BRANCH 35 37
ATOM     37  CB  MET R   3       1.271  -4.248 -11.028  1.00 55.44 LIG 0.06  C 
BRANCH 37 38
ATOM     38  CG  MET R   3       0.890  -3.208 -12.059  1.00 49.90 LIG 0.08  C 
BRANCH 38 39
ATOM     39 SD   MET R   3      -0.825  -2.708 -11.823  1.00 67.63 LIG-0.17  SA
ATOM     40  CE  MET R   3      -1.668  -3.863 -12.904  1.00 69.90 LIG 0.09  C 
ENDBRANCH 38 39
ENDBRANCH 37 38
ENDBRANCH 35 37
ENDBRANCH 31 35
ENDBRANCH 1 28
TORSDOF 14
ENDMDL
MODEL 40
USER: ADFR SOLUTION from run 157
USER: SCORE 11.175253 LL:  -3.423 LR:  -9.457 RR:   0.000 FEB:  -5.281
USER: RMSD 8.213417
USER: SEED 156
USER: STATUS no improvement in best in 13 clusters for 5 generations
USER: GENES 16
USER: genes 0 Translation |==|  0.29827 0.29059 0.68261
USER: genes 1 Rotation |==|  0.86824 0.35018 0.80302 0.51162
USER: genes 2 Torsion [N]-CA--C-[N] |==|  0.62037
USER: genes 3 Torsion [C]-N--CA-[CB] |==|  0.45066
USER: genes 4 Torsion [N]-CA--CB-[CG2] |==|  0.73547
USER: genes 5 Torsion [CA]-CB--OG1-[HG1] |==|  0.22547
USER: genes 6 Torsion [N]-CA--C-[N] |==|  0.15874
USER: genes 7 Torsion [C]-N--CA-[CB] |==|  0.25871
USER: genes 8 Torsion [N]-CA--CB-[CG] |==|  0.06141
USER: genes 9 Torsion [CA]-CB--CG-[CD1] |==|  0.38142
USER: genes 10 Torsion [N]-CA--C-[O] |==|  0.77494
USER: genes 11 Torsion [O]-C--CA-[N] |==|  0.93491
USER: genes 12 Torsion [N]-C--CA-[N] |==|  0.79715
USER: genes 13 Torsion [C]-CA--CB-[CG] |==|  0.29213
USER: genes 14 Torsion [CA]-CB--CG-[SD] |==|  0.51572
USER: genes 15 Torsion [CB]-CG--SD-[CE] |==|  0.61213
ROOT
ATOM      1  C   PRO R   4       2.135  -4.080 -11.455  1.00 60.54 LIG 0.24  C 
ATOM      2 O    PRO R   4       1.704  -3.385 -10.533  1.00 63.53 LIG-0.27  OA
ATOM      3  N   PRO R   5       3.131  -4.970 -11.303  1.00 48.92 LIG-0.34  N 
ATOM      4  CA  PRO R   5       3.800  -5.139 -10.005  1.00 52.68 LIG 0.18  C 
ATOM      5  CB  PRO R   5       4.845  -6.224 -10.290  1.00 55.54 LIG 0.04  C 
ATOM      6  CG  PRO R   5       4.300  -6.992 -11.434  1.00 46.13 LIG 0.02  C 
ATOM      7  CD  PRO R   5       3.555  -5.992 -12.277  1.00 43.47 LIG 0.13  C 
ENDROOT
BRANCH 4 8
ATOM      8  C   PRO R   5       4.498  -3.871  -9.506  1.00 58.07 LIG 0.24  C 
ATOM      9 O    PRO R   5       3.944  -2.772  -9.599  1.00 51.36 LIG-0.27  OA
ATOM     10  N   THR R   6       5.711  -4.035  -8.985  1.00 69.24 LIG-0.34  N 
ATOM     11 H    THR R   6       6.082  -4.803  -8.876  1.00 69.24 LIG 0.16  HD
BRANCH 10 12
ATOM     12  CA  THR R   6       6.530  -2.909  -8.550  1.00 55.31 LIG 0.20  C 
BRANCH 12 13
ATOM     13  CB  THR R   6       7.665  -3.363  -7.604  1.00 60.29 LIG 0.15  C 
ATOM     14  CG2 THR R   6       7.251  -3.211  -6.148  1.00 62.01 LIG 0.04  C 
BRANCH 13 15
ATOM     15 OG1  THR R   6       7.983  -4.738  -7.858  1.00 91.48 LIG-0.39  OA
ATOM     16 HG1  THR R   6       8.490  -4.789  -8.525  1.00 91.48 LIG 0.21  HD
ENDBRANCH 13 15
ENDBRANCH 12 13
BRANCH 12 17
ATOM     17  C   THR R   6       7.134  -2.214  -9.761  1.00 56.48 LIG 0.24  C 
ATOM     18  N   LEU R   7       6.273  -1.768 -10.672  1.00 43.78 LIG-0.35  N 
ATOM     19 H    LEU R   7       5.418  -1.839 -10.601  1.00 43.78 LIG 0.16  HD
ATOM     20 O    THR R   6       8.356  -2.089  -9.868  1.00 41.48 LIG-0.27  OA
BRANCH 18 21
ATOM     21  CA  LEU R   7       6.724  -1.107 -11.890  1.00 53.52 LIG 0.16  C 
BRANCH 21 22
ATOM     22  CB  LEU R   7       6.865  -2.122 -13.026  1.00 41.32 LIG 0.04  C 
BRANCH 22 23
ATOM     23  CG  LEU R   7       6.048  -3.406 -12.854  1.00 48.65 LIG-0.02  C 
ATOM     24  CD1 LEU R   7       5.377  -3.819 -14.157  1.00 40.28 LIG 0.01  C 
ATOM     25  CD2 LEU R   7       6.919  -4.535 -12.316  1.00 37.72 LIG 0.01  C 
ENDBRANCH 22 23
ENDBRANCH 21 22
BRANCH 21 26
ATOM     26  C   LEU R   7       5.781   0.025 -12.295  1.00 46.73 LIG 0.22  C 
ATOM     27 O    LEU R   7       4.737  -0.214 -12.903  1.00 57.50 LIG-0.29  OA
ENDBRANCH 21 26
ENDBRANCH 18 21
ENDBRANCH 12 17
ENDBRANCH 10 12
ENDBRANCH 4 8
BRANCH 1 28
ATOM     28  CA  PRO R   4       1.512  -3.937 -12.843  1.00 54.23 LIG 0.18  C 
ATOM     29  N   PRO R   4       0.154  -3.400 -12.725  1.00 66.40 LIG-0.34  N 
ATOM     30  CD  PRO R   4       0.136  -1.951 -12.974  1.00 55.20 LIG 0.13  C 
ATOM     31  C   MET R   3      -0.992  -4.079 -12.537  1.00 65.13 LIG 0.26  C 
ATOM     32  CG  PRO R   4       1.226  -1.793 -13.984  1.00 51.34 LIG 0.02  C 
ATOM     33  CB  PRO R   4       2.251  -2.847 -13.644  1.00 43.90 LIG 0.04  C 
ATOM     34 O    MET R   3      -2.079  -3.515 -12.386  1.00 74.37 LIG-0.27  OA
BRANCH 31 35
ATOM     35  CA  MET R   3      -0.916  -5.604 -12.523  1.00 67.30 LIG 0.40  C 
ATOM     36  N   MET R   3      -0.695  -6.174 -13.850  1.00 55.69 LIG 0.61  N 
BRANCH 35 37
ATOM     37  CB  MET R   3       0.197  -6.029 -11.558  1.00 55.44 LIG 0.06  C 
BRANCH 37 38
ATOM     38  CG  MET R   3      -0.274  -6.586 -10.233  1.00 49.90 LIG 0.08  C 
BRANCH 38 39
ATOM     39 SD   MET R   3       1.138  -6.881  -9.153  1.00 67.63 LIG-0.17  SA
ATOM     40  CE  MET R   3       0.673  -8.441  -8.403  1.00 69.90 LIG 0.09  C 
ENDBRANCH 38 39
ENDBRANCH 37 38
ENDBRANCH 35 37
ENDBRANCH 31 35
ENDBRANCH 1 28
TORSDOF 14
ENDMDL
MODEL 41
USER: ADFR SOLUTION from run 15
USER: SCORE 11.852202 LL:  -2.767 LR:  -9.433 RR:   0.000 FEB:  -5.257
USER: RMSD 10.047939
USER: SEED 159844
USER: STATUS no improvement in best in 25 clusters for 5 generations
USER: GENES 16
USER: genes 0 Translation |==|  0.24906 0.29808 0.59621
USER: genes 1 Rotation |==|  0.94871 0.70272 0.58604 0.51266
USER: genes 2 Torsion [N]-CA--C-[N] |==|  0.05902
USER: genes 3 Torsion [C]-N--CA-[CB] |==|  0.55008
USER: genes 4 Torsion [N]-CA--CB-[CG2] |==|  0.79706
USER: genes 5 Torsion [CA]-CB--OG1-[HG1] |==|  0.16000
USER: genes 6 Torsion [N]-CA--C-[N] |==|  0.38590
USER: genes 7 Torsion [C]-N--CA-[CB] |==|  0.26635
USER: genes 8 Torsion [N]-CA--CB-[CG] |==|  0.85064
USER: genes 9 Torsion [CA]-CB--CG-[CD1] |==|  0.47369
USER: genes 10 Torsion [N]-CA--C-[O] |==|  0.40819
USER: genes 11 Torsion [O]-C--CA-[N] |==|  0.98628
USER: genes 12 Torsion [N]-C--CA-[N] |==|  0.89526
USER: genes 13 Torsion [C]-CA--CB-[CG] |==|  0.60070
USER: genes 14 Torsion [CA]-CB--CG-[SD] |==|  0.47694
USER: genes 15 Torsion [CB]-CG--SD-[CE] |==|  0.23823
ROOT
ATOM      1  C   PRO R   4       1.249  -3.928 -13.205  1.00 60.54 LIG 0.24  C 
ATOM      2 O    PRO R   4       0.785  -3.187 -12.336  1.00 63.53 LIG-0.27  OA
ATOM      3  N   PRO R   5       2.156  -3.522 -14.112  1.00 48.92 LIG-0.34  N 
ATOM      4  CA  PRO R   5       2.622  -2.129 -14.141  1.00 52.68 LIG 0.18  C 
ATOM      5  CB  PRO R   5       3.617  -2.119 -15.308  1.00 55.54 LIG 0.04  C 
ATOM      6  CG  PRO R   5       4.097  -3.517 -15.416  1.00 46.13 LIG 0.02  C 
ATOM      7  CD  PRO R   5       2.926  -4.380 -15.030  1.00 43.47 LIG 0.13  C 
ENDROOT
BRANCH 4 8
ATOM      8  C   PRO R   5       1.507  -1.114 -14.406  1.00 58.07 LIG 0.24  C 
ATOM      9 O    PRO R   5       1.774   0.012 -14.833  1.00 51.36 LIG-0.27  OA
ATOM     10  N   THR R   6       0.268  -1.521 -14.142  1.00 69.24 LIG-0.34  N 
ATOM     11 H    THR R   6       0.074  -2.319 -13.887  1.00 69.24 LIG 0.16  HD
BRANCH 10 12
ATOM     12  CA  THR R   6      -0.884  -0.635 -14.262  1.00 55.31 LIG 0.20  C 
BRANCH 12 13
ATOM     13  CB  THR R   6      -2.107  -1.184 -13.493  1.00 60.29 LIG 0.15  C 
ATOM     14  CG2 THR R   6      -2.713  -2.376 -14.218  1.00 62.01 LIG 0.04  C 
BRANCH 13 15
ATOM     15 OG1  THR R   6      -1.706  -1.592 -12.178  1.00 91.48 LIG-0.39  OA
ATOM     16 HG1  THR R   6      -1.360  -0.941 -11.777  1.00 91.48 LIG 0.21  HD
ENDBRANCH 13 15
ENDBRANCH 12 13
BRANCH 12 17
ATOM     17  C   THR R   6      -0.530   0.744 -13.724  1.00 56.48 LIG 0.24  C 
ATOM     18  N   LEU R   7      -0.983   1.781 -14.423  1.00 43.78 LIG-0.35  N 
ATOM     19 H    LEU R   7      -1.463   1.709 -15.133  1.00 43.78 LIG 0.16  HD
ATOM     20 O    THR R   6       0.144   0.863 -12.698  1.00 41.48 LIG-0.27  OA
BRANCH 18 21
ATOM     21  CA  LEU R   7      -0.692   3.154 -14.029  1.00 53.52 LIG 0.16  C 
BRANCH 21 22
ATOM     22  CB  LEU R   7       0.521   3.683 -14.797  1.00 41.32 LIG 0.04  C 
BRANCH 22 23
ATOM     23  CG  LEU R   7       1.778   2.813 -14.704  1.00 48.65 LIG-0.02  C 
ATOM     24  CD1 LEU R   7       2.854   3.283 -15.674  1.00 40.28 LIG 0.01  C 
ATOM     25  CD2 LEU R   7       2.314   2.786 -13.278  1.00 37.72 LIG 0.01  C 
ENDBRANCH 22 23
ENDBRANCH 21 22
BRANCH 21 26
ATOM     26  C   LEU R   7      -1.900   4.064 -14.238  1.00 46.73 LIG 0.22  C 
ATOM     27 O    LEU R   7      -2.111   5.013 -13.481  1.00 57.50 LIG-0.29  OA
ENDBRANCH 21 26
ENDBRANCH 18 21
ENDBRANCH 12 17
ENDBRANCH 10 12
ENDBRANCH 4 8
BRANCH 1 28
ATOM     28  CA  PRO R   4       0.786  -5.383 -13.260  1.00 54.23 LIG 0.18  C 
ATOM     29  N   PRO R   4      -0.098  -5.666 -12.127  1.00 66.40 LIG-0.34  N 
ATOM     30  CD  PRO R   4      -1.510  -5.590 -12.528  1.00 55.20 LIG 0.13  C 
ATOM     31  C   MET R   3       0.243  -6.067 -10.889  1.00 65.13 LIG 0.26  C 
ATOM     32  CG  PRO R   4      -1.460  -6.064 -13.944  1.00 51.34 LIG 0.02  C 
ATOM     33  CB  PRO R   4      -0.128  -5.600 -14.482  1.00 43.90 LIG 0.04  C 
ATOM     34 O    MET R   3      -0.586  -6.214  -9.988  1.00 74.37 LIG-0.27  OA
BRANCH 31 35
ATOM     35  CA  MET R   3       1.720  -6.351 -10.621  1.00 67.30 LIG 0.40  C 
ATOM     36  N   MET R   3       2.391  -6.986 -11.752  1.00 55.69 LIG 0.61  N 
BRANCH 35 37
ATOM     37  CB  MET R   3       2.411  -5.034 -10.249  1.00 55.44 LIG 0.06  C 
BRANCH 37 38
ATOM     38  CG  MET R   3       3.828  -4.882 -10.759  1.00 49.90 LIG 0.08  C 
BRANCH 38 39
ATOM     39 SD   MET R   3       4.413  -3.204 -10.456  1.00 67.63 LIG-0.17  SA
ATOM     40  CE  MET R   3       5.025  -3.355  -8.778  1.00 69.90 LIG 0.09  C 
ENDBRANCH 38 39
ENDBRANCH 37 38
ENDBRANCH 35 37
ENDBRANCH 31 35
ENDBRANCH 1 28
TORSDOF 14
ENDMDL
MODEL 42
USER: ADFR SOLUTION from run 91
USER: SCORE 11.105992 LL:  -3.378 LR:  -9.432 RR:   0.000 FEB:  -5.256
USER: RMSD 9.354196
USER: SEED 90
USER: STATUS no improvement in best in 15 clusters for 5 generations
USER: GENES 16
USER: genes 0 Translation |==|  0.32007 0.32666 0.59290
USER: genes 1 Rotation |==|  0.31678 0.63279 0.94378 0.54306
USER: genes 2 Torsion [N]-CA--C-[N] |==|  0.83755
USER: genes 3 Torsion [C]-N--CA-[CB] |==|  0.35305
USER: genes 4 Torsion [N]-CA--CB-[CG2] |==|  0.60759
USER: genes 5 Torsion [CA]-CB--OG1-[HG1] |==|  0.23031
USER: genes 6 Torsion [N]-CA--C-[N] |==|  0.63655
USER: genes 7 Torsion [C]-N--CA-[CB] |==|  0.33633
USER: genes 8 Torsion [N]-CA--CB-[CG] |==|  0.95861
USER: genes 9 Torsion [CA]-CB--CG-[CD1] |==|  0.44657
USER: genes 10 Torsion [N]-CA--C-[O] |==|  0.39203
USER: genes 11 Torsion [O]-C--CA-[N] |==|  0.94178
USER: genes 12 Torsion [N]-C--CA-[N] |==|  0.42030
USER: genes 13 Torsion [C]-CA--CB-[CG] |==|  0.26460
USER: genes 14 Torsion [CA]-CB--CG-[SD] |==|  0.20251
USER: genes 15 Torsion [CB]-CG--SD-[CE] |==|  0.31060
ROOT
ATOM      1  C   PRO R   4       2.527  -3.349 -13.272  1.00 60.54 LIG 0.24  C 
ATOM      2 O    PRO R   4       2.937  -3.286 -14.433  1.00 63.53 LIG-0.27  OA
ATOM      3  N   PRO R   5       1.310  -2.917 -12.895  1.00 48.92 LIG-0.34  N 
ATOM      4  CA  PRO R   5       0.397  -2.296 -13.865  1.00 52.68 LIG 0.18  C 
ATOM      5  CB  PRO R   5      -0.836  -1.961 -13.017  1.00 55.54 LIG 0.04  C 
ATOM      6  CG  PRO R   5      -0.802  -2.926 -11.892  1.00 46.13 LIG 0.02  C 
ATOM      7  CD  PRO R   5       0.655  -3.155 -11.596  1.00 43.47 LIG 0.13  C 
ENDROOT
BRANCH 4 8
ATOM      8  C   PRO R   5       0.951  -1.015 -14.496  1.00 58.07 LIG 0.24  C 
ATOM      9 O    PRO R   5       1.092  -0.929 -15.718  1.00 51.36 LIG-0.27  OA
ATOM     10  N   THR R   6       1.266  -0.035 -13.653  1.00 69.24 LIG-0.34  N 
ATOM     11 H    THR R   6       1.127  -0.073 -12.805  1.00 69.24 LIG 0.16  HD
BRANCH 10 12
ATOM     12  CA  THR R   6       1.885   1.207 -14.101  1.00 55.31 LIG 0.20  C 
BRANCH 12 13
ATOM     13  CB  THR R   6       1.100   2.444 -13.610  1.00 60.29 LIG 0.15  C 
ATOM     14  CG2 THR R   6       1.059   3.522 -14.683  1.00 62.01 LIG 0.04  C 
BRANCH 13 15
ATOM     15 OG1  THR R   6      -0.242   2.063 -13.280  1.00 91.48 LIG-0.39  OA
ATOM     16 HG1  THR R   6      -0.260   1.746 -12.503  1.00 91.48 LIG 0.21  HD
ENDBRANCH 13 15
ENDBRANCH 12 13
BRANCH 12 17
ATOM     17  C   THR R   6       3.315   1.283 -13.587  1.00 56.48 LIG 0.24  C 
ATOM     18  N   LEU R   7       3.666   2.420 -12.990  1.00 43.78 LIG-0.35  N 
ATOM     19 H    LEU R   7       3.133   3.085 -12.873  1.00 43.78 LIG 0.16  HD
ATOM     20 O    THR R   6       4.086   0.332 -13.734  1.00 41.48 LIG-0.27  OA
BRANCH 18 21
ATOM     21  CA  LEU R   7       5.013   2.629 -12.477  1.00 53.52 LIG 0.16  C 
BRANCH 21 22
ATOM     22  CB  LEU R   7       5.655   3.847 -13.145  1.00 41.32 LIG 0.04  C 
BRANCH 22 23
ATOM     23  CG  LEU R   7       4.943   4.345 -14.407  1.00 48.65 LIG-0.02  C 
ATOM     24  CD1 LEU R   7       5.329   5.781 -14.735  1.00 40.28 LIG 0.01  C 
ATOM     25  CD2 LEU R   7       5.231   3.428 -15.589  1.00 37.72 LIG 0.01  C 
ENDBRANCH 22 23
ENDBRANCH 21 22
BRANCH 21 26
ATOM     26  C   LEU R   7       5.015   2.786 -10.958  1.00 46.73 LIG 0.22  C 
ATOM     27 O    LEU R   7       5.912   2.288 -10.275  1.00 57.50 LIG-0.29  OA
ENDBRANCH 21 26
ENDBRANCH 18 21
ENDBRANCH 12 17
ENDBRANCH 10 12
ENDBRANCH 4 8
BRANCH 1 28
ATOM     28  CA  PRO R   4       3.433  -3.952 -12.199  1.00 54.23 LIG 0.18  C 
ATOM     29  N   PRO R   4       4.450  -4.799 -12.828  1.00 66.40 LIG-0.34  N 
ATOM     30  CD  PRO R   4       5.723  -4.077 -12.971  1.00 55.20 LIG 0.13  C 
ATOM     31  C   MET R   3       4.360  -6.102 -13.151  1.00 65.13 LIG 0.26  C 
ATOM     32  CG  PRO R   4       5.716  -3.188 -11.770  1.00 51.34 LIG 0.02  C 
ATOM     33  CB  PRO R   4       4.267  -2.843 -11.528  1.00 43.90 LIG 0.04  C 
ATOM     34 O    MET R   3       5.262  -6.702 -13.740  1.00 74.37 LIG-0.27  OA
BRANCH 31 35
ATOM     35  CA  MET R   3       3.084  -6.841 -12.754  1.00 67.30 LIG 0.40  C 
ATOM     36  N   MET R   3       2.766  -7.948 -13.653  1.00 55.69 LIG 0.61  N 
BRANCH 35 37
ATOM     37  CB  MET R   3       3.236  -7.339 -11.312  1.00 55.44 LIG 0.06  C 
BRANCH 37 38
ATOM     38  CG  MET R   3       2.652  -6.432 -10.251  1.00 49.90 LIG 0.08  C 
BRANCH 38 39
ATOM     39 SD   MET R   3       0.852  -6.519 -10.291  1.00 67.63 LIG-0.17  SA
ATOM     40  CE  MET R   3       0.516  -7.339  -8.734  1.00 69.90 LIG 0.09  C 
ENDBRANCH 38 39
ENDBRANCH 37 38
ENDBRANCH 35 37
ENDBRANCH 31 35
ENDBRANCH 1 28
TORSDOF 14
ENDMDL
MODEL 43
USER: ADFR SOLUTION from run 11
USER: SCORE 11.353645 LL:  -2.652 LR:  -9.434 RR:   0.000 FEB:  -5.258
USER: RMSD 7.031717
USER: SEED 932576
USER: STATUS no improvement in best in 38 clusters for 5 generations
USER: GENES 16
USER: genes 0 Translation |==|  0.28949 0.33321 0.57996
USER: genes 1 Rotation |==|  0.09164 0.68980 0.32686 0.63131
USER: genes 2 Torsion [N]-CA--C-[N] |==|  0.68524
USER: genes 3 Torsion [C]-N--CA-[CB] |==|  0.79444
USER: genes 4 Torsion [N]-CA--CB-[CG2] |==|  0.67021
USER: genes 5 Torsion [CA]-CB--OG1-[HG1] |==|  0.39371
USER: genes 6 Torsion [N]-CA--C-[N] |==|  0.10164
USER: genes 7 Torsion [C]-N--CA-[CB] |==|  0.86870
USER: genes 8 Torsion [N]-CA--CB-[CG] |==|  0.47578
USER: genes 9 Torsion [CA]-CB--CG-[CD1] |==|  0.26261
USER: genes 10 Torsion [N]-CA--C-[O] |==|  0.92297
USER: genes 11 Torsion [O]-C--CA-[N] |==|  0.01070
USER: genes 12 Torsion [N]-C--CA-[N] |==|  0.88172
USER: genes 13 Torsion [C]-CA--CB-[CG] |==|  0.08190
USER: genes 14 Torsion [CA]-CB--CG-[SD] |==|  0.45263
USER: genes 15 Torsion [CB]-CG--SD-[CE] |==|  0.30779
ROOT
ATOM      1  C   PRO R   4       1.977  -3.216 -13.534  1.00 60.54 LIG 0.24  C 
ATOM      2 O    PRO R   4       1.824  -3.392 -12.323  1.00 63.53 LIG-0.27  OA
ATOM      3  N   PRO R   5       3.073  -3.615 -14.203  1.00 48.92 LIG-0.34  N 
ATOM      4  CA  PRO R   5       4.191  -4.262 -13.503  1.00 52.68 LIG 0.18  C 
ATOM      5  CB  PRO R   5       5.197  -4.533 -14.628  1.00 55.54 LIG 0.04  C 
ATOM      6  CG  PRO R   5       4.380  -4.621 -15.861  1.00 46.13 LIG 0.02  C 
ATOM      7  CD  PRO R   5       3.245  -3.653 -15.667  1.00 43.47 LIG 0.13  C 
ENDROOT
BRANCH 4 8
ATOM      8  C   PRO R   5       4.839  -3.379 -12.434  1.00 58.07 LIG 0.24  C 
ATOM      9 O    PRO R   5       4.210  -3.055 -11.423  1.00 51.36 LIG-0.27  OA
ATOM     10  N   THR R   6       6.089  -2.992 -12.671  1.00 69.24 LIG-0.34  N 
ATOM     11 H    THR R   6       6.547  -3.253 -13.351  1.00 69.24 LIG 0.16  HD
BRANCH 10 12
ATOM     12  CA  THR R   6       6.803  -2.079 -11.786  1.00 55.31 LIG 0.20  C 
BRANCH 12 13
ATOM     13  CB  THR R   6       6.293  -0.628 -11.934  1.00 60.29 LIG 0.15  C 
ATOM     14  CG2 THR R   6       7.408   0.293 -12.407  1.00 62.01 LIG 0.04  C 
BRANCH 13 15
ATOM     15 OG1  THR R   6       5.220  -0.589 -12.884  1.00 91.48 LIG-0.39  OA
ATOM     16 HG1  THR R   6       4.637  -0.044 -12.625  1.00 91.48 LIG 0.21  HD
ENDBRANCH 13 15
ENDBRANCH 12 13
BRANCH 12 17
ATOM     17  C   THR R   6       6.633  -2.526 -10.342  1.00 56.48 LIG 0.24  C 
ATOM     18  N   LEU R   7       6.615  -3.840 -10.131  1.00 43.78 LIG-0.35  N 
ATOM     19 H    LEU R   7       6.707  -4.427 -10.753  1.00 43.78 LIG 0.16  HD
ATOM     20 O    THR R   6       6.516  -1.696  -9.437  1.00 41.48 LIG-0.27  OA
BRANCH 18 21
ATOM     21  CA  LEU R   7       6.433  -4.397  -8.797  1.00 53.52 LIG 0.16  C 
BRANCH 21 22
ATOM     22  CB  LEU R   7       7.351  -3.692  -7.795  1.00 41.32 LIG 0.04  C 
BRANCH 22 23
ATOM     23  CG  LEU R   7       7.100  -4.047  -6.326  1.00 48.65 LIG-0.02  C 
ATOM     24  CD1 LEU R   7       8.017  -5.171  -5.860  1.00 40.28 LIG 0.01  C 
ATOM     25  CD2 LEU R   7       7.260  -2.819  -5.437  1.00 37.72 LIG 0.01  C 
ENDBRANCH 22 23
ENDBRANCH 21 22
BRANCH 21 26
ATOM     26  C   LEU R   7       4.977  -4.306  -8.346  1.00 46.73 LIG 0.22  C 
ATOM     27 O    LEU R   7       4.239  -3.419  -8.777  1.00 57.50 LIG-0.29  OA
ENDBRANCH 21 26
ENDBRANCH 18 21
ENDBRANCH 12 17
ENDBRANCH 10 12
ENDBRANCH 4 8
BRANCH 1 28
ATOM     28  CA  PRO R   4       0.871  -2.519 -14.326  1.00 54.23 LIG 0.18  C 
ATOM     29  N   PRO R   4      -0.193  -2.087 -13.416  1.00 66.40 LIG-0.34  N 
ATOM     30  CD  PRO R   4      -0.050  -0.664 -13.076  1.00 55.20 LIG 0.13  C 
ATOM     31  C   MET R   3      -1.260  -2.789 -12.995  1.00 65.13 LIG 0.26  C 
ATOM     32  CG  PRO R   4       0.531  -0.098 -14.330  1.00 51.34 LIG 0.02  C 
ATOM     33  CB  PRO R   4       1.396  -1.192 -14.908  1.00 43.90 LIG 0.04  C 
ATOM     34 O    MET R   3      -2.064  -2.344 -12.173  1.00 74.37 LIG-0.27  OA
BRANCH 31 35
ATOM     35  CA  MET R   3      -1.463  -4.185 -13.582  1.00 67.30 LIG 0.40  C 
ATOM     36  N   MET R   3      -1.220  -4.237 -15.021  1.00 55.69 LIG 0.61  N 
BRANCH 35 37
ATOM     37  CB  MET R   3      -0.545  -5.164 -12.840  1.00 55.44 LIG 0.06  C 
BRANCH 37 38
ATOM     38  CG  MET R   3      -0.240  -4.802 -11.403  1.00 49.90 LIG 0.08  C 
BRANCH 38 39
ATOM     39 SD   MET R   3       0.404  -6.241 -10.531  1.00 67.63 LIG-0.17  SA
ATOM     40  CE  MET R   3       2.108  -5.750 -10.275  1.00 69.90 LIG 0.09  C 
ENDBRANCH 38 39
ENDBRANCH 37 38
ENDBRANCH 35 37
ENDBRANCH 31 35
ENDBRANCH 1 28
TORSDOF 14
ENDMDL
MODEL 44
USER: ADFR SOLUTION from run 122
USER: SCORE 11.267916 LL:  -3.554 LR:  -9.419 RR:   0.000 FEB:  -5.243
USER: RMSD 10.197033
USER: SEED 121
USER: STATUS no improvement in best in 12 clusters for 5 generations
USER: GENES 16
USER: genes 0 Translation |==|  0.54835 0.21103 0.78819
USER: genes 1 Rotation |==|  0.67180 0.55641 0.23980 0.88678
USER: genes 2 Torsion [N]-CA--C-[N] |==|  0.92617
USER: genes 3 Torsion [C]-N--CA-[CB] |==|  0.34303
USER: genes 4 Torsion [N]-CA--CB-[CG2] |==|  0.34628
USER: genes 5 Torsion [CA]-CB--OG1-[HG1] |==|  0.90594
USER: genes 6 Torsion [N]-CA--C-[N] |==|  0.34913
USER: genes 7 Torsion [C]-N--CA-[CB] |==|  0.81003
USER: genes 8 Torsion [N]-CA--CB-[CG] |==|  0.57425
USER: genes 9 Torsion [CA]-CB--CG-[CD1] |==|  0.31091
USER: genes 10 Torsion [N]-CA--C-[O] |==|  0.05073
USER: genes 11 Torsion [O]-C--CA-[N] |==|  0.91284
USER: genes 12 Torsion [N]-C--CA-[N] |==|  0.40234
USER: genes 13 Torsion [C]-CA--CB-[CG] |==|  0.16387
USER: genes 14 Torsion [CA]-CB--CG-[SD] |==|  0.19899
USER: genes 15 Torsion [CB]-CG--SD-[CE] |==|  0.53583
ROOT
ATOM      1  C   PRO R   4       6.636  -5.691  -9.317  1.00 60.54 LIG 0.24  C 
ATOM      2 O    PRO R   4       6.431  -5.629 -10.531  1.00 63.53 LIG-0.27  OA
ATOM      3  N   PRO R   5       6.862  -6.846  -8.666  1.00 48.92 LIG-0.34  N 
ATOM      4  CA  PRO R   5       6.837  -8.130  -9.379  1.00 52.68 LIG 0.18  C 
ATOM      5  CB  PRO R   5       7.131  -9.150  -8.272  1.00 55.54 LIG 0.04  C 
ATOM      6  CG  PRO R   5       7.890  -8.394  -7.247  1.00 46.13 LIG 0.02  C 
ATOM      7  CD  PRO R   5       7.335  -6.996  -7.278  1.00 43.47 LIG 0.13  C 
ENDROOT
BRANCH 4 8
ATOM      8  C   PRO R   5       5.485  -8.448 -10.024  1.00 58.07 LIG 0.24  C 
ATOM      9 O    PRO R   5       5.420  -9.175 -11.019  1.00 51.36 LIG-0.27  OA
ATOM     10  N   THR R   6       4.419  -7.893  -9.455  1.00 69.24 LIG-0.34  N 
ATOM     11 H    THR R   6       4.454  -7.423  -8.735  1.00 69.24 LIG 0.16  HD
BRANCH 10 12
ATOM     12  CA  THR R   6       3.077  -8.034 -10.011  1.00 55.31 LIG 0.20  C 
BRANCH 12 13
ATOM     13  CB  THR R   6       2.096  -8.640  -8.982  1.00 60.29 LIG 0.15  C 
ATOM     14  CG2 THR R   6       0.887  -7.737  -8.790  1.00 62.01 LIG 0.04  C 
BRANCH 13 15
ATOM     15 OG1  THR R   6       1.652  -9.924  -9.439  1.00 91.48 LIG-0.39  OA
ATOM     16 HG1  THR R   6       1.599  -9.920 -10.277  1.00 91.48 LIG 0.21  HD
ENDBRANCH 13 15
ENDBRANCH 12 13
BRANCH 12 17
ATOM     17  C   THR R   6       2.561  -6.675 -10.458  1.00 56.48 LIG 0.24  C 
ATOM     18  N   LEU R   7       2.145  -6.589 -11.719  1.00 43.78 LIG-0.35  N 
ATOM     19 H    LEU R   7       2.142  -7.250 -12.269  1.00 43.78 LIG 0.16  HD
ATOM     20 O    THR R   6       2.543  -5.722  -9.675  1.00 41.48 LIG-0.27  OA
BRANCH 18 21
ATOM     21  CA  LEU R   7       1.652  -5.337 -12.277  1.00 53.52 LIG 0.16  C 
BRANCH 21 22
ATOM     22  CB  LEU R   7       0.317  -4.955 -11.632  1.00 41.32 LIG 0.04  C 
BRANCH 22 23
ATOM     23  CG  LEU R   7      -0.599  -4.090 -12.502  1.00 48.65 LIG-0.02  C 
ATOM     24  CD1 LEU R   7      -1.845  -4.854 -12.931  1.00 40.28 LIG 0.01  C 
ATOM     25  CD2 LEU R   7      -0.980  -2.804 -11.778  1.00 37.72 LIG 0.01  C 
ENDBRANCH 22 23
ENDBRANCH 21 22
BRANCH 21 26
ATOM     26  C   LEU R   7       2.669  -4.211 -12.112  1.00 46.73 LIG 0.22  C 
ATOM     27 O    LEU R   7       3.853  -4.461 -11.880  1.00 57.50 LIG-0.29  OA
ENDBRANCH 21 26
ENDBRANCH 18 21
ENDBRANCH 12 17
ENDBRANCH 10 12
ENDBRANCH 4 8
BRANCH 1 28
ATOM     28  CA  PRO R   4       6.644  -4.399  -8.501  1.00 54.23 LIG 0.18  C 
ATOM     29  N   PRO R   4       7.131  -3.292  -9.329  1.00 66.40 LIG-0.34  N 
ATOM     30  CD  PRO R   4       6.012  -2.507  -9.870  1.00 55.20 LIG 0.13  C 
ATOM     31  C   MET R   3       8.402  -2.900  -9.524  1.00 65.13 LIG 0.26  C 
ATOM     32  CG  PRO R   4       4.997  -2.613  -8.778  1.00 51.34 LIG 0.02  C 
ATOM     33  CB  PRO R   4       5.200  -3.978  -8.166  1.00 43.90 LIG 0.04  C 
ATOM     34 O    MET R   3       8.703  -1.989 -10.299  1.00 74.37 LIG-0.27  OA
BRANCH 31 35
ATOM     35  CA  MET R   3       9.494  -3.624  -8.738  1.00 67.30 LIG 0.40  C 
ATOM     36  N   MET R   3      10.733  -3.776  -9.495  1.00 55.69 LIG 0.61  N 
BRANCH 35 37
ATOM     37  CB  MET R   3       9.745  -2.859  -7.433  1.00 55.44 LIG 0.06  C 
BRANCH 37 38
ATOM     38  CG  MET R   3       8.541  -2.714  -6.527  1.00 49.90 LIG 0.08  C 
BRANCH 38 39
ATOM     39 SD   MET R   3       8.141  -4.304  -5.778  1.00 67.63 LIG-0.17  SA
ATOM     40  CE  MET R   3       6.516  -3.964  -5.105  1.00 69.90 LIG 0.09  C 
ENDBRANCH 38 39
ENDBRANCH 37 38
ENDBRANCH 35 37
ENDBRANCH 31 35
ENDBRANCH 1 28
TORSDOF 14
ENDMDL
MODEL 45
USER: ADFR SOLUTION from run 148
USER: SCORE 12.265903 LL:  -3.583 LR:  -9.411 RR:   0.000 FEB:  -5.235
USER: RMSD 9.453446
USER: SEED 147
USER: STATUS no improvement in best in 18 clusters for 5 generations
USER: GENES 16
USER: genes 0 Translation |==|  0.35953 0.24790 0.75228
USER: genes 1 Rotation |==|  0.86440 0.54566 0.80720 0.64408
USER: genes 2 Torsion [N]-CA--C-[N] |==|  0.96023
USER: genes 3 Torsion [C]-N--CA-[CB] |==|  0.20000
USER: genes 4 Torsion [N]-CA--CB-[CG2] |==|  0.55308
USER: genes 5 Torsion [CA]-CB--OG1-[HG1] |==|  0.42797
USER: genes 6 Torsion [N]-CA--C-[N] |==|  0.17328
USER: genes 7 Torsion [C]-N--CA-[CB] |==|  0.49841
USER: genes 8 Torsion [N]-CA--CB-[CG] |==|  0.15553
USER: genes 9 Torsion [CA]-CB--CG-[CD1] |==|  0.31792
USER: genes 10 Torsion [N]-CA--C-[O] |==|  0.93477
USER: genes 11 Torsion [O]-C--CA-[N] |==|  0.84439
USER: genes 12 Torsion [N]-C--CA-[N] |==|  0.50261
USER: genes 13 Torsion [C]-CA--CB-[CG] |==|  0.49767
USER: genes 14 Torsion [CA]-CB--CG-[SD] |==|  0.60084
USER: genes 15 Torsion [CB]-CG--SD-[CE] |==|  0.98285
ROOT
ATOM      1  C   PRO R   4       3.237  -4.944 -10.044  1.00 60.54 LIG 0.24  C 
ATOM      2 O    PRO R   4       2.650  -3.870  -9.898  1.00 63.53 LIG-0.27  OA
ATOM      3  N   PRO R   5       4.453  -5.195  -9.526  1.00 48.92 LIG-0.34  N 
ATOM      4  CA  PRO R   5       5.180  -4.163  -8.774  1.00 52.68 LIG 0.18  C 
ATOM      5  CB  PRO R   5       6.486  -4.868  -8.388  1.00 55.54 LIG 0.04  C 
ATOM      6  CG  PRO R   5       6.153  -6.312  -8.373  1.00 46.13 LIG 0.02  C 
ATOM      7  CD  PRO R   5       5.126  -6.505  -9.456  1.00 43.47 LIG 0.13  C 
ENDROOT
BRANCH 4 8
ATOM      8  C   PRO R   5       5.494  -2.910  -9.596  1.00 58.07 LIG 0.24  C 
ATOM      9 O    PRO R   5       5.852  -1.869  -9.040  1.00 51.36 LIG-0.27  OA
ATOM     10  N   THR R   6       5.350  -3.023 -10.914  1.00 69.24 LIG-0.34  N 
ATOM     11 H    THR R   6       5.146  -3.758 -11.309  1.00 69.24 LIG 0.16  HD
BRANCH 10 12
ATOM     12  CA  THR R   6       5.528  -1.890 -11.815  1.00 55.31 LIG 0.20  C 
BRANCH 12 13
ATOM     13  CB  THR R   6       7.016  -1.490 -11.939  1.00 60.29 LIG 0.15  C 
ATOM     14  CG2 THR R   6       7.153  -0.072 -12.475  1.00 62.01 LIG 0.04  C 
BRANCH 13 15
ATOM     15 OG1  THR R   6       7.644  -1.566 -10.653  1.00 91.48 LIG-0.39  OA
ATOM     16 HG1  THR R   6       8.467  -1.702 -10.751  1.00 91.48 LIG 0.21  HD
ENDBRANCH 13 15
ENDBRANCH 12 13
BRANCH 12 17
ATOM     17  C   THR R   6       4.986  -2.239 -13.193  1.00 56.48 LIG 0.24  C 
ATOM     18  N   LEU R   7       3.684  -2.505 -13.262  1.00 43.78 LIG-0.35  N 
ATOM     19 H    LEU R   7       3.150  -2.473 -12.588  1.00 43.78 LIG 0.16  HD
ATOM     20 O    THR R   6       5.735  -2.272 -14.172  1.00 41.48 LIG-0.27  OA
BRANCH 18 21
ATOM     21  CA  LEU R   7       3.046  -2.877 -14.518  1.00 53.52 LIG 0.16  C 
BRANCH 21 22
ATOM     22  CB  LEU R   7       1.553  -3.137 -14.302  1.00 41.32 LIG 0.04  C 
BRANCH 22 23
ATOM     23  CG  LEU R   7       0.779  -1.977 -13.670  1.00 48.65 LIG-0.02  C 
ATOM     24  CD1 LEU R   7      -0.249  -1.401 -14.637  1.00 40.28 LIG 0.01  C 
ATOM     25  CD2 LEU R   7       0.110  -2.413 -12.373  1.00 37.72 LIG 0.01  C 
ENDBRANCH 22 23
ENDBRANCH 21 22
BRANCH 21 26
ATOM     26  C   LEU R   7       3.255  -1.810 -15.590  1.00 46.73 LIG 0.22  C 
ATOM     27 O    LEU R   7       3.495  -0.643 -15.278  1.00 57.50 LIG-0.29  OA
ENDBRANCH 21 26
ENDBRANCH 18 21
ENDBRANCH 12 17
ENDBRANCH 10 12
ENDBRANCH 4 8
BRANCH 1 28
ATOM     28  CA  PRO R   4       2.560  -6.055 -10.845  1.00 54.23 LIG 0.18  C 
ATOM     29  N   PRO R   4       1.247  -6.354 -10.266  1.00 66.40 LIG-0.34  N 
ATOM     30  CD  PRO R   4       0.177  -5.674 -11.010  1.00 55.20 LIG 0.13  C 
ATOM     31  C   MET R   3       0.955  -7.212  -9.273  1.00 65.13 LIG 0.26  C 
ATOM     32  CG  PRO R   4       0.716  -5.670 -12.403  1.00 51.34 LIG 0.02  C 
ATOM     33  CB  PRO R   4       2.214  -5.551 -12.260  1.00 43.90 LIG 0.04  C 
ATOM     34 O    MET R   3      -0.185  -7.336  -8.819  1.00 74.37 LIG-0.27  OA
BRANCH 31 35
ATOM     35  CA  MET R   3       2.096  -8.057  -8.710  1.00 67.30 LIG 0.40  C 
ATOM     36  N   MET R   3       1.662  -8.966  -7.653  1.00 55.69 LIG 0.61  N 
BRANCH 35 37
ATOM     37  CB  MET R   3       2.744  -8.833  -9.863  1.00 55.44 LIG 0.06  C 
BRANCH 37 38
ATOM     38  CG  MET R   3       3.914  -9.710  -9.474  1.00 49.90 LIG 0.08  C 
BRANCH 38 39
ATOM     39 SD   MET R   3       5.155  -9.692 -10.780  1.00 67.63 LIG-0.17  SA
ATOM     40  CE  MET R   3       4.304  -8.752 -12.046  1.00 69.90 LIG 0.09  C 
ENDBRANCH 38 39
ENDBRANCH 37 38
ENDBRANCH 35 37
ENDBRANCH 31 35
ENDBRANCH 1 28
TORSDOF 14
ENDMDL
MODEL 46
USER: ADFR SOLUTION from run 34
USER: SCORE 11.618341 LL:  -2.853 LR:  -9.395 RR:   0.000 FEB:  -5.219
USER: RMSD 10.272209
USER: SEED 33
USER: STATUS no improvement in best in 26 clusters for 5 generations
USER: GENES 16
USER: genes 0 Translation |==|  0.66386 0.28640 0.81338
USER: genes 1 Rotation |==|  0.55123 0.24254 0.17900 0.77937
USER: genes 2 Torsion [N]-CA--C-[N] |==|  0.40497
USER: genes 3 Torsion [C]-N--CA-[CB] |==|  0.48931
USER: genes 4 Torsion [N]-CA--CB-[CG2] |==|  0.25709
USER: genes 5 Torsion [CA]-CB--OG1-[HG1] |==|  0.70915
USER: genes 6 Torsion [N]-CA--C-[N] |==|  0.48127
USER: genes 7 Torsion [C]-N--CA-[CB] |==|  0.37103
USER: genes 8 Torsion [N]-CA--CB-[CG] |==|  0.49553
USER: genes 9 Torsion [CA]-CB--CG-[CD1] |==|  0.30457
USER: genes 10 Torsion [N]-CA--C-[O] |==|  0.17663
USER: genes 11 Torsion [O]-C--CA-[N] |==|  0.91520
USER: genes 12 Torsion [N]-C--CA-[N] |==|  0.48094
USER: genes 13 Torsion [C]-CA--CB-[CG] |==|  0.81114
USER: genes 14 Torsion [CA]-CB--CG-[SD] |==|  0.29058
USER: genes 15 Torsion [CB]-CG--SD-[CE] |==|  0.12362
ROOT
ATOM      1  C   PRO R   4       8.715  -4.164  -8.807  1.00 60.54 LIG 0.24  C 
ATOM      2 O    PRO R   4       8.760  -5.181  -9.503  1.00 63.53 LIG-0.27  OA
ATOM      3  N   PRO R   5       7.795  -3.969  -7.846  1.00 48.92 LIG-0.34  N 
ATOM      4  CA  PRO R   5       6.743  -4.964  -7.596  1.00 52.68 LIG 0.18  C 
ATOM      5  CB  PRO R   5       5.937  -4.339  -6.450  1.00 55.54 LIG 0.04  C 
ATOM      6  CG  PRO R   5       6.891  -3.443  -5.755  1.00 46.13 LIG 0.02  C 
ATOM      7  CD  PRO R   5       7.800  -2.904  -6.826  1.00 43.47 LIG 0.13  C 
ENDROOT
BRANCH 4 8
ATOM      8  C   PRO R   5       5.826  -5.204  -8.799  1.00 58.07 LIG 0.24  C 
ATOM      9 O    PRO R   5       5.538  -4.279  -9.562  1.00 51.36 LIG-0.27  OA
ATOM     10  N   THR R   6       5.372  -6.445  -8.951  1.00 69.24 LIG-0.34  N 
ATOM     11 H    THR R   6       5.606  -7.103  -8.449  1.00 69.24 LIG 0.16  HD
BRANCH 10 12
ATOM     12  CA  THR R   6       4.422  -6.803  -9.998  1.00 55.31 LIG 0.20  C 
BRANCH 12 13
ATOM     13  CB  THR R   6       4.134  -8.321 -10.011  1.00 60.29 LIG 0.15  C 
ATOM     14  CG2 THR R   6       2.919  -8.650  -9.157  1.00 62.01 LIG 0.04  C 
BRANCH 13 15
ATOM     15 OG1  THR R   6       3.890  -8.753 -11.356  1.00 91.48 LIG-0.39  OA
ATOM     16 HG1  THR R   6       3.067  -8.884 -11.463  1.00 91.48 LIG 0.21  HD
ENDBRANCH 13 15
ENDBRANCH 12 13
BRANCH 12 17
ATOM     17  C   THR R   6       3.118  -6.046  -9.789  1.00 56.48 LIG 0.24  C 
ATOM     18  N   LEU R   7       2.206  -6.169 -10.750  1.00 43.78 LIG-0.35  N 
ATOM     19 H    LEU R   7       2.312  -6.653 -11.453  1.00 43.78 LIG 0.16  HD
ATOM     20 O    THR R   6       2.945  -5.361  -8.778  1.00 41.48 LIG-0.27  OA
BRANCH 18 21
ATOM     21  CA  LEU R   7       0.927  -5.475 -10.683  1.00 53.52 LIG 0.16  C 
BRANCH 21 22
ATOM     22  CB  LEU R   7       0.612  -4.805 -12.022  1.00 41.32 LIG 0.04  C 
BRANCH 22 23
ATOM     23  CG  LEU R   7      -0.733  -4.075 -12.081  1.00 48.65 LIG-0.02  C 
ATOM     24  CD1 LEU R   7      -0.545  -2.564 -12.132  1.00 40.28 LIG 0.01  C 
ATOM     25  CD2 LEU R   7      -1.559  -4.554 -13.268  1.00 37.72 LIG 0.01  C 
ENDBRANCH 22 23
ENDBRANCH 21 22
BRANCH 21 26
ATOM     26  C   LEU R   7      -0.202  -6.421 -10.277  1.00 46.73 LIG 0.22  C 
ATOM     27 O    LEU R   7      -0.201  -6.964  -9.171  1.00 57.50 LIG-0.29  OA
ENDBRANCH 21 26
ENDBRANCH 18 21
ENDBRANCH 12 17
ENDBRANCH 10 12
ENDBRANCH 4 8
BRANCH 1 28
ATOM     28  CA  PRO R   4       9.756  -3.068  -9.032  1.00 54.23 LIG 0.18  C 
ATOM     29  N   PRO R   4      11.011  -3.663  -9.498  1.00 66.40 LIG-0.34  N 
ATOM     30  CD  PRO R   4      11.131  -3.562 -10.960  1.00 55.20 LIG 0.13  C 
ATOM     31  C   MET R   3      12.024  -4.148  -8.758  1.00 65.13 LIG 0.26  C 
ATOM     32  CG  PRO R   4      10.430  -2.274 -11.244  1.00 51.34 LIG 0.02  C 
ATOM     33  CB  PRO R   4       9.333  -2.172 -10.212  1.00 43.90 LIG 0.04  C 
ATOM     34 O    MET R   3      13.012  -4.689  -9.260  1.00 74.37 LIG-0.27  OA
BRANCH 31 35
ATOM     35  CA  MET R   3      11.923  -4.001  -7.241  1.00 67.30 LIG 0.40  C 
ATOM     36  N   MET R   3      12.992  -4.699  -6.530  1.00 55.69 LIG 0.61  N 
BRANCH 35 37
ATOM     37  CB  MET R   3      11.925  -2.508  -6.893  1.00 55.44 LIG 0.06  C 
BRANCH 37 38
ATOM     38  CG  MET R   3      13.227  -1.784  -7.159  1.00 49.90 LIG 0.08  C 
BRANCH 38 39
ATOM     39 SD   MET R   3      13.075  -0.773  -8.642  1.00 67.63 LIG-0.17  SA
ATOM     40  CE  MET R   3      11.473  -0.016  -8.377  1.00 69.90 LIG 0.09  C 
ENDBRANCH 38 39
ENDBRANCH 37 38
ENDBRANCH 35 37
ENDBRANCH 31 35
ENDBRANCH 1 28
TORSDOF 14
ENDMDL
MODEL 47
USER: ADFR SOLUTION from run 107
USER: SCORE 11.336291 LL:  -3.053 LR:  -9.365 RR:   0.000 FEB:  -5.189
USER: RMSD 7.328765
USER: SEED 106
USER: STATUS no improvement in best in 25 clusters for 5 generations
USER: GENES 16
USER: genes 0 Translation |==|  0.29536 0.30014 0.61609
USER: genes 1 Rotation |==|  0.53270 0.09816 0.74904 0.65949
USER: genes 2 Torsion [N]-CA--C-[N] |==|  0.06118
USER: genes 3 Torsion [C]-N--CA-[CB] |==|  0.23324
USER: genes 4 Torsion [N]-CA--CB-[CG2] |==|  0.74449
USER: genes 5 Torsion [CA]-CB--OG1-[HG1] |==|  0.63234
USER: genes 6 Torsion [N]-CA--C-[N] |==|  0.20578
USER: genes 7 Torsion [C]-N--CA-[CB] |==|  0.84675
USER: genes 8 Torsion [N]-CA--CB-[CG] |==|  0.62911
USER: genes 9 Torsion [CA]-CB--CG-[CD1] |==|  0.33164
USER: genes 10 Torsion [N]-CA--C-[O] |==|  0.43235
USER: genes 11 Torsion [O]-C--CA-[N] |==|  0.90946
USER: genes 12 Torsion [N]-C--CA-[N] |==|  0.84493
USER: genes 13 Torsion [C]-CA--CB-[CG] |==|  0.39182
USER: genes 14 Torsion [CA]-CB--CG-[SD] |==|  0.52591
USER: genes 15 Torsion [CB]-CG--SD-[CE] |==|  0.06594
ROOT
ATOM      1  C   PRO R   4       2.082  -3.886 -12.802  1.00 60.54 LIG 0.24  C 
ATOM      2 O    PRO R   4       2.365  -3.352 -11.728  1.00 63.53 LIG-0.27  OA
ATOM      3  N   PRO R   5       0.994  -4.657 -12.978  1.00 48.92 LIG-0.34  N 
ATOM      4  CA  PRO R   5       0.083  -4.941 -11.861  1.00 52.68 LIG 0.18  C 
ATOM      5  CB  PRO R   5      -0.984  -5.838 -12.501  1.00 55.54 LIG 0.04  C 
ATOM      6  CG  PRO R   5      -0.970  -5.484 -13.940  1.00 46.13 LIG 0.02  C 
ATOM      7  CD  PRO R   5       0.460  -5.145 -14.262  1.00 43.47 LIG 0.13  C 
ENDROOT
BRANCH 4 8
ATOM      8  C   PRO R   5       0.749  -5.683 -10.699  1.00 58.07 LIG 0.24  C 
ATOM      9 O    PRO R   5       0.071  -6.329  -9.897  1.00 51.36 LIG-0.27  OA
ATOM     10  N   THR R   6       2.073  -5.575 -10.617  1.00 69.24 LIG-0.34  N 
ATOM     11 H    THR R   6       2.554  -5.164 -11.199  1.00 69.24 LIG 0.16  HD
BRANCH 10 12
ATOM     12  CA  THR R   6       2.833  -6.153  -9.515  1.00 55.31 LIG 0.20  C 
BRANCH 12 13
ATOM     13  CB  THR R   6       3.147  -7.646  -9.760  1.00 60.29 LIG 0.15  C 
ATOM     14  CG2 THR R   6       2.068  -8.533  -9.157  1.00 62.01 LIG 0.04  C 
BRANCH 13 15
ATOM     15 OG1  THR R   6       3.222  -7.897 -11.170  1.00 91.48 LIG-0.39  OA
ATOM     16 HG1  THR R   6       2.769  -8.578 -11.358  1.00 91.48 LIG 0.21  HD
ENDBRANCH 13 15
ENDBRANCH 12 13
BRANCH 12 17
ATOM     17  C   THR R   6       4.137  -5.390  -9.334  1.00 56.48 LIG 0.24  C 
ATOM     18  N   LEU R   7       4.040  -4.184  -8.779  1.00 43.78 LIG-0.35  N 
ATOM     19 H    LEU R   7       3.300  -3.835  -8.514  1.00 43.78 LIG 0.16  HD
ATOM     20 O    THR R   6       5.208  -5.883  -9.694  1.00 41.48 LIG-0.27  OA
BRANCH 18 21
ATOM     21  CA  LEU R   7       5.211  -3.341  -8.574  1.00 53.52 LIG 0.16  C 
BRANCH 21 22
ATOM     22  CB  LEU R   7       6.271  -4.090  -7.764  1.00 41.32 LIG 0.04  C 
BRANCH 22 23
ATOM     23  CG  LEU R   7       6.891  -3.291  -6.613  1.00 48.65 LIG-0.02  C 
ATOM     24  CD1 LEU R   7       6.640  -3.964  -5.270  1.00 40.28 LIG 0.01  C 
ATOM     25  CD2 LEU R   7       8.384  -3.084  -6.839  1.00 37.72 LIG 0.01  C 
ENDBRANCH 22 23
ENDBRANCH 21 22
BRANCH 21 26
ATOM     26  C   LEU R   7       5.791  -2.858  -9.902  1.00 46.73 LIG 0.22  C 
ATOM     27 O    LEU R   7       6.463  -1.826  -9.956  1.00 57.50 LIG-0.29  OA
ENDBRANCH 21 26
ENDBRANCH 18 21
ENDBRANCH 12 17
ENDBRANCH 10 12
ENDBRANCH 4 8
BRANCH 1 28
ATOM     28  CA  PRO R   4       3.002  -3.665 -14.003  1.00 54.23 LIG 0.18  C 
ATOM     29  N   PRO R   4       3.595  -2.327 -13.934  1.00 66.40 LIG-0.34  N 
ATOM     30  CD  PRO R   4       4.953  -2.381 -13.374  1.00 55.20 LIG 0.13  C 
ATOM     31  C   MET R   3       3.091  -1.172 -14.403  1.00 65.13 LIG 0.26  C 
ATOM     32  CG  PRO R   4       5.442  -3.705 -13.864  1.00 51.34 LIG 0.02  C 
ATOM     33  CB  PRO R   4       4.226  -4.597 -13.909  1.00 43.90 LIG 0.04  C 
ATOM     34 O    MET R   3       3.651  -0.086 -14.231  1.00 74.37 LIG-0.27  OA
BRANCH 31 35
ATOM     35  CA  MET R   3       1.779  -1.238 -15.182  1.00 67.30 LIG 0.40  C 
ATOM     36  N   MET R   3       1.841  -2.149 -16.322  1.00 55.69 LIG 0.61  N 
BRANCH 35 37
ATOM     37  CB  MET R   3       0.659  -1.649 -14.219  1.00 55.44 LIG 0.06  C 
BRANCH 37 38
ATOM     38  CG  MET R   3      -0.665  -0.948 -14.430  1.00 49.90 LIG 0.08  C 
BRANCH 38 39
ATOM     39 SD   MET R   3      -1.785  -1.327 -13.071  1.00 67.63 LIG-0.17  SA
ATOM     40  CE  MET R   3      -0.619  -1.753 -11.778  1.00 69.90 LIG 0.09  C 
ENDBRANCH 38 39
ENDBRANCH 37 38
ENDBRANCH 35 37
ENDBRANCH 31 35
ENDBRANCH 1 28
TORSDOF 14
ENDMDL
MODEL 48
USER: ADFR SOLUTION from run 68
USER: SCORE 11.283730 LL:  -3.099 LR:  -9.348 RR:   0.000 FEB:  -5.171
USER: RMSD 10.238455
USER: SEED 67
USER: STATUS no improvement in best in 16 clusters for 5 generations
USER: GENES 16
USER: genes 0 Translation |==|  0.51285 0.26989 0.78492
USER: genes 1 Rotation |==|  0.67635 0.94910 0.62485 0.54031
USER: genes 2 Torsion [N]-CA--C-[N] |==|  0.43253
USER: genes 3 Torsion [C]-N--CA-[CB] |==|  0.27382
USER: genes 4 Torsion [N]-CA--CB-[CG2] |==|  0.91907
USER: genes 5 Torsion [CA]-CB--OG1-[HG1] |==|  0.34146
USER: genes 6 Torsion [N]-CA--C-[N] |==|  0.92432
USER: genes 7 Torsion [C]-N--CA-[CB] |==|  0.82210
USER: genes 8 Torsion [N]-CA--CB-[CG] |==|  0.73221
USER: genes 9 Torsion [CA]-CB--CG-[CD1] |==|  0.91562
USER: genes 10 Torsion [N]-CA--C-[O] |==|  0.05412
USER: genes 11 Torsion [O]-C--CA-[N] |==|  0.90078
USER: genes 12 Torsion [N]-C--CA-[N] |==|  0.38957
USER: genes 13 Torsion [C]-CA--CB-[CG] |==|  0.23497
USER: genes 14 Torsion [CA]-CB--CG-[SD] |==|  0.20159
USER: genes 15 Torsion [CB]-CG--SD-[CE] |==|  0.16176
ROOT
ATOM      1  C   PRO R   4       5.997  -4.499  -9.383  1.00 60.54 LIG 0.24  C 
ATOM      2 O    PRO R   4       4.933  -4.926  -8.931  1.00 63.53 LIG-0.27  OA
ATOM      3  N   PRO R   5       6.068  -3.501 -10.283  1.00 48.92 LIG-0.34  N 
ATOM      4  CA  PRO R   5       4.848  -2.879 -10.816  1.00 52.68 LIG 0.18  C 
ATOM      5  CB  PRO R   5       5.391  -1.824 -11.787  1.00 55.54 LIG 0.04  C 
ATOM      6  CG  PRO R   5       6.747  -1.500 -11.284  1.00 46.13 LIG 0.02  C 
ATOM      7  CD  PRO R   5       7.283  -2.781 -10.705  1.00 43.47 LIG 0.13  C 
ENDROOT
BRANCH 4 8
ATOM      8  C   PRO R   5       3.941  -3.854 -11.570  1.00 58.07 LIG 0.24  C 
ATOM      9 O    PRO R   5       4.406  -4.876 -12.082  1.00 51.36 LIG-0.27  OA
ATOM     10  N   THR R   6       2.653  -3.525 -11.637  1.00 69.24 LIG-0.34  N 
ATOM     11 H    THR R   6       2.316  -2.839 -11.244  1.00 69.24 LIG 0.16  HD
BRANCH 10 12
ATOM     12  CA  THR R   6       1.688  -4.312 -12.396  1.00 55.31 LIG 0.20  C 
BRANCH 12 13
ATOM     13  CB  THR R   6       0.893  -5.273 -11.484  1.00 60.29 LIG 0.15  C 
ATOM     14  CG2 THR R   6       1.724  -5.686 -10.278  1.00 62.01 LIG 0.04  C 
BRANCH 13 15
ATOM     15 OG1  THR R   6      -0.302  -4.626 -11.028  1.00 91.48 LIG-0.39  OA
ATOM     16 HG1  THR R   6      -0.970  -5.086 -11.248  1.00 91.48 LIG 0.21  HD
ENDBRANCH 13 15
ENDBRANCH 12 13
BRANCH 12 17
ATOM     17  C   THR R   6       0.718  -3.383 -13.113  1.00 56.48 LIG 0.24  C 
ATOM     18  N   LEU R   7       0.516  -2.195 -12.548  1.00 43.78 LIG-0.35  N 
ATOM     19 H    LEU R   7       0.907  -1.933 -11.828  1.00 43.78 LIG 0.16  HD
ATOM     20 O    THR R   6       0.162  -3.739 -14.154  1.00 41.48 LIG-0.27  OA
BRANCH 18 21
ATOM     21  CA  LEU R   7      -0.408  -1.225 -13.121  1.00 53.52 LIG 0.16  C 
BRANCH 21 22
ATOM     22  CB  LEU R   7       0.081  -0.773 -14.498  1.00 41.32 LIG 0.04  C 
BRANCH 22 23
ATOM     23  CG  LEU R   7       0.877   0.536 -14.506  1.00 48.65 LIG-0.02  C 
ATOM     24  CD1 LEU R   7       0.424   1.470 -13.391  1.00 40.28 LIG 0.01  C 
ATOM     25  CD2 LEU R   7       2.372   0.263 -14.403  1.00 37.72 LIG 0.01  C 
ENDBRANCH 22 23
ENDBRANCH 21 22
BRANCH 21 26
ATOM     26  C   LEU R   7      -1.825  -1.787 -13.212  1.00 46.73 LIG 0.22  C 
ATOM     27 O    LEU R   7      -2.163  -2.754 -12.528  1.00 57.50 LIG-0.29  OA
ENDBRANCH 21 26
ENDBRANCH 18 21
ENDBRANCH 12 17
ENDBRANCH 10 12
ENDBRANCH 4 8
BRANCH 1 28
ATOM     28  CA  PRO R   4       7.308  -5.119  -8.902  1.00 54.23 LIG 0.18  C 
ATOM     29  N   PRO R   4       7.198  -5.476  -7.485  1.00 66.40 LIG-0.34  N 
ATOM     30  CD  PRO R   4       6.892  -6.905  -7.324  1.00 55.20 LIG 0.13  C 
ATOM     31  C   MET R   3       7.443  -4.701  -6.414  1.00 65.13 LIG 0.26  C 
ATOM     32  CG  PRO R   4       7.602  -7.511  -8.491  1.00 51.34 LIG 0.02  C 
ATOM     33  CB  PRO R   4       7.532  -6.480  -9.591  1.00 43.90 LIG 0.04  C 
ATOM     34 O    MET R   3       7.254  -5.089  -5.259  1.00 74.37 LIG-0.27  OA
BRANCH 31 35
ATOM     35  CA  MET R   3       7.985  -3.296  -6.668  1.00 67.30 LIG 0.40  C 
ATOM     36  N   MET R   3       7.403  -2.294  -5.778  1.00 55.69 LIG 0.61  N 
BRANCH 35 37
ATOM     37  CB  MET R   3       9.511  -3.327  -6.526  1.00 55.44 LIG 0.06  C 
BRANCH 37 38
ATOM     38  CG  MET R   3      10.266  -3.751  -7.767  1.00 49.90 LIG 0.08  C 
BRANCH 38 39
ATOM     39 SD   MET R   3      10.210  -2.437  -8.999  1.00 67.63 LIG-0.17  SA
ATOM     40  CE  MET R   3      10.953  -1.085  -8.089  1.00 69.90 LIG 0.09  C 
ENDBRANCH 38 39
ENDBRANCH 37 38
ENDBRANCH 35 37
ENDBRANCH 31 35
ENDBRANCH 1 28
TORSDOF 14
ENDMDL
MODEL 49
USER: ADFR SOLUTION from run 192
USER: SCORE 12.021035 LL:  -2.703 LR:  -9.343 RR:   0.000 FEB:  -5.167
USER: RMSD 9.550500
USER: SEED 191
USER: STATUS no improvement in best in 33 clusters for 5 generations
USER: GENES 16
USER: genes 0 Translation |==|  0.36463 0.26788 0.70746
USER: genes 1 Rotation |==|  0.80450 0.56135 0.82962 0.71182
USER: genes 2 Torsion [N]-CA--C-[N] |==|  0.47080
USER: genes 3 Torsion [C]-N--CA-[CB] |==|  0.85000
USER: genes 4 Torsion [N]-CA--CB-[CG2] |==|  0.51662
USER: genes 5 Torsion [CA]-CB--OG1-[HG1] |==|  0.46721
USER: genes 6 Torsion [N]-CA--C-[N] |==|  0.36415
USER: genes 7 Torsion [C]-N--CA-[CB] |==|  0.25710
USER: genes 8 Torsion [N]-CA--CB-[CG] |==|  0.63069
USER: genes 9 Torsion [CA]-CB--CG-[CD1] |==|  0.72054
USER: genes 10 Torsion [N]-CA--C-[O] |==|  0.74048
USER: genes 11 Torsion [O]-C--CA-[N] |==|  0.84426
USER: genes 12 Torsion [N]-C--CA-[N] |==|  0.50236
USER: genes 13 Torsion [C]-CA--CB-[CG] |==|  0.64872
USER: genes 14 Torsion [CA]-CB--CG-[SD] |==|  0.78860
USER: genes 15 Torsion [CB]-CG--SD-[CE] |==|  0.82751
ROOT
ATOM      1  C   PRO R   4       3.329  -4.539 -10.952  1.00 60.54 LIG 0.24  C 
ATOM      2 O    PRO R   4       2.840  -3.449 -11.253  1.00 63.53 LIG-0.27  OA
ATOM      3  N   PRO R   5       4.381  -4.671 -10.123  1.00 48.92 LIG-0.34  N 
ATOM      4  CA  PRO R   5       5.041  -3.491  -9.550  1.00 52.68 LIG 0.18  C 
ATOM      5  CB  PRO R   5       6.161  -4.098  -8.696  1.00 55.54 LIG 0.04  C 
ATOM      6  CG  PRO R   5       5.683  -5.457  -8.347  1.00 46.13 LIG 0.02  C 
ATOM      7  CD  PRO R   5       4.885  -5.925  -9.534  1.00 43.47 LIG 0.13  C 
ENDROOT
BRANCH 4 8
ATOM      8  C   PRO R   5       5.646  -2.555 -10.601  1.00 58.07 LIG 0.24  C 
ATOM      9 O    PRO R   5       5.733  -2.909 -11.779  1.00 51.36 LIG-0.27  OA
ATOM     10  N   THR R   6       6.063  -1.371 -10.160  1.00 69.24 LIG-0.34  N 
ATOM     11 H    THR R   6       5.962  -1.102  -9.350  1.00 69.24 LIG 0.16  HD
BRANCH 10 12
ATOM     12  CA  THR R   6       6.738  -0.412 -11.028  1.00 55.31 LIG 0.20  C 
BRANCH 12 13
ATOM     13  CB  THR R   6       7.961  -1.043 -11.731  1.00 60.29 LIG 0.15  C 
ATOM     14  CG2 THR R   6       8.737   0.005 -12.514  1.00 62.01 LIG 0.04  C 
BRANCH 13 15
ATOM     15 OG1  THR R   6       8.828  -1.632 -10.752  1.00 91.48 LIG-0.39  OA
ATOM     16 HG1  THR R   6       9.402  -2.109 -11.137  1.00 91.48 LIG 0.21  HD
ENDBRANCH 13 15
ENDBRANCH 12 13
BRANCH 12 17
ATOM     17  C   THR R   6       5.766   0.103 -12.079  1.00 56.48 LIG 0.24  C 
ATOM     18  N   LEU R   7       5.715   1.424 -12.235  1.00 43.78 LIG-0.35  N 
ATOM     19 H    LEU R   7       6.202   1.979 -11.794  1.00 43.78 LIG 0.16  HD
ATOM     20 O    THR R   6       5.074  -0.681 -12.731  1.00 41.48 LIG-0.27  OA
BRANCH 18 21
ATOM     21  CA  LEU R   7       4.807   2.045 -13.191  1.00 53.52 LIG 0.16  C 
BRANCH 21 22
ATOM     22  CB  LEU R   7       3.486   2.411 -12.510  1.00 41.32 LIG 0.04  C 
BRANCH 22 23
ATOM     23  CG  LEU R   7       2.226   1.998 -13.278  1.00 48.65 LIG-0.02  C 
ATOM     24  CD1 LEU R   7       1.619   3.177 -14.028  1.00 40.28 LIG 0.01  C 
ATOM     25  CD2 LEU R   7       2.525   0.850 -14.234  1.00 37.72 LIG 0.01  C 
ENDBRANCH 22 23
ENDBRANCH 21 22
BRANCH 21 26
ATOM     26  C   LEU R   7       5.435   3.276 -13.840  1.00 46.73 LIG 0.22  C 
ATOM     27 O    LEU R   7       5.247   4.400 -13.372  1.00 57.50 LIG-0.29  OA
ENDBRANCH 21 26
ENDBRANCH 18 21
ENDBRANCH 12 17
ENDBRANCH 10 12
ENDBRANCH 4 8
BRANCH 1 28
ATOM     28  CA  PRO R   4       2.718  -5.812 -11.536  1.00 54.23 LIG 0.18  C 
ATOM     29  N   PRO R   4       1.291  -5.873 -11.208  1.00 66.40 LIG-0.34  N 
ATOM     30  CD  PRO R   4       0.471  -5.405 -12.335  1.00 55.20 LIG 0.13  C 
ATOM     31  C   MET R   3       0.715  -6.382 -10.105  1.00 65.13 LIG 0.26  C 
ATOM     32  CG  PRO R   4       1.280  -5.839 -13.514  1.00 51.34 LIG 0.02  C 
ATOM     33  CB  PRO R   4       2.721  -5.741 -13.076  1.00 43.90 LIG 0.04  C 
ATOM     34 O    MET R   3      -0.501  -6.320  -9.904  1.00 74.37 LIG-0.27  OA
BRANCH 31 35
ATOM     35  CA  MET R   3       1.623  -7.063  -9.084  1.00 67.30 LIG 0.40  C 
ATOM     36  N   MET R   3       0.891  -7.596  -7.938  1.00 55.69 LIG 0.61  N 
BRANCH 35 37
ATOM     37  CB  MET R   3       2.406  -8.175  -9.792  1.00 55.44 LIG 0.06  C 
BRANCH 37 38
ATOM     38  CG  MET R   3       2.305  -9.544  -9.154  1.00 49.90 LIG 0.08  C 
BRANCH 38 39
ATOM     39 SD   MET R   3       3.337  -9.611  -7.678  1.00 67.63 LIG-0.17  SA
ATOM     40  CE  MET R   3       4.960  -9.333  -8.384  1.00 69.90 LIG 0.09  C 
ENDBRANCH 38 39
ENDBRANCH 37 38
ENDBRANCH 35 37
ENDBRANCH 31 35
ENDBRANCH 1 28
TORSDOF 14
ENDMDL
MODEL 50
USER: ADFR SOLUTION from run 130
USER: SCORE 11.430146 LL:  -2.840 LR:  -9.328 RR:   0.000 FEB:  -5.151
USER: RMSD 9.805095
USER: SEED 129
USER: STATUS no improvement in best in 6 clusters for 5 generations
USER: GENES 16
USER: genes 0 Translation |==|  0.54582 0.39073 0.71528
USER: genes 1 Rotation |==|  0.02895 0.34302 0.44201 0.51048
USER: genes 2 Torsion [N]-CA--C-[N] |==|  0.43055
USER: genes 3 Torsion [C]-N--CA-[CB] |==|  0.17217
USER: genes 4 Torsion [N]-CA--CB-[CG2] |==|  0.72912
USER: genes 5 Torsion [CA]-CB--OG1-[HG1] |==|  0.82625
USER: genes 6 Torsion [N]-CA--C-[N] |==|  0.70273
USER: genes 7 Torsion [C]-N--CA-[CB] |==|  0.37930
USER: genes 8 Torsion [N]-CA--CB-[CG] |==|  0.23056
USER: genes 9 Torsion [CA]-CB--CG-[CD1] |==|  0.29423
USER: genes 10 Torsion [N]-CA--C-[O] |==|  0.06076
USER: genes 11 Torsion [O]-C--CA-[N] |==|  0.97624
USER: genes 12 Torsion [N]-C--CA-[N] |==|  0.19999
USER: genes 13 Torsion [C]-CA--CB-[CG] |==|  0.72616
USER: genes 14 Torsion [CA]-CB--CG-[SD] |==|  0.22391
USER: genes 15 Torsion [CB]-CG--SD-[CE] |==|  0.72347
ROOT
ATOM      1  C   PRO R   4       6.591  -2.052 -10.794  1.00 60.54 LIG 0.24  C 
ATOM      2 O    PRO R   4       6.404  -1.315  -9.823  1.00 63.53 LIG-0.27  OA
ATOM      3  N   PRO R   5       7.421  -1.741 -11.805  1.00 48.92 LIG-0.34  N 
ATOM      4  CA  PRO R   5       8.136  -0.458 -11.827  1.00 52.68 LIG 0.18  C 
ATOM      5  CB  PRO R   5       8.940  -0.528 -13.131  1.00 55.54 LIG 0.04  C 
ATOM      6  CG  PRO R   5       9.123  -1.976 -13.391  1.00 46.13 LIG 0.02  C 
ATOM      7  CD  PRO R   5       7.876  -2.643 -12.879  1.00 43.47 LIG 0.13  C 
ENDROOT
BRANCH 4 8
ATOM      8  C   PRO R   5       7.210   0.761 -11.858  1.00 58.07 LIG 0.24  C 
ATOM      9 O    PRO R   5       6.069   0.669 -12.319  1.00 51.36 LIG-0.27  OA
ATOM     10  N   THR R   6       7.714   1.893 -11.373  1.00 69.24 LIG-0.34  N 
ATOM     11 H    THR R   6       8.491   1.951 -11.009  1.00 69.24 LIG 0.16  HD
BRANCH 10 12
ATOM     12  CA  THR R   6       6.980   3.153 -11.418  1.00 55.31 LIG 0.20  C 
BRANCH 12 13
ATOM     13  CB  THR R   6       5.667   3.076 -10.608  1.00 60.29 LIG 0.15  C 
ATOM     14  CG2 THR R   6       4.484   2.787 -11.519  1.00 62.01 LIG 0.04  C 
BRANCH 13 15
ATOM     15 OG1  THR R   6       5.766   2.036  -9.626  1.00 91.48 LIG-0.39  OA
ATOM     16 HG1  THR R   6       5.865   1.296 -10.011  1.00 91.48 LIG 0.21  HD
ENDBRANCH 13 15
ENDBRANCH 12 13
BRANCH 12 17
ATOM     17  C   THR R   6       7.848   4.272 -10.863  1.00 56.48 LIG 0.24  C 
ATOM     18  N   LEU R   7       7.516   4.732  -9.659  1.00 43.78 LIG-0.35  N 
ATOM     19 H    LEU R   7       6.863   4.424  -9.190  1.00 43.78 LIG 0.16  HD
ATOM     20 O    THR R   6       8.797   4.713 -11.515  1.00 41.48 LIG-0.27  OA
BRANCH 18 21
ATOM     21  CA  LEU R   7       8.251   5.820  -9.027  1.00 53.52 LIG 0.16  C 
BRANCH 21 22
ATOM     22  CB  LEU R   7       7.283   6.816  -8.386  1.00 41.32 LIG 0.04  C 
BRANCH 22 23
ATOM     23  CG  LEU R   7       6.787   6.430  -6.989  1.00 48.65 LIG-0.02  C 
ATOM     24  CD1 LEU R   7       7.447   7.279  -5.909  1.00 40.28 LIG 0.01  C 
ATOM     25  CD2 LEU R   7       5.270   6.536  -6.903  1.00 37.72 LIG 0.01  C 
ENDBRANCH 22 23
ENDBRANCH 21 22
BRANCH 21 26
ATOM     26  C   LEU R   7       9.246   5.296  -7.993  1.00 46.73 LIG 0.22  C 
ATOM     27 O    LEU R   7       9.652   4.134  -8.043  1.00 57.50 LIG-0.29  OA
ENDBRANCH 21 26
ENDBRANCH 18 21
ENDBRANCH 12 17
ENDBRANCH 10 12
ENDBRANCH 4 8
BRANCH 1 28
ATOM     28  CA  PRO R   4       5.855  -3.390 -10.860  1.00 54.23 LIG 0.18  C 
ATOM     29  N   PRO R   4       5.172  -3.643  -9.588  1.00 66.40 LIG-0.34  N 
ATOM     30  CD  PRO R   4       3.750  -3.279  -9.672  1.00 55.20 LIG 0.13  C 
ATOM     31  C   MET R   3       5.665  -4.235  -8.486  1.00 65.13 LIG 0.26  C 
ATOM     32  CG  PRO R   4       3.430  -3.590 -11.098  1.00 51.34 LIG 0.02  C 
ATOM     33  CB  PRO R   4       4.695  -3.305 -11.871  1.00 43.90 LIG 0.04  C 
ATOM     34 O    MET R   3       5.016  -4.339  -7.443  1.00 74.37 LIG-0.27  OA
BRANCH 31 35
ATOM     35  CA  MET R   3       7.083  -4.798  -8.561  1.00 67.30 LIG 0.40  C 
ATOM     36  N   MET R   3       8.107  -3.757  -8.589  1.00 55.69 LIG 0.61  N 
BRANCH 35 37
ATOM     37  CB  MET R   3       7.299  -5.739  -7.370  1.00 55.44 LIG 0.06  C 
BRANCH 37 38
ATOM     38  CG  MET R   3       8.032  -5.134  -6.192  1.00 49.90 LIG 0.08  C 
BRANCH 38 39
ATOM     39 SD   MET R   3       6.892  -4.155  -5.197  1.00 67.63 LIG-0.17  SA
ATOM     40  CE  MET R   3       7.266  -2.502  -5.778  1.00 69.90 LIG 0.09  C 
ENDBRANCH 38 39
ENDBRANCH 37 38
ENDBRANCH 35 37
ENDBRANCH 31 35
ENDBRANCH 1 28
TORSDOF 14
ENDMDL
MODEL 51
USER: ADFR SOLUTION from run 1
USER: SCORE 11.006445 LL:  -2.645 LR:  -9.329 RR:   0.000 FEB:  -5.153
USER: RMSD 10.417651
USER: SEED 139530
USER: STATUS no improvement in best in 27 clusters for 5 generations
USER: GENES 16
USER: genes 0 Translation |==|  0.70176 0.33334 0.80972
USER: genes 1 Rotation |==|  0.57511 0.32454 0.08424 0.70178
USER: genes 2 Torsion [N]-CA--C-[N] |==|  0.46451
USER: genes 3 Torsion [C]-N--CA-[CB] |==|  0.21626
USER: genes 4 Torsion [N]-CA--CB-[CG2] |==|  0.22820
USER: genes 5 Torsion [CA]-CB--OG1-[HG1] |==|  0.87603
USER: genes 6 Torsion [N]-CA--C-[N] |==|  0.50266
USER: genes 7 Torsion [C]-N--CA-[CB] |==|  0.53175
USER: genes 8 Torsion [N]-CA--CB-[CG] |==|  0.72167
USER: genes 9 Torsion [CA]-CB--CG-[CD1] |==|  0.20490
USER: genes 10 Torsion [N]-CA--C-[O] |==|  0.38553
USER: genes 11 Torsion [O]-C--CA-[N] |==|  0.90443
USER: genes 12 Torsion [N]-C--CA-[N] |==|  0.85495
USER: genes 13 Torsion [C]-CA--CB-[CG] |==|  0.41382
USER: genes 14 Torsion [CA]-CB--CG-[SD] |==|  0.40955
USER: genes 15 Torsion [CB]-CG--SD-[CE] |==|  0.17264
ROOT
ATOM      1  C   PRO R   4       9.398  -3.214  -8.881  1.00 60.54 LIG 0.24  C 
ATOM      2 O    PRO R   4       9.176  -3.740  -9.973  1.00 63.53 LIG-0.27  OA
ATOM      3  N   PRO R   5       8.511  -3.215  -7.870  1.00 48.92 LIG-0.34  N 
ATOM      4  CA  PRO R   5       7.184  -3.824  -8.030  1.00 52.68 LIG 0.18  C 
ATOM      5  CB  PRO R   5       6.527  -3.593  -6.664  1.00 55.54 LIG 0.04  C 
ATOM      6  CG  PRO R   5       7.655  -3.479  -5.709  1.00 46.13 LIG 0.02  C 
ATOM      7  CD  PRO R   5       8.769  -2.816  -6.474  1.00 43.47 LIG 0.13  C 
ENDROOT
BRANCH 4 8
ATOM      8  C   PRO R   5       6.337  -3.171  -9.126  1.00 58.07 LIG 0.24  C 
ATOM      9 O    PRO R   5       6.670  -2.088  -9.613  1.00 51.36 LIG-0.27  OA
ATOM     10  N   THR R   6       5.246  -3.835  -9.497  1.00 69.24 LIG-0.34  N 
ATOM     11 H    THR R   6       5.034  -4.611  -9.193  1.00 69.24 LIG 0.16  HD
BRANCH 10 12
ATOM     12  CA  THR R   6       4.298  -3.294 -10.465  1.00 55.31 LIG 0.20  C 
BRANCH 12 13
ATOM     13  CB  THR R   6       4.819  -3.438 -11.913  1.00 60.29 LIG 0.15  C 
ATOM     14  CG2 THR R   6       4.543  -4.833 -12.452  1.00 62.01 LIG 0.04  C 
BRANCH 13 15
ATOM     15 OG1  THR R   6       4.171  -2.475 -12.755  1.00 91.48 LIG-0.39  OA
ATOM     16 HG1  THR R   6       3.349  -2.464 -12.586  1.00 91.48 LIG 0.21  HD
ENDBRANCH 13 15
ENDBRANCH 12 13
BRANCH 12 17
ATOM     17  C   THR R   6       2.965  -4.016 -10.337  1.00 56.48 LIG 0.24  C 
ATOM     18  N   LEU R   7       2.007  -3.635 -11.178  1.00 43.78 LIG-0.35  N 
ATOM     19 H    LEU R   7       2.110  -3.030 -11.781  1.00 43.78 LIG 0.16  HD
ATOM     20 O    THR R   6       2.807  -4.897  -9.489  1.00 41.48 LIG-0.27  OA
BRANCH 18 21
ATOM     21  CA  LEU R   7       0.677  -4.230 -11.142  1.00 53.52 LIG 0.16  C 
BRANCH 21 22
ATOM     22  CB  LEU R   7      -0.124  -3.821 -12.379  1.00 41.32 LIG 0.04  C 
BRANCH 22 23
ATOM     23  CG  LEU R   7      -1.127  -2.684 -12.156  1.00 48.65 LIG-0.02  C 
ATOM     24  CD1 LEU R   7      -0.423  -1.340 -12.014  1.00 40.28 LIG 0.01  C 
ATOM     25  CD2 LEU R   7      -2.153  -2.637 -13.281  1.00 37.72 LIG 0.01  C 
ENDBRANCH 22 23
ENDBRANCH 21 22
BRANCH 21 26
ATOM     26  C   LEU R   7       0.748  -5.751 -11.027  1.00 46.73 LIG 0.22  C 
ATOM     27 O    LEU R   7      -0.023  -6.363 -10.285  1.00 57.50 LIG-0.29  OA
ENDBRANCH 21 26
ENDBRANCH 18 21
ENDBRANCH 12 17
ENDBRANCH 10 12
ENDBRANCH 4 8
BRANCH 1 28
ATOM     28  CA  PRO R   4      10.744  -2.529  -8.649  1.00 54.23 LIG 0.18  C 
ATOM     29  N   PRO R   4      11.798  -3.252  -9.368  1.00 66.40 LIG-0.34  N 
ATOM     30  CD  PRO R   4      12.105  -2.598 -10.649  1.00 55.20 LIG 0.13  C 
ATOM     31  C   MET R   3      12.523  -4.301  -8.941  1.00 65.13 LIG 0.26  C 
ATOM     32  CG  PRO R   4      11.872  -1.157 -10.330  1.00 51.34 LIG 0.02  C 
ATOM     33  CB  PRO R   4      10.752  -1.141  -9.318  1.00 43.90 LIG 0.04  C 
ATOM     34 O    MET R   3      13.345  -4.874  -9.660  1.00 74.37 LIG-0.27  OA
BRANCH 31 35
ATOM     35  CA  MET R   3      12.304  -4.773  -7.505  1.00 67.30 LIG 0.40  C 
ATOM     36  N   MET R   3      12.422  -3.694  -6.528  1.00 55.69 LIG 0.61  N 
BRANCH 35 37
ATOM     37  CB  MET R   3      10.926  -5.439  -7.414  1.00 55.44 LIG 0.06  C 
BRANCH 37 38
ATOM     38  CG  MET R   3      10.812  -6.553  -6.397  1.00 49.90 LIG 0.08  C 
BRANCH 38 39
ATOM     39 SD   MET R   3       9.147  -6.590  -5.709  1.00 67.63 LIG-0.17  SA
ATOM     40  CE  MET R   3       8.180  -6.940  -7.176  1.00 69.90 LIG 0.09  C 
ENDBRANCH 38 39
ENDBRANCH 37 38
ENDBRANCH 35 37
ENDBRANCH 31 35
ENDBRANCH 1 28
TORSDOF 14
ENDMDL
MODEL 52
USER: ADFR SOLUTION from run 90
USER: SCORE 11.606505 LL:  -2.738 LR:  -9.308 RR:   0.000 FEB:  -5.132
USER: RMSD 5.355694
USER: SEED 89
USER: STATUS no improvement in best in 34 clusters for 5 generations
USER: GENES 16
USER: genes 0 Translation |==|  0.51583 0.50705 0.62055
USER: genes 1 Rotation |==|  0.32650 0.73340 0.24840 0.81957
USER: genes 2 Torsion [N]-CA--C-[N] |==|  0.25212
USER: genes 3 Torsion [C]-N--CA-[CB] |==|  0.57778
USER: genes 4 Torsion [N]-CA--CB-[CG2] |==|  0.44864
USER: genes 5 Torsion [CA]-CB--OG1-[HG1] |==|  0.14767
USER: genes 6 Torsion [N]-CA--C-[N] |==|  0.28990
USER: genes 7 Torsion [C]-N--CA-[CB] |==|  0.32530
USER: genes 8 Torsion [N]-CA--CB-[CG] |==|  0.74555
USER: genes 9 Torsion [CA]-CB--CG-[CD1] |==|  0.37314
USER: genes 10 Torsion [N]-CA--C-[O] |==|  0.11996
USER: genes 11 Torsion [O]-C--CA-[N] |==|  0.03428
USER: genes 12 Torsion [N]-C--CA-[N] |==|  0.86474
USER: genes 13 Torsion [C]-CA--CB-[CG] |==|  0.54483
USER: genes 14 Torsion [CA]-CB--CG-[SD] |==|  0.46088
USER: genes 15 Torsion [CB]-CG--SD-[CE] |==|  0.05456
ROOT
ATOM      1  C   PRO R   4       6.051   0.304 -12.712  1.00 60.54 LIG 0.24  C 
ATOM      2 O    PRO R   4       5.016  -0.337 -12.517  1.00 63.53 LIG-0.27  OA
ATOM      3  N   PRO R   5       7.277  -0.246 -12.668  1.00 48.92 LIG-0.34  N 
ATOM      4  CA  PRO R   5       7.455  -1.667 -12.338  1.00 52.68 LIG 0.18  C 
ATOM      5  CB  PRO R   5       8.977  -1.851 -12.396  1.00 55.54 LIG 0.04  C 
ATOM      6  CG  PRO R   5       9.456  -0.794 -13.318  1.00 46.13 LIG 0.02  C 
ATOM      7  CD  PRO R   5       8.539   0.380 -13.103  1.00 43.47 LIG 0.13  C 
ENDROOT
BRANCH 4 8
ATOM      8  C   PRO R   5       6.944  -2.043 -10.945  1.00 58.07 LIG 0.24  C 
ATOM      9 O    PRO R   5       7.690  -1.974  -9.964  1.00 51.36 LIG-0.27  OA
ATOM     10  N   THR R   6       5.677  -2.443 -10.873  1.00 69.24 LIG-0.34  N 
ATOM     11 H    THR R   6       5.141  -2.448 -11.545  1.00 69.24 LIG 0.16  HD
BRANCH 10 12
ATOM     12  CA  THR R   6       5.080  -2.915  -9.629  1.00 55.31 LIG 0.20  C 
BRANCH 12 13
ATOM     13  CB  THR R   6       3.937  -3.921  -9.892  1.00 60.29 LIG 0.15  C 
ATOM     14  CG2 THR R   6       3.634  -4.735  -8.643  1.00 62.01 LIG 0.04  C 
BRANCH 13 15
ATOM     15 OG1  THR R   6       2.754  -3.214 -10.288  1.00 91.48 LIG-0.39  OA
ATOM     16 HG1  THR R   6       2.934  -2.708 -10.933  1.00 91.48 LIG 0.21  HD
ENDBRANCH 13 15
ENDBRANCH 12 13
BRANCH 12 17
ATOM     17  C   THR R   6       6.144  -3.578  -8.767  1.00 56.48 LIG 0.24  C 
ATOM     18  N   LEU R   7       6.584  -2.871  -7.728  1.00 43.78 LIG-0.35  N 
ATOM     19 H    LEU R   7       6.291  -2.089  -7.521  1.00 43.78 LIG 0.16  HD
ATOM     20 O    THR R   6       6.561  -4.705  -9.041  1.00 41.48 LIG-0.27  OA
BRANCH 18 21
ATOM     21  CA  LEU R   7       7.619  -3.382  -6.840  1.00 53.52 LIG 0.16  C 
BRANCH 21 22
ATOM     22  CB  LEU R   7       8.861  -2.491  -6.901  1.00 41.32 LIG 0.04  C 
BRANCH 22 23
ATOM     23  CG  LEU R   7       9.910  -2.910  -7.936  1.00 48.65 LIG-0.02  C 
ATOM     24  CD1 LEU R   7      10.410  -1.715  -8.739  1.00 40.28 LIG 0.01  C 
ATOM     25  CD2 LEU R   7      11.074  -3.632  -7.267  1.00 37.72 LIG 0.01  C 
ENDBRANCH 22 23
ENDBRANCH 21 22
BRANCH 21 26
ATOM     26  C   LEU R   7       7.115  -3.504  -5.404  1.00 46.73 LIG 0.22  C 
ATOM     27 O    LEU R   7       5.998  -3.964  -5.166  1.00 57.50 LIG-0.29  OA
ENDBRANCH 21 26
ENDBRANCH 18 21
ENDBRANCH 12 17
ENDBRANCH 10 12
ENDBRANCH 4 8
BRANCH 1 28
ATOM     28  CA  PRO R   4       5.949   1.796 -13.026  1.00 54.23 LIG 0.18  C 
ATOM     29  N   PRO R   4       4.590   2.269 -12.751  1.00 66.40 LIG-0.34  N 
ATOM     30  CD  PRO R   4       4.515   2.920 -11.435  1.00 55.20 LIG 0.13  C 
ATOM     31  C   MET R   3       3.527   2.262 -13.575  1.00 65.13 LIG 0.26  C 
ATOM     32  CG  PRO R   4       5.870   3.538 -11.313  1.00 51.34 LIG 0.02  C 
ATOM     33  CB  PRO R   4       6.810   2.604 -12.036  1.00 43.90 LIG 0.04  C 
ATOM     34 O    MET R   3       2.406   2.629 -13.214  1.00 74.37 LIG-0.27  OA
BRANCH 31 35
ATOM     35  CA  MET R   3       3.748   1.784 -15.009  1.00 67.30 LIG 0.40  C 
ATOM     36  N   MET R   3       4.901   2.413 -15.646  1.00 55.69 LIG 0.61  N 
BRANCH 35 37
ATOM     37  CB  MET R   3       3.899   0.258 -14.997  1.00 55.44 LIG 0.06  C 
BRANCH 37 38
ATOM     38  CG  MET R   3       4.495  -0.342 -16.252  1.00 49.90 LIG 0.08  C 
BRANCH 38 39
ATOM     39 SD   MET R   3       4.988  -2.047 -15.943  1.00 67.63 LIG-0.17  SA
ATOM     40  CE  MET R   3       4.015  -2.425 -14.486  1.00 69.90 LIG 0.09  C 
ENDBRANCH 38 39
ENDBRANCH 37 38
ENDBRANCH 35 37
ENDBRANCH 31 35
ENDBRANCH 1 28
TORSDOF 14
ENDMDL
MODEL 53
USER: ADFR SOLUTION from run 133
USER: SCORE 11.067587 LL:  -2.983 LR:  -9.294 RR:   0.000 FEB:  -5.118
USER: RMSD 10.231504
USER: SEED 132
USER: STATUS no improvement in best in 20 clusters for 5 generations
USER: GENES 16
USER: genes 0 Translation |==|  0.37059 0.28335 0.65977
USER: genes 1 Rotation |==|  0.86196 0.82855 0.47677 0.60249
USER: genes 2 Torsion [N]-CA--C-[N] |==|  0.22854
USER: genes 3 Torsion [C]-N--CA-[CB] |==|  0.39412
USER: genes 4 Torsion [N]-CA--CB-[CG2] |==|  0.85368
USER: genes 5 Torsion [CA]-CB--OG1-[HG1] |==|  0.17705
USER: genes 6 Torsion [N]-CA--C-[N] |==|  0.92215
USER: genes 7 Torsion [C]-N--CA-[CB] |==|  0.15719
USER: genes 8 Torsion [N]-CA--CB-[CG] |==|  0.60850
USER: genes 9 Torsion [CA]-CB--CG-[CD1] |==|  0.33374
USER: genes 10 Torsion [N]-CA--C-[O] |==|  0.01330
USER: genes 11 Torsion [O]-C--CA-[N] |==|  0.93312
USER: genes 12 Torsion [N]-C--CA-[N] |==|  0.36959
USER: genes 13 Torsion [C]-CA--CB-[CG] |==|  0.85558
USER: genes 14 Torsion [CA]-CB--CG-[SD] |==|  0.76414
USER: genes 15 Torsion [CB]-CG--SD-[CE] |==|  0.34435
ROOT
ATOM      1  C   PRO R   4       3.437  -4.226 -11.918  1.00 60.54 LIG 0.24  C 
ATOM      2 O    PRO R   4       2.672  -3.392 -11.428  1.00 63.53 LIG-0.27  OA
ATOM      3  N   PRO R   5       3.961  -4.111 -13.151  1.00 48.92 LIG-0.34  N 
ATOM      4  CA  PRO R   5       3.611  -2.976 -14.016  1.00 52.68 LIG 0.18  C 
ATOM      5  CB  PRO R   5       4.414  -3.251 -15.294  1.00 55.54 LIG 0.04  C 
ATOM      6  CG  PRO R   5       5.563  -4.078 -14.855  1.00 46.13 LIG 0.02  C 
ATOM      7  CD  PRO R   5       5.045  -4.928 -13.726  1.00 43.47 LIG 0.13  C 
ENDROOT
BRANCH 4 8
ATOM      8  C   PRO R   5       2.119  -2.898 -14.352  1.00 58.07 LIG 0.24  C 
ATOM      9 O    PRO R   5       1.694  -3.343 -15.422  1.00 51.36 LIG-0.27  OA
ATOM     10  N   THR R   6       1.341  -2.326 -13.437  1.00 69.24 LIG-0.34  N 
ATOM     11 H    THR R   6       1.626  -2.057 -12.672  1.00 69.24 LIG 0.16  HD
BRANCH 10 12
ATOM     12  CA  THR R   6      -0.083  -2.103 -13.657  1.00 55.31 LIG 0.20  C 
BRANCH 12 13
ATOM     13  CB  THR R   6      -0.903  -2.347 -12.370  1.00 60.29 LIG 0.15  C 
ATOM     14  CG2 THR R   6      -0.592  -3.715 -11.781  1.00 62.01 LIG 0.04  C 
BRANCH 13 15
ATOM     15 OG1  THR R   6      -0.590  -1.339 -11.401  1.00 91.48 LIG-0.39  OA
ATOM     16 HG1  THR R   6      -0.826  -0.588 -11.692  1.00 91.48 LIG 0.21  HD
ENDBRANCH 13 15
ENDBRANCH 12 13
BRANCH 12 17
ATOM     17  C   THR R   6      -0.312  -0.677 -14.135  1.00 56.48 LIG 0.24  C 
ATOM     18  N   LEU R   7       0.580   0.227 -13.738  1.00 43.78 LIG-0.35  N 
ATOM     19 H    LEU R   7       1.266   0.043 -13.252  1.00 43.78 LIG 0.16  HD
ATOM     20 O    THR R   6      -1.282  -0.401 -14.846  1.00 41.48 LIG-0.27  OA
BRANCH 18 21
ATOM     21  CA  LEU R   7       0.461   1.631 -14.106  1.00 53.52 LIG 0.16  C 
BRANCH 21 22
ATOM     22  CB  LEU R   7      -0.891   2.188 -13.653  1.00 41.32 LIG 0.04  C 
BRANCH 22 23
ATOM     23  CG  LEU R   7      -1.556   3.155 -14.637  1.00 48.65 LIG-0.02  C 
ATOM     24  CD1 LEU R   7      -2.917   2.641 -15.090  1.00 40.28 LIG 0.01  C 
ATOM     25  CD2 LEU R   7      -1.683   4.546 -14.028  1.00 37.72 LIG 0.01  C 
ENDBRANCH 22 23
ENDBRANCH 21 22
BRANCH 21 26
ATOM     26  C   LEU R   7       1.604   2.461 -13.527  1.00 46.73 LIG 0.22  C 
ATOM     27 O    LEU R   7       2.528   1.920 -12.917  1.00 57.50 LIG-0.29  OA
ENDBRANCH 21 26
ENDBRANCH 18 21
ENDBRANCH 12 17
ENDBRANCH 10 12
ENDBRANCH 4 8
BRANCH 1 28
ATOM     28  CA  PRO R   4       3.821  -5.453 -11.091  1.00 54.23 LIG 0.18  C 
ATOM     29  N   PRO R   4       3.669  -5.156  -9.664  1.00 66.40 LIG-0.34  N 
ATOM     30  CD  PRO R   4       2.391  -5.672  -9.152  1.00 55.20 LIG 0.13  C 
ATOM     31  C   MET R   3       4.569  -4.604  -8.831  1.00 65.13 LIG 0.26  C 
ATOM     32  CG  PRO R   4       2.193  -6.900  -9.980  1.00 51.34 LIG 0.02  C 
ATOM     33  CB  PRO R   4       2.804  -6.587 -11.325  1.00 43.90 LIG 0.04  C 
ATOM     34 O    MET R   3       4.308  -4.339  -7.655  1.00 74.37 LIG-0.27  OA
BRANCH 31 35
ATOM     35  CA  MET R   3       5.960  -4.311  -9.389  1.00 67.30 LIG 0.40  C 
ATOM     36  N   MET R   3       6.437  -2.972  -9.053  1.00 55.69 LIG 0.61  N 
BRANCH 35 37
ATOM     37  CB  MET R   3       6.930  -5.379  -8.868  1.00 55.44 LIG 0.06  C 
BRANCH 37 38
ATOM     38  CG  MET R   3       6.923  -5.582  -7.369  1.00 49.90 LIG 0.08  C 
BRANCH 38 39
ATOM     39 SD   MET R   3       8.017  -4.386  -6.582  1.00 67.63 LIG-0.17  SA
ATOM     40  CE  MET R   3       6.891  -3.599  -5.431  1.00 69.90 LIG 0.09  C 
ENDBRANCH 38 39
ENDBRANCH 37 38
ENDBRANCH 35 37
ENDBRANCH 31 35
ENDBRANCH 1 28
TORSDOF 14
ENDMDL
MODEL 54
USER: ADFR SOLUTION from run 192
USER: SCORE 11.156569 LL:  -2.364 LR:  -9.279 RR:   0.000 FEB:  -5.102
USER: RMSD 9.612845
USER: SEED 191
USER: STATUS no improvement in best in 33 clusters for 5 generations
USER: GENES 16
USER: genes 0 Translation |==|  0.34729 0.25690 0.72039
USER: genes 1 Rotation |==|  0.84071 0.56512 0.80264 0.69515
USER: genes 2 Torsion [N]-CA--C-[N] |==|  0.58733
USER: genes 3 Torsion [C]-N--CA-[CB] |==|  0.83073
USER: genes 4 Torsion [N]-CA--CB-[CG2] |==|  0.54957
USER: genes 5 Torsion [CA]-CB--OG1-[HG1] |==|  0.32639
USER: genes 6 Torsion [N]-CA--C-[N] |==|  0.29444
USER: genes 7 Torsion [C]-N--CA-[CB] |==|  0.47607
USER: genes 8 Torsion [N]-CA--CB-[CG] |==|  0.21017
USER: genes 9 Torsion [CA]-CB--CG-[CD1] |==|  0.46239
USER: genes 10 Torsion [N]-CA--C-[O] |==|  0.39561
USER: genes 11 Torsion [O]-C--CA-[N] |==|  0.81699
USER: genes 12 Torsion [N]-C--CA-[N] |==|  0.51179
USER: genes 13 Torsion [C]-CA--CB-[CG] |==|  0.51904
USER: genes 14 Torsion [CA]-CB--CG-[SD] |==|  0.60702
USER: genes 15 Torsion [CB]-CG--SD-[CE] |==|  0.97794
ROOT
ATOM      1  C   PRO R   4       3.017  -4.762 -10.690  1.00 60.54 LIG 0.24  C 
ATOM      2 O    PRO R   4       2.501  -3.649 -10.815  1.00 63.53 LIG-0.27  OA
ATOM      3  N   PRO R   5       4.194  -4.962 -10.071  1.00 48.92 LIG-0.34  N 
ATOM      4  CA  PRO R   5       4.965  -3.833  -9.533  1.00 52.68 LIG 0.18  C 
ATOM      5  CB  PRO R   5       6.206  -4.510  -8.938  1.00 55.54 LIG 0.04  C 
ATOM      6  CG  PRO R   5       5.773  -5.891  -8.618  1.00 46.13 LIG 0.02  C 
ATOM      7  CD  PRO R   5       4.772  -6.261  -9.679  1.00 43.47 LIG 0.13  C 
ENDROOT
BRANCH 4 8
ATOM      8  C   PRO R   5       5.393  -2.819 -10.598  1.00 58.07 LIG 0.24  C 
ATOM      9 O    PRO R   5       4.693  -2.624 -11.594  1.00 51.36 LIG-0.27  OA
ATOM     10  N   THR R   6       6.544  -2.189 -10.378  1.00 69.24 LIG-0.34  N 
ATOM     11 H    THR R   6       7.012  -2.288  -9.664  1.00 69.24 LIG 0.16  HD
BRANCH 10 12
ATOM     12  CA  THR R   6       7.121  -1.262 -11.346  1.00 55.31 LIG 0.20  C 
BRANCH 12 13
ATOM     13  CB  THR R   6       7.428  -1.960 -12.690  1.00 60.29 LIG 0.15  C 
ATOM     14  CG2 THR R   6       8.403  -1.137 -13.518  1.00 62.01 LIG 0.04  C 
BRANCH 13 15
ATOM     15 OG1  THR R   6       7.999  -3.252 -12.443  1.00 91.48 LIG-0.39  OA
ATOM     16 HG1  THR R   6       7.493  -3.846 -12.754  1.00 91.48 LIG 0.21  HD
ENDBRANCH 13 15
ENDBRANCH 12 13
BRANCH 12 17
ATOM     17  C   THR R   6       6.159  -0.108 -11.588  1.00 56.48 LIG 0.24  C 
ATOM     18  N   LEU R   7       6.490   1.058 -11.039  1.00 43.78 LIG-0.35  N 
ATOM     19 H    LEU R   7       7.208   1.187 -10.583  1.00 43.78 LIG 0.16  HD
ATOM     20 O    THR R   6       5.135  -0.274 -12.255  1.00 41.48 LIG-0.27  OA
BRANCH 18 21
ATOM     21  CA  LEU R   7       5.641   2.234 -11.175  1.00 53.52 LIG 0.16  C 
BRANCH 21 22
ATOM     22  CB  LEU R   7       6.149   3.365 -10.278  1.00 41.32 LIG 0.04  C 
BRANCH 22 23
ATOM     23  CG  LEU R   7       7.399   4.088 -10.791  1.00 48.65 LIG-0.02  C 
ATOM     24  CD1 LEU R   7       7.642   5.387 -10.034  1.00 40.28 LIG 0.01  C 
ATOM     25  CD2 LEU R   7       8.621   3.182 -10.710  1.00 37.72 LIG 0.01  C 
ENDBRANCH 22 23
ENDBRANCH 21 22
BRANCH 21 26
ATOM     26  C   LEU R   7       5.557   2.699 -12.628  1.00 46.73 LIG 0.22  C 
ATOM     27 O    LEU R   7       4.501   3.137 -13.088  1.00 57.50 LIG-0.29  OA
ENDBRANCH 21 26
ENDBRANCH 18 21
ENDBRANCH 12 17
ENDBRANCH 10 12
ENDBRANCH 4 8
BRANCH 1 28
ATOM     28  CA  PRO R   4       2.291  -5.982 -11.255  1.00 54.23 LIG 0.18  C 
ATOM     29  N   PRO R   4       1.041  -6.199 -10.521  1.00 66.40 LIG-0.34  N 
ATOM     30  CD  PRO R   4      -0.104  -5.641 -11.255  1.00 55.20 LIG 0.13  C 
ATOM     31  C   MET R   3       0.855  -6.903  -9.391  1.00 65.13 LIG 0.26  C 
ATOM     32  CG  PRO R   4       0.308  -5.839 -12.677  1.00 51.34 LIG 0.02  C 
ATOM     33  CB  PRO R   4       1.810  -5.693 -12.690  1.00 43.90 LIG 0.04  C 
ATOM     34 O    MET R   3      -0.237  -6.966  -8.821  1.00 74.37 LIG-0.27  OA
BRANCH 31 35
ATOM     35  CA  MET R   3       2.058  -7.650  -8.817  1.00 67.30 LIG 0.40  C 
ATOM     36  N   MET R   3       1.720  -8.458  -7.649  1.00 55.69 LIG 0.61  N 
BRANCH 35 37
ATOM     37  CB  MET R   3       2.664  -8.522  -9.923  1.00 55.44 LIG 0.06  C 
BRANCH 37 38
ATOM     38  CG  MET R   3       3.769  -9.454  -9.479  1.00 49.90 LIG 0.08  C 
BRANCH 38 39
ATOM     39 SD   MET R   3       5.054  -9.530 -10.740  1.00 67.63 LIG-0.17  SA
ATOM     40  CE  MET R   3       4.278  -8.615 -12.071  1.00 69.90 LIG 0.09  C 
ENDBRANCH 38 39
ENDBRANCH 37 38
ENDBRANCH 35 37
ENDBRANCH 31 35
ENDBRANCH 1 28
TORSDOF 14
ENDMDL
MODEL 55
USER: ADFR SOLUTION from run 4
USER: SCORE 11.187837 LL:  -2.324 LR:  -9.271 RR:   0.000 FEB:  -5.095
USER: RMSD 9.394300
USER: SEED 814987
USER: STATUS no improvement in best in 25 clusters for 5 generations
USER: GENES 16
USER: genes 0 Translation |==|  0.55515 0.36395 0.75371
USER: genes 1 Rotation |==|  0.95166 0.71323 0.47840 0.50839
USER: genes 2 Torsion [N]-CA--C-[N] |==|  0.36672
USER: genes 3 Torsion [C]-N--CA-[CB] |==|  0.54737
USER: genes 4 Torsion [N]-CA--CB-[CG2] |==|  0.97666
USER: genes 5 Torsion [CA]-CB--OG1-[HG1] |==|  0.43236
USER: genes 6 Torsion [N]-CA--C-[N] |==|  0.36875
USER: genes 7 Torsion [C]-N--CA-[CB] |==|  0.49332
USER: genes 8 Torsion [N]-CA--CB-[CG] |==|  0.63528
USER: genes 9 Torsion [CA]-CB--CG-[CD1] |==|  0.28012
USER: genes 10 Torsion [N]-CA--C-[O] |==|  0.64460
USER: genes 11 Torsion [O]-C--CA-[N] |==|  0.01575
USER: genes 12 Torsion [N]-C--CA-[N] |==|  0.87468
USER: genes 13 Torsion [C]-CA--CB-[CG] |==|  0.45231
USER: genes 14 Torsion [CA]-CB--CG-[SD] |==|  0.45464
USER: genes 15 Torsion [CB]-CG--SD-[CE] |==|  0.85796
ROOT
ATOM      1  C   PRO R   4       6.759  -2.594 -10.015  1.00 60.54 LIG 0.24  C 
ATOM      2 O    PRO R   4       6.623  -1.714  -9.163  1.00 63.53 LIG-0.27  OA
ATOM      3  N   PRO R   5       7.221  -2.353 -11.255  1.00 48.92 LIG-0.34  N 
ATOM      4  CA  PRO R   5       7.560  -0.989 -11.682  1.00 52.68 LIG 0.18  C 
ATOM      5  CB  PRO R   5       8.026  -1.182 -13.130  1.00 55.54 LIG 0.04  C 
ATOM      6  CG  PRO R   5       8.507  -2.583 -13.195  1.00 46.13 LIG 0.02  C 
ATOM      7  CD  PRO R   5       7.627  -3.359 -12.254  1.00 43.47 LIG 0.13  C 
ENDROOT
BRANCH 4 8
ATOM      8  C   PRO R   5       6.373  -0.023 -11.648  1.00 58.07 LIG 0.24  C 
ATOM      9 O    PRO R   5       5.292  -0.339 -12.153  1.00 51.36 LIG-0.27  OA
ATOM     10  N   THR R   6       6.588   1.150 -11.059  1.00 69.24 LIG-0.34  N 
ATOM     11 H    THR R   6       7.324   1.357 -10.665  1.00 69.24 LIG 0.16  HD
BRANCH 10 12
ATOM     12  CA  THR R   6       5.579   2.203 -11.028  1.00 55.31 LIG 0.20  C 
BRANCH 12 13
ATOM     13  CB  THR R   6       6.196   3.574 -10.677  1.00 60.29 LIG 0.15  C 
ATOM     14  CG2 THR R   6       7.650   3.422 -10.256  1.00 62.01 LIG 0.04  C 
BRANCH 13 15
ATOM     15 OG1  THR R   6       6.128   4.440 -11.817  1.00 91.48 LIG-0.39  OA
ATOM     16 HG1  THR R   6       6.141   5.240 -11.563  1.00 91.48 LIG 0.21  HD
ENDBRANCH 13 15
ENDBRANCH 12 13
BRANCH 12 17
ATOM     17  C   THR R   6       4.891   2.294 -12.382  1.00 56.48 LIG 0.24  C 
ATOM     18  N   LEU R   7       3.561   2.351 -12.364  1.00 43.78 LIG-0.35  N 
ATOM     19 H    LEU R   7       3.091   2.353 -11.644  1.00 43.78 LIG 0.16  HD
ATOM     20 O    THR R   6       5.553   2.308 -13.423  1.00 41.48 LIG-0.27  OA
BRANCH 18 21
ATOM     21  CA  LEU R   7       2.783   2.415 -13.594  1.00 53.52 LIG 0.16  C 
BRANCH 21 22
ATOM     22  CB  LEU R   7       1.286   2.411 -13.278  1.00 41.32 LIG 0.04  C 
BRANCH 22 23
ATOM     23  CG  LEU R   7       0.455   1.412 -14.089  1.00 48.65 LIG-0.02  C 
ATOM     24  CD1 LEU R   7       0.141   0.160 -13.278  1.00 40.28 LIG 0.01  C 
ATOM     25  CD2 LEU R   7      -0.828   2.059 -14.596  1.00 37.72 LIG 0.01  C 
ENDBRANCH 22 23
ENDBRANCH 21 22
BRANCH 21 26
ATOM     26  C   LEU R   7       3.153   3.640 -14.427  1.00 46.73 LIG 0.22  C 
ATOM     27 O    LEU R   7       2.282   4.415 -14.827  1.00 57.50 LIG-0.29  OA
ENDBRANCH 21 26
ENDBRANCH 18 21
ENDBRANCH 12 17
ENDBRANCH 10 12
ENDBRANCH 4 8
BRANCH 1 28
ATOM     28  CA  PRO R   4       6.395  -4.034  -9.657  1.00 54.23 LIG 0.18  C 
ATOM     29  N   PRO R   4       5.794  -4.076  -8.320  1.00 66.40 LIG-0.34  N 
ATOM     30  CD  PRO R   4       4.327  -4.117  -8.403  1.00 55.20 LIG 0.13  C 
ATOM     31  C   MET R   3       6.419  -4.186  -7.135  1.00 65.13 LIG 0.26  C 
ATOM     32  CG  PRO R   4       4.105  -4.892  -9.661  1.00 51.34 LIG 0.02  C 
ATOM     33  CB  PRO R   4       5.257  -4.534 -10.568  1.00 43.90 LIG 0.04  C 
ATOM     34 O    MET R   3       5.813  -4.146  -6.061  1.00 74.37 LIG-0.27  OA
BRANCH 31 35
ATOM     35  CA  MET R   3       7.934  -4.375  -7.149  1.00 67.30 LIG 0.40  C 
ATOM     36  N   MET R   3       8.374  -5.365  -8.129  1.00 55.69 LIG 0.61  N 
BRANCH 35 37
ATOM     37  CB  MET R   3       8.594  -3.017  -7.416  1.00 55.44 LIG 0.06  C 
BRANCH 37 38
ATOM     38  CG  MET R   3      10.064  -2.933  -7.067  1.00 49.90 LIG 0.08  C 
BRANCH 38 39
ATOM     39 SD   MET R   3      10.800  -1.490  -7.856  1.00 67.63 LIG-0.17  SA
ATOM     40  CE  MET R   3      10.266  -1.718  -9.551  1.00 69.90 LIG 0.09  C 
ENDBRANCH 38 39
ENDBRANCH 37 38
ENDBRANCH 35 37
ENDBRANCH 31 35
ENDBRANCH 1 28
TORSDOF 14
ENDMDL
MODEL 56
USER: ADFR SOLUTION from run 153
USER: SCORE 11.234810 LL:  -3.681 LR:  -9.258 RR:   0.000 FEB:  -5.082
USER: RMSD 9.291990
USER: SEED 152
USER: STATUS no improvement in best in 27 clusters for 5 generations
USER: GENES 16
USER: genes 0 Translation |==|  0.33611 0.27457 0.64644
USER: genes 1 Rotation |==|  0.93868 0.62547 0.67402 0.60739
USER: genes 2 Torsion [N]-CA--C-[N] |==|  0.96886
USER: genes 3 Torsion [C]-N--CA-[CB] |==|  0.31639
USER: genes 4 Torsion [N]-CA--CB-[CG2] |==|  0.54096
USER: genes 5 Torsion [CA]-CB--OG1-[HG1] |==|  0.00394
USER: genes 6 Torsion [N]-CA--C-[N] |==|  0.22210
USER: genes 7 Torsion [C]-N--CA-[CB] |==|  0.81995
USER: genes 8 Torsion [N]-CA--CB-[CG] |==|  0.82354
USER: genes 9 Torsion [CA]-CB--CG-[CD1] |==|  0.63458
USER: genes 10 Torsion [N]-CA--C-[O] |==|  0.36581
USER: genes 11 Torsion [O]-C--CA-[N] |==|  0.88146
USER: genes 12 Torsion [N]-C--CA-[N] |==|  0.88693
USER: genes 13 Torsion [C]-CA--CB-[CG] |==|  0.06125
USER: genes 14 Torsion [CA]-CB--CG-[SD] |==|  0.56938
USER: genes 15 Torsion [CB]-CG--SD-[CE] |==|  0.77928
ROOT
ATOM      1  C   PRO R   4       2.816  -4.404 -12.188  1.00 60.54 LIG 0.24  C 
ATOM      2 O    PRO R   4       2.299  -3.396 -11.701  1.00 63.53 LIG-0.27  OA
ATOM      3  N   PRO R   5       4.106  -4.461 -12.564  1.00 48.92 LIG-0.34  N 
ATOM      4  CA  PRO R   5       4.978  -3.284 -12.449  1.00 52.68 LIG 0.18  C 
ATOM      5  CB  PRO R   5       6.322  -3.792 -12.985  1.00 55.54 LIG 0.04  C 
ATOM      6  CG  PRO R   5       6.296  -5.257 -12.760  1.00 46.13 LIG 0.02  C 
ATOM      7  CD  PRO R   5       4.861  -5.671 -12.938  1.00 43.47 LIG 0.13  C 
ENDROOT
BRANCH 4 8
ATOM      8  C   PRO R   5       4.509  -2.089 -13.284  1.00 58.07 LIG 0.24  C 
ATOM      9 O    PRO R   5       5.016  -0.975 -13.124  1.00 51.36 LIG-0.27  OA
ATOM     10  N   THR R   6       3.540  -2.332 -14.162  1.00 69.24 LIG-0.34  N 
ATOM     11 H    THR R   6       3.216  -3.114 -14.310  1.00 69.24 LIG 0.16  HD
BRANCH 10 12
ATOM     12  CA  THR R   6       2.934  -1.274 -14.963  1.00 55.31 LIG 0.20  C 
BRANCH 12 13
ATOM     13  CB  THR R   6       3.247  -1.447 -16.466  1.00 60.29 LIG 0.15  C 
ATOM     14  CG2 THR R   6       2.930  -0.174 -17.236  1.00 62.01 LIG 0.04  C 
BRANCH 13 15
ATOM     15 OG1  THR R   6       4.635  -1.762 -16.636  1.00 91.48 LIG-0.39  OA
ATOM     16 HG1  THR R   6       5.005  -1.810 -15.884  1.00 91.48 LIG 0.21  HD
ENDBRANCH 13 15
ENDBRANCH 12 13
BRANCH 12 17
ATOM     17  C   THR R   6       1.426  -1.277 -14.761  1.00 56.48 LIG 0.24  C 
ATOM     18  N   LEU R   7       0.980  -0.691 -13.653  1.00 43.78 LIG-0.35  N 
ATOM     19 H    LEU R   7       1.488  -0.309 -13.074  1.00 43.78 LIG 0.16  HD
ATOM     20 O    THR R   6       0.682  -1.806 -15.591  1.00 41.48 LIG-0.27  OA
BRANCH 18 21
ATOM     21  CA  LEU R   7      -0.441  -0.649 -13.330  1.00 53.52 LIG 0.16  C 
BRANCH 21 22
ATOM     22  CB  LEU R   7      -1.198   0.185 -14.365  1.00 41.32 LIG 0.04  C 
BRANCH 22 23
ATOM     23  CG  LEU R   7      -0.804   1.664 -14.421  1.00 48.65 LIG-0.02  C 
ATOM     24  CD1 LEU R   7      -2.029   2.569 -14.403  1.00 40.28 LIG 0.01  C 
ATOM     25  CD2 LEU R   7       0.141   2.017 -13.278  1.00 37.72 LIG 0.01  C 
ENDBRANCH 22 23
ENDBRANCH 21 22
BRANCH 21 26
ATOM     26  C   LEU R   7      -1.034  -2.052 -13.233  1.00 46.73 LIG 0.22  C 
ATOM     27 O    LEU R   7      -1.734  -2.374 -12.271  1.00 57.50 LIG-0.29  OA
ENDBRANCH 21 26
ENDBRANCH 18 21
ENDBRANCH 12 17
ENDBRANCH 10 12
ENDBRANCH 4 8
BRANCH 1 28
ATOM     28  CA  PRO R   4       1.963  -5.659 -12.371  1.00 54.23 LIG 0.18  C 
ATOM     29  N   PRO R   4       1.128  -5.869 -11.185  1.00 66.40 LIG-0.34  N 
ATOM     30  CD  PRO R   4      -0.234  -5.361 -11.403  1.00 55.20 LIG 0.13  C 
ATOM     31  C   MET R   3       1.442  -6.530 -10.057  1.00 65.13 LIG 0.26  C 
ATOM     32  CG  PRO R   4      -0.431  -5.608 -12.864  1.00 51.34 LIG 0.02  C 
ATOM     33  CB  PRO R   4       0.930  -5.436 -13.493  1.00 43.90 LIG 0.04  C 
ATOM     34 O    MET R   3       0.679  -6.589  -9.090  1.00 74.37 LIG-0.27  OA
BRANCH 31 35
ATOM     35  CA  MET R   3       2.797  -7.232 -10.003  1.00 67.30 LIG 0.40  C 
ATOM     36  N   MET R   3       3.141  -7.900 -11.255  1.00 55.69 LIG 0.61  N 
BRANCH 35 37
ATOM     37  CB  MET R   3       3.867  -6.200  -9.627  1.00 55.44 LIG 0.06  C 
BRANCH 37 38
ATOM     38  CG  MET R   3       3.354  -4.968  -8.913  1.00 49.90 LIG 0.08  C 
BRANCH 38 39
ATOM     39 SD   MET R   3       4.484  -3.590  -9.179  1.00 67.63 LIG-0.17  SA
ATOM     40  CE  MET R   3       5.771  -3.970  -7.991  1.00 69.90 LIG 0.09  C 
ENDBRANCH 38 39
ENDBRANCH 37 38
ENDBRANCH 35 37
ENDBRANCH 31 35
ENDBRANCH 1 28
TORSDOF 14
ENDMDL
MODEL 57
USER: ADFR SOLUTION from run 191
USER: SCORE 11.254119 LL:  -3.032 LR:  -9.247 RR:   0.000 FEB:  -5.070
USER: RMSD 9.559727
USER: SEED 190
USER: STATUS no improvement in best in 23 clusters for 5 generations
USER: GENES 16
USER: genes 0 Translation |==|  0.31400 0.28218 0.65160
USER: genes 1 Rotation |==|  0.24944 0.71579 0.86598 0.58191
USER: genes 2 Torsion [N]-CA--C-[N] |==|  0.78883
USER: genes 3 Torsion [C]-N--CA-[CB] |==|  0.19086
USER: genes 4 Torsion [N]-CA--CB-[CG2] |==|  0.41997
USER: genes 5 Torsion [CA]-CB--OG1-[HG1] |==|  0.16788
USER: genes 6 Torsion [N]-CA--C-[N] |==|  0.39689
USER: genes 7 Torsion [C]-N--CA-[CB] |==|  0.24347
USER: genes 8 Torsion [N]-CA--CB-[CG] |==|  0.21311
USER: genes 9 Torsion [CA]-CB--CG-[CD1] |==|  0.89088
USER: genes 10 Torsion [N]-CA--C-[O] |==|  0.05193
USER: genes 11 Torsion [O]-C--CA-[N] |==|  0.02397
USER: genes 12 Torsion [N]-C--CA-[N] |==|  0.37296
USER: genes 13 Torsion [C]-CA--CB-[CG] |==|  0.42938
USER: genes 14 Torsion [CA]-CB--CG-[SD] |==|  0.77055
USER: genes 15 Torsion [CB]-CG--SD-[CE] |==|  0.22813
ROOT
ATOM      1  C   PRO R   4       2.418  -4.250 -12.083  1.00 60.54 LIG 0.24  C 
ATOM      2 O    PRO R   4       3.174  -4.680 -12.957  1.00 63.53 LIG-0.27  OA
ATOM      3  N   PRO R   5       1.308  -3.539 -12.353  1.00 48.92 LIG-0.34  N 
ATOM      4  CA  PRO R   5       0.951  -3.196 -13.736  1.00 52.68 LIG 0.18  C 
ATOM      5  CB  PRO R   5      -0.349  -2.398 -13.573  1.00 55.54 LIG 0.04  C 
ATOM      6  CG  PRO R   5      -0.932  -2.872 -12.295  1.00 46.13 LIG 0.02  C 
ATOM      7  CD  PRO R   5       0.239  -3.183 -11.403  1.00 43.47 LIG 0.13  C 
ENDROOT
BRANCH 4 8
ATOM      8  C   PRO R   5       1.998  -2.334 -14.445  1.00 58.07 LIG 0.24  C 
ATOM      9 O    PRO R   5       2.761  -2.832 -15.277  1.00 51.36 LIG-0.27  OA
ATOM     10  N   THR R   6       2.029  -1.048 -14.103  1.00 69.24 LIG-0.34  N 
ATOM     11 H    THR R   6       1.470  -0.687 -13.559  1.00 69.24 LIG 0.16  HD
BRANCH 10 12
ATOM     12  CA  THR R   6       3.029  -0.127 -14.630  1.00 55.31 LIG 0.20  C 
BRANCH 12 13
ATOM     13  CB  THR R   6       2.822   0.137 -16.138  1.00 60.29 LIG 0.15  C 
ATOM     14  CG2 THR R   6       3.326   1.521 -16.520  1.00 62.01 LIG 0.04  C 
BRANCH 13 15
ATOM     15 OG1  THR R   6       3.534  -0.846 -16.902  1.00 91.48 LIG-0.39  OA
ATOM     16 HG1  THR R   6       3.241  -1.610 -16.715  1.00 91.48 LIG 0.21  HD
ENDBRANCH 13 15
ENDBRANCH 12 13
BRANCH 12 17
ATOM     17  C   THR R   6       2.960   1.192 -13.875  1.00 56.48 LIG 0.24  C 
ATOM     18  N   LEU R   7       4.122   1.797 -13.641  1.00 43.78 LIG-0.35  N 
ATOM     19 H    LEU R   7       4.883   1.493 -13.902  1.00 43.78 LIG 0.16  HD
ATOM     20 O    THR R   6       1.875   1.650 -13.509  1.00 41.48 LIG-0.27  OA
BRANCH 18 21
ATOM     21  CA  LEU R   7       4.195   3.053 -12.906  1.00 53.52 LIG 0.16  C 
BRANCH 21 22
ATOM     22  CB  LEU R   7       4.294   2.786 -11.402  1.00 41.32 LIG 0.04  C 
BRANCH 22 23
ATOM     23  CG  LEU R   7       5.674   2.335 -10.913  1.00 48.65 LIG-0.02  C 
ATOM     24  CD1 LEU R   7       6.328   1.376 -11.899  1.00 40.28 LIG 0.01  C 
ATOM     25  CD2 LEU R   7       6.576   3.536 -10.653  1.00 37.72 LIG 0.01  C 
ENDBRANCH 22 23
ENDBRANCH 21 22
BRANCH 21 26
ATOM     26  C   LEU R   7       5.368   3.910 -13.377  1.00 46.73 LIG 0.22  C 
ATOM     27 O    LEU R   7       5.901   3.703 -14.468  1.00 57.50 LIG-0.29  OA
ENDBRANCH 21 26
ENDBRANCH 18 21
ENDBRANCH 12 17
ENDBRANCH 10 12
ENDBRANCH 4 8
BRANCH 1 28
ATOM     28  CA  PRO R   4       2.742  -4.537 -10.618  1.00 54.23 LIG 0.18  C 
ATOM     29  N   PRO R   4       4.074  -5.141 -10.513  1.00 66.40 LIG-0.34  N 
ATOM     30  CD  PRO R   4       5.082  -4.133 -10.154  1.00 55.20 LIG 0.13  C 
ATOM     31  C   MET R   3       4.403  -6.442 -10.598  1.00 65.13 LIG 0.26  C 
ATOM     32  CG  PRO R   4       4.299  -3.200  -9.289  1.00 51.34 LIG 0.02  C 
ATOM     33  CB  PRO R   4       2.895  -3.214  -9.842  1.00 43.90 LIG 0.04  C 
ATOM     34 O    MET R   3       5.572  -6.833 -10.560  1.00 74.37 LIG-0.27  OA
BRANCH 31 35
ATOM     35  CA  MET R   3       3.265  -7.451 -10.738  1.00 67.30 LIG 0.40  C 
ATOM     36  N   MET R   3       3.517  -8.452 -11.771  1.00 55.69 LIG 0.61  N 
BRANCH 35 37
ATOM     37  CB  MET R   3       3.035  -8.120  -9.378  1.00 55.44 LIG 0.06  C 
BRANCH 37 38
ATOM     38  CG  MET R   3       1.641  -8.664  -9.153  1.00 49.90 LIG 0.08  C 
BRANCH 38 39
ATOM     39 SD   MET R   3       0.545  -7.339  -8.613  1.00 67.63 LIG-0.17  SA
ATOM     40  CE  MET R   3       0.118  -6.589 -10.183  1.00 69.90 LIG 0.09  C 
ENDBRANCH 38 39
ENDBRANCH 37 38
ENDBRANCH 35 37
ENDBRANCH 31 35
ENDBRANCH 1 28
TORSDOF 14
ENDMDL
MODEL 58
USER: ADFR SOLUTION from run 127
USER: SCORE 12.038885 LL:  -3.030 LR:  -9.242 RR:   0.000 FEB:  -5.066
USER: RMSD 10.491947
USER: SEED 126
USER: STATUS no improvement in best in 17 clusters for 5 generations
USER: GENES 16
USER: genes 0 Translation |==|  0.27365 0.29712 0.65304
USER: genes 1 Rotation |==|  0.78964 0.54640 0.09748 0.54397
USER: genes 2 Torsion [N]-CA--C-[N] |==|  0.37592
USER: genes 3 Torsion [C]-N--CA-[CB] |==|  0.85556
USER: genes 4 Torsion [N]-CA--CB-[CG2] |==|  0.59486
USER: genes 5 Torsion [CA]-CB--OG1-[HG1] |==|  0.27051
USER: genes 6 Torsion [N]-CA--C-[N] |==|  0.33816
USER: genes 7 Torsion [C]-N--CA-[CB] |==|  0.23197
USER: genes 8 Torsion [N]-CA--CB-[CG] |==|  0.46861
USER: genes 9 Torsion [CA]-CB--CG-[CD1] |==|  0.24927
USER: genes 10 Torsion [N]-CA--C-[O] |==|  0.17060
USER: genes 11 Torsion [O]-C--CA-[N] |==|  0.86014
USER: genes 12 Torsion [N]-C--CA-[N] |==|  0.33230
USER: genes 13 Torsion [C]-CA--CB-[CG] |==|  0.31952
USER: genes 14 Torsion [CA]-CB--CG-[SD] |==|  0.91883
USER: genes 15 Torsion [CB]-CG--SD-[CE] |==|  0.41958
ROOT
ATOM      1  C   PRO R   4       1.692  -3.947 -12.054  1.00 60.54 LIG 0.24  C 
ATOM      2 O    PRO R   4       2.188  -3.091 -12.788  1.00 63.53 LIG-0.27  OA
ATOM      3  N   PRO R   5       0.469  -4.471 -12.255  1.00 48.92 LIG-0.34  N 
ATOM      4  CA  PRO R   5      -0.375  -4.011 -13.366  1.00 52.68 LIG 0.18  C 
ATOM      5  CB  PRO R   5      -1.646  -4.854 -13.211  1.00 55.54 LIG 0.04  C 
ATOM      6  CG  PRO R   5      -1.209  -6.081 -12.503  1.00 46.13 LIG 0.02  C 
ATOM      7  CD  PRO R   5      -0.108  -5.645 -11.575  1.00 43.47 LIG 0.13  C 
ENDROOT
BRANCH 4 8
ATOM      8  C   PRO R   5      -0.732  -2.524 -13.290  1.00 58.07 LIG 0.24  C 
ATOM      9 O    PRO R   5      -1.098  -2.021 -12.224  1.00 51.36 LIG-0.27  OA
ATOM     10  N   THR R   6      -0.628  -1.837 -14.425  1.00 69.24 LIG-0.34  N 
ATOM     11 H    THR R   6      -0.329  -2.172 -15.158  1.00 69.24 LIG 0.16  HD
BRANCH 10 12
ATOM     12  CA  THR R   6      -1.018  -0.435 -14.524  1.00 55.31 LIG 0.20  C 
BRANCH 12 13
ATOM     13  CB  THR R   6      -2.450  -0.203 -13.994  1.00 60.29 LIG 0.15  C 
ATOM     14  CG2 THR R   6      -3.150   0.892 -14.785  1.00 62.01 LIG 0.04  C 
BRANCH 13 15
ATOM     15 OG1  THR R   6      -3.207  -1.416 -14.105  1.00 91.48 LIG-0.39  OA
ATOM     16 HG1  THR R   6      -3.204  -1.816 -13.367  1.00 91.48 LIG 0.21  HD
ENDBRANCH 13 15
ENDBRANCH 12 13
BRANCH 12 17
ATOM     17  C   THR R   6      -0.044   0.426 -13.732  1.00 56.48 LIG 0.24  C 
ATOM     18  N   LEU R   7       0.591   1.375 -14.415  1.00 43.78 LIG-0.35  N 
ATOM     19 H    LEU R   7       0.467   1.528 -15.253  1.00 43.78 LIG 0.16  HD
ATOM     20 O    THR R   6       0.130   0.230 -12.527  1.00 41.48 LIG-0.27  OA
BRANCH 18 21
ATOM     21  CA  LEU R   7       1.567   2.251 -13.779  1.00 53.52 LIG 0.16  C 
BRANCH 21 22
ATOM     22  CB  LEU R   7       2.937   1.571 -13.726  1.00 41.32 LIG 0.04  C 
BRANCH 22 23
ATOM     23  CG  LEU R   7       4.099   2.486 -13.330  1.00 48.65 LIG-0.02  C 
ATOM     24  CD1 LEU R   7       4.306   2.503 -11.820  1.00 40.28 LIG 0.01  C 
ATOM     25  CD2 LEU R   7       5.382   2.074 -14.043  1.00 37.72 LIG 0.01  C 
ENDBRANCH 22 23
ENDBRANCH 21 22
BRANCH 21 26
ATOM     26  C   LEU R   7       1.663   3.596 -14.496  1.00 46.73 LIG 0.22  C 
ATOM     27 O    LEU R   7       0.684   4.340 -14.570  1.00 57.50 LIG-0.29  OA
ENDBRANCH 21 26
ENDBRANCH 18 21
ENDBRANCH 12 17
ENDBRANCH 10 12
ENDBRANCH 4 8
BRANCH 1 28
ATOM     28  CA  PRO R   4       2.496  -4.452 -10.857  1.00 54.23 LIG 0.18  C 
ATOM     29  N   PRO R   4       3.840  -4.842 -11.291  1.00 66.40 LIG-0.34  N 
ATOM     30  CD  PRO R   4       4.812  -3.772 -11.021  1.00 55.20 LIG 0.13  C 
ATOM     31  C   MET R   3       4.245  -6.032 -11.768  1.00 65.13 LIG 0.26  C 
ATOM     32  CG  PRO R   4       4.265  -3.159  -9.773  1.00 51.34 LIG 0.02  C 
ATOM     33  CB  PRO R   4       2.765  -3.295  -9.876  1.00 43.90 LIG 0.04  C 
ATOM     34 O    MET R   3       5.395  -6.230 -12.167  1.00 74.37 LIG-0.27  OA
BRANCH 31 35
ATOM     35  CA  MET R   3       3.222  -7.166 -11.797  1.00 67.30 LIG 0.40  C 
ATOM     36  N   MET R   3       2.976  -7.674 -13.144  1.00 55.69 LIG 0.61  N 
BRANCH 35 37
ATOM     37  CB  MET R   3       3.712  -8.289 -10.875  1.00 55.44 LIG 0.06  C 
BRANCH 37 38
ATOM     38  CG  MET R   3       2.844  -8.555  -9.664  1.00 49.90 LIG 0.08  C 
BRANCH 38 39
ATOM     39 SD   MET R   3       2.010  -7.038  -9.161  1.00 67.63 LIG-0.17  SA
ATOM     40  CE  MET R   3       0.518  -7.699  -8.422  1.00 69.90 LIG 0.09  C 
ENDBRANCH 38 39
ENDBRANCH 37 38
ENDBRANCH 35 37
ENDBRANCH 31 35
ENDBRANCH 1 28
TORSDOF 14
ENDMDL
MODEL 59
USER: ADFR SOLUTION from run 148
USER: SCORE 11.998044 LL:  -3.427 LR:  -9.238 RR:   0.000 FEB:  -5.061
USER: RMSD 9.303268
USER: SEED 147
USER: STATUS no improvement in best in 18 clusters for 5 generations
USER: GENES 16
USER: genes 0 Translation |==|  0.37530 0.25264 0.74965
USER: genes 1 Rotation |==|  0.85057 0.52745 0.81281 0.66882
USER: genes 2 Torsion [N]-CA--C-[N] |==|  0.89919
USER: genes 3 Torsion [C]-N--CA-[CB] |==|  0.88266
USER: genes 4 Torsion [N]-CA--CB-[CG2] |==|  0.35105
USER: genes 5 Torsion [CA]-CB--OG1-[HG1] |==|  0.06772
USER: genes 6 Torsion [N]-CA--C-[N] |==|  0.93333
USER: genes 7 Torsion [C]-N--CA-[CB] |==|  0.46594
USER: genes 8 Torsion [N]-CA--CB-[CG] |==|  0.12235
USER: genes 9 Torsion [CA]-CB--CG-[CD1] |==|  0.32501
USER: genes 10 Torsion [N]-CA--C-[O] |==|  0.95040
USER: genes 11 Torsion [O]-C--CA-[N] |==|  0.83232
USER: genes 12 Torsion [N]-C--CA-[N] |==|  0.50010
USER: genes 13 Torsion [C]-CA--CB-[CG] |==|  0.51369
USER: genes 14 Torsion [CA]-CB--CG-[SD] |==|  0.61229
USER: genes 15 Torsion [CB]-CG--SD-[CE] |==|  0.96909
ROOT
ATOM      1  C   PRO R   4       3.521  -4.848 -10.098  1.00 60.54 LIG 0.24  C 
ATOM      2 O    PRO R   4       3.039  -3.715 -10.040  1.00 63.53 LIG-0.27  OA
ATOM      3  N   PRO R   5       4.660  -5.196  -9.472  1.00 48.92 LIG-0.34  N 
ATOM      4  CA  PRO R   5       5.429  -4.210  -8.701  1.00 52.68 LIG 0.18  C 
ATOM      5  CB  PRO R   5       6.621  -5.023  -8.184  1.00 55.54 LIG 0.04  C 
ATOM      6  CG  PRO R   5       6.140  -6.425  -8.143  1.00 46.13 LIG 0.02  C 
ATOM      7  CD  PRO R   5       5.187  -6.562  -9.298  1.00 43.47 LIG 0.13  C 
ENDROOT
BRANCH 4 8
ATOM      8  C   PRO R   5       5.935  -3.033  -9.541  1.00 58.07 LIG 0.24  C 
ATOM      9 O    PRO R   5       5.972  -1.895  -9.066  1.00 51.36 LIG-0.27  OA
ATOM     10  N   THR R   6       6.313  -3.319 -10.784  1.00 69.24 LIG-0.34  N 
ATOM     11 H    THR R   6       6.332  -4.117 -11.103  1.00 69.24 LIG 0.16  HD
BRANCH 10 12
ATOM     12  CA  THR R   6       6.733  -2.288 -11.726  1.00 55.31 LIG 0.20  C 
BRANCH 12 13
ATOM     13  CB  THR R   6       5.820  -1.044 -11.653  1.00 60.29 LIG 0.15  C 
ATOM     14  CG2 THR R   6       6.641   0.217 -11.429  1.00 62.01 LIG 0.04  C 
BRANCH 13 15
ATOM     15 OG1  THR R   6       5.086  -0.912 -12.877  1.00 91.48 LIG-0.39  OA
ATOM     16 HG1  THR R   6       5.023  -1.663 -13.247  1.00 91.48 LIG 0.21  HD
ENDBRANCH 13 15
ENDBRANCH 12 13
BRANCH 12 17
ATOM     17  C   THR R   6       8.168  -1.877 -11.431  1.00 56.48 LIG 0.24  C 
ATOM     18  N   LEU R   7       8.597  -2.088 -10.189  1.00 43.78 LIG-0.35  N 
ATOM     19 H    LEU R   7       8.119  -2.449  -9.571  1.00 43.78 LIG 0.16  HD
ATOM     20 O    THR R   6       8.870  -1.374 -12.312  1.00 41.48 LIG-0.27  OA
BRANCH 18 21
ATOM     21  CA  LEU R   7       9.942  -1.715  -9.772  1.00 53.52 LIG 0.16  C 
BRANCH 21 22
ATOM     22  CB  LEU R   7      10.067  -1.785  -8.249  1.00 41.32 LIG 0.04  C 
BRANCH 22 23
ATOM     23  CG  LEU R   7       9.443  -3.027  -7.604  1.00 48.65 LIG-0.02  C 
ATOM     24  CD1 LEU R   7      10.494  -3.881  -6.907  1.00 40.28 LIG 0.01  C 
ATOM     25  CD2 LEU R   7       8.337  -2.635  -6.631  1.00 37.72 LIG 0.01  C 
ENDBRANCH 22 23
ENDBRANCH 21 22
BRANCH 21 26
ATOM     26  C   LEU R   7      10.998  -2.594 -10.438  1.00 46.73 LIG 0.22  C 
ATOM     27 O    LEU R   7      10.689  -3.672 -10.948  1.00 57.50 LIG-0.29  OA
ENDBRANCH 21 26
ENDBRANCH 18 21
ENDBRANCH 12 17
ENDBRANCH 10 12
ENDBRANCH 4 8
BRANCH 1 28
ATOM     28  CA  PRO R   4       2.797  -5.921 -10.909  1.00 54.23 LIG 0.18  C 
ATOM     29  N   PRO R   4       1.453  -6.133 -10.364  1.00 66.40 LIG-0.34  N 
ATOM     30  CD  PRO R   4       0.447  -5.393 -11.139  1.00 55.20 LIG 0.13  C 
ATOM     31  C   MET R   3       1.082  -6.964  -9.374  1.00 65.13 LIG 0.26  C 
ATOM     32  CG  PRO R   4       1.021  -5.432 -12.518  1.00 51.34 LIG 0.02  C 
ATOM     33  CB  PRO R   4       2.520  -5.406 -12.336  1.00 43.90 LIG 0.04  C 
ATOM     34 O    MET R   3      -0.075  -7.013  -8.949  1.00 74.37 LIG-0.27  OA
BRANCH 31 35
ATOM     35  CA  MET R   3       2.154  -7.874  -8.776  1.00 67.30 LIG 0.40  C 
ATOM     36  N   MET R   3       1.641  -8.732  -7.712  1.00 55.69 LIG 0.61  N 
BRANCH 35 37
ATOM     37  CB  MET R   3       2.765  -8.714  -9.904  1.00 55.44 LIG 0.06  C 
BRANCH 37 38
ATOM     38  CG  MET R   3       3.768  -9.757  -9.461  1.00 49.90 LIG 0.08  C 
BRANCH 38 39
ATOM     39 SD   MET R   3       5.151  -9.808 -10.616  1.00 67.63 LIG-0.17  SA
ATOM     40  CE  MET R   3       4.513  -8.804 -11.956  1.00 69.90 LIG 0.09  C 
ENDBRANCH 38 39
ENDBRANCH 37 38
ENDBRANCH 35 37
ENDBRANCH 31 35
ENDBRANCH 1 28
TORSDOF 14
ENDMDL
MODEL 60
USER: ADFR SOLUTION from run 198
USER: SCORE 11.434360 LL:  -2.506 LR:  -9.236 RR:   0.000 FEB:  -5.060
USER: RMSD 10.101354
USER: SEED 197
USER: STATUS no improvement in best in 14 clusters for 5 generations
USER: GENES 16
USER: genes 0 Translation |==|  0.52689 0.32283 0.80564
USER: genes 1 Rotation |==|  0.75232 0.90597 0.39141 0.59866
USER: genes 2 Torsion [N]-CA--C-[N] |==|  0.72405
USER: genes 3 Torsion [C]-N--CA-[CB] |==|  0.87778
USER: genes 4 Torsion [N]-CA--CB-[CG2] |==|  0.52769
USER: genes 5 Torsion [CA]-CB--OG1-[HG1] |==|  0.58286
USER: genes 6 Torsion [N]-CA--C-[N] |==|  0.87231
USER: genes 7 Torsion [C]-N--CA-[CB] |==|  0.77148
USER: genes 8 Torsion [N]-CA--CB-[CG] |==|  0.57172
USER: genes 9 Torsion [CA]-CB--CG-[CD1] |==|  0.29517
USER: genes 10 Torsion [N]-CA--C-[O] |==|  0.56166
USER: genes 11 Torsion [O]-C--CA-[N] |==|  0.81952
USER: genes 12 Torsion [N]-C--CA-[N] |==|  0.41998
USER: genes 13 Torsion [C]-CA--CB-[CG] |==|  0.93570
USER: genes 14 Torsion [CA]-CB--CG-[SD] |==|  0.81674
USER: genes 15 Torsion [CB]-CG--SD-[CE] |==|  0.60764
ROOT
ATOM      1  C   PRO R   4       6.250  -3.427  -8.964  1.00 60.54 LIG 0.24  C 
ATOM      2 O    PRO R   4       5.341  -2.820  -8.393  1.00 63.53 LIG-0.27  OA
ATOM      3  N   PRO R   5       6.318  -3.564 -10.300  1.00 48.92 LIG-0.34  N 
ATOM      4  CA  PRO R   5       5.266  -3.020 -11.169  1.00 52.68 LIG 0.18  C 
ATOM      5  CB  PRO R   5       5.740  -3.405 -12.575  1.00 55.54 LIG 0.04  C 
ATOM      6  CG  PRO R   5       7.212  -3.539 -12.461  1.00 46.13 LIG 0.02  C 
ATOM      7  CD  PRO R   5       7.466  -4.068 -11.076  1.00 43.47 LIG 0.13  C 
ENDROOT
BRANCH 4 8
ATOM      8  C   PRO R   5       3.882  -3.622 -10.909  1.00 58.07 LIG 0.24  C 
ATOM      9 O    PRO R   5       3.191  -3.221  -9.969  1.00 51.36 LIG-0.27  OA
ATOM     10  N   THR R   6       3.496  -4.584 -11.742  1.00 69.24 LIG-0.34  N 
ATOM     11 H    THR R   6       3.954  -4.835 -12.425  1.00 69.24 LIG 0.16  HD
BRANCH 10 12
ATOM     12  CA  THR R   6       2.242  -5.309 -11.565  1.00 55.31 LIG 0.20  C 
BRANCH 12 13
ATOM     13  CB  THR R   6       2.019  -5.709 -10.089  1.00 60.29 LIG 0.15  C 
ATOM     14  CG2 THR R   6       0.845  -6.667  -9.959  1.00 62.01 LIG 0.04  C 
BRANCH 13 15
ATOM     15 OG1  THR R   6       3.199  -6.344  -9.579  1.00 91.48 LIG-0.39  OA
ATOM     16 HG1  THR R   6       2.984  -6.898  -8.985  1.00 91.48 LIG 0.21  HD
ENDBRANCH 13 15
ENDBRANCH 12 13
BRANCH 12 17
ATOM     17  C   THR R   6       1.079  -4.447 -12.033  1.00 56.48 LIG 0.24  C 
ATOM     18  N   LEU R   7       1.083  -3.181 -11.622  1.00 43.78 LIG-0.35  N 
ATOM     19 H    LEU R   7       1.701  -2.837 -11.133  1.00 43.78 LIG 0.16  HD
ATOM     20 O    THR R   6       0.195  -4.922 -12.749  1.00 41.48 LIG-0.27  OA
BRANCH 18 21
ATOM     21  CA  LEU R   7       0.013  -2.259 -11.980  1.00 53.52 LIG 0.16  C 
BRANCH 21 22
ATOM     22  CB  LEU R   7       0.250  -1.685 -13.379  1.00 41.32 LIG 0.04  C 
BRANCH 22 23
ATOM     23  CG  LEU R   7      -0.387  -0.315 -13.633  1.00 48.65 LIG-0.02  C 
ATOM     24  CD1 LEU R   7       0.660   0.791 -13.653  1.00 40.28 LIG 0.01  C 
ATOM     25  CD2 LEU R   7      -1.186  -0.321 -14.930  1.00 37.72 LIG 0.01  C 
ENDBRANCH 22 23
ENDBRANCH 21 22
BRANCH 21 26
ATOM     26  C   LEU R   7      -1.355  -2.932 -11.901  1.00 46.73 LIG 0.22  C 
ATOM     27 O    LEU R   7      -2.315  -2.483 -12.530  1.00 57.50 LIG-0.29  OA
ENDBRANCH 21 26
ENDBRANCH 18 21
ENDBRANCH 12 17
ENDBRANCH 10 12
ENDBRANCH 4 8
BRANCH 1 28
ATOM     28  CA  PRO R   4       7.364  -4.051  -8.125  1.00 54.23 LIG 0.18  C 
ATOM     29  N   PRO R   4       8.126  -2.998  -7.448  1.00 66.40 LIG-0.34  N 
ATOM     30  CD  PRO R   4       7.677  -2.834  -6.058  1.00 55.20 LIG 0.13  C 
ATOM     31  C   MET R   3       9.182  -2.309  -7.914  1.00 65.13 LIG 0.26  C 
ATOM     32  CG  PRO R   4       7.286  -4.228  -5.687  1.00 51.34 LIG 0.02  C 
ATOM     33  CB  PRO R   4       6.759  -4.853  -6.956  1.00 43.90 LIG 0.04  C 
ATOM     34 O    MET R   3       9.709  -1.393  -7.278  1.00 74.37 LIG-0.27  OA
BRANCH 31 35
ATOM     35  CA  MET R   3       9.735  -2.704  -9.282  1.00 67.30 LIG 0.40  C 
ATOM     36  N   MET R   3      10.363  -1.588  -9.985  1.00 55.69 LIG 0.61  N 
BRANCH 35 37
ATOM     37  CB  MET R   3      10.731  -3.855  -9.093  1.00 55.44 LIG 0.06  C 
BRANCH 37 38
ATOM     38  CG  MET R   3      11.344  -3.959  -7.713  1.00 49.90 LIG 0.08  C 
BRANCH 38 39
ATOM     39 SD   MET R   3      12.386  -2.523  -7.395  1.00 67.63 LIG-0.17  SA
ATOM     40  CE  MET R   3      13.751  -3.281  -6.516  1.00 69.90 LIG 0.09  C 
ENDBRANCH 38 39
ENDBRANCH 37 38
ENDBRANCH 35 37
ENDBRANCH 31 35
ENDBRANCH 1 28
TORSDOF 14
ENDMDL
MODEL 61
USER: ADFR SOLUTION from run 2
USER: SCORE 10.917587 LL:  -3.195 LR:  -9.241 RR:   0.000 FEB:  -5.064
USER: RMSD 10.611817
USER: SEED 439260
USER: STATUS no improvement in best in 15 clusters for 5 generations
USER: GENES 16
USER: genes 0 Translation |==|  0.58368 0.26647 0.82119
USER: genes 1 Rotation |==|  0.83349 0.59720 0.17712 0.65838
USER: genes 2 Torsion [N]-CA--C-[N] |==|  0.42423
USER: genes 3 Torsion [C]-N--CA-[CB] |==|  0.42674
USER: genes 4 Torsion [N]-CA--CB-[CG2] |==|  0.38553
USER: genes 5 Torsion [CA]-CB--OG1-[HG1] |==|  0.28408
USER: genes 6 Torsion [N]-CA--C-[N] |==|  0.31808
USER: genes 7 Torsion [C]-N--CA-[CB] |==|  0.24719
USER: genes 8 Torsion [N]-CA--CB-[CG] |==|  0.98053
USER: genes 9 Torsion [CA]-CB--CG-[CD1] |==|  0.41727
USER: genes 10 Torsion [N]-CA--C-[O] |==|  0.36821
USER: genes 11 Torsion [O]-C--CA-[N] |==|  0.97815
USER: genes 12 Torsion [N]-C--CA-[N] |==|  0.47374
USER: genes 13 Torsion [C]-CA--CB-[CG] |==|  0.34258
USER: genes 14 Torsion [CA]-CB--CG-[SD] |==|  0.63220
USER: genes 15 Torsion [CB]-CG--SD-[CE] |==|  0.49579
ROOT
ATOM      1  C   PRO R   4       7.272  -4.568  -8.649  1.00 60.54 LIG 0.24  C 
ATOM      2 O    PRO R   4       7.534  -3.554  -9.299  1.00 63.53 LIG-0.27  OA
ATOM      3  N   PRO R   5       6.590  -5.611  -9.154  1.00 48.92 LIG-0.34  N 
ATOM      4  CA  PRO R   5       6.074  -5.580 -10.530  1.00 52.68 LIG 0.18  C 
ATOM      5  CB  PRO R   5       5.376  -6.938 -10.672  1.00 55.54 LIG 0.04  C 
ATOM      6  CG  PRO R   5       6.056  -7.823  -9.696  1.00 46.13 LIG 0.02  C 
ATOM      7  CD  PRO R   5       6.428  -6.939  -8.535  1.00 43.47 LIG 0.13  C 
ENDROOT
BRANCH 4 8
ATOM      8  C   PRO R   5       5.067  -4.455 -10.782  1.00 58.07 LIG 0.24  C 
ATOM      9 O    PRO R   5       4.376  -4.013  -9.860  1.00 51.36 LIG-0.27  OA
ATOM     10  N   THR R   6       4.989  -4.007 -12.033  1.00 69.24 LIG-0.34  N 
ATOM     11 H    THR R   6       5.500  -4.280 -12.668  1.00 69.24 LIG 0.16  HD
BRANCH 10 12
ATOM     12  CA  THR R   6       4.014  -3.001 -12.439  1.00 55.31 LIG 0.20  C 
BRANCH 12 13
ATOM     13  CB  THR R   6       4.505  -2.195 -13.663  1.00 60.29 LIG 0.15  C 
ATOM     14  CG2 THR R   6       3.370  -1.962 -14.649  1.00 62.01 LIG 0.04  C 
BRANCH 13 15
ATOM     15 OG1  THR R   6       5.016  -0.927 -13.231  1.00 91.48 LIG-0.39  OA
ATOM     16 HG1  THR R   6       5.855  -0.950 -13.228  1.00 91.48 LIG 0.21  HD
ENDBRANCH 13 15
ENDBRANCH 12 13
BRANCH 12 17
ATOM     17  C   THR R   6       2.692  -3.674 -12.779  1.00 56.48 LIG 0.24  C 
ATOM     18  N   LEU R   7       1.664  -3.385 -11.985  1.00 43.78 LIG-0.35  N 
ATOM     19 H    LEU R   7       1.709  -2.841 -11.320  1.00 43.78 LIG 0.16  HD
ATOM     20 O    THR R   6       2.608  -4.443 -13.739  1.00 41.48 LIG-0.27  OA
BRANCH 18 21
ATOM     21  CA  LEU R   7       0.351  -3.983 -12.187  1.00 53.52 LIG 0.16  C 
BRANCH 21 22
ATOM     22  CB  LEU R   7       0.241  -5.301 -11.417  1.00 41.32 LIG 0.04  C 
BRANCH 22 23
ATOM     23  CG  LEU R   7       1.542  -5.780 -10.765  1.00 48.65 LIG-0.02  C 
ATOM     24  CD1 LEU R   7       1.267  -6.589  -9.503  1.00 40.28 LIG 0.01  C 
ATOM     25  CD2 LEU R   7       2.377  -6.589 -11.750  1.00 37.72 LIG 0.01  C 
ENDBRANCH 22 23
ENDBRANCH 21 22
BRANCH 21 26
ATOM     26  C   LEU R   7      -0.768  -3.027 -11.778  1.00 46.73 LIG 0.22  C 
ATOM     27 O    LEU R   7      -1.735  -2.838 -12.517  1.00 57.50 LIG-0.29  OA
ENDBRANCH 21 26
ENDBRANCH 18 21
ENDBRANCH 12 17
ENDBRANCH 10 12
ENDBRANCH 4 8
BRANCH 1 28
ATOM     28  CA  PRO R   4       7.746  -4.660  -7.199  1.00 54.23 LIG 0.18  C 
ATOM     29  N   PRO R   4       8.627  -3.531  -6.892  1.00 66.40 LIG-0.34  N 
ATOM     30  CD  PRO R   4       7.894  -2.464  -6.195  1.00 55.20 LIG 0.13  C 
ATOM     31  C   MET R   3       9.957  -3.443  -7.075  1.00 65.13 LIG 0.26  C 
ATOM     32  CG  PRO R   4       6.891  -3.238  -5.403  1.00 51.34 LIG 0.02  C 
ATOM     33  CB  PRO R   4       6.557  -4.449  -6.241  1.00 43.90 LIG 0.04  C 
ATOM     34 O    MET R   3      10.591  -2.412  -6.839  1.00 74.37 LIG-0.27  OA
BRANCH 31 35
ATOM     35  CA  MET R   3      10.683  -4.685  -7.588  1.00 67.30 LIG 0.40  C 
ATOM     36  N   MET R   3      12.071  -4.420  -7.958  1.00 55.69 LIG 0.61  N 
BRANCH 35 37
ATOM     37  CB  MET R   3      10.606  -5.775  -6.511  1.00 55.44 LIG 0.06  C 
BRANCH 37 38
ATOM     38  CG  MET R   3       9.988  -7.081  -6.958  1.00 49.90 LIG 0.08  C 
BRANCH 38 39
ATOM     39 SD   MET R   3       8.766  -7.626  -5.750  1.00 67.63 LIG-0.17  SA
ATOM     40  CE  MET R   3       8.169  -9.129  -6.523  1.00 69.90 LIG 0.09  C 
ENDBRANCH 38 39
ENDBRANCH 37 38
ENDBRANCH 35 37
ENDBRANCH 31 35
ENDBRANCH 1 28
TORSDOF 14
ENDMDL
MODEL 62
USER: ADFR SOLUTION from run 158
USER: SCORE 11.875017 LL:  -2.794 LR:  -9.213 RR:   0.000 FEB:  -5.037
USER: RMSD 5.240141
USER: SEED 157
USER: STATUS no improvement in best in 19 clusters for 5 generations
USER: GENES 16
USER: genes 0 Translation |==|  0.51918 0.48845 0.61841
USER: genes 1 Rotation |==|  0.35991 0.79030 0.26082 0.79815
USER: genes 2 Torsion [N]-CA--C-[N] |==|  0.23006
USER: genes 3 Torsion [C]-N--CA-[CB] |==|  0.18278
USER: genes 4 Torsion [N]-CA--CB-[CG2] |==|  0.66672
USER: genes 5 Torsion [CA]-CB--OG1-[HG1] |==|  0.57736
USER: genes 6 Torsion [N]-CA--C-[N] |==|  0.08185
USER: genes 7 Torsion [C]-N--CA-[CB] |==|  0.41491
USER: genes 8 Torsion [N]-CA--CB-[CG] |==|  0.60638
USER: genes 9 Torsion [CA]-CB--CG-[CD1] |==|  0.96650
USER: genes 10 Torsion [N]-CA--C-[O] |==|  0.21271
USER: genes 11 Torsion [O]-C--CA-[N] |==|  0.04254
USER: genes 12 Torsion [N]-C--CA-[N] |==|  0.19845
USER: genes 13 Torsion [C]-CA--CB-[CG] |==|  0.76506
USER: genes 14 Torsion [CA]-CB--CG-[SD] |==|  0.38465
USER: genes 15 Torsion [CB]-CG--SD-[CE] |==|  0.49877
ROOT
ATOM      1  C   PRO R   4       6.111  -0.073 -12.755  1.00 60.54 LIG 0.24  C 
ATOM      2 O    PRO R   4       5.016  -0.591 -12.528  1.00 63.53 LIG-0.27  OA
ATOM      3  N   PRO R   5       7.227  -0.785 -12.994  1.00 48.92 LIG-0.34  N 
ATOM      4  CA  PRO R   5       7.207  -2.253 -12.958  1.00 52.68 LIG 0.18  C 
ATOM      5  CB  PRO R   5       8.660  -2.630 -13.274  1.00 55.54 LIG 0.04  C 
ATOM      6  CG  PRO R   5       9.193  -1.485 -14.050  1.00 46.13 LIG 0.02  C 
ATOM      7  CD  PRO R   5       8.513  -0.264 -13.492  1.00 43.47 LIG 0.13  C 
ENDROOT
BRANCH 4 8
ATOM      8  C   PRO R   5       6.811  -2.828 -11.595  1.00 58.07 LIG 0.24  C 
ATOM      9 O    PRO R   5       7.675  -3.199 -10.796  1.00 51.36 LIG-0.27  OA
ATOM     10  N   THR R   6       5.506  -2.903 -11.347  1.00 69.24 LIG-0.34  N 
ATOM     11 H    THR R   6       4.902  -2.604 -11.881  1.00 69.24 LIG 0.16  HD
BRANCH 10 12
ATOM     12  CA  THR R   6       4.979  -3.508 -10.129  1.00 55.31 LIG 0.20  C 
BRANCH 12 13
ATOM     13  CB  THR R   6       5.370  -2.696  -8.874  1.00 60.29 LIG 0.15  C 
ATOM     14  CG2 THR R   6       6.188  -3.544  -7.912  1.00 62.01 LIG 0.04  C 
BRANCH 13 15
ATOM     15 OG1  THR R   6       6.143  -1.553  -9.262  1.00 91.48 LIG-0.39  OA
ATOM     16 HG1  THR R   6       6.657  -1.337  -8.634  1.00 91.48 LIG 0.21  HD
ENDBRANCH 13 15
ENDBRANCH 12 13
BRANCH 12 17
ATOM     17  C   THR R   6       3.463  -3.601 -10.216  1.00 56.48 LIG 0.24  C 
ATOM     18  N   LEU R   7       2.951  -3.733 -11.437  1.00 43.78 LIG-0.35  N 
ATOM     19 H    LEU R   7       3.424  -3.782 -12.154  1.00 43.78 LIG 0.16  HD
ATOM     20 O    THR R   6       2.772  -3.549  -9.196  1.00 41.48 LIG-0.27  OA
BRANCH 18 21
ATOM     21  CA  LEU R   7       1.513  -3.807 -11.658  1.00 53.52 LIG 0.16  C 
BRANCH 21 22
ATOM     22  CB  LEU R   7       1.152  -3.211 -13.021  1.00 41.32 LIG 0.04  C 
BRANCH 22 23
ATOM     23  CG  LEU R   7      -0.148  -2.402 -13.050  1.00 48.65 LIG-0.02  C 
ATOM     24  CD1 LEU R   7      -0.961  -2.606 -11.778  1.00 40.28 LIG 0.01  C 
ATOM     25  CD2 LEU R   7       0.139  -0.922 -13.273  1.00 37.72 LIG 0.01  C 
ENDBRANCH 22 23
ENDBRANCH 21 22
BRANCH 21 26
ATOM     26  C   LEU R   7       1.002  -5.242 -11.547  1.00 46.73 LIG 0.22  C 
ATOM     27 O    LEU R   7       0.859  -5.775 -10.445  1.00 57.50 LIG-0.29  OA
ENDBRANCH 21 26
ENDBRANCH 18 21
ENDBRANCH 12 17
ENDBRANCH 10 12
ENDBRANCH 4 8
BRANCH 1 28
ATOM     28  CA  PRO R   4       6.219   1.451 -12.776  1.00 54.23 LIG 0.18  C 
ATOM     29  N   PRO R   4       5.030   2.041 -12.155  1.00 66.40 LIG-0.34  N 
ATOM     30  CD  PRO R   4       5.293   2.411 -10.757  1.00 55.20 LIG 0.13  C 
ATOM     31  C   MET R   3       3.858   2.350 -12.738  1.00 65.13 LIG 0.26  C 
ATOM     32  CG  PRO R   4       6.736   2.798 -10.801  1.00 51.34 LIG 0.02  C 
ATOM     33  CB  PRO R   4       7.363   1.912 -11.850  1.00 43.90 LIG 0.04  C 
ATOM     34 O    MET R   3       2.896   2.786 -12.101  1.00 74.37 LIG-0.27  OA
BRANCH 31 35
ATOM     35  CA  MET R   3       3.746   2.151 -14.248  1.00 67.30 LIG 0.40  C 
ATOM     36  N   MET R   3       3.700   0.743 -14.634  1.00 55.69 LIG 0.61  N 
BRANCH 35 37
ATOM     37  CB  MET R   3       2.499   2.891 -14.748  1.00 55.44 LIG 0.06  C 
BRANCH 37 38
ATOM     38  CG  MET R   3       1.202   2.120 -14.634  1.00 49.90 LIG 0.08  C 
BRANCH 38 39
ATOM     39 SD   MET R   3      -0.113   3.212 -14.061  1.00 67.63 LIG-0.17  SA
ATOM     40  CE  MET R   3      -1.503   2.083 -14.028  1.00 69.90 LIG 0.09  C 
ENDBRANCH 38 39
ENDBRANCH 37 38
ENDBRANCH 35 37
ENDBRANCH 31 35
ENDBRANCH 1 28
TORSDOF 14
ENDMDL
MODEL 63
USER: ADFR SOLUTION from run 196
USER: SCORE 10.840495 LL:  -2.842 LR:  -9.208 RR:   0.000 FEB:  -5.032
USER: RMSD 10.717107
USER: SEED 195
USER: STATUS no improvement in best in 13 clusters for 5 generations
USER: GENES 16
USER: genes 0 Translation |==|  0.44291 0.17957 0.77872
USER: genes 1 Rotation |==|  0.24546 0.10781 0.33206 0.55650
USER: genes 2 Torsion [N]-CA--C-[N] |==|  0.65643
USER: genes 3 Torsion [C]-N--CA-[CB] |==|  0.27778
USER: genes 4 Torsion [N]-CA--CB-[CG2] |==|  0.16743
USER: genes 5 Torsion [CA]-CB--OG1-[HG1] |==|  0.24602
USER: genes 6 Torsion [N]-CA--C-[N] |==|  0.91499
USER: genes 7 Torsion [C]-N--CA-[CB] |==|  0.31109
USER: genes 8 Torsion [N]-CA--CB-[CG] |==|  0.95436
USER: genes 9 Torsion [CA]-CB--CG-[CD1] |==|  0.38572
USER: genes 10 Torsion [N]-CA--C-[O] |==|  0.96866
USER: genes 11 Torsion [O]-C--CA-[N] |==|  0.88265
USER: genes 12 Torsion [N]-C--CA-[N] |==|  0.87206
USER: genes 13 Torsion [C]-CA--CB-[CG] |==|  0.51288
USER: genes 14 Torsion [CA]-CB--CG-[SD] |==|  0.68134
USER: genes 15 Torsion [CB]-CG--SD-[CE] |==|  0.95101
ROOT
ATOM      1  C   PRO R   4       4.738  -6.328  -9.509  1.00 60.54 LIG 0.24  C 
ATOM      2 O    PRO R   4       3.771  -6.706  -8.846  1.00 63.53 LIG-0.27  OA
ATOM      3  N   PRO R   5       4.850  -5.082 -10.005  1.00 48.92 LIG-0.34  N 
ATOM      4  CA  PRO R   5       3.779  -4.095  -9.810  1.00 52.68 LIG 0.18  C 
ATOM      5  CB  PRO R   5       4.317  -2.851 -10.529  1.00 55.54 LIG 0.04  C 
ATOM      6  CG  PRO R   5       5.791  -3.001 -10.503  1.00 46.13 LIG 0.02  C 
ATOM      7  CD  PRO R   5       6.053  -4.479 -10.606  1.00 43.47 LIG 0.13  C 
ENDROOT
BRANCH 4 8
ATOM      8  C   PRO R   5       2.442  -4.509 -10.429  1.00 58.07 LIG 0.24  C 
ATOM      9 O    PRO R   5       1.913  -5.580 -10.119  1.00 51.36 LIG-0.27  OA
ATOM     10  N   THR R   6       1.912  -3.659 -11.304  1.00 69.24 LIG-0.34  N 
ATOM     11 H    THR R   6       2.253  -2.891 -11.488  1.00 69.24 LIG 0.16  HD
BRANCH 10 12
ATOM     12  CA  THR R   6       0.688  -3.960 -12.038  1.00 55.31 LIG 0.20  C 
BRANCH 12 13
ATOM     13  CB  THR R   6      -0.540  -3.268 -11.405  1.00 60.29 LIG 0.15  C 
ATOM     14  CG2 THR R   6      -0.370  -1.757 -11.403  1.00 62.01 LIG 0.04  C 
BRANCH 13 15
ATOM     15 OG1  THR R   6      -1.719  -3.605 -12.148  1.00 91.48 LIG-0.39  OA
ATOM     16 HG1  THR R   6      -2.053  -4.311 -11.839  1.00 91.48 LIG 0.21  HD
ENDBRANCH 13 15
ENDBRANCH 12 13
BRANCH 12 17
ATOM     17  C   THR R   6       0.830  -3.505 -13.483  1.00 56.48 LIG 0.24  C 
ATOM     18  N   LEU R   7       1.613  -2.449 -13.693  1.00 43.78 LIG-0.35  N 
ATOM     19 H    LEU R   7       2.039  -2.036 -13.070  1.00 43.78 LIG 0.16  HD
ATOM     20 O    THR R   6       0.239  -4.098 -14.388  1.00 41.48 LIG-0.27  OA
BRANCH 18 21
ATOM     21  CA  LEU R   7       1.812  -1.900 -15.028  1.00 53.52 LIG 0.16  C 
BRANCH 21 22
ATOM     22  CB  LEU R   7       1.168  -0.516 -15.136  1.00 41.32 LIG 0.04  C 
BRANCH 22 23
ATOM     23  CG  LEU R   7       0.158  -0.183 -14.034  1.00 48.65 LIG-0.02  C 
ATOM     24  CD1 LEU R   7       0.309   1.255 -13.554  1.00 40.28 LIG 0.01  C 
ATOM     25  CD2 LEU R   7      -1.267  -0.445 -14.507  1.00 37.72 LIG 0.01  C 
ENDBRANCH 22 23
ENDBRANCH 21 22
BRANCH 21 26
ATOM     26  C   LEU R   7       3.294  -1.832 -15.389  1.00 46.73 LIG 0.22  C 
ATOM     27 O    LEU R   7       4.160  -2.016 -14.532  1.00 57.50 LIG-0.29  OA
ENDBRANCH 21 26
ENDBRANCH 18 21
ENDBRANCH 12 17
ENDBRANCH 10 12
ENDBRANCH 4 8
BRANCH 1 28
ATOM     28  CA  PRO R   4       5.877  -7.309  -9.783  1.00 54.23 LIG 0.18  C 
ATOM     29  N   PRO R   4       6.177  -8.073  -8.569  1.00 66.40 LIG-0.34  N 
ATOM     30  CD  PRO R   4       5.528  -9.392  -8.603  1.00 55.20 LIG 0.13  C 
ATOM     31  C   MET R   3       7.013  -7.745  -7.568  1.00 65.13 LIG 0.26  C 
ATOM     32  CG  PRO R   4       5.552  -9.716 -10.061  1.00 51.34 LIG 0.02  C 
ATOM     33  CB  PRO R   4       5.413  -8.393 -10.775  1.00 43.90 LIG 0.04  C 
ATOM     34 O    MET R   3       7.140  -8.439  -6.556  1.00 74.37 LIG-0.27  OA
BRANCH 31 35
ATOM     35  CA  MET R   3       7.830  -6.463  -7.721  1.00 67.30 LIG 0.40  C 
ATOM     36  N   MET R   3       8.448  -6.338  -9.039  1.00 55.69 LIG 0.61  N 
BRANCH 35 37
ATOM     37  CB  MET R   3       6.918  -5.265  -7.434  1.00 55.44 LIG 0.06  C 
BRANCH 37 38
ATOM     38  CG  MET R   3       7.548  -3.907  -7.650  1.00 49.90 LIG 0.08  C 
BRANCH 38 39
ATOM     39 SD   MET R   3       7.675  -3.031  -6.080  1.00 67.63 LIG-0.17  SA
ATOM     40  CE  MET R   3       6.516  -3.960  -5.078  1.00 69.90 LIG 0.09  C 
ENDBRANCH 38 39
ENDBRANCH 37 38
ENDBRANCH 35 37
ENDBRANCH 31 35
ENDBRANCH 1 28
TORSDOF 14
ENDMDL
MODEL 64
USER: ADFR SOLUTION from run 174
USER: SCORE 11.813310 LL:  -3.431 LR:  -9.212 RR:   0.000 FEB:  -5.036
USER: RMSD 8.852588
USER: SEED 173
USER: STATUS no improvement in best in 32 clusters for 5 generations
USER: GENES 16
USER: genes 0 Translation |==|  0.26228 0.33326 0.60287
USER: genes 1 Rotation |==|  0.24856 0.51748 0.92586 0.57156
USER: genes 2 Torsion [N]-CA--C-[N] |==|  0.39029
USER: genes 3 Torsion [C]-N--CA-[CB] |==|  0.89907
USER: genes 4 Torsion [N]-CA--CB-[CG2] |==|  0.53713
USER: genes 5 Torsion [CA]-CB--OG1-[HG1] |==|  0.42892
USER: genes 6 Torsion [N]-CA--C-[N] |==|  0.81192
USER: genes 7 Torsion [C]-N--CA-[CB] |==|  0.36989
USER: genes 8 Torsion [N]-CA--CB-[CG] |==|  0.55245
USER: genes 9 Torsion [CA]-CB--CG-[CD1] |==|  0.20211
USER: genes 10 Torsion [N]-CA--C-[O] |==|  0.70913
USER: genes 11 Torsion [O]-C--CA-[N] |==|  0.98774
USER: genes 12 Torsion [N]-C--CA-[N] |==|  0.86588
USER: genes 13 Torsion [C]-CA--CB-[CG] |==|  0.55359
USER: genes 14 Torsion [CA]-CB--CG-[SD] |==|  0.37370
USER: genes 15 Torsion [CB]-CG--SD-[CE] |==|  0.59269
ROOT
ATOM      1  C   PRO R   4       1.487  -3.215 -13.070  1.00 60.54 LIG 0.24  C 
ATOM      2 O    PRO R   4       2.203  -2.651 -13.899  1.00 63.53 LIG-0.27  OA
ATOM      3  N   PRO R   5       0.153  -3.053 -13.016  1.00 48.92 LIG-0.34  N 
ATOM      4  CA  PRO R   5      -0.534  -2.141 -13.941  1.00 52.68 LIG 0.18  C 
ATOM      5  CB  PRO R   5      -2.004  -2.263 -13.524  1.00 55.54 LIG 0.04  C 
ATOM      6  CG  PRO R   5      -2.117  -3.604 -12.903  1.00 46.13 LIG 0.02  C 
ATOM      7  CD  PRO R   5      -0.799  -3.848 -12.219  1.00 43.47 LIG 0.13  C 
ENDROOT
BRANCH 4 8
ATOM      8  C   PRO R   5      -0.082  -0.683 -13.813  1.00 58.07 LIG 0.24  C 
ATOM      9 O    PRO R   5       0.141  -0.191 -12.704  1.00 51.36 LIG-0.27  OA
ATOM     10  N   THR R   6       0.042  -0.006 -14.952  1.00 69.24 LIG-0.34  N 
ATOM     11 H    THR R   6      -0.068  -0.357 -15.729  1.00 69.24 LIG 0.16  HD
BRANCH 10 12
ATOM     12  CA  THR R   6       0.378   1.413 -14.980  1.00 55.31 LIG 0.20  C 
BRANCH 12 13
ATOM     13  CB  THR R   6      -0.277   2.177 -13.808  1.00 60.29 LIG 0.15  C 
ATOM     14  CG2 THR R   6      -0.195   3.680 -14.028  1.00 62.01 LIG 0.04  C 
BRANCH 13 15
ATOM     15 OG1  THR R   6      -1.654   1.796 -13.694  1.00 91.48 LIG-0.39  OA
ATOM     16 HG1  THR R   6      -1.912   1.912 -12.903  1.00 91.48 LIG 0.21  HD
ENDBRANCH 13 15
ENDBRANCH 12 13
BRANCH 12 17
ATOM     17  C   THR R   6       1.888   1.585 -14.910  1.00 56.48 LIG 0.24  C 
ATOM     18  N   LEU R   7       2.467   1.236 -13.764  1.00 43.78 LIG-0.35  N 
ATOM     19 H    LEU R   7       2.041   0.915 -13.089  1.00 43.78 LIG 0.16  HD
ATOM     20 O    THR R   6       2.515   2.028 -15.876  1.00 41.48 LIG-0.27  OA
BRANCH 18 21
ATOM     21  CA  LEU R   7       3.903   1.376 -13.560  1.00 53.52 LIG 0.16  C 
BRANCH 21 22
ATOM     22  CB  LEU R   7       4.188   2.036 -12.209  1.00 41.32 LIG 0.04  C 
BRANCH 22 23
ATOM     23  CG  LEU R   7       5.587   2.643 -12.067  1.00 48.65 LIG-0.02  C 
ATOM     24  CD1 LEU R   7       5.725   3.921 -12.885  1.00 40.28 LIG 0.01  C 
ATOM     25  CD2 LEU R   7       5.919   2.905 -10.603  1.00 37.72 LIG 0.01  C 
ENDBRANCH 22 23
ENDBRANCH 21 22
BRANCH 21 26
ATOM     26  C   LEU R   7       4.616   0.029 -13.660  1.00 46.73 LIG 0.22  C 
ATOM     27 O    LEU R   7       5.016  -0.548 -12.648  1.00 57.50 LIG-0.29  OA
ENDBRANCH 21 26
ENDBRANCH 18 21
ENDBRANCH 12 17
ENDBRANCH 10 12
ENDBRANCH 4 8
BRANCH 1 28
ATOM     28  CA  PRO R   4       2.133  -4.154 -12.052  1.00 54.23 LIG 0.18  C 
ATOM     29  N   PRO R   4       3.564  -4.288 -12.338  1.00 66.40 LIG-0.34  N 
ATOM     30  CD  PRO R   4       4.359  -3.404 -11.473  1.00 55.20 LIG 0.13  C 
ATOM     31  C   MET R   3       4.165  -5.156 -13.170  1.00 65.13 LIG 0.26  C 
ATOM     32  CG  PRO R   4       3.553  -3.388 -10.215  1.00 51.34 LIG 0.02  C 
ATOM     33  CB  PRO R   4       2.114  -3.509 -10.652  1.00 43.90 LIG 0.04  C 
ATOM     34 O    MET R   3       5.380  -5.136 -13.384  1.00 74.37 LIG-0.27  OA
BRANCH 31 35
ATOM     35  CA  MET R   3       3.287  -6.201 -13.856  1.00 67.30 LIG 0.40  C 
ATOM     36  N   MET R   3       2.391  -6.887 -12.929  1.00 55.69 LIG 0.61  N 
BRANCH 35 37
ATOM     37  CB  MET R   3       2.491  -5.513 -14.972  1.00 55.44 LIG 0.06  C 
BRANCH 37 38
ATOM     38  CG  MET R   3       1.264  -6.262 -15.445  1.00 49.90 LIG 0.08  C 
BRANCH 38 39
ATOM     39 SD   MET R   3      -0.130  -5.128 -15.589  1.00 67.63 LIG-0.17  SA
ATOM     40  CE  MET R   3      -1.492  -6.204 -15.145  1.00 69.90 LIG 0.09  C 
ENDBRANCH 38 39
ENDBRANCH 37 38
ENDBRANCH 35 37
ENDBRANCH 31 35
ENDBRANCH 1 28
TORSDOF 14
ENDMDL
MODEL 65
USER: ADFR SOLUTION from run 160
USER: SCORE 12.023283 LL:  -3.104 LR:  -9.202 RR:   0.000 FEB:  -5.026
USER: RMSD 9.755081
USER: SEED 159
USER: STATUS no improvement in best in 16 clusters for 5 generations
USER: GENES 16
USER: genes 0 Translation |==|  0.27238 0.34658 0.54715
USER: genes 1 Rotation |==|  0.39967 0.57243 0.98184 0.55015
USER: genes 2 Torsion [N]-CA--C-[N] |==|  0.85959
USER: genes 3 Torsion [C]-N--CA-[CB] |==|  0.77762
USER: genes 4 Torsion [N]-CA--CB-[CG2] |==|  0.60959
USER: genes 5 Torsion [CA]-CB--OG1-[HG1] |==|  0.95015
USER: genes 6 Torsion [N]-CA--C-[N] |==|  0.17778
USER: genes 7 Torsion [C]-N--CA-[CB] |==|  0.85021
USER: genes 8 Torsion [N]-CA--CB-[CG] |==|  0.69212
USER: genes 9 Torsion [CA]-CB--CG-[CD1] |==|  0.39489
USER: genes 10 Torsion [N]-CA--C-[O] |==|  0.14205
USER: genes 11 Torsion [O]-C--CA-[N] |==|  0.92716
USER: genes 12 Torsion [N]-C--CA-[N] |==|  0.87060
USER: genes 13 Torsion [C]-CA--CB-[CG] |==|  0.62545
USER: genes 14 Torsion [CA]-CB--CG-[SD] |==|  0.53087
USER: genes 15 Torsion [CB]-CG--SD-[CE] |==|  0.37782
ROOT
ATOM      1  C   PRO R   4       1.669  -2.946 -14.198  1.00 60.54 LIG 0.24  C 
ATOM      2 O    PRO R   4       1.698  -2.535 -15.360  1.00 63.53 LIG-0.27  OA
ATOM      3  N   PRO R   5       0.658  -2.685 -13.350  1.00 48.92 LIG-0.34  N 
ATOM      4  CA  PRO R   5      -0.474  -1.844 -13.763  1.00 52.68 LIG 0.18  C 
ATOM      5  CB  PRO R   5      -1.359  -1.812 -12.511  1.00 55.54 LIG 0.04  C 
ATOM      6  CG  PRO R   5      -1.033  -3.058 -11.778  1.00 46.13 LIG 0.02  C 
ATOM      7  CD  PRO R   5       0.428  -3.311 -12.036  1.00 43.47 LIG 0.13  C 
ENDROOT
BRANCH 4 8
ATOM      8  C   PRO R   5      -0.071  -0.416 -14.144  1.00 58.07 LIG 0.24  C 
ATOM      9 O    PRO R   5      -0.440   0.074 -15.214  1.00 51.36 LIG-0.27  OA
ATOM     10  N   THR R   6       0.689   0.233 -13.266  1.00 69.24 LIG-0.34  N 
ATOM     11 H    THR R   6       0.911  -0.088 -12.499  1.00 69.24 LIG 0.16  HD
BRANCH 10 12
ATOM     12  CA  THR R   6       1.222   1.564 -13.533  1.00 55.31 LIG 0.20  C 
BRANCH 12 13
ATOM     13  CB  THR R   6       2.476   1.506 -14.433  1.00 60.29 LIG 0.15  C 
ATOM     14  CG2 THR R   6       3.517   2.517 -13.978  1.00 62.01 LIG 0.04  C 
BRANCH 13 15
ATOM     15 OG1  THR R   6       3.046   0.192 -14.381  1.00 91.48 LIG-0.39  OA
ATOM     16 HG1  THR R   6       2.755  -0.213 -13.706  1.00 91.48 LIG 0.21  HD
ENDBRANCH 13 15
ENDBRANCH 12 13
BRANCH 12 17
ATOM     17  C   THR R   6       0.158   2.417 -14.207  1.00 56.48 LIG 0.24  C 
ATOM     18  N   LEU R   7      -0.933   2.675 -13.489  1.00 43.78 LIG-0.35  N 
ATOM     19 H    LEU R   7      -1.051   2.402 -12.682  1.00 43.78 LIG 0.16  HD
ATOM     20 O    THR R   6       0.321   2.830 -15.358  1.00 41.48 LIG-0.27  OA
BRANCH 18 21
ATOM     21  CA  LEU R   7      -2.036   3.459 -14.029  1.00 53.52 LIG 0.16  C 
BRANCH 21 22
ATOM     22  CB  LEU R   7      -1.527   4.803 -14.554  1.00 41.32 LIG 0.04  C 
BRANCH 22 23
ATOM     23  CG  LEU R   7      -1.967   6.024 -13.741  1.00 48.65 LIG-0.02  C 
ATOM     24  CD1 LEU R   7      -0.855   7.063 -13.650  1.00 40.28 LIG 0.01  C 
ATOM     25  CD2 LEU R   7      -3.231   6.641 -14.328  1.00 37.72 LIG 0.01  C 
ENDBRANCH 22 23
ENDBRANCH 21 22
BRANCH 21 26
ATOM     26  C   LEU R   7      -2.777   2.699 -15.127  1.00 46.73 LIG 0.22  C 
ATOM     27 O    LEU R   7      -3.175   1.549 -14.937  1.00 57.50 LIG-0.29  OA
ENDBRANCH 21 26
ENDBRANCH 18 21
ENDBRANCH 12 17
ENDBRANCH 10 12
ENDBRANCH 4 8
BRANCH 1 28
ATOM     28  CA  PRO R   4       2.828  -3.800 -13.685  1.00 54.23 LIG 0.18  C 
ATOM     29  N   PRO R   4       3.468  -4.492 -14.807  1.00 66.40 LIG-0.34  N 
ATOM     30  CD  PRO R   4       4.676  -3.778 -15.246  1.00 55.20 LIG 0.13  C 
ATOM     31  C   MET R   3       3.139  -5.680 -15.345  1.00 65.13 LIG 0.26  C 
ATOM     32  CG  PRO R   4       5.181  -3.197 -13.966  1.00 51.34 LIG 0.02  C 
ATOM     33  CB  PRO R   4       3.951  -2.894 -13.144  1.00 43.90 LIG 0.04  C 
ATOM     34 O    MET R   3       3.711  -6.139 -16.336  1.00 74.37 LIG-0.27  OA
BRANCH 31 35
ATOM     35  CA  MET R   3       2.015  -6.470 -14.678  1.00 67.30 LIG 0.40  C 
ATOM     36  N   MET R   3       2.152  -6.535 -13.225  1.00 55.69 LIG 0.61  N 
BRANCH 35 37
ATOM     37  CB  MET R   3       0.674  -5.839 -15.070  1.00 55.44 LIG 0.06  C 
BRANCH 37 38
ATOM     38  CG  MET R   3      -0.307  -5.649 -13.934  1.00 49.90 LIG 0.08  C 
BRANCH 38 39
ATOM     39 SD   MET R   3      -1.928  -5.210 -14.589  1.00 67.63 LIG-0.17  SA
ATOM     40  CE  MET R   3      -2.991  -6.254 -13.594  1.00 69.90 LIG 0.09  C 
ENDBRANCH 38 39
ENDBRANCH 37 38
ENDBRANCH 35 37
ENDBRANCH 31 35
ENDBRANCH 1 28
TORSDOF 14
ENDMDL
MODEL 66
USER: ADFR SOLUTION from run 182
USER: SCORE 11.758078 LL:  -2.657 LR:  -9.200 RR:   0.000 FEB:  -5.024
USER: RMSD 9.703972
USER: SEED 181
USER: STATUS no improvement in best in 20 clusters for 5 generations
USER: GENES 16
USER: genes 0 Translation |==|  0.52900 0.27819 0.80849
USER: genes 1 Rotation |==|  0.74563 0.85549 0.30542 0.65946
USER: genes 2 Torsion [N]-CA--C-[N] |==|  0.64602
USER: genes 3 Torsion [C]-N--CA-[CB] |==|  0.86512
USER: genes 4 Torsion [N]-CA--CB-[CG2] |==|  0.44445
USER: genes 5 Torsion [CA]-CB--OG1-[HG1] |==|  0.87655
USER: genes 6 Torsion [N]-CA--C-[N] |==|  0.35846
USER: genes 7 Torsion [C]-N--CA-[CB] |==|  0.17973
USER: genes 8 Torsion [N]-CA--CB-[CG] |==|  0.60445
USER: genes 9 Torsion [CA]-CB--CG-[CD1] |==|  0.83633
USER: genes 10 Torsion [N]-CA--C-[O] |==|  0.13275
USER: genes 11 Torsion [O]-C--CA-[N] |==|  0.85708
USER: genes 12 Torsion [N]-C--CA-[N] |==|  0.87410
USER: genes 13 Torsion [C]-CA--CB-[CG] |==|  0.14417
USER: genes 14 Torsion [CA]-CB--CG-[SD] |==|  0.64868
USER: genes 15 Torsion [CB]-CG--SD-[CE] |==|  0.53574
ROOT
ATOM      1  C   PRO R   4       6.288  -4.331  -8.906  1.00 60.54 LIG 0.24  C 
ATOM      2 O    PRO R   4       5.429  -3.465  -8.729  1.00 63.53 LIG-0.27  OA
ATOM      3  N   PRO R   5       6.388  -5.049 -10.039  1.00 48.92 LIG-0.34  N 
ATOM      4  CA  PRO R   5       5.430  -4.862 -11.137  1.00 52.68 LIG 0.18  C 
ATOM      5  CB  PRO R   5       5.909  -5.866 -12.193  1.00 55.54 LIG 0.04  C 
ATOM      6  CG  PRO R   5       7.354  -6.051 -11.918  1.00 46.13 LIG 0.02  C 
ATOM      7  CD  PRO R   5       7.503  -5.933 -10.425  1.00 43.47 LIG 0.13  C 
ENDROOT
BRANCH 4 8
ATOM      8  C   PRO R   5       3.982  -5.175 -10.749  1.00 58.07 LIG 0.24  C 
ATOM      9 O    PRO R   5       3.473  -4.653  -9.755  1.00 51.36 LIG-0.27  OA
ATOM     10  N   THR R   6       3.337  -6.032 -11.536  1.00 69.24 LIG-0.34  N 
ATOM     11 H    THR R   6       3.672  -6.363 -12.256  1.00 69.24 LIG 0.16  HD
BRANCH 10 12
ATOM     12  CA  THR R   6       1.984  -6.491 -11.241  1.00 55.31 LIG 0.20  C 
BRANCH 12 13
ATOM     13  CB  THR R   6       1.848  -6.959  -9.775  1.00 60.29 LIG 0.15  C 
ATOM     14  CG2 THR R   6       0.390  -6.964  -9.341  1.00 62.01 LIG 0.04  C 
BRANCH 13 15
ATOM     15 OG1  THR R   6       2.380  -8.283  -9.640  1.00 91.48 LIG-0.39  OA
ATOM     16 HG1  THR R   6       2.112  -8.758 -10.278  1.00 91.48 LIG 0.21  HD
ENDBRANCH 13 15
ENDBRANCH 12 13
BRANCH 12 17
ATOM     17  C   THR R   6       0.991  -5.369 -11.505  1.00 56.48 LIG 0.24  C 
ATOM     18  N   LEU R   7      -0.050  -5.673 -12.275  1.00 43.78 LIG-0.35  N 
ATOM     19 H    LEU R   7      -0.190  -6.454 -12.607  1.00 43.78 LIG 0.16  HD
ATOM     20 O    THR R   6       1.170  -4.248 -11.023  1.00 41.48 LIG-0.27  OA
BRANCH 18 21
ATOM     21  CA  LEU R   7      -1.059  -4.680 -12.623  1.00 53.52 LIG 0.16  C 
BRANCH 21 22
ATOM     22  CB  LEU R   7      -0.441  -3.571 -13.477  1.00 41.32 LIG 0.04  C 
BRANCH 22 23
ATOM     23  CG  LEU R   7      -0.970  -2.162 -13.190  1.00 48.65 LIG-0.02  C 
ATOM     24  CD1 LEU R   7      -2.476  -2.077 -13.402  1.00 40.28 LIG 0.01  C 
ATOM     25  CD2 LEU R   7      -0.601  -1.722 -11.778  1.00 37.72 LIG 0.01  C 
ENDBRANCH 22 23
ENDBRANCH 21 22
BRANCH 21 26
ATOM     26  C   LEU R   7      -2.244  -5.317 -13.345  1.00 46.73 LIG 0.22  C 
ATOM     27 O    LEU R   7      -2.777  -6.336 -12.903  1.00 57.50 LIG-0.29  OA
ENDBRANCH 21 26
ENDBRANCH 18 21
ENDBRANCH 12 17
ENDBRANCH 10 12
ENDBRANCH 4 8
BRANCH 1 28
ATOM     28  CA  PRO R   4       7.300  -4.607  -7.795  1.00 54.23 LIG 0.18  C 
ATOM     29  N   PRO R   4       7.921  -3.351  -7.365  1.00 66.40 LIG-0.34  N 
ATOM     30  CD  PRO R   4       7.280  -2.837  -6.146  1.00 55.20 LIG 0.13  C 
ATOM     31  C   MET R   3       9.004  -2.743  -7.880  1.00 65.13 LIG 0.26  C 
ATOM     32  CG  PRO R   4       6.896  -4.095  -5.438  1.00 51.34 LIG 0.02  C 
ATOM     33  CB  PRO R   4       6.571  -5.091  -6.526  1.00 43.90 LIG 0.04  C 
ATOM     34 O    MET R   3       9.403  -1.648  -7.478  1.00 74.37 LIG-0.27  OA
BRANCH 31 35
ATOM     35  CA  MET R   3       9.754  -3.464  -8.999  1.00 67.30 LIG 0.40  C 
ATOM     36  N   MET R   3       9.967  -4.882  -8.717  1.00 55.69 LIG 0.61  N 
BRANCH 35 37
ATOM     37  CB  MET R   3       8.974  -3.282 -10.306  1.00 55.44 LIG 0.06  C 
BRANCH 37 38
ATOM     38  CG  MET R   3       8.621  -1.852 -10.653  1.00 49.90 LIG 0.08  C 
BRANCH 38 39
ATOM     39 SD   MET R   3       6.849  -1.713 -10.953  1.00 67.63 LIG-0.17  SA
ATOM     40  CE  MET R   3       6.757  -0.089 -11.704  1.00 69.90 LIG 0.09  C 
ENDBRANCH 38 39
ENDBRANCH 37 38
ENDBRANCH 35 37
ENDBRANCH 31 35
ENDBRANCH 1 28
TORSDOF 14
ENDMDL
MODEL 67
USER: ADFR SOLUTION from run 99
USER: SCORE 10.729849 LL:  -2.612 LR:  -9.191 RR:   0.000 FEB:  -5.015
USER: RMSD 9.098687
USER: SEED 98
USER: STATUS no improvement in best in 19 clusters for 5 generations
USER: GENES 16
USER: genes 0 Translation |==|  0.21407 0.38060 0.51541
USER: genes 1 Rotation |==|  0.00656 0.51069 0.53117 0.57368
USER: genes 2 Torsion [N]-CA--C-[N] |==|  0.24699
USER: genes 3 Torsion [C]-N--CA-[CB] |==|  0.26658
USER: genes 4 Torsion [N]-CA--CB-[CG2] |==|  0.68510
USER: genes 5 Torsion [CA]-CB--OG1-[HG1] |==|  0.14508
USER: genes 6 Torsion [N]-CA--C-[N] |==|  0.45462
USER: genes 7 Torsion [C]-N--CA-[CB] |==|  0.48809
USER: genes 8 Torsion [N]-CA--CB-[CG] |==|  0.51864
USER: genes 9 Torsion [CA]-CB--CG-[CD1] |==|  0.36916
USER: genes 10 Torsion [N]-CA--C-[O] |==|  0.80550
USER: genes 11 Torsion [O]-C--CA-[N] |==|  0.02649
USER: genes 12 Torsion [N]-C--CA-[N] |==|  0.20387
USER: genes 13 Torsion [C]-CA--CB-[CG] |==|  0.66560
USER: genes 14 Torsion [CA]-CB--CG-[SD] |==|  0.47375
USER: genes 15 Torsion [CB]-CG--SD-[CE] |==|  0.41379
ROOT
ATOM      1  C   PRO R   4       0.619  -2.257 -14.841  1.00 60.54 LIG 0.24  C 
ATOM      2 O    PRO R   4       1.272  -1.893 -13.861  1.00 63.53 LIG-0.27  OA
ATOM      3  N   PRO R   5       1.054  -2.125 -16.107  1.00 48.92 LIG-0.34  N 
ATOM      4  CA  PRO R   5       2.346  -1.488 -16.398  1.00 52.68 LIG 0.18  C 
ATOM      5  CB  PRO R   5       2.428  -1.546 -17.928  1.00 55.54 LIG 0.04  C 
ATOM      6  CG  PRO R   5       1.576  -2.697 -18.314  1.00 46.13 LIG 0.02  C 
ATOM      7  CD  PRO R   5       0.454  -2.727 -17.311  1.00 43.47 LIG 0.13  C 
ENDROOT
BRANCH 4 8
ATOM      8  C   PRO R   5       2.431  -0.031 -15.933  1.00 58.07 LIG 0.24  C 
ATOM      9 O    PRO R   5       2.119   0.888 -16.694  1.00 51.36 LIG-0.27  OA
ATOM     10  N   THR R   6       2.859   0.163 -14.689  1.00 69.24 LIG-0.34  N 
ATOM     11 H    THR R   6       3.033  -0.475 -14.140  1.00 69.24 LIG 0.16  HD
BRANCH 10 12
ATOM     12  CA  THR R   6       3.073   1.498 -14.139  1.00 55.31 LIG 0.20  C 
BRANCH 12 13
ATOM     13  CB  THR R   6       1.848   1.986 -13.335  1.00 60.29 LIG 0.15  C 
ATOM     14  CG2 THR R   6       1.183   3.168 -14.024  1.00 62.01 LIG 0.04  C 
BRANCH 13 15
ATOM     15 OG1  THR R   6       0.896   0.921 -13.212  1.00 91.48 LIG-0.39  OA
ATOM     16 HG1  THR R   6       1.279   0.237 -12.911  1.00 91.48 LIG 0.21  HD
ENDBRANCH 13 15
ENDBRANCH 12 13
BRANCH 12 17
ATOM     17  C   THR R   6       4.297   1.490 -13.235  1.00 56.48 LIG 0.24  C 
ATOM     18  N   LEU R   7       4.813   2.680 -12.935  1.00 43.78 LIG-0.35  N 
ATOM     19 H    LEU R   7       4.487   3.427 -13.207  1.00 43.78 LIG 0.16  HD
ATOM     20 O    THR R   6       4.766   0.427 -12.823  1.00 41.48 LIG-0.27  OA
BRANCH 18 21
ATOM     21  CA  LEU R   7       6.000   2.808 -12.099  1.00 53.52 LIG 0.16  C 
BRANCH 21 22
ATOM     22  CB  LEU R   7       6.430   4.273 -12.006  1.00 41.32 LIG 0.04  C 
BRANCH 22 23
ATOM     23  CG  LEU R   7       7.760   4.513 -11.285  1.00 48.65 LIG-0.02  C 
ATOM     24  CD1 LEU R   7       8.658   5.459 -12.072  1.00 40.28 LIG 0.01  C 
ATOM     25  CD2 LEU R   7       7.525   5.045  -9.876  1.00 37.72 LIG 0.01  C 
ENDBRANCH 22 23
ENDBRANCH 21 22
BRANCH 21 26
ATOM     26  C   LEU R   7       5.769   2.227 -10.706  1.00 46.73 LIG 0.22  C 
ATOM     27 O    LEU R   7       5.016   2.786  -9.907  1.00 57.50 LIG-0.29  OA
ENDBRANCH 21 26
ENDBRANCH 18 21
ENDBRANCH 12 17
ENDBRANCH 10 12
ENDBRANCH 4 8
BRANCH 1 28
ATOM     28  CA  PRO R   4      -0.750  -2.898 -14.621  1.00 54.23 LIG 0.18  C 
ATOM     29  N   PRO R   4      -1.144  -2.756 -13.216  1.00 66.40 LIG-0.34  N 
ATOM     30  CD  PRO R   4      -2.060  -1.619 -13.038  1.00 55.20 LIG 0.13  C 
ATOM     31  C   MET R   3      -0.857  -3.574 -12.188  1.00 65.13 LIG 0.26  C 
ATOM     32  CG  PRO R   4      -2.813  -1.617 -14.329  1.00 51.34 LIG 0.02  C 
ATOM     33  CB  PRO R   4      -1.834  -2.099 -15.372  1.00 43.90 LIG 0.04  C 
ATOM     34 O    MET R   3      -1.189  -3.321 -11.028  1.00 74.37 LIG-0.27  OA
BRANCH 31 35
ATOM     35  CA  MET R   3      -0.097  -4.861 -12.501  1.00 67.30 LIG 0.40  C 
ATOM     36  N   MET R   3       1.311  -4.628 -12.812  1.00 55.69 LIG 0.61  N 
BRANCH 35 37
ATOM     37  CB  MET R   3      -0.239  -5.814 -11.308  1.00 55.44 LIG 0.06  C 
BRANCH 37 38
ATOM     38  CG  MET R   3       1.061  -6.228 -10.654  1.00 49.90 LIG 0.08  C 
BRANCH 38 39
ATOM     39 SD   MET R   3       0.722  -7.111  -9.120  1.00 67.63 LIG-0.17  SA
ATOM     40  CE  MET R   3       2.118  -8.233  -9.057  1.00 69.90 LIG 0.09  C 
ENDBRANCH 38 39
ENDBRANCH 37 38
ENDBRANCH 35 37
ENDBRANCH 31 35
ENDBRANCH 1 28
TORSDOF 14
ENDMDL
MODEL 68
USER: ADFR SOLUTION from run 72
USER: SCORE 11.365032 LL:  -2.613 LR:  -9.168 RR:   0.000 FEB:  -4.991
USER: RMSD 7.975819
USER: SEED 71
USER: STATUS no improvement in best in 25 clusters for 5 generations
USER: GENES 16
USER: genes 0 Translation |==|  0.30629 0.32005 0.59508
USER: genes 1 Rotation |==|  0.05050 0.62949 0.34669 0.58762
USER: genes 2 Torsion [N]-CA--C-[N] |==|  0.43320
USER: genes 3 Torsion [C]-N--CA-[CB] |==|  0.52907
USER: genes 4 Torsion [N]-CA--CB-[CG2] |==|  0.32608
USER: genes 5 Torsion [CA]-CB--OG1-[HG1] |==|  0.99139
USER: genes 6 Torsion [N]-CA--C-[N] |==|  0.40000
USER: genes 7 Torsion [C]-N--CA-[CB] |==|  0.35639
USER: genes 8 Torsion [N]-CA--CB-[CG] |==|  0.00104
USER: genes 9 Torsion [CA]-CB--CG-[CD1] |==|  0.24382
USER: genes 10 Torsion [N]-CA--C-[O] |==|  0.85732
USER: genes 11 Torsion [O]-C--CA-[N] |==|  0.00713
USER: genes 12 Torsion [N]-C--CA-[N] |==|  0.88390
USER: genes 13 Torsion [C]-CA--CB-[CG] |==|  0.25429
USER: genes 14 Torsion [CA]-CB--CG-[SD] |==|  0.51502
USER: genes 15 Torsion [CB]-CG--SD-[CE] |==|  0.58141
ROOT
ATOM      1  C   PRO R   4       2.279  -3.483 -13.228  1.00 60.54 LIG 0.24  C 
ATOM      2 O    PRO R   4       2.289  -3.378 -12.000  1.00 63.53 LIG-0.27  OA
ATOM      3  N   PRO R   5       3.368  -3.807 -13.948  1.00 48.92 LIG-0.34  N 
ATOM      4  CA  PRO R   5       4.667  -4.020 -13.296  1.00 52.68 LIG 0.18  C 
ATOM      5  CB  PRO R   5       5.596  -4.354 -14.470  1.00 55.54 LIG 0.04  C 
ATOM      6  CG  PRO R   5       4.706  -4.909 -15.517  1.00 46.13 LIG 0.02  C 
ATOM      7  CD  PRO R   5       3.402  -4.173 -15.376  1.00 43.47 LIG 0.13  C 
ENDROOT
BRANCH 4 8
ATOM      8  C   PRO R   5       5.194  -2.786 -12.559  1.00 58.07 LIG 0.24  C 
ATOM      9 O    PRO R   5       4.825  -1.655 -12.886  1.00 51.36 LIG-0.27  OA
ATOM     10  N   THR R   6       6.057  -3.016 -11.573  1.00 69.24 LIG-0.34  N 
ATOM     11 H    THR R   6       6.282  -3.803 -11.311  1.00 69.24 LIG 0.16  HD
BRANCH 10 12
ATOM     12  CA  THR R   6       6.708  -1.935 -10.841  1.00 55.31 LIG 0.20  C 
BRANCH 12 13
ATOM     13  CB  THR R   6       7.844  -2.463  -9.937  1.00 60.29 LIG 0.15  C 
ATOM     14  CG2 THR R   6       9.187  -1.891 -10.365  1.00 62.01 LIG 0.04  C 
BRANCH 13 15
ATOM     15 OG1  THR R   6       7.590  -2.089  -8.576  1.00 91.48 LIG-0.39  OA
ATOM     16 HG1  THR R   6       6.895  -1.620  -8.540  1.00 91.48 LIG 0.21  HD
ENDBRANCH 13 15
ENDBRANCH 12 13
BRANCH 12 17
ATOM     17  C   THR R   6       7.276  -0.920 -11.821  1.00 56.48 LIG 0.24  C 
ATOM     18  N   LEU R   7       7.219   0.356 -11.446  1.00 43.78 LIG-0.35  N 
ATOM     19 H    LEU R   7       6.899   0.621 -10.693  1.00 43.78 LIG 0.16  HD
ATOM     20 O    THR R   6       7.753  -1.286 -12.898  1.00 41.48 LIG-0.27  OA
BRANCH 18 21
ATOM     21  CA  LEU R   7       7.706   1.427 -12.306  1.00 53.52 LIG 0.16  C 
BRANCH 21 22
ATOM     22  CB  LEU R   7       6.635   2.508 -12.469  1.00 41.32 LIG 0.04  C 
BRANCH 22 23
ATOM     23  CG  LEU R   7       5.329   2.246 -11.713  1.00 48.65 LIG-0.02  C 
ATOM     24  CD1 LEU R   7       5.391   2.786 -10.290  1.00 40.28 LIG 0.01  C 
ATOM     25  CD2 LEU R   7       4.141   2.839 -12.462  1.00 37.72 LIG 0.01  C 
ENDBRANCH 22 23
ENDBRANCH 21 22
BRANCH 21 26
ATOM     26  C   LEU R   7       9.001   2.031 -11.767  1.00 46.73 LIG 0.22  C 
ATOM     27 O    LEU R   7       9.080   2.410 -10.597  1.00 57.50 LIG-0.29  OA
ENDBRANCH 21 26
ENDBRANCH 18 21
ENDBRANCH 12 17
ENDBRANCH 10 12
ENDBRANCH 4 8
BRANCH 1 28
ATOM     28  CA  PRO R   4       0.971  -3.243 -13.981  1.00 54.23 LIG 0.18  C 
ATOM     29  N   PRO R   4      -0.079  -2.851 -13.037  1.00 66.40 LIG-0.34  N 
ATOM     30  CD  PRO R   4      -0.253  -1.391 -13.019  1.00 55.20 LIG 0.13  C 
ATOM     31  C   MET R   3      -0.903  -3.649 -12.335  1.00 65.13 LIG 0.26  C 
ATOM     32  CG  PRO R   4       0.059  -1.020 -14.433  1.00 51.34 LIG 0.02  C 
ATOM     33  CB  PRO R   4       1.106  -2.006 -14.891  1.00 43.90 LIG 0.04  C 
ATOM     34 O    MET R   3      -1.712  -3.208 -11.515  1.00 74.37 LIG-0.27  OA
BRANCH 31 35
ATOM     35  CA  MET R   3      -0.815  -5.152 -12.588  1.00 67.30 LIG 0.40  C 
ATOM     36  N   MET R   3      -0.680  -5.482 -14.005  1.00 55.69 LIG 0.61  N 
BRANCH 35 37
ATOM     37  CB  MET R   3       0.362  -5.716 -11.784  1.00 55.44 LIG 0.06  C 
BRANCH 37 38
ATOM     38  CG  MET R   3       0.019  -6.214 -10.398  1.00 49.90 LIG 0.08  C 
BRANCH 38 39
ATOM     39 SD   MET R   3       1.522  -6.694  -9.527  1.00 67.63 LIG-0.17  SA
ATOM     40  CE  MET R   3       0.893  -7.975  -8.443  1.00 69.90 LIG 0.09  C 
ENDBRANCH 38 39
ENDBRANCH 37 38
ENDBRANCH 35 37
ENDBRANCH 31 35
ENDBRANCH 1 28
TORSDOF 14
ENDMDL
MODEL 69
USER: ADFR SOLUTION from run 140
USER: SCORE 11.445859 LL:  -2.607 LR:  -9.154 RR:   0.000 FEB:  -4.977
USER: RMSD 10.041193
USER: SEED 139
USER: STATUS no improvement in best in 12 clusters for 5 generations
USER: GENES 16
USER: genes 0 Translation |==|  0.56959 0.34382 0.75943
USER: genes 1 Rotation |==|  0.95188 0.70387 0.43885 0.52234
USER: genes 2 Torsion [N]-CA--C-[N] |==|  0.37279
USER: genes 3 Torsion [C]-N--CA-[CB] |==|  0.53889
USER: genes 4 Torsion [N]-CA--CB-[CG2] |==|  0.29334
USER: genes 5 Torsion [CA]-CB--OG1-[HG1] |==|  0.29272
USER: genes 6 Torsion [N]-CA--C-[N] |==|  0.41250
USER: genes 7 Torsion [C]-N--CA-[CB] |==|  0.47368
USER: genes 8 Torsion [N]-CA--CB-[CG] |==|  0.60718
USER: genes 9 Torsion [CA]-CB--CG-[CD1] |==|  0.23282
USER: genes 10 Torsion [N]-CA--C-[O] |==|  0.84555
USER: genes 11 Torsion [O]-C--CA-[N] |==|  0.03208
USER: genes 12 Torsion [N]-C--CA-[N] |==|  0.34294
USER: genes 13 Torsion [C]-CA--CB-[CG] |==|  0.30272
USER: genes 14 Torsion [CA]-CB--CG-[SD] |==|  0.65528
USER: genes 15 Torsion [CB]-CG--SD-[CE] |==|  0.25323
ROOT
ATOM      1  C   PRO R   4       7.019  -3.002  -9.900  1.00 60.54 LIG 0.24  C 
ATOM      2 O    PRO R   4       7.010  -2.023  -9.150  1.00 63.53 LIG-0.27  OA
ATOM      3  N   PRO R   5       7.335  -2.927 -11.205  1.00 48.92 LIG-0.34  N 
ATOM      4  CA  PRO R   5       7.657  -1.637 -11.830  1.00 52.68 LIG 0.18  C 
ATOM      5  CB  PRO R   5       7.941  -2.018 -13.288  1.00 55.54 LIG 0.04  C 
ATOM      6  CG  PRO R   5       8.372  -3.435 -13.238  1.00 46.13 LIG 0.02  C 
ATOM      7  CD  PRO R   5       7.590  -4.059 -12.114  1.00 43.47 LIG 0.13  C 
ENDROOT
BRANCH 4 8
ATOM      8  C   PRO R   5       6.509  -0.625 -11.776  1.00 58.07 LIG 0.24  C 
ATOM      9 O    PRO R   5       5.360  -0.964 -12.072  1.00 51.36 LIG-0.27  OA
ATOM     10  N   THR R   6       6.834   0.610 -11.405  1.00 69.24 LIG-0.34  N 
ATOM     11 H    THR R   6       7.624   0.840 -11.154  1.00 69.24 LIG 0.16  HD
BRANCH 10 12
ATOM     12  CA  THR R   6       5.863   1.699 -11.392  1.00 55.31 LIG 0.20  C 
BRANCH 12 13
ATOM     13  CB  THR R   6       6.554   3.076 -11.263  1.00 60.29 LIG 0.15  C 
ATOM     14  CG2 THR R   6       6.534   3.818 -12.591  1.00 62.01 LIG 0.04  C 
BRANCH 13 15
ATOM     15 OG1  THR R   6       5.875   3.865 -10.278  1.00 91.48 LIG-0.39  OA
ATOM     16 HG1  THR R   6       6.337   3.895  -9.577  1.00 91.48 LIG 0.21  HD
ENDBRANCH 13 15
ENDBRANCH 12 13
BRANCH 12 17
ATOM     17  C   THR R   6       5.040   1.668 -12.671  1.00 56.48 LIG 0.24  C 
ATOM     18  N   LEU R   7       3.784   2.097 -12.572  1.00 43.78 LIG-0.35  N 
ATOM     19 H    LEU R   7       3.434   2.395 -11.845  1.00 43.78 LIG 0.16  HD
ATOM     20 O    THR R   6       5.532   1.259 -13.725  1.00 41.48 LIG-0.27  OA
BRANCH 18 21
ATOM     21  CA  LEU R   7       2.883   2.094 -13.717  1.00 53.52 LIG 0.16  C 
BRANCH 21 22
ATOM     22  CB  LEU R   7       1.454   2.411 -13.272  1.00 41.32 LIG 0.04  C 
BRANCH 22 23
ATOM     23  CG  LEU R   7       0.360   1.616 -13.991  1.00 48.65 LIG-0.02  C 
ATOM     24  CD1 LEU R   7       0.152   0.250 -13.350  1.00 40.28 LIG 0.01  C 
ATOM     25  CD2 LEU R   7      -0.947   2.399 -14.024  1.00 37.72 LIG 0.01  C 
ENDBRANCH 22 23
ENDBRANCH 21 22
BRANCH 21 26
ATOM     26  C   LEU R   7       3.342   3.077 -14.792  1.00 46.73 LIG 0.22  C 
ATOM     27 O    LEU R   7       3.522   4.265 -14.522  1.00 57.50 LIG-0.29  OA
ENDBRANCH 21 26
ENDBRANCH 18 21
ENDBRANCH 12 17
ENDBRANCH 10 12
ENDBRANCH 4 8
BRANCH 1 28
ATOM     28  CA  PRO R   4       6.661  -4.374  -9.330  1.00 54.23 LIG 0.18  C 
ATOM     29  N   PRO R   4       6.093  -4.220  -7.987  1.00 66.40 LIG-0.34  N 
ATOM     30  CD  PRO R   4       4.624  -4.266  -8.028  1.00 55.20 LIG 0.13  C 
ATOM     31  C   MET R   3       6.746  -4.162  -6.813  1.00 65.13 LIG 0.26  C 
ATOM     32  CG  PRO R   4       4.371  -5.212  -9.157  1.00 51.34 LIG 0.02  C 
ATOM     33  CB  PRO R   4       5.501  -4.993 -10.133  1.00 43.90 LIG 0.04  C 
ATOM     34 O    MET R   3       6.166  -3.965  -5.742  1.00 74.37 LIG-0.27  OA
BRANCH 31 35
ATOM     35  CA  MET R   3       8.260  -4.359  -6.836  1.00 67.30 LIG 0.40  C 
ATOM     36  N   MET R   3       8.987  -3.240  -6.241  1.00 55.69 LIG 0.61  N 
BRANCH 35 37
ATOM     37  CB  MET R   3       8.593  -5.669  -6.112  1.00 55.44 LIG 0.06  C 
BRANCH 37 38
ATOM     38  CG  MET R   3       9.067  -6.797  -7.004  1.00 49.90 LIG 0.08  C 
BRANCH 38 39
ATOM     39 SD   MET R   3       8.021  -8.245  -6.769  1.00 67.63 LIG-0.17  SA
ATOM     40  CE  MET R   3       6.775  -7.974  -8.028  1.00 69.90 LIG 0.09  C 
ENDBRANCH 38 39
ENDBRANCH 37 38
ENDBRANCH 35 37
ENDBRANCH 31 35
ENDBRANCH 1 28
TORSDOF 14
ENDMDL
MODEL 70
USER: ADFR SOLUTION from run 8
USER: SCORE 11.496637 LL:  -3.262 LR:  -9.148 RR:   0.000 FEB:  -4.972
USER: RMSD 7.141208
USER: SEED 106826
USER: STATUS no improvement in best in 27 clusters for 5 generations
USER: GENES 16
USER: genes 0 Translation |==|  0.43651 0.27061 0.65131
USER: genes 1 Rotation |==|  0.20563 0.76515 0.58523 0.79288
USER: genes 2 Torsion [N]-CA--C-[N] |==|  0.87750
USER: genes 3 Torsion [C]-N--CA-[CB] |==|  0.21090
USER: genes 4 Torsion [N]-CA--CB-[CG2] |==|  0.69655
USER: genes 5 Torsion [CA]-CB--OG1-[HG1] |==|  0.73963
USER: genes 6 Torsion [N]-CA--C-[N] |==|  0.44444
USER: genes 7 Torsion [C]-N--CA-[CB] |==|  0.29974
USER: genes 8 Torsion [N]-CA--CB-[CG] |==|  0.72652
USER: genes 9 Torsion [CA]-CB--CG-[CD1] |==|  0.16140
USER: genes 10 Torsion [N]-CA--C-[O] |==|  0.25417
USER: genes 11 Torsion [O]-C--CA-[N] |==|  0.94971
USER: genes 12 Torsion [N]-C--CA-[N] |==|  0.31680
USER: genes 13 Torsion [C]-CA--CB-[CG] |==|  0.19443
USER: genes 14 Torsion [CA]-CB--CG-[SD] |==|  0.32502
USER: genes 15 Torsion [CB]-CG--SD-[CE] |==|  0.68543
ROOT
ATOM      1  C   PRO R   4       4.623  -4.484 -12.089  1.00 60.54 LIG 0.24  C 
ATOM      2 O    PRO R   4       4.992  -5.651 -11.939  1.00 63.53 LIG-0.27  OA
ATOM      3  N   PRO R   5       5.173  -3.648 -12.987  1.00 48.92 LIG-0.34  N 
ATOM      4  CA  PRO R   5       6.296  -4.080 -13.831  1.00 52.68 LIG 0.18  C 
ATOM      5  CB  PRO R   5       6.596  -2.836 -14.676  1.00 55.54 LIG 0.04  C 
ATOM      6  CG  PRO R   5       5.319  -2.085 -14.721  1.00 46.13 LIG 0.02  C 
ATOM      7  CD  PRO R   5       4.657  -2.327 -13.391  1.00 43.47 LIG 0.13  C 
ENDROOT
BRANCH 4 8
ATOM      8  C   PRO R   5       7.544  -4.476 -13.037  1.00 58.07 LIG 0.24  C 
ATOM      9 O    PRO R   5       8.172  -5.497 -13.326  1.00 51.36 LIG-0.27  OA
ATOM     10  N   THR R   6       7.885  -3.665 -12.039  1.00 69.24 LIG-0.34  N 
ATOM     11 H    THR R   6       7.477  -2.929 -11.863  1.00 69.24 LIG 0.16  HD
BRANCH 10 12
ATOM     12  CA  THR R   6       8.997  -3.961 -11.142  1.00 55.31 LIG 0.20  C 
BRANCH 12 13
ATOM     13  CB  THR R   6      10.360  -3.690 -11.817  1.00 60.29 LIG 0.15  C 
ATOM     14  CG2 THR R   6      11.086  -4.993 -12.114  1.00 62.01 LIG 0.04  C 
BRANCH 13 15
ATOM     15 OG1  THR R   6      10.157  -2.979 -13.045  1.00 91.48 LIG-0.39  OA
ATOM     16 HG1  THR R   6      10.112  -3.525 -13.681  1.00 91.48 LIG 0.21  HD
ENDBRANCH 13 15
ENDBRANCH 12 13
BRANCH 12 17
ATOM     17  C   THR R   6       8.882  -3.113  -9.884  1.00 56.48 LIG 0.24  C 
ATOM     18  N   LEU R   7       9.555  -3.544  -8.821  1.00 43.78 LIG-0.35  N 
ATOM     19 H    LEU R   7      10.048  -4.249  -8.818  1.00 43.78 LIG 0.16  HD
ATOM     20 O    THR R   6       8.193  -2.090  -9.878  1.00 41.48 LIG-0.27  OA
BRANCH 18 21
ATOM     21  CA  LEU R   7       9.508  -2.836  -7.548  1.00 53.52 LIG 0.16  C 
BRANCH 21 22
ATOM     22  CB  LEU R   7       8.684  -3.626  -6.529  1.00 41.32 LIG 0.04  C 
BRANCH 22 23
ATOM     23  CG  LEU R   7       7.235  -3.160  -6.365  1.00 48.65 LIG-0.02  C 
ATOM     24  CD1 LEU R   7       6.478  -3.218  -7.686  1.00 40.28 LIG 0.01  C 
ATOM     25  CD2 LEU R   7       6.518  -3.980  -5.299  1.00 37.72 LIG 0.01  C 
ENDBRANCH 22 23
ENDBRANCH 21 22
BRANCH 21 26
ATOM     26  C   LEU R   7      10.909  -2.560  -7.008  1.00 46.73 LIG 0.22  C 
ATOM     27 O    LEU R   7      11.492  -1.509  -7.278  1.00 57.50 LIG-0.29  OA
ENDBRANCH 21 26
ENDBRANCH 18 21
ENDBRANCH 12 17
ENDBRANCH 10 12
ENDBRANCH 4 8
BRANCH 1 28
ATOM     28  CA  PRO R   4       3.482  -3.951 -11.223  1.00 54.23 LIG 0.18  C 
ATOM     29  N   PRO R   4       2.735  -5.070 -10.644  1.00 66.40 LIG-0.34  N 
ATOM     30  CD  PRO R   4       3.166  -5.333  -9.263  1.00 55.20 LIG 0.13  C 
ATOM     31  C   MET R   3       1.701  -5.743 -11.180  1.00 65.13 LIG 0.26  C 
ATOM     32  CG  PRO R   4       3.519  -3.964  -8.778  1.00 51.34 LIG 0.02  C 
ATOM     33  CB  PRO R   4       4.052  -3.231  -9.985  1.00 43.90 LIG 0.04  C 
ATOM     34 O    MET R   3       1.186  -6.717 -10.626  1.00 74.37 LIG-0.27  OA
BRANCH 31 35
ATOM     35  CA  MET R   3       1.161  -5.254 -12.522  1.00 67.30 LIG 0.40  C 
ATOM     36  N   MET R   3       1.371  -6.214 -13.603  1.00 55.69 LIG 0.61  N 
BRANCH 35 37
ATOM     37  CB  MET R   3      -0.331  -4.936 -12.362  1.00 55.44 LIG 0.06  C 
BRANCH 37 38
ATOM     38  CG  MET R   3      -0.645  -3.718 -11.521  1.00 49.90 LIG 0.08  C 
BRANCH 38 39
ATOM     39 SD   MET R   3      -1.473  -2.474 -12.528  1.00 67.63 LIG-0.17  SA
ATOM     40  CE  MET R   3      -0.234  -1.180 -12.557  1.00 69.90 LIG 0.09  C 
ENDBRANCH 38 39
ENDBRANCH 37 38
ENDBRANCH 35 37
ENDBRANCH 31 35
ENDBRANCH 1 28
TORSDOF 14
ENDMDL
MODEL 71
USER: ADFR SOLUTION from run 33
USER: SCORE 11.732243 LL:  -3.134 LR:  -9.150 RR:   0.000 FEB:  -4.974
USER: RMSD 8.458380
USER: SEED 32
USER: STATUS no improvement in best in 26 clusters for 5 generations
USER: GENES 16
USER: genes 0 Translation |==|  0.34861 0.25264 0.69243
USER: genes 1 Rotation |==|  0.82045 0.34376 0.84258 0.57444
USER: genes 2 Torsion [N]-CA--C-[N] |==|  0.48184
USER: genes 3 Torsion [C]-N--CA-[CB] |==|  0.51111
USER: genes 4 Torsion [N]-CA--CB-[CG2] |==|  0.24629
USER: genes 5 Torsion [CA]-CB--OG1-[HG1] |==|  0.05113
USER: genes 6 Torsion [N]-CA--C-[N] |==|  0.40031
USER: genes 7 Torsion [C]-N--CA-[CB] |==|  0.27884
USER: genes 8 Torsion [N]-CA--CB-[CG] |==|  0.90044
USER: genes 9 Torsion [CA]-CB--CG-[CD1] |==|  0.32142
USER: genes 10 Torsion [N]-CA--C-[O] |==|  0.18648
USER: genes 11 Torsion [O]-C--CA-[N] |==|  0.00792
USER: genes 12 Torsion [N]-C--CA-[N] |==|  0.86358
USER: genes 13 Torsion [C]-CA--CB-[CG] |==|  0.59393
USER: genes 14 Torsion [CA]-CB--CG-[SD] |==|  0.36761
USER: genes 15 Torsion [CB]-CG--SD-[CE] |==|  0.42886
ROOT
ATOM      1  C   PRO R   4       3.041  -4.848 -11.256  1.00 60.54 LIG 0.24  C 
ATOM      2 O    PRO R   4       2.671  -3.883 -10.585  1.00 63.53 LIG-0.27  OA
ATOM      3  N   PRO R   5       3.767  -5.862 -10.751  1.00 48.92 LIG-0.34  N 
ATOM      4  CA  PRO R   5       4.202  -5.852  -9.348  1.00 52.68 LIG 0.18  C 
ATOM      5  CB  PRO R   5       4.985  -7.163  -9.217  1.00 55.54 LIG 0.04  C 
ATOM      6  CG  PRO R   5       4.426  -8.052 -10.263  1.00 46.13 LIG 0.02  C 
ATOM      7  CD  PRO R   5       4.058  -7.149 -11.409  1.00 43.47 LIG 0.13  C 
ENDROOT
BRANCH 4 8
ATOM      8  C   PRO R   5       5.111  -4.672  -8.995  1.00 58.07 LIG 0.24  C 
ATOM      9 O    PRO R   5       5.518  -3.909  -9.875  1.00 51.36 LIG-0.27  OA
ATOM     10  N   THR R   6       5.425  -4.538  -7.709  1.00 69.24 LIG-0.34  N 
ATOM     11 H    THR R   6       5.107  -5.038  -7.087  1.00 69.24 LIG 0.16  HD
BRANCH 10 12
ATOM     12  CA  THR R   6       6.350  -3.514  -7.237  1.00 55.31 LIG 0.20  C 
BRANCH 12 13
ATOM     13  CB  THR R   6       6.615  -3.641  -5.720  1.00 60.29 LIG 0.15  C 
ATOM     14  CG2 THR R   6       7.781  -4.580  -5.450  1.00 62.01 LIG 0.04  C 
BRANCH 13 15
ATOM     15 OG1  THR R   6       6.917  -2.351  -5.174  1.00 91.48 LIG-0.39  OA
ATOM     16 HG1  THR R   6       6.654  -1.754  -5.703  1.00 91.48 LIG 0.21  HD
ENDBRANCH 13 15
ENDBRANCH 12 13
BRANCH 12 17
ATOM     17  C   THR R   6       7.669  -3.628  -7.988  1.00 56.48 LIG 0.24  C 
ATOM     18  N   LEU R   7       8.290  -2.484  -8.262  1.00 43.78 LIG-0.35  N 
ATOM     19 H    LEU R   7       7.997  -1.710  -8.027  1.00 43.78 LIG 0.16  HD
ATOM     20 O    THR R   6       8.111  -4.732  -8.316  1.00 41.48 LIG-0.27  OA
BRANCH 18 21
ATOM     21  CA  LEU R   7       9.548  -2.455  -8.998  1.00 53.52 LIG 0.16  C 
BRANCH 21 22
ATOM     22  CB  LEU R   7       9.299  -2.090 -10.463  1.00 41.32 LIG 0.04  C 
BRANCH 22 23
ATOM     23  CG  LEU R   7       8.003  -2.647 -11.058  1.00 48.65 LIG-0.02  C 
ATOM     24  CD1 LEU R   7       7.042  -1.529 -11.446  1.00 40.28 LIG 0.01  C 
ATOM     25  CD2 LEU R   7       8.296  -3.542 -12.256  1.00 37.72 LIG 0.01  C 
ENDBRANCH 22 23
ENDBRANCH 21 22
BRANCH 21 26
ATOM     26  C   LEU R   7      10.544  -1.487  -8.365  1.00 46.73 LIG 0.22  C 
ATOM     27 O    LEU R   7      11.024  -1.714  -7.253  1.00 57.50 LIG-0.29  OA
ENDBRANCH 21 26
ENDBRANCH 18 21
ENDBRANCH 12 17
ENDBRANCH 10 12
ENDBRANCH 4 8
BRANCH 1 28
ATOM     28  CA  PRO R   4       2.657  -4.912 -12.734  1.00 54.23 LIG 0.18  C 
ATOM     29  N   PRO R   4       1.926  -3.699 -13.110  1.00 66.40 LIG-0.34  N 
ATOM     30  CD  PRO R   4       2.816  -2.730 -13.765  1.00 55.20 LIG 0.13  C 
ATOM     31  C   MET R   3       0.605  -3.465 -13.017  1.00 65.13 LIG 0.26  C 
ATOM     32  CG  PRO R   4       3.778  -3.621 -14.481  1.00 51.34 LIG 0.02  C 
ATOM     33  CB  PRO R   4       3.922  -4.846 -13.612  1.00 43.90 LIG 0.04  C 
ATOM     34 O    MET R   3       0.104  -2.375 -13.305  1.00 74.37 LIG-0.27  OA
BRANCH 31 35
ATOM     35  CA  MET R   3      -0.284  -4.612 -12.543  1.00 67.30 LIG 0.40  C 
ATOM     36  N   MET R   3      -0.028  -5.861 -13.256  1.00 55.69 LIG 0.61  N 
BRANCH 35 37
ATOM     37  CB  MET R   3      -0.082  -4.796 -11.035  1.00 55.44 LIG 0.06  C 
BRANCH 37 38
ATOM     38  CG  MET R   3      -0.181  -6.222 -10.539  1.00 49.90 LIG 0.08  C 
BRANCH 38 39
ATOM     39 SD   MET R   3       1.210  -6.594  -9.456  1.00 67.63 LIG-0.17  SA
ATOM     40  CE  MET R   3       0.515  -7.899  -8.444  1.00 69.90 LIG 0.09  C 
ENDBRANCH 38 39
ENDBRANCH 37 38
ENDBRANCH 35 37
ENDBRANCH 31 35
ENDBRANCH 1 28
TORSDOF 14
ENDMDL
MODEL 72
USER: ADFR SOLUTION from run 95
USER: SCORE 12.023876 LL:  -3.448 LR:  -9.126 RR:   0.000 FEB:  -4.950
USER: RMSD 9.341572
USER: SEED 94
USER: STATUS no improvement in best in 15 clusters for 5 generations
USER: GENES 16
USER: genes 0 Translation |==|  0.26788 0.37228 0.54691
USER: genes 1 Rotation |==|  0.60283 0.40951 0.01920 0.50815
USER: genes 2 Torsion [N]-CA--C-[N] |==|  0.90666
USER: genes 3 Torsion [C]-N--CA-[CB] |==|  0.23889
USER: genes 4 Torsion [N]-CA--CB-[CG2] |==|  0.54418
USER: genes 5 Torsion [CA]-CB--OG1-[HG1] |==|  0.27604
USER: genes 6 Torsion [N]-CA--C-[N] |==|  0.00305
USER: genes 7 Torsion [C]-N--CA-[CB] |==|  0.82099
USER: genes 8 Torsion [N]-CA--CB-[CG] |==|  0.85784
USER: genes 9 Torsion [CA]-CB--CG-[CD1] |==|  0.29462
USER: genes 10 Torsion [N]-CA--C-[O] |==|  0.34085
USER: genes 11 Torsion [O]-C--CA-[N] |==|  0.81824
USER: genes 12 Torsion [N]-C--CA-[N] |==|  0.30179
USER: genes 13 Torsion [C]-CA--CB-[CG] |==|  0.44266
USER: genes 14 Torsion [CA]-CB--CG-[SD] |==|  0.19926
USER: genes 15 Torsion [CB]-CG--SD-[CE] |==|  0.35621
ROOT
ATOM      1  C   PRO R   4       1.588  -2.425 -14.203  1.00 60.54 LIG 0.24  C 
ATOM      2 O    PRO R   4       1.509  -2.161 -15.404  1.00 63.53 LIG-0.27  OA
ATOM      3  N   PRO R   5       0.560  -2.280 -13.348  1.00 48.92 LIG-0.34  N 
ATOM      4  CA  PRO R   5      -0.732  -1.748 -13.804  1.00 52.68 LIG 0.18  C 
ATOM      5  CB  PRO R   5      -1.581  -1.751 -12.528  1.00 55.54 LIG 0.04  C 
ATOM      6  CG  PRO R   5      -0.985  -2.805 -11.673  1.00 46.13 LIG 0.02  C 
ATOM      7  CD  PRO R   5       0.491  -2.777 -11.962  1.00 43.47 LIG 0.13  C 
ENDROOT
BRANCH 4 8
ATOM      8  C   PRO R   5      -0.646  -0.325 -14.363  1.00 58.07 LIG 0.24  C 
ATOM      9 O    PRO R   5      -1.377   0.029 -15.292  1.00 51.36 LIG-0.27  OA
ATOM     10  N   THR R   6       0.252   0.475 -13.794  1.00 69.24 LIG-0.34  N 
ATOM     11 H    THR R   6       0.731   0.248 -13.117  1.00 69.24 LIG 0.16  HD
BRANCH 10 12
ATOM     12  CA  THR R   6       0.506   1.827 -14.278  1.00 55.31 LIG 0.20  C 
BRANCH 12 13
ATOM     13  CB  THR R   6      -0.473   2.848 -13.656  1.00 60.29 LIG 0.15  C 
ATOM     14  CG2 THR R   6      -0.465   4.153 -14.438  1.00 62.01 LIG 0.04  C 
BRANCH 13 15
ATOM     15 OG1  THR R   6      -1.801   2.308 -13.662  1.00 91.48 LIG-0.39  OA
ATOM     16 HG1  THR R   6      -1.981   1.999 -12.903  1.00 91.48 LIG 0.21  HD
ENDBRANCH 13 15
ENDBRANCH 12 13
BRANCH 12 17
ATOM     17  C   THR R   6       1.934   2.233 -13.944  1.00 56.48 LIG 0.24  C 
ATOM     18  N   LEU R   7       2.673   1.319 -13.320  1.00 43.78 LIG-0.35  N 
ATOM     19 H    LEU R   7       2.394   0.531 -13.118  1.00 43.78 LIG 0.16  HD
ATOM     20 O    THR R   6       2.354   3.353 -14.242  1.00 41.48 LIG-0.27  OA
BRANCH 18 21
ATOM     21  CA  LEU R   7       4.048   1.592 -12.922  1.00 53.52 LIG 0.16  C 
BRANCH 21 22
ATOM     22  CB  LEU R   7       4.925   1.820 -14.155  1.00 41.32 LIG 0.04  C 
BRANCH 22 23
ATOM     23  CG  LEU R   7       4.826   0.733 -15.230  1.00 48.65 LIG-0.02  C 
ATOM     24  CD1 LEU R   7       4.033   1.215 -16.438  1.00 40.28 LIG 0.01  C 
ATOM     25  CD2 LEU R   7       6.212   0.260 -15.651  1.00 37.72 LIG 0.01  C 
ENDBRANCH 22 23
ENDBRANCH 21 22
BRANCH 21 26
ATOM     26  C   LEU R   7       4.130   2.788 -11.976  1.00 46.73 LIG 0.22  C 
ATOM     27 O    LEU R   7       4.638   2.674 -10.860  1.00 57.50 LIG-0.29  OA
ENDBRANCH 21 26
ENDBRANCH 18 21
ENDBRANCH 12 17
ENDBRANCH 10 12
ENDBRANCH 4 8
BRANCH 1 28
ATOM     28  CA  PRO R   4       2.910  -2.952 -13.646  1.00 54.23 LIG 0.18  C 
ATOM     29  N   PRO R   4       3.203  -4.266 -14.223  1.00 66.40 LIG-0.34  N 
ATOM     30  CD  PRO R   4       4.148  -4.151 -15.344  1.00 55.20 LIG 0.13  C 
ATOM     31  C   MET R   3       2.806  -5.473 -13.781  1.00 65.13 LIG 0.26  C 
ATOM     32  CG  PRO R   4       4.995  -2.994 -14.923  1.00 51.34 LIG 0.02  C 
ATOM     33  CB  PRO R   4       4.078  -2.080 -14.147  1.00 43.90 LIG 0.04  C 
ATOM     34 O    MET R   3       3.060  -6.517 -14.387  1.00 74.37 LIG-0.27  OA
BRANCH 31 35
ATOM     35  CA  MET R   3       2.020  -5.522 -12.473  1.00 67.30 LIG 0.40  C 
ATOM     36  N   MET R   3       0.610  -5.848 -12.670  1.00 55.69 LIG 0.61  N 
BRANCH 35 37
ATOM     37  CB  MET R   3       2.687  -6.539 -11.540  1.00 55.44 LIG 0.06  C 
BRANCH 37 38
ATOM     38  CG  MET R   3       2.365  -6.377 -10.070  1.00 49.90 LIG 0.08  C 
BRANCH 38 39
ATOM     39 SD   MET R   3       0.663  -6.877  -9.756  1.00 67.63 LIG-0.17  SA
ATOM     40  CE  MET R   3       0.891  -8.032  -8.405  1.00 69.90 LIG 0.09  C 
ENDBRANCH 38 39
ENDBRANCH 37 38
ENDBRANCH 35 37
ENDBRANCH 31 35
ENDBRANCH 1 28
TORSDOF 14
ENDMDL
MODEL 73
USER: ADFR SOLUTION from run 118
USER: SCORE 11.066115 LL:  -2.945 LR:  -9.135 RR:   0.000 FEB:  -4.959
USER: RMSD 7.651689
USER: SEED 117
USER: STATUS no improvement in best in 25 clusters for 5 generations
USER: GENES 16
USER: genes 0 Translation |==|  0.30478 0.26228 0.63298
USER: genes 1 Rotation |==|  0.69978 0.41201 0.83761 0.79727
USER: genes 2 Torsion [N]-CA--C-[N] |==|  0.23232
USER: genes 3 Torsion [C]-N--CA-[CB] |==|  0.21954
USER: genes 4 Torsion [N]-CA--CB-[CG2] |==|  0.12032
USER: genes 5 Torsion [CA]-CB--OG1-[HG1] |==|  0.62252
USER: genes 6 Torsion [N]-CA--C-[N] |==|  0.37926
USER: genes 7 Torsion [C]-N--CA-[CB] |==|  0.24544
USER: genes 8 Torsion [N]-CA--CB-[CG] |==|  0.62436
USER: genes 9 Torsion [CA]-CB--CG-[CD1] |==|  0.86318
USER: genes 10 Torsion [N]-CA--C-[O] |==|  0.79700
USER: genes 11 Torsion [O]-C--CA-[N] |==|  0.91259
USER: genes 12 Torsion [N]-C--CA-[N] |==|  0.84300
USER: genes 13 Torsion [C]-CA--CB-[CG] |==|  0.13194
USER: genes 14 Torsion [CA]-CB--CG-[SD] |==|  0.12207
USER: genes 15 Torsion [CB]-CG--SD-[CE] |==|  0.61444
ROOT
ATOM      1  C   PRO R   4       2.252  -4.653 -12.460  1.00 60.54 LIG 0.24  C 
ATOM      2 O    PRO R   4       2.601  -3.518 -12.792  1.00 63.53 LIG-0.27  OA
ATOM      3  N   PRO R   5       2.460  -5.157 -11.231  1.00 48.92 LIG-0.34  N 
ATOM      4  CA  PRO R   5       3.166  -4.377 -10.205  1.00 52.68 LIG 0.18  C 
ATOM      5  CB  PRO R   5       3.180  -5.321  -8.997  1.00 55.54 LIG 0.04  C 
ATOM      6  CG  PRO R   5       2.012  -6.212  -9.193  1.00 46.13 LIG 0.02  C 
ATOM      7  CD  PRO R   5       1.886  -6.399 -10.680  1.00 43.47 LIG 0.13  C 
ENDROOT
BRANCH 4 8
ATOM      8  C   PRO R   5       4.603  -4.014 -10.591  1.00 58.07 LIG 0.24  C 
ATOM      9 O    PRO R   5       5.550  -4.701 -10.199  1.00 51.36 LIG-0.27  OA
ATOM     10  N   THR R   6       4.750  -2.933 -11.352  1.00 69.24 LIG-0.34  N 
ATOM     11 H    THR R   6       4.091  -2.478 -11.666  1.00 69.24 LIG 0.16  HD
BRANCH 10 12
ATOM     12  CA  THR R   6       6.063  -2.417 -11.725  1.00 55.31 LIG 0.20  C 
BRANCH 12 13
ATOM     13  CB  THR R   6       6.685  -3.228 -12.883  1.00 60.29 LIG 0.15  C 
ATOM     14  CG2 THR R   6       5.649  -3.521 -13.958  1.00 62.01 LIG 0.04  C 
BRANCH 13 15
ATOM     15 OG1  THR R   6       7.764  -2.485 -13.466  1.00 91.48 LIG-0.39  OA
ATOM     16 HG1  THR R   6       7.714  -2.527 -14.303  1.00 91.48 LIG 0.21  HD
ENDBRANCH 13 15
ENDBRANCH 12 13
BRANCH 12 17
ATOM     17  C   THR R   6       5.942  -0.958 -12.141  1.00 56.48 LIG 0.24  C 
ATOM     18  N   LEU R   7       6.877  -0.135 -11.675  1.00 43.78 LIG-0.35  N 
ATOM     19 H    LEU R   7       7.534  -0.385 -11.178  1.00 43.78 LIG 0.16  HD
ATOM     20 O    THR R   6       5.016  -0.587 -12.866  1.00 41.48 LIG-0.27  OA
BRANCH 18 21
ATOM     21  CA  LEU R   7       6.860   1.290 -11.979  1.00 53.52 LIG 0.16  C 
BRANCH 21 22
ATOM     22  CB  LEU R   7       6.026   2.046 -10.943  1.00 41.32 LIG 0.04  C 
BRANCH 22 23
ATOM     23  CG  LEU R   7       5.062   3.087 -11.522  1.00 48.65 LIG-0.02  C 
ATOM     24  CD1 LEU R   7       5.763   4.003 -12.517  1.00 40.28 LIG 0.01  C 
ATOM     25  CD2 LEU R   7       3.859   2.411 -12.169  1.00 37.72 LIG 0.01  C 
ENDBRANCH 22 23
ENDBRANCH 21 22
BRANCH 21 26
ATOM     26  C   LEU R   7       8.274   1.864 -12.052  1.00 46.73 LIG 0.22  C 
ATOM     27 O    LEU R   7       8.938   2.033 -11.028  1.00 57.50 LIG-0.29  OA
ENDBRANCH 21 26
ENDBRANCH 18 21
ENDBRANCH 12 17
ENDBRANCH 10 12
ENDBRANCH 4 8
BRANCH 1 28
ATOM     28  CA  PRO R   4       1.541  -5.538 -13.483  1.00 54.23 LIG 0.18  C 
ATOM     29  N   PRO R   4       0.753  -4.706 -14.396  1.00 66.40 LIG-0.34  N 
ATOM     30  CD  PRO R   4       1.477  -4.471 -15.654  1.00 55.20 LIG 0.13  C 
ATOM     31  C   MET R   3      -0.511  -4.273 -14.241  1.00 65.13 LIG 0.26  C 
ATOM     32  CG  PRO R   4       2.245  -5.743 -15.816  1.00 51.34 LIG 0.02  C 
ATOM     33  CB  PRO R   4       2.574  -6.200 -14.416  1.00 43.90 LIG 0.04  C 
ATOM     34 O    MET R   3      -1.057  -3.519 -15.049  1.00 74.37 LIG-0.27  OA
BRANCH 31 35
ATOM     35  CA  MET R   3      -1.277  -4.757 -13.012  1.00 67.30 LIG 0.40  C 
ATOM     36  N   MET R   3      -1.344  -6.214 -12.921  1.00 55.69 LIG 0.61  N 
BRANCH 35 37
ATOM     37  CB  MET R   3      -0.618  -4.165 -11.760  1.00 55.44 LIG 0.06  C 
BRANCH 37 38
ATOM     38  CG  MET R   3      -0.324  -2.682 -11.826  1.00 49.90 LIG 0.08  C 
BRANCH 38 39
ATOM     39 SD   MET R   3      -1.734  -1.807 -12.528  1.00 67.63 LIG-0.17  SA
ATOM     40  CE  MET R   3      -0.906  -0.630 -13.596  1.00 69.90 LIG 0.09  C 
ENDBRANCH 38 39
ENDBRANCH 37 38
ENDBRANCH 35 37
ENDBRANCH 31 35
ENDBRANCH 1 28
TORSDOF 14
ENDMDL
MODEL 74
USER: ADFR SOLUTION from run 69
USER: SCORE 11.592072 LL:  -2.829 LR:  -9.127 RR:   0.000 FEB:  -4.951
USER: RMSD 10.661856
USER: SEED 68
USER: STATUS no improvement in best in 14 clusters for 5 generations
USER: GENES 16
USER: genes 0 Translation |==|  0.50442 0.21483 0.78515
USER: genes 1 Rotation |==|  0.22673 0.09790 0.39728 0.55562
USER: genes 2 Torsion [N]-CA--C-[N] |==|  0.89179
USER: genes 3 Torsion [C]-N--CA-[CB] |==|  0.88327
USER: genes 4 Torsion [N]-CA--CB-[CG2] |==|  0.43332
USER: genes 5 Torsion [CA]-CB--OG1-[HG1] |==|  0.87187
USER: genes 6 Torsion [N]-CA--C-[N] |==|  0.87766
USER: genes 7 Torsion [C]-N--CA-[CB] |==|  0.81417
USER: genes 8 Torsion [N]-CA--CB-[CG] |==|  0.63992
USER: genes 9 Torsion [CA]-CB--CG-[CD1] |==|  0.57851
USER: genes 10 Torsion [N]-CA--C-[O] |==|  0.30737
USER: genes 11 Torsion [O]-C--CA-[N] |==|  0.97583
USER: genes 12 Torsion [N]-C--CA-[N] |==|  0.84729
USER: genes 13 Torsion [C]-CA--CB-[CG] |==|  0.29676
USER: genes 14 Torsion [CA]-CB--CG-[SD] |==|  0.40739
USER: genes 15 Torsion [CB]-CG--SD-[CE] |==|  0.90547
ROOT
ATOM      1  C   PRO R   4       5.846  -5.614  -9.379  1.00 60.54 LIG 0.24  C 
ATOM      2 O    PRO R   4       4.992  -5.807  -8.511  1.00 63.53 LIG-0.27  OA
ATOM      3  N   PRO R   5       5.872  -4.516 -10.155  1.00 48.92 LIG-0.34  N 
ATOM      4  CA  PRO R   5       4.837  -3.481 -10.033  1.00 52.68 LIG 0.18  C 
ATOM      5  CB  PRO R   5       5.251  -2.447 -11.087  1.00 55.54 LIG 0.04  C 
ATOM      6  CG  PRO R   5       6.713  -2.626 -11.247  1.00 46.13 LIG 0.02  C 
ATOM      7  CD  PRO R   5       6.967  -4.096 -11.049  1.00 43.47 LIG 0.13  C 
ENDROOT
BRANCH 4 8
ATOM      8  C   PRO R   5       3.424  -3.987 -10.337  1.00 58.07 LIG 0.24  C 
ATOM      9 O    PRO R   5       2.462  -3.602  -9.666  1.00 51.36 LIG-0.27  OA
ATOM     10  N   THR R   6       3.315  -4.852 -11.341  1.00 69.24 LIG-0.34  N 
ATOM     11 H    THR R   6       3.974  -5.088 -11.840  1.00 69.24 LIG 0.16  HD
BRANCH 10 12
ATOM     12  CA  THR R   6       2.047  -5.486 -11.688  1.00 55.31 LIG 0.20  C 
BRANCH 12 13
ATOM     13  CB  THR R   6       1.269  -5.929 -10.429  1.00 60.29 LIG 0.15  C 
ATOM     14  CG2 THR R   6      -0.221  -6.028 -10.721  1.00 62.01 LIG 0.04  C 
BRANCH 13 15
ATOM     15 OG1  THR R   6       1.745  -7.208  -9.993  1.00 91.48 LIG-0.39  OA
ATOM     16 HG1  THR R   6       1.810  -7.723 -10.653  1.00 91.48 LIG 0.21  HD
ENDBRANCH 13 15
ENDBRANCH 12 13
BRANCH 12 17
ATOM     17  C   THR R   6       1.193  -4.518 -12.493  1.00 56.48 LIG 0.24  C 
ATOM     18  N   LEU R   7       1.146  -3.265 -12.047  1.00 43.78 LIG-0.35  N 
ATOM     19 H    LEU R   7       1.575  -2.984 -11.357  1.00 43.78 LIG 0.16  HD
ATOM     20 O    THR R   6       0.585  -4.902 -13.495  1.00 41.48 LIG-0.27  OA
BRANCH 18 21
ATOM     21  CA  LEU R   7       0.343  -2.247 -12.714  1.00 53.52 LIG 0.16  C 
BRANCH 21 22
ATOM     22  CB  LEU R   7       0.911  -1.945 -14.102  1.00 41.32 LIG 0.04  C 
BRANCH 22 23
ATOM     23  CG  LEU R   7       1.129  -0.459 -14.403  1.00 48.65 LIG-0.02  C 
ATOM     24  CD1 LEU R   7       1.014  -0.170 -15.895  1.00 40.28 LIG 0.01  C 
ATOM     25  CD2 LEU R   7       0.154   0.404 -13.612  1.00 37.72 LIG 0.01  C 
ENDBRANCH 22 23
ENDBRANCH 21 22
BRANCH 21 26
ATOM     26  C   LEU R   7      -1.122  -2.666 -12.813  1.00 46.73 LIG 0.22  C 
ATOM     27 O    LEU R   7      -1.988  -2.089 -12.153  1.00 57.50 LIG-0.29  OA
ENDBRANCH 21 26
ENDBRANCH 18 21
ENDBRANCH 12 17
ENDBRANCH 10 12
ENDBRANCH 4 8
BRANCH 1 28
ATOM     28  CA  PRO R   4       6.937  -6.662  -9.589  1.00 54.23 LIG 0.18  C 
ATOM     29  N   PRO R   4       6.871  -7.667  -8.524  1.00 66.40 LIG-0.34  N 
ATOM     30  CD  PRO R   4       6.150  -8.866  -8.975  1.00 55.20 LIG 0.13  C 
ATOM     31  C   MET R   3       7.461  -7.635  -7.316  1.00 65.13 LIG 0.26  C 
ATOM     32  CG  PRO R   4       6.504  -8.918 -10.426  1.00 51.34 LIG 0.02  C 
ATOM     33  CB  PRO R   4       6.646  -7.480 -10.862  1.00 43.90 LIG 0.04  C 
ATOM     34 O    MET R   3       7.283  -8.512  -6.468  1.00 74.37 LIG-0.27  OA
BRANCH 31 35
ATOM     35  CA  MET R   3       8.388  -6.459  -7.014  1.00 67.30 LIG 0.40  C 
ATOM     36  N   MET R   3       9.448  -6.302  -8.006  1.00 55.69 LIG 0.61  N 
BRANCH 35 37
ATOM     37  CB  MET R   3       7.543  -5.183  -6.916  1.00 55.44 LIG 0.06  C 
BRANCH 37 38
ATOM     38  CG  MET R   3       7.354  -4.639  -5.517  1.00 49.90 LIG 0.08  C 
BRANCH 38 39
ATOM     39 SD   MET R   3       7.266  -2.840  -5.564  1.00 67.63 LIG-0.17  SA
ATOM     40  CE  MET R   3       8.394  -2.479  -6.909  1.00 69.90 LIG 0.09  C 
ENDBRANCH 38 39
ENDBRANCH 37 38
ENDBRANCH 35 37
ENDBRANCH 31 35
ENDBRANCH 1 28
TORSDOF 14
ENDMDL
MODEL 75
USER: ADFR SOLUTION from run 100
USER: SCORE 12.107970 LL:  -3.284 LR:  -9.097 RR:   0.000 FEB:  -4.921
USER: RMSD 9.802053
USER: SEED 99
USER: STATUS no improvement in best in 17 clusters for 5 generations
USER: GENES 16
USER: genes 0 Translation |==|  0.30273 0.34181 0.56019
USER: genes 1 Rotation |==|  0.38444 0.58745 0.97772 0.52790
USER: genes 2 Torsion [N]-CA--C-[N] |==|  0.82936
USER: genes 3 Torsion [C]-N--CA-[CB] |==|  0.77968
USER: genes 4 Torsion [N]-CA--CB-[CG2] |==|  0.63520
USER: genes 5 Torsion [CA]-CB--OG1-[HG1] |==|  0.99160
USER: genes 6 Torsion [N]-CA--C-[N] |==|  0.20378
USER: genes 7 Torsion [C]-N--CA-[CB] |==|  0.27243
USER: genes 8 Torsion [N]-CA--CB-[CG] |==|  0.96719
USER: genes 9 Torsion [CA]-CB--CG-[CD1] |==|  0.27170
USER: genes 10 Torsion [N]-CA--C-[O] |==|  0.10575
USER: genes 11 Torsion [O]-C--CA-[N] |==|  0.79340
USER: genes 12 Torsion [N]-C--CA-[N] |==|  0.31842
USER: genes 13 Torsion [C]-CA--CB-[CG] |==|  0.28352
USER: genes 14 Torsion [CA]-CB--CG-[SD] |==|  0.09495
USER: genes 15 Torsion [CB]-CG--SD-[CE] |==|  0.63411
ROOT
ATOM      1  C   PRO R   4       2.215  -3.042 -13.934  1.00 60.54 LIG 0.24  C 
ATOM      2 O    PRO R   4       2.266  -2.728 -15.125  1.00 63.53 LIG-0.27  OA
ATOM      3  N   PRO R   5       1.148  -2.797 -13.153  1.00 48.92 LIG-0.34  N 
ATOM      4  CA  PRO R   5      -0.026  -2.088 -13.680  1.00 52.68 LIG 0.18  C 
ATOM      5  CB  PRO R   5      -0.968  -2.027 -12.472  1.00 55.54 LIG 0.04  C 
ATOM      6  CG  PRO R   5      -0.578  -3.178 -11.622  1.00 46.13 LIG 0.02  C 
ATOM      7  CD  PRO R   5       0.908  -3.329 -11.799  1.00 43.47 LIG 0.13  C 
ENDROOT
BRANCH 4 8
ATOM      8  C   PRO R   5       0.281  -0.669 -14.166  1.00 58.07 LIG 0.24  C 
ATOM      9 O    PRO R   5       0.107  -0.360 -15.348  1.00 51.36 LIG-0.27  OA
ATOM     10  N   THR R   6       0.741   0.178 -13.249  1.00 69.24 LIG-0.34  N 
ATOM     11 H    THR R   6       0.820  -0.019 -12.416  1.00 69.24 LIG 0.16  HD
BRANCH 10 12
ATOM     12  CA  THR R   6       1.158   1.535 -13.584  1.00 55.31 LIG 0.20  C 
BRANCH 12 13
ATOM     13  CB  THR R   6       2.573   1.560 -14.203  1.00 60.29 LIG 0.15  C 
ATOM     14  CG2 THR R   6       3.441   2.612 -13.529  1.00 62.01 LIG 0.04  C 
BRANCH 13 15
ATOM     15 OG1  THR R   6       3.190   0.275 -14.046  1.00 91.48 LIG-0.39  OA
ATOM     16 HG1  THR R   6       2.678  -0.230 -13.612  1.00 91.48 LIG 0.21  HD
ENDBRANCH 13 15
ENDBRANCH 12 13
BRANCH 12 17
ATOM     17  C   THR R   6       0.170   2.149 -14.565  1.00 56.48 LIG 0.24  C 
ATOM     18  N   LEU R   7      -1.012   2.503 -14.066  1.00 43.78 LIG-0.35  N 
ATOM     19 H    LEU R   7      -1.229   2.417 -13.238  1.00 43.78 LIG 0.16  HD
ATOM     20 O    THR R   6       0.472   2.294 -15.752  1.00 41.48 LIG-0.27  OA
BRANCH 18 21
ATOM     21  CA  LEU R   7      -2.055   3.078 -14.906  1.00 53.52 LIG 0.16  C 
BRANCH 21 22
ATOM     22  CB  LEU R   7      -3.060   2.001 -15.320  1.00 41.32 LIG 0.04  C 
BRANCH 22 23
ATOM     23  CG  LEU R   7      -2.625   0.562 -15.028  1.00 48.65 LIG-0.02  C 
ATOM     24  CD1 LEU R   7      -3.234   0.048 -13.730  1.00 40.28 LIG 0.01  C 
ATOM     25  CD2 LEU R   7      -2.980  -0.359 -16.189  1.00 37.72 LIG 0.01  C 
ENDBRANCH 22 23
ENDBRANCH 21 22
BRANCH 21 26
ATOM     26  C   LEU R   7      -2.765   4.233 -14.203  1.00 46.73 LIG 0.22  C 
ATOM     27 O    LEU R   7      -2.135   5.023 -13.498  1.00 57.50 LIG-0.29  OA
ENDBRANCH 21 26
ENDBRANCH 18 21
ENDBRANCH 12 17
ENDBRANCH 10 12
ENDBRANCH 4 8
BRANCH 1 28
ATOM     28  CA  PRO R   4       3.413  -3.752 -13.304  1.00 54.23 LIG 0.18  C 
ATOM     29  N   PRO R   4       3.458  -5.145 -13.758  1.00 66.40 LIG-0.34  N 
ATOM     30  CD  PRO R   4       4.414  -5.308 -14.863  1.00 55.20 LIG 0.13  C 
ATOM     31  C   MET R   3       2.841  -6.212 -13.221  1.00 65.13 LIG 0.26  C 
ATOM     32  CG  PRO R   4       5.460  -4.296 -14.526  1.00 51.34 LIG 0.02  C 
ATOM     33  CB  PRO R   4       4.726  -3.161 -13.853  1.00 43.90 LIG 0.04  C 
ATOM     34 O    MET R   3       2.899  -7.335 -13.728  1.00 74.37 LIG-0.27  OA
BRANCH 31 35
ATOM     35  CA  MET R   3       2.052  -5.997 -11.931  1.00 67.30 LIG 0.40  C 
ATOM     36  N   MET R   3       0.617  -6.210 -12.101  1.00 55.69 LIG 0.61  N 
BRANCH 35 37
ATOM     37  CB  MET R   3       2.615  -6.930 -10.852  1.00 55.44 LIG 0.06  C 
BRANCH 37 38
ATOM     38  CG  MET R   3       3.526  -6.272  -9.840  1.00 49.90 LIG 0.08  C 
BRANCH 38 39
ATOM     39 SD   MET R   3       2.975  -4.586  -9.522  1.00 67.63 LIG-0.17  SA
ATOM     40  CE  MET R   3       4.518  -3.688  -9.677  1.00 69.90 LIG 0.09  C 
ENDBRANCH 38 39
ENDBRANCH 37 38
ENDBRANCH 35 37
ENDBRANCH 31 35
ENDBRANCH 1 28
TORSDOF 14
ENDMDL
MODEL 76
USER: ADFR SOLUTION from run 70
USER: SCORE 11.457840 LL:  -3.242 LR:  -9.101 RR:   0.000 FEB:  -4.925
USER: RMSD 10.108771
USER: SEED 69
USER: STATUS no improvement in best in 10 clusters for 5 generations
USER: GENES 16
USER: genes 0 Translation |==|  0.57042 0.32735 0.80759
USER: genes 1 Rotation |==|  0.85704 0.79961 0.38997 0.64372
USER: genes 2 Torsion [N]-CA--C-[N] |==|  0.91173
USER: genes 3 Torsion [C]-N--CA-[CB] |==|  0.20446
USER: genes 4 Torsion [N]-CA--CB-[CG2] |==|  0.52104
USER: genes 5 Torsion [CA]-CB--OG1-[HG1] |==|  0.87674
USER: genes 6 Torsion [N]-CA--C-[N] |==|  0.71111
USER: genes 7 Torsion [C]-N--CA-[CB] |==|  0.86887
USER: genes 8 Torsion [N]-CA--CB-[CG] |==|  0.63354
USER: genes 9 Torsion [CA]-CB--CG-[CD1] |==|  0.38931
USER: genes 10 Torsion [N]-CA--C-[O] |==|  0.60015
USER: genes 11 Torsion [O]-C--CA-[N] |==|  0.82536
USER: genes 12 Torsion [N]-C--CA-[N] |==|  0.44860
USER: genes 13 Torsion [C]-CA--CB-[CG] |==|  0.92481
USER: genes 14 Torsion [CA]-CB--CG-[SD] |==|  0.33005
USER: genes 15 Torsion [CB]-CG--SD-[CE] |==|  0.03369
ROOT
ATOM      1  C   PRO R   4       7.034  -3.335  -8.924  1.00 60.54 LIG 0.24  C 
ATOM      2 O    PRO R   4       6.443  -2.278  -8.697  1.00 63.53 LIG-0.27  OA
ATOM      3  N   PRO R   5       7.387  -3.730 -10.161  1.00 48.92 LIG-0.34  N 
ATOM      4  CA  PRO R   5       7.045  -2.920 -11.338  1.00 52.68 LIG 0.18  C 
ATOM      5  CB  PRO R   5       7.624  -3.734 -12.501  1.00 55.54 LIG 0.04  C 
ATOM      6  CG  PRO R   5       8.725  -4.527 -11.905  1.00 46.13 LIG 0.02  C 
ATOM      7  CD  PRO R   5       8.282  -4.850 -10.504  1.00 43.47 LIG 0.13  C 
ENDROOT
BRANCH 4 8
ATOM      8  C   PRO R   5       5.539  -2.734 -11.538  1.00 58.07 LIG 0.24  C 
ATOM      9 O    PRO R   5       5.097  -1.696 -12.039  1.00 51.36 LIG-0.27  OA
ATOM     10  N   THR R   6       4.766  -3.740 -11.138  1.00 69.24 LIG-0.34  N 
ATOM     11 H    THR R   6       5.071  -4.482 -10.832  1.00 69.24 LIG 0.16  HD
BRANCH 10 12
ATOM     12  CA  THR R   6       3.309  -3.668 -11.186  1.00 55.31 LIG 0.20  C 
BRANCH 12 13
ATOM     13  CB  THR R   6       2.780  -3.784 -12.633  1.00 60.29 LIG 0.15  C 
ATOM     14  CG2 THR R   6       1.283  -3.523 -12.685  1.00 62.01 LIG 0.04  C 
BRANCH 13 15
ATOM     15 OG1  THR R   6       3.450  -2.832 -13.469  1.00 91.48 LIG-0.39  OA
ATOM     16 HG1  THR R   6       3.490  -2.092 -13.074  1.00 91.48 LIG 0.21  HD
ENDBRANCH 13 15
ENDBRANCH 12 13
BRANCH 12 17
ATOM     17  C   THR R   6       2.712  -4.784 -10.341  1.00 56.48 LIG 0.24  C 
ATOM     18  N   LEU R   7       2.212  -5.822 -11.007  1.00 43.78 LIG-0.35  N 
ATOM     19 H    LEU R   7       2.224  -5.894 -11.864  1.00 43.78 LIG 0.16  HD
ATOM     20 O    THR R   6       2.702  -4.703  -9.111  1.00 41.48 LIG-0.27  OA
BRANCH 18 21
ATOM     21  CA  LEU R   7       1.589  -6.944 -10.317  1.00 53.52 LIG 0.16  C 
BRANCH 21 22
ATOM     22  CB  LEU R   7       2.469  -7.408  -9.154  1.00 41.32 LIG 0.04  C 
BRANCH 22 23
ATOM     23  CG  LEU R   7       2.707  -8.920  -9.085  1.00 48.65 LIG-0.02  C 
ATOM     24  CD1 LEU R   7       4.143  -9.240  -8.691  1.00 40.28 LIG 0.01  C 
ATOM     25  CD2 LEU R   7       1.726  -9.580  -8.123  1.00 37.72 LIG 0.01  C 
ENDBRANCH 22 23
ENDBRANCH 21 22
BRANCH 21 26
ATOM     26  C   LEU R   7       0.189  -6.589  -9.823  1.00 46.73 LIG 0.22  C 
ATOM     27 O    LEU R   7      -0.232  -7.031  -8.752  1.00 57.50 LIG-0.29  OA
ENDBRANCH 21 26
ENDBRANCH 18 21
ENDBRANCH 12 17
ENDBRANCH 10 12
ENDBRANCH 4 8
BRANCH 1 28
ATOM     28  CA  PRO R   4       7.393  -4.249  -7.754  1.00 54.23 LIG 0.18  C 
ATOM     29  N   PRO R   4       8.325  -3.561  -6.856  1.00 66.40 LIG-0.34  N 
ATOM     30  CD  PRO R   4       7.617  -2.982  -5.704  1.00 55.20 LIG 0.13  C 
ATOM     31  C   MET R   3       9.667  -3.516  -6.929  1.00 65.13 LIG 0.26  C 
ATOM     32  CG  PRO R   4       6.510  -3.963  -5.492  1.00 51.34 LIG 0.02  C 
ATOM     33  CB  PRO R   4       6.156  -4.481  -6.865  1.00 43.90 LIG 0.04  C 
ATOM     34 O    MET R   3      10.352  -2.848  -6.151  1.00 74.37 LIG-0.27  OA
BRANCH 31 35
ATOM     35  CA  MET R   3      10.342  -4.341  -8.024  1.00 67.30 LIG 0.40  C 
ATOM     36  N   MET R   3      11.710  -3.908  -8.299  1.00 55.69 LIG 0.61  N 
BRANCH 35 37
ATOM     37  CB  MET R   3      10.313  -5.817  -7.611  1.00 55.44 LIG 0.06  C 
BRANCH 37 38
ATOM     38  CG  MET R   3      10.273  -6.071  -6.120  1.00 49.90 LIG 0.08  C 
BRANCH 38 39
ATOM     39 SD   MET R   3       8.766  -6.960  -5.688  1.00 67.63 LIG-0.17  SA
ATOM     40  CE  MET R   3       8.183  -7.450  -7.310  1.00 69.90 LIG 0.09  C 
ENDBRANCH 38 39
ENDBRANCH 37 38
ENDBRANCH 35 37
ENDBRANCH 31 35
ENDBRANCH 1 28
TORSDOF 14
ENDMDL
MODEL 77
USER: ADFR SOLUTION from run 34
USER: SCORE 11.637771 LL:  -2.943 LR:  -9.102 RR:   0.000 FEB:  -4.926
USER: RMSD 10.691271
USER: SEED 33
USER: STATUS no improvement in best in 26 clusters for 5 generations
USER: GENES 16
USER: genes 0 Translation |==|  0.65776 0.27383 0.81296
USER: genes 1 Rotation |==|  0.54219 0.24986 0.15068 0.75225
USER: genes 2 Torsion [N]-CA--C-[N] |==|  0.34062
USER: genes 3 Torsion [C]-N--CA-[CB] |==|  0.51111
USER: genes 4 Torsion [N]-CA--CB-[CG2] |==|  0.21949
USER: genes 5 Torsion [CA]-CB--OG1-[HG1] |==|  0.65153
USER: genes 6 Torsion [N]-CA--C-[N] |==|  0.47262
USER: genes 7 Torsion [C]-N--CA-[CB] |==|  0.39153
USER: genes 8 Torsion [N]-CA--CB-[CG] |==|  0.54022
USER: genes 9 Torsion [CA]-CB--CG-[CD1] |==|  0.30882
USER: genes 10 Torsion [N]-CA--C-[O] |==|  0.20789
USER: genes 11 Torsion [O]-C--CA-[N] |==|  0.89369
USER: genes 12 Torsion [N]-C--CA-[N] |==|  0.85043
USER: genes 13 Torsion [C]-CA--CB-[CG] |==|  0.15131
USER: genes 14 Torsion [CA]-CB--CG-[SD] |==|  0.49677
USER: genes 15 Torsion [CB]-CG--SD-[CE] |==|  0.31393
ROOT
ATOM      1  C   PRO R   4       8.606  -4.419  -8.815  1.00 60.54 LIG 0.24  C 
ATOM      2 O    PRO R   4       8.506  -5.381  -9.579  1.00 63.53 LIG-0.27  OA
ATOM      3  N   PRO R   5       7.715  -4.154  -7.843  1.00 48.92 LIG-0.34  N 
ATOM      4  CA  PRO R   5       6.525  -4.997  -7.661  1.00 52.68 LIG 0.18  C 
ATOM      5  CB  PRO R   5       5.809  -4.339  -6.475  1.00 55.54 LIG 0.04  C 
ATOM      6  CG  PRO R   5       6.879  -3.642  -5.720  1.00 46.13 LIG 0.02  C 
ATOM      7  CD  PRO R   5       7.867  -3.174  -6.753  1.00 43.47 LIG 0.13  C 
ENDROOT
BRANCH 4 8
ATOM      8  C   PRO R   5       5.595  -5.017  -8.877  1.00 58.07 LIG 0.24  C 
ATOM      9 O    PRO R   5       5.116  -3.969  -9.317  1.00 51.36 LIG-0.27  OA
ATOM     10  N   THR R   6       5.342  -6.213  -9.402  1.00 69.24 LIG-0.34  N 
ATOM     11 H    THR R   6       5.709  -6.941  -9.127  1.00 69.24 LIG 0.16  HD
BRANCH 10 12
ATOM     12  CA  THR R   6       4.407  -6.396 -10.506  1.00 55.31 LIG 0.20  C 
BRANCH 12 13
ATOM     13  CB  THR R   6       4.225  -7.890 -10.857  1.00 60.29 LIG 0.15  C 
ATOM     14  CG2 THR R   6       3.280  -8.566  -9.876  1.00 62.01 LIG 0.04  C 
BRANCH 13 15
ATOM     15 OG1  THR R   6       3.689  -8.012 -12.181  1.00 91.48 LIG-0.39  OA
ATOM     16 HG1  THR R   6       2.990  -8.477 -12.158  1.00 91.48 LIG 0.21  HD
ENDBRANCH 13 15
ENDBRANCH 12 13
BRANCH 12 17
ATOM     17  C   THR R   6       3.056  -5.798 -10.140  1.00 56.48 LIG 0.24  C 
ATOM     18  N   LEU R   7       2.165  -5.711 -11.124  1.00 43.78 LIG-0.35  N 
ATOM     19 H    LEU R   7       2.309  -5.982 -11.928  1.00 43.78 LIG 0.16  HD
ATOM     20 O    THR R   6       2.829  -5.421  -8.988  1.00 41.48 LIG-0.27  OA
BRANCH 18 21
ATOM     21  CA  LEU R   7       0.845  -5.134 -10.909  1.00 53.52 LIG 0.16  C 
BRANCH 21 22
ATOM     22  CB  LEU R   7       0.428  -4.292 -12.117  1.00 41.32 LIG 0.04  C 
BRANCH 22 23
ATOM     23  CG  LEU R   7      -0.767  -3.363 -11.878  1.00 48.65 LIG-0.02  C 
ATOM     24  CD1 LEU R   7      -0.345  -1.899 -11.889  1.00 40.28 LIG 0.01  C 
ATOM     25  CD2 LEU R   7      -1.863  -3.614 -12.906  1.00 37.72 LIG 0.01  C 
ENDBRANCH 22 23
ENDBRANCH 21 22
BRANCH 21 26
ATOM     26  C   LEU R   7      -0.197  -6.213 -10.623  1.00 46.73 LIG 0.22  C 
ATOM     27 O    LEU R   7      -0.235  -6.777  -9.528  1.00 57.50 LIG-0.29  OA
ENDBRANCH 21 26
ENDBRANCH 18 21
ENDBRANCH 12 17
ENDBRANCH 10 12
ENDBRANCH 4 8
BRANCH 1 28
ATOM     28  CA  PRO R   4       9.799  -3.476  -8.965  1.00 54.23 LIG 0.18  C 
ATOM     29  N   PRO R   4      11.002  -4.247  -9.293  1.00 66.40 LIG-0.34  N 
ATOM     30  CD  PRO R   4      11.269  -4.217 -10.738  1.00 55.20 LIG 0.13  C 
ATOM     31  C   MET R   3      11.868  -4.831  -8.446  1.00 65.13 LIG 0.26  C 
ATOM     32  CG  PRO R   4      10.774  -2.860 -11.121  1.00 51.34 LIG 0.02  C 
ATOM     33  CB  PRO R   4       9.610  -2.578 -10.203  1.00 43.90 LIG 0.04  C 
ATOM     34 O    MET R   3      12.818  -5.514  -8.837  1.00 74.37 LIG-0.27  OA
BRANCH 31 35
ATOM     35  CA  MET R   3      11.647  -4.616  -6.950  1.00 67.30 LIG 0.40  C 
ATOM     36  N   MET R   3      11.559  -3.205  -6.586  1.00 55.69 LIG 0.61  N 
BRANCH 35 37
ATOM     37  CB  MET R   3      10.377  -5.366  -6.531  1.00 55.44 LIG 0.06  C 
BRANCH 37 38
ATOM     38  CG  MET R   3      10.350  -6.837  -6.883  1.00 49.90 LIG 0.08  C 
BRANCH 38 39
ATOM     39 SD   MET R   3       8.816  -7.580  -6.298  1.00 67.63 LIG-0.17  SA
ATOM     40  CE  MET R   3       8.015  -7.978  -7.851  1.00 69.90 LIG 0.09  C 
ENDBRANCH 38 39
ENDBRANCH 37 38
ENDBRANCH 35 37
ENDBRANCH 31 35
ENDBRANCH 1 28
TORSDOF 14
ENDMDL
MODEL 78
USER: ADFR SOLUTION from run 185
USER: SCORE 11.417528 LL:  -3.424 LR:  -9.101 RR:   0.000 FEB:  -4.925
USER: RMSD 9.330298
USER: SEED 184
USER: STATUS no improvement in best in 15 clusters for 5 generations
USER: GENES 16
USER: genes 0 Translation |==|  0.26651 0.33160 0.54450
USER: genes 1 Rotation |==|  0.03171 0.46736 0.67213 0.50368
USER: genes 2 Torsion [N]-CA--C-[N] |==|  0.98537
USER: genes 3 Torsion [C]-N--CA-[CB] |==|  0.51801
USER: genes 4 Torsion [N]-CA--CB-[CG2] |==|  0.75637
USER: genes 5 Torsion [CA]-CB--OG1-[HG1] |==|  0.15063
USER: genes 6 Torsion [N]-CA--C-[N] |==|  0.79806
USER: genes 7 Torsion [C]-N--CA-[CB] |==|  0.35135
USER: genes 8 Torsion [N]-CA--CB-[CG] |==|  0.52439
USER: genes 9 Torsion [CA]-CB--CG-[CD1] |==|  0.73606
USER: genes 10 Torsion [N]-CA--C-[O] |==|  0.85414
USER: genes 11 Torsion [O]-C--CA-[N] |==|  0.02669
USER: genes 12 Torsion [N]-C--CA-[N] |==|  0.40181
USER: genes 13 Torsion [C]-CA--CB-[CG] |==|  0.03560
USER: genes 14 Torsion [CA]-CB--CG-[SD] |==|  0.61323
USER: genes 15 Torsion [CB]-CG--SD-[CE] |==|  0.95538
ROOT
ATOM      1  C   PRO R   4       1.563  -3.249 -14.252  1.00 60.54 LIG 0.24  C 
ATOM      2 O    PRO R   4       2.451  -2.492 -13.856  1.00 63.53 LIG-0.27  OA
ATOM      3  N   PRO R   5       1.267  -3.421 -15.552  1.00 48.92 LIG-0.34  N 
ATOM      4  CA  PRO R   5       1.978  -2.667 -16.594  1.00 52.68 LIG 0.18  C 
ATOM      5  CB  PRO R   5       1.326  -3.163 -17.890  1.00 55.54 LIG 0.04  C 
ATOM      6  CG  PRO R   5       0.813  -4.516 -17.568  1.00 46.13 LIG 0.02  C 
ATOM      7  CD  PRO R   5       0.390  -4.458 -16.126  1.00 43.47 LIG 0.13  C 
ENDROOT
BRANCH 4 8
ATOM      8  C   PRO R   5       1.805  -1.150 -16.479  1.00 58.07 LIG 0.24  C 
ATOM      9 O    PRO R   5       2.429  -0.390 -17.225  1.00 51.36 LIG-0.27  OA
ATOM     10  N   THR R   6       0.963  -0.725 -15.541  1.00 69.24 LIG-0.34  N 
ATOM     11 H    THR R   6       0.492  -1.251 -15.050  1.00 69.24 LIG 0.16  HD
BRANCH 10 12
ATOM     12  CA  THR R   6       0.765   0.692 -15.258  1.00 55.31 LIG 0.20  C 
BRANCH 12 13
ATOM     13  CB  THR R   6      -0.138   0.905 -14.022  1.00 60.29 LIG 0.15  C 
ATOM     14  CG2 THR R   6      -1.606   0.930 -14.421  1.00 62.01 LIG 0.04  C 
BRANCH 13 15
ATOM     15 OG1  THR R   6       0.072  -0.157 -13.083  1.00 91.48 LIG-0.39  OA
ATOM     16 HG1  THR R   6       0.890  -0.214 -12.903  1.00 91.48 LIG 0.21  HD
ENDBRANCH 13 15
ENDBRANCH 12 13
BRANCH 12 17
ATOM     17  C   THR R   6       2.110   1.361 -15.018  1.00 56.48 LIG 0.24  C 
ATOM     18  N   LEU R   7       2.712   1.076 -13.866  1.00 43.78 LIG-0.35  N 
ATOM     19 H    LEU R   7       2.392   0.536 -13.278  1.00 43.78 LIG 0.16  HD
ATOM     20 O    THR R   6       2.590   2.125 -15.860  1.00 41.48 LIG-0.27  OA
BRANCH 18 21
ATOM     21  CA  LEU R   7       3.992   1.671 -13.505  1.00 53.52 LIG 0.16  C 
BRANCH 21 22
ATOM     22  CB  LEU R   7       3.901   2.338 -12.131  1.00 41.32 LIG 0.04  C 
BRANCH 22 23
ATOM     23  CG  LEU R   7       5.120   3.178 -11.736  1.00 48.65 LIG-0.02  C 
ATOM     24  CD1 LEU R   7       6.102   2.373 -10.894  1.00 40.28 LIG 0.01  C 
ATOM     25  CD2 LEU R   7       5.811   3.745 -12.971  1.00 37.72 LIG 0.01  C 
ENDBRANCH 22 23
ENDBRANCH 21 22
BRANCH 21 26
ATOM     26  C   LEU R   7       5.116   0.638 -13.527  1.00 46.73 LIG 0.22  C 
ATOM     27 O    LEU R   7       5.011  -0.419 -12.903  1.00 57.50 LIG-0.29  OA
ENDBRANCH 21 26
ENDBRANCH 18 21
ENDBRANCH 12 17
ENDBRANCH 10 12
ENDBRANCH 4 8
BRANCH 1 28
ATOM     28  CA  PRO R   4       0.756  -4.043 -13.225  1.00 54.23 LIG 0.18  C 
ATOM     29  N   PRO R   4       1.064  -3.564 -11.875  1.00 66.40 LIG-0.34  N 
ATOM     30  CD  PRO R   4       0.038  -2.622 -11.403  1.00 55.20 LIG 0.13  C 
ATOM     31  C   MET R   3       2.055  -3.966 -11.059  1.00 65.13 LIG 0.26  C 
ATOM     32  CG  PRO R   4      -1.197  -3.150 -12.056  1.00 51.34 LIG 0.02  C 
ATOM     33  CB  PRO R   4      -0.745  -3.727 -13.376  1.00 43.90 LIG 0.04  C 
ATOM     34 O    MET R   3       2.261  -3.444  -9.960  1.00 74.37 LIG-0.27  OA
BRANCH 31 35
ATOM     35  CA  MET R   3       2.937  -5.119 -11.534  1.00 67.30 LIG 0.40  C 
ATOM     36  N   MET R   3       4.330  -4.976 -11.118  1.00 55.69 LIG 0.61  N 
BRANCH 35 37
ATOM     37  CB  MET R   3       2.347  -6.433 -11.011  1.00 55.44 LIG 0.06  C 
BRANCH 37 38
ATOM     38  CG  MET R   3       0.944  -6.335 -10.452  1.00 49.90 LIG 0.08  C 
BRANCH 38 39
ATOM     39 SD   MET R   3       0.805  -7.339  -8.962  1.00 67.63 LIG-0.17  SA
ATOM     40  CE  MET R   3       2.263  -8.369  -9.108  1.00 69.90 LIG 0.09  C 
ENDBRANCH 38 39
ENDBRANCH 37 38
ENDBRANCH 35 37
ENDBRANCH 31 35
ENDBRANCH 1 28
TORSDOF 14
ENDMDL
MODEL 79
USER: ADFR SOLUTION from run 53
USER: SCORE 11.609182 LL:  -3.396 LR:  -9.097 RR:   0.000 FEB:  -4.921
USER: RMSD 10.160756
USER: SEED 52
USER: STATUS no improvement in best in 4 clusters for 5 generations
USER: GENES 16
USER: genes 0 Translation |==|  0.27412 0.30257 0.65896
USER: genes 1 Rotation |==|  0.78325 0.56963 0.09438 0.51989
USER: genes 2 Torsion [N]-CA--C-[N] |==|  0.24969
USER: genes 3 Torsion [C]-N--CA-[CB] |==|  0.48334
USER: genes 4 Torsion [N]-CA--CB-[CG2] |==|  0.62595
USER: genes 5 Torsion [CA]-CB--OG1-[HG1] |==|  0.85997
USER: genes 6 Torsion [N]-CA--C-[N] |==|  0.51581
USER: genes 7 Torsion [C]-N--CA-[CB] |==|  0.50312
USER: genes 8 Torsion [N]-CA--CB-[CG] |==|  0.99598
USER: genes 9 Torsion [CA]-CB--CG-[CD1] |==|  0.22416
USER: genes 10 Torsion [N]-CA--C-[O] |==|  0.94774
USER: genes 11 Torsion [O]-C--CA-[N] |==|  0.87744
USER: genes 12 Torsion [N]-C--CA-[N] |==|  0.86402
USER: genes 13 Torsion [C]-CA--CB-[CG] |==|  0.16258
USER: genes 14 Torsion [CA]-CB--CG-[SD] |==|  0.58477
USER: genes 15 Torsion [CB]-CG--SD-[CE] |==|  0.30896
ROOT
ATOM      1  C   PRO R   4       1.700  -3.837 -11.934  1.00 60.54 LIG 0.24  C 
ATOM      2 O    PRO R   4       2.186  -2.904 -12.576  1.00 63.53 LIG-0.27  OA
ATOM      3  N   PRO R   5       0.457  -4.307 -12.143  1.00 48.92 LIG-0.34  N 
ATOM      4  CA  PRO R   5      -0.422  -3.692 -13.147  1.00 52.68 LIG 0.18  C 
ATOM      5  CB  PRO R   5      -1.706  -4.524 -13.041  1.00 55.54 LIG 0.04  C 
ATOM      6  CG  PRO R   5      -1.270  -5.839 -12.515  1.00 46.13 LIG 0.02  C 
ATOM      7  CD  PRO R   5      -0.119  -5.546 -11.591  1.00 43.47 LIG 0.13  C 
ENDROOT
BRANCH 4 8
ATOM      8  C   PRO R   5      -0.738  -2.220 -12.867  1.00 58.07 LIG 0.24  C 
ATOM      9 O    PRO R   5      -1.722  -1.908 -12.191  1.00 51.36 LIG-0.27  OA
ATOM     10  N   THR R   6       0.098  -1.331 -13.396  1.00 69.24 LIG-0.34  N 
ATOM     11 H    THR R   6       0.810  -1.545 -13.828  1.00 69.24 LIG 0.16  HD
BRANCH 10 12
ATOM     12  CA  THR R   6      -0.125   0.107 -13.287  1.00 55.31 LIG 0.20  C 
BRANCH 12 13
ATOM     13  CB  THR R   6       1.065   0.912 -13.855  1.00 60.29 LIG 0.15  C 
ATOM     14  CG2 THR R   6       1.449   2.046 -12.917  1.00 62.01 LIG 0.04  C 
BRANCH 13 15
ATOM     15 OG1  THR R   6       2.194   0.046 -14.028  1.00 91.48 LIG-0.39  OA
ATOM     16 HG1  THR R   6       2.328  -0.384 -13.320  1.00 91.48 LIG 0.21  HD
ENDBRANCH 13 15
ENDBRANCH 12 13
BRANCH 12 17
ATOM     17  C   THR R   6      -1.393   0.488 -14.037  1.00 56.48 LIG 0.24  C 
ATOM     18  N   LEU R   7      -1.658   1.789 -14.121  1.00 43.78 LIG-0.35  N 
ATOM     19 H    LEU R   7      -1.152   2.404 -13.794  1.00 43.78 LIG 0.16  HD
ATOM     20 O    THR R   6      -2.119  -0.382 -14.525  1.00 41.48 LIG-0.27  OA
BRANCH 18 21
ATOM     21  CA  LEU R   7      -2.854   2.284 -14.790  1.00 53.52 LIG 0.16  C 
BRANCH 21 22
ATOM     22  CB  LEU R   7      -2.887   3.813 -14.760  1.00 41.32 LIG 0.04  C 
BRANCH 22 23
ATOM     23  CG  LEU R   7      -1.715   4.473 -14.027  1.00 48.65 LIG-0.02  C 
ATOM     24  CD1 LEU R   7      -0.475   4.546 -14.910  1.00 40.28 LIG 0.01  C 
ATOM     25  CD2 LEU R   7      -2.100   5.860 -13.527  1.00 37.72 LIG 0.01  C 
ENDBRANCH 22 23
ENDBRANCH 21 22
BRANCH 21 26
ATOM     26  C   LEU R   7      -2.943   1.773 -16.226  1.00 46.73 LIG 0.22  C 
ATOM     27 O    LEU R   7      -1.945   1.338 -16.803  1.00 57.50 LIG-0.29  OA
ENDBRANCH 21 26
ENDBRANCH 18 21
ENDBRANCH 12 17
ENDBRANCH 10 12
ENDBRANCH 4 8
BRANCH 1 28
ATOM     28  CA  PRO R   4       2.543  -4.506 -10.849  1.00 54.23 LIG 0.18  C 
ATOM     29  N   PRO R   4       3.904  -4.729 -11.344  1.00 66.40 LIG-0.34  N 
ATOM     30  CD  PRO R   4       4.813  -3.672 -10.878  1.00 55.20 LIG 0.13  C 
ATOM     31  C   MET R   3       4.373  -5.785 -12.032  1.00 65.13 LIG 0.26  C 
ATOM     32  CG  PRO R   4       4.242  -3.333  -9.540  1.00 51.34 LIG 0.02  C 
ATOM     33  CB  PRO R   4       2.752  -3.536  -9.670  1.00 43.90 LIG 0.04  C 
ATOM     34 O    MET R   3       5.530  -5.837 -12.457  1.00 74.37 LIG-0.27  OA
BRANCH 31 35
ATOM     35  CA  MET R   3       3.418  -6.952 -12.272  1.00 67.30 LIG 0.40  C 
ATOM     36  N   MET R   3       2.732  -7.385 -11.058  1.00 55.69 LIG 0.61  N 
BRANCH 35 37
ATOM     37  CB  MET R   3       2.408  -6.542 -13.350  1.00 55.44 LIG 0.06  C 
BRANCH 37 38
ATOM     38  CG  MET R   3       3.008  -6.142 -14.680  1.00 49.90 LIG 0.08  C 
BRANCH 38 39
ATOM     39 SD   MET R   3       1.961  -4.914 -15.482  1.00 67.63 LIG-0.17  SA
ATOM     40  CE  MET R   3       3.006  -3.461 -15.387  1.00 69.90 LIG 0.09  C 
ENDBRANCH 38 39
ENDBRANCH 37 38
ENDBRANCH 35 37
ENDBRANCH 31 35
ENDBRANCH 1 28
TORSDOF 14
ENDMDL
MODEL 80
USER: ADFR SOLUTION from run 42
USER: SCORE 11.327351 LL:  -3.650 LR:  -9.092 RR:   0.000 FEB:  -4.916
USER: RMSD 9.932443
USER: SEED 41
USER: STATUS no improvement in best in 21 clusters for 5 generations
USER: GENES 16
USER: genes 0 Translation |==|  0.48472 0.21422 0.68560
USER: genes 1 Rotation |==|  0.84126 0.53746 0.19859 0.70320
USER: genes 2 Torsion [N]-CA--C-[N] |==|  0.62919
USER: genes 3 Torsion [C]-N--CA-[CB] |==|  0.47788
USER: genes 4 Torsion [N]-CA--CB-[CG2] |==|  0.65287
USER: genes 5 Torsion [CA]-CB--OG1-[HG1] |==|  0.17888
USER: genes 6 Torsion [N]-CA--C-[N] |==|  0.77932
USER: genes 7 Torsion [C]-N--CA-[CB] |==|  0.81571
USER: genes 8 Torsion [N]-CA--CB-[CG] |==|  0.95479
USER: genes 9 Torsion [CA]-CB--CG-[CD1] |==|  0.33316
USER: genes 10 Torsion [N]-CA--C-[O] |==|  0.63097
USER: genes 11 Torsion [O]-C--CA-[N] |==|  0.05206
USER: genes 12 Torsion [N]-C--CA-[N] |==|  0.36754
USER: genes 13 Torsion [C]-CA--CB-[CG] |==|  0.14202
USER: genes 14 Torsion [CA]-CB--CG-[SD] |==|  0.70639
USER: genes 15 Torsion [CB]-CG--SD-[CE] |==|  0.45108
ROOT
ATOM      1  C   PRO R   4       5.491  -5.626 -11.395  1.00 60.54 LIG 0.24  C 
ATOM      2 O    PRO R   4       5.913  -4.804 -12.210  1.00 63.53 LIG-0.27  OA
ATOM      3  N   PRO R   5       4.866  -6.762 -11.751  1.00 48.92 LIG-0.34  N 
ATOM      4  CA  PRO R   5       4.612  -7.072 -13.165  1.00 52.68 LIG 0.18  C 
ATOM      5  CB  PRO R   5       3.891  -8.423 -13.103  1.00 55.54 LIG 0.04  C 
ATOM      6  CG  PRO R   5       4.340  -9.040 -11.831  1.00 46.13 LIG 0.02  C 
ATOM      7  CD  PRO R   5       4.533  -7.897 -10.871  1.00 43.47 LIG 0.13  C 
ENDROOT
BRANCH 4 8
ATOM      8  C   PRO R   5       3.720  -6.044 -13.868  1.00 58.07 LIG 0.24  C 
ATOM      9 O    PRO R   5       3.927  -4.836 -13.730  1.00 51.36 LIG-0.27  OA
ATOM     10  N   THR R   6       2.731  -6.536 -14.610  1.00 69.24 LIG-0.34  N 
ATOM     11 H    THR R   6       2.611  -7.377 -14.746  1.00 69.24 LIG 0.16  HD
BRANCH 10 12
ATOM     12  CA  THR R   6       1.750  -5.679 -15.266  1.00 55.31 LIG 0.20  C 
BRANCH 12 13
ATOM     13  CB  THR R   6       0.837  -6.484 -16.217  1.00 60.29 LIG 0.15  C 
ATOM     14  CG2 THR R   6       0.865  -5.897 -17.620  1.00 62.01 LIG 0.04  C 
BRANCH 13 15
ATOM     15 OG1  THR R   6       1.279  -7.847 -16.272  1.00 91.48 LIG-0.39  OA
ATOM     16 HG1  THR R   6       1.190  -8.201 -15.516  1.00 91.48 LIG 0.21  HD
ENDBRANCH 13 15
ENDBRANCH 12 13
BRANCH 12 17
ATOM     17  C   THR R   6       0.894  -4.983 -14.218  1.00 56.48 LIG 0.24  C 
ATOM     18  N   LEU R   7      -0.085  -5.707 -13.682  1.00 43.78 LIG-0.35  N 
ATOM     19 H    LEU R   7      -0.241  -6.529 -13.885  1.00 43.78 LIG 0.16  HD
ATOM     20 O    THR R   6       1.116  -3.811 -13.905  1.00 41.48 LIG-0.27  OA
BRANCH 18 21
ATOM     21  CA  LEU R   7      -0.991  -5.150 -12.687  1.00 53.52 LIG 0.16  C 
BRANCH 21 22
ATOM     22  CB  LEU R   7      -0.234  -4.832 -11.396  1.00 41.32 LIG 0.04  C 
BRANCH 22 23
ATOM     23  CG  LEU R   7       1.140  -5.497 -11.270  1.00 48.65 LIG-0.02  C 
ATOM     24  CD1 LEU R   7       2.250  -4.463 -11.136  1.00 40.28 LIG 0.01  C 
ATOM     25  CD2 LEU R   7       1.167  -6.469 -10.097  1.00 37.72 LIG 0.01  C 
ENDBRANCH 22 23
ENDBRANCH 21 22
BRANCH 21 26
ATOM     26  C   LEU R   7      -1.702  -3.904 -13.213  1.00 46.73 LIG 0.22  C 
ATOM     27 O    LEU R   7      -1.769  -2.882 -12.528  1.00 57.50 LIG-0.29  OA
ENDBRANCH 21 26
ENDBRANCH 18 21
ENDBRANCH 12 17
ENDBRANCH 10 12
ENDBRANCH 4 8
BRANCH 1 28
ATOM     28  CA  PRO R   4       5.687  -5.358  -9.903  1.00 54.23 LIG 0.18  C 
ATOM     29  N   PRO R   4       5.966  -3.935  -9.687  1.00 66.40 LIG-0.34  N 
ATOM     30  CD  PRO R   4       4.750  -3.216  -9.279  1.00 55.20 LIG 0.13  C 
ATOM     31  C   MET R   3       7.156  -3.310  -9.717  1.00 65.13 LIG 0.26  C 
ATOM     32  CG  PRO R   4       4.018  -4.257  -8.495  1.00 51.34 LIG 0.02  C 
ATOM     33  CB  PRO R   4       4.360  -5.574  -9.149  1.00 43.90 LIG 0.04  C 
ATOM     34 O    MET R   3       7.266  -2.089  -9.584  1.00 74.37 LIG-0.27  OA
BRANCH 31 35
ATOM     35  CA  MET R   3       8.401  -4.171  -9.917  1.00 67.30 LIG 0.40  C 
ATOM     36  N   MET R   3       9.301  -3.641 -10.937  1.00 55.69 LIG 0.61  N 
BRANCH 35 37
ATOM     37  CB  MET R   3       9.124  -4.304  -8.571  1.00 55.44 LIG 0.06  C 
BRANCH 37 38
ATOM     38  CG  MET R   3       8.258  -4.747  -7.413  1.00 49.90 LIG 0.08  C 
BRANCH 38 39
ATOM     39 SD   MET R   3       7.924  -3.350  -6.325  1.00 67.63 LIG-0.17  SA
ATOM     40  CE  MET R   3       6.516  -3.964  -5.403  1.00 69.90 LIG 0.09  C 
ENDBRANCH 38 39
ENDBRANCH 37 38
ENDBRANCH 35 37
ENDBRANCH 31 35
ENDBRANCH 1 28
TORSDOF 14
ENDMDL
MODEL 81
USER: ADFR SOLUTION from run 170
USER: SCORE 11.385379 LL:  -3.137 LR:  -9.079 RR:   0.000 FEB:  -4.902
USER: RMSD 8.303481
USER: SEED 169
USER: STATUS no improvement in best in 44 clusters for 5 generations
USER: GENES 16
USER: genes 0 Translation |==|  0.32317 0.30759 0.64394
USER: genes 1 Rotation |==|  0.07901 0.63239 0.26537 0.51376
USER: genes 2 Torsion [N]-CA--C-[N] |==|  0.76534
USER: genes 3 Torsion [C]-N--CA-[CB] |==|  0.47222
USER: genes 4 Torsion [N]-CA--CB-[CG2] |==|  0.59150
USER: genes 5 Torsion [CA]-CB--OG1-[HG1] |==|  0.36626
USER: genes 6 Torsion [N]-CA--C-[N] |==|  0.44206
USER: genes 7 Torsion [C]-N--CA-[CB] |==|  0.50785
USER: genes 8 Torsion [N]-CA--CB-[CG] |==|  0.15124
USER: genes 9 Torsion [CA]-CB--CG-[CD1] |==|  0.29359
USER: genes 10 Torsion [N]-CA--C-[O] |==|  0.41003
USER: genes 11 Torsion [O]-C--CA-[N] |==|  0.96085
USER: genes 12 Torsion [N]-C--CA-[N] |==|  0.86281
USER: genes 13 Torsion [C]-CA--CB-[CG] |==|  0.30222
USER: genes 14 Torsion [CA]-CB--CG-[SD] |==|  0.46611
USER: genes 15 Torsion [CB]-CG--SD-[CE] |==|  0.09535
ROOT
ATOM      1  C   PRO R   4       2.583  -3.735 -12.238  1.00 60.54 LIG 0.24  C 
ATOM      2 O    PRO R   4       2.356  -3.220 -11.142  1.00 63.53 LIG-0.27  OA
ATOM      3  N   PRO R   5       3.699  -4.437 -12.505  1.00 48.92 LIG-0.34  N 
ATOM      4  CA  PRO R   5       4.750  -4.597 -11.491  1.00 52.68 LIG 0.18  C 
ATOM      5  CB  PRO R   5       5.808  -5.439 -12.214  1.00 55.54 LIG 0.04  C 
ATOM      6  CG  PRO R   5       5.059  -6.187 -13.252  1.00 46.13 LIG 0.02  C 
ATOM      7  CD  PRO R   5       3.952  -5.269 -13.696  1.00 43.47 LIG 0.13  C 
ENDROOT
BRANCH 4 8
ATOM      8  C   PRO R   5       5.370  -3.273 -11.035  1.00 58.07 LIG 0.24  C 
ATOM      9 O    PRO R   5       4.955  -2.702 -10.023  1.00 51.36 LIG-0.27  OA
ATOM     10  N   THR R   6       6.354  -2.796 -11.792  1.00 69.24 LIG-0.34  N 
ATOM     11 H    THR R   6       6.678  -3.212 -12.471  1.00 69.24 LIG 0.16  HD
BRANCH 10 12
ATOM     12  CA  THR R   6       6.979  -1.504 -11.531  1.00 55.31 LIG 0.20  C 
BRANCH 12 13
ATOM     13  CB  THR R   6       8.246  -1.300 -12.392  1.00 60.29 LIG 0.15  C 
ATOM     14  CG2 THR R   6       9.283  -0.475 -11.644  1.00 62.01 LIG 0.04  C 
BRANCH 13 15
ATOM     15 OG1  THR R   6       8.814  -2.574 -12.723  1.00 91.48 LIG-0.39  OA
ATOM     16 HG1  THR R   6       8.981  -2.601 -13.545  1.00 91.48 LIG 0.21  HD
ENDBRANCH 13 15
ENDBRANCH 12 13
BRANCH 12 17
ATOM     17  C   THR R   6       5.989  -0.386 -11.822  1.00 56.48 LIG 0.24  C 
ATOM     18  N   LEU R   7       6.239   0.786 -11.244  1.00 43.78 LIG-0.35  N 
ATOM     19 H    LEU R   7       6.920   0.939 -10.742  1.00 43.78 LIG 0.16  HD
ATOM     20 O    THR R   6       5.016  -0.585 -12.554  1.00 41.48 LIG-0.27  OA
BRANCH 18 21
ATOM     21  CA  LEU R   7       5.353   1.930 -11.423  1.00 53.52 LIG 0.16  C 
BRANCH 21 22
ATOM     22  CB  LEU R   7       5.918   3.158 -10.706  1.00 41.32 LIG 0.04  C 
BRANCH 22 23
ATOM     23  CG  LEU R   7       7.352   3.532 -11.092  1.00 48.65 LIG-0.02  C 
ATOM     24  CD1 LEU R   7       7.385   4.765 -11.986  1.00 40.28 LIG 0.01  C 
ATOM     25  CD2 LEU R   7       8.211   3.745  -9.852  1.00 37.72 LIG 0.01  C 
ENDBRANCH 22 23
ENDBRANCH 21 22
BRANCH 21 26
ATOM     26  C   LEU R   7       5.120   2.231 -12.901  1.00 46.73 LIG 0.22  C 
ATOM     27 O    LEU R   7       4.045   2.693 -13.287  1.00 57.50 LIG-0.29  OA
ENDBRANCH 21 26
ENDBRANCH 18 21
ENDBRANCH 12 17
ENDBRANCH 10 12
ENDBRANCH 4 8
BRANCH 1 28
ATOM     28  CA  PRO R   4       1.552  -3.583 -13.356  1.00 54.23 LIG 0.18  C 
ATOM     29  N   PRO R   4       0.284  -3.103 -12.799  1.00 66.40 LIG-0.34  N 
ATOM     30  CD  PRO R   4       0.146  -1.650 -12.979  1.00 55.20 LIG 0.13  C 
ATOM     31  C   MET R   3      -0.724  -3.830 -12.286  1.00 65.13 LIG 0.26  C 
ATOM     32  CG  PRO R   4       0.859  -1.425 -14.273  1.00 51.34 LIG 0.02  C 
ATOM     33  CB  PRO R   4       1.970  -2.446 -14.309  1.00 43.90 LIG 0.04  C 
ATOM     34 O    MET R   3      -1.724  -3.313 -11.783  1.00 74.37 LIG-0.27  OA
BRANCH 31 35
ATOM     35  CA  MET R   3      -0.602  -5.351 -12.351  1.00 67.30 LIG 0.40  C 
ATOM     36  N   MET R   3      -0.244  -5.836 -13.681  1.00 55.69 LIG 0.61  N 
BRANCH 35 37
ATOM     37  CB  MET R   3       0.430  -5.803 -11.311  1.00 55.44 LIG 0.06  C 
BRANCH 37 38
ATOM     38  CG  MET R   3      -0.137  -6.526 -10.109  1.00 49.90 LIG 0.08  C 
BRANCH 38 39
ATOM     39 SD   MET R   3       1.195  -7.298  -9.172  1.00 67.63 LIG-0.17  SA
ATOM     40  CE  MET R   3       2.512  -6.107  -9.407  1.00 69.90 LIG 0.09  C 
ENDBRANCH 38 39
ENDBRANCH 37 38
ENDBRANCH 35 37
ENDBRANCH 31 35
ENDBRANCH 1 28
TORSDOF 14
ENDMDL
MODEL 82
USER: ADFR SOLUTION from run 16
USER: SCORE 11.534787 LL:  -3.093 LR:  -9.079 RR:   0.000 FEB:  -4.903
USER: RMSD 9.552075
USER: SEED 855105
USER: STATUS no improvement in best in 6 clusters for 5 generations
USER: GENES 16
USER: genes 0 Translation |==|  0.32462 0.33041 0.59439
USER: genes 1 Rotation |==|  0.31985 0.60237 0.95346 0.53791
USER: genes 2 Torsion [N]-CA--C-[N] |==|  0.59747
USER: genes 3 Torsion [C]-N--CA-[CB] |==|  0.52222
USER: genes 4 Torsion [N]-CA--CB-[CG2] |==|  0.91561
USER: genes 5 Torsion [CA]-CB--OG1-[HG1] |==|  0.83073
USER: genes 6 Torsion [N]-CA--C-[N] |==|  0.32497
USER: genes 7 Torsion [C]-N--CA-[CB] |==|  0.29418
USER: genes 8 Torsion [N]-CA--CB-[CG] |==|  0.56218
USER: genes 9 Torsion [CA]-CB--CG-[CD1] |==|  0.06447
USER: genes 10 Torsion [N]-CA--C-[O] |==|  0.93024
USER: genes 11 Torsion [O]-C--CA-[N] |==|  0.92679
USER: genes 12 Torsion [N]-C--CA-[N] |==|  0.41016
USER: genes 13 Torsion [C]-CA--CB-[CG] |==|  0.25806
USER: genes 14 Torsion [CA]-CB--CG-[SD] |==|  0.18529
USER: genes 15 Torsion [CB]-CG--SD-[CE] |==|  0.32028
ROOT
ATOM      1  C   PRO R   4       2.609  -3.273 -13.242  1.00 60.54 LIG 0.24  C 
ATOM      2 O    PRO R   4       2.987  -3.055 -14.394  1.00 63.53 LIG-0.27  OA
ATOM      3  N   PRO R   5       1.377  -2.964 -12.799  1.00 48.92 LIG-0.34  N 
ATOM      4  CA  PRO R   5       0.405  -2.299 -13.677  1.00 52.68 LIG 0.18  C 
ATOM      5  CB  PRO R   5      -0.826  -2.140 -12.778  1.00 55.54 LIG 0.04  C 
ATOM      6  CG  PRO R   5      -0.707  -3.219 -11.769  1.00 46.13 LIG 0.02  C 
ATOM      7  CD  PRO R   5       0.769  -3.386 -11.524  1.00 43.47 LIG 0.13  C 
ENDROOT
BRANCH 4 8
ATOM      8  C   PRO R   5       0.864  -0.924 -14.170  1.00 58.07 LIG 0.24  C 
ATOM      9 O    PRO R   5       2.055  -0.708 -14.407  1.00 51.36 LIG-0.27  OA
ATOM     10  N   THR R   6      -0.087  -0.004 -14.311  1.00 69.24 LIG-0.34  N 
ATOM     11 H    THR R   6      -0.924  -0.163 -14.191  1.00 69.24 LIG 0.16  HD
BRANCH 10 12
ATOM     12  CA  THR R   6       0.212   1.373 -14.688  1.00 55.31 LIG 0.20  C 
BRANCH 12 13
ATOM     13  CB  THR R   6      -1.039   2.274 -14.589  1.00 60.29 LIG 0.15  C 
ATOM     14  CG2 THR R   6      -2.305   1.478 -14.867  1.00 62.01 LIG 0.04  C 
BRANCH 13 15
ATOM     15 OG1  THR R   6      -1.123   2.840 -13.275  1.00 91.48 LIG-0.39  OA
ATOM     16 HG1  THR R   6      -1.191   2.224 -12.709  1.00 91.48 LIG 0.21  HD
ENDBRANCH 13 15
ENDBRANCH 12 13
BRANCH 12 17
ATOM     17  C   THR R   6       1.302   1.927 -13.783  1.00 56.48 LIG 0.24  C 
ATOM     18  N   LEU R   7       2.443   2.267 -14.378  1.00 43.78 LIG-0.35  N 
ATOM     19 H    LEU R   7       2.581   2.204 -15.225  1.00 43.78 LIG 0.16  HD
ATOM     20 O    THR R   6       1.114   2.040 -12.569  1.00 41.48 LIG-0.27  OA
BRANCH 18 21
ATOM     21  CA  LEU R   7       3.574   2.787 -13.621  1.00 53.52 LIG 0.16  C 
BRANCH 21 22
ATOM     22  CB  LEU R   7       4.669   1.724 -13.502  1.00 41.32 LIG 0.04  C 
BRANCH 22 23
ATOM     23  CG  LEU R   7       5.635   1.917 -12.329  1.00 48.65 LIG-0.02  C 
ATOM     24  CD1 LEU R   7       5.008   2.755 -11.222  1.00 40.28 LIG 0.01  C 
ATOM     25  CD2 LEU R   7       6.104   0.573 -11.786  1.00 37.72 LIG 0.01  C 
ENDBRANCH 22 23
ENDBRANCH 21 22
BRANCH 21 26
ATOM     26  C   LEU R   7       4.130   4.063 -14.249  1.00 46.73 LIG 0.22  C 
ATOM     27 O    LEU R   7       3.977   4.291 -15.450  1.00 57.50 LIG-0.29  OA
ENDBRANCH 21 26
ENDBRANCH 18 21
ENDBRANCH 12 17
ENDBRANCH 10 12
ENDBRANCH 4 8
BRANCH 1 28
ATOM     28  CA  PRO R   4       3.576  -3.932 -12.258  1.00 54.23 LIG 0.18  C 
ATOM     29  N   PRO R   4       4.552  -4.743 -12.991  1.00 66.40 LIG-0.34  N 
ATOM     30  CD  PRO R   4       5.816  -4.013 -13.170  1.00 55.20 LIG 0.13  C 
ATOM     31  C   MET R   3       4.440  -6.026 -13.379  1.00 65.13 LIG 0.26  C 
ATOM     32  CG  PRO R   4       5.881  -3.190 -11.924  1.00 51.34 LIG 0.02  C 
ATOM     33  CB  PRO R   4       4.450  -2.860 -11.578  1.00 43.90 LIG 0.04  C 
ATOM     34 O    MET R   3       5.305  -6.593 -14.051  1.00 74.37 LIG-0.27  OA
BRANCH 31 35
ATOM     35  CA  MET R   3       3.188  -6.787 -12.948  1.00 67.30 LIG 0.40  C 
ATOM     36  N   MET R   3       2.767  -7.787 -13.925  1.00 55.69 LIG 0.61  N 
BRANCH 35 37
ATOM     37  CB  MET R   3       3.457  -7.439 -11.586  1.00 55.44 LIG 0.06  C 
BRANCH 37 38
ATOM     38  CG  MET R   3       3.041  -6.619 -10.384  1.00 49.90 LIG 0.08  C 
BRANCH 38 39
ATOM     39 SD   MET R   3       1.247  -6.460 -10.340  1.00 67.63 LIG-0.17  SA
ATOM     40  CE  MET R   3       0.862  -7.348  -8.832  1.00 69.90 LIG 0.09  C 
ENDBRANCH 38 39
ENDBRANCH 37 38
ENDBRANCH 35 37
ENDBRANCH 31 35
ENDBRANCH 1 28
TORSDOF 14
ENDMDL
MODEL 83
USER: ADFR SOLUTION from run 81
USER: SCORE 11.730899 LL:  -3.009 LR:  -9.077 RR:   0.000 FEB:  -4.901
USER: RMSD 8.322516
USER: SEED 80
USER: STATUS no improvement in best in 15 clusters for 5 generations
USER: GENES 16
USER: genes 0 Translation |==|  0.50025 0.48224 0.62214
USER: genes 1 Rotation |==|  0.37983 0.13459 0.18259 0.53586
USER: genes 2 Torsion [N]-CA--C-[N] |==|  0.28982
USER: genes 3 Torsion [C]-N--CA-[CB] |==|  0.18896
USER: genes 4 Torsion [N]-CA--CB-[CG2] |==|  0.14456
USER: genes 5 Torsion [CA]-CB--OG1-[HG1] |==|  0.96668
USER: genes 6 Torsion [N]-CA--C-[N] |==|  0.01231
USER: genes 7 Torsion [C]-N--CA-[CB] |==|  0.45563
USER: genes 8 Torsion [N]-CA--CB-[CG] |==|  0.74919
USER: genes 9 Torsion [CA]-CB--CG-[CD1] |==|  0.34804
USER: genes 10 Torsion [N]-CA--C-[O] |==|  0.53705
USER: genes 11 Torsion [O]-C--CA-[N] |==|  0.96543
USER: genes 12 Torsion [N]-C--CA-[N] |==|  0.27943
USER: genes 13 Torsion [C]-CA--CB-[CG] |==|  0.55253
USER: genes 14 Torsion [CA]-CB--CG-[SD] |==|  0.23536
USER: genes 15 Torsion [CB]-CG--SD-[CE] |==|  0.42619
ROOT
ATOM      1  C   PRO R   4       5.771  -0.199 -12.680  1.00 60.54 LIG 0.24  C 
ATOM      2 O    PRO R   4       4.846  -0.983 -12.903  1.00 63.53 LIG-0.27  OA
ATOM      3  N   PRO R   5       5.585   1.116 -12.466  1.00 48.92 LIG-0.34  N 
ATOM      4  CA  PRO R   5       4.242   1.708 -12.528  1.00 52.68 LIG 0.18  C 
ATOM      5  CB  PRO R   5       4.500   3.191 -12.235  1.00 55.54 LIG 0.04  C 
ATOM      6  CG  PRO R   5       5.754   3.214 -11.446  1.00 46.13 LIG 0.02  C 
ATOM      7  CD  PRO R   5       6.588   2.078 -11.974  1.00 43.47 LIG 0.13  C 
ENDROOT
BRANCH 4 8
ATOM      8  C   PRO R   5       3.569   1.563 -13.896  1.00 58.07 LIG 0.24  C 
ATOM      9 O    PRO R   5       3.911   2.278 -14.841  1.00 51.36 LIG-0.27  OA
ATOM     10  N   THR R   6       2.614   0.642 -13.985  1.00 69.24 LIG-0.34  N 
ATOM     11 H    THR R   6       2.404   0.110 -13.343  1.00 69.24 LIG 0.16  HD
BRANCH 10 12
ATOM     12  CA  THR R   6       1.827   0.451 -15.198  1.00 55.31 LIG 0.20  C 
BRANCH 12 13
ATOM     13  CB  THR R   6       2.687  -0.111 -16.352  1.00 60.29 LIG 0.15  C 
ATOM     14  CG2 THR R   6       3.442  -1.356 -15.910  1.00 62.01 LIG 0.04  C 
BRANCH 13 15
ATOM     15 OG1  THR R   6       1.844  -0.446 -17.462  1.00 91.48 LIG-0.39  OA
ATOM     16 HG1  THR R   6       1.041  -0.429 -17.219  1.00 91.48 LIG 0.21  HD
ENDBRANCH 13 15
ENDBRANCH 12 13
BRANCH 12 17
ATOM     17  C   THR R   6       0.676  -0.503 -14.919  1.00 56.48 LIG 0.24  C 
ATOM     18  N   LEU R   7       0.536  -0.903 -13.658  1.00 43.78 LIG-0.35  N 
ATOM     19 H    LEU R   7       1.042  -0.643 -13.013  1.00 43.78 LIG 0.16  HD
ATOM     20 O    THR R   6      -0.068  -0.872 -15.831  1.00 41.48 LIG-0.27  OA
BRANCH 18 21
ATOM     21  CA  LEU R   7      -0.512  -1.836 -13.264  1.00 53.52 LIG 0.16  C 
BRANCH 21 22
ATOM     22  CB  LEU R   7      -0.211  -2.424 -11.884  1.00 41.32 LIG 0.04  C 
BRANCH 22 23
ATOM     23  CG  LEU R   7       0.612  -3.715 -11.894  1.00 48.65 LIG-0.02  C 
ATOM     24  CD1 LEU R   7       1.859  -3.589 -11.028  1.00 40.28 LIG 0.01  C 
ATOM     25  CD2 LEU R   7      -0.234  -4.902 -11.448  1.00 37.72 LIG 0.01  C 
ENDBRANCH 22 23
ENDBRANCH 21 22
BRANCH 21 26
ATOM     26  C   LEU R   7      -1.887  -1.172 -13.277  1.00 46.73 LIG 0.22  C 
ATOM     27 O    LEU R   7      -2.855  -1.718 -12.746  1.00 57.50 LIG-0.29  OA
ENDBRANCH 21 26
ENDBRANCH 18 21
ENDBRANCH 12 17
ENDBRANCH 10 12
ENDBRANCH 4 8
BRANCH 1 28
ATOM     28  CA  PRO R   4       7.201  -0.734 -12.633  1.00 54.23 LIG 0.18  C 
ATOM     29  N   PRO R   4       7.181  -2.198 -12.584  1.00 66.40 LIG-0.34  N 
ATOM     30  CD  PRO R   4       7.404  -2.774 -13.918  1.00 55.20 LIG 0.13  C 
ATOM     31  C   MET R   3       7.099  -2.990 -11.499  1.00 65.13 LIG 0.26  C 
ATOM     32  CG  PRO R   4       8.320  -1.773 -14.543  1.00 51.34 LIG 0.02  C 
ATOM     33  CB  PRO R   4       7.919  -0.438 -13.965  1.00 43.90 LIG 0.04  C 
ATOM     34 O    MET R   3       7.025  -4.218 -11.580  1.00 74.37 LIG-0.27  OA
BRANCH 31 35
ATOM     35  CA  MET R   3       7.109  -2.315 -10.129  1.00 67.30 LIG 0.40  C 
ATOM     36  N   MET R   3       5.775  -2.196  -9.546  1.00 55.69 LIG 0.61  N 
BRANCH 35 37
ATOM     37  CB  MET R   3       8.039  -3.105  -9.202  1.00 55.44 LIG 0.06  C 
BRANCH 37 38
ATOM     38  CG  MET R   3       7.834  -2.863  -7.722  1.00 49.90 LIG 0.08  C 
BRANCH 38 39
ATOM     39 SD   MET R   3       6.515  -3.924  -7.103  1.00 67.63 LIG-0.17  SA
ATOM     40  CE  MET R   3       6.985  -4.081  -5.381  1.00 69.90 LIG 0.09  C 
ENDBRANCH 38 39
ENDBRANCH 37 38
ENDBRANCH 35 37
ENDBRANCH 31 35
ENDBRANCH 1 28
TORSDOF 14
ENDMDL
MODEL 84
USER: ADFR SOLUTION from run 11
USER: SCORE 11.369787 LL:  -2.779 LR:  -9.068 RR:   0.000 FEB:  -4.892
USER: RMSD 6.623327
USER: SEED 932576
USER: STATUS no improvement in best in 38 clusters for 5 generations
USER: GENES 16
USER: genes 0 Translation |==|  0.29604 0.32243 0.59351
USER: genes 1 Rotation |==|  0.08497 0.67249 0.32545 0.63239
USER: genes 2 Torsion [N]-CA--C-[N] |==|  0.69379
USER: genes 3 Torsion [C]-N--CA-[CB] |==|  0.78333
USER: genes 4 Torsion [N]-CA--CB-[CG2] |==|  0.64641
USER: genes 5 Torsion [CA]-CB--OG1-[HG1] |==|  0.03494
USER: genes 6 Torsion [N]-CA--C-[N] |==|  0.14086
USER: genes 7 Torsion [C]-N--CA-[CB] |==|  0.86818
USER: genes 8 Torsion [N]-CA--CB-[CG] |==|  0.56278
USER: genes 9 Torsion [CA]-CB--CG-[CD1] |==|  0.79204
USER: genes 10 Torsion [N]-CA--C-[O] |==|  0.89284
USER: genes 11 Torsion [O]-C--CA-[N] |==|  0.98995
USER: genes 12 Torsion [N]-C--CA-[N] |==|  0.33509
USER: genes 13 Torsion [C]-CA--CB-[CG] |==|  0.03621
USER: genes 14 Torsion [CA]-CB--CG-[SD] |==|  0.22297
USER: genes 15 Torsion [CB]-CG--SD-[CE] |==|  0.56060
ROOT
ATOM      1  C   PRO R   4       2.095  -3.435 -13.259  1.00 60.54 LIG 0.24  C 
ATOM      2 O    PRO R   4       1.935  -3.585 -12.046  1.00 63.53 LIG-0.27  OA
ATOM      3  N   PRO R   5       3.226  -3.779 -13.901  1.00 48.92 LIG-0.34  N 
ATOM      4  CA  PRO R   5       4.373  -4.329 -13.166  1.00 52.68 LIG 0.18  C 
ATOM      5  CB  PRO R   5       5.413  -4.564 -14.268  1.00 55.54 LIG 0.04  C 
ATOM      6  CG  PRO R   5       4.624  -4.742 -15.509  1.00 46.13 LIG 0.02  C 
ATOM      7  CD  PRO R   5       3.423  -3.847 -15.361  1.00 43.47 LIG 0.13  C 
ENDROOT
BRANCH 4 8
ATOM      8  C   PRO R   5       4.943  -3.373 -12.114  1.00 58.07 LIG 0.24  C 
ATOM      9 O    PRO R   5       4.301  -3.108 -11.095  1.00 51.36 LIG-0.27  OA
ATOM     10  N   THR R   6       6.143  -2.862 -12.377  1.00 69.24 LIG-0.34  N 
ATOM     11 H    THR R   6       6.614  -3.079 -13.063  1.00 69.24 LIG 0.16  HD
BRANCH 10 12
ATOM     12  CA  THR R   6       6.772  -1.871 -11.511  1.00 55.31 LIG 0.20  C 
BRANCH 12 13
ATOM     13  CB  THR R   6       6.179  -0.462 -11.732  1.00 60.29 LIG 0.15  C 
ATOM     14  CG2 THR R   6       7.279   0.552 -12.007  1.00 62.01 LIG 0.04  C 
BRANCH 13 15
ATOM     15 OG1  THR R   6       5.279  -0.488 -12.848  1.00 91.48 LIG-0.39  OA
ATOM     16 HG1  THR R   6       5.115  -1.284 -13.056  1.00 91.48 LIG 0.21  HD
ENDBRANCH 13 15
ENDBRANCH 12 13
BRANCH 12 17
ATOM     17  C   THR R   6       6.587  -2.271 -10.054  1.00 56.48 LIG 0.24  C 
ATOM     18  N   LEU R   7       6.927  -3.518  -9.739  1.00 43.78 LIG-0.35  N 
ATOM     19 H    LEU R   7       7.250  -4.084 -10.300  1.00 43.78 LIG 0.16  HD
ATOM     20 O    THR R   6       6.141  -1.465  -9.234  1.00 41.48 LIG-0.27  OA
BRANCH 18 21
ATOM     21  CA  LEU R   7       6.774  -4.032  -8.384  1.00 53.52 LIG 0.16  C 
BRANCH 21 22
ATOM     22  CB  LEU R   7       7.342  -3.037  -7.370  1.00 41.32 LIG 0.04  C 
BRANCH 22 23
ATOM     23  CG  LEU R   7       7.740  -3.644  -6.020  1.00 48.65 LIG-0.02  C 
ATOM     24  CD1 LEU R   7       6.516  -3.964  -5.171  1.00 40.28 LIG 0.01  C 
ATOM     25  CD2 LEU R   7       8.598  -4.888  -6.216  1.00 37.72 LIG 0.01  C 
ENDBRANCH 22 23
ENDBRANCH 21 22
BRANCH 21 26
ATOM     26  C   LEU R   7       5.314  -4.347  -8.067  1.00 46.73 LIG 0.22  C 
ATOM     27 O    LEU R   7       4.410  -3.615  -8.472  1.00 57.50 LIG-0.29  OA
ENDBRANCH 21 26
ENDBRANCH 18 21
ENDBRANCH 12 17
ENDBRANCH 10 12
ENDBRANCH 4 8
BRANCH 1 28
ATOM     28  CA  PRO R   4       0.958  -2.836 -14.087  1.00 54.23 LIG 0.18  C 
ATOM     29  N   PRO R   4      -0.213  -2.615 -13.235  1.00 66.40 LIG-0.34  N 
ATOM     30  CD  PRO R   4      -0.289  -1.213 -12.799  1.00 55.20 LIG 0.13  C 
ATOM     31  C   MET R   3      -1.198  -3.480 -12.939  1.00 65.13 LIG 0.26  C 
ATOM     32  CG  PRO R   4       0.290  -0.487 -13.970  1.00 51.34 LIG 0.02  C 
ATOM     33  CB  PRO R   4       1.333  -1.413 -14.547  1.00 43.90 LIG 0.04  C 
ATOM     34 O    MET R   3      -2.108  -3.205 -12.153  1.00 74.37 LIG-0.27  OA
BRANCH 31 35
ATOM     35  CA  MET R   3      -1.168  -4.846 -13.623  1.00 67.30 LIG 0.40  C 
ATOM     36  N   MET R   3      -1.097  -5.955 -12.675  1.00 55.69 LIG 0.61  N 
BRANCH 35 37
ATOM     37  CB  MET R   3      -2.409  -4.973 -14.515  1.00 55.44 LIG 0.06  C 
BRANCH 37 38
ATOM     38  CG  MET R   3      -3.165  -3.684 -14.758  1.00 49.90 LIG 0.08  C 
BRANCH 38 39
ATOM     39 SD   MET R   3      -2.344  -2.723 -16.042  1.00 67.63 LIG-0.17  SA
ATOM     40  CE  MET R   3      -2.964  -1.080 -15.687  1.00 69.90 LIG 0.09  C 
ENDBRANCH 38 39
ENDBRANCH 37 38
ENDBRANCH 35 37
ENDBRANCH 31 35
ENDBRANCH 1 28
TORSDOF 14
ENDMDL
MODEL 85
USER: ADFR SOLUTION from run 161
USER: SCORE 11.290407 LL:  -2.886 LR:  -9.055 RR:   0.000 FEB:  -4.879
USER: RMSD 7.124189
USER: SEED 160
USER: STATUS no improvement in best in 17 clusters for 5 generations
USER: GENES 16
USER: genes 0 Translation |==|  0.17863 0.48734 0.55464
USER: genes 1 Rotation |==|  0.52011 0.04798 0.66689 0.63200
USER: genes 2 Torsion [N]-CA--C-[N] |==|  0.75045
USER: genes 3 Torsion [C]-N--CA-[CB] |==|  0.49803
USER: genes 4 Torsion [N]-CA--CB-[CG2] |==|  0.85427
USER: genes 5 Torsion [CA]-CB--OG1-[HG1] |==|  0.35939
USER: genes 6 Torsion [N]-CA--C-[N] |==|  0.43063
USER: genes 7 Torsion [C]-N--CA-[CB] |==|  0.17379
USER: genes 8 Torsion [N]-CA--CB-[CG] |==|  0.55033
USER: genes 9 Torsion [CA]-CB--CG-[CD1] |==|  0.74324
USER: genes 10 Torsion [N]-CA--C-[O] |==|  0.95270
USER: genes 11 Torsion [O]-C--CA-[N] |==|  0.89086
USER: genes 12 Torsion [N]-C--CA-[N] |==|  0.86325
USER: genes 13 Torsion [C]-CA--CB-[CG] |==|  0.32113
USER: genes 14 Torsion [CA]-CB--CG-[SD] |==|  0.86415
USER: genes 15 Torsion [CB]-CG--SD-[CE] |==|  0.52642
ROOT
ATOM      1  C   PRO R   4      -0.019  -0.095 -14.047  1.00 60.54 LIG 0.24  C 
ATOM      2 O    PRO R   4       0.114   0.001 -12.825  1.00 63.53 LIG-0.27  OA
ATOM      3  N   PRO R   5      -1.115  -0.613 -14.630  1.00 48.92 LIG-0.34  N 
ATOM      4  CA  PRO R   5      -2.222  -1.140 -13.821  1.00 52.68 LIG 0.18  C 
ATOM      5  CB  PRO R   5      -3.227  -1.620 -14.875  1.00 55.54 LIG 0.04  C 
ATOM      6  CG  PRO R   5      -2.941  -0.803 -16.078  1.00 46.13 LIG 0.02  C 
ATOM      7  CD  PRO R   5      -1.456  -0.562 -16.063  1.00 43.47 LIG 0.13  C 
ENDROOT
BRANCH 4 8
ATOM      8  C   PRO R   5      -1.821  -2.311 -12.920  1.00 58.07 LIG 0.24  C 
ATOM      9 O    PRO R   5      -1.410  -2.109 -11.775  1.00 51.36 LIG-0.27  OA
ATOM     10  N   THR R   6      -1.939  -3.526 -13.451  1.00 69.24 LIG-0.34  N 
ATOM     11 H    THR R   6      -2.268  -3.674 -14.231  1.00 69.24 LIG 0.16  HD
BRANCH 10 12
ATOM     12  CA  THR R   6      -1.513  -4.728 -12.744  1.00 55.31 LIG 0.20  C 
BRANCH 12 13
ATOM     13  CB  THR R   6      -1.778  -6.002 -13.577  1.00 60.29 LIG 0.15  C 
ATOM     14  CG2 THR R   6      -3.225  -6.055 -14.042  1.00 62.01 LIG 0.04  C 
BRANCH 13 15
ATOM     15 OG1  THR R   6      -0.917  -6.016 -14.724  1.00 91.48 LIG-0.39  OA
ATOM     16 HG1  THR R   6      -0.523  -6.755 -14.769  1.00 91.48 LIG 0.21  HD
ENDBRANCH 13 15
ENDBRANCH 12 13
BRANCH 12 17
ATOM     17  C   THR R   6      -0.028  -4.637 -12.424  1.00 56.48 LIG 0.24  C 
ATOM     18  N   LEU R   7       0.394  -5.352 -11.384  1.00 43.78 LIG-0.35  N 
ATOM     19 H    LEU R   7      -0.115  -5.859 -10.911  1.00 43.78 LIG 0.16  HD
ATOM     20 O    THR R   6       0.718  -3.928 -13.104  1.00 41.48 LIG-0.27  OA
BRANCH 18 21
ATOM     21  CA  LEU R   7       1.788  -5.332 -10.959  1.00 53.52 LIG 0.16  C 
BRANCH 21 22
ATOM     22  CB  LEU R   7       2.189  -3.923 -10.515  1.00 41.32 LIG 0.04  C 
BRANCH 22 23
ATOM     23  CG  LEU R   7       3.698  -3.665 -10.462  1.00 48.65 LIG-0.02  C 
ATOM     24  CD1 LEU R   7       4.263  -3.947  -9.076  1.00 40.28 LIG 0.01  C 
ATOM     25  CD2 LEU R   7       4.426  -4.489 -11.517  1.00 37.72 LIG 0.01  C 
ENDBRANCH 22 23
ENDBRANCH 21 22
BRANCH 21 26
ATOM     26  C   LEU R   7       2.047  -6.340  -9.842  1.00 46.73 LIG 0.22  C 
ATOM     27 O    LEU R   7       1.113  -6.818  -9.196  1.00 57.50 LIG-0.29  OA
ENDBRANCH 21 26
ENDBRANCH 18 21
ENDBRANCH 12 17
ENDBRANCH 10 12
ENDBRANCH 4 8
BRANCH 1 28
ATOM     28  CA  PRO R   4       1.106   0.400 -14.955  1.00 54.23 LIG 0.18  C 
ATOM     29  N   PRO R   4       1.671   1.639 -14.414  1.00 66.40 LIG-0.34  N 
ATOM     30  CD  PRO R   4       2.902   1.371 -13.656  1.00 55.20 LIG 0.13  C 
ATOM     31  C   MET R   3       1.258   2.901 -14.629  1.00 65.13 LIG 0.26  C 
ATOM     32  CG  PRO R   4       3.479   0.208 -14.397  1.00 51.34 LIG 0.02  C 
ATOM     33  CB  PRO R   4       2.295  -0.579 -14.904  1.00 43.90 LIG 0.04  C 
ATOM     34 O    MET R   3       1.772   3.871 -14.066  1.00 74.37 LIG-0.27  OA
BRANCH 31 35
ATOM     35  CA  MET R   3       0.114   3.111 -15.618  1.00 67.30 LIG 0.40  C 
ATOM     36  N   MET R   3       0.322   2.413 -16.884  1.00 55.69 LIG 0.61  N 
BRANCH 35 37
ATOM     37  CB  MET R   3      -1.193   2.658 -14.957  1.00 55.44 LIG 0.06  C 
BRANCH 37 38
ATOM     38  CG  MET R   3      -2.214   3.751 -14.727  1.00 49.90 LIG 0.08  C 
BRANCH 38 39
ATOM     39 SD   MET R   3      -1.430   5.167 -13.934  1.00 67.63 LIG-0.17  SA
ATOM     40  CE  MET R   3      -2.861   6.161 -13.520  1.00 69.90 LIG 0.09  C 
ENDBRANCH 38 39
ENDBRANCH 37 38
ENDBRANCH 35 37
ENDBRANCH 31 35
ENDBRANCH 1 28
TORSDOF 14
ENDMDL
MODEL 86
USER: ADFR SOLUTION from run 132
USER: SCORE 11.998630 LL:  -3.201 LR:  -9.059 RR:   0.000 FEB:  -4.883
USER: RMSD 9.884169
USER: SEED 131
USER: STATUS no improvement in best in 20 clusters for 5 generations
USER: GENES 16
USER: genes 0 Translation |==|  0.64073 0.32169 0.79513
USER: genes 1 Rotation |==|  0.51952 0.35031 0.09172 0.74601
USER: genes 2 Torsion [N]-CA--C-[N] |==|  0.39574
USER: genes 3 Torsion [C]-N--CA-[CB] |==|  0.19201
USER: genes 4 Torsion [N]-CA--CB-[CG2] |==|  0.13615
USER: genes 5 Torsion [CA]-CB--OG1-[HG1] |==|  0.25320
USER: genes 6 Torsion [N]-CA--C-[N] |==|  0.03646
USER: genes 7 Torsion [C]-N--CA-[CB] |==|  0.43790
USER: genes 8 Torsion [N]-CA--CB-[CG] |==|  0.84517
USER: genes 9 Torsion [CA]-CB--CG-[CD1] |==|  0.91328
USER: genes 10 Torsion [N]-CA--C-[O] |==|  0.17804
USER: genes 11 Torsion [O]-C--CA-[N] |==|  0.82465
USER: genes 12 Torsion [N]-C--CA-[N] |==|  0.36306
USER: genes 13 Torsion [C]-CA--CB-[CG] |==|  0.10031
USER: genes 14 Torsion [CA]-CB--CG-[SD] |==|  0.19097
USER: genes 15 Torsion [CB]-CG--SD-[CE] |==|  0.46520
ROOT
ATOM      1  C   PRO R   4       8.299  -3.450  -9.177  1.00 60.54 LIG 0.24  C 
ATOM      2 O    PRO R   4       7.836  -4.053 -10.147  1.00 63.53 LIG-0.27  OA
ATOM      3  N   PRO R   5       7.735  -3.475  -7.956  1.00 48.92 LIG-0.34  N 
ATOM      4  CA  PRO R   5       6.484  -4.209  -7.718  1.00 52.68 LIG 0.18  C 
ATOM      5  CB  PRO R   5       6.214  -3.964  -6.229  1.00 55.54 LIG 0.04  C 
ATOM      6  CG  PRO R   5       7.546  -3.697  -5.636  1.00 46.13 LIG 0.02  C 
ATOM      7  CD  PRO R   5       8.330  -2.980  -6.701  1.00 43.47 LIG 0.13  C 
ENDROOT
BRANCH 4 8
ATOM      8  C   PRO R   5       5.304  -3.695  -8.547  1.00 58.07 LIG 0.24  C 
ATOM      9 O    PRO R   5       5.163  -2.487  -8.755  1.00 51.36 LIG-0.27  OA
ATOM     10  N   THR R   6       4.463  -4.618  -9.005  1.00 69.24 LIG-0.34  N 
ATOM     11 H    THR R   6       4.582  -5.464  -8.901  1.00 69.24 LIG 0.16  HD
BRANCH 10 12
ATOM     12  CA  THR R   6       3.248  -4.271  -9.734  1.00 55.31 LIG 0.20  C 
BRANCH 12 13
ATOM     13  CB  THR R   6       3.567  -3.684 -11.127  1.00 60.29 LIG 0.15  C 
ATOM     14  CG2 THR R   6       4.562  -4.563 -11.870  1.00 62.01 LIG 0.04  C 
BRANCH 13 15
ATOM     15 OG1  THR R   6       2.362  -3.589 -11.897  1.00 91.48 LIG-0.39  OA
ATOM     16 HG1  THR R   6       2.014  -2.834 -11.780  1.00 91.48 LIG 0.21  HD
ENDBRANCH 13 15
ENDBRANCH 12 13
BRANCH 12 17
ATOM     17  C   THR R   6       2.376  -5.507  -9.897  1.00 56.48 LIG 0.24  C 
ATOM     18  N   LEU R   7       2.705  -6.561  -9.154  1.00 43.78 LIG-0.35  N 
ATOM     19 H    LEU R   7       3.357  -6.569  -8.593  1.00 43.78 LIG 0.16  HD
ATOM     20 O    THR R   6       1.427  -5.506 -10.685  1.00 41.48 LIG-0.27  OA
BRANCH 18 21
ATOM     21  CA  LEU R   7       1.966  -7.814  -9.237  1.00 53.52 LIG 0.16  C 
BRANCH 21 22
ATOM     22  CB  LEU R   7       2.831  -8.977  -8.744  1.00 41.32 LIG 0.04  C 
BRANCH 22 23
ATOM     23  CG  LEU R   7       4.175  -9.133  -9.462  1.00 48.65 LIG-0.02  C 
ATOM     24  CD1 LEU R   7       4.089  -8.675 -10.913  1.00 40.28 LIG 0.01  C 
ATOM     25  CD2 LEU R   7       5.275  -8.379  -8.725  1.00 37.72 LIG 0.01  C 
ENDBRANCH 22 23
ENDBRANCH 21 22
BRANCH 21 26
ATOM     26  C   LEU R   7       0.660  -7.746  -8.448  1.00 46.73 LIG 0.22  C 
ATOM     27 O    LEU R   7      -0.234  -6.964  -8.778  1.00 57.50 LIG-0.29  OA
ENDBRANCH 21 26
ENDBRANCH 18 21
ENDBRANCH 12 17
ENDBRANCH 10 12
ENDBRANCH 4 8
BRANCH 1 28
ATOM     28  CA  PRO R   4       9.580  -2.635  -9.354  1.00 54.23 LIG 0.18  C 
ATOM     29  N   PRO R   4      10.687  -3.525  -9.717  1.00 66.40 LIG-0.34  N 
ATOM     30  CD  PRO R   4      10.918  -3.512 -11.169  1.00 55.20 LIG 0.13  C 
ATOM     31  C   MET R   3      11.509  -4.203  -8.897  1.00 65.13 LIG 0.26  C 
ATOM     32  CG  PRO R   4      10.558  -2.108 -11.531  1.00 51.34 LIG 0.02  C 
ATOM     33  CB  PRO R   4       9.454  -1.713 -10.582  1.00 43.90 LIG 0.04  C 
ATOM     34 O    MET R   3      12.371  -4.978  -9.316  1.00 74.37 LIG-0.27  OA
BRANCH 31 35
ATOM     35  CA  MET R   3      11.351  -3.978  -7.394  1.00 67.30 LIG 0.40  C 
ATOM     36  N   MET R   3      11.271  -5.225  -6.638  1.00 55.69 LIG 0.61  N 
BRANCH 35 37
ATOM     37  CB  MET R   3      12.523  -3.119  -6.903  1.00 55.44 LIG 0.06  C 
BRANCH 37 38
ATOM     38  CG  MET R   3      12.993  -2.054  -7.869  1.00 49.90 LIG 0.08  C 
BRANCH 38 39
ATOM     39 SD   MET R   3      11.737  -0.771  -8.028  1.00 67.63 LIG-0.17  SA
ATOM     40  CE  MET R   3      12.660   0.506  -8.880  1.00 69.90 LIG 0.09  C 
ENDBRANCH 38 39
ENDBRANCH 37 38
ENDBRANCH 35 37
ENDBRANCH 31 35
ENDBRANCH 1 28
TORSDOF 14
ENDMDL
MODEL 87
USER: ADFR SOLUTION from run 191
USER: SCORE 11.547735 LL:  -3.076 LR:  -9.046 RR:   0.000 FEB:  -4.869
USER: RMSD 7.504644
USER: SEED 190
USER: STATUS no improvement in best in 23 clusters for 5 generations
USER: GENES 16
USER: genes 0 Translation |==|  0.28623 0.27380 0.67202
USER: genes 1 Rotation |==|  0.72003 0.28537 0.76607 0.79108
USER: genes 2 Torsion [N]-CA--C-[N] |==|  0.24936
USER: genes 3 Torsion [C]-N--CA-[CB] |==|  0.49531
USER: genes 4 Torsion [N]-CA--CB-[CG2] |==|  0.80428
USER: genes 5 Torsion [CA]-CB--OG1-[HG1] |==|  0.28910
USER: genes 6 Torsion [N]-CA--C-[N] |==|  0.46398
USER: genes 7 Torsion [C]-N--CA-[CB] |==|  0.87696
USER: genes 8 Torsion [N]-CA--CB-[CG] |==|  0.83062
USER: genes 9 Torsion [CA]-CB--CG-[CD1] |==|  0.97272
USER: genes 10 Torsion [N]-CA--C-[O] |==|  0.79511
USER: genes 11 Torsion [O]-C--CA-[N] |==|  0.00853
USER: genes 12 Torsion [N]-C--CA-[N] |==|  0.40632
USER: genes 13 Torsion [C]-CA--CB-[CG] |==|  0.34268
USER: genes 14 Torsion [CA]-CB--CG-[SD] |==|  0.68736
USER: genes 15 Torsion [CB]-CG--SD-[CE] |==|  0.33775
ROOT
ATOM      1  C   PRO R   4       1.918  -4.420 -11.670  1.00 60.54 LIG 0.24  C 
ATOM      2 O    PRO R   4       2.648  -3.455 -11.431  1.00 63.53 LIG-0.27  OA
ATOM      3  N   PRO R   5       1.708  -5.419 -10.794  1.00 48.92 LIG-0.34  N 
ATOM      4  CA  PRO R   5       2.384  -5.434  -9.490  1.00 52.68 LIG 0.18  C 
ATOM      5  CB  PRO R   5       1.867  -6.725  -8.844  1.00 55.54 LIG 0.04  C 
ATOM      6  CG  PRO R   5       0.554  -6.976  -9.485  1.00 46.13 LIG 0.02  C 
ATOM      7  CD  PRO R   5       0.691  -6.481 -10.900  1.00 43.47 LIG 0.13  C 
ENDROOT
BRANCH 4 8
ATOM      8  C   PRO R   5       3.911  -5.486  -9.591  1.00 58.07 LIG 0.24  C 
ATOM      9 O    PRO R   5       4.502  -6.569  -9.617  1.00 51.36 LIG-0.27  OA
ATOM     10  N   THR R   6       4.535  -4.312  -9.642  1.00 69.24 LIG-0.34  N 
ATOM     11 H    THR R   6       4.126  -3.556  -9.671  1.00 69.24 LIG 0.16  HD
BRANCH 10 12
ATOM     12  CA  THR R   6       5.990  -4.204  -9.651  1.00 55.31 LIG 0.20  C 
BRANCH 12 13
ATOM     13  CB  THR R   6       6.451  -2.733  -9.755  1.00 60.29 LIG 0.15  C 
ATOM     14  CG2 THR R   6       6.158  -2.169 -11.137  1.00 62.01 LIG 0.04  C 
BRANCH 13 15
ATOM     15 OG1  THR R   6       5.767  -1.943  -8.774  1.00 91.48 LIG-0.39  OA
ATOM     16 HG1  THR R   6       6.289  -1.772  -8.138  1.00 91.48 LIG 0.21  HD
ENDBRANCH 13 15
ENDBRANCH 12 13
BRANCH 12 17
ATOM     17  C   THR R   6       6.559  -4.820  -8.381  1.00 56.48 LIG 0.24  C 
ATOM     18  N   LEU R   7       7.872  -5.035  -8.370  1.00 43.78 LIG-0.35  N 
ATOM     19 H    LEU R   7       8.398  -4.834  -9.020  1.00 43.78 LIG 0.16  HD
ATOM     20 O    THR R   6       5.821  -5.098  -7.434  1.00 41.48 LIG-0.27  OA
BRANCH 18 21
ATOM     21  CA  LEU R   7       8.536  -5.643  -7.224  1.00 53.52 LIG 0.16  C 
BRANCH 21 22
ATOM     22  CB  LEU R   7       8.022  -5.026  -5.921  1.00 41.32 LIG 0.04  C 
BRANCH 22 23
ATOM     23  CG  LEU R   7       8.264  -3.520  -5.778  1.00 48.65 LIG-0.02  C 
ATOM     24  CD1 LEU R   7       9.186  -2.997  -6.873  1.00 40.28 LIG 0.01  C 
ATOM     25  CD2 LEU R   7       6.945  -2.757  -5.776  1.00 37.72 LIG 0.01  C 
ENDBRANCH 22 23
ENDBRANCH 21 22
BRANCH 21 26
ATOM     26  C   LEU R   7       8.351  -7.159  -7.209  1.00 46.73 LIG 0.22  C 
ATOM     27 O    LEU R   7       7.267  -7.658  -6.903  1.00 57.50 LIG-0.29  OA
ENDBRANCH 21 26
ENDBRANCH 18 21
ENDBRANCH 12 17
ENDBRANCH 10 12
ENDBRANCH 4 8
BRANCH 1 28
ATOM     28  CA  PRO R   4       1.206  -4.492 -13.020  1.00 54.23 LIG 0.18  C 
ATOM     29  N   PRO R   4       1.609  -3.357 -13.855  1.00 66.40 LIG-0.34  N 
ATOM     30  CD  PRO R   4       2.660  -3.750 -14.806  1.00 55.20 LIG 0.13  C 
ATOM     31  C   MET R   3       1.068  -2.127 -13.899  1.00 65.13 LIG 0.26  C 
ATOM     32  CG  PRO R   4       2.306  -5.172 -15.095  1.00 51.34 LIG 0.02  C 
ATOM     33  CB  PRO R   4       1.709  -5.711 -13.817  1.00 43.90 LIG 0.04  C 
ATOM     34 O    MET R   3       1.533  -1.223 -14.598  1.00 74.37 LIG-0.27  OA
BRANCH 31 35
ATOM     35  CA  MET R   3      -0.173  -1.870 -13.047  1.00 67.30 LIG 0.40  C 
ATOM     36  N   MET R   3      -0.234  -0.506 -12.528  1.00 55.69 LIG 0.61  N 
BRANCH 35 37
ATOM     37  CB  MET R   3      -1.416  -2.187 -13.887  1.00 55.44 LIG 0.06  C 
BRANCH 37 38
ATOM     38  CG  MET R   3      -2.352  -3.217 -13.292  1.00 49.90 LIG 0.08  C 
BRANCH 38 39
ATOM     39 SD   MET R   3      -2.339  -4.712 -14.299  1.00 67.63 LIG-0.17  SA
ATOM     40  CE  MET R   3      -1.820  -5.931 -13.092  1.00 69.90 LIG 0.09  C 
ENDBRANCH 38 39
ENDBRANCH 37 38
ENDBRANCH 35 37
ENDBRANCH 31 35
ENDBRANCH 1 28
TORSDOF 14
ENDMDL
MODEL 88
USER: ADFR SOLUTION from run 120
USER: SCORE 10.919566 LL:  -2.733 LR:  -9.026 RR:   0.000 FEB:  -4.850
USER: RMSD 9.781879
USER: SEED 119
USER: STATUS no improvement in best in 11 clusters for 5 generations
USER: GENES 16
USER: genes 0 Translation |==|  0.47842 0.33383 0.67712
USER: genes 1 Rotation |==|  0.65512 0.37809 0.10157 0.72875
USER: genes 2 Torsion [N]-CA--C-[N] |==|  0.59039
USER: genes 3 Torsion [C]-N--CA-[CB] |==|  0.48890
USER: genes 4 Torsion [N]-CA--CB-[CG2] |==|  0.91365
USER: genes 5 Torsion [CA]-CB--OG1-[HG1] |==|  0.67507
USER: genes 6 Torsion [N]-CA--C-[N] |==|  0.36586
USER: genes 7 Torsion [C]-N--CA-[CB] |==|  0.32251
USER: genes 8 Torsion [N]-CA--CB-[CG] |==|  0.56287
USER: genes 9 Torsion [CA]-CB--CG-[CD1] |==|  0.38553
USER: genes 10 Torsion [N]-CA--C-[O] |==|  0.44339
USER: genes 11 Torsion [O]-C--CA-[N] |==|  0.88683
USER: genes 12 Torsion [N]-C--CA-[N] |==|  0.40326
USER: genes 13 Torsion [C]-CA--CB-[CG] |==|  0.28978
USER: genes 14 Torsion [CA]-CB--CG-[SD] |==|  0.16743
USER: genes 15 Torsion [CB]-CG--SD-[CE] |==|  0.29682
ROOT
ATOM      1  C   PRO R   4       5.378  -3.204 -11.566  1.00 60.54 LIG 0.24  C 
ATOM      2 O    PRO R   4       5.436  -3.439 -12.775  1.00 63.53 LIG-0.27  OA
ATOM      3  N   PRO R   5       4.417  -3.699 -10.766  1.00 48.92 LIG-0.34  N 
ATOM      4  CA  PRO R   5       3.338  -4.534 -11.310  1.00 52.68 LIG 0.18  C 
ATOM      5  CB  PRO R   5       2.491  -4.859 -10.074  1.00 55.54 LIG 0.04  C 
ATOM      6  CG  PRO R   5       3.426  -4.754  -8.929  1.00 46.13 LIG 0.02  C 
ATOM      7  CD  PRO R   5       4.393  -3.660  -9.292  1.00 43.47 LIG 0.13  C 
ENDROOT
BRANCH 4 8
ATOM      8  C   PRO R   5       2.474  -3.819 -12.352  1.00 58.07 LIG 0.24  C 
ATOM      9 O    PRO R   5       2.965  -2.964 -13.094  1.00 51.36 LIG-0.27  OA
ATOM     10  N   THR R   6       1.192  -4.172 -12.393  1.00 69.24 LIG-0.34  N 
ATOM     11 H    THR R   6       0.855  -4.799 -11.910  1.00 69.24 LIG 0.16  HD
BRANCH 10 12
ATOM     12  CA  THR R   6       0.232  -3.515 -13.273  1.00 55.31 LIG 0.20  C 
BRANCH 12 13
ATOM     13  CB  THR R   6      -1.160  -4.181 -13.195  1.00 60.29 LIG 0.15  C 
ATOM     14  CG2 THR R   6      -1.034  -5.667 -12.898  1.00 62.01 LIG 0.04  C 
BRANCH 13 15
ATOM     15 OG1  THR R   6      -1.934  -3.561 -12.159  1.00 91.48 LIG-0.39  OA
ATOM     16 HG1  THR R   6      -2.109  -4.128 -11.565  1.00 91.48 LIG 0.21  HD
ENDBRANCH 13 15
ENDBRANCH 12 13
BRANCH 12 17
ATOM     17  C   THR R   6       0.108  -2.047 -12.893  1.00 56.48 LIG 0.24  C 
ATOM     18  N   LEU R   7       0.185  -1.172 -13.893  1.00 43.78 LIG-0.35  N 
ATOM     19 H    LEU R   7       0.283  -1.393 -14.718  1.00 43.78 LIG 0.16  HD
ATOM     20 O    THR R   6      -0.050  -1.714 -11.716  1.00 41.48 LIG-0.27  OA
BRANCH 18 21
ATOM     21  CA  LEU R   7       0.107   0.264 -13.659  1.00 53.52 LIG 0.16  C 
BRANCH 21 22
ATOM     22  CB  LEU R   7       1.422   0.941 -14.052  1.00 41.32 LIG 0.04  C 
BRANCH 22 23
ATOM     23  CG  LEU R   7       1.680   2.293 -13.380  1.00 48.65 LIG-0.02  C 
ATOM     24  CD1 LEU R   7       3.136   2.433 -12.952  1.00 40.28 LIG 0.01  C 
ATOM     25  CD2 LEU R   7       1.278   3.441 -14.299  1.00 37.72 LIG 0.01  C 
ENDBRANCH 22 23
ENDBRANCH 21 22
BRANCH 21 26
ATOM     26  C   LEU R   7      -1.065   0.891 -14.411  1.00 46.73 LIG 0.22  C 
ATOM     27 O    LEU R   7      -1.524   1.981 -14.066  1.00 57.50 LIG-0.29  OA
ENDBRANCH 21 26
ENDBRANCH 18 21
ENDBRANCH 12 17
ENDBRANCH 10 12
ENDBRANCH 4 8
BRANCH 1 28
ATOM     28  CA  PRO R   4       6.446  -2.314 -10.932  1.00 54.23 LIG 0.18  C 
ATOM     29  N   PRO R   4       7.760  -2.642 -11.492  1.00 66.40 LIG-0.34  N 
ATOM     30  CD  PRO R   4       8.131  -1.695 -12.555  1.00 55.20 LIG 0.13  C 
ATOM     31  C   MET R   3       8.628  -3.580 -11.075  1.00 65.13 LIG 0.26  C 
ATOM     32  CG  PRO R   4       7.494  -0.429 -12.084  1.00 51.34 LIG 0.02  C 
ATOM     33  CB  PRO R   4       6.236  -0.849 -11.363  1.00 43.90 LIG 0.04  C 
ATOM     34 O    MET R   3       9.685  -3.814 -11.666  1.00 74.37 LIG-0.27  OA
BRANCH 31 35
ATOM     35  CA  MET R   3       8.268  -4.365  -9.816  1.00 67.30 LIG 0.40  C 
ATOM     36  N   MET R   3       8.714  -5.756  -9.866  1.00 55.69 LIG 0.61  N 
BRANCH 35 37
ATOM     37  CB  MET R   3       8.871  -3.646  -8.603  1.00 55.44 LIG 0.06  C 
BRANCH 37 38
ATOM     38  CG  MET R   3       7.886  -2.866  -7.759  1.00 49.90 LIG 0.08  C 
BRANCH 38 39
ATOM     39 SD   MET R   3       6.625  -3.975  -7.104  1.00 67.63 LIG-0.17  SA
ATOM     40  CE  MET R   3       7.112  -4.066  -5.383  1.00 69.90 LIG 0.09  C 
ENDBRANCH 38 39
ENDBRANCH 37 38
ENDBRANCH 35 37
ENDBRANCH 31 35
ENDBRANCH 1 28
TORSDOF 14
ENDMDL
MODEL 89
USER: ADFR SOLUTION from run 133
USER: SCORE 11.972451 LL:  -3.750 LR:  -9.008 RR:   0.000 FEB:  -4.831
USER: RMSD 8.994515
USER: SEED 132
USER: STATUS no improvement in best in 20 clusters for 5 generations
USER: GENES 16
USER: genes 0 Translation |==|  0.38373 0.24611 0.68540
USER: genes 1 Rotation |==|  0.18555 0.69438 0.80864 0.63446
USER: genes 2 Torsion [N]-CA--C-[N] |==|  0.99282
USER: genes 3 Torsion [C]-N--CA-[CB] |==|  0.20000
USER: genes 4 Torsion [N]-CA--CB-[CG2] |==|  0.68941
USER: genes 5 Torsion [CA]-CB--OG1-[HG1] |==|  0.54029
USER: genes 6 Torsion [N]-CA--C-[N] |==|  0.19932
USER: genes 7 Torsion [C]-N--CA-[CB] |==|  0.13433
USER: genes 8 Torsion [N]-CA--CB-[CG] |==|  0.53665
USER: genes 9 Torsion [CA]-CB--CG-[CD1] |==|  0.72124
USER: genes 10 Torsion [N]-CA--C-[O] |==|  0.99156
USER: genes 11 Torsion [O]-C--CA-[N] |==|  0.99274
USER: genes 12 Torsion [N]-C--CA-[N] |==|  0.31400
USER: genes 13 Torsion [C]-CA--CB-[CG] |==|  0.34324
USER: genes 14 Torsion [CA]-CB--CG-[SD] |==|  0.87355
USER: genes 15 Torsion [CB]-CG--SD-[CE] |==|  0.26968
ROOT
ATOM      1  C   PRO R   4       3.673  -4.980 -11.399  1.00 60.54 LIG 0.24  C 
ATOM      2 O    PRO R   4       4.700  -5.426 -11.914  1.00 63.53 LIG-0.27  OA
ATOM      3  N   PRO R   5       2.786  -4.218 -12.063  1.00 48.92 LIG-0.34  N 
ATOM      4  CA  PRO R   5       3.021  -3.833 -13.462  1.00 52.68 LIG 0.18  C 
ATOM      5  CB  PRO R   5       1.790  -2.984 -13.801  1.00 55.54 LIG 0.04  C 
ATOM      6  CG  PRO R   5       0.731  -3.456 -12.878  1.00 46.13 LIG 0.02  C 
ATOM      7  CD  PRO R   5       1.439  -3.834 -11.605  1.00 43.47 LIG 0.13  C 
ENDROOT
BRANCH 4 8
ATOM      8  C   PRO R   5       4.291  -3.004 -13.665  1.00 58.07 LIG 0.24  C 
ATOM      9 O    PRO R   5       4.639  -2.658 -14.798  1.00 51.36 LIG-0.27  OA
ATOM     10  N   THR R   6       4.975  -2.699 -12.566  1.00 69.24 LIG-0.34  N 
ATOM     11 H    THR R   6       4.713  -2.898 -11.771  1.00 69.24 LIG 0.16  HD
BRANCH 10 12
ATOM     12  CA  THR R   6       6.249  -1.990 -12.613  1.00 55.31 LIG 0.20  C 
BRANCH 12 13
ATOM     13  CB  THR R   6       6.061  -0.505 -12.995  1.00 60.29 LIG 0.15  C 
ATOM     14  CG2 THR R   6       6.642  -0.221 -14.372  1.00 62.01 LIG 0.04  C 
BRANCH 13 15
ATOM     15 OG1  THR R   6       4.664  -0.183 -13.003  1.00 91.48 LIG-0.39  OA
ATOM     16 HG1  THR R   6       4.547   0.550 -13.395  1.00 91.48 LIG 0.21  HD
ENDBRANCH 13 15
ENDBRANCH 12 13
BRANCH 12 17
ATOM     17  C   THR R   6       6.936  -2.077 -11.259  1.00 56.48 LIG 0.24  C 
ATOM     18  N   LEU R   7       7.435  -3.266 -10.927  1.00 43.78 LIG-0.35  N 
ATOM     19 H    LEU R   7       7.400  -3.959 -11.435  1.00 43.78 LIG 0.16  HD
ATOM     20 O    THR R   6       7.009  -1.087 -10.527  1.00 41.48 LIG-0.27  OA
BRANCH 18 21
ATOM     21  CA  LEU R   7       8.094  -3.487  -9.647  1.00 53.52 LIG 0.16  C 
BRANCH 21 22
ATOM     22  CB  LEU R   7       7.242  -2.930  -8.505  1.00 41.32 LIG 0.04  C 
BRANCH 22 23
ATOM     23  CG  LEU R   7       7.960  -2.817  -7.157  1.00 48.65 LIG-0.02  C 
ATOM     24  CD1 LEU R   7       7.600  -3.975  -6.235  1.00 40.28 LIG 0.01  C 
ATOM     25  CD2 LEU R   7       9.469  -2.733  -7.351  1.00 37.72 LIG 0.01  C 
ENDBRANCH 22 23
ENDBRANCH 21 22
BRANCH 21 26
ATOM     26  C   LEU R   7       8.394  -4.968  -9.421  1.00 46.73 LIG 0.22  C 
ATOM     27 O    LEU R   7       8.034  -5.815 -10.240  1.00 57.50 LIG-0.29  OA
ENDBRANCH 21 26
ENDBRANCH 18 21
ENDBRANCH 12 17
ENDBRANCH 10 12
ENDBRANCH 4 8
BRANCH 1 28
ATOM     28  CA  PRO R   4       3.377  -5.309  -9.936  1.00 54.23 LIG 0.18  C 
ATOM     29  N   PRO R   4       4.414  -6.199  -9.408  1.00 66.40 LIG-0.34  N 
ATOM     30  CD  PRO R   4       5.421  -5.444  -8.648  1.00 55.20 LIG 0.13  C 
ATOM     31  C   MET R   3       4.457  -7.543  -9.457  1.00 65.13 LIG 0.26  C 
ATOM     32  CG  PRO R   4       4.605  -4.341  -8.056  1.00 51.34 LIG 0.02  C 
ATOM     33  CB  PRO R   4       3.527  -4.043  -9.070  1.00 43.90 LIG 0.04  C 
ATOM     34 O    MET R   3       5.417  -8.191  -9.034  1.00 74.37 LIG-0.27  OA
BRANCH 31 35
ATOM     35  CA  MET R   3       3.253  -8.266 -10.058  1.00 67.30 LIG 0.40  C 
ATOM     36  N   MET R   3       3.566  -8.941 -11.315  1.00 55.69 LIG 0.61  N 
BRANCH 35 37
ATOM     37  CB  MET R   3       2.718  -9.264  -9.025  1.00 55.44 LIG 0.06  C 
BRANCH 37 38
ATOM     38  CG  MET R   3       1.260  -9.094  -8.657  1.00 49.90 LIG 0.08  C 
BRANCH 38 39
ATOM     39 SD   MET R   3       0.900  -7.352  -8.364  1.00 67.63 LIG-0.17  SA
ATOM     40  CE  MET R   3       0.223  -6.873  -9.952  1.00 69.90 LIG 0.09  C 
ENDBRANCH 38 39
ENDBRANCH 37 38
ENDBRANCH 35 37
ENDBRANCH 31 35
ENDBRANCH 1 28
TORSDOF 14
ENDMDL
MODEL 90
USER: ADFR SOLUTION from run 32
USER: SCORE 10.778878 LL:  -2.576 LR:  -9.003 RR:   0.000 FEB:  -4.827
USER: RMSD 9.097601
USER: SEED 31
USER: STATUS no improvement in best in 23 clusters for 5 generations
USER: GENES 16
USER: genes 0 Translation |==|  0.49067 0.36971 0.69604
USER: genes 1 Rotation |==|  0.02820 0.38050 0.58221 0.57980
USER: genes 2 Torsion [N]-CA--C-[N] |==|  0.74970
USER: genes 3 Torsion [C]-N--CA-[CB] |==|  0.20409
USER: genes 4 Torsion [N]-CA--CB-[CG2] |==|  0.75693
USER: genes 5 Torsion [CA]-CB--OG1-[HG1] |==|  0.80490
USER: genes 6 Torsion [N]-CA--C-[N] |==|  0.19126
USER: genes 7 Torsion [C]-N--CA-[CB] |==|  0.52379
USER: genes 8 Torsion [N]-CA--CB-[CG] |==|  0.80188
USER: genes 9 Torsion [CA]-CB--CG-[CD1] |==|  0.00932
USER: genes 10 Torsion [N]-CA--C-[O] |==|  0.63388
USER: genes 11 Torsion [O]-C--CA-[N] |==|  0.03702
USER: genes 12 Torsion [N]-C--CA-[N] |==|  0.88106
USER: genes 13 Torsion [C]-CA--CB-[CG] |==|  0.14672
USER: genes 14 Torsion [CA]-CB--CG-[SD] |==|  0.15138
USER: genes 15 Torsion [CB]-CG--SD-[CE] |==|  0.65228
ROOT
ATOM      1  C   PRO R   4       5.598  -2.477 -11.183  1.00 60.54 LIG 0.24  C 
ATOM      2 O    PRO R   4       6.104  -1.860 -10.244  1.00 63.53 LIG-0.27  OA
ATOM      3  N   PRO R   5       5.715  -2.092 -12.466  1.00 48.92 LIG-0.34  N 
ATOM      4  CA  PRO R   5       6.438  -0.863 -12.821  1.00 52.68 LIG 0.18  C 
ATOM      5  CB  PRO R   5       6.316  -0.815 -14.349  1.00 55.54 LIG 0.04  C 
ATOM      6  CG  PRO R   5       6.132  -2.227 -14.764  1.00 46.13 LIG 0.02  C 
ATOM      7  CD  PRO R   5       5.343  -2.876 -13.658  1.00 43.47 LIG 0.13  C 
ENDROOT
BRANCH 4 8
ATOM      8  C   PRO R   5       5.828   0.405 -12.217  1.00 58.07 LIG 0.24  C 
ATOM      9 O    PRO R   5       6.187   0.806 -11.107  1.00 51.36 LIG-0.27  OA
ATOM     10  N   THR R   6       4.904   1.019 -12.952  1.00 69.24 LIG-0.34  N 
ATOM     11 H    THR R   6       4.684   0.770 -13.745  1.00 69.24 LIG 0.16  HD
BRANCH 10 12
ATOM     12  CA  THR R   6       4.174   2.185 -12.468  1.00 55.31 LIG 0.20  C 
BRANCH 12 13
ATOM     13  CB  THR R   6       5.064   3.449 -12.455  1.00 60.29 LIG 0.15  C 
ATOM     14  CG2 THR R   6       5.827   3.560 -11.144  1.00 62.01 LIG 0.04  C 
BRANCH 13 15
ATOM     15 OG1  THR R   6       6.002   3.389 -13.537  1.00 91.48 LIG-0.39  OA
ATOM     16 HG1  THR R   6       6.572   2.792 -13.381  1.00 91.48 LIG 0.21  HD
ENDBRANCH 13 15
ENDBRANCH 12 13
BRANCH 12 17
ATOM     17  C   THR R   6       2.961   2.435 -13.352  1.00 56.48 LIG 0.24  C 
ATOM     18  N   LEU R   7       1.984   1.534 -13.278  1.00 43.78 LIG-0.35  N 
ATOM     19 H    LEU R   7       2.001   0.849 -12.758  1.00 43.78 LIG 0.16  HD
ATOM     20 O    THR R   6       2.914   3.422 -14.089  1.00 41.48 LIG-0.27  OA
BRANCH 18 21
ATOM     21  CA  LEU R   7       0.780   1.645 -14.091  1.00 53.52 LIG 0.16  C 
BRANCH 21 22
ATOM     22  CB  LEU R   7      -0.255   0.606 -13.654  1.00 41.32 LIG 0.04  C 
BRANCH 22 23
ATOM     23  CG  LEU R   7       0.088  -0.842 -14.016  1.00 48.65 LIG-0.02  C 
ATOM     24  CD1 LEU R   7       1.457  -0.943 -14.677  1.00 40.28 LIG 0.01  C 
ATOM     25  CD2 LEU R   7       0.018  -1.740 -12.786  1.00 37.72 LIG 0.01  C 
ENDBRANCH 22 23
ENDBRANCH 21 22
BRANCH 21 26
ATOM     26  C   LEU R   7       0.189   3.051 -14.028  1.00 46.73 LIG 0.22  C 
ATOM     27 O    LEU R   7      -1.013   3.220 -13.816  1.00 57.50 LIG-0.29  OA
ENDBRANCH 21 26
ENDBRANCH 18 21
ENDBRANCH 12 17
ENDBRANCH 10 12
ENDBRANCH 4 8
BRANCH 1 28
ATOM     28  CA  PRO R   4       4.801  -3.748 -10.890  1.00 54.23 LIG 0.18  C 
ATOM     29  N   PRO R   4       4.520  -3.837  -9.455  1.00 66.40 LIG-0.34  N 
ATOM     30  CD  PRO R   4       3.163  -3.361  -9.153  1.00 55.20 LIG 0.13  C 
ATOM     31  C   MET R   3       5.288  -4.377  -8.492  1.00 65.13 LIG 0.26  C 
ATOM     32  CG  PRO R   4       2.410  -3.759 -10.381  1.00 51.34 LIG 0.02  C 
ATOM     33  CB  PRO R   4       3.397  -3.647 -11.517  1.00 43.90 LIG 0.04  C 
ATOM     34 O    MET R   3       4.979  -4.339  -7.298  1.00 74.37 LIG-0.27  OA
BRANCH 31 35
ATOM     35  CA  MET R   3       6.583  -5.064  -8.922  1.00 67.30 LIG 0.40  C 
ATOM     36  N   MET R   3       6.416  -5.896 -10.111  1.00 55.69 LIG 0.61  N 
BRANCH 35 37
ATOM     37  CB  MET R   3       7.651  -3.990  -9.157  1.00 55.44 LIG 0.06  C 
BRANCH 37 38
ATOM     38  CG  MET R   3       7.862  -3.026  -8.010  1.00 49.90 LIG 0.08  C 
BRANCH 38 39
ATOM     39 SD   MET R   3       8.214  -3.941  -6.497  1.00 67.63 LIG-0.17  SA
ATOM     40  CE  MET R   3       6.953  -3.288  -5.404  1.00 69.90 LIG 0.09  C 
ENDBRANCH 38 39
ENDBRANCH 37 38
ENDBRANCH 35 37
ENDBRANCH 31 35
ENDBRANCH 1 28
TORSDOF 14
ENDMDL
MODEL 91
USER: ADFR SOLUTION from run 162
USER: SCORE 12.184572 LL:  -3.278 LR:  -8.996 RR:   0.000 FEB:  -4.820
USER: RMSD 9.596814
USER: SEED 161
USER: STATUS no improvement in best in 20 clusters for 5 generations
USER: GENES 16
USER: genes 0 Translation |==|  0.44561 0.25617 0.72597
USER: genes 1 Rotation |==|  0.15970 0.63894 0.82302 0.60271
USER: genes 2 Torsion [N]-CA--C-[N] |==|  0.98340
USER: genes 3 Torsion [C]-N--CA-[CB] |==|  0.85401
USER: genes 4 Torsion [N]-CA--CB-[CG2] |==|  0.58948
USER: genes 5 Torsion [CA]-CB--OG1-[HG1] |==|  0.96119
USER: genes 6 Torsion [N]-CA--C-[N] |==|  0.39873
USER: genes 7 Torsion [C]-N--CA-[CB] |==|  0.15474
USER: genes 8 Torsion [N]-CA--CB-[CG] |==|  0.66143
USER: genes 9 Torsion [CA]-CB--CG-[CD1] |==|  0.00304
USER: genes 10 Torsion [N]-CA--C-[O] |==|  0.08175
USER: genes 11 Torsion [O]-C--CA-[N] |==|  0.89793
USER: genes 12 Torsion [N]-C--CA-[N] |==|  0.29406
USER: genes 13 Torsion [C]-CA--CB-[CG] |==|  0.42148
USER: genes 14 Torsion [CA]-CB--CG-[SD] |==|  0.87875
USER: genes 15 Torsion [CB]-CG--SD-[CE] |==|  0.26952
ROOT
ATOM      1  C   PRO R   4       4.787  -4.777 -10.577  1.00 60.54 LIG 0.24  C 
ATOM      2 O    PRO R   4       5.912  -4.899 -11.066  1.00 63.53 LIG-0.27  OA
ATOM      3  N   PRO R   5       3.747  -4.245 -11.245  1.00 48.92 LIG-0.34  N 
ATOM      4  CA  PRO R   5       3.911  -3.734 -12.612  1.00 52.68 LIG 0.18  C 
ATOM      5  CB  PRO R   5       2.507  -3.230 -12.967  1.00 55.54 LIG 0.04  C 
ATOM      6  CG  PRO R   5       1.588  -4.022 -12.115  1.00 46.13 LIG 0.02  C 
ATOM      7  CD  PRO R   5       2.333  -4.266 -10.830  1.00 43.47 LIG 0.13  C 
ENDROOT
BRANCH 4 8
ATOM      8  C   PRO R   5       4.914  -2.582 -12.721  1.00 58.07 LIG 0.24  C 
ATOM      9 O    PRO R   5       5.236  -2.134 -13.824  1.00 51.36 LIG-0.27  OA
ATOM     10  N   THR R   6       5.402  -2.120 -11.573  1.00 69.24 LIG-0.34  N 
ATOM     11 H    THR R   6       5.146  -2.398 -10.801  1.00 69.24 LIG 0.16  HD
BRANCH 10 12
ATOM     12  CA  THR R   6       6.430  -1.086 -11.526  1.00 55.31 LIG 0.20  C 
BRANCH 12 13
ATOM     13  CB  THR R   6       7.649  -1.454 -12.400  1.00 60.29 LIG 0.15  C 
ATOM     14  CG2 THR R   6       8.933  -0.899 -11.802  1.00 62.01 LIG 0.04  C 
BRANCH 13 15
ATOM     15 OG1  THR R   6       7.758  -2.880 -12.498  1.00 91.48 LIG-0.39  OA
ATOM     16 HG1  THR R   6       7.268  -3.239 -11.919  1.00 91.48 LIG 0.21  HD
ENDBRANCH 13 15
ENDBRANCH 12 13
BRANCH 12 17
ATOM     17  C   THR R   6       5.850   0.237 -12.004  1.00 56.48 LIG 0.24  C 
ATOM     18  N   LEU R   7       6.287   1.330 -11.382  1.00 43.78 LIG-0.35  N 
ATOM     19 H    LEU R   7       6.874   1.322 -10.753  1.00 43.78 LIG 0.16  HD
ATOM     20 O    THR R   6       5.020   0.265 -12.916  1.00 41.48 LIG-0.27  OA
BRANCH 18 21
ATOM     21  CA  LEU R   7       5.791   2.655 -11.728  1.00 53.52 LIG 0.16  C 
BRANCH 21 22
ATOM     22  CB  LEU R   7       4.266   2.701 -11.613  1.00 41.32 LIG 0.04  C 
BRANCH 22 23
ATOM     23  CG  LEU R   7       3.531   3.093 -12.898  1.00 48.65 LIG-0.02  C 
ATOM     24  CD1 LEU R   7       4.503   3.333 -14.046  1.00 40.28 LIG 0.01  C 
ATOM     25  CD2 LEU R   7       2.501   2.036 -13.279  1.00 37.72 LIG 0.01  C 
ENDBRANCH 22 23
ENDBRANCH 21 22
BRANCH 21 26
ATOM     26  C   LEU R   7       6.428   3.736 -10.858  1.00 46.73 LIG 0.22  C 
ATOM     27 O    LEU R   7       7.564   3.589 -10.403  1.00 57.50 LIG-0.29  OA
ENDBRANCH 21 26
ENDBRANCH 18 21
ENDBRANCH 12 17
ENDBRANCH 10 12
ENDBRANCH 4 8
BRANCH 1 28
ATOM     28  CA  PRO R   4       4.547  -5.254  -9.146  1.00 54.23 LIG 0.18  C 
ATOM     29  N   PRO R   4       5.321  -6.473  -8.893  1.00 66.40 LIG-0.34  N 
ATOM     30  CD  PRO R   4       6.572  -6.165  -8.186  1.00 55.20 LIG 0.13  C 
ATOM     31  C   MET R   3       4.962  -7.747  -9.129  1.00 65.13 LIG 0.26  C 
ATOM     32  CG  PRO R   4       6.177  -4.997  -7.341  1.00 51.34 LIG 0.02  C 
ATOM     33  CB  PRO R   4       5.144  -4.245  -8.145  1.00 43.90 LIG 0.04  C 
ATOM     34 O    MET R   3       5.724  -8.697  -8.936  1.00 74.37 LIG-0.27  OA
BRANCH 31 35
ATOM     35  CA  MET R   3       3.548  -7.997  -9.649  1.00 67.30 LIG 0.40  C 
ATOM     36  N   MET R   3       3.517  -8.347 -11.067  1.00 55.69 LIG 0.61  N 
BRANCH 35 37
ATOM     37  CB  MET R   3       2.905  -9.103  -8.804  1.00 55.44 LIG 0.06  C 
BRANCH 37 38
ATOM     38  CG  MET R   3       1.397  -9.039  -8.694  1.00 49.90 LIG 0.08  C 
BRANCH 38 39
ATOM     39 SD   MET R   3       0.874  -7.339  -8.403  1.00 67.63 LIG-0.17  SA
ATOM     40  CE  MET R   3       0.456  -6.822 -10.067  1.00 69.90 LIG 0.09  C 
ENDBRANCH 38 39
ENDBRANCH 37 38
ENDBRANCH 35 37
ENDBRANCH 31 35
ENDBRANCH 1 28
TORSDOF 14
ENDMDL
MODEL 92
USER: ADFR SOLUTION from run 33
USER: SCORE 11.649104 LL:  -2.881 LR:  -8.993 RR:   0.000 FEB:  -4.817
USER: RMSD 10.925773
USER: SEED 32
USER: STATUS no improvement in best in 26 clusters for 5 generations
USER: GENES 16
USER: genes 0 Translation |==|  0.58966 0.22115 0.86406
USER: genes 1 Rotation |==|  0.74065 0.63765 0.17644 0.76163
USER: genes 2 Torsion [N]-CA--C-[N] |==|  0.55373
USER: genes 3 Torsion [C]-N--CA-[CB] |==|  0.76667
USER: genes 4 Torsion [N]-CA--CB-[CG2] |==|  0.45422
USER: genes 5 Torsion [CA]-CB--OG1-[HG1] |==|  0.84702
USER: genes 6 Torsion [N]-CA--C-[N] |==|  0.23970
USER: genes 7 Torsion [C]-N--CA-[CB] |==|  0.84940
USER: genes 8 Torsion [N]-CA--CB-[CG] |==|  0.78939
USER: genes 9 Torsion [CA]-CB--CG-[CD1] |==|  0.22598
USER: genes 10 Torsion [N]-CA--C-[O] |==|  0.06972
USER: genes 11 Torsion [O]-C--CA-[N] |==|  0.91415
USER: genes 12 Torsion [N]-C--CA-[N] |==|  0.87716
USER: genes 13 Torsion [C]-CA--CB-[CG] |==|  0.56207
USER: genes 14 Torsion [CA]-CB--CG-[SD] |==|  0.47831
USER: genes 15 Torsion [CB]-CG--SD-[CE] |==|  0.99870
ROOT
ATOM      1  C   PRO R   4       7.380  -5.486  -7.781  1.00 60.54 LIG 0.24  C 
ATOM      2 O    PRO R   4       7.055  -4.722  -8.692  1.00 63.53 LIG-0.27  OA
ATOM      3  N   PRO R   5       7.188  -6.816  -7.831  1.00 48.92 LIG-0.34  N 
ATOM      4  CA  PRO R   5       6.530  -7.440  -8.987  1.00 52.68 LIG 0.18  C 
ATOM      5  CB  PRO R   5       6.519  -8.929  -8.620  1.00 55.54 LIG 0.04  C 
ATOM      6  CG  PRO R   5       7.657  -9.103  -7.686  1.00 46.13 LIG 0.02  C 
ATOM      7  CD  PRO R   5       7.740  -7.820  -6.903  1.00 43.47 LIG 0.13  C 
ENDROOT
BRANCH 4 8
ATOM      8  C   PRO R   5       5.095  -6.955  -9.211  1.00 58.07 LIG 0.24  C 
ATOM      9 O    PRO R   5       4.705  -5.898  -8.709  1.00 51.36 LIG-0.27  OA
ATOM     10  N   THR R   6       4.322  -7.738  -9.959  1.00 69.24 LIG-0.34  N 
ATOM     11 H    THR R   6       4.602  -8.451 -10.349  1.00 69.24 LIG 0.16  HD
BRANCH 10 12
ATOM     12  CA  THR R   6       2.910  -7.449 -10.186  1.00 55.31 LIG 0.20  C 
BRANCH 12 13
ATOM     13  CB  THR R   6       2.028  -7.980  -9.033  1.00 60.29 LIG 0.15  C 
ATOM     14  CG2 THR R   6       0.649  -7.339  -9.067  1.00 62.01 LIG 0.04  C 
BRANCH 13 15
ATOM     15 OG1  THR R   6       1.885  -9.402  -9.152  1.00 91.48 LIG-0.39  OA
ATOM     16 HG1  THR R   6       1.587  -9.591  -9.913  1.00 91.48 LIG 0.21  HD
ENDBRANCH 13 15
ENDBRANCH 12 13
BRANCH 12 17
ATOM     17  C   THR R   6       2.708  -5.947 -10.322  1.00 56.48 LIG 0.24  C 
ATOM     18  N   LEU R   7       2.877  -5.439 -11.540  1.00 43.78 LIG-0.35  N 
ATOM     19 H    LEU R   7       3.074  -5.909 -12.233  1.00 43.78 LIG 0.16  HD
ATOM     20 O    THR R   6       2.409  -5.263  -9.340  1.00 41.48 LIG-0.27  OA
BRANCH 18 21
ATOM     21  CA  LEU R   7       2.738  -4.012 -11.798  1.00 53.52 LIG 0.16  C 
BRANCH 21 22
ATOM     22  CB  LEU R   7       1.380  -3.511 -11.303  1.00 41.32 LIG 0.04  C 
BRANCH 22 23
ATOM     23  CG  LEU R   7       0.189  -3.883 -12.191  1.00 48.65 LIG-0.02  C 
ATOM     24  CD1 LEU R   7      -0.285  -5.306 -11.921  1.00 40.28 LIG 0.01  C 
ATOM     25  CD2 LEU R   7      -0.955  -2.892 -12.009  1.00 37.72 LIG 0.01  C 
ENDBRANCH 22 23
ENDBRANCH 21 22
BRANCH 21 26
ATOM     26  C   LEU R   7       3.871  -3.214 -11.157  1.00 46.73 LIG 0.22  C 
ATOM     27 O    LEU R   7       4.960  -3.742 -10.926  1.00 57.50 LIG-0.29  OA
ENDBRANCH 21 26
ENDBRANCH 18 21
ENDBRANCH 12 17
ENDBRANCH 10 12
ENDBRANCH 4 8
BRANCH 1 28
ATOM     28  CA  PRO R   4       8.040  -4.907  -6.530  1.00 54.23 LIG 0.18  C 
ATOM     29  N   PRO R   4       8.818  -3.717  -6.885  1.00 66.40 LIG-0.34  N 
ATOM     30  CD  PRO R   4       8.061  -2.489  -6.603  1.00 55.20 LIG 0.13  C 
ATOM     31  C   MET R   3      10.095  -3.655  -7.302  1.00 65.13 LIG 0.26  C 
ATOM     32  CG  PRO R   4       7.261  -2.881  -5.403  1.00 51.34 LIG 0.02  C 
ATOM     33  CB  PRO R   4       6.965  -4.351  -5.575  1.00 43.90 LIG 0.04  C 
ATOM     34 O    MET R   3      10.632  -2.597  -7.638  1.00 74.37 LIG-0.27  OA
BRANCH 31 35
ATOM     35  CA  MET R   3      10.888  -4.960  -7.345  1.00 67.30 LIG 0.40  C 
ATOM     36  N   MET R   3      10.693  -5.782  -6.153  1.00 55.69 LIG 0.61  N 
BRANCH 35 37
ATOM     37  CB  MET R   3      10.490  -5.733  -8.608  1.00 55.44 LIG 0.06  C 
BRANCH 37 38
ATOM     38  CG  MET R   3      10.747  -7.223  -8.562  1.00 49.90 LIG 0.08  C 
BRANCH 38 39
ATOM     39 SD   MET R   3      10.025  -8.016 -10.010  1.00 67.63 LIG-0.17  SA
ATOM     40  CE  MET R   3       9.303  -6.606 -10.846  1.00 69.90 LIG 0.09  C 
ENDBRANCH 38 39
ENDBRANCH 37 38
ENDBRANCH 35 37
ENDBRANCH 31 35
ENDBRANCH 1 28
TORSDOF 14
ENDMDL
MODEL 93
USER: ADFR SOLUTION from run 189
USER: SCORE 11.211136 LL:  -3.326 LR:  -8.975 RR:   0.000 FEB:  -4.799
USER: RMSD 6.373659
USER: SEED 188
USER: STATUS no improvement in best in 19 clusters for 5 generations
USER: GENES 16
USER: genes 0 Translation |==|  0.19682 0.50482 0.55136
USER: genes 1 Rotation |==|  0.53554 0.04969 0.70187 0.57217
USER: genes 2 Torsion [N]-CA--C-[N] |==|  0.92414
USER: genes 3 Torsion [C]-N--CA-[CB] |==|  0.21598
USER: genes 4 Torsion [N]-CA--CB-[CG2] |==|  0.54850
USER: genes 5 Torsion [CA]-CB--OG1-[HG1] |==|  0.68338
USER: genes 6 Torsion [N]-CA--C-[N] |==|  0.31078
USER: genes 7 Torsion [C]-N--CA-[CB] |==|  0.80088
USER: genes 8 Torsion [N]-CA--CB-[CG] |==|  0.81826
USER: genes 9 Torsion [CA]-CB--CG-[CD1] |==|  0.92444
USER: genes 10 Torsion [N]-CA--C-[O] |==|  0.26820
USER: genes 11 Torsion [O]-C--CA-[N] |==|  0.88328
USER: genes 12 Torsion [N]-C--CA-[N] |==|  0.87571
USER: genes 13 Torsion [C]-CA--CB-[CG] |==|  0.09021
USER: genes 14 Torsion [CA]-CB--CG-[SD] |==|  0.25495
USER: genes 15 Torsion [CB]-CG--SD-[CE] |==|  0.69128
ROOT
ATOM      1  C   PRO R   4       0.309   0.259 -14.113  1.00 60.54 LIG 0.24  C 
ATOM      2 O    PRO R   4       0.169   0.480 -12.908  1.00 63.53 LIG-0.27  OA
ATOM      3  N   PRO R   5      -0.545  -0.497 -14.827  1.00 48.92 LIG-0.34  N 
ATOM      4  CA  PRO R   5      -1.697  -1.145 -14.184  1.00 52.68 LIG 0.18  C 
ATOM      5  CB  PRO R   5      -2.371  -1.887 -15.344  1.00 55.54 LIG 0.04  C 
ATOM      6  CG  PRO R   5      -1.979  -1.136 -16.560  1.00 46.13 LIG 0.02  C 
ATOM      7  CD  PRO R   5      -0.587  -0.630 -16.294  1.00 43.47 LIG 0.13  C 
ENDROOT
BRANCH 4 8
ATOM      8  C   PRO R   5      -1.307  -2.144 -13.091  1.00 58.07 LIG 0.24  C 
ATOM      9 O    PRO R   5      -2.074  -2.377 -12.153  1.00 51.36 LIG-0.27  OA
ATOM     10  N   THR R   6      -0.115  -2.719 -13.221  1.00 69.24 LIG-0.34  N 
ATOM     11 H    THR R   6       0.403  -2.595 -13.896  1.00 69.24 LIG 0.16  HD
BRANCH 10 12
ATOM     12  CA  THR R   6       0.426  -3.624 -12.212  1.00 55.31 LIG 0.20  C 
BRANCH 12 13
ATOM     13  CB  THR R   6      -0.210  -5.029 -12.307  1.00 60.29 LIG 0.15  C 
ATOM     14  CG2 THR R   6       0.023  -5.817 -11.027  1.00 62.01 LIG 0.04  C 
BRANCH 13 15
ATOM     15 OG1  THR R   6      -1.621  -4.904 -12.528  1.00 91.48 LIG-0.39  OA
ATOM     16 HG1  THR R   6      -2.036  -5.198 -11.860  1.00 91.48 LIG 0.21  HD
ENDBRANCH 13 15
ENDBRANCH 12 13
BRANCH 12 17
ATOM     17  C   THR R   6       1.934  -3.743 -12.385  1.00 56.48 LIG 0.24  C 
ATOM     18  N   LEU R   7       2.680  -3.214 -11.418  1.00 43.78 LIG-0.35  N 
ATOM     19 H    LEU R   7       2.358  -2.835 -10.716  1.00 43.78 LIG 0.16  HD
ATOM     20 O    THR R   6       2.410  -4.299 -13.377  1.00 41.48 LIG-0.27  OA
BRANCH 18 21
ATOM     21  CA  LEU R   7       4.135  -3.239 -11.476  1.00 53.52 LIG 0.16  C 
BRANCH 21 22
ATOM     22  CB  LEU R   7       4.653  -4.660 -11.243  1.00 41.32 LIG 0.04  C 
BRANCH 22 23
ATOM     23  CG  LEU R   7       4.384  -5.227  -9.845  1.00 48.65 LIG-0.02  C 
ATOM     24  CD1 LEU R   7       4.276  -4.119  -8.805  1.00 40.28 LIG 0.01  C 
ATOM     25  CD2 LEU R   7       3.127  -6.089  -9.843  1.00 37.72 LIG 0.01  C 
ENDBRANCH 22 23
ENDBRANCH 21 22
BRANCH 21 26
ATOM     26  C   LEU R   7       4.652  -2.691 -12.804  1.00 46.73 LIG 0.22  C 
ATOM     27 O    LEU R   7       5.012  -1.517 -12.903  1.00 57.50 LIG-0.29  OA
ENDBRANCH 21 26
ENDBRANCH 18 21
ENDBRANCH 12 17
ENDBRANCH 10 12
ENDBRANCH 4 8
BRANCH 1 28
ATOM     28  CA  PRO R   4       1.502   0.871 -14.845  1.00 54.23 LIG 0.18  C 
ATOM     29  N   PRO R   4       1.696   2.256 -14.406  1.00 66.40 LIG-0.34  N 
ATOM     30  CD  PRO R   4       2.750   2.342 -13.385  1.00 55.20 LIG 0.13  C 
ATOM     31  C   MET R   3       1.122   3.369 -14.896  1.00 65.13 LIG 0.26  C 
ATOM     32  CG  PRO R   4       3.681   1.250 -13.801  1.00 51.34 LIG 0.02  C 
ATOM     33  CB  PRO R   4       2.805   0.177 -14.403  1.00 43.90 LIG 0.04  C 
ATOM     34 O    MET R   3       1.311   4.484 -14.403  1.00 74.37 LIG-0.27  OA
BRANCH 31 35
ATOM     35  CA  MET R   3       0.214   3.217 -16.115  1.00 67.30 LIG 0.40  C 
ATOM     36  N   MET R   3       0.784   2.351 -17.144  1.00 55.69 LIG 0.61  N 
BRANCH 35 37
ATOM     37  CB  MET R   3      -1.145   2.684 -15.647  1.00 55.44 LIG 0.06  C 
BRANCH 37 38
ATOM     38  CG  MET R   3      -1.577   3.134 -14.269  1.00 49.90 LIG 0.08  C 
BRANCH 38 39
ATOM     39 SD   MET R   3      -2.560   4.639 -14.393  1.00 67.63 LIG-0.17  SA
ATOM     40  CE  MET R   3      -1.448   5.834 -13.653  1.00 69.90 LIG 0.09  C 
ENDBRANCH 38 39
ENDBRANCH 37 38
ENDBRANCH 35 37
ENDBRANCH 31 35
ENDBRANCH 1 28
TORSDOF 14
ENDMDL
MODEL 94
USER: ADFR SOLUTION from run 7
USER: SCORE 11.925336 LL:  -3.626 LR:  -8.961 RR:   0.000 FEB:  -4.785
USER: RMSD 9.752418
USER: SEED 398291
USER: STATUS no improvement in best in 12 clusters for 5 generations
USER: GENES 16
USER: genes 0 Translation |==|  0.54237 0.21625 0.72617
USER: genes 1 Rotation |==|  0.81828 0.56604 0.30890 0.82835
USER: genes 2 Torsion [N]-CA--C-[N] |==|  0.94322
USER: genes 3 Torsion [C]-N--CA-[CB] |==|  0.22025
USER: genes 4 Torsion [N]-CA--CB-[CG2] |==|  0.70843
USER: genes 5 Torsion [CA]-CB--OG1-[HG1] |==|  0.27819
USER: genes 6 Torsion [N]-CA--C-[N] |==|  0.84708
USER: genes 7 Torsion [C]-N--CA-[CB] |==|  0.15028
USER: genes 8 Torsion [N]-CA--CB-[CG] |==|  0.61833
USER: genes 9 Torsion [CA]-CB--CG-[CD1] |==|  0.13070
USER: genes 10 Torsion [N]-CA--C-[O] |==|  0.58902
USER: genes 11 Torsion [O]-C--CA-[N] |==|  0.01076
USER: genes 12 Torsion [N]-C--CA-[N] |==|  0.40568
USER: genes 13 Torsion [C]-CA--CB-[CG] |==|  0.38340
USER: genes 14 Torsion [CA]-CB--CG-[SD] |==|  0.69802
USER: genes 15 Torsion [CB]-CG--SD-[CE] |==|  0.94707
ROOT
ATOM      1  C   PRO R   4       6.529  -5.585 -10.573  1.00 60.54 LIG 0.24  C 
ATOM      2 O    PRO R   4       6.706  -4.845 -11.543  1.00 63.53 LIG-0.27  OA
ATOM      3  N   PRO R   5       6.697  -6.918 -10.624  1.00 48.92 LIG-0.34  N 
ATOM      4  CA  PRO R   5       7.072  -7.584 -11.879  1.00 52.68 LIG 0.18  C 
ATOM      5  CB  PRO R   5       7.144  -9.063 -11.482  1.00 55.54 LIG 0.04  C 
ATOM      6  CG  PRO R   5       7.433  -9.057 -10.028  1.00 46.13 LIG 0.02  C 
ATOM      7  CD  PRO R   5       6.729  -7.846  -9.478  1.00 43.47 LIG 0.13  C 
ENDROOT
BRANCH 4 8
ATOM      8  C   PRO R   5       6.046  -7.402 -13.001  1.00 58.07 LIG 0.24  C 
ATOM      9 O    PRO R   5       6.372  -7.558 -14.180  1.00 51.36 LIG-0.27  OA
ATOM     10  N   THR R   6       4.816  -7.066 -12.621  1.00 69.24 LIG-0.34  N 
ATOM     11 H    THR R   6       4.572  -7.001 -11.799  1.00 69.24 LIG 0.16  HD
BRANCH 10 12
ATOM     12  CA  THR R   6       3.757  -6.774 -13.582  1.00 55.31 LIG 0.20  C 
BRANCH 12 13
ATOM     13  CB  THR R   6       3.142  -8.067 -14.162  1.00 60.29 LIG 0.15  C 
ATOM     14  CG2 THR R   6       3.622  -8.305 -15.585  1.00 62.01 LIG 0.04  C 
BRANCH 13 15
ATOM     15 OG1  THR R   6       3.517  -9.186 -13.348  1.00 91.48 LIG-0.39  OA
ATOM     16 HG1  THR R   6       2.883  -9.384 -12.834  1.00 91.48 LIG 0.21  HD
ENDBRANCH 13 15
ENDBRANCH 12 13
BRANCH 12 17
ATOM     17  C   THR R   6       2.665  -5.955 -12.910  1.00 56.48 LIG 0.24  C 
ATOM     18  N   LEU R   7       2.134  -6.477 -11.807  1.00 43.78 LIG-0.35  N 
ATOM     19 H    LEU R   7       2.383  -7.224 -11.461  1.00 43.78 LIG 0.16  HD
ATOM     20 O    THR R   6       2.309  -4.874 -13.385  1.00 41.48 LIG-0.27  OA
BRANCH 18 21
ATOM     21  CA  LEU R   7       1.063  -5.804 -11.083  1.00 53.52 LIG 0.16  C 
BRANCH 21 22
ATOM     22  CB  LEU R   7      -0.103  -5.492 -12.025  1.00 41.32 LIG 0.04  C 
BRANCH 22 23
ATOM     23  CG  LEU R   7      -0.722  -4.102 -11.852  1.00 48.65 LIG-0.02  C 
ATOM     24  CD1 LEU R   7       0.348  -3.020 -11.779  1.00 40.28 LIG 0.01  C 
ATOM     25  CD2 LEU R   7      -1.711  -3.805 -12.973  1.00 37.72 LIG 0.01  C 
ENDBRANCH 22 23
ENDBRANCH 21 22
BRANCH 21 26
ATOM     26  C   LEU R   7       0.584  -6.633  -9.893  1.00 46.73 LIG 0.22  C 
ATOM     27 O    LEU R   7      -0.591  -6.589  -9.528  1.00 57.50 LIG-0.29  OA
ENDBRANCH 21 26
ENDBRANCH 18 21
ENDBRANCH 12 17
ENDBRANCH 10 12
ENDBRANCH 4 8
BRANCH 1 28
ATOM     28  CA  PRO R   4       6.104  -4.970  -9.240  1.00 54.23 LIG 0.18  C 
ATOM     29  N   PRO R   4       5.891  -3.529  -9.404  1.00 66.40 LIG-0.34  N 
ATOM     30  CD  PRO R   4       4.463  -3.225  -9.576  1.00 55.20 LIG 0.13  C 
ATOM     31  C   MET R   3       6.796  -2.541  -9.304  1.00 65.13 LIG 0.26  C 
ATOM     32  CG  PRO R   4       3.813  -4.277  -8.738  1.00 51.34 LIG 0.02  C 
ATOM     33  CB  PRO R   4       4.709  -5.488  -8.840  1.00 43.90 LIG 0.04  C 
ATOM     34 O    MET R   3       6.516  -1.360  -9.527  1.00 74.37 LIG-0.27  OA
BRANCH 31 35
ATOM     35  CA  MET R   3       8.216  -2.922  -8.889  1.00 67.30 LIG 0.40  C 
ATOM     36  N   MET R   3       9.236  -2.090  -9.522  1.00 55.69 LIG 0.61  N 
BRANCH 35 37
ATOM     37  CB  MET R   3       8.318  -2.839  -7.362  1.00 55.44 LIG 0.06  C 
BRANCH 37 38
ATOM     38  CG  MET R   3       9.080  -3.967  -6.703  1.00 49.90 LIG 0.08  C 
BRANCH 38 39
ATOM     39 SD   MET R   3       7.940  -5.041  -5.811  1.00 67.63 LIG-0.17  SA
ATOM     40  CE  MET R   3       6.518  -3.964  -5.644  1.00 69.90 LIG 0.09  C 
ENDBRANCH 38 39
ENDBRANCH 37 38
ENDBRANCH 35 37
ENDBRANCH 31 35
ENDBRANCH 1 28
TORSDOF 14
ENDMDL
MODEL 95
USER: ADFR SOLUTION from run 153
USER: SCORE 11.540087 LL:  -2.901 LR:  -8.960 RR:   0.000 FEB:  -4.784
USER: RMSD 10.778256
USER: SEED 152
USER: STATUS no improvement in best in 27 clusters for 5 generations
USER: GENES 16
USER: genes 0 Translation |==|  0.29149 0.29327 0.68083
USER: genes 1 Rotation |==|  0.79861 0.53234 0.10434 0.55690
USER: genes 2 Torsion [N]-CA--C-[N] |==|  0.43258
USER: genes 3 Torsion [C]-N--CA-[CB] |==|  0.85776
USER: genes 4 Torsion [N]-CA--CB-[CG2] |==|  0.60253
USER: genes 5 Torsion [CA]-CB--OG1-[HG1] |==|  0.92473
USER: genes 6 Torsion [N]-CA--C-[N] |==|  0.33221
USER: genes 7 Torsion [C]-N--CA-[CB] |==|  0.78698
USER: genes 8 Torsion [N]-CA--CB-[CG] |==|  0.84060
USER: genes 9 Torsion [CA]-CB--CG-[CD1] |==|  0.92811
USER: genes 10 Torsion [N]-CA--C-[O] |==|  0.18623
USER: genes 11 Torsion [O]-C--CA-[N] |==|  0.84978
USER: genes 12 Torsion [N]-C--CA-[N] |==|  0.39685
USER: genes 13 Torsion [C]-CA--CB-[CG] |==|  0.57233
USER: genes 14 Torsion [CA]-CB--CG-[SD] |==|  0.67815
USER: genes 15 Torsion [CB]-CG--SD-[CE] |==|  0.06227
ROOT
ATOM      1  C   PRO R   4       2.013  -4.025 -11.491  1.00 60.54 LIG 0.24  C 
ATOM      2 O    PRO R   4       2.543  -3.217 -12.255  1.00 63.53 LIG-0.27  OA
ATOM      3  N   PRO R   5       0.807  -4.574 -11.721  1.00 48.92 LIG-0.34  N 
ATOM      4  CA  PRO R   5       0.022  -4.200 -12.906  1.00 52.68 LIG 0.18  C 
ATOM      5  CB  PRO R   5      -1.251  -5.044 -12.761  1.00 55.54 LIG 0.04  C 
ATOM      6  CG  PRO R   5      -0.845  -6.214 -11.947  1.00 46.13 LIG 0.02  C 
ATOM      7  CD  PRO R   5       0.200  -5.703 -10.993  1.00 43.47 LIG 0.13  C 
ENDROOT
BRANCH 4 8
ATOM      8  C   PRO R   5      -0.348  -2.715 -12.953  1.00 58.07 LIG 0.24  C 
ATOM      9 O    PRO R   5      -0.412  -2.052 -11.915  1.00 51.36 LIG-0.27  OA
ATOM     10  N   THR R   6      -0.595  -2.210 -14.159  1.00 69.24 LIG-0.34  N 
ATOM     11 H    THR R   6      -0.508  -2.657 -14.889  1.00 69.24 LIG 0.16  HD
BRANCH 10 12
ATOM     12  CA  THR R   6      -1.044  -0.836 -14.350  1.00 55.31 LIG 0.20  C 
BRANCH 12 13
ATOM     13  CB  THR R   6      -2.260  -0.504 -13.457  1.00 60.29 LIG 0.15  C 
ATOM     14  CG2 THR R   6      -3.234   0.410 -14.186  1.00 62.01 LIG 0.04  C 
BRANCH 13 15
ATOM     15 OG1  THR R   6      -2.938  -1.715 -13.097  1.00 91.48 LIG-0.39  OA
ATOM     16 HG1  THR R   6      -2.807  -2.296 -13.689  1.00 91.48 LIG 0.21  HD
ENDBRANCH 13 15
ENDBRANCH 12 13
BRANCH 12 17
ATOM     17  C   THR R   6       0.092   0.125 -14.028  1.00 56.48 LIG 0.24  C 
ATOM     18  N   LEU R   7       0.492   0.917 -15.019  1.00 43.78 LIG-0.35  N 
ATOM     19 H    LEU R   7       0.138   0.920 -15.804  1.00 43.78 LIG 0.16  HD
ATOM     20 O    THR R   6       0.598   0.143 -12.903  1.00 41.48 LIG-0.27  OA
BRANCH 18 21
ATOM     21  CA  LEU R   7       1.587   1.862 -14.847  1.00 53.52 LIG 0.16  C 
BRANCH 21 22
ATOM     22  CB  LEU R   7       1.115   3.086 -14.058  1.00 41.32 LIG 0.04  C 
BRANCH 22 23
ATOM     23  CG  LEU R   7      -0.070   3.836 -14.674  1.00 48.65 LIG-0.02  C 
ATOM     24  CD1 LEU R   7      -0.136   3.633 -16.182  1.00 40.28 LIG 0.01  C 
ATOM     25  CD2 LEU R   7      -1.379   3.415 -14.017  1.00 37.72 LIG 0.01  C 
ENDBRANCH 22 23
ENDBRANCH 21 22
BRANCH 21 26
ATOM     26  C   LEU R   7       2.786   1.211 -14.162  1.00 46.73 LIG 0.22  C 
ATOM     27 O    LEU R   7       3.433   0.329 -14.730  1.00 57.50 LIG-0.29  OA
ENDBRANCH 21 26
ENDBRANCH 18 21
ENDBRANCH 12 17
ENDBRANCH 10 12
ENDBRANCH 4 8
BRANCH 1 28
ATOM     28  CA  PRO R   4       2.754  -4.438 -10.220  1.00 54.23 LIG 0.18  C 
ATOM     29  N   PRO R   4       4.092  -4.927 -10.562  1.00 66.40 LIG-0.34  N 
ATOM     30  CD  PRO R   4       5.103  -3.877 -10.366  1.00 55.20 LIG 0.13  C 
ATOM     31  C   MET R   3       4.457  -6.176 -10.900  1.00 65.13 LIG 0.26  C 
ATOM     32  CG  PRO R   4       4.544  -3.117  -9.207  1.00 51.34 LIG 0.02  C 
ATOM     33  CB  PRO R   4       3.044  -3.198  -9.352  1.00 43.90 LIG 0.04  C 
ATOM     34 O    MET R   3       5.609  -6.463 -11.234  1.00 74.37 LIG-0.27  OA
BRANCH 31 35
ATOM     35  CA  MET R   3       3.384  -7.263 -10.852  1.00 67.30 LIG 0.40  C 
ATOM     36  N   MET R   3       3.516  -8.239 -11.931  1.00 55.69 LIG 0.61  N 
BRANCH 35 37
ATOM     37  CB  MET R   3       3.448  -7.953  -9.485  1.00 55.44 LIG 0.06  C 
BRANCH 37 38
ATOM     38  CG  MET R   3       2.941  -9.378  -9.455  1.00 49.90 LIG 0.08  C 
BRANCH 38 39
ATOM     39 SD   MET R   3       1.484  -9.489  -8.400  1.00 67.63 LIG-0.17  SA
ATOM     40  CE  MET R   3       0.920  -7.788  -8.417  1.00 69.90 LIG 0.09  C 
ENDBRANCH 38 39
ENDBRANCH 37 38
ENDBRANCH 35 37
ENDBRANCH 31 35
ENDBRANCH 1 28
TORSDOF 14
ENDMDL
MODEL 96
USER: ADFR SOLUTION from run 97
USER: SCORE 11.364063 LL:  -3.510 LR:  -8.952 RR:   0.000 FEB:  -4.776
USER: RMSD 7.185583
USER: SEED 96
USER: STATUS no improvement in best in 13 clusters for 5 generations
USER: GENES 16
USER: genes 0 Translation |==|  0.45834 0.50998 0.58457
USER: genes 1 Rotation |==|  0.17893 0.13445 0.57253 0.58959
USER: genes 2 Torsion [N]-CA--C-[N] |==|  0.87107
USER: genes 3 Torsion [C]-N--CA-[CB] |==|  0.23041
USER: genes 4 Torsion [N]-CA--CB-[CG2] |==|  0.41693
USER: genes 5 Torsion [CA]-CB--OG1-[HG1] |==|  0.86963
USER: genes 6 Torsion [N]-CA--C-[N] |==|  0.30641
USER: genes 7 Torsion [C]-N--CA-[CB] |==|  0.45708
USER: genes 8 Torsion [N]-CA--CB-[CG] |==|  0.78120
USER: genes 9 Torsion [CA]-CB--CG-[CD1] |==|  0.37994
USER: genes 10 Torsion [N]-CA--C-[O] |==|  0.93219
USER: genes 11 Torsion [O]-C--CA-[N] |==|  0.00762
USER: genes 12 Torsion [N]-C--CA-[N] |==|  0.88643
USER: genes 13 Torsion [C]-CA--CB-[CG] |==|  0.64340
USER: genes 14 Torsion [CA]-CB--CG-[SD] |==|  0.43299
USER: genes 15 Torsion [CB]-CG--SD-[CE] |==|  0.02260
ROOT
ATOM      1  C   PRO R   4       5.016   0.363 -13.440  1.00 60.54 LIG 0.24  C 
ATOM      2 O    PRO R   4       4.768   0.765 -12.302  1.00 63.53 LIG-0.27  OA
ATOM      3  N   PRO R   5       4.605   0.999 -14.552  1.00 48.92 LIG-0.34  N 
ATOM      4  CA  PRO R   5       3.786   2.216 -14.465  1.00 52.68 LIG 0.18  C 
ATOM      5  CB  PRO R   5       3.552   2.584 -15.935  1.00 55.54 LIG 0.04  C 
ATOM      6  CG  PRO R   5       4.699   1.995 -16.666  1.00 46.13 LIG 0.02  C 
ATOM      7  CD  PRO R   5       5.039   0.725 -15.934  1.00 43.47 LIG 0.13  C 
ENDROOT
BRANCH 4 8
ATOM      8  C   PRO R   5       2.439   2.000 -13.769  1.00 58.07 LIG 0.24  C 
ATOM      9 O    PRO R   5       2.050   2.786 -12.901  1.00 51.36 LIG-0.27  OA
ATOM     10  N   THR R   6       1.745   0.933 -14.152  1.00 69.24 LIG-0.34  N 
ATOM     11 H    THR R   6       1.990   0.409 -14.789  1.00 69.24 LIG 0.16  HD
BRANCH 10 12
ATOM     12  CA  THR R   6       0.488   0.552 -13.517  1.00 55.31 LIG 0.20  C 
BRANCH 12 13
ATOM     13  CB  THR R   6      -0.705   1.344 -14.095  1.00 60.29 LIG 0.15  C 
ATOM     14  CG2 THR R   6      -1.984   0.523 -14.028  1.00 62.01 LIG 0.04  C 
BRANCH 13 15
ATOM     15 OG1  THR R   6      -0.888   2.555 -13.350  1.00 91.48 LIG-0.39  OA
ATOM     16 HG1  THR R   6      -0.862   2.384 -12.528  1.00 91.48 LIG 0.21  HD
ENDBRANCH 13 15
ENDBRANCH 12 13
BRANCH 12 17
ATOM     17  C   THR R   6       0.245  -0.937 -13.711  1.00 56.48 LIG 0.24  C 
ATOM     18  N   LEU R   7       0.342  -1.696 -12.622  1.00 43.78 LIG-0.35  N 
ATOM     19 H    LEU R   7       0.516  -1.390 -11.837  1.00 43.78 LIG 0.16  HD
ATOM     20 O    THR R   6      -0.022  -1.389 -14.827  1.00 41.48 LIG-0.27  OA
BRANCH 18 21
ATOM     21  CA  LEU R   7       0.157  -3.140 -12.678  1.00 53.52 LIG 0.16  C 
BRANCH 21 22
ATOM     22  CB  LEU R   7       0.690  -3.796 -11.403  1.00 41.32 LIG 0.04  C 
BRANCH 22 23
ATOM     23  CG  LEU R   7       2.211  -3.966 -11.349  1.00 48.65 LIG-0.02  C 
ATOM     24  CD1 LEU R   7       2.766  -3.589  -9.981  1.00 40.28 LIG 0.01  C 
ATOM     25  CD2 LEU R   7       2.612  -5.389 -11.717  1.00 37.72 LIG 0.01  C 
ENDBRANCH 22 23
ENDBRANCH 21 22
BRANCH 21 26
ATOM     26  C   LEU R   7      -1.309  -3.508 -12.899  1.00 46.73 LIG 0.22  C 
ATOM     27 O    LEU R   7      -2.208  -2.732 -12.571  1.00 57.50 LIG-0.29  OA
ENDBRANCH 21 26
ENDBRANCH 18 21
ENDBRANCH 12 17
ENDBRANCH 10 12
ENDBRANCH 4 8
BRANCH 1 28
ATOM     28  CA  PRO R   4       5.835  -0.916 -13.612  1.00 54.23 LIG 0.18  C 
ATOM     29  N   PRO R   4       6.137  -1.491 -12.298  1.00 66.40 LIG-0.34  N 
ATOM     30  CD  PRO R   4       5.201  -2.576 -11.971  1.00 55.20 LIG 0.13  C 
ATOM     31  C   MET R   3       7.176  -1.213 -11.490  1.00 65.13 LIG 0.26  C 
ATOM     32  CG  PRO R   4       4.916  -3.162 -13.315  1.00 51.34 LIG 0.02  C 
ATOM     33  CB  PRO R   4       4.978  -2.006 -14.284  1.00 43.90 LIG 0.04  C 
ATOM     34 O    MET R   3       7.296  -1.714 -10.370  1.00 74.37 LIG-0.27  OA
BRANCH 31 35
ATOM     35  CA  MET R   3       8.234  -0.242 -12.010  1.00 67.30 LIG 0.40  C 
ATOM     36  N   MET R   3       8.559  -0.456 -13.418  1.00 55.69 LIG 0.61  N 
BRANCH 35 37
ATOM     37  CB  MET R   3       7.739   1.191 -11.778  1.00 55.44 LIG 0.06  C 
BRANCH 37 38
ATOM     38  CG  MET R   3       7.776   2.091 -12.993  1.00 49.90 LIG 0.08  C 
BRANCH 38 39
ATOM     39 SD   MET R   3       6.578   3.424 -12.806  1.00 67.63 LIG-0.17  SA
ATOM     40  CE  MET R   3       6.060   3.181 -11.108  1.00 69.90 LIG 0.09  C 
ENDBRANCH 38 39
ENDBRANCH 37 38
ENDBRANCH 35 37
ENDBRANCH 31 35
ENDBRANCH 1 28
TORSDOF 14
ENDMDL
MODEL 97
USER: ADFR SOLUTION from run 114
USER: SCORE 12.065220 LL:  -3.461 LR:  -8.952 RR:   0.000 FEB:  -4.776
USER: RMSD 8.819996
USER: SEED 113
USER: STATUS no improvement in best in 21 clusters for 5 generations
USER: GENES 16
USER: genes 0 Translation |==|  0.24594 0.34543 0.51455
USER: genes 1 Rotation |==|  0.51870 0.59416 0.99069 0.50208
USER: genes 2 Torsion [N]-CA--C-[N] |==|  0.86346
USER: genes 3 Torsion [C]-N--CA-[CB] |==|  0.21073
USER: genes 4 Torsion [N]-CA--CB-[CG2] |==|  0.52956
USER: genes 5 Torsion [CA]-CB--OG1-[HG1] |==|  0.18587
USER: genes 6 Torsion [N]-CA--C-[N] |==|  0.04689
USER: genes 7 Torsion [C]-N--CA-[CB] |==|  0.19213
USER: genes 8 Torsion [N]-CA--CB-[CG] |==|  0.50769
USER: genes 9 Torsion [CA]-CB--CG-[CD1] |==|  0.25656
USER: genes 10 Torsion [N]-CA--C-[O] |==|  0.81987
USER: genes 11 Torsion [O]-C--CA-[N] |==|  0.93339
USER: genes 12 Torsion [N]-C--CA-[N] |==|  0.46076
USER: genes 13 Torsion [C]-CA--CB-[CG] |==|  0.35737
USER: genes 14 Torsion [CA]-CB--CG-[SD] |==|  0.66003
USER: genes 15 Torsion [CB]-CG--SD-[CE] |==|  0.50197
ROOT
ATOM      1  C   PRO R   4       1.193  -2.969 -14.858  1.00 60.54 LIG 0.24  C 
ATOM      2 O    PRO R   4       0.611  -2.667 -15.902  1.00 63.53 LIG-0.27  OA
ATOM      3  N   PRO R   5       0.693  -2.714 -13.636  1.00 48.92 LIG-0.34  N 
ATOM      4  CA  PRO R   5      -0.586  -2.009 -13.477  1.00 52.68 LIG 0.18  C 
ATOM      5  CB  PRO R   5      -0.756  -1.934 -11.954  1.00 55.54 LIG 0.04  C 
ATOM      6  CG  PRO R   5       0.026  -3.076 -11.424  1.00 46.13 LIG 0.02  C 
ATOM      7  CD  PRO R   5       1.200  -3.231 -12.352  1.00 43.47 LIG 0.13  C 
ENDROOT
BRANCH 4 8
ATOM      8  C   PRO R   5      -0.586  -0.596 -14.065  1.00 58.07 LIG 0.24  C 
ATOM      9 O    PRO R   5      -1.493  -0.230 -14.817  1.00 51.36 LIG-0.27  OA
ATOM     10  N   THR R   6       0.437   0.182 -13.721  1.00 69.24 LIG-0.34  N 
ATOM     11 H    THR R   6       1.046  -0.052 -13.162  1.00 69.24 LIG 0.16  HD
BRANCH 10 12
ATOM     12  CA  THR R   6       0.616   1.521 -14.273  1.00 55.31 LIG 0.20  C 
BRANCH 12 13
ATOM     13  CB  THR R   6      -0.360   2.535 -13.636  1.00 60.29 LIG 0.15  C 
ATOM     14  CG2 THR R   6      -0.345   3.853 -14.395  1.00 62.01 LIG 0.04  C 
BRANCH 13 15
ATOM     15 OG1  THR R   6      -1.690   2.000 -13.654  1.00 91.48 LIG-0.39  OA
ATOM     16 HG1  THR R   6      -1.732   1.336 -13.143  1.00 91.48 LIG 0.21  HD
ENDBRANCH 13 15
ENDBRANCH 12 13
BRANCH 12 17
ATOM     17  C   THR R   6       2.046   1.985 -14.040  1.00 56.48 LIG 0.24  C 
ATOM     18  N   LEU R   7       2.929   1.039 -13.731  1.00 43.78 LIG-0.35  N 
ATOM     19 H    LEU R   7       2.736   0.202 -13.675  1.00 43.78 LIG 0.16  HD
ATOM     20 O    THR R   6       2.341   3.179 -14.133  1.00 41.48 LIG-0.27  OA
BRANCH 18 21
ATOM     21  CA  LEU R   7       4.325   1.356 -13.459  1.00 53.52 LIG 0.16  C 
BRANCH 21 22
ATOM     22  CB  LEU R   7       4.450   2.120 -12.139  1.00 41.32 LIG 0.04  C 
BRANCH 22 23
ATOM     23  CG  LEU R   7       5.871   2.567 -11.781  1.00 48.65 LIG-0.02  C 
ATOM     24  CD1 LEU R   7       6.158   3.974 -12.290  1.00 40.28 LIG 0.01  C 
ATOM     25  CD2 LEU R   7       6.104   2.481 -10.278  1.00 37.72 LIG 0.01  C 
ENDBRANCH 22 23
ENDBRANCH 21 22
BRANCH 21 26
ATOM     26  C   LEU R   7       5.190   0.098 -13.434  1.00 46.73 LIG 0.22  C 
ATOM     27 O    LEU R   7       5.021  -0.766 -12.571  1.00 57.50 LIG-0.29  OA
ENDBRANCH 21 26
ENDBRANCH 18 21
ENDBRANCH 12 17
ENDBRANCH 10 12
ENDBRANCH 4 8
BRANCH 1 28
ATOM     28  CA  PRO R   4       2.546  -3.674 -14.943  1.00 54.23 LIG 0.18  C 
ATOM     29  N   PRO R   4       2.664  -4.369 -16.227  1.00 66.40 LIG-0.34  N 
ATOM     30  CD  PRO R   4       3.437  -3.571 -17.189  1.00 55.20 LIG 0.13  C 
ATOM     31  C   MET R   3       2.259  -5.614 -16.537  1.00 65.13 LIG 0.26  C 
ATOM     32  CG  PRO R   4       4.411  -2.866 -16.302  1.00 51.34 LIG 0.02  C 
ATOM     33  CB  PRO R   4       3.681  -2.633 -15.001  1.00 43.90 LIG 0.04  C 
ATOM     34 O    MET R   3       2.352  -6.077 -17.676  1.00 74.37 LIG-0.27  OA
BRANCH 31 35
ATOM     35  CA  MET R   3       1.674  -6.466 -15.412  1.00 67.30 LIG 0.40  C 
ATOM     36  N   MET R   3       0.975  -7.651 -15.903  1.00 55.69 LIG 0.61  N 
BRANCH 35 37
ATOM     37  CB  MET R   3       2.808  -6.862 -14.459  1.00 55.44 LIG 0.06  C 
BRANCH 37 38
ATOM     38  CG  MET R   3       2.550  -6.575 -12.995  1.00 49.90 LIG 0.08  C 
BRANCH 38 39
ATOM     39 SD   MET R   3       3.841  -5.500 -12.343  1.00 67.63 LIG-0.17  SA
ATOM     40  CE  MET R   3       3.322  -5.341 -10.636  1.00 69.90 LIG 0.09  C 
ENDBRANCH 38 39
ENDBRANCH 37 38
ENDBRANCH 35 37
ENDBRANCH 31 35
ENDBRANCH 1 28
TORSDOF 14
ENDMDL
MODEL 98
USER: ADFR SOLUTION from run 107
USER: SCORE 11.263370 LL:  -3.419 LR:  -8.943 RR:   0.000 FEB:  -4.766
USER: RMSD 7.810003
USER: SEED 106
USER: STATUS no improvement in best in 25 clusters for 5 generations
USER: GENES 16
USER: genes 0 Translation |==|  0.29403 0.27315 0.62892
USER: genes 1 Rotation |==|  0.48303 0.09304 0.74275 0.65863
USER: genes 2 Torsion [N]-CA--C-[N] |==|  0.03053
USER: genes 3 Torsion [C]-N--CA-[CB] |==|  0.17267
USER: genes 4 Torsion [N]-CA--CB-[CG2] |==|  0.45025
USER: genes 5 Torsion [CA]-CB--OG1-[HG1] |==|  0.75105
USER: genes 6 Torsion [N]-CA--C-[N] |==|  0.27467
USER: genes 7 Torsion [C]-N--CA-[CB] |==|  0.49720
USER: genes 8 Torsion [N]-CA--CB-[CG] |==|  0.78964
USER: genes 9 Torsion [CA]-CB--CG-[CD1] |==|  0.80422
USER: genes 10 Torsion [N]-CA--C-[O] |==|  0.70928
USER: genes 11 Torsion [O]-C--CA-[N] |==|  0.91546
USER: genes 12 Torsion [N]-C--CA-[N] |==|  0.85304
USER: genes 13 Torsion [C]-CA--CB-[CG] |==|  0.49882
USER: genes 14 Torsion [CA]-CB--CG-[SD] |==|  0.50466
USER: genes 15 Torsion [CB]-CG--SD-[CE] |==|  0.03337
ROOT
ATOM      1  C   PRO R   4       2.059  -4.433 -12.542  1.00 60.54 LIG 0.24  C 
ATOM      2 O    PRO R   4       2.314  -3.908 -11.457  1.00 63.53 LIG-0.27  OA
ATOM      3  N   PRO R   5       0.880  -5.020 -12.817  1.00 48.92 LIG-0.34  N 
ATOM      4  CA  PRO R   5      -0.176  -5.104 -11.800  1.00 52.68 LIG 0.18  C 
ATOM      5  CB  PRO R   5      -1.307  -5.839 -12.530  1.00 55.54 LIG 0.04  C 
ATOM      6  CG  PRO R   5      -1.085  -5.552 -13.968  1.00 46.13 LIG 0.02  C 
ATOM      7  CD  PRO R   5       0.407  -5.466 -14.140  1.00 43.47 LIG 0.13  C 
ENDROOT
BRANCH 4 8
ATOM      8  C   PRO R   5       0.232  -5.896 -10.555  1.00 58.07 LIG 0.24  C 
ATOM      9 O    PRO R   5      -0.609  -6.214  -9.710  1.00 51.36 LIG-0.27  OA
ATOM     10  N   THR R   6       1.523  -6.200 -10.451  1.00 69.24 LIG-0.34  N 
ATOM     11 H    THR R   6       2.105  -6.021 -11.058  1.00 69.24 LIG 0.16  HD
BRANCH 10 12
ATOM     12  CA  THR R   6       2.071  -6.874  -9.279  1.00 55.31 LIG 0.20  C 
BRANCH 12 13
ATOM     13  CB  THR R   6       1.454  -8.277  -9.087  1.00 60.29 LIG 0.15  C 
ATOM     14  CG2 THR R   6       2.315  -9.127  -8.165  1.00 62.01 LIG 0.04  C 
BRANCH 13 15
ATOM     15 OG1  THR R   6       0.143  -8.153  -8.520  1.00 91.48 LIG-0.39  OA
ATOM     16 HG1  THR R   6       0.199  -8.161  -7.682  1.00 91.48 LIG 0.21  HD
ENDBRANCH 13 15
ENDBRANCH 12 13
BRANCH 12 17
ATOM     17  C   THR R   6       3.581  -7.005  -9.422  1.00 56.48 LIG 0.24  C 
ATOM     18  N   LEU R   7       4.313  -6.098  -8.780  1.00 43.78 LIG-0.35  N 
ATOM     19 H    LEU R   7       3.982  -5.471  -8.292  1.00 43.78 LIG 0.16  HD
ATOM     20 O    THR R   6       4.070  -7.908 -10.104  1.00 41.48 LIG-0.27  OA
BRANCH 18 21
ATOM     21  CA  LEU R   7       5.768  -6.098  -8.856  1.00 53.52 LIG 0.16  C 
BRANCH 21 22
ATOM     22  CB  LEU R   7       6.344  -4.935  -8.046  1.00 41.32 LIG 0.04  C 
BRANCH 22 23
ATOM     23  CG  LEU R   7       6.215  -3.558  -8.706  1.00 48.65 LIG-0.02  C 
ATOM     24  CD1 LEU R   7       7.136  -3.429  -9.912  1.00 40.28 LIG 0.01  C 
ATOM     25  CD2 LEU R   7       4.770  -3.281  -9.102  1.00 37.72 LIG 0.01  C 
ENDBRANCH 22 23
ENDBRANCH 21 22
BRANCH 21 26
ATOM     26  C   LEU R   7       6.353  -7.426  -8.380  1.00 46.73 LIG 0.22  C 
ATOM     27 O    LEU R   7       6.892  -7.516  -7.276  1.00 57.50 LIG-0.29  OA
ENDBRANCH 21 26
ENDBRANCH 18 21
ENDBRANCH 12 17
ENDBRANCH 10 12
ENDBRANCH 4 8
BRANCH 1 28
ATOM     28  CA  PRO R   4       3.121  -4.416 -13.641  1.00 54.23 LIG 0.18  C 
ATOM     29  N   PRO R   4       3.953  -3.217 -13.508  1.00 66.40 LIG-0.34  N 
ATOM     30  CD  PRO R   4       5.211  -3.523 -12.810  1.00 55.20 LIG 0.13  C 
ATOM     31  C   MET R   3       3.735  -1.995 -14.024  1.00 65.13 LIG 0.26  C 
ATOM     32  CG  PRO R   4       5.480  -4.926 -13.250  1.00 51.34 LIG 0.02  C 
ATOM     33  CB  PRO R   4       4.124  -5.566 -13.423  1.00 43.90 LIG 0.04  C 
ATOM     34 O    MET R   3       4.475  -1.036 -13.793  1.00 74.37 LIG-0.27  OA
BRANCH 31 35
ATOM     35  CA  MET R   3       2.522  -1.819 -14.936  1.00 67.30 LIG 0.40  C 
ATOM     36  N   MET R   3       2.486  -2.790 -16.027  1.00 55.69 LIG 0.61  N 
BRANCH 35 37
ATOM     37  CB  MET R   3       1.252  -1.915 -14.082  1.00 55.44 LIG 0.06  C 
BRANCH 37 38
ATOM     38  CG  MET R   3      -0.049  -1.751 -14.838  1.00 49.90 LIG 0.08  C 
BRANCH 38 39
ATOM     39 SD   MET R   3      -1.439  -1.839 -13.695  1.00 67.63 LIG-0.17  SA
ATOM     40  CE  MET R   3      -0.593  -1.722 -12.120  1.00 69.90 LIG 0.09  C 
ENDBRANCH 38 39
ENDBRANCH 37 38
ENDBRANCH 35 37
ENDBRANCH 31 35
ENDBRANCH 1 28
TORSDOF 14
ENDMDL
MODEL 99
USER: ADFR SOLUTION from run 76
USER: SCORE 11.330218 LL:  -3.417 LR:  -8.927 RR:   0.000 FEB:  -4.751
USER: RMSD 8.591915
USER: SEED 75
USER: STATUS no improvement in best in 28 clusters for 5 generations
USER: GENES 16
USER: genes 0 Translation |==|  0.39748 0.31057 0.67914
USER: genes 1 Rotation |==|  0.92354 0.44585 0.75981 0.51357
USER: genes 2 Torsion [N]-CA--C-[N] |==|  0.93652
USER: genes 3 Torsion [C]-N--CA-[CB] |==|  0.24443
USER: genes 4 Torsion [N]-CA--CB-[CG2] |==|  0.55955
USER: genes 5 Torsion [CA]-CB--OG1-[HG1] |==|  0.16746
USER: genes 6 Torsion [N]-CA--C-[N] |==|  0.46226
USER: genes 7 Torsion [C]-N--CA-[CB] |==|  0.22933
USER: genes 8 Torsion [N]-CA--CB-[CG] |==|  0.62241
USER: genes 9 Torsion [CA]-CB--CG-[CD1] |==|  0.15159
USER: genes 10 Torsion [N]-CA--C-[O] |==|  0.05238
USER: genes 11 Torsion [O]-C--CA-[N] |==|  0.90510
USER: genes 12 Torsion [N]-C--CA-[N] |==|  0.86210
USER: genes 13 Torsion [C]-CA--CB-[CG] |==|  0.18049
USER: genes 14 Torsion [CA]-CB--CG-[SD] |==|  0.09230
USER: genes 15 Torsion [CB]-CG--SD-[CE] |==|  0.26253
ROOT
ATOM      1  C   PRO R   4       3.921  -3.675 -11.525  1.00 60.54 LIG 0.24  C 
ATOM      2 O    PRO R   4       3.500  -2.959 -10.615  1.00 63.53 LIG-0.27  OA
ATOM      3  N   PRO R   5       5.174  -4.162 -11.560  1.00 48.92 LIG-0.34  N 
ATOM      4  CA  PRO R   5       6.143  -3.826 -10.508  1.00 52.68 LIG 0.18  C 
ATOM      5  CB  PRO R   5       7.407  -4.575 -10.946  1.00 55.54 LIG 0.04  C 
ATOM      6  CG  PRO R   5       6.917  -5.707 -11.769  1.00 46.13 LIG 0.02  C 
ATOM      7  CD  PRO R   5       5.691  -5.195 -12.476  1.00 43.47 LIG 0.13  C 
ENDROOT
BRANCH 4 8
ATOM      8  C   PRO R   5       6.442  -2.328 -10.406  1.00 58.07 LIG 0.24  C 
ATOM      9 O    PRO R   5       6.872  -1.845  -9.355  1.00 51.36 LIG-0.27  OA
ATOM     10  N   THR R   6       6.205  -1.606 -11.498  1.00 69.24 LIG-0.34  N 
ATOM     11 H    THR R   6       5.950  -1.945 -12.246  1.00 69.24 LIG 0.16  HD
BRANCH 10 12
ATOM     12  CA  THR R   6       6.360  -0.156 -11.521  1.00 55.31 LIG 0.20  C 
BRANCH 12 13
ATOM     13  CB  THR R   6       7.805   0.257 -11.880  1.00 60.29 LIG 0.15  C 
ATOM     14  CG2 THR R   6       8.099   1.671 -11.403  1.00 62.01 LIG 0.04  C 
BRANCH 13 15
ATOM     15 OG1  THR R   6       8.731  -0.646 -11.263  1.00 91.48 LIG-0.39  OA
ATOM     16 HG1  THR R   6       8.590  -1.425 -11.541  1.00 91.48 LIG 0.21  HD
ENDBRANCH 13 15
ENDBRANCH 12 13
BRANCH 12 17
ATOM     17  C   THR R   6       5.399   0.447 -12.535  1.00 56.48 LIG 0.24  C 
ATOM     18  N   LEU R   7       5.225   1.765 -12.470  1.00 43.78 LIG-0.35  N 
ATOM     19 H    LEU R   7       5.630   2.275 -11.908  1.00 43.78 LIG 0.16  HD
ATOM     20 O    THR R   6       4.823  -0.270 -13.357  1.00 41.48 LIG-0.27  OA
BRANCH 18 21
ATOM     21  CA  LEU R   7       4.312   2.460 -13.367  1.00 53.52 LIG 0.16  C 
BRANCH 21 22
ATOM     22  CB  LEU R   7       2.877   2.368 -12.845  1.00 41.32 LIG 0.04  C 
BRANCH 22 23
ATOM     23  CG  LEU R   7       1.821   2.043 -13.906  1.00 48.65 LIG-0.02  C 
ATOM     24  CD1 LEU R   7       2.169   0.770 -14.667  1.00 40.28 LIG 0.01  C 
ATOM     25  CD2 LEU R   7       0.437   1.932 -13.278  1.00 37.72 LIG 0.01  C 
ENDBRANCH 22 23
ENDBRANCH 21 22
BRANCH 21 26
ATOM     26  C   LEU R   7       4.720   3.919 -13.560  1.00 46.73 LIG 0.22  C 
ATOM     27 O    LEU R   7       5.863   4.294 -13.293  1.00 57.50 LIG-0.29  OA
ENDBRANCH 21 26
ENDBRANCH 18 21
ENDBRANCH 12 17
ENDBRANCH 10 12
ENDBRANCH 4 8
BRANCH 1 28
ATOM     28  CA  PRO R   4       2.981  -4.041 -12.674  1.00 54.23 LIG 0.18  C 
ATOM     29  N   PRO R   4       1.612  -4.182 -12.169  1.00 66.40 LIG-0.34  N 
ATOM     30  CD  PRO R   4       0.833  -2.959 -12.412  1.00 55.20 LIG 0.13  C 
ATOM     31  C   MET R   3       1.028  -5.277 -11.652  1.00 65.13 LIG 0.26  C 
ATOM     32  CG  PRO R   4       1.416  -2.465 -13.696  1.00 51.34 LIG 0.02  C 
ATOM     33  CB  PRO R   4       2.871  -2.863 -13.662  1.00 43.90 LIG 0.04  C 
ATOM     34 O    MET R   3      -0.117  -5.264 -11.196  1.00 74.37 LIG-0.27  OA
BRANCH 31 35
ATOM     35  CA  MET R   3       1.835  -6.574 -11.651  1.00 67.30 LIG 0.40  C 
ATOM     36  N   MET R   3       2.425  -6.877 -12.953  1.00 55.69 LIG 0.61  N 
BRANCH 35 37
ATOM     37  CB  MET R   3       2.920  -6.473 -10.573  1.00 55.44 LIG 0.06  C 
BRANCH 37 38
ATOM     38  CG  MET R   3       2.411  -6.385  -9.151  1.00 49.90 LIG 0.08  C 
BRANCH 38 39
ATOM     39 SD   MET R   3       0.892  -7.339  -8.981  1.00 67.63 LIG-0.17  SA
ATOM     40  CE  MET R   3       1.536  -8.904  -8.392  1.00 69.90 LIG 0.09  C 
ENDBRANCH 38 39
ENDBRANCH 37 38
ENDBRANCH 35 37
ENDBRANCH 31 35
ENDBRANCH 1 28
TORSDOF 14
ENDMDL
MODEL 100
USER: ADFR SOLUTION from run 170
USER: SCORE 11.633949 LL:  -3.536 LR:  -8.928 RR:   0.000 FEB:  -4.752
USER: RMSD 7.308908
USER: SEED 169
USER: STATUS no improvement in best in 44 clusters for 5 generations
USER: GENES 16
USER: genes 0 Translation |==|  0.19856 0.42633 0.50564
USER: genes 1 Rotation |==|  0.41213 0.11676 0.59844 0.79277
USER: genes 2 Torsion [N]-CA--C-[N] |==|  0.87715
USER: genes 3 Torsion [C]-N--CA-[CB] |==|  0.48333
USER: genes 4 Torsion [N]-CA--CB-[CG2] |==|  0.15562
USER: genes 5 Torsion [CA]-CB--OG1-[HG1] |==|  0.73847
USER: genes 6 Torsion [N]-CA--C-[N] |==|  0.39304
USER: genes 7 Torsion [C]-N--CA-[CB] |==|  0.16419
USER: genes 8 Torsion [N]-CA--CB-[CG] |==|  0.41861
USER: genes 9 Torsion [CA]-CB--CG-[CD1] |==|  0.20234
USER: genes 10 Torsion [N]-CA--C-[O] |==|  0.96785
USER: genes 11 Torsion [O]-C--CA-[N] |==|  0.93343
USER: genes 12 Torsion [N]-C--CA-[N] |==|  0.86243
USER: genes 13 Torsion [C]-CA--CB-[CG] |==|  0.55908
USER: genes 14 Torsion [CA]-CB--CG-[SD] |==|  0.46735
USER: genes 15 Torsion [CB]-CG--SD-[CE] |==|  0.03027
ROOT
ATOM      1  C   PRO R   4       0.340  -1.331 -15.039  1.00 60.54 LIG 0.24  C 
ATOM      2 O    PRO R   4       1.054  -1.565 -14.062  1.00 63.53 LIG-0.27  OA
ATOM      3  N   PRO R   5      -0.951  -0.966 -14.937  1.00 48.92 LIG-0.34  N 
ATOM      4  CA  PRO R   5      -1.605  -0.864 -13.626  1.00 52.68 LIG 0.18  C 
ATOM      5  CB  PRO R   5      -3.034  -0.437 -13.981  1.00 55.54 LIG 0.04  C 
ATOM      6  CG  PRO R   5      -2.915   0.253 -15.287  1.00 46.13 LIG 0.02  C 
ATOM      7  CD  PRO R   5      -1.808  -0.453 -16.022  1.00 43.47 LIG 0.13  C 
ENDROOT
BRANCH 4 8
ATOM      8  C   PRO R   5      -1.639  -2.185 -12.852  1.00 58.07 LIG 0.24  C 
ATOM      9 O    PRO R   5      -1.359  -2.216 -11.651  1.00 51.36 LIG-0.27  OA
ATOM     10  N   THR R   6      -1.977  -3.265 -13.552  1.00 69.24 LIG-0.34  N 
ATOM     11 H    THR R   6      -2.218  -3.242 -14.377  1.00 69.24 LIG 0.16  HD
BRANCH 10 12
ATOM     12  CA  THR R   6      -1.968  -4.603 -12.970  1.00 55.31 LIG 0.20  C 
BRANCH 12 13
ATOM     13  CB  THR R   6      -2.542  -5.653 -13.947  1.00 60.29 LIG 0.15  C 
ATOM     14  CG2 THR R   6      -1.787  -5.634 -15.268  1.00 62.01 LIG 0.04  C 
BRANCH 13 15
ATOM     15 OG1  THR R   6      -2.436  -6.959 -13.367  1.00 91.48 LIG-0.39  OA
ATOM     16 HG1  THR R   6      -1.726  -7.324 -13.627  1.00 91.48 LIG 0.21  HD
ENDBRANCH 13 15
ENDBRANCH 12 13
BRANCH 12 17
ATOM     17  C   THR R   6      -0.545  -4.990 -12.596  1.00 56.48 LIG 0.24  C 
ATOM     18  N   LEU R   7      -0.399  -5.671 -11.462  1.00 43.78 LIG-0.35  N 
ATOM     19 H    LEU R   7      -1.054  -5.908 -10.957  1.00 43.78 LIG 0.16  HD
ATOM     20 O    THR R   6       0.403  -4.673 -13.320  1.00 41.48 LIG-0.27  OA
BRANCH 18 21
ATOM     21  CA  LEU R   7       0.914  -6.080 -10.980  1.00 53.52 LIG 0.16  C 
BRANCH 21 22
ATOM     22  CB  LEU R   7       1.808  -4.856 -10.768  1.00 41.32 LIG 0.04  C 
BRANCH 22 23
ATOM     23  CG  LEU R   7       2.867  -5.010  -9.672  1.00 48.65 LIG-0.02  C 
ATOM     24  CD1 LEU R   7       3.994  -5.936 -10.112  1.00 40.28 LIG 0.01  C 
ATOM     25  CD2 LEU R   7       3.419  -3.652  -9.257  1.00 37.72 LIG 0.01  C 
ENDBRANCH 22 23
ENDBRANCH 21 22
BRANCH 21 26
ATOM     26  C   LEU R   7       0.808  -6.897  -9.694  1.00 46.73 LIG 0.22  C 
ATOM     27 O    LEU R   7      -0.255  -6.961  -9.075  1.00 57.50 LIG-0.29  OA
ENDBRANCH 21 26
ENDBRANCH 18 21
ENDBRANCH 12 17
ENDBRANCH 10 12
ENDBRANCH 4 8
BRANCH 1 28
ATOM     28  CA  PRO R   4       0.940  -1.450 -16.439  1.00 54.23 LIG 0.18  C 
ATOM     29  N   PRO R   4       2.394  -1.277 -16.372  1.00 66.40 LIG-0.34  N 
ATOM     30  CD  PRO R   4       3.079  -2.578 -16.371  1.00 55.20 LIG 0.13  C 
ATOM     31  C   MET R   3       3.096  -0.131 -16.423  1.00 65.13 LIG 0.26  C 
ATOM     32  CG  PRO R   4       2.174  -3.410 -17.221  1.00 51.34 LIG 0.02  C 
ATOM     33  CB  PRO R   4       0.781  -2.891 -16.961  1.00 43.90 LIG 0.04  C 
ATOM     34 O    MET R   3       4.322  -0.099 -16.292  1.00 74.37 LIG-0.27  OA
BRANCH 31 35
ATOM     35  CA  MET R   3       2.320   1.163 -16.662  1.00 67.30 LIG 0.40  C 
ATOM     36  N   MET R   3       1.403   1.074 -17.795  1.00 55.69 LIG 0.61  N 
BRANCH 35 37
ATOM     37  CB  MET R   3       1.564   1.523 -15.377  1.00 55.44 LIG 0.06  C 
BRANCH 37 38
ATOM     38  CG  MET R   3       0.383   2.450 -15.562  1.00 49.90 LIG 0.08  C 
BRANCH 38 39
ATOM     39 SD   MET R   3      -0.597   2.505 -14.050  1.00 67.63 LIG-0.17  SA
ATOM     40  CE  MET R   3       0.495   1.663 -12.906  1.00 69.90 LIG 0.09  C 
ENDBRANCH 38 39
ENDBRANCH 37 38
ENDBRANCH 35 37
ENDBRANCH 31 35
ENDBRANCH 1 28
TORSDOF 14
ENDMDL
MODEL 101
USER: ADFR SOLUTION from run 10
USER: SCORE 11.033541 LL:  -3.039 LR:  -8.924 RR:   0.000 FEB:  -4.748
USER: RMSD 7.383322
USER: SEED 186913
USER: STATUS no improvement in best in 10 clusters for 5 generations
USER: GENES 16
USER: genes 0 Translation |==|  0.28279 0.29358 0.60996
USER: genes 1 Rotation |==|  0.88630 0.26638 0.71282 0.53000
USER: genes 2 Torsion [N]-CA--C-[N] |==|  0.38937
USER: genes 3 Torsion [C]-N--CA-[CB] |==|  0.22466
USER: genes 4 Torsion [N]-CA--CB-[CG2] |==|  0.15439
USER: genes 5 Torsion [CA]-CB--OG1-[HG1] |==|  0.59226
USER: genes 6 Torsion [N]-CA--C-[N] |==|  0.42222
USER: genes 7 Torsion [C]-N--CA-[CB] |==|  0.82127
USER: genes 8 Torsion [N]-CA--CB-[CG] |==|  0.81705
USER: genes 9 Torsion [CA]-CB--CG-[CD1] |==|  0.99124
USER: genes 10 Torsion [N]-CA--C-[O] |==|  0.60751
USER: genes 11 Torsion [O]-C--CA-[N] |==|  0.88506
USER: genes 12 Torsion [N]-C--CA-[N] |==|  0.27001
USER: genes 13 Torsion [C]-CA--CB-[CG] |==|  0.25509
USER: genes 14 Torsion [CA]-CB--CG-[SD] |==|  0.79538
USER: genes 15 Torsion [CB]-CG--SD-[CE] |==|  0.33158
ROOT
ATOM      1  C   PRO R   4       1.856  -4.019 -12.926  1.00 60.54 LIG 0.24  C 
ATOM      2 O    PRO R   4       1.936  -3.549 -11.790  1.00 63.53 LIG-0.27  OA
ATOM      3  N   PRO R   5       2.527  -5.117 -13.318  1.00 48.92 LIG-0.34  N 
ATOM      4  CA  PRO R   5       3.443  -5.809 -12.401  1.00 52.68 LIG 0.18  C 
ATOM      5  CB  PRO R   5       3.976  -6.969 -13.249  1.00 55.54 LIG 0.04  C 
ATOM      6  CG  PRO R   5       2.923  -7.220 -14.262  1.00 46.13 LIG 0.02  C 
ATOM      7  CD  PRO R   5       2.323  -5.874 -14.567  1.00 43.47 LIG 0.13  C 
ENDROOT
BRANCH 4 8
ATOM      8  C   PRO R   5       4.610  -4.939 -11.927  1.00 58.07 LIG 0.24  C 
ATOM      9 O    PRO R   5       5.181  -4.175 -12.710  1.00 51.36 LIG-0.27  OA
ATOM     10  N   THR R   6       4.957  -5.069 -10.649  1.00 69.24 LIG-0.34  N 
ATOM     11 H    THR R   6       4.534  -5.565 -10.089  1.00 69.24 LIG 0.16  HD
BRANCH 10 12
ATOM     12  CA  THR R   6       6.105  -4.370 -10.080  1.00 55.31 LIG 0.20  C 
BRANCH 12 13
ATOM     13  CB  THR R   6       5.760  -2.907  -9.722  1.00 60.29 LIG 0.15  C 
ATOM     14  CG2 THR R   6       4.563  -2.845  -8.786  1.00 62.01 LIG 0.04  C 
BRANCH 13 15
ATOM     15 OG1  THR R   6       6.885  -2.290  -9.083  1.00 91.48 LIG-0.39  OA
ATOM     16 HG1  THR R   6       6.614  -1.735  -8.514  1.00 91.48 LIG 0.21  HD
ENDBRANCH 13 15
ENDBRANCH 12 13
BRANCH 12 17
ATOM     17  C   THR R   6       6.578  -5.095  -8.829  1.00 56.48 LIG 0.24  C 
ATOM     18  N   LEU R   7       7.869  -4.972  -8.531  1.00 43.78 LIG-0.35  N 
ATOM     19 H    LEU R   7       8.426  -4.504  -8.991  1.00 43.78 LIG 0.16  HD
ATOM     20 O    THR R   6       5.789  -5.756  -8.150  1.00 41.48 LIG-0.27  OA
BRANCH 18 21
ATOM     21  CA  LEU R   7       8.453  -5.637  -7.374  1.00 53.52 LIG 0.16  C 
BRANCH 21 22
ATOM     22  CB  LEU R   7       7.845  -5.089  -6.081  1.00 41.32 LIG 0.04  C 
BRANCH 22 23
ATOM     23  CG  LEU R   7       8.167  -3.621  -5.785  1.00 48.65 LIG-0.02  C 
ATOM     24  CD1 LEU R   7       9.108  -3.035  -6.831  1.00 40.28 LIG 0.01  C 
ATOM     25  CD2 LEU R   7       6.891  -2.794  -5.688  1.00 37.72 LIG 0.01  C 
ENDBRANCH 22 23
ENDBRANCH 21 22
BRANCH 21 26
ATOM     26  C   LEU R   7       8.275  -7.152  -7.450  1.00 46.73 LIG 0.22  C 
ATOM     27 O    LEU R   7       8.018  -7.807  -6.439  1.00 57.50 LIG-0.29  OA
ENDBRANCH 21 26
ENDBRANCH 18 21
ENDBRANCH 12 17
ENDBRANCH 10 12
ENDBRANCH 4 8
BRANCH 1 28
ATOM     28  CA  PRO R   4       0.949  -3.334 -13.948  1.00 54.23 LIG 0.18  C 
ATOM     29  N   PRO R   4      -0.304  -2.930 -13.306  1.00 66.40 LIG-0.34  N 
ATOM     30  CD  PRO R   4      -0.271  -1.507 -12.935  1.00 55.20 LIG 0.13  C 
ATOM     31  C   MET R   3      -1.425  -3.655 -13.146  1.00 65.13 LIG 0.26  C 
ATOM     32  CG  PRO R   4       0.573  -0.920 -14.020  1.00 51.34 LIG 0.02  C 
ATOM     33  CB  PRO R   4       1.568  -1.993 -14.388  1.00 43.90 LIG 0.04  C 
ATOM     34 O    MET R   3      -2.405  -3.231 -12.528  1.00 74.37 LIG-0.27  OA
BRANCH 31 35
ATOM     35  CA  MET R   3      -1.460  -5.048 -13.769  1.00 67.30 LIG 0.40  C 
ATOM     36  N   MET R   3      -1.135  -6.106 -12.816  1.00 55.69 LIG 0.61  N 
BRANCH 35 37
ATOM     37  CB  MET R   3      -2.849  -5.276 -14.379  1.00 55.44 LIG 0.06  C 
BRANCH 37 38
ATOM     38  CG  MET R   3      -2.986  -4.892 -15.836  1.00 49.90 LIG 0.08  C 
BRANCH 38 39
ATOM     39 SD   MET R   3      -3.023  -3.097 -15.997  1.00 67.63 LIG-0.17  SA
ATOM     40  CE  MET R   3      -1.580  -2.817 -17.021  1.00 69.90 LIG 0.09  C 
ENDBRANCH 38 39
ENDBRANCH 37 38
ENDBRANCH 35 37
ENDBRANCH 31 35
ENDBRANCH 1 28
TORSDOF 14
ENDMDL
MODEL 102
USER: ADFR SOLUTION from run 69
USER: SCORE 11.417952 LL:  -2.719 LR:  -8.914 RR:   0.000 FEB:  -4.737
USER: RMSD 10.788105
USER: SEED 68
USER: STATUS no improvement in best in 14 clusters for 5 generations
USER: GENES 16
USER: genes 0 Translation |==|  0.53915 0.22017 0.80853
USER: genes 1 Rotation |==|  0.21680 0.09410 0.44485 0.54474
USER: genes 2 Torsion [N]-CA--C-[N] |==|  0.88810
USER: genes 3 Torsion [C]-N--CA-[CB] |==|  0.83889
USER: genes 4 Torsion [N]-CA--CB-[CG2] |==|  0.49794
USER: genes 5 Torsion [CA]-CB--OG1-[HG1] |==|  0.31880
USER: genes 6 Torsion [N]-CA--C-[N] |==|  0.44067
USER: genes 7 Torsion [C]-N--CA-[CB] |==|  0.53569
USER: genes 8 Torsion [N]-CA--CB-[CG] |==|  0.75880
USER: genes 9 Torsion [CA]-CB--CG-[CD1] |==|  0.45866
USER: genes 10 Torsion [N]-CA--C-[O] |==|  0.43602
USER: genes 11 Torsion [O]-C--CA-[N] |==|  0.93511
USER: genes 12 Torsion [N]-C--CA-[N] |==|  0.84827
USER: genes 13 Torsion [C]-CA--CB-[CG] |==|  0.30448
USER: genes 14 Torsion [CA]-CB--CG-[SD] |==|  0.63726
USER: genes 15 Torsion [CB]-CG--SD-[CE] |==|  0.11880
ROOT
ATOM      1  C   PRO R   4       6.471  -5.506  -8.905  1.00 60.54 LIG 0.24  C 
ATOM      2 O    PRO R   4       5.684  -5.521  -7.956  1.00 63.53 LIG-0.27  OA
ATOM      3  N   PRO R   5       6.443  -4.569  -9.870  1.00 48.92 LIG-0.34  N 
ATOM      4  CA  PRO R   5       5.424  -3.510  -9.864  1.00 52.68 LIG 0.18  C 
ATOM      5  CB  PRO R   5       5.761  -2.694 -11.118  1.00 55.54 LIG 0.04  C 
ATOM      6  CG  PRO R   5       7.207  -2.927 -11.350  1.00 46.13 LIG 0.02  C 
ATOM      7  CD  PRO R   5       7.468  -4.340 -10.904  1.00 43.47 LIG 0.13  C 
ENDROOT
BRANCH 4 8
ATOM      8  C   PRO R   5       3.990  -4.038  -9.964  1.00 58.07 LIG 0.24  C 
ATOM      9 O    PRO R   5       3.089  -3.535  -9.288  1.00 51.36 LIG-0.27  OA
ATOM     10  N   THR R   6       3.796  -5.052 -10.802  1.00 69.24 LIG-0.34  N 
ATOM     11 H    THR R   6       4.411  -5.376 -11.309  1.00 69.24 LIG 0.16  HD
BRANCH 10 12
ATOM     12  CA  THR R   6       2.503  -5.714 -10.936  1.00 55.31 LIG 0.20  C 
BRANCH 12 13
ATOM     13  CB  THR R   6       2.015  -6.289  -9.587  1.00 60.29 LIG 0.15  C 
ATOM     14  CG2 THR R   6       0.659  -6.959  -9.743  1.00 62.01 LIG 0.04  C 
BRANCH 13 15
ATOM     15 OG1  THR R   6       2.960  -7.254  -9.105  1.00 91.48 LIG-0.39  OA
ATOM     16 HG1  THR R   6       3.308  -6.974  -8.394  1.00 91.48 LIG 0.21  HD
ENDBRANCH 13 15
ENDBRANCH 12 13
BRANCH 12 17
ATOM     17  C   THR R   6       1.472  -4.727 -11.463  1.00 56.48 LIG 0.24  C 
ATOM     18  N   LEU R   7       0.397  -5.253 -12.045  1.00 43.78 LIG-0.35  N 
ATOM     19 H    LEU R   7       0.257  -6.099 -12.120  1.00 43.78 LIG 0.16  HD
ATOM     20 O    THR R   6       1.651  -3.512 -11.348  1.00 41.48 LIG-0.27  OA
BRANCH 18 21
ATOM     21  CA  LEU R   7      -0.651  -4.415 -12.613  1.00 53.52 LIG 0.16  C 
BRANCH 21 22
ATOM     22  CB  LEU R   7      -1.893  -5.253 -12.922  1.00 41.32 LIG 0.04  C 
BRANCH 22 23
ATOM     23  CG  LEU R   7      -1.896  -5.923 -14.300  1.00 48.65 LIG-0.02  C 
ATOM     24  CD1 LEU R   7      -2.962  -7.008 -14.389  1.00 40.28 LIG 0.01  C 
ATOM     25  CD2 LEU R   7      -2.086  -4.891 -15.405  1.00 37.72 LIG 0.01  C 
ENDBRANCH 22 23
ENDBRANCH 21 22
BRANCH 21 26
ATOM     26  C   LEU R   7      -1.003  -3.254 -11.686  1.00 46.73 LIG 0.22  C 
ATOM     27 O    LEU R   7      -1.526  -2.231 -12.129  1.00 57.50 LIG-0.29  OA
ENDBRANCH 21 26
ENDBRANCH 18 21
ENDBRANCH 12 17
ENDBRANCH 10 12
ENDBRANCH 4 8
BRANCH 1 28
ATOM     28  CA  PRO R   4       7.539  -6.595  -8.999  1.00 54.23 LIG 0.18  C 
ATOM     29  N   PRO R   4       7.795  -7.154  -7.669  1.00 66.40 LIG-0.34  N 
ATOM     30  CD  PRO R   4       7.058  -8.411  -7.475  1.00 55.20 LIG 0.13  C 
ATOM     31  C   MET R   3       8.659  -6.714  -6.737  1.00 65.13 LIG 0.26  C 
ATOM     32  CG  PRO R   4       7.049  -8.986  -8.854  1.00 51.34 LIG 0.02  C 
ATOM     33  CB  PRO R   4       6.994  -7.801  -9.788  1.00 43.90 LIG 0.04  C 
ATOM     34 O    MET R   3       8.747  -7.227  -5.620  1.00 74.37 LIG-0.27  OA
BRANCH 31 35
ATOM     35  CA  MET R   3       9.560  -5.537  -7.109  1.00 67.30 LIG 0.40  C 
ATOM     36  N   MET R   3      10.328  -5.773  -8.328  1.00 55.69 LIG 0.61  N 
BRANCH 35 37
ATOM     37  CB  MET R   3       8.691  -4.282  -7.249  1.00 55.44 LIG 0.06  C 
BRANCH 37 38
ATOM     38  CG  MET R   3       8.872  -3.245  -6.162  1.00 49.90 LIG 0.08  C 
BRANCH 38 39
ATOM     39 SD   MET R   3       7.266  -2.747  -5.513  1.00 67.63 LIG-0.17  SA
ATOM     40  CE  MET R   3       6.441  -4.333  -5.391  1.00 69.90 LIG 0.09  C 
ENDBRANCH 38 39
ENDBRANCH 37 38
ENDBRANCH 35 37
ENDBRANCH 31 35
ENDBRANCH 1 28
TORSDOF 14
ENDMDL
MODEL 103
USER: ADFR SOLUTION from run 118
USER: SCORE 11.653559 LL:  -3.132 LR:  -8.905 RR:   0.000 FEB:  -4.729
USER: RMSD 8.286844
USER: SEED 117
USER: STATUS no improvement in best in 25 clusters for 5 generations
USER: GENES 16
USER: genes 0 Translation |==|  0.28095 0.32416 0.54442
USER: genes 1 Rotation |==|  0.01900 0.61004 0.41942 0.50644
USER: genes 2 Torsion [N]-CA--C-[N] |==|  0.99703
USER: genes 3 Torsion [C]-N--CA-[CB] |==|  0.54085
USER: genes 4 Torsion [N]-CA--CB-[CG2] |==|  0.71585
USER: genes 5 Torsion [CA]-CB--OG1-[HG1] |==|  0.21385
USER: genes 6 Torsion [N]-CA--C-[N] |==|  0.38892
USER: genes 7 Torsion [C]-N--CA-[CB] |==|  0.80956
USER: genes 8 Torsion [N]-CA--CB-[CG] |==|  0.84969
USER: genes 9 Torsion [CA]-CB--CG-[CD1] |==|  0.29578
USER: genes 10 Torsion [N]-CA--C-[O] |==|  0.66293
USER: genes 11 Torsion [O]-C--CA-[N] |==|  0.98348
USER: genes 12 Torsion [N]-C--CA-[N] |==|  0.85578
USER: genes 13 Torsion [C]-CA--CB-[CG] |==|  0.25939
USER: genes 14 Torsion [CA]-CB--CG-[SD] |==|  0.07948
USER: genes 15 Torsion [CB]-CG--SD-[CE] |==|  0.42274
ROOT
ATOM      1  C   PRO R   4       1.823  -3.400 -14.253  1.00 60.54 LIG 0.24  C 
ATOM      2 O    PRO R   4       2.256  -2.972 -13.181  1.00 63.53 LIG-0.27  OA
ATOM      3  N   PRO R   5       2.614  -3.899 -15.220  1.00 48.92 LIG-0.34  N 
ATOM      4  CA  PRO R   5       4.074  -3.926 -15.062  1.00 52.68 LIG 0.18  C 
ATOM      5  CB  PRO R   5       4.556  -4.556 -16.374  1.00 55.54 LIG 0.04  C 
ATOM      6  CG  PRO R   5       3.414  -5.373 -16.850  1.00 46.13 LIG 0.02  C 
ATOM      7  CD  PRO R   5       2.177  -4.631 -16.423  1.00 43.47 LIG 0.13  C 
ENDROOT
BRANCH 4 8
ATOM      8  C   PRO R   5       4.699  -2.538 -14.897  1.00 58.07 LIG 0.24  C 
ATOM      9 O    PRO R   5       5.915  -2.415 -14.728  1.00 51.36 LIG-0.27  OA
ATOM     10  N   THR R   6       3.859  -1.508 -14.940  1.00 69.24 LIG-0.34  N 
ATOM     11 H    THR R   6       3.018  -1.586 -15.103  1.00 69.24 LIG 0.16  HD
BRANCH 10 12
ATOM     12  CA  THR R   6       4.298  -0.136 -14.711  1.00 55.31 LIG 0.20  C 
BRANCH 12 13
ATOM     13  CB  THR R   6       3.103   0.810 -14.456  1.00 60.29 LIG 0.15  C 
ATOM     14  CG2 THR R   6       2.786   1.630 -15.697  1.00 62.01 LIG 0.04  C 
BRANCH 13 15
ATOM     15 OG1  THR R   6       1.948   0.040 -14.098  1.00 91.48 LIG-0.39  OA
ATOM     16 HG1  THR R   6       2.015  -0.211 -13.299  1.00 91.48 LIG 0.21  HD
ENDBRANCH 13 15
ENDBRANCH 12 13
BRANCH 12 17
ATOM     17  C   THR R   6       5.238  -0.090 -13.515  1.00 56.48 LIG 0.24  C 
ATOM     18  N   LEU R   7       6.290   0.718 -13.625  1.00 43.78 LIG-0.35  N 
ATOM     19 H    LEU R   7       6.448   1.210 -14.312  1.00 43.78 LIG 0.16  HD
ATOM     20 O    THR R   6       5.016  -0.778 -12.516  1.00 41.48 LIG-0.27  OA
BRANCH 18 21
ATOM     21  CA  LEU R   7       7.278   0.833 -12.560  1.00 53.52 LIG 0.16  C 
BRANCH 21 22
ATOM     22  CB  LEU R   7       6.667   1.519 -11.337  1.00 41.32 LIG 0.04  C 
BRANCH 22 23
ATOM     23  CG  LEU R   7       6.015   2.877 -11.613  1.00 48.65 LIG-0.02  C 
ATOM     24  CD1 LEU R   7       4.495   2.785 -11.571  1.00 40.28 LIG 0.01  C 
ATOM     25  CD2 LEU R   7       6.517   3.929 -10.632  1.00 37.72 LIG 0.01  C 
ENDBRANCH 22 23
ENDBRANCH 21 22
BRANCH 21 26
ATOM     26  C   LEU R   7       7.853  -0.530 -12.181  1.00 46.73 LIG 0.22  C 
ATOM     27 O    LEU R   7       7.757  -0.955 -11.028  1.00 57.50 LIG-0.29  OA
ENDBRANCH 21 26
ENDBRANCH 18 21
ENDBRANCH 12 17
ENDBRANCH 10 12
ENDBRANCH 4 8
BRANCH 1 28
ATOM     28  CA  PRO R   4       0.316  -3.373 -14.507  1.00 54.23 LIG 0.18  C 
ATOM     29  N   PRO R   4      -0.383  -2.938 -13.294  1.00 66.40 LIG-0.34  N 
ATOM     30  CD  PRO R   4      -0.720  -1.509 -13.365  1.00 55.20 LIG 0.13  C 
ATOM     31  C   MET R   3      -0.805  -3.693 -12.265  1.00 65.13 LIG 0.26  C 
ATOM     32  CG  PRO R   4      -0.966  -1.316 -14.826  1.00 51.34 LIG 0.02  C 
ATOM     33  CB  PRO R   4      -0.028  -2.270 -15.526  1.00 43.90 LIG 0.04  C 
ATOM     34 O    MET R   3      -1.329  -3.209 -11.259  1.00 74.37 LIG-0.27  OA
BRANCH 31 35
ATOM     35  CA  MET R   3      -0.624  -5.206 -12.377  1.00 67.30 LIG 0.40  C 
ATOM     36  N   MET R   3      -1.166  -5.752 -13.619  1.00 55.69 LIG 0.61  N 
BRANCH 35 37
ATOM     37  CB  MET R   3       0.869  -5.530 -12.247  1.00 55.44 LIG 0.06  C 
BRANCH 37 38
ATOM     38  CG  MET R   3       1.338  -5.863 -10.848  1.00 49.90 LIG 0.08  C 
BRANCH 38 39
ATOM     39 SD   MET R   3      -0.013  -6.589  -9.903  1.00 67.63 LIG-0.17  SA
ATOM     40  CE  MET R   3       0.893  -7.611  -8.743  1.00 69.90 LIG 0.09  C 
ENDBRANCH 38 39
ENDBRANCH 37 38
ENDBRANCH 35 37
ENDBRANCH 31 35
ENDBRANCH 1 28
TORSDOF 14
ENDMDL
MODEL 104
USER: ADFR SOLUTION from run 66
USER: SCORE 11.475239 LL:  -2.952 LR:  -8.912 RR:   0.000 FEB:  -4.736
USER: RMSD 9.971586
USER: SEED 65
USER: STATUS no improvement in best in 23 clusters for 5 generations
USER: GENES 16
USER: genes 0 Translation |==|  0.26964 0.39622 0.54669
USER: genes 1 Rotation |==|  0.39527 0.51477 0.98599 0.55127
USER: genes 2 Torsion [N]-CA--C-[N] |==|  0.98121
USER: genes 3 Torsion [C]-N--CA-[CB] |==|  0.55594
USER: genes 4 Torsion [N]-CA--CB-[CG2] |==|  0.69091
USER: genes 5 Torsion [CA]-CB--OG1-[HG1] |==|  0.10615
USER: genes 6 Torsion [N]-CA--C-[N] |==|  0.35556
USER: genes 7 Torsion [C]-N--CA-[CB] |==|  0.37915
USER: genes 8 Torsion [N]-CA--CB-[CG] |==|  0.08325
USER: genes 9 Torsion [CA]-CB--CG-[CD1] |==|  0.20093
USER: genes 10 Torsion [N]-CA--C-[O] |==|  0.02488
USER: genes 11 Torsion [O]-C--CA-[N] |==|  0.79475
USER: genes 12 Torsion [N]-C--CA-[N] |==|  0.36162
USER: genes 13 Torsion [C]-CA--CB-[CG] |==|  0.40968
USER: genes 14 Torsion [CA]-CB--CG-[SD] |==|  0.19007
USER: genes 15 Torsion [CB]-CG--SD-[CE] |==|  0.37315
ROOT
ATOM      1  C   PRO R   4       1.619  -1.941 -14.207  1.00 60.54 LIG 0.24  C 
ATOM      2 O    PRO R   4       1.666  -1.280 -15.247  1.00 63.53 LIG-0.27  OA
ATOM      3  N   PRO R   5       0.570  -1.918 -13.366  1.00 48.92 LIG-0.34  N 
ATOM      4  CA  PRO R   5      -0.589  -1.054 -13.630  1.00 52.68 LIG 0.18  C 
ATOM      5  CB  PRO R   5      -1.514  -1.339 -12.441  1.00 55.54 LIG 0.04  C 
ATOM      6  CG  PRO R   5      -1.149  -2.703 -11.989  1.00 46.13 LIG 0.02  C 
ATOM      7  CD  PRO R   5       0.330  -2.830 -12.234  1.00 43.47 LIG 0.13  C 
ENDROOT
BRANCH 4 8
ATOM      8  C   PRO R   5      -0.246   0.438 -13.668  1.00 58.07 LIG 0.24  C 
ATOM      9 O    PRO R   5      -1.094   1.268 -14.007  1.00 51.36 LIG-0.27  OA
ATOM     10  N   THR R   6       0.998   0.763 -13.326  1.00 69.24 LIG-0.34  N 
ATOM     11 H    THR R   6       1.579   0.194 -13.045  1.00 69.24 LIG 0.16  HD
BRANCH 10 12
ATOM     12  CA  THR R   6       1.493   2.133 -13.400  1.00 55.31 LIG 0.20  C 
BRANCH 12 13
ATOM     13  CB  THR R   6       3.037   2.179 -13.441  1.00 60.29 LIG 0.15  C 
ATOM     14  CG2 THR R   6       3.596   2.770 -12.155  1.00 62.01 LIG 0.04  C 
BRANCH 13 15
ATOM     15 OG1  THR R   6       3.555   0.853 -13.609  1.00 91.48 LIG-0.39  OA
ATOM     16 HG1  THR R   6       3.062   0.425 -14.137  1.00 91.48 LIG 0.21  HD
ENDBRANCH 13 15
ENDBRANCH 12 13
BRANCH 12 17
ATOM     17  C   THR R   6       0.937   2.814 -14.642  1.00 56.48 LIG 0.24  C 
ATOM     18  N   LEU R   7       0.340   3.987 -14.451  1.00 43.78 LIG-0.35  N 
ATOM     19 H    LEU R   7       0.270   4.372 -13.685  1.00 43.78 LIG 0.16  HD
ATOM     20 O    THR R   6       1.044   2.282 -15.750  1.00 41.48 LIG-0.27  OA
BRANCH 18 21
ATOM     21  CA  LEU R   7      -0.256   4.729 -15.555  1.00 53.52 LIG 0.16  C 
BRANCH 21 22
ATOM     22  CB  LEU R   7      -1.620   5.290 -15.146  1.00 41.32 LIG 0.04  C 
BRANCH 22 23
ATOM     23  CG  LEU R   7      -1.764   5.619 -13.657  1.00 48.65 LIG-0.02  C 
ATOM     24  CD1 LEU R   7      -0.967   6.861 -13.280  1.00 40.28 LIG 0.01  C 
ATOM     25  CD2 LEU R   7      -3.231   5.786 -13.278  1.00 37.72 LIG 0.01  C 
ENDBRANCH 22 23
ENDBRANCH 21 22
BRANCH 21 26
ATOM     26  C   LEU R   7       0.663   5.849 -16.037  1.00 46.73 LIG 0.22  C 
ATOM     27 O    LEU R   7       1.819   5.938 -15.621  1.00 57.50 LIG-0.29  OA
ENDBRANCH 21 26
ENDBRANCH 18 21
ENDBRANCH 12 17
ENDBRANCH 10 12
ENDBRANCH 4 8
BRANCH 1 28
ATOM     28  CA  PRO R   4       2.803  -2.838 -13.848  1.00 54.23 LIG 0.18  C 
ATOM     29  N   PRO R   4       2.808  -4.022 -14.711  1.00 66.40 LIG-0.34  N 
ATOM     30  CD  PRO R   4       3.750  -3.856 -15.827  1.00 55.20 LIG 0.13  C 
ATOM     31  C   MET R   3       2.166  -5.189 -14.522  1.00 65.13 LIG 0.26  C 
ATOM     32  CG  PRO R   4       4.825  -3.023 -15.209  1.00 51.34 LIG 0.02  C 
ATOM     33  CB  PRO R   4       4.127  -2.136 -14.207  1.00 43.90 LIG 0.04  C 
ATOM     34 O    MET R   3       2.190  -6.100 -15.353  1.00 74.37 LIG-0.27  OA
BRANCH 31 35
ATOM     35  CA  MET R   3       1.393  -5.367 -13.217  1.00 67.30 LIG 0.40  C 
ATOM     36  N   MET R   3       0.027  -5.839 -13.425  1.00 55.69 LIG 0.61  N 
BRANCH 35 37
ATOM     37  CB  MET R   3       2.171  -6.334 -12.317  1.00 55.44 LIG 0.06  C 
BRANCH 37 38
ATOM     38  CG  MET R   3       2.051  -6.072 -10.831  1.00 49.90 LIG 0.08  C 
BRANCH 38 39
ATOM     39 SD   MET R   3       0.374  -6.428 -10.278  1.00 67.63 LIG-0.17  SA
ATOM     40  CE  MET R   3       0.699  -7.371  -8.789  1.00 69.90 LIG 0.09  C 
ENDBRANCH 38 39
ENDBRANCH 37 38
ENDBRANCH 35 37
ENDBRANCH 31 35
ENDBRANCH 1 28
TORSDOF 14
ENDMDL
MODEL 105
USER: ADFR SOLUTION from run 96
USER: SCORE 11.268695 LL:  -3.010 LR:  -8.905 RR:   0.000 FEB:  -4.729
USER: RMSD 10.058946
USER: SEED 95
USER: STATUS no improvement in best in 19 clusters for 5 generations
USER: GENES 16
USER: genes 0 Translation |==|  0.54525 0.29051 0.80059
USER: genes 1 Rotation |==|  0.11275 0.57011 0.79398 0.59324
USER: genes 2 Torsion [N]-CA--C-[N] |==|  0.65502
USER: genes 3 Torsion [C]-N--CA-[CB] |==|  0.20742
USER: genes 4 Torsion [N]-CA--CB-[CG2] |==|  0.44890
USER: genes 5 Torsion [CA]-CB--OG1-[HG1] |==|  0.01841
USER: genes 6 Torsion [N]-CA--C-[N] |==|  0.85533
USER: genes 7 Torsion [C]-N--CA-[CB] |==|  0.83253
USER: genes 8 Torsion [N]-CA--CB-[CG] |==|  0.70942
USER: genes 9 Torsion [CA]-CB--CG-[CD1] |==|  0.67997
USER: genes 10 Torsion [N]-CA--C-[O] |==|  0.47283
USER: genes 11 Torsion [O]-C--CA-[N] |==|  0.86237
USER: genes 12 Torsion [N]-C--CA-[N] |==|  0.25811
USER: genes 13 Torsion [C]-CA--CB-[CG] |==|  0.43534
USER: genes 14 Torsion [CA]-CB--CG-[SD] |==|  0.98900
USER: genes 15 Torsion [CB]-CG--SD-[CE] |==|  0.56275
ROOT
ATOM      1  C   PRO R   4       6.580  -4.081  -9.066  1.00 60.54 LIG 0.24  C 
ATOM      2 O    PRO R   4       7.782  -3.891  -9.261  1.00 63.53 LIG-0.27  OA
ATOM      3  N   PRO R   5       5.627  -3.729  -9.947  1.00 48.92 LIG-0.34  N 
ATOM      4  CA  PRO R   5       5.973  -3.048 -11.201  1.00 52.68 LIG 0.18  C 
ATOM      5  CB  PRO R   5       4.610  -2.839 -11.873  1.00 55.54 LIG 0.04  C 
ATOM      6  CG  PRO R   5       3.743  -3.907 -11.321  1.00 46.13 LIG 0.02  C 
ATOM      7  CD  PRO R   5       4.204  -4.115  -9.904  1.00 43.47 LIG 0.13  C 
ENDROOT
BRANCH 4 8
ATOM      8  C   PRO R   5       6.658  -1.694 -10.996  1.00 58.07 LIG 0.24  C 
ATOM      9 O    PRO R   5       7.682  -1.607 -10.314  1.00 51.36 LIG-0.27  OA
ATOM     10  N   THR R   6       6.080  -0.649 -11.583  1.00 69.24 LIG-0.34  N 
ATOM     11 H    THR R   6       5.393  -0.711 -12.096  1.00 69.24 LIG 0.16  HD
BRANCH 10 12
ATOM     12  CA  THR R   6       6.569   0.713 -11.403  1.00 55.31 LIG 0.20  C 
BRANCH 12 13
ATOM     13  CB  THR R   6       7.869   0.962 -12.201  1.00 60.29 LIG 0.15  C 
ATOM     14  CG2 THR R   6       8.120   2.451 -12.379  1.00 62.01 LIG 0.04  C 
BRANCH 13 15
ATOM     15 OG1  THR R   6       8.980   0.381 -11.505  1.00 91.48 LIG-0.39  OA
ATOM     16 HG1  THR R   6       8.699  -0.058 -10.847  1.00 91.48 LIG 0.21  HD
ENDBRANCH 13 15
ENDBRANCH 12 13
BRANCH 12 17
ATOM     17  C   THR R   6       5.506   1.704 -11.853  1.00 56.48 LIG 0.24  C 
ATOM     18  N   LEU R   7       5.007   1.518 -13.073  1.00 43.78 LIG-0.35  N 
ATOM     19 H    LEU R   7       5.240   0.874 -13.594  1.00 43.78 LIG 0.16  HD
ATOM     20 O    THR R   6       5.150   2.622 -11.111  1.00 41.48 LIG-0.27  OA
BRANCH 18 21
ATOM     21  CA  LEU R   7       4.002   2.412 -13.632  1.00 53.52 LIG 0.16  C 
BRANCH 21 22
ATOM     22  CB  LEU R   7       2.744   2.411 -12.761  1.00 41.32 LIG 0.04  C 
BRANCH 22 23
ATOM     23  CG  LEU R   7       1.560   1.625 -13.333  1.00 48.65 LIG-0.02  C 
ATOM     24  CD1 LEU R   7       0.386   2.541 -13.653  1.00 40.28 LIG 0.01  C 
ATOM     25  CD2 LEU R   7       1.979   0.837 -14.569  1.00 37.72 LIG 0.01  C 
ENDBRANCH 22 23
ENDBRANCH 21 22
BRANCH 21 26
ATOM     26  C   LEU R   7       4.543   3.831 -13.791  1.00 46.73 LIG 0.22  C 
ATOM     27 O    LEU R   7       3.903   4.683 -14.411  1.00 57.50 LIG-0.29  OA
ENDBRANCH 21 26
ENDBRANCH 18 21
ENDBRANCH 12 17
ENDBRANCH 10 12
ENDBRANCH 4 8
BRANCH 1 28
ATOM     28  CA  PRO R   4       6.139  -4.755  -7.767  1.00 54.23 LIG 0.18  C 
ATOM     29  N   PRO R   4       6.923  -5.973  -7.549  1.00 66.40 LIG-0.34  N 
ATOM     30  CD  PRO R   4       8.029  -5.727  -6.611  1.00 55.20 LIG 0.13  C 
ATOM     31  C   MET R   3       6.672  -7.213  -8.004  1.00 65.13 LIG 0.26  C 
ATOM     32  CG  PRO R   4       7.444  -4.696  -5.701  1.00 51.34 LIG 0.02  C 
ATOM     33  CB  PRO R   4       6.516  -3.873  -6.561  1.00 43.90 LIG 0.04  C 
ATOM     34 O    MET R   3       7.441  -8.158  -7.810  1.00 74.37 LIG-0.27  OA
BRANCH 31 35
ATOM     35  CA  MET R   3       5.374  -7.433  -8.778  1.00 67.30 LIG 0.40  C 
ATOM     36  N   MET R   3       5.543  -7.288 -10.222  1.00 55.69 LIG 0.61  N 
BRANCH 35 37
ATOM     37  CB  MET R   3       4.827  -8.822  -8.431  1.00 55.44 LIG 0.06  C 
BRANCH 37 38
ATOM     38  CG  MET R   3       3.340  -9.002  -8.643  1.00 49.90 LIG 0.08  C 
BRANCH 38 39
ATOM     39 SD   MET R   3       2.598  -7.441  -9.153  1.00 67.63 LIG-0.17  SA
ATOM     40  CE  MET R   3       0.891  -7.703  -8.677  1.00 69.90 LIG 0.09  C 
ENDBRANCH 38 39
ENDBRANCH 37 38
ENDBRANCH 35 37
ENDBRANCH 31 35
ENDBRANCH 1 28
TORSDOF 14
ENDMDL
MODEL 106
USER: ADFR SOLUTION from run 92
USER: SCORE 12.123289 LL:  -3.772 LR:  -8.897 RR:   0.000 FEB:  -4.721
USER: RMSD 9.831328
USER: SEED 91
USER: STATUS no improvement in best in 22 clusters for 5 generations
USER: GENES 16
USER: genes 0 Translation |==|  0.31168 0.26425 0.65232
USER: genes 1 Rotation |==|  0.20013 0.66657 0.86346 0.51519
USER: genes 2 Torsion [N]-CA--C-[N] |==|  0.03317
USER: genes 3 Torsion [C]-N--CA-[CB] |==|  0.80556
USER: genes 4 Torsion [N]-CA--CB-[CG2] |==|  0.63075
USER: genes 5 Torsion [CA]-CB--OG1-[HG1] |==|  0.94466
USER: genes 6 Torsion [N]-CA--C-[N] |==|  0.18150
USER: genes 7 Torsion [C]-N--CA-[CB] |==|  0.32576
USER: genes 8 Torsion [N]-CA--CB-[CG] |==|  0.93861
USER: genes 9 Torsion [CA]-CB--CG-[CD1] |==|  0.22030
USER: genes 10 Torsion [N]-CA--C-[O] |==|  0.20437
USER: genes 11 Torsion [O]-C--CA-[N] |==|  0.96796
USER: genes 12 Torsion [N]-C--CA-[N] |==|  0.36515
USER: genes 13 Torsion [C]-CA--CB-[CG] |==|  0.44479
USER: genes 14 Torsion [CA]-CB--CG-[SD] |==|  0.76744
USER: genes 15 Torsion [CB]-CG--SD-[CE] |==|  0.20829
ROOT
ATOM      1  C   PRO R   4       2.376  -4.613 -12.069  1.00 60.54 LIG 0.24  C 
ATOM      2 O    PRO R   4       3.297  -4.743 -12.878  1.00 63.53 LIG-0.27  OA
ATOM      3  N   PRO R   5       1.105  -4.369 -12.432  1.00 48.92 LIG-0.34  N 
ATOM      4  CA  PRO R   5       0.743  -4.201 -13.846  1.00 52.68 LIG 0.18  C 
ATOM      5  CB  PRO R   5      -0.767  -3.941 -13.792  1.00 55.54 LIG 0.04  C 
ATOM      6  CG  PRO R   5      -1.222  -4.581 -12.535  1.00 46.13 LIG 0.02  C 
ATOM      7  CD  PRO R   5      -0.085  -4.423 -11.563  1.00 43.47 LIG 0.13  C 
ENDROOT
BRANCH 4 8
ATOM      8  C   PRO R   5       1.445  -3.021 -14.524  1.00 58.07 LIG 0.24  C 
ATOM      9 O    PRO R   5       1.083  -2.631 -15.637  1.00 51.36 LIG-0.27  OA
ATOM     10  N   THR R   6       2.449  -2.469 -13.847  1.00 69.24 LIG-0.34  N 
ATOM     11 H    THR R   6       2.675  -2.707 -13.052  1.00 69.24 LIG 0.16  HD
BRANCH 10 12
ATOM     12  CA  THR R   6       3.265  -1.396 -14.403  1.00 55.31 LIG 0.20  C 
BRANCH 12 13
ATOM     13  CB  THR R   6       4.169  -1.903 -15.549  1.00 60.29 LIG 0.15  C 
ATOM     14  CG2 THR R   6       5.595  -1.403 -15.376  1.00 62.01 LIG 0.04  C 
BRANCH 13 15
ATOM     15 OG1  THR R   6       4.174  -3.336 -15.559  1.00 91.48 LIG-0.39  OA
ATOM     16 HG1  THR R   6       3.926  -3.623 -14.810  1.00 91.48 LIG 0.21  HD
ENDBRANCH 13 15
ENDBRANCH 12 13
BRANCH 12 17
ATOM     17  C   THR R   6       2.366  -0.285 -14.927  1.00 56.48 LIG 0.24  C 
ATOM     18  N   LEU R   7       1.645   0.366 -14.017  1.00 43.78 LIG-0.35  N 
ATOM     19 H    LEU R   7       1.676   0.203 -13.173  1.00 43.78 LIG 0.16  HD
ATOM     20 O    THR R   6       2.323  -0.028 -16.132  1.00 41.48 LIG-0.27  OA
BRANCH 18 21
ATOM     21  CA  LEU R   7       0.727   1.434 -14.392  1.00 53.52 LIG 0.16  C 
BRANCH 21 22
ATOM     22  CB  LEU R   7      -0.710   1.052 -14.028  1.00 41.32 LIG 0.04  C 
BRANCH 22 23
ATOM     23  CG  LEU R   7      -0.963  -0.451 -13.879  1.00 48.65 LIG-0.02  C 
ATOM     24  CD1 LEU R   7      -0.482  -0.966 -12.528  1.00 40.28 LIG 0.01  C 
ATOM     25  CD2 LEU R   7      -2.438  -0.776 -14.083  1.00 37.72 LIG 0.01  C 
ENDBRANCH 22 23
ENDBRANCH 21 22
BRANCH 21 26
ATOM     26  C   LEU R   7       1.112   2.759 -13.738  1.00 46.73 LIG 0.22  C 
ATOM     27 O    LEU R   7       2.089   3.395 -14.135  1.00 57.50 LIG-0.29  OA
ENDBRANCH 21 26
ENDBRANCH 18 21
ENDBRANCH 12 17
ENDBRANCH 10 12
ENDBRANCH 4 8
BRANCH 1 28
ATOM     28  CA  PRO R   4       2.680  -4.740 -10.576  1.00 54.23 LIG 0.18  C 
ATOM     29  N   PRO R   4       4.030  -5.277 -10.389  1.00 66.40 LIG-0.34  N 
ATOM     30  CD  PRO R   4       4.993  -4.199 -10.115  1.00 55.20 LIG 0.13  C 
ATOM     31  C   MET R   3       4.410  -6.566 -10.337  1.00 65.13 LIG 0.26  C 
ATOM     32  CG  PRO R   4       4.157  -3.216  -9.362  1.00 51.34 LIG 0.02  C 
ATOM     33  CB  PRO R   4       2.766  -3.341  -9.934  1.00 43.90 LIG 0.04  C 
ATOM     34 O    MET R   3       5.592  -6.905 -10.239  1.00 74.37 LIG-0.27  OA
BRANCH 31 35
ATOM     35  CA  MET R   3       3.314  -7.628 -10.395  1.00 67.30 LIG 0.40  C 
ATOM     36  N   MET R   3       3.596  -8.682 -11.366  1.00 55.69 LIG 0.61  N 
BRANCH 35 37
ATOM     37  CB  MET R   3       3.130  -8.217  -8.991  1.00 55.44 LIG 0.06  C 
BRANCH 37 38
ATOM     38  CG  MET R   3       1.811  -8.919  -8.753  1.00 49.90 LIG 0.08  C 
BRANCH 38 39
ATOM     39 SD   MET R   3       0.546  -7.714  -8.310  1.00 67.63 LIG-0.17  SA
ATOM     40  CE  MET R   3       0.217  -6.963  -9.903  1.00 69.90 LIG 0.09  C 
ENDBRANCH 38 39
ENDBRANCH 37 38
ENDBRANCH 35 37
ENDBRANCH 31 35
ENDBRANCH 1 28
TORSDOF 14
ENDMDL
MODEL 107
USER: ADFR SOLUTION from run 142
USER: SCORE 11.049359 LL:  -3.405 LR:  -8.897 RR:   0.000 FEB:  -4.721
USER: RMSD 10.402032
USER: SEED 141
USER: STATUS no improvement in best in 10 clusters for 5 generations
USER: GENES 16
USER: genes 0 Translation |==|  0.44786 0.25098 0.71565
USER: genes 1 Rotation |==|  0.73969 0.32803 0.15014 0.70142
USER: genes 2 Torsion [N]-CA--C-[N] |==|  0.48397
USER: genes 3 Torsion [C]-N--CA-[CB] |==|  0.42770
USER: genes 4 Torsion [N]-CA--CB-[CG2] |==|  0.93642
USER: genes 5 Torsion [CA]-CB--OG1-[HG1] |==|  0.85289
USER: genes 6 Torsion [N]-CA--C-[N] |==|  0.93333
USER: genes 7 Torsion [C]-N--CA-[CB] |==|  0.83459
USER: genes 8 Torsion [N]-CA--CB-[CG] |==|  0.91150
USER: genes 9 Torsion [CA]-CB--CG-[CD1] |==|  0.51900
USER: genes 10 Torsion [N]-CA--C-[O] |==|  0.12519
USER: genes 11 Torsion [O]-C--CA-[N] |==|  0.89969
USER: genes 12 Torsion [N]-C--CA-[N] |==|  0.35312
USER: genes 13 Torsion [C]-CA--CB-[CG] |==|  0.23598
USER: genes 14 Torsion [CA]-CB--CG-[SD] |==|  0.71146
USER: genes 15 Torsion [CB]-CG--SD-[CE] |==|  0.96187
ROOT
ATOM      1  C   PRO R   4       4.828  -4.882 -10.786  1.00 60.54 LIG 0.24  C 
ATOM      2 O    PRO R   4       5.413  -5.131 -11.842  1.00 63.53 LIG-0.27  OA
ATOM      3  N   PRO R   5       3.622  -5.391 -10.474  1.00 48.92 LIG-0.34  N 
ATOM      4  CA  PRO R   5       2.904  -6.261 -11.416  1.00 52.68 LIG 0.18  C 
ATOM      5  CB  PRO R   5       1.608  -6.591 -10.666  1.00 55.54 LIG 0.04  C 
ATOM      6  CG  PRO R   5       1.948  -6.448  -9.230  1.00 46.13 LIG 0.02  C 
ATOM      7  CD  PRO R   5       2.956  -5.333  -9.160  1.00 43.47 LIG 0.13  C 
ENDROOT
BRANCH 4 8
ATOM      8  C   PRO R   5       2.570  -5.581 -12.746  1.00 58.07 LIG 0.24  C 
ATOM      9 O    PRO R   5       2.798  -4.380 -12.911  1.00 51.36 LIG-0.27  OA
ATOM     10  N   THR R   6       2.027  -6.357 -13.681  1.00 69.24 LIG-0.34  N 
ATOM     11 H    THR R   6       1.909  -7.203 -13.587  1.00 69.24 LIG 0.16  HD
BRANCH 10 12
ATOM     12  CA  THR R   6       1.576  -5.830 -14.964  1.00 55.31 LIG 0.20  C 
BRANCH 12 13
ATOM     13  CB  THR R   6       1.599  -6.914 -16.065  1.00 60.29 LIG 0.15  C 
ATOM     14  CG2 THR R   6       2.571  -8.029 -15.707  1.00 62.01 LIG 0.04  C 
BRANCH 13 15
ATOM     15 OG1  THR R   6       0.287  -7.470 -16.221  1.00 91.48 LIG-0.39  OA
ATOM     16 HG1  THR R   6       0.002  -7.728 -15.475  1.00 91.48 LIG 0.21  HD
ENDBRANCH 13 15
ENDBRANCH 12 13
BRANCH 12 17
ATOM     17  C   THR R   6       0.163  -5.283 -14.827  1.00 56.48 LIG 0.24  C 
ATOM     18  N   LEU R   7      -0.569  -5.786 -13.836  1.00 43.78 LIG-0.35  N 
ATOM     19 H    LEU R   7      -0.282  -6.375 -13.279  1.00 43.78 LIG 0.16  HD
ATOM     20 O    THR R   6      -0.257  -4.426 -15.609  1.00 41.48 LIG-0.27  OA
BRANCH 18 21
ATOM     21  CA  LEU R   7      -1.946  -5.365 -13.614  1.00 53.52 LIG 0.16  C 
BRANCH 21 22
ATOM     22  CB  LEU R   7      -2.007  -3.859 -13.351  1.00 41.32 LIG 0.04  C 
BRANCH 22 23
ATOM     23  CG  LEU R   7      -0.783  -3.275 -12.639  1.00 48.65 LIG-0.02  C 
ATOM     24  CD1 LEU R   7      -0.998  -1.813 -12.269  1.00 40.28 LIG 0.01  C 
ATOM     25  CD2 LEU R   7      -0.432  -4.095 -11.403  1.00 37.72 LIG 0.01  C 
ENDBRANCH 22 23
ENDBRANCH 21 22
BRANCH 21 26
ATOM     26  C   LEU R   7      -2.843  -5.741 -14.791  1.00 46.73 LIG 0.22  C 
ATOM     27 O    LEU R   7      -2.775  -6.861 -15.301  1.00 57.50 LIG-0.29  OA
ENDBRANCH 21 26
ENDBRANCH 18 21
ENDBRANCH 12 17
ENDBRANCH 10 12
ENDBRANCH 4 8
BRANCH 1 28
ATOM     28  CA  PRO R   4       5.496  -3.957  -9.770  1.00 54.23 LIG 0.18  C 
ATOM     29  N   PRO R   4       6.944  -4.181  -9.772  1.00 66.40 LIG-0.34  N 
ATOM     30  CD  PRO R   4       7.633  -3.172 -10.589  1.00 55.20 LIG 0.13  C 
ATOM     31  C   MET R   3       7.644  -5.083  -9.061  1.00 65.13 LIG 0.26  C 
ATOM     32  CG  PRO R   4       6.774  -1.966 -10.388  1.00 51.34 LIG 0.02  C 
ATOM     33  CB  PRO R   4       5.368  -2.490 -10.227  1.00 43.90 LIG 0.04  C 
ATOM     34 O    MET R   3       8.862  -5.228  -9.191  1.00 74.37 LIG-0.27  OA
BRANCH 31 35
ATOM     35  CA  MET R   3       6.877  -5.940  -8.056  1.00 67.30 LIG 0.40  C 
ATOM     36  N   MET R   3       7.106  -7.371  -8.238  1.00 55.69 LIG 0.61  N 
BRANCH 35 37
ATOM     37  CB  MET R   3       7.270  -5.503  -6.640  1.00 55.44 LIG 0.06  C 
BRANCH 37 38
ATOM     38  CG  MET R   3       6.495  -4.326  -6.089  1.00 49.90 LIG 0.08  C 
BRANCH 38 39
ATOM     39 SD   MET R   3       7.511  -2.839  -6.149  1.00 67.63 LIG-0.17  SA
ATOM     40  CE  MET R   3       9.129  -3.544  -6.460  1.00 69.90 LIG 0.09  C 
ENDBRANCH 38 39
ENDBRANCH 37 38
ENDBRANCH 35 37
ENDBRANCH 31 35
ENDBRANCH 1 28
TORSDOF 14
ENDMDL
MODEL 108
USER: ADFR SOLUTION from run 70
USER: SCORE 11.370181 LL:  -2.689 LR:  -8.893 RR:   0.000 FEB:  -4.717
USER: RMSD 8.249492
USER: SEED 69
USER: STATUS no improvement in best in 10 clusters for 5 generations
USER: GENES 16
USER: genes 0 Translation |==|  0.34106 0.26411 0.67375
USER: genes 1 Rotation |==|  0.82797 0.33807 0.82006 0.61738
USER: genes 2 Torsion [N]-CA--C-[N] |==|  0.84430
USER: genes 3 Torsion [C]-N--CA-[CB] |==|  0.76157
USER: genes 4 Torsion [N]-CA--CB-[CG2] |==|  0.09975
USER: genes 5 Torsion [CA]-CB--OG1-[HG1] |==|  0.12434
USER: genes 6 Torsion [N]-CA--C-[N] |==|  0.19718
USER: genes 7 Torsion [C]-N--CA-[CB] |==|  0.85801
USER: genes 8 Torsion [N]-CA--CB-[CG] |==|  0.80624
USER: genes 9 Torsion [CA]-CB--CG-[CD1] |==|  0.94189
USER: genes 10 Torsion [N]-CA--C-[O] |==|  0.71397
USER: genes 11 Torsion [O]-C--CA-[N] |==|  0.97109
USER: genes 12 Torsion [N]-C--CA-[N] |==|  0.84754
USER: genes 13 Torsion [C]-CA--CB-[CG] |==|  0.59218
USER: genes 14 Torsion [CA]-CB--CG-[SD] |==|  0.43550
USER: genes 15 Torsion [CB]-CG--SD-[CE] |==|  0.41553
ROOT
ATOM      1  C   PRO R   4       2.905  -4.616 -11.635  1.00 60.54 LIG 0.24  C 
ATOM      2 O    PRO R   4       2.758  -3.574 -10.992  1.00 63.53 LIG-0.27  OA
ATOM      3  N   PRO R   5       3.552  -5.693 -11.154  1.00 48.92 LIG-0.34  N 
ATOM      4  CA  PRO R   5       4.166  -5.670  -9.819  1.00 52.68 LIG 0.18  C 
ATOM      5  CB  PRO R   5       4.780  -7.069  -9.694  1.00 55.54 LIG 0.04  C 
ATOM      6  CG  PRO R   5       3.975  -7.924 -10.598  1.00 46.13 LIG 0.02  C 
ATOM      7  CD  PRO R   5       3.581  -7.040 -11.750  1.00 43.47 LIG 0.13  C 
ENDROOT
BRANCH 4 8
ATOM      8  C   PRO R   5       5.261  -4.611  -9.665  1.00 58.07 LIG 0.24  C 
ATOM      9 O    PRO R   5       5.188  -3.759  -8.776  1.00 51.36 LIG-0.27  OA
ATOM     10  N   THR R   6       6.262  -4.672 -10.538  1.00 69.24 LIG-0.34  N 
ATOM     11 H    THR R   6       6.341  -5.291 -11.130  1.00 69.24 LIG 0.16  HD
BRANCH 10 12
ATOM     12  CA  THR R   6       7.329  -3.678 -10.569  1.00 55.31 LIG 0.20  C 
BRANCH 12 13
ATOM     13  CB  THR R   6       6.942  -2.453 -11.427  1.00 60.29 LIG 0.15  C 
ATOM     14  CG2 THR R   6       5.462  -2.136 -11.281  1.00 62.01 LIG 0.04  C 
BRANCH 13 15
ATOM     15 OG1  THR R   6       7.707  -1.313 -11.012  1.00 91.48 LIG-0.39  OA
ATOM     16 HG1  THR R   6       8.509  -1.537 -10.909  1.00 91.48 LIG 0.21  HD
ENDBRANCH 13 15
ENDBRANCH 12 13
BRANCH 12 17
ATOM     17  C   THR R   6       7.646  -3.220  -9.153  1.00 56.48 LIG 0.24  C 
ATOM     18  N   LEU R   7       8.262  -4.105  -8.373  1.00 43.78 LIG-0.35  N 
ATOM     19 H    LEU R   7       8.496  -4.891  -8.630  1.00 43.78 LIG 0.16  HD
ATOM     20 O    THR R   6       7.332  -2.089  -8.774  1.00 41.48 LIG-0.27  OA
BRANCH 18 21
ATOM     21  CA  LEU R   7       8.598  -3.798  -6.988  1.00 53.52 LIG 0.16  C 
BRANCH 21 22
ATOM     22  CB  LEU R   7       9.347  -2.467  -6.903  1.00 41.32 LIG 0.04  C 
BRANCH 22 23
ATOM     23  CG  LEU R   7      10.766  -2.485  -7.479  1.00 48.65 LIG-0.02  C 
ATOM     24  CD1 LEU R   7      11.322  -3.902  -7.549  1.00 40.28 LIG 0.01  C 
ATOM     25  CD2 LEU R   7      10.802  -1.825  -8.853  1.00 37.72 LIG 0.01  C 
ENDBRANCH 22 23
ENDBRANCH 21 22
BRANCH 21 26
ATOM     26  C   LEU R   7       7.353  -3.771  -6.104  1.00 46.73 LIG 0.22  C 
ATOM     27 O    LEU R   7       6.859  -2.701  -5.745  1.00 57.50 LIG-0.29  OA
ENDBRANCH 21 26
ENDBRANCH 18 21
ENDBRANCH 12 17
ENDBRANCH 10 12
ENDBRANCH 4 8
BRANCH 1 28
ATOM     28  CA  PRO R   4       2.324  -4.704 -13.045  1.00 54.23 LIG 0.18  C 
ATOM     29  N   PRO R   4       1.451  -3.553 -13.294  1.00 66.40 LIG-0.34  N 
ATOM     30  CD  PRO R   4       2.158  -2.510 -14.051  1.00 55.20 LIG 0.13  C 
ATOM     31  C   MET R   3       0.141  -3.430 -13.015  1.00 65.13 LIG 0.26  C 
ATOM     32  CG  PRO R   4       3.079  -3.314 -14.909  1.00 51.34 LIG 0.02  C 
ATOM     33  CB  PRO R   4       3.443  -4.528 -14.089  1.00 43.90 LIG 0.04  C 
ATOM     34 O    MET R   3      -0.483  -2.385 -13.211  1.00 74.37 LIG-0.27  OA
BRANCH 31 35
ATOM     35  CA  MET R   3      -0.576  -4.651 -12.441  1.00 67.30 LIG 0.40  C 
ATOM     36  N   MET R   3      -0.431  -5.840 -13.277  1.00 55.69 LIG 0.61  N 
BRANCH 35 37
ATOM     37  CB  MET R   3      -0.042  -4.912 -11.028  1.00 55.44 LIG 0.06  C 
BRANCH 37 38
ATOM     38  CG  MET R   3       0.013  -6.367 -10.617  1.00 49.90 LIG 0.08  C 
BRANCH 38 39
ATOM     39 SD   MET R   3       1.230  -6.589  -9.305  1.00 67.63 LIG-0.17  SA
ATOM     40  CE  MET R   3       0.516  -7.966  -8.409  1.00 69.90 LIG 0.09  C 
ENDBRANCH 38 39
ENDBRANCH 37 38
ENDBRANCH 35 37
ENDBRANCH 31 35
ENDBRANCH 1 28
TORSDOF 14
ENDMDL
MODEL 109
USER: ADFR SOLUTION from run 96
USER: SCORE 11.411034 LL:  -2.629 LR:  -8.892 RR:   0.000 FEB:  -4.715
USER: RMSD 6.261071
USER: SEED 95
USER: STATUS no improvement in best in 19 clusters for 5 generations
USER: GENES 16
USER: genes 0 Translation |==|  0.26500 0.36021 0.54507
USER: genes 1 Rotation |==|  0.44950 0.17662 0.64152 0.85050
USER: genes 2 Torsion [N]-CA--C-[N] |==|  0.27085
USER: genes 3 Torsion [C]-N--CA-[CB] |==|  0.15556
USER: genes 4 Torsion [N]-CA--CB-[CG2] |==|  0.70498
USER: genes 5 Torsion [CA]-CB--OG1-[HG1] |==|  0.53993
USER: genes 6 Torsion [N]-CA--C-[N] |==|  0.14257
USER: genes 7 Torsion [C]-N--CA-[CB] |==|  0.84416
USER: genes 8 Torsion [N]-CA--CB-[CG] |==|  0.61219
USER: genes 9 Torsion [CA]-CB--CG-[CD1] |==|  0.39862
USER: genes 10 Torsion [N]-CA--C-[O] |==|  0.38244
USER: genes 11 Torsion [O]-C--CA-[N] |==|  0.94659
USER: genes 12 Torsion [N]-C--CA-[N] |==|  0.86451
USER: genes 13 Torsion [C]-CA--CB-[CG] |==|  0.36450
USER: genes 14 Torsion [CA]-CB--CG-[SD] |==|  0.42813
USER: genes 15 Torsion [CB]-CG--SD-[CE] |==|  0.87727
ROOT
ATOM      1  C   PRO R   4       1.536  -2.670 -14.240  1.00 60.54 LIG 0.24  C 
ATOM      2 O    PRO R   4       2.582  -2.747 -13.594  1.00 63.53 LIG-0.27  OA
ATOM      3  N   PRO R   5       0.335  -2.451 -13.675  1.00 48.92 LIG-0.34  N 
ATOM      4  CA  PRO R   5       0.199  -2.328 -12.217  1.00 52.68 LIG 0.18  C 
ATOM      5  CB  PRO R   5      -1.304  -2.097 -12.025  1.00 55.54 LIG 0.04  C 
ATOM      6  CG  PRO R   5      -1.766  -1.496 -13.299  1.00 46.13 LIG 0.02  C 
ATOM      7  CD  PRO R   5      -0.920  -2.122 -14.375  1.00 43.47 LIG 0.13  C 
ENDROOT
BRANCH 4 8
ATOM      8  C   PRO R   5       0.629  -3.583 -11.453  1.00 58.07 LIG 0.24  C 
ATOM      9 O    PRO R   5      -0.150  -4.530 -11.315  1.00 51.36 LIG-0.27  OA
ATOM     10  N   THR R   6       1.864  -3.573 -10.957  1.00 69.24 LIG-0.34  N 
ATOM     11 H    THR R   6       2.425  -2.936 -11.090  1.00 69.24 LIG 0.16  HD
BRANCH 10 12
ATOM     12  CA  THR R   6       2.379  -4.661 -10.133  1.00 55.31 LIG 0.20  C 
BRANCH 12 13
ATOM     13  CB  THR R   6       2.275  -6.022 -10.856  1.00 60.29 LIG 0.15  C 
ATOM     14  CG2 THR R   6       1.156  -6.866 -10.263  1.00 62.01 LIG 0.04  C 
BRANCH 13 15
ATOM     15 OG1  THR R   6       2.011  -5.809 -12.249  1.00 91.48 LIG-0.39  OA
ATOM     16 HG1  THR R   6       1.762  -6.530 -12.600  1.00 91.48 LIG 0.21  HD
ENDBRANCH 13 15
ENDBRANCH 12 13
BRANCH 12 17
ATOM     17  C   THR R   6       3.834  -4.391  -9.778  1.00 56.48 LIG 0.24  C 
ATOM     18  N   LEU R   7       4.101  -3.195  -9.259  1.00 43.78 LIG-0.35  N 
ATOM     19 H    LEU R   7       3.504  -2.594  -9.106  1.00 43.78 LIG 0.16  HD
ATOM     20 O    THR R   6       4.698  -5.249  -9.976  1.00 41.48 LIG-0.27  OA
BRANCH 18 21
ATOM     21  CA  LEU R   7       5.458  -2.804  -8.900  1.00 53.52 LIG 0.16  C 
BRANCH 21 22
ATOM     22  CB  LEU R   7       6.062  -3.812  -7.920  1.00 41.32 LIG 0.04  C 
BRANCH 22 23
ATOM     23  CG  LEU R   7       6.892  -3.197  -6.789  1.00 48.65 LIG-0.02  C 
ATOM     24  CD1 LEU R   7       6.710  -3.964  -5.485  1.00 40.28 LIG 0.01  C 
ATOM     25  CD2 LEU R   7       8.365  -3.131  -7.172  1.00 37.72 LIG 0.01  C 
ENDBRANCH 22 23
ENDBRANCH 21 22
BRANCH 21 26
ATOM     26  C   LEU R   7       6.343  -2.660 -10.136  1.00 46.73 LIG 0.22  C 
ATOM     27 O    LEU R   7       7.129  -1.716 -10.240  1.00 57.50 LIG-0.29  OA
ENDBRANCH 21 26
ENDBRANCH 18 21
ENDBRANCH 12 17
ENDBRANCH 10 12
ENDBRANCH 4 8
BRANCH 1 28
ATOM     28  CA  PRO R   4       1.592  -2.822 -15.760  1.00 54.23 LIG 0.18  C 
ATOM     29  N   PRO R   4       2.959  -2.588 -16.232  1.00 66.40 LIG-0.34  N 
ATOM     30  CD  PRO R   4       3.666  -3.859 -16.450  1.00 55.20 LIG 0.13  C 
ATOM     31  C   MET R   3       3.533  -1.418 -16.562  1.00 65.13 LIG 0.26  C 
ATOM     32  CG  PRO R   4       2.560  -4.761 -16.891  1.00 51.34 LIG 0.02  C 
ATOM     33  CB  PRO R   4       1.331  -4.289 -16.154  1.00 43.90 LIG 0.04  C 
ATOM     34 O    MET R   3       4.720  -1.330 -16.888  1.00 74.37 LIG-0.27  OA
BRANCH 31 35
ATOM     35  CA  MET R   3       2.657  -0.167 -16.532  1.00 67.30 LIG 0.40  C 
ATOM     36  N   MET R   3       1.389  -0.346 -17.235  1.00 55.69 LIG 0.61  N 
BRANCH 35 37
ATOM     37  CB  MET R   3       2.416   0.225 -15.070  1.00 55.44 LIG 0.06  C 
BRANCH 37 38
ATOM     38  CG  MET R   3       2.658   1.683 -14.744  1.00 49.90 LIG 0.08  C 
BRANCH 38 39
ATOM     39 SD   MET R   3       1.670   2.166 -13.316  1.00 67.63 LIG-0.17  SA
ATOM     40  CE  MET R   3       0.098   1.406 -13.717  1.00 69.90 LIG 0.09  C 
ENDBRANCH 38 39
ENDBRANCH 37 38
ENDBRANCH 35 37
ENDBRANCH 31 35
ENDBRANCH 1 28
TORSDOF 14
ENDMDL
MODEL 110
USER: ADFR SOLUTION from run 152
USER: SCORE 11.270938 LL:  -3.102 LR:  -8.870 RR:   0.000 FEB:  -4.694
USER: RMSD 10.398315
USER: SEED 151
USER: STATUS no improvement in best in 22 clusters for 5 generations
USER: GENES 16
USER: genes 0 Translation |==|  0.32337 0.28470 0.66181
USER: genes 1 Rotation |==|  0.20916 0.66690 0.86583 0.56104
USER: genes 2 Torsion [N]-CA--C-[N] |==|  0.73814
USER: genes 3 Torsion [C]-N--CA-[CB] |==|  0.21334
USER: genes 4 Torsion [N]-CA--CB-[CG2] |==|  0.71592
USER: genes 5 Torsion [CA]-CB--OG1-[HG1] |==|  0.85291
USER: genes 6 Torsion [N]-CA--C-[N] |==|  0.81283
USER: genes 7 Torsion [C]-N--CA-[CB] |==|  0.21581
USER: genes 8 Torsion [N]-CA--CB-[CG] |==|  0.04482
USER: genes 9 Torsion [CA]-CB--CG-[CD1] |==|  0.33822
USER: genes 10 Torsion [N]-CA--C-[O] |==|  0.55437
USER: genes 11 Torsion [O]-C--CA-[N] |==|  0.98255
USER: genes 12 Torsion [N]-C--CA-[N] |==|  0.35536
USER: genes 13 Torsion [C]-CA--CB-[CG] |==|  0.41771
USER: genes 14 Torsion [CA]-CB--CG-[SD] |==|  0.77979
USER: genes 15 Torsion [CB]-CG--SD-[CE] |==|  0.24081
ROOT
ATOM      1  C   PRO R   4       2.587  -4.199 -11.876  1.00 60.54 LIG 0.24  C 
ATOM      2 O    PRO R   4       3.508  -4.372 -12.676  1.00 63.53 LIG-0.27  OA
ATOM      3  N   PRO R   5       1.378  -3.732 -12.236  1.00 48.92 LIG-0.34  N 
ATOM      4  CA  PRO R   5       1.097  -3.358 -13.629  1.00 52.68 LIG 0.18  C 
ATOM      5  CB  PRO R   5      -0.361  -2.886 -13.576  1.00 55.54 LIG 0.04  C 
ATOM      6  CG  PRO R   5      -0.950  -3.587 -12.411  1.00 46.13 LIG 0.02  C 
ATOM      7  CD  PRO R   5       0.161  -3.706 -11.403  1.00 43.47 LIG 0.13  C 
ENDROOT
BRANCH 4 8
ATOM      8  C   PRO R   5       1.986  -2.226 -14.151  1.00 58.07 LIG 0.24  C 
ATOM      9 O    PRO R   5       3.099  -2.470 -14.624  1.00 51.36 LIG-0.27  OA
ATOM     10  N   THR R   6       1.487  -0.996 -14.054  1.00 69.24 LIG-0.34  N 
ATOM     11 H    THR R   6       0.694  -0.825 -13.768  1.00 69.24 LIG 0.16  HD
BRANCH 10 12
ATOM     12  CA  THR R   6       2.254   0.186 -14.429  1.00 55.31 LIG 0.20  C 
BRANCH 12 13
ATOM     13  CB  THR R   6       2.317   0.361 -15.963  1.00 60.29 LIG 0.15  C 
ATOM     14  CG2 THR R   6       3.664  -0.092 -16.506  1.00 62.01 LIG 0.04  C 
BRANCH 13 15
ATOM     15 OG1  THR R   6       1.281  -0.414 -16.579  1.00 91.48 LIG-0.39  OA
ATOM     16 HG1  THR R   6       1.327  -1.208 -16.310  1.00 91.48 LIG 0.21  HD
ENDBRANCH 13 15
ENDBRANCH 12 13
BRANCH 12 17
ATOM     17  C   THR R   6       1.626   1.425 -13.808  1.00 56.48 LIG 0.24  C 
ATOM     18  N   LEU R   7       0.425   1.769 -14.268  1.00 43.78 LIG-0.35  N 
ATOM     19 H    LEU R   7      -0.003   1.328 -14.870  1.00 43.78 LIG 0.16  HD
ATOM     20 O    THR R   6       2.220   2.058 -12.932  1.00 41.48 LIG-0.27  OA
BRANCH 18 21
ATOM     21  CA  LEU R   7      -0.273   2.949 -13.774  1.00 53.52 LIG 0.16  C 
BRANCH 21 22
ATOM     22  CB  LEU R   7       0.311   4.216 -14.403  1.00 41.32 LIG 0.04  C 
BRANCH 22 23
ATOM     23  CG  LEU R   7       1.176   3.983 -15.646  1.00 48.65 LIG-0.02  C 
ATOM     24  CD1 LEU R   7       0.631   4.736 -16.853  1.00 40.28 LIG 0.01  C 
ATOM     25  CD2 LEU R   7       2.625   4.372 -15.379  1.00 37.72 LIG 0.01  C 
ENDBRANCH 22 23
ENDBRANCH 21 22
BRANCH 21 26
ATOM     26  C   LEU R   7      -1.774   2.862 -14.037  1.00 46.73 LIG 0.22  C 
ATOM     27 O    LEU R   7      -2.475   3.875 -14.028  1.00 57.50 LIG-0.29  OA
ENDBRANCH 21 26
ENDBRANCH 18 21
ENDBRANCH 12 17
ENDBRANCH 10 12
ENDBRANCH 4 8
BRANCH 1 28
ATOM     28  CA  PRO R   4       2.813  -4.533 -10.403  1.00 54.23 LIG 0.18  C 
ATOM     29  N   PRO R   4       4.123  -5.169 -10.234  1.00 66.40 LIG-0.34  N 
ATOM     30  CD  PRO R   4       5.128  -4.194  -9.784  1.00 55.20 LIG 0.13  C 
ATOM     31  C   MET R   3       4.430  -6.474 -10.335  1.00 65.13 LIG 0.26  C 
ATOM     32  CG  PRO R   4       4.312  -3.268  -8.943  1.00 51.34 LIG 0.02  C 
ATOM     33  CB  PRO R   4       2.944  -3.236  -9.581  1.00 43.90 LIG 0.04  C 
ATOM     34 O    MET R   3       5.586  -6.893 -10.236  1.00 74.37 LIG-0.27  OA
BRANCH 31 35
ATOM     35  CA  MET R   3       3.282  -7.453 -10.574  1.00 67.30 LIG 0.40  C 
ATOM     36  N   MET R   3       3.516  -8.336 -11.714  1.00 55.69 LIG 0.61  N 
BRANCH 35 37
ATOM     37  CB  MET R   3       3.060  -8.268  -9.294  1.00 55.44 LIG 0.06  C 
BRANCH 37 38
ATOM     38  CG  MET R   3       1.640  -8.739  -9.066  1.00 49.90 LIG 0.08  C 
BRANCH 38 39
ATOM     39 SD   MET R   3       0.643  -7.389  -8.409  1.00 67.63 LIG-0.17  SA
ATOM     40  CE  MET R   3       0.113  -6.589  -9.921  1.00 69.90 LIG 0.09  C 
ENDBRANCH 38 39
ENDBRANCH 37 38
ENDBRANCH 35 37
ENDBRANCH 31 35
ENDBRANCH 1 28
TORSDOF 14
ENDMDL
MODEL 111
USER: ADFR SOLUTION from run 182
USER: SCORE 11.293076 LL:  -2.435 LR:  -8.863 RR:   0.000 FEB:  -4.687
USER: RMSD 11.261615
USER: SEED 181
USER: STATUS no improvement in best in 20 clusters for 5 generations
USER: GENES 16
USER: genes 0 Translation |==|  0.56115 0.22549 0.86216
USER: genes 1 Rotation |==|  0.74511 0.67196 0.18598 0.74848
USER: genes 2 Torsion [N]-CA--C-[N] |==|  0.56254
USER: genes 3 Torsion [C]-N--CA-[CB] |==|  0.84336
USER: genes 4 Torsion [N]-CA--CB-[CG2] |==|  0.52999
USER: genes 5 Torsion [CA]-CB--OG1-[HG1] |==|  0.51450
USER: genes 6 Torsion [N]-CA--C-[N] |==|  0.37529
USER: genes 7 Torsion [C]-N--CA-[CB] |==|  0.83508
USER: genes 8 Torsion [N]-CA--CB-[CG] |==|  0.65248
USER: genes 9 Torsion [CA]-CB--CG-[CD1] |==|  0.68932
USER: genes 10 Torsion [N]-CA--C-[O] |==|  0.51354
USER: genes 11 Torsion [O]-C--CA-[N] |==|  0.87153
USER: genes 12 Torsion [N]-C--CA-[N] |==|  0.24788
USER: genes 13 Torsion [C]-CA--CB-[CG] |==|  0.73144
USER: genes 14 Torsion [CA]-CB--CG-[SD] |==|  0.30273
USER: genes 15 Torsion [CB]-CG--SD-[CE] |==|  0.07301
ROOT
ATOM      1  C   PRO R   4       6.867  -5.398  -7.819  1.00 60.54 LIG 0.24  C 
ATOM      2 O    PRO R   4       6.456  -4.538  -8.601  1.00 63.53 LIG-0.27  OA
ATOM      3  N   PRO R   5       6.730  -6.718  -8.038  1.00 48.92 LIG-0.34  N 
ATOM      4  CA  PRO R   5       6.031  -7.216  -9.231  1.00 52.68 LIG 0.18  C 
ATOM      5  CB  PRO R   5       6.107  -8.739  -9.069  1.00 55.54 LIG 0.04  C 
ATOM      6  CG  PRO R   5       7.305  -8.977  -8.229  1.00 46.13 LIG 0.02  C 
ATOM      7  CD  PRO R   5       7.379  -7.807  -7.285  1.00 43.47 LIG 0.13  C 
ENDROOT
BRANCH 4 8
ATOM      8  C   PRO R   5       4.566  -6.779  -9.312  1.00 58.07 LIG 0.24  C 
ATOM      9 O    PRO R   5       4.174  -5.784  -8.697  1.00 51.36 LIG-0.27  OA
ATOM     10  N   THR R   6       3.770  -7.533 -10.065  1.00 69.24 LIG-0.34  N 
ATOM     11 H    THR R   6       4.048  -8.200 -10.532  1.00 69.24 LIG 0.16  HD
BRANCH 10 12
ATOM     12  CA  THR R   6       2.335  -7.291 -10.166  1.00 55.31 LIG 0.20  C 
BRANCH 12 13
ATOM     13  CB  THR R   6       1.656  -7.309  -8.778  1.00 60.29 LIG 0.15  C 
ATOM     14  CG2 THR R   6       0.141  -7.321  -8.916  1.00 62.01 LIG 0.04  C 
BRANCH 13 15
ATOM     15 OG1  THR R   6       2.068  -8.477  -8.055  1.00 91.48 LIG-0.39  OA
ATOM     16 HG1  THR R   6       1.644  -8.522  -7.332  1.00 91.48 LIG 0.21  HD
ENDBRANCH 13 15
ENDBRANCH 12 13
BRANCH 12 17
ATOM     17  C   THR R   6       2.087  -5.943 -10.828  1.00 56.48 LIG 0.24  C 
ATOM     18  N   LEU R   7       1.147  -5.915 -11.769  1.00 43.78 LIG-0.35  N 
ATOM     19 H    LEU R   7       0.679  -6.599 -12.001  1.00 43.78 LIG 0.16  HD
ATOM     20 O    THR R   6       2.739  -4.951 -10.495  1.00 41.48 LIG-0.27  OA
BRANCH 18 21
ATOM     21  CA  LEU R   7       0.831  -4.693 -12.497  1.00 53.52 LIG 0.16  C 
BRANCH 21 22
ATOM     22  CB  LEU R   7       0.380  -3.597 -11.529  1.00 41.32 LIG 0.04  C 
BRANCH 22 23
ATOM     23  CG  LEU R   7      -0.984  -2.976 -11.843  1.00 48.65 LIG-0.02  C 
ATOM     24  CD1 LEU R   7      -0.846  -1.526 -12.291  1.00 40.28 LIG 0.01  C 
ATOM     25  CD2 LEU R   7      -1.724  -3.795 -12.894  1.00 37.72 LIG 0.01  C 
ENDBRANCH 22 23
ENDBRANCH 21 22
BRANCH 21 26
ATOM     26  C   LEU R   7       2.018  -4.216 -13.332  1.00 46.73 LIG 0.22  C 
ATOM     27 O    LEU R   7       1.968  -3.149 -13.945  1.00 57.50 LIG-0.29  OA
ENDBRANCH 21 26
ENDBRANCH 18 21
ENDBRANCH 12 17
ENDBRANCH 10 12
ENDBRANCH 4 8
BRANCH 1 28
ATOM     28  CA  PRO R   4       7.574  -4.957  -6.539  1.00 54.23 LIG 0.18  C 
ATOM     29  N   PRO R   4       8.559  -3.917  -6.849  1.00 66.40 LIG-0.34  N 
ATOM     30  CD  PRO R   4       8.017  -2.579  -6.570  1.00 55.20 LIG 0.13  C 
ATOM     31  C   MET R   3       9.840  -4.074  -7.224  1.00 65.13 LIG 0.26  C 
ATOM     32  CG  PRO R   4       7.121  -2.839  -5.403  1.00 51.34 LIG 0.02  C 
ATOM     33  CB  PRO R   4       6.580  -4.233  -5.609  1.00 43.90 LIG 0.04  C 
ATOM     34 O    MET R   3      10.564  -3.122  -7.525  1.00 74.37 LIG-0.27  OA
BRANCH 31 35
ATOM     35  CA  MET R   3      10.395  -5.497  -7.264  1.00 67.30 LIG 0.40  C 
ATOM     36  N   MET R   3      10.196  -6.149  -8.555  1.00 55.69 LIG 0.61  N 
BRANCH 35 37
ATOM     37  CB  MET R   3      11.885  -5.450  -6.903  1.00 55.44 LIG 0.06  C 
BRANCH 37 38
ATOM     38  CG  MET R   3      12.834  -5.430  -8.081  1.00 49.90 LIG 0.08  C 
BRANCH 38 39
ATOM     39 SD   MET R   3      13.601  -3.806  -8.225  1.00 67.63 LIG-0.17  SA
ATOM     40  CE  MET R   3      13.518  -3.238  -6.528  1.00 69.90 LIG 0.09  C 
ENDBRANCH 38 39
ENDBRANCH 37 38
ENDBRANCH 35 37
ENDBRANCH 31 35
ENDBRANCH 1 28
TORSDOF 14
ENDMDL
MODEL 112
USER: ADFR SOLUTION from run 100
USER: SCORE 12.026629 LL:  -3.521 LR:  -8.846 RR:   0.000 FEB:  -4.670
USER: RMSD 9.395875
USER: SEED 99
USER: STATUS no improvement in best in 17 clusters for 5 generations
USER: GENES 16
USER: genes 0 Translation |==|  0.29028 0.34732 0.55249
USER: genes 1 Rotation |==|  0.38060 0.56597 0.97862 0.54815
USER: genes 2 Torsion [N]-CA--C-[N] |==|  0.81687
USER: genes 3 Torsion [C]-N--CA-[CB] |==|  0.78433
USER: genes 4 Torsion [N]-CA--CB-[CG2] |==|  0.67151
USER: genes 5 Torsion [CA]-CB--OG1-[HG1] |==|  0.99705
USER: genes 6 Torsion [N]-CA--C-[N] |==|  0.18664
USER: genes 7 Torsion [C]-N--CA-[CB] |==|  0.30656
USER: genes 8 Torsion [N]-CA--CB-[CG] |==|  0.93289
USER: genes 9 Torsion [CA]-CB--CG-[CD1] |==|  0.27776
USER: genes 10 Torsion [N]-CA--C-[O] |==|  0.09664
USER: genes 11 Torsion [O]-C--CA-[N] |==|  0.93075
USER: genes 12 Torsion [N]-C--CA-[N] |==|  0.86527
USER: genes 13 Torsion [C]-CA--CB-[CG] |==|  0.61730
USER: genes 14 Torsion [CA]-CB--CG-[SD] |==|  0.51708
USER: genes 15 Torsion [CB]-CG--SD-[CE] |==|  0.43958
ROOT
ATOM      1  C   PRO R   4       1.991  -2.931 -14.090  1.00 60.54 LIG 0.24  C 
ATOM      2 O    PRO R   4       2.101  -2.503 -15.241  1.00 63.53 LIG-0.27  OA
ATOM      3  N   PRO R   5       0.912  -2.705 -13.320  1.00 48.92 LIG-0.34  N 
ATOM      4  CA  PRO R   5      -0.204  -1.882 -13.808  1.00 52.68 LIG 0.18  C 
ATOM      5  CB  PRO R   5      -1.184  -1.889 -12.628  1.00 55.54 LIG 0.04  C 
ATOM      6  CG  PRO R   5      -0.886  -3.138 -11.889  1.00 46.13 LIG 0.02  C 
ATOM      7  CD  PRO R   5       0.596  -3.355 -12.035  1.00 43.47 LIG 0.13  C 
ENDROOT
BRANCH 4 8
ATOM      8  C   PRO R   5       0.194  -0.441 -14.138  1.00 58.07 LIG 0.24  C 
ATOM      9 O    PRO R   5       0.157  -0.032 -15.302  1.00 51.36 LIG-0.27  OA
ATOM     10  N   THR R   6       0.578   0.311 -13.111  1.00 69.24 LIG-0.34  N 
ATOM     11 H    THR R   6       0.561   0.045 -12.293  1.00 69.24 LIG 0.16  HD
BRANCH 10 12
ATOM     12  CA  THR R   6       1.068   1.674 -13.285  1.00 55.31 LIG 0.20  C 
BRANCH 12 13
ATOM     13  CB  THR R   6       2.528   1.694 -13.788  1.00 60.29 LIG 0.15  C 
ATOM     14  CG2 THR R   6       3.439   2.379 -12.780  1.00 62.01 LIG 0.04  C 
BRANCH 13 15
ATOM     15 OG1  THR R   6       2.985   0.351 -13.994  1.00 91.48 LIG-0.39  OA
ATOM     16 HG1  THR R   6       2.375  -0.187 -13.788  1.00 91.48 LIG 0.21  HD
ENDBRANCH 13 15
ENDBRANCH 12 13
BRANCH 12 17
ATOM     17  C   THR R   6       0.184   2.415 -14.278  1.00 56.48 LIG 0.24  C 
ATOM     18  N   LEU R   7      -1.064   2.660 -13.886  1.00 43.78 LIG-0.35  N 
ATOM     19 H    LEU R   7      -1.378   2.439 -13.116  1.00 43.78 LIG 0.16  HD
ATOM     20 O    THR R   6       0.625   2.753 -15.379  1.00 41.48 LIG-0.27  OA
BRANCH 18 21
ATOM     21  CA  LEU R   7      -2.018   3.339 -14.753  1.00 53.52 LIG 0.16  C 
BRANCH 21 22
ATOM     22  CB  LEU R   7      -3.105   2.366 -15.215  1.00 41.32 LIG 0.04  C 
BRANCH 22 23
ATOM     23  CG  LEU R   7      -2.700   0.888 -15.201  1.00 48.65 LIG-0.02  C 
ATOM     24  CD1 LEU R   7      -3.234   0.176 -13.964  1.00 40.28 LIG 0.01  C 
ATOM     25  CD2 LEU R   7      -3.169   0.186 -16.469  1.00 37.72 LIG 0.01  C 
ENDBRANCH 22 23
ENDBRANCH 21 22
BRANCH 21 26
ATOM     26  C   LEU R   7      -2.640   4.550 -14.061  1.00 46.73 LIG 0.22  C 
ATOM     27 O    LEU R   7      -1.980   5.235 -13.278  1.00 57.50 LIG-0.29  OA
ENDBRANCH 21 26
ENDBRANCH 18 21
ENDBRANCH 12 17
ENDBRANCH 10 12
ENDBRANCH 4 8
BRANCH 1 28
ATOM     28  CA  PRO R   4       3.126  -3.766 -13.500  1.00 54.23 LIG 0.18  C 
ATOM     29  N   PRO R   4       3.886  -4.403 -14.579  1.00 66.40 LIG-0.34  N 
ATOM     30  CD  PRO R   4       5.105  -3.640 -14.886  1.00 55.20 LIG 0.13  C 
ATOM     31  C   MET R   3       3.645  -5.582 -15.179  1.00 65.13 LIG 0.26  C 
ATOM     32  CG  PRO R   4       5.474  -3.086 -13.549  1.00 51.34 LIG 0.02  C 
ATOM     33  CB  PRO R   4       4.167  -2.846 -12.833  1.00 43.90 LIG 0.04  C 
ATOM     34 O    MET R   3       4.318  -5.993 -16.127  1.00 74.37 LIG-0.27  OA
BRANCH 31 35
ATOM     35  CA  MET R   3       2.492  -6.426 -14.639  1.00 67.30 LIG 0.40  C 
ATOM     36  N   MET R   3       2.525  -6.571 -13.186  1.00 55.69 LIG 0.61  N 
BRANCH 35 37
ATOM     37  CB  MET R   3       1.170  -5.794 -15.092  1.00 55.44 LIG 0.06  C 
BRANCH 37 38
ATOM     38  CG  MET R   3       0.083  -5.748 -14.041  1.00 49.90 LIG 0.08  C 
BRANCH 38 39
ATOM     39 SD   MET R   3      -1.452  -5.148 -14.771  1.00 67.63 LIG-0.17  SA
ATOM     40  CE  MET R   3      -2.655  -5.791 -13.609  1.00 69.90 LIG 0.09  C 
ENDBRANCH 38 39
ENDBRANCH 37 38
ENDBRANCH 35 37
ENDBRANCH 31 35
ENDBRANCH 1 28
TORSDOF 14
ENDMDL
MODEL 113
USER: ADFR SOLUTION from run 177
USER: SCORE 11.542519 LL:  -3.050 LR:  -8.851 RR:   0.000 FEB:  -4.675
USER: RMSD 7.242088
USER: SEED 176
USER: STATUS no improvement in best in 8 clusters for 5 generations
USER: GENES 16
USER: genes 0 Translation |==|  0.30137 0.35097 0.56615
USER: genes 1 Rotation |==|  0.05457 0.61468 0.42386 0.68067
USER: genes 2 Torsion [N]-CA--C-[N] |==|  0.37906
USER: genes 3 Torsion [C]-N--CA-[CB] |==|  0.55065
USER: genes 4 Torsion [N]-CA--CB-[CG2] |==|  0.29723
USER: genes 5 Torsion [CA]-CB--OG1-[HG1] |==|  0.93626
USER: genes 6 Torsion [N]-CA--C-[N] |==|  0.38051
USER: genes 7 Torsion [C]-N--CA-[CB] |==|  0.34923
USER: genes 8 Torsion [N]-CA--CB-[CG] |==|  0.76581
USER: genes 9 Torsion [CA]-CB--CG-[CD1] |==|  0.96115
USER: genes 10 Torsion [N]-CA--C-[O] |==|  0.17942
USER: genes 11 Torsion [O]-C--CA-[N] |==|  0.03861
USER: genes 12 Torsion [N]-C--CA-[N] |==|  0.27145
USER: genes 13 Torsion [C]-CA--CB-[CG] |==|  0.26790
USER: genes 14 Torsion [CA]-CB--CG-[SD] |==|  0.83303
USER: genes 15 Torsion [CB]-CG--SD-[CE] |==|  0.29348
ROOT
ATOM      1  C   PRO R   4       2.191  -2.857 -13.814  1.00 60.54 LIG 0.24  C 
ATOM      2 O    PRO R   4       2.432  -3.214 -12.659  1.00 63.53 LIG-0.27  OA
ATOM      3  N   PRO R   5       3.149  -2.616 -14.726  1.00 48.92 LIG-0.34  N 
ATOM      4  CA  PRO R   5       4.571  -2.731 -14.374  1.00 52.68 LIG 0.18  C 
ATOM      5  CB  PRO R   5       5.285  -2.370 -15.682  1.00 55.54 LIG 0.04  C 
ATOM      6  CG  PRO R   5       4.313  -2.698 -16.752  1.00 46.13 LIG 0.02  C 
ATOM      7  CD  PRO R   5       2.955  -2.408 -16.172  1.00 43.47 LIG 0.13  C 
ENDROOT
BRANCH 4 8
ATOM      8  C   PRO R   5       5.009  -1.768 -13.266  1.00 58.07 LIG 0.24  C 
ATOM      9 O    PRO R   5       4.641  -0.590 -13.278  1.00 51.36 LIG-0.27  OA
ATOM     10  N   THR R   6       5.797  -2.278 -12.324  1.00 69.24 LIG-0.34  N 
ATOM     11 H    THR R   6       6.018  -3.108 -12.286  1.00 69.24 LIG 0.16  HD
BRANCH 10 12
ATOM     12  CA  THR R   6       6.363  -1.461 -11.256  1.00 55.31 LIG 0.20  C 
BRANCH 12 13
ATOM     13  CB  THR R   6       7.565  -2.158 -10.581  1.00 60.29 LIG 0.15  C 
ATOM     14  CG2 THR R   6       8.873  -1.492 -10.983  1.00 62.01 LIG 0.04  C 
BRANCH 13 15
ATOM     15 OG1  THR R   6       7.424  -2.089  -9.156  1.00 91.48 LIG-0.39  OA
ATOM     16 HG1  THR R   6       6.923  -1.446  -8.956  1.00 91.48 LIG 0.21  HD
ENDBRANCH 13 15
ENDBRANCH 12 13
BRANCH 12 17
ATOM     17  C   THR R   6       6.810  -0.120 -11.819  1.00 56.48 LIG 0.24  C 
ATOM     18  N   LEU R   7       6.514   0.953 -11.089  1.00 43.78 LIG-0.35  N 
ATOM     19 H    LEU R   7       6.107   0.921 -10.331  1.00 43.78 LIG 0.16  HD
ATOM     20 O    THR R   6       7.409  -0.059 -12.895  1.00 41.48 LIG-0.27  OA
BRANCH 18 21
ATOM     21  CA  LEU R   7       6.865   2.297 -11.529  1.00 53.52 LIG 0.16  C 
BRANCH 21 22
ATOM     22  CB  LEU R   7       5.625   3.194 -11.541  1.00 41.32 LIG 0.04  C 
BRANCH 22 23
ATOM     23  CG  LEU R   7       4.774   3.105 -12.811  1.00 48.65 LIG-0.02  C 
ATOM     24  CD1 LEU R   7       5.521   2.398 -13.935  1.00 40.28 LIG 0.01  C 
ATOM     25  CD2 LEU R   7       3.447   2.411 -12.528  1.00 37.72 LIG 0.01  C 
ENDBRANCH 22 23
ENDBRANCH 21 22
BRANCH 21 26
ATOM     26  C   LEU R   7       7.959   2.904 -10.653  1.00 46.73 LIG 0.22  C 
ATOM     27 O    LEU R   7       9.087   2.411 -10.623  1.00 57.50 LIG-0.29  OA
ENDBRANCH 21 26
ENDBRANCH 18 21
ENDBRANCH 12 17
ENDBRANCH 10 12
ENDBRANCH 4 8
BRANCH 1 28
ATOM     28  CA  PRO R   4       0.735  -2.682 -14.245  1.00 54.23 LIG 0.18  C 
ATOM     29  N   PRO R   4      -0.134  -2.667 -13.065  1.00 66.40 LIG-0.34  N 
ATOM     30  CD  PRO R   4      -0.471  -1.290 -12.677  1.00 55.20 LIG 0.13  C 
ATOM     31  C   MET R   3      -0.692  -3.715 -12.433  1.00 65.13 LIG 0.26  C 
ATOM     32  CG  PRO R   4      -0.508  -0.592 -13.998  1.00 51.34 LIG 0.02  C 
ATOM     33  CB  PRO R   4       0.529  -1.280 -14.851  1.00 43.90 LIG 0.04  C 
ATOM     34 O    MET R   3      -1.358  -3.588 -11.403  1.00 74.37 LIG-0.27  OA
BRANCH 31 35
ATOM     35  CA  MET R   3      -0.482  -5.100 -13.041  1.00 67.30 LIG 0.40  C 
ATOM     36  N   MET R   3       0.606  -5.840 -12.407  1.00 55.69 LIG 0.61  N 
BRANCH 35 37
ATOM     37  CB  MET R   3      -1.798  -5.881 -12.944  1.00 55.44 LIG 0.06  C 
BRANCH 37 38
ATOM     38  CG  MET R   3      -2.659  -5.853 -14.188  1.00 49.90 LIG 0.08  C 
BRANCH 38 39
ATOM     39 SD   MET R   3      -3.112  -4.154 -14.583  1.00 67.63 LIG-0.17  SA
ATOM     40  CE  MET R   3      -2.053  -3.838 -15.993  1.00 69.90 LIG 0.09  C 
ENDBRANCH 38 39
ENDBRANCH 37 38
ENDBRANCH 35 37
ENDBRANCH 31 35
ENDBRANCH 1 28
TORSDOF 14
ENDMDL
MODEL 114
USER: ADFR SOLUTION from run 99
USER: SCORE 10.769857 LL:  -3.346 LR:  -8.839 RR:   0.000 FEB:  -4.663
USER: RMSD 8.268277
USER: SEED 98
USER: STATUS no improvement in best in 19 clusters for 5 generations
USER: GENES 16
USER: genes 0 Translation |==|  0.22774 0.37281 0.52832
USER: genes 1 Rotation |==|  0.00182 0.47241 0.47596 0.52180
USER: genes 2 Torsion [N]-CA--C-[N] |==|  0.20995
USER: genes 3 Torsion [C]-N--CA-[CB] |==|  0.36347
USER: genes 4 Torsion [N]-CA--CB-[CG2] |==|  0.67966
USER: genes 5 Torsion [CA]-CB--OG1-[HG1] |==|  0.14514
USER: genes 6 Torsion [N]-CA--C-[N] |==|  0.96660
USER: genes 7 Torsion [C]-N--CA-[CB] |==|  0.14664
USER: genes 8 Torsion [N]-CA--CB-[CG] |==|  0.64381
USER: genes 9 Torsion [CA]-CB--CG-[CD1] |==|  0.75657
USER: genes 10 Torsion [N]-CA--C-[O] |==|  0.98185
USER: genes 11 Torsion [O]-C--CA-[N] |==|  0.99579
USER: genes 12 Torsion [N]-C--CA-[N] |==|  0.86938
USER: genes 13 Torsion [C]-CA--CB-[CG] |==|  0.18357
USER: genes 14 Torsion [CA]-CB--CG-[SD] |==|  0.47192
USER: genes 15 Torsion [CB]-CG--SD-[CE] |==|  0.09468
ROOT
ATOM      1  C   PRO R   4       0.865  -2.415 -14.579  1.00 60.54 LIG 0.24  C 
ATOM      2 O    PRO R   4       1.214  -1.780 -13.582  1.00 63.53 LIG-0.27  OA
ATOM      3  N   PRO R   5       1.583  -2.452 -15.716  1.00 48.92 LIG-0.34  N 
ATOM      4  CA  PRO R   5       2.832  -1.689 -15.845  1.00 52.68 LIG 0.18  C 
ATOM      5  CB  PRO R   5       3.295  -2.015 -17.270  1.00 55.54 LIG 0.04  C 
ATOM      6  CG  PRO R   5       2.692  -3.334 -17.577  1.00 46.13 LIG 0.02  C 
ATOM      7  CD  PRO R   5       1.367  -3.351 -16.864  1.00 43.47 LIG 0.13  C 
ENDROOT
BRANCH 4 8
ATOM      8  C   PRO R   5       2.644  -0.176 -15.699  1.00 58.07 LIG 0.24  C 
ATOM      9 O    PRO R   5       2.680   0.559 -16.689  1.00 51.36 LIG-0.27  OA
ATOM     10  N   THR R   6       2.453   0.274 -14.461  1.00 69.24 LIG-0.34  N 
ATOM     11 H    THR R   6       2.382  -0.238 -13.774  1.00 69.24 LIG 0.16  HD
BRANCH 10 12
ATOM     12  CA  THR R   6       2.347   1.697 -14.159  1.00 55.31 LIG 0.20  C 
BRANCH 12 13
ATOM     13  CB  THR R   6       1.114   2.001 -13.279  1.00 60.29 LIG 0.15  C 
ATOM     14  CG2 THR R   6       0.115   2.870 -14.028  1.00 62.01 LIG 0.04  C 
BRANCH 13 15
ATOM     15 OG1  THR R   6       0.475   0.774 -12.903  1.00 91.48 LIG-0.39  OA
ATOM     16 HG1  THR R   6       1.042   0.256 -12.565  1.00 91.48 LIG 0.21  HD
ENDBRANCH 13 15
ENDBRANCH 12 13
BRANCH 12 17
ATOM     17  C   THR R   6       3.604   2.164 -13.440  1.00 56.48 LIG 0.24  C 
ATOM     18  N   LEU R   7       4.421   1.209 -13.003  1.00 43.78 LIG-0.35  N 
ATOM     19 H    LEU R   7       4.282   0.368 -13.119  1.00 43.78 LIG 0.16  HD
ATOM     20 O    THR R   6       3.825   3.367 -13.282  1.00 41.48 LIG-0.27  OA
BRANCH 18 21
ATOM     21  CA  LEU R   7       5.645   1.524 -12.278  1.00 53.52 LIG 0.16  C 
BRANCH 21 22
ATOM     22  CB  LEU R   7       5.341   2.445 -11.095  1.00 41.32 LIG 0.04  C 
BRANCH 22 23
ATOM     23  CG  LEU R   7       6.200   3.712 -11.023  1.00 48.65 LIG-0.02  C 
ATOM     24  CD1 LEU R   7       7.495   3.464 -10.261  1.00 40.28 LIG 0.01  C 
ATOM     25  CD2 LEU R   7       6.492   4.250 -12.418  1.00 37.72 LIG 0.01  C 
ENDBRANCH 22 23
ENDBRANCH 21 22
BRANCH 21 26
ATOM     26  C   LEU R   7       6.356   0.258 -11.804  1.00 46.73 LIG 0.22  C 
ATOM     27 O    LEU R   7       5.830  -0.847 -11.940  1.00 57.50 LIG-0.29  OA
ENDBRANCH 21 26
ENDBRANCH 18 21
ENDBRANCH 12 17
ENDBRANCH 10 12
ENDBRANCH 4 8
BRANCH 1 28
ATOM     28  CA  PRO R   4      -0.440  -3.207 -14.534  1.00 54.23 LIG 0.18  C 
ATOM     29  N   PRO R   4      -1.053  -3.078 -13.209  1.00 66.40 LIG-0.34  N 
ATOM     30  CD  PRO R   4      -2.107  -2.053 -13.214  1.00 55.20 LIG 0.13  C 
ATOM     31  C   MET R   3      -0.831  -3.830 -12.116  1.00 65.13 LIG 0.26  C 
ATOM     32  CG  PRO R   4      -2.655  -2.172 -14.599  1.00 51.34 LIG 0.02  C 
ATOM     33  CB  PRO R   4      -1.483  -2.561 -15.467  1.00 43.90 LIG 0.04  C 
ATOM     34 O    MET R   3      -1.359  -3.589 -11.028  1.00 74.37 LIG-0.27  OA
BRANCH 31 35
ATOM     35  CA  MET R   3       0.108  -5.026 -12.260  1.00 67.30 LIG 0.40  C 
ATOM     36  N   MET R   3      -0.184  -5.839 -13.438  1.00 55.69 LIG 0.61  N 
BRANCH 35 37
ATOM     37  CB  MET R   3       1.552  -4.511 -12.301  1.00 55.44 LIG 0.06  C 
BRANCH 37 38
ATOM     38  CG  MET R   3       2.045  -3.870 -11.022  1.00 49.90 LIG 0.08  C 
BRANCH 38 39
ATOM     39 SD   MET R   3       3.822  -3.589 -11.121  1.00 67.63 LIG-0.17  SA
ATOM     40  CE  MET R   3       4.011  -3.217 -12.864  1.00 69.90 LIG 0.09  C 
ENDBRANCH 38 39
ENDBRANCH 37 38
ENDBRANCH 35 37
ENDBRANCH 31 35
ENDBRANCH 1 28
TORSDOF 14
ENDMDL
MODEL 115
USER: ADFR SOLUTION from run 42
USER: SCORE 12.176082 LL:  -3.467 LR:  -8.843 RR:   0.000 FEB:  -4.667
USER: RMSD 7.487829
USER: SEED 41
USER: STATUS no improvement in best in 21 clusters for 5 generations
USER: GENES 16
USER: genes 0 Translation |==|  0.35094 0.27982 0.66902
USER: genes 1 Rotation |==|  0.72774 0.29875 0.88556 0.59477
USER: genes 2 Torsion [N]-CA--C-[N] |==|  0.00923
USER: genes 3 Torsion [C]-N--CA-[CB] |==|  0.17778
USER: genes 4 Torsion [N]-CA--CB-[CG2] |==|  0.13579
USER: genes 5 Torsion [CA]-CB--OG1-[HG1] |==|  0.10530
USER: genes 6 Torsion [N]-CA--C-[N] |==|  0.11308
USER: genes 7 Torsion [C]-N--CA-[CB] |==|  0.81722
USER: genes 8 Torsion [N]-CA--CB-[CG] |==|  0.81374
USER: genes 9 Torsion [CA]-CB--CG-[CD1] |==|  0.40734
USER: genes 10 Torsion [N]-CA--C-[O] |==|  0.07305
USER: genes 11 Torsion [O]-C--CA-[N] |==|  0.90569
USER: genes 12 Torsion [N]-C--CA-[N] |==|  0.87644
USER: genes 13 Torsion [C]-CA--CB-[CG] |==|  0.07377
USER: genes 14 Torsion [CA]-CB--CG-[SD] |==|  0.17619
USER: genes 15 Torsion [CB]-CG--SD-[CE] |==|  0.61097
ROOT
ATOM      1  C   PRO R   4       3.083  -4.298 -11.730  1.00 60.54 LIG 0.24  C 
ATOM      2 O    PRO R   4       2.767  -3.218 -11.227  1.00 63.53 LIG-0.27  OA
ATOM      3  N   PRO R   5       3.293  -5.413 -11.009  1.00 48.92 LIG-0.34  N 
ATOM      4  CA  PRO R   5       3.193  -5.393  -9.543  1.00 52.68 LIG 0.18  C 
ATOM      5  CB  PRO R   5       3.509  -6.842  -9.152  1.00 55.54 LIG 0.04  C 
ATOM      6  CG  PRO R   5       3.141  -7.649 -10.340  1.00 46.13 LIG 0.02  C 
ATOM      7  CD  PRO R   5       3.449  -6.783 -11.531  1.00 43.47 LIG 0.13  C 
ENDROOT
BRANCH 4 8
ATOM      8  C   PRO R   5       4.195  -4.449  -8.872  1.00 58.07 LIG 0.24  C 
ATOM      9 O    PRO R   5       4.260  -4.375  -7.643  1.00 51.36 LIG-0.27  OA
ATOM     10  N   THR R   6       4.962  -3.732  -9.689  1.00 69.24 LIG-0.34  N 
ATOM     11 H    THR R   6       4.953  -3.814 -10.545  1.00 69.24 LIG 0.16  HD
BRANCH 10 12
ATOM     12  CA  THR R   6       5.899  -2.729  -9.196  1.00 55.31 LIG 0.20  C 
BRANCH 12 13
ATOM     13  CB  THR R   6       7.014  -3.365  -8.335  1.00 60.29 LIG 0.15  C 
ATOM     14  CG2 THR R   6       7.628  -4.564  -9.042  1.00 62.01 LIG 0.04  C 
BRANCH 13 15
ATOM     15 OG1  THR R   6       8.039  -2.396  -8.082  1.00 91.48 LIG-0.39  OA
ATOM     16 HG1  THR R   6       7.689  -1.644  -7.959  1.00 91.48 LIG 0.21  HD
ENDBRANCH 13 15
ENDBRANCH 12 13
BRANCH 12 17
ATOM     17  C   THR R   6       6.530  -1.994 -10.369  1.00 56.48 LIG 0.24  C 
ATOM     18  N   LEU R   7       5.716  -1.688 -11.377  1.00 43.78 LIG-0.35  N 
ATOM     19 H    LEU R   7       4.875  -1.868 -11.387  1.00 43.78 LIG 0.16  HD
ATOM     20 O    THR R   6       7.731  -1.713 -10.362  1.00 41.48 LIG-0.27  OA
BRANCH 18 21
ATOM     21  CA  LEU R   7       6.201  -1.007 -12.570  1.00 53.52 LIG 0.16  C 
BRANCH 21 22
ATOM     22  CB  LEU R   7       6.666   0.409 -12.224  1.00 41.32 LIG 0.04  C 
BRANCH 22 23
ATOM     23  CG  LEU R   7       5.554   1.367 -11.785  1.00 48.65 LIG-0.02  C 
ATOM     24  CD1 LEU R   7       6.054   2.363 -10.746  1.00 40.28 LIG 0.01  C 
ATOM     25  CD2 LEU R   7       4.961   2.095 -12.985  1.00 37.72 LIG 0.01  C 
ENDBRANCH 22 23
ENDBRANCH 21 22
BRANCH 21 26
ATOM     26  C   LEU R   7       7.325  -1.791 -13.244  1.00 46.73 LIG 0.22  C 
ATOM     27 O    LEU R   7       7.407  -3.013 -13.111  1.00 57.50 LIG-0.29  OA
ENDBRANCH 21 26
ENDBRANCH 18 21
ENDBRANCH 12 17
ENDBRANCH 10 12
ENDBRANCH 4 8
BRANCH 1 28
ATOM     28  CA  PRO R   4       3.240  -4.390 -13.248  1.00 54.23 LIG 0.18  C 
ATOM     29  N   PRO R   4       2.277  -3.499 -13.901  1.00 66.40 LIG-0.34  N 
ATOM     30  CD  PRO R   4       2.910  -2.228 -14.284  1.00 55.20 LIG 0.13  C 
ATOM     31  C   MET R   3       1.006  -3.765 -14.251  1.00 65.13 LIG 0.26  C 
ATOM     32  CG  PRO R   4       4.305  -2.657 -14.605  1.00 51.34 LIG 0.02  C 
ATOM     33  CB  PRO R   4       4.602  -3.807 -13.674  1.00 43.90 LIG 0.04  C 
ATOM     34 O    MET R   3       0.261  -2.913 -14.740  1.00 74.37 LIG-0.27  OA
BRANCH 31 35
ATOM     35  CA  MET R   3       0.496  -5.188 -14.029  1.00 67.30 LIG 0.40  C 
ATOM     36  N   MET R   3       1.451  -6.207 -14.458  1.00 55.69 LIG 0.61  N 
BRANCH 35 37
ATOM     37  CB  MET R   3       0.151  -5.358 -12.545  1.00 55.44 LIG 0.06  C 
BRANCH 37 38
ATOM     38  CG  MET R   3      -0.228  -4.085 -11.820  1.00 49.90 LIG 0.08  C 
BRANCH 38 39
ATOM     39 SD   MET R   3      -1.736  -3.399 -12.529  1.00 67.63 LIG-0.17  SA
ATOM     40  CE  MET R   3      -1.354  -1.649 -12.515  1.00 69.90 LIG 0.09  C 
ENDBRANCH 38 39
ENDBRANCH 37 38
ENDBRANCH 35 37
ENDBRANCH 31 35
ENDBRANCH 1 28
TORSDOF 14
ENDMDL
MODEL 116
USER: ADFR SOLUTION from run 165
USER: SCORE 11.936898 LL:  -3.477 LR:  -8.830 RR:   0.000 FEB:  -4.654
USER: RMSD 10.297047
USER: SEED 164
USER: STATUS no improvement in best in 32 clusters for 5 generations
USER: GENES 16
USER: genes 0 Translation |==|  0.19927 0.39451 0.52675
USER: genes 1 Rotation |==|  0.34251 0.55591 0.95194 0.63348
USER: genes 2 Torsion [N]-CA--C-[N] |==|  0.84227
USER: genes 3 Torsion [C]-N--CA-[CB] |==|  0.79444
USER: genes 4 Torsion [N]-CA--CB-[CG2] |==|  0.57229
USER: genes 5 Torsion [CA]-CB--OG1-[HG1] |==|  0.02210
USER: genes 6 Torsion [N]-CA--C-[N] |==|  0.21896
USER: genes 7 Torsion [C]-N--CA-[CB] |==|  0.33322
USER: genes 8 Torsion [N]-CA--CB-[CG] |==|  0.78760
USER: genes 9 Torsion [CA]-CB--CG-[CD1] |==|  0.90452
USER: genes 10 Torsion [N]-CA--C-[O] |==|  0.45816
USER: genes 11 Torsion [O]-C--CA-[N] |==|  0.81586
USER: genes 12 Torsion [N]-C--CA-[N] |==|  0.42124
USER: genes 13 Torsion [C]-CA--CB-[CG] |==|  0.26289
USER: genes 14 Torsion [CA]-CB--CG-[SD] |==|  0.68832
USER: genes 15 Torsion [CB]-CG--SD-[CE] |==|  0.76555
ROOT
ATOM      1  C   PRO R   4       0.353  -1.975 -14.611  1.00 60.54 LIG 0.24  C 
ATOM      2 O    PRO R   4       0.844  -1.539 -15.654  1.00 63.53 LIG-0.27  OA
ATOM      3  N   PRO R   5      -0.761  -1.467 -14.053  1.00 48.92 LIG-0.34  N 
ATOM      4  CA  PRO R   5      -1.445  -0.313 -14.651  1.00 52.68 LIG 0.18  C 
ATOM      5  CB  PRO R   5      -2.628  -0.079 -13.704  1.00 55.54 LIG 0.04  C 
ATOM      6  CG  PRO R   5      -2.886  -1.399 -13.079  1.00 46.13 LIG 0.02  C 
ATOM      7  CD  PRO R   5      -1.539  -2.057 -12.949  1.00 43.47 LIG 0.13  C 
ENDROOT
BRANCH 4 8
ATOM      8  C   PRO R   5      -0.579   0.949 -14.714  1.00 58.07 LIG 0.24  C 
ATOM      9 O    PRO R   5      -0.366   1.509 -15.792  1.00 51.36 LIG-0.27  OA
ATOM     10  N   THR R   6      -0.084   1.378 -13.557  1.00 69.24 LIG-0.34  N 
ATOM     11 H    THR R   6      -0.267   1.018 -12.797  1.00 69.24 LIG 0.16  HD
BRANCH 10 12
ATOM     12  CA  THR R   6       0.828   2.514 -13.474  1.00 55.31 LIG 0.20  C 
BRANCH 12 13
ATOM     13  CB  THR R   6       2.241   2.148 -13.979  1.00 60.29 LIG 0.15  C 
ATOM     14  CG2 THR R   6       3.294   3.037 -13.335  1.00 62.01 LIG 0.04  C 
BRANCH 13 15
ATOM     15 OG1  THR R   6       2.527   0.780 -13.660  1.00 91.48 LIG-0.39  OA
ATOM     16 HG1  THR R   6       1.835   0.412 -13.359  1.00 91.48 LIG 0.21  HD
ENDBRANCH 13 15
ENDBRANCH 12 13
BRANCH 12 17
ATOM     17  C   THR R   6       0.284   3.670 -14.300  1.00 56.48 LIG 0.24  C 
ATOM     18  N   LEU R   7      -0.689   4.386 -13.740  1.00 43.78 LIG-0.35  N 
ATOM     19 H    LEU R   7      -1.003   4.237 -12.953  1.00 43.78 LIG 0.16  HD
ATOM     20 O    THR R   6       0.734   3.906 -15.423  1.00 41.48 LIG-0.27  OA
BRANCH 18 21
ATOM     21  CA  LEU R   7      -1.313   5.503 -14.437  1.00 53.52 LIG 0.16  C 
BRANCH 21 22
ATOM     22  CB  LEU R   7      -2.813   5.253 -14.610  1.00 41.32 LIG 0.04  C 
BRANCH 22 23
ATOM     23  CG  LEU R   7      -3.180   4.257 -15.714  1.00 48.65 LIG-0.02  C 
ATOM     24  CD1 LEU R   7      -2.218   4.350 -16.892  1.00 40.28 LIG 0.01  C 
ATOM     25  CD2 LEU R   7      -3.225   2.835 -15.168  1.00 37.72 LIG 0.01  C 
ENDBRANCH 22 23
ENDBRANCH 21 22
BRANCH 21 26
ATOM     26  C   LEU R   7      -1.069   6.823 -13.708  1.00 46.73 LIG 0.22  C 
ATOM     27 O    LEU R   7      -1.273   7.900 -14.271  1.00 57.50 LIG-0.29  OA
ENDBRANCH 21 26
ENDBRANCH 18 21
ENDBRANCH 12 17
ENDBRANCH 10 12
ENDBRANCH 4 8
BRANCH 1 28
ATOM     28  CA  PRO R   4       1.028  -3.154 -13.911  1.00 54.23 LIG 0.18  C 
ATOM     29  N   PRO R   4       0.926  -4.352 -14.749  1.00 66.40 LIG-0.34  N 
ATOM     30  CD  PRO R   4       2.167  -4.571 -15.507  1.00 55.20 LIG 0.13  C 
ATOM     31  C   MET R   3      -0.072  -5.252 -14.792  1.00 65.13 LIG 0.26  C 
ATOM     32  CG  PRO R   4       3.206  -4.051 -14.567  1.00 51.34 LIG 0.02  C 
ATOM     33  CB  PRO R   4       2.548  -2.915 -13.822  1.00 43.90 LIG 0.04  C 
ATOM     34 O    MET R   3      -0.081  -6.194 -15.588  1.00 74.37 LIG-0.27  OA
BRANCH 31 35
ATOM     35  CA  MET R   3      -1.221  -5.079 -13.801  1.00 67.30 LIG 0.40  C 
ATOM     36  N   MET R   3      -2.486  -5.614 -14.299  1.00 55.69 LIG 0.61  N 
BRANCH 35 37
ATOM     37  CB  MET R   3      -0.831  -5.751 -12.479  1.00 55.44 LIG 0.06  C 
BRANCH 37 38
ATOM     38  CG  MET R   3      -0.215  -4.834 -11.445  1.00 49.90 LIG 0.08  C 
BRANCH 38 39
ATOM     39 SD   MET R   3       1.518  -5.263 -11.199  1.00 67.63 LIG-0.17  SA
ATOM     40  CE  MET R   3       1.374  -6.589 -10.003  1.00 69.90 LIG 0.09  C 
ENDBRANCH 38 39
ENDBRANCH 37 38
ENDBRANCH 35 37
ENDBRANCH 31 35
ENDBRANCH 1 28
TORSDOF 14
ENDMDL
MODEL 117
USER: ADFR SOLUTION from run 76
USER: SCORE 11.045955 LL:  -3.080 LR:  -8.833 RR:   0.000 FEB:  -4.657
USER: RMSD 8.347706
USER: SEED 75
USER: STATUS no improvement in best in 28 clusters for 5 generations
USER: GENES 16
USER: genes 0 Translation |==|  0.30128 0.22840 0.57983
USER: genes 1 Rotation |==|  0.35504 0.29579 0.77891 0.83090
USER: genes 2 Torsion [N]-CA--C-[N] |==|  0.96297
USER: genes 3 Torsion [C]-N--CA-[CB] |==|  0.51667
USER: genes 4 Torsion [N]-CA--CB-[CG2] |==|  0.75361
USER: genes 5 Torsion [CA]-CB--OG1-[HG1] |==|  0.65902
USER: genes 6 Torsion [N]-CA--C-[N] |==|  0.25801
USER: genes 7 Torsion [C]-N--CA-[CB] |==|  0.81373
USER: genes 8 Torsion [N]-CA--CB-[CG] |==|  0.67008
USER: genes 9 Torsion [CA]-CB--CG-[CD1] |==|  0.29375
USER: genes 10 Torsion [N]-CA--C-[O] |==|  0.44969
USER: genes 11 Torsion [O]-C--CA-[N] |==|  0.80368
USER: genes 12 Torsion [N]-C--CA-[N] |==|  0.39249
USER: genes 13 Torsion [C]-CA--CB-[CG] |==|  0.37070
USER: genes 14 Torsion [CA]-CB--CG-[SD] |==|  0.15226
USER: genes 15 Torsion [CB]-CG--SD-[CE] |==|  0.58120
ROOT
ATOM      1  C   PRO R   4       2.189  -5.339 -13.536  1.00 60.54 LIG 0.24  C 
ATOM      2 O    PRO R   4       3.324  -4.915 -13.311  1.00 63.53 LIG-0.27  OA
ATOM      3  N   PRO R   5       1.081  -4.803 -12.993  1.00 48.92 LIG-0.34  N 
ATOM      4  CA  PRO R   5       1.172  -3.681 -12.049  1.00 52.68 LIG 0.18  C 
ATOM      5  CB  PRO R   5      -0.294  -3.407 -11.691  1.00 55.54 LIG 0.04  C 
ATOM      6  CG  PRO R   5      -1.071  -3.900 -12.853  1.00 46.13 LIG 0.02  C 
ATOM      7  CD  PRO R   5      -0.313  -5.090 -13.374  1.00 43.47 LIG 0.13  C 
ENDROOT
BRANCH 4 8
ATOM      8  C   PRO R   5       1.959  -4.011 -10.778  1.00 58.07 LIG 0.24  C 
ATOM      9 O    PRO R   5       2.330  -3.111 -10.019  1.00 51.36 LIG-0.27  OA
ATOM     10  N   THR R   6       2.212  -5.299 -10.562  1.00 69.24 LIG-0.34  N 
ATOM     11 H    THR R   6       1.916  -5.932 -11.063  1.00 69.24 LIG 0.16  HD
BRANCH 10 12
ATOM     12  CA  THR R   6       3.025  -5.755  -9.441  1.00 55.31 LIG 0.20  C 
BRANCH 12 13
ATOM     13  CB  THR R   6       3.284  -7.277  -9.507  1.00 60.29 LIG 0.15  C 
ATOM     14  CG2 THR R   6       2.180  -8.047  -8.799  1.00 62.01 LIG 0.04  C 
BRANCH 13 15
ATOM     15 OG1  THR R   6       3.341  -7.697 -10.877  1.00 91.48 LIG-0.39  OA
ATOM     16 HG1  THR R   6       2.766  -8.294 -11.011  1.00 91.48 LIG 0.21  HD
ENDBRANCH 13 15
ENDBRANCH 12 13
BRANCH 12 17
ATOM     17  C   THR R   6       4.356  -5.019  -9.438  1.00 56.48 LIG 0.24  C 
ATOM     18  N   LEU R   7       4.415  -3.913  -8.700  1.00 43.78 LIG-0.35  N 
ATOM     19 H    LEU R   7       3.761  -3.616  -8.228  1.00 43.78 LIG 0.16  HD
ATOM     20 O    THR R   6       5.309  -5.442 -10.097  1.00 41.48 LIG-0.27  OA
BRANCH 18 21
ATOM     21  CA  LEU R   7       5.625  -3.103  -8.633  1.00 53.52 LIG 0.16  C 
BRANCH 21 22
ATOM     22  CB  LEU R   7       6.743  -3.872  -7.926  1.00 41.32 LIG 0.04  C 
BRANCH 22 23
ATOM     23  CG  LEU R   7       7.263  -3.223  -6.640  1.00 48.65 LIG-0.02  C 
ATOM     24  CD1 LEU R   7       6.772  -3.964  -5.403  1.00 40.28 LIG 0.01  C 
ATOM     25  CD2 LEU R   7       8.785  -3.144  -6.649  1.00 37.72 LIG 0.01  C 
ENDBRANCH 22 23
ENDBRANCH 21 22
BRANCH 21 26
ATOM     26  C   LEU R   7       6.076  -2.656 -10.022  1.00 46.73 LIG 0.22  C 
ATOM     27 O    LEU R   7       6.859  -1.714 -10.156  1.00 57.50 LIG-0.29  OA
ENDBRANCH 21 26
ENDBRANCH 18 21
ENDBRANCH 12 17
ENDBRANCH 10 12
ENDBRANCH 4 8
BRANCH 1 28
ATOM     28  CA  PRO R   4       2.016  -6.526 -14.483  1.00 54.23 LIG 0.18  C 
ATOM     29  N   PRO R   4       2.307  -6.111 -15.858  1.00 66.40 LIG-0.34  N 
ATOM     30  CD  PRO R   4       3.678  -6.481 -16.241  1.00 55.20 LIG 0.13  C 
ATOM     31  C   MET R   3       1.465  -5.572 -16.757  1.00 65.13 LIG 0.26  C 
ATOM     32  CG  PRO R   4       3.887  -7.748 -15.477  1.00 51.34 LIG 0.02  C 
ATOM     33  CB  PRO R   4       3.097  -7.588 -14.200  1.00 43.90 LIG 0.04  C 
ATOM     34 O    MET R   3       1.837  -5.199 -17.872  1.00 74.37 LIG-0.27  OA
BRANCH 31 35
ATOM     35  CA  MET R   3      -0.003  -5.437 -16.357  1.00 67.30 LIG 0.40  C 
ATOM     36  N   MET R   3      -0.609  -4.195 -16.831  1.00 55.69 LIG 0.61  N 
BRANCH 35 37
ATOM     37  CB  MET R   3      -0.769  -6.653 -16.892  1.00 55.44 LIG 0.06  C 
BRANCH 37 38
ATOM     38  CG  MET R   3      -1.702  -7.315 -15.902  1.00 49.90 LIG 0.08  C 
BRANCH 38 39
ATOM     39 SD   MET R   3      -2.855  -6.100 -15.237  1.00 67.63 LIG-0.17  SA
ATOM     40  CE  MET R   3      -3.173  -6.786 -13.613  1.00 69.90 LIG 0.09  C 
ENDBRANCH 38 39
ENDBRANCH 37 38
ENDBRANCH 35 37
ENDBRANCH 31 35
ENDBRANCH 1 28
TORSDOF 14
ENDMDL
MODEL 118
USER: ADFR SOLUTION from run 10
USER: SCORE 10.914998 LL:  -3.201 LR:  -8.821 RR:   0.000 FEB:  -4.645
USER: RMSD 10.760098
USER: SEED 186913
USER: STATUS no improvement in best in 10 clusters for 5 generations
USER: GENES 16
USER: genes 0 Translation |==|  0.61157 0.21729 0.84086
USER: genes 1 Rotation |==|  0.81434 0.53716 0.18714 0.72787
USER: genes 2 Torsion [N]-CA--C-[N] |==|  0.53614
USER: genes 3 Torsion [C]-N--CA-[CB] |==|  0.52225
USER: genes 4 Torsion [N]-CA--CB-[CG2] |==|  0.73628
USER: genes 5 Torsion [CA]-CB--OG1-[HG1] |==|  0.27980
USER: genes 6 Torsion [N]-CA--C-[N] |==|  0.76476
USER: genes 7 Torsion [C]-N--CA-[CB] |==|  0.30873
USER: genes 8 Torsion [N]-CA--CB-[CG] |==|  0.81209
USER: genes 9 Torsion [CA]-CB--CG-[CD1] |==|  0.88983
USER: genes 10 Torsion [N]-CA--C-[O] |==|  0.54511
USER: genes 11 Torsion [O]-C--CA-[N] |==|  0.98020
USER: genes 12 Torsion [N]-C--CA-[N] |==|  0.86954
USER: genes 13 Torsion [C]-CA--CB-[CG] |==|  0.61731
USER: genes 14 Torsion [CA]-CB--CG-[SD] |==|  0.47211
USER: genes 15 Torsion [CB]-CG--SD-[CE] |==|  0.97873
ROOT
ATOM      1  C   PRO R   4       7.774  -5.564  -8.251  1.00 60.54 LIG 0.24  C 
ATOM      2 O    PRO R   4       8.081  -4.825  -9.188  1.00 63.53 LIG-0.27  OA
ATOM      3  N   PRO R   5       7.182  -6.760  -8.419  1.00 48.92 LIG-0.34  N 
ATOM      4  CA  PRO R   5       6.826  -7.243  -9.760  1.00 52.68 LIG 0.18  C 
ATOM      5  CB  PRO R   5       6.185  -8.608  -9.480  1.00 55.54 LIG 0.04  C 
ATOM      6  CG  PRO R   5       6.773  -9.051  -8.193  1.00 46.13 LIG 0.02  C 
ATOM      7  CD  PRO R   5       6.986  -7.797  -7.390  1.00 43.47 LIG 0.13  C 
ENDROOT
BRANCH 4 8
ATOM      8  C   PRO R   5       5.824  -6.344 -10.490  1.00 58.07 LIG 0.24  C 
ATOM      9 O    PRO R   5       5.568  -5.215 -10.063  1.00 51.36 LIG-0.27  OA
ATOM     10  N   THR R   6       5.262  -6.858 -11.581  1.00 69.24 LIG-0.34  N 
ATOM     11 H    THR R   6       5.471  -7.626 -11.908  1.00 69.24 LIG 0.16  HD
BRANCH 10 12
ATOM     12  CA  THR R   6       4.226  -6.154 -12.328  1.00 55.31 LIG 0.20  C 
BRANCH 12 13
ATOM     13  CB  THR R   6       3.608  -7.048 -13.426  1.00 60.29 LIG 0.15  C 
ATOM     14  CG2 THR R   6       4.291  -6.813 -14.764  1.00 62.01 LIG 0.04  C 
BRANCH 13 15
ATOM     15 OG1  THR R   6       3.753  -8.427 -13.063  1.00 91.48 LIG-0.39  OA
ATOM     16 HG1  THR R   6       3.028  -8.712 -12.750  1.00 91.48 LIG 0.21  HD
ENDBRANCH 13 15
ENDBRANCH 12 13
BRANCH 12 17
ATOM     17  C   THR R   6       3.130  -5.695 -11.378  1.00 56.48 LIG 0.24  C 
ATOM     18  N   LEU R   7       2.185  -6.588 -11.095  1.00 43.78 LIG-0.35  N 
ATOM     19 H    LEU R   7       2.175  -7.391 -11.403  1.00 43.78 LIG 0.16  HD
ATOM     20 O    THR R   6       3.139  -4.552 -10.915  1.00 41.48 LIG-0.27  OA
BRANCH 18 21
ATOM     21  CA  LEU R   7       1.066  -6.265 -10.218  1.00 53.52 LIG 0.16  C 
BRANCH 21 22
ATOM     22  CB  LEU R   7      -0.238  -6.211 -11.017  1.00 41.32 LIG 0.04  C 
BRANCH 22 23
ATOM     23  CG  LEU R   7      -0.338  -5.055 -12.018  1.00 48.65 LIG-0.02  C 
ATOM     24  CD1 LEU R   7       0.250  -3.771 -11.446  1.00 40.28 LIG 0.01  C 
ATOM     25  CD2 LEU R   7       0.341  -5.417 -13.333  1.00 37.72 LIG 0.01  C 
ENDBRANCH 22 23
ENDBRANCH 21 22
BRANCH 21 26
ATOM     26  C   LEU R   7       0.950  -7.262  -9.068  1.00 46.73 LIG 0.22  C 
ATOM     27 O    LEU R   7      -0.084  -7.339  -8.403  1.00 57.50 LIG-0.29  OA
ENDBRANCH 21 26
ENDBRANCH 18 21
ENDBRANCH 12 17
ENDBRANCH 10 12
ENDBRANCH 4 8
BRANCH 1 28
ATOM     28  CA  PRO R   4       8.082  -5.115  -6.823  1.00 54.23 LIG 0.18  C 
ATOM     29  N   PRO R   4       8.877  -3.884  -6.851  1.00 66.40 LIG-0.34  N 
ATOM     30  CD  PRO R   4       8.027  -2.703  -6.644  1.00 55.20 LIG 0.13  C 
ATOM     31  C   MET R   3      10.214  -3.763  -6.927  1.00 65.13 LIG 0.26  C 
ATOM     32  CG  PRO R   4       6.972  -3.232  -5.728  1.00 51.34 LIG 0.02  C 
ATOM     33  CB  PRO R   4       6.784  -4.678  -6.115  1.00 43.90 LIG 0.04  C 
ATOM     34 O    MET R   3      10.776  -2.668  -7.009  1.00 74.37 LIG-0.27  OA
BRANCH 31 35
ATOM     35  CA  MET R   3      11.043  -5.046  -6.902  1.00 67.30 LIG 0.40  C 
ATOM     36  N   MET R   3      10.632  -5.966  -5.844  1.00 55.69 LIG 0.61  N 
BRANCH 35 37
ATOM     37  CB  MET R   3      10.943  -5.719  -8.276  1.00 55.44 LIG 0.06  C 
BRANCH 37 38
ATOM     38  CG  MET R   3      10.766  -7.221  -8.248  1.00 49.90 LIG 0.08  C 
BRANCH 38 39
ATOM     39 SD   MET R   3      10.373  -7.824  -9.900  1.00 67.63 LIG-0.17  SA
ATOM     40  CE  MET R   3      10.151  -6.280 -10.782  1.00 69.90 LIG 0.09  C 
ENDBRANCH 38 39
ENDBRANCH 37 38
ENDBRANCH 35 37
ENDBRANCH 31 35
ENDBRANCH 1 28
TORSDOF 14
ENDMDL
MODEL 119
USER: ADFR SOLUTION from run 9
USER: SCORE 10.814548 LL:  -3.078 LR:  -8.819 RR:   0.000 FEB:  -4.642
USER: RMSD 9.125004
USER: SEED 411265
USER: STATUS no improvement in best in 20 clusters for 5 generations
USER: GENES 16
USER: genes 0 Translation |==|  0.43340 0.30750 0.67818
USER: genes 1 Rotation |==|  0.09960 0.55054 0.79148 0.54649
USER: genes 2 Torsion [N]-CA--C-[N] |==|  0.60308
USER: genes 3 Torsion [C]-N--CA-[CB] |==|  0.79424
USER: genes 4 Torsion [N]-CA--CB-[CG2] |==|  0.55112
USER: genes 5 Torsion [CA]-CB--OG1-[HG1] |==|  0.26276
USER: genes 6 Torsion [N]-CA--C-[N] |==|  0.72781
USER: genes 7 Torsion [C]-N--CA-[CB] |==|  0.33365
USER: genes 8 Torsion [N]-CA--CB-[CG] |==|  0.22099
USER: genes 9 Torsion [CA]-CB--CG-[CD1] |==|  0.47663
USER: genes 10 Torsion [N]-CA--C-[O] |==|  0.98991
USER: genes 11 Torsion [O]-C--CA-[N] |==|  0.84894
USER: genes 12 Torsion [N]-C--CA-[N] |==|  0.38978
USER: genes 13 Torsion [C]-CA--CB-[CG] |==|  0.23073
USER: genes 14 Torsion [CA]-CB--CG-[SD] |==|  0.33452
USER: genes 15 Torsion [CB]-CG--SD-[CE] |==|  0.74567
ROOT
ATOM      1  C   PRO R   4       4.567  -3.737 -11.545  1.00 60.54 LIG 0.24  C 
ATOM      2 O    PRO R   4       5.724  -3.360 -11.739  1.00 63.53 LIG-0.27  OA
ATOM      3  N   PRO R   5       3.600  -3.656 -12.476  1.00 48.92 LIG-0.34  N 
ATOM      4  CA  PRO R   5       3.868  -3.062 -13.793  1.00 52.68 LIG 0.18  C 
ATOM      5  CB  PRO R   5       2.515  -3.170 -14.506  1.00 55.54 LIG 0.04  C 
ATOM      6  CG  PRO R   5       1.827  -4.309 -13.854  1.00 46.13 LIG 0.02  C 
ATOM      7  CD  PRO R   5       2.265  -4.279 -12.415  1.00 43.47 LIG 0.13  C 
ENDROOT
BRANCH 4 8
ATOM      8  C   PRO R   5       4.300  -1.594 -13.728  1.00 58.07 LIG 0.24  C 
ATOM      9 O    PRO R   5       5.020  -1.193 -12.810  1.00 51.36 LIG-0.27  OA
ATOM     10  N   THR R   6       3.848  -0.807 -14.700  1.00 69.24 LIG-0.34  N 
ATOM     11 H    THR R   6       3.384  -1.091 -15.366  1.00 69.24 LIG 0.16  HD
BRANCH 10 12
ATOM     12  CA  THR R   6       4.104   0.629 -14.721  1.00 55.31 LIG 0.20  C 
BRANCH 12 13
ATOM     13  CB  THR R   6       3.245   1.376 -13.676  1.00 60.29 LIG 0.15  C 
ATOM     14  CG2 THR R   6       3.171   2.861 -13.997  1.00 62.01 LIG 0.04  C 
BRANCH 13 15
ATOM     15 OG1  THR R   6       1.918   0.834 -13.668  1.00 91.48 LIG-0.39  OA
ATOM     16 HG1  THR R   6       1.859   0.248 -13.070  1.00 91.48 LIG 0.21  HD
ENDBRANCH 13 15
ENDBRANCH 12 13
BRANCH 12 17
ATOM     17  C   THR R   6       5.576   0.892 -14.440  1.00 56.48 LIG 0.24  C 
ATOM     18  N   LEU R   7       5.888   1.215 -13.187  1.00 43.78 LIG-0.35  N 
ATOM     19 H    LEU R   7       5.315   1.265 -12.548  1.00 43.78 LIG 0.16  HD
ATOM     20 O    THR R   6       6.412   0.808 -15.343  1.00 41.48 LIG-0.27  OA
BRANCH 18 21
ATOM     21  CA  LEU R   7       7.258   1.516 -12.794  1.00 53.52 LIG 0.16  C 
BRANCH 21 22
ATOM     22  CB  LEU R   7       7.353   2.937 -12.236  1.00 41.32 LIG 0.04  C 
BRANCH 22 23
ATOM     23  CG  LEU R   7       6.891   3.096 -10.784  1.00 48.65 LIG-0.02  C 
ATOM     24  CD1 LEU R   7       7.209   4.485 -10.247  1.00 40.28 LIG 0.01  C 
ATOM     25  CD2 LEU R   7       5.403   2.797 -10.653  1.00 37.72 LIG 0.01  C 
ENDBRANCH 22 23
ENDBRANCH 21 22
BRANCH 21 26
ATOM     26  C   LEU R   7       7.784   0.504 -11.778  1.00 46.73 LIG 0.22  C 
ATOM     27 O    LEU R   7       7.052  -0.385 -11.339  1.00 57.50 LIG-0.29  OA
ENDBRANCH 21 26
ENDBRANCH 18 21
ENDBRANCH 12 17
ENDBRANCH 10 12
ENDBRANCH 4 8
BRANCH 1 28
ATOM     28  CA  PRO R   4       4.202  -4.335 -10.187  1.00 54.23 LIG 0.18  C 
ATOM     29  N   PRO R   4       5.109  -5.443  -9.873  1.00 66.40 LIG-0.34  N 
ATOM     30  CD  PRO R   4       6.186  -5.003  -8.974  1.00 55.20 LIG 0.13  C 
ATOM     31  C   MET R   3       4.985  -6.738 -10.214  1.00 65.13 LIG 0.26  C 
ATOM     32  CG  PRO R   4       5.502  -3.961  -8.150  1.00 51.34 LIG 0.02  C 
ATOM     33  CB  PRO R   4       4.491  -3.317  -9.067  1.00 43.90 LIG 0.04  C 
ATOM     34 O    MET R   3       5.848  -7.578  -9.949  1.00 74.37 LIG-0.27  OA
BRANCH 31 35
ATOM     35  CA  MET R   3       3.714  -7.156 -10.950  1.00 67.30 LIG 0.40  C 
ATOM     36  N   MET R   3       3.965  -8.126 -12.012  1.00 55.69 LIG 0.61  N 
BRANCH 35 37
ATOM     37  CB  MET R   3       2.719  -7.716  -9.926  1.00 55.44 LIG 0.06  C 
BRANCH 37 38
ATOM     38  CG  MET R   3       1.895  -6.681  -9.193  1.00 49.90 LIG 0.08  C 
BRANCH 38 39
ATOM     39 SD   MET R   3       0.141  -6.964  -9.497  1.00 67.63 LIG-0.17  SA
ATOM     40  CE  MET R   3      -0.128  -5.925 -10.932  1.00 69.90 LIG 0.09  C 
ENDBRANCH 38 39
ENDBRANCH 37 38
ENDBRANCH 35 37
ENDBRANCH 31 35
ENDBRANCH 1 28
TORSDOF 14
ENDMDL
MODEL 120
USER: ADFR SOLUTION from run 133
USER: SCORE 10.887763 LL:  -3.363 LR:  -8.804 RR:   0.000 FEB:  -4.628
USER: RMSD 9.440067
USER: SEED 132
USER: STATUS no improvement in best in 20 clusters for 5 generations
USER: GENES 16
USER: genes 0 Translation |==|  0.35186 0.27288 0.65092
USER: genes 1 Rotation |==|  0.88234 0.80940 0.49419 0.58973
USER: genes 2 Torsion [N]-CA--C-[N] |==|  0.22938
USER: genes 3 Torsion [C]-N--CA-[CB] |==|  0.38670
USER: genes 4 Torsion [N]-CA--CB-[CG2] |==|  0.84075
USER: genes 5 Torsion [CA]-CB--OG1-[HG1] |==|  0.19921
USER: genes 6 Torsion [N]-CA--C-[N] |==|  0.86132
USER: genes 7 Torsion [C]-N--CA-[CB] |==|  0.75936
USER: genes 8 Torsion [N]-CA--CB-[CG] |==|  0.88113
USER: genes 9 Torsion [CA]-CB--CG-[CD1] |==|  0.36275
USER: genes 10 Torsion [N]-CA--C-[O] |==|  0.44016
USER: genes 11 Torsion [O]-C--CA-[N] |==|  0.88001
USER: genes 12 Torsion [N]-C--CA-[N] |==|  0.86790
USER: genes 13 Torsion [C]-CA--CB-[CG] |==|  0.09879
USER: genes 14 Torsion [CA]-CB--CG-[SD] |==|  0.39666
USER: genes 15 Torsion [CB]-CG--SD-[CE] |==|  0.23232
ROOT
ATOM      1  C   PRO R   4       3.100  -4.438 -12.097  1.00 60.54 LIG 0.24  C 
ATOM      2 O    PRO R   4       2.399  -3.582 -11.553  1.00 63.53 LIG-0.27  OA
ATOM      3  N   PRO R   5       3.682  -4.260 -13.296  1.00 48.92 LIG-0.34  N 
ATOM      4  CA  PRO R   5       3.478  -3.020 -14.057  1.00 52.68 LIG 0.18  C 
ATOM      5  CB  PRO R   5       4.302  -3.251 -15.329  1.00 55.54 LIG 0.04  C 
ATOM      6  CG  PRO R   5       5.348  -4.225 -14.937  1.00 46.13 LIG 0.02  C 
ATOM      7  CD  PRO R   5       4.706  -5.122 -13.913  1.00 43.47 LIG 0.13  C 
ENDROOT
BRANCH 4 8
ATOM      8  C   PRO R   5       2.015  -2.764 -14.431  1.00 58.07 LIG 0.24  C 
ATOM      9 O    PRO R   5       1.592  -3.067 -15.550  1.00 51.36 LIG-0.27  OA
ATOM     10  N   THR R   6       1.260  -2.201 -13.492  1.00 69.24 LIG-0.34  N 
ATOM     11 H    THR R   6       1.538  -2.030 -12.696  1.00 69.24 LIG 0.16  HD
BRANCH 10 12
ATOM     12  CA  THR R   6      -0.127  -1.818 -13.734  1.00 55.31 LIG 0.20  C 
BRANCH 12 13
ATOM     13  CB  THR R   6      -1.030  -2.154 -12.526  1.00 60.29 LIG 0.15  C 
ATOM     14  CG2 THR R   6      -0.957  -3.636 -12.191  1.00 62.01 LIG 0.04  C 
BRANCH 13 15
ATOM     15 OG1  THR R   6      -0.609  -1.395 -11.385  1.00 91.48 LIG-0.39  OA
ATOM     16 HG1  THR R   6      -0.815  -0.589 -11.493  1.00 91.48 LIG 0.21  HD
ENDBRANCH 13 15
ENDBRANCH 12 13
BRANCH 12 17
ATOM     17  C   THR R   6      -0.205  -0.326 -14.020  1.00 56.48 LIG 0.24  C 
ATOM     18  N   LEU R   7       0.416   0.472 -13.156  1.00 43.78 LIG-0.35  N 
ATOM     19 H    LEU R   7       0.858   0.190 -12.474  1.00 43.78 LIG 0.16  HD
ATOM     20 O    THR R   6      -0.821   0.093 -15.004  1.00 41.48 LIG-0.27  OA
BRANCH 18 21
ATOM     21  CA  LEU R   7       0.395   1.922 -13.303  1.00 53.52 LIG 0.16  C 
BRANCH 21 22
ATOM     22  CB  LEU R   7       1.529   2.381 -14.222  1.00 41.32 LIG 0.04  C 
BRANCH 22 23
ATOM     23  CG  LEU R   7       2.876   1.692 -13.982  1.00 48.65 LIG-0.02  C 
ATOM     24  CD1 LEU R   7       3.477   1.175 -15.283  1.00 40.28 LIG 0.01  C 
ATOM     25  CD2 LEU R   7       3.848   2.631 -13.278  1.00 37.72 LIG 0.01  C 
ENDBRANCH 22 23
ENDBRANCH 21 22
BRANCH 21 26
ATOM     26  C   LEU R   7      -0.953   2.411 -13.828  1.00 46.73 LIG 0.22  C 
ATOM     27 O    LEU R   7      -1.311   3.577 -13.653  1.00 57.50 LIG-0.29  OA
ENDBRANCH 21 26
ENDBRANCH 18 21
ENDBRANCH 12 17
ENDBRANCH 10 12
ENDBRANCH 4 8
BRANCH 1 28
ATOM     28  CA  PRO R   4       3.331  -5.769 -11.382  1.00 54.23 LIG 0.18  C 
ATOM     29  N   PRO R   4       3.602  -5.528  -9.962  1.00 66.40 LIG-0.34  N 
ATOM     30  CD  PRO R   4       2.391  -5.729  -9.153  1.00 55.20 LIG 0.13  C 
ATOM     31  C   MET R   3       4.785  -5.275  -9.375  1.00 65.13 LIG 0.26  C 
ATOM     32  CG  PRO R   4       1.689  -6.814  -9.902  1.00 51.34 LIG 0.02  C 
ATOM     33  CB  PRO R   4       2.026  -6.589 -11.356  1.00 43.90 LIG 0.04  C 
ATOM     34 O    MET R   3       4.888  -5.022  -8.172  1.00 74.37 LIG-0.27  OA
BRANCH 31 35
ATOM     35  CA  MET R   3       6.033  -5.316 -10.255  1.00 67.30 LIG 0.40  C 
ATOM     36  N   MET R   3       6.092  -6.504 -11.103  1.00 55.69 LIG 0.61  N 
BRANCH 35 37
ATOM     37  CB  MET R   3       6.075  -4.040 -11.104  1.00 55.44 LIG 0.06  C 
BRANCH 37 38
ATOM     38  CG  MET R   3       5.558  -2.793 -10.422  1.00 49.90 LIG 0.08  C 
BRANCH 38 39
ATOM     39 SD   MET R   3       6.548  -1.369 -10.912  1.00 67.63 LIG-0.17  SA
ATOM     40  CE  MET R   3       5.766  -0.927 -12.462  1.00 69.90 LIG 0.09  C 
ENDBRANCH 38 39
ENDBRANCH 37 38
ENDBRANCH 35 37
ENDBRANCH 31 35
ENDBRANCH 1 28
TORSDOF 14
ENDMDL
MODEL 121
USER: ADFR SOLUTION from run 103
USER: SCORE 11.217508 LL:  -3.432 LR:  -8.800 RR:   0.000 FEB:  -4.624
USER: RMSD 8.650746
USER: SEED 102
USER: STATUS no improvement in best in 23 clusters for 5 generations
USER: GENES 16
USER: genes 0 Translation |==|  0.22796 0.39793 0.51535
USER: genes 1 Rotation |==|  0.01294 0.52276 0.57350 0.58279
USER: genes 2 Torsion [N]-CA--C-[N] |==|  0.00452
USER: genes 3 Torsion [C]-N--CA-[CB] |==|  0.54613
USER: genes 4 Torsion [N]-CA--CB-[CG2] |==|  0.74855
USER: genes 5 Torsion [CA]-CB--OG1-[HG1] |==|  0.13814
USER: genes 6 Torsion [N]-CA--C-[N] |==|  0.82595
USER: genes 7 Torsion [C]-N--CA-[CB] |==|  0.26965
USER: genes 8 Torsion [N]-CA--CB-[CG] |==|  0.63709
USER: genes 9 Torsion [CA]-CB--CG-[CD1] |==|  0.72322
USER: genes 10 Torsion [N]-CA--C-[O] |==|  0.01763
USER: genes 11 Torsion [O]-C--CA-[N] |==|  0.96289
USER: genes 12 Torsion [N]-C--CA-[N] |==|  0.44633
USER: genes 13 Torsion [C]-CA--CB-[CG] |==|  0.97722
USER: genes 14 Torsion [CA]-CB--CG-[SD] |==|  0.60701
USER: genes 15 Torsion [CB]-CG--SD-[CE] |==|  0.88226
ROOT
ATOM      1  C   PRO R   4       0.869  -1.906 -14.842  1.00 60.54 LIG 0.24  C 
ATOM      2 O    PRO R   4       1.693  -1.598 -13.978  1.00 63.53 LIG-0.27  OA
ATOM      3  N   PRO R   5       1.081  -1.730 -16.159  1.00 48.92 LIG-0.34  N 
ATOM      4  CA  PRO R   5       2.321  -1.110 -16.646  1.00 52.68 LIG 0.18  C 
ATOM      5  CB  PRO R   5       2.133  -1.105 -18.168  1.00 55.54 LIG 0.04  C 
ATOM      6  CG  PRO R   5       1.195  -2.219 -18.443  1.00 46.13 LIG 0.02  C 
ATOM      7  CD  PRO R   5       0.264  -2.267 -17.261  1.00 43.47 LIG 0.13  C 
ENDROOT
BRANCH 4 8
ATOM      8  C   PRO R   5       2.527   0.324 -16.149  1.00 58.07 LIG 0.24  C 
ATOM      9 O    PRO R   5       3.515   0.973 -16.501  1.00 51.36 LIG-0.27  OA
ATOM     10  N   THR R   6       1.594   0.800 -15.329  1.00 69.24 LIG-0.34  N 
ATOM     11 H    THR R   6       0.880   0.368 -15.118  1.00 69.24 LIG 0.16  HD
BRANCH 10 12
ATOM     12  CA  THR R   6       1.701   2.115 -14.707  1.00 55.31 LIG 0.20  C 
BRANCH 12 13
ATOM     13  CB  THR R   6       0.733   2.261 -13.512  1.00 60.29 LIG 0.15  C 
ATOM     14  CG2 THR R   6      -0.607   2.820 -13.965  1.00 62.01 LIG 0.04  C 
BRANCH 13 15
ATOM     15 OG1  THR R   6       0.523   0.980 -12.903  1.00 91.48 LIG-0.39  OA
ATOM     16 HG1  THR R   6       1.265   0.614 -12.759  1.00 91.48 LIG 0.21  HD
ENDBRANCH 13 15
ENDBRANCH 12 13
BRANCH 12 17
ATOM     17  C   THR R   6       3.128   2.342 -14.229  1.00 56.48 LIG 0.24  C 
ATOM     18  N   LEU R   7       3.573   1.509 -13.291  1.00 43.78 LIG-0.35  N 
ATOM     19 H    LEU R   7       3.110   0.861 -12.965  1.00 43.78 LIG 0.16  HD
ATOM     20 O    THR R   6       3.809   3.256 -14.699  1.00 41.48 LIG-0.27  OA
BRANCH 18 21
ATOM     21  CA  LEU R   7       4.912   1.636 -12.730  1.00 53.52 LIG 0.16  C 
BRANCH 21 22
ATOM     22  CB  LEU R   7       4.867   2.411 -11.412  1.00 41.32 LIG 0.04  C 
BRANCH 22 23
ATOM     23  CG  LEU R   7       5.879   3.555 -11.298  1.00 48.65 LIG-0.02  C 
ATOM     24  CD1 LEU R   7       7.101   3.140 -10.488  1.00 40.28 LIG 0.01  C 
ATOM     25  CD2 LEU R   7       6.292   4.053 -12.678  1.00 37.72 LIG 0.01  C 
ENDBRANCH 22 23
ENDBRANCH 21 22
BRANCH 21 26
ATOM     26  C   LEU R   7       5.565   0.270 -12.528  1.00 46.73 LIG 0.22  C 
ATOM     27 O    LEU R   7       5.016  -0.756 -12.933  1.00 57.50 LIG-0.29  OA
ENDBRANCH 21 26
ENDBRANCH 18 21
ENDBRANCH 12 17
ENDBRANCH 10 12
ENDBRANCH 4 8
BRANCH 1 28
ATOM     28  CA  PRO R   4      -0.459  -2.525 -14.411  1.00 54.23 LIG 0.18  C 
ATOM     29  N   PRO R   4      -0.382  -2.935 -13.006  1.00 66.40 LIG-0.34  N 
ATOM     30  CD  PRO R   4      -0.993  -1.926 -12.128  1.00 55.20 LIG 0.13  C 
ATOM     31  C   MET R   3       0.057  -4.104 -12.506  1.00 65.13 LIG 0.26  C 
ATOM     32  CG  PRO R   4      -2.087  -1.382 -12.989  1.00 51.34 LIG 0.02  C 
ATOM     33  CB  PRO R   4      -1.565  -1.452 -14.403  1.00 43.90 LIG 0.04  C 
ATOM     34 O    MET R   3       0.138  -4.317 -11.294  1.00 74.37 LIG-0.27  OA
BRANCH 31 35
ATOM     35  CA  MET R   3       0.456  -5.192 -13.500  1.00 67.30 LIG 0.40  C 
ATOM     36  N   MET R   3       1.316  -6.214 -12.909  1.00 55.69 LIG 0.61  N 
BRANCH 35 37
ATOM     37  CB  MET R   3      -0.820  -5.821 -14.073  1.00 55.44 LIG 0.06  C 
BRANCH 37 38
ATOM     38  CG  MET R   3      -2.109  -5.387 -13.411  1.00 49.90 LIG 0.08  C 
BRANCH 38 39
ATOM     39 SD   MET R   3      -3.234  -6.788 -13.277  1.00 67.63 LIG-0.17  SA
ATOM     40  CE  MET R   3      -3.019  -7.551 -14.884  1.00 69.90 LIG 0.09  C 
ENDBRANCH 38 39
ENDBRANCH 37 38
ENDBRANCH 35 37
ENDBRANCH 31 35
ENDBRANCH 1 28
TORSDOF 14
ENDMDL
MODEL 122
USER: ADFR SOLUTION from run 148
USER: SCORE 11.473278 LL:  -3.265 LR:  -8.792 RR:   0.000 FEB:  -4.616
USER: RMSD 8.072239
USER: SEED 147
USER: STATUS no improvement in best in 18 clusters for 5 generations
USER: GENES 16
USER: genes 0 Translation |==|  0.37285 0.27506 0.71646
USER: genes 1 Rotation |==|  0.83882 0.43286 0.82582 0.65665
USER: genes 2 Torsion [N]-CA--C-[N] |==|  0.84051
USER: genes 3 Torsion [C]-N--CA-[CB] |==|  0.85305
USER: genes 4 Torsion [N]-CA--CB-[CG2] |==|  0.54524
USER: genes 5 Torsion [CA]-CB--OG1-[HG1] |==|  0.27861
USER: genes 6 Torsion [N]-CA--C-[N] |==|  0.97222
USER: genes 7 Torsion [C]-N--CA-[CB] |==|  0.50331
USER: genes 8 Torsion [N]-CA--CB-[CG] |==|  0.04292
USER: genes 9 Torsion [CA]-CB--CG-[CD1] |==|  0.28665
USER: genes 10 Torsion [N]-CA--C-[O] |==|  0.40593
USER: genes 11 Torsion [O]-C--CA-[N] |==|  0.03867
USER: genes 12 Torsion [N]-C--CA-[N] |==|  0.51044
USER: genes 13 Torsion [C]-CA--CB-[CG] |==|  0.41821
USER: genes 14 Torsion [CA]-CB--CG-[SD] |==|  0.76715
USER: genes 15 Torsion [CB]-CG--SD-[CE] |==|  0.53425
ROOT
ATOM      1  C   PRO R   4       3.477  -4.394 -10.770  1.00 60.54 LIG 0.24  C 
ATOM      2 O    PRO R   4       3.213  -3.225 -10.483  1.00 63.53 LIG-0.27  OA
ATOM      3  N   PRO R   5       4.370  -5.136 -10.090  1.00 48.92 LIG-0.34  N 
ATOM      4  CA  PRO R   5       5.125  -4.565  -8.966  1.00 52.68 LIG 0.18  C 
ATOM      5  CB  PRO R   5       6.005  -5.734  -8.507  1.00 55.54 LIG 0.04  C 
ATOM      6  CG  PRO R   5       5.274  -6.953  -8.928  1.00 46.13 LIG 0.02  C 
ATOM      7  CD  PRO R   5       4.583  -6.589 -10.215  1.00 43.47 LIG 0.13  C 
ENDROOT
BRANCH 4 8
ATOM      8  C   PRO R   5       6.009  -3.378  -9.360  1.00 58.07 LIG 0.24  C 
ATOM      9 O    PRO R   5       5.866  -2.282  -8.813  1.00 51.36 LIG-0.27  OA
ATOM     10  N   THR R   6       6.910  -3.609 -10.311  1.00 69.24 LIG-0.34  N 
ATOM     11 H    THR R   6       7.044  -4.383 -10.662  1.00 69.24 LIG 0.16  HD
BRANCH 10 12
ATOM     12  CA  THR R   6       7.761  -2.553 -10.849  1.00 55.31 LIG 0.20  C 
BRANCH 12 13
ATOM     13  CB  THR R   6       6.930  -1.342 -11.329  1.00 60.29 LIG 0.15  C 
ATOM     14  CG2 THR R   6       7.758  -0.442 -12.234  1.00 62.01 LIG 0.04  C 
BRANCH 13 15
ATOM     15 OG1  THR R   6       5.782  -1.802 -12.053  1.00 91.48 LIG-0.39  OA
ATOM     16 HG1  THR R   6       5.107  -1.777 -11.554  1.00 91.48 LIG 0.21  HD
ENDBRANCH 13 15
ENDBRANCH 12 13
BRANCH 12 17
ATOM     17  C   THR R   6       8.747  -2.096  -9.784  1.00 56.48 LIG 0.24  C 
ATOM     18  N   LEU R   7       8.537  -2.553  -8.553  1.00 43.78 LIG-0.35  N 
ATOM     19 H    LEU R   7       7.899  -3.090  -8.342  1.00 43.78 LIG 0.16  HD
ATOM     20 O    THR R   6       9.677  -1.339 -10.074  1.00 41.48 LIG-0.27  OA
BRANCH 18 21
ATOM     21  CA  LEU R   7       9.394  -2.169  -7.439  1.00 53.52 LIG 0.16  C 
BRANCH 21 22
ATOM     22  CB  LEU R   7       8.941  -2.864  -6.153  1.00 41.32 LIG 0.04  C 
BRANCH 22 23
ATOM     23  CG  LEU R   7       7.985  -4.044  -6.356  1.00 48.65 LIG-0.02  C 
ATOM     24  CD1 LEU R   7       8.704  -5.377  -6.193  1.00 40.28 LIG 0.01  C 
ATOM     25  CD2 LEU R   7       6.800  -3.953  -5.403  1.00 37.72 LIG 0.01  C 
ENDBRANCH 22 23
ENDBRANCH 21 22
BRANCH 21 26
ATOM     26  C   LEU R   7      10.861  -2.481  -7.729  1.00 46.73 LIG 0.22  C 
ATOM     27 O    LEU R   7      11.756  -1.754  -7.297  1.00 57.50 LIG-0.29  OA
ENDBRANCH 21 26
ENDBRANCH 18 21
ENDBRANCH 12 17
ENDBRANCH 10 12
ENDBRANCH 4 8
BRANCH 1 28
ATOM     28  CA  PRO R   4       2.758  -5.047 -11.949  1.00 54.23 LIG 0.18  C 
ATOM     29  N   PRO R   4       2.087  -4.021 -12.751  1.00 66.40 LIG-0.34  N 
ATOM     30  CD  PRO R   4       2.895  -3.658 -13.925  1.00 55.20 LIG 0.13  C 
ATOM     31  C   MET R   3       0.854  -3.511 -12.583  1.00 65.13 LIG 0.26  C 
ATOM     32  CG  PRO R   4       3.570  -4.950 -14.253  1.00 51.34 LIG 0.02  C 
ATOM     33  CB  PRO R   4       3.786  -5.644 -12.930  1.00 43.90 LIG 0.04  C 
ATOM     34 O    MET R   3       0.413  -2.598 -13.285  1.00 74.37 LIG-0.27  OA
BRANCH 31 35
ATOM     35  CA  MET R   3      -0.014  -4.112 -11.479  1.00 67.30 LIG 0.40  C 
ATOM     36  N   MET R   3      -1.360  -3.545 -11.443  1.00 55.69 LIG 0.61  N 
BRANCH 35 37
ATOM     37  CB  MET R   3      -0.070  -5.632 -11.674  1.00 55.44 LIG 0.06  C 
BRANCH 37 38
ATOM     38  CG  MET R   3      -0.249  -6.439 -10.407  1.00 49.90 LIG 0.08  C 
BRANCH 38 39
ATOM     39 SD   MET R   3       1.347  -6.699  -9.613  1.00 67.63 LIG-0.17  SA
ATOM     40  CE  MET R   3       0.926  -7.951  -8.403  1.00 69.90 LIG 0.09  C 
ENDBRANCH 38 39
ENDBRANCH 37 38
ENDBRANCH 35 37
ENDBRANCH 31 35
ENDBRANCH 1 28
TORSDOF 14
ENDMDL
MODEL 123
USER: ADFR SOLUTION from run 50
USER: SCORE 11.207623 LL:  -3.030 LR:  -8.788 RR:   0.000 FEB:  -4.612
USER: RMSD 10.374760
USER: SEED 49
USER: STATUS no improvement in best in 18 clusters for 5 generations
USER: GENES 16
USER: genes 0 Translation |==|  0.21217 0.47784 0.56684
USER: genes 1 Rotation |==|  0.96053 0.60414 0.65979 0.53915
USER: genes 2 Torsion [N]-CA--C-[N] |==|  0.93282
USER: genes 3 Torsion [C]-N--CA-[CB] |==|  0.50000
USER: genes 4 Torsion [N]-CA--CB-[CG2] |==|  0.73827
USER: genes 5 Torsion [CA]-CB--OG1-[HG1] |==|  0.41320
USER: genes 6 Torsion [N]-CA--C-[N] |==|  0.42232
USER: genes 7 Torsion [C]-N--CA-[CB] |==|  0.45918
USER: genes 8 Torsion [N]-CA--CB-[CG] |==|  0.87065
USER: genes 9 Torsion [CA]-CB--CG-[CD1] |==|  0.29518
USER: genes 10 Torsion [N]-CA--C-[O] |==|  0.14512
USER: genes 11 Torsion [O]-C--CA-[N] |==|  0.89002
USER: genes 12 Torsion [N]-C--CA-[N] |==|  0.31257
USER: genes 13 Torsion [C]-CA--CB-[CG] |==|  0.65824
USER: genes 14 Torsion [CA]-CB--CG-[SD] |==|  0.31549
USER: genes 15 Torsion [CB]-CG--SD-[CE] |==|  0.49523
ROOT
ATOM      1  C   PRO R   4       0.585  -0.288 -13.800  1.00 60.54 LIG 0.24  C 
ATOM      2 O    PRO R   4       0.166   0.548 -12.996  1.00 63.53 LIG-0.27  OA
ATOM      3  N   PRO R   5       1.814  -0.235 -14.343  1.00 48.92 LIG-0.34  N 
ATOM      4  CA  PRO R   5       2.731   0.870 -14.030  1.00 52.68 LIG 0.18  C 
ATOM      5  CB  PRO R   5       3.979   0.532 -14.854  1.00 55.54 LIG 0.04  C 
ATOM      6  CG  PRO R   5       3.936  -0.939 -15.031  1.00 46.13 LIG 0.02  C 
ATOM      7  CD  PRO R   5       2.477  -1.295 -15.125  1.00 43.47 LIG 0.13  C 
ENDROOT
BRANCH 4 8
ATOM      8  C   PRO R   5       2.198   2.245 -14.443  1.00 58.07 LIG 0.24  C 
ATOM      9 O    PRO R   5       2.596   3.267 -13.878  1.00 51.36 LIG-0.27  OA
ATOM     10  N   THR R   6       1.297   2.254 -15.422  1.00 69.24 LIG-0.34  N 
ATOM     11 H    THR R   6       1.051   1.550 -15.849  1.00 69.24 LIG 0.16  HD
BRANCH 10 12
ATOM     12  CA  THR R   6       0.637   3.480 -15.860  1.00 55.31 LIG 0.20  C 
BRANCH 12 13
ATOM     13  CB  THR R   6      -0.361   3.210 -17.008  1.00 60.29 LIG 0.15  C 
ATOM     14  CG2 THR R   6       0.296   3.434 -18.361  1.00 62.01 LIG 0.04  C 
BRANCH 13 15
ATOM     15 OG1  THR R   6      -0.827   1.856 -16.933  1.00 91.48 LIG-0.39  OA
ATOM     16 HG1  THR R   6      -1.614   1.815 -17.223  1.00 91.48 LIG 0.21  HD
ENDBRANCH 13 15
ENDBRANCH 12 13
BRANCH 12 17
ATOM     17  C   THR R   6      -0.102   4.112 -14.689  1.00 56.48 LIG 0.24  C 
ATOM     18  N   LEU R   7      -0.252   5.433 -14.733  1.00 43.78 LIG-0.35  N 
ATOM     19 H    LEU R   7       0.028   5.927 -15.380  1.00 43.78 LIG 0.16  HD
ATOM     20 O    THR R   6      -0.524   3.415 -13.763  1.00 41.48 LIG-0.27  OA
BRANCH 18 21
ATOM     21  CA  LEU R   7      -0.919   6.162 -13.662  1.00 53.52 LIG 0.16  C 
BRANCH 21 22
ATOM     22  CB  LEU R   7      -0.637   7.661 -13.782  1.00 41.32 LIG 0.04  C 
BRANCH 22 23
ATOM     23  CG  LEU R   7       0.830   8.027 -14.027  1.00 48.65 LIG-0.02  C 
ATOM     24  CD1 LEU R   7       1.060   8.477 -15.464  1.00 40.28 LIG 0.01  C 
ATOM     25  CD2 LEU R   7       1.293   9.099 -13.048  1.00 37.72 LIG 0.01  C 
ENDBRANCH 22 23
ENDBRANCH 21 22
BRANCH 21 26
ATOM     26  C   LEU R   7      -2.423   5.897 -13.658  1.00 46.73 LIG 0.22  C 
ATOM     27 O    LEU R   7      -2.859   4.745 -13.653  1.00 57.50 LIG-0.29  OA
ENDBRANCH 21 26
ENDBRANCH 18 21
ENDBRANCH 12 17
ENDBRANCH 10 12
ENDBRANCH 4 8
BRANCH 1 28
ATOM     28  CA  PRO R   4      -0.323  -1.449 -14.201  1.00 54.23 LIG 0.18  C 
ATOM     29  N   PRO R   4      -1.062  -1.929 -13.030  1.00 66.40 LIG-0.34  N 
ATOM     30  CD  PRO R   4      -2.420  -1.364 -12.996  1.00 55.20 LIG 0.13  C 
ATOM     31  C   MET R   3      -0.678  -2.848 -12.126  1.00 65.13 LIG 0.26  C 
ATOM     32  CG  PRO R   4      -2.747  -1.248 -14.449  1.00 51.34 LIG 0.02  C 
ATOM     33  CB  PRO R   4      -1.439  -0.947 -15.139  1.00 43.90 LIG 0.04  C 
ATOM     34 O    MET R   3      -1.359  -3.129 -11.137  1.00 74.37 LIG-0.27  OA
BRANCH 31 35
ATOM     35  CA  MET R   3       0.651  -3.560 -12.365  1.00 67.30 LIG 0.40  C 
ATOM     36  N   MET R   3       1.667  -3.215 -11.373  1.00 55.69 LIG 0.61  N 
BRANCH 35 37
ATOM     37  CB  MET R   3       0.400  -5.073 -12.380  1.00 55.44 LIG 0.06  C 
BRANCH 37 38
ATOM     38  CG  MET R   3       1.201  -5.871 -11.375  1.00 49.90 LIG 0.08  C 
BRANCH 38 39
ATOM     39 SD   MET R   3       0.100  -6.587 -10.141  1.00 67.63 LIG-0.17  SA
ATOM     40  CE  MET R   3       1.266  -7.499  -9.132  1.00 69.90 LIG 0.09  C 
ENDBRANCH 38 39
ENDBRANCH 37 38
ENDBRANCH 35 37
ENDBRANCH 31 35
ENDBRANCH 1 28
TORSDOF 14
ENDMDL
MODEL 124
USER: ADFR SOLUTION from run 143
USER: SCORE 11.153318 LL:  -2.552 LR:  -8.777 RR:   0.000 FEB:  -4.601
USER: RMSD 6.799680
USER: SEED 142
USER: STATUS no improvement in best in 28 clusters for 5 generations
USER: GENES 16
USER: genes 0 Translation |==|  0.15939 0.45707 0.56321
USER: genes 1 Rotation |==|  0.66946 0.06687 0.65948 0.59082
USER: genes 2 Torsion [N]-CA--C-[N] |==|  0.28554
USER: genes 3 Torsion [C]-N--CA-[CB] |==|  0.86666
USER: genes 4 Torsion [N]-CA--CB-[CG2] |==|  0.43131
USER: genes 5 Torsion [CA]-CB--OG1-[HG1] |==|  0.13371
USER: genes 6 Torsion [N]-CA--C-[N] |==|  0.38683
USER: genes 7 Torsion [C]-N--CA-[CB] |==|  0.45992
USER: genes 8 Torsion [N]-CA--CB-[CG] |==|  0.36470
USER: genes 9 Torsion [CA]-CB--CG-[CD1] |==|  0.24383
USER: genes 10 Torsion [N]-CA--C-[O] |==|  0.89108
USER: genes 11 Torsion [O]-C--CA-[N] |==|  0.88619
USER: genes 12 Torsion [N]-C--CA-[N] |==|  0.18947
USER: genes 13 Torsion [C]-CA--CB-[CG] |==|  0.15108
USER: genes 14 Torsion [CA]-CB--CG-[SD] |==|  0.66952
USER: genes 15 Torsion [CB]-CG--SD-[CE] |==|  0.36222
ROOT
ATOM      1  C   PRO R   4      -0.365  -0.708 -13.873  1.00 60.54 LIG 0.24  C 
ATOM      2 O    PRO R   4      -0.166  -0.722 -12.657  1.00 63.53 LIG-0.27  OA
ATOM      3  N   PRO R   5      -1.048  -1.671 -14.518  1.00 48.92 LIG-0.34  N 
ATOM      4  CA  PRO R   5      -1.573  -2.837 -13.795  1.00 52.68 LIG 0.18  C 
ATOM      5  CB  PRO R   5      -2.256  -3.653 -14.899  1.00 55.54 LIG 0.04  C 
ATOM      6  CG  PRO R   5      -2.616  -2.663 -15.942  1.00 46.13 LIG 0.02  C 
ATOM      7  CD  PRO R   5      -1.525  -1.627 -15.913  1.00 43.47 LIG 0.13  C 
ENDROOT
BRANCH 4 8
ATOM      8  C   PRO R   5      -0.486  -3.684 -13.127  1.00 58.07 LIG 0.24  C 
ATOM      9 O    PRO R   5       0.204  -4.460 -13.795  1.00 51.36 LIG-0.27  OA
ATOM     10  N   THR R   6      -0.350  -3.532 -11.812  1.00 69.24 LIG-0.34  N 
ATOM     11 H    THR R   6      -0.796  -2.960 -11.351  1.00 69.24 LIG 0.16  HD
BRANCH 10 12
ATOM     12  CA  THR R   6       0.582  -4.335 -11.029  1.00 55.31 LIG 0.20  C 
BRANCH 12 13
ATOM     13  CB  THR R   6       0.453  -5.839 -11.356  1.00 60.29 LIG 0.15  C 
ATOM     14  CG2 THR R   6       1.747  -6.575 -11.044  1.00 62.01 LIG 0.04  C 
BRANCH 13 15
ATOM     15 OG1  THR R   6      -0.609  -6.412 -10.581  1.00 91.48 LIG-0.39  OA
ATOM     16 HG1  THR R   6      -1.291  -5.926 -10.640  1.00 91.48 LIG 0.21  HD
ENDBRANCH 13 15
ENDBRANCH 12 13
BRANCH 12 17
ATOM     17  C   THR R   6       2.008  -3.882 -11.304  1.00 56.48 LIG 0.24  C 
ATOM     18  N   LEU R   7       2.819  -3.819 -10.251  1.00 43.78 LIG-0.35  N 
ATOM     19 H    LEU R   7       2.585  -4.032  -9.451  1.00 43.78 LIG 0.16  HD
ATOM     20 O    THR R   6       2.364  -3.590 -12.448  1.00 41.48 LIG-0.27  OA
BRANCH 18 21
ATOM     21  CA  LEU R   7       4.202  -3.376 -10.377  1.00 53.52 LIG 0.16  C 
BRANCH 21 22
ATOM     22  CB  LEU R   7       4.788  -3.061  -8.999  1.00 41.32 LIG 0.04  C 
BRANCH 22 23
ATOM     23  CG  LEU R   7       6.157  -3.687  -8.718  1.00 48.65 LIG-0.02  C 
ATOM     24  CD1 LEU R   7       7.290  -2.789  -9.199  1.00 40.28 LIG 0.01  C 
ATOM     25  CD2 LEU R   7       6.315  -4.004  -7.236  1.00 37.72 LIG 0.01  C 
ENDBRANCH 22 23
ENDBRANCH 21 22
BRANCH 21 26
ATOM     26  C   LEU R   7       5.058  -4.413 -11.100  1.00 46.73 LIG 0.22  C 
ATOM     27 O    LEU R   7       4.902  -5.617 -10.888  1.00 57.50 LIG-0.29  OA
ENDBRANCH 21 26
ENDBRANCH 18 21
ENDBRANCH 12 17
ENDBRANCH 10 12
ENDBRANCH 4 8
BRANCH 1 28
ATOM     28  CA  PRO R   4       0.180   0.456 -14.699  1.00 54.23 LIG 0.18  C 
ATOM     29  N   PRO R   4      -0.017   1.714 -13.973  1.00 66.40 LIG-0.34  N 
ATOM     30  CD  PRO R   4       1.213   2.118 -13.276  1.00 55.20 LIG 0.13  C 
ATOM     31  C   MET R   3      -1.096   2.517 -13.983  1.00 65.13 LIG 0.26  C 
ATOM     32  CG  PRO R   4       2.276   1.609 -14.195  1.00 51.34 LIG 0.02  C 
ATOM     33  CB  PRO R   4       1.713   0.352 -14.812  1.00 43.90 LIG 0.04  C 
ATOM     34 O    MET R   3      -1.177   3.526 -13.278  1.00 74.37 LIG-0.27  OA
BRANCH 31 35
ATOM     35  CA  MET R   3      -2.244   2.146 -14.919  1.00 67.30 LIG 0.40  C 
ATOM     36  N   MET R   3      -2.934   0.923 -14.515  1.00 55.69 LIG 0.61  N 
BRANCH 35 37
ATOM     37  CB  MET R   3      -3.222   3.324 -14.984  1.00 55.44 LIG 0.06  C 
BRANCH 37 38
ATOM     38  CG  MET R   3      -2.609   4.653 -15.368  1.00 49.90 LIG 0.08  C 
BRANCH 38 39
ATOM     39 SD   MET R   3      -2.837   5.843 -14.035  1.00 67.63 LIG-0.17  SA
ATOM     40  CE  MET R   3      -1.171   6.478 -13.856  1.00 69.90 LIG 0.09  C 
ENDBRANCH 38 39
ENDBRANCH 37 38
ENDBRANCH 35 37
ENDBRANCH 31 35
ENDBRANCH 1 28
TORSDOF 14
ENDMDL
MODEL 125
USER: ADFR SOLUTION from run 183
USER: SCORE 11.249260 LL:  -2.954 LR:  -8.766 RR:   0.000 FEB:  -4.590
USER: RMSD 5.262551
USER: SEED 182
USER: STATUS no improvement in best in 41 clusters for 5 generations
USER: GENES 16
USER: genes 0 Translation |==|  0.51941 0.49156 0.63742
USER: genes 1 Rotation |==|  0.38346 0.71119 0.22530 0.84111
USER: genes 2 Torsion [N]-CA--C-[N] |==|  0.49937
USER: genes 3 Torsion [C]-N--CA-[CB] |==|  0.86832
USER: genes 4 Torsion [N]-CA--CB-[CG2] |==|  0.62310
USER: genes 5 Torsion [CA]-CB--OG1-[HG1] |==|  0.35970
USER: genes 6 Torsion [N]-CA--C-[N] |==|  0.31668
USER: genes 7 Torsion [C]-N--CA-[CB] |==|  0.22781
USER: genes 8 Torsion [N]-CA--CB-[CG] |==|  0.70851
USER: genes 9 Torsion [CA]-CB--CG-[CD1] |==|  0.40342
USER: genes 10 Torsion [N]-CA--C-[O] |==|  0.46012
USER: genes 11 Torsion [O]-C--CA-[N] |==|  0.00722
USER: genes 12 Torsion [N]-C--CA-[N] |==|  0.86949
USER: genes 13 Torsion [C]-CA--CB-[CG] |==|  0.59214
USER: genes 14 Torsion [CA]-CB--CG-[SD] |==|  0.41429
USER: genes 15 Torsion [CB]-CG--SD-[CE] |==|  0.07773
ROOT
ATOM      1  C   PRO R   4       6.115  -0.010 -12.370  1.00 60.54 LIG 0.24  C 
ATOM      2 O    PRO R   4       5.017  -0.556 -12.491  1.00 63.53 LIG-0.27  OA
ATOM      3  N   PRO R   5       7.246  -0.683 -12.090  1.00 48.92 LIG-0.34  N 
ATOM      4  CA  PRO R   5       7.223  -2.135 -11.869  1.00 52.68 LIG 0.18  C 
ATOM      5  CB  PRO R   5       8.693  -2.467 -11.582  1.00 55.54 LIG 0.04  C 
ATOM      6  CG  PRO R   5       9.466  -1.397 -12.255  1.00 46.13 LIG 0.02  C 
ATOM      7  CD  PRO R   5       8.621  -0.156 -12.150  1.00 43.47 LIG 0.13  C 
ENDROOT
BRANCH 4 8
ATOM      8  C   PRO R   5       6.358  -2.562 -10.680  1.00 58.07 LIG 0.24  C 
ATOM      9 O    PRO R   5       5.766  -1.719 -10.001  1.00 51.36 LIG-0.27  OA
ATOM     10  N   THR R   6       6.298  -3.869 -10.437  1.00 69.24 LIG-0.34  N 
ATOM     11 H    THR R   6       6.671  -4.463 -10.935  1.00 69.24 LIG 0.16  HD
BRANCH 10 12
ATOM     12  CA  THR R   6       5.585  -4.415  -9.288  1.00 55.31 LIG 0.20  C 
BRANCH 12 13
ATOM     13  CB  THR R   6       5.940  -3.661  -7.987  1.00 60.29 LIG 0.15  C 
ATOM     14  CG2 THR R   6       6.184  -4.636  -6.845  1.00 62.01 LIG 0.04  C 
BRANCH 13 15
ATOM     15 OG1  THR R   6       7.122  -2.876  -8.192  1.00 91.48 LIG-0.39  OA
ATOM     16 HG1  THR R   6       6.984  -2.089  -7.935  1.00 91.48 LIG 0.21  HD
ENDBRANCH 13 15
ENDBRANCH 12 13
BRANCH 12 17
ATOM     17  C   THR R   6       4.085  -4.327  -9.525  1.00 56.48 LIG 0.24  C 
ATOM     18  N   LEU R   7       3.439  -5.485  -9.644  1.00 43.78 LIG-0.35  N 
ATOM     19 H    LEU R   7       3.818  -6.254  -9.579  1.00 43.78 LIG 0.16  HD
ATOM     20 O    THR R   6       3.525  -3.231  -9.604  1.00 41.48 LIG-0.27  OA
BRANCH 18 21
ATOM     21  CA  LEU R   7       2.006  -5.538  -9.898  1.00 53.52 LIG 0.16  C 
BRANCH 21 22
ATOM     22  CB  LEU R   7       1.722  -5.353 -11.391  1.00 41.32 LIG 0.04  C 
BRANCH 22 23
ATOM     23  CG  LEU R   7       1.171  -3.978 -11.780  1.00 48.65 LIG-0.02  C 
ATOM     24  CD1 LEU R   7       1.682  -3.539 -13.147  1.00 40.28 LIG 0.01  C 
ATOM     25  CD2 LEU R   7      -0.353  -3.976 -11.751  1.00 37.72 LIG 0.01  C 
ENDBRANCH 22 23
ENDBRANCH 21 22
BRANCH 21 26
ATOM     26  C   LEU R   7       1.395  -6.843  -9.393  1.00 46.73 LIG 0.22  C 
ATOM     27 O    LEU R   7       0.175  -6.964  -9.278  1.00 57.50 LIG-0.29  OA
ENDBRANCH 21 26
ENDBRANCH 18 21
ENDBRANCH 12 17
ENDBRANCH 10 12
ENDBRANCH 4 8
BRANCH 1 28
ATOM     28  CA  PRO R   4       6.213   1.504 -12.552  1.00 54.23 LIG 0.18  C 
ATOM     29  N   PRO R   4       4.880   2.062 -12.795  1.00 66.40 LIG-0.34  N 
ATOM     30  CD  PRO R   4       4.309   2.620 -11.560  1.00 55.20 LIG 0.13  C 
ATOM     31  C   MET R   3       4.239   2.197 -13.969  1.00 65.13 LIG 0.26  C 
ATOM     32  CG  PRO R   4       5.526   3.119 -10.850  1.00 51.34 LIG 0.02  C 
ATOM     33  CB  PRO R   4       6.636   2.169 -11.228  1.00 43.90 LIG 0.04  C 
ATOM     34 O    MET R   3       3.085   2.624 -14.049  1.00 74.37 LIG-0.27  OA
BRANCH 31 35
ATOM     35  CA  MET R   3       4.997   1.808 -15.237  1.00 67.30 LIG 0.40  C 
ATOM     36  N   MET R   3       6.350   2.356 -15.280  1.00 55.69 LIG 0.61  N 
BRANCH 35 37
ATOM     37  CB  MET R   3       5.028   0.278 -15.337  1.00 55.44 LIG 0.06  C 
BRANCH 37 38
ATOM     38  CG  MET R   3       6.274  -0.303 -15.969  1.00 49.90 LIG 0.08  C 
BRANCH 38 39
ATOM     39 SD   MET R   3       6.623  -1.923 -15.262  1.00 67.63 LIG-0.17  SA
ATOM     40  CE  MET R   3       4.976  -2.456 -14.802  1.00 69.90 LIG 0.09  C 
ENDBRANCH 38 39
ENDBRANCH 37 38
ENDBRANCH 35 37
ENDBRANCH 31 35
ENDBRANCH 1 28
TORSDOF 14
ENDMDL
MODEL 126
USER: ADFR SOLUTION from run 148
USER: SCORE 12.467908 LL:  -4.290 LR:  -8.766 RR:   0.000 FEB:  -4.590
USER: RMSD 9.344115
USER: SEED 147
USER: STATUS no improvement in best in 18 clusters for 5 generations
USER: GENES 16
USER: genes 0 Translation |==|  0.36618 0.25002 0.76367
USER: genes 1 Rotation |==|  0.87043 0.53812 0.80863 0.62677
USER: genes 2 Torsion [N]-CA--C-[N] |==|  0.93463
USER: genes 3 Torsion [C]-N--CA-[CB] |==|  0.23311
USER: genes 4 Torsion [N]-CA--CB-[CG2] |==|  0.57616
USER: genes 5 Torsion [CA]-CB--OG1-[HG1] |==|  0.32873
USER: genes 6 Torsion [N]-CA--C-[N] |==|  0.96671
USER: genes 7 Torsion [C]-N--CA-[CB] |==|  0.44523
USER: genes 8 Torsion [N]-CA--CB-[CG] |==|  0.88598
USER: genes 9 Torsion [CA]-CB--CG-[CD1] |==|  0.24358
USER: genes 10 Torsion [N]-CA--C-[O] |==|  0.96803
USER: genes 11 Torsion [O]-C--CA-[N] |==|  0.85537
USER: genes 12 Torsion [N]-C--CA-[N] |==|  0.49853
USER: genes 13 Torsion [C]-CA--CB-[CG] |==|  0.49922
USER: genes 14 Torsion [CA]-CB--CG-[SD] |==|  0.59251
USER: genes 15 Torsion [CB]-CG--SD-[CE] |==|  0.96851
ROOT
ATOM      1  C   PRO R   4       3.357  -4.901  -9.814  1.00 60.54 LIG 0.24  C 
ATOM      2 O    PRO R   4       2.750  -3.854  -9.582  1.00 63.53 LIG-0.27  OA
ATOM      3  N   PRO R   5       4.582  -5.166  -9.326  1.00 48.92 LIG-0.34  N 
ATOM      4  CA  PRO R   5       5.295  -4.180  -8.502  1.00 52.68 LIG 0.18  C 
ATOM      5  CB  PRO R   5       6.619  -4.885  -8.181  1.00 55.54 LIG 0.04  C 
ATOM      6  CG  PRO R   5       6.315  -6.333  -8.274  1.00 46.13 LIG 0.02  C 
ATOM      7  CD  PRO R   5       5.282  -6.463  -9.361  1.00 43.47 LIG 0.13  C 
ENDROOT
BRANCH 4 8
ATOM      8  C   PRO R   5       5.577  -2.862  -9.228  1.00 58.07 LIG 0.24  C 
ATOM      9 O    PRO R   5       5.753  -1.821  -8.591  1.00 51.36 LIG-0.27  OA
ATOM     10  N   THR R   6       5.610  -2.920 -10.557  1.00 69.24 LIG-0.34  N 
ATOM     11 H    THR R   6       5.534  -3.651 -11.003  1.00 69.24 LIG 0.16  HD
BRANCH 10 12
ATOM     12  CA  THR R   6       5.780  -1.731 -11.383  1.00 55.31 LIG 0.20  C 
BRANCH 12 13
ATOM     13  CB  THR R   6       7.271  -1.353 -11.538  1.00 60.29 LIG 0.15  C 
ATOM     14  CG2 THR R   6       7.429   0.140 -11.778  1.00 62.01 LIG 0.04  C 
BRANCH 13 15
ATOM     15 OG1  THR R   6       7.985  -1.714 -10.349  1.00 91.48 LIG-0.39  OA
ATOM     16 HG1  THR R   6       8.574  -2.282 -10.537  1.00 91.48 LIG 0.21  HD
ENDBRANCH 13 15
ENDBRANCH 12 13
BRANCH 12 17
ATOM     17  C   THR R   6       5.178  -1.971 -12.760  1.00 56.48 LIG 0.24  C 
ATOM     18  N   LEU R   7       4.852  -3.229 -13.047  1.00 43.78 LIG-0.35  N 
ATOM     19 H    LEU R   7       4.950  -3.887 -12.502  1.00 43.78 LIG 0.16  HD
ATOM     20 O    THR R   6       5.016  -1.035 -13.546  1.00 41.48 LIG-0.27  OA
BRANCH 18 21
ATOM     21  CA  LEU R   7       4.290  -3.596 -14.341  1.00 53.52 LIG 0.16  C 
BRANCH 21 22
ATOM     22  CB  LEU R   7       4.463  -5.095 -14.591  1.00 41.32 LIG 0.04  C 
BRANCH 22 23
ATOM     23  CG  LEU R   7       5.816  -5.672 -14.165  1.00 48.65 LIG-0.02  C 
ATOM     24  CD1 LEU R   7       5.802  -6.105 -12.704  1.00 40.28 LIG 0.01  C 
ATOM     25  CD2 LEU R   7       6.219  -6.833 -15.065  1.00 37.72 LIG 0.01  C 
ENDBRANCH 22 23
ENDBRANCH 21 22
BRANCH 21 26
ATOM     26  C   LEU R   7       2.819  -3.200 -14.444  1.00 46.73 LIG 0.22  C 
ATOM     27 O    LEU R   7       2.193  -2.839 -13.446  1.00 57.50 LIG-0.29  OA
ENDBRANCH 21 26
ENDBRANCH 18 21
ENDBRANCH 12 17
ENDBRANCH 10 12
ENDBRANCH 4 8
BRANCH 1 28
ATOM     28  CA  PRO R   4       2.695  -5.962 -10.692  1.00 54.23 LIG 0.18  C 
ATOM     29  N   PRO R   4       1.354  -6.262 -10.181  1.00 66.40 LIG-0.34  N 
ATOM     30  CD  PRO R   4       0.327  -5.528 -10.934  1.00 55.20 LIG 0.13  C 
ATOM     31  C   MET R   3       1.007  -7.159  -9.241  1.00 65.13 LIG 0.26  C 
ATOM     32  CG  PRO R   4       0.923  -5.470 -12.303  1.00 51.34 LIG 0.02  C 
ATOM     33  CB  PRO R   4       2.415  -5.387 -12.094  1.00 43.90 LIG 0.04  C 
ATOM     34 O    MET R   3      -0.153  -7.283  -8.840  1.00 74.37 LIG-0.27  OA
BRANCH 31 35
ATOM     35  CA  MET R   3       2.110  -8.050  -8.673  1.00 67.30 LIG 0.40  C 
ATOM     36  N   MET R   3       1.623  -8.975  -7.653  1.00 55.69 LIG 0.61  N 
BRANCH 35 37
ATOM     37  CB  MET R   3       2.766  -8.812  -9.829  1.00 55.44 LIG 0.06  C 
BRANCH 37 38
ATOM     38  CG  MET R   3       3.893  -9.742  -9.434  1.00 49.90 LIG 0.08  C 
BRANCH 38 39
ATOM     39 SD   MET R   3       5.133  -9.794 -10.740  1.00 67.63 LIG-0.17  SA
ATOM     40  CE  MET R   3       4.266  -8.960 -12.067  1.00 69.90 LIG 0.09  C 
ENDBRANCH 38 39
ENDBRANCH 37 38
ENDBRANCH 35 37
ENDBRANCH 31 35
ENDBRANCH 1 28
TORSDOF 14
ENDMDL
