MODEL 1
USER: ADFR SOLUTION from run 2
USER: SCORE 19.086057 LL:  -3.458 LR: -17.337 RR:   0.000 FEB: -10.476
USER: RMSD 2.202134
USER: SEED 876916
USER: STATUS no improvement in best in 8 clusters for 5 generations
USER: GENES 25
USER: genes 0 Translation |==|  0.46202 0.62232 0.46264
USER: genes 1 Rotation |==|  0.54666 0.41530 0.48224 0.99024
USER: genes 2 Torsion [CB]-CA--N-[C] |==|  0.83415
USER: genes 3 Torsion [N]-C--CA-[N] |==|  0.58742
USER: genes 4 Torsion [C]-CA--N-[C] |==|  0.70070
USER: genes 5 Torsion [N]-C--CA-[N] |==|  0.19870
USER: genes 6 Torsion [C]-CA--CB-[CG] |==|  0.85013
USER: genes 7 Torsion [CA]-CB--CG-[CD] |==|  0.58090
USER: genes 8 Torsion [CB]-CG--CD-[NE] |==|  0.20771
USER: genes 9 Torsion [CG]-CD--NE-[HE] |==|  0.11939
USER: genes 10 Torsion [N]-CA--CB-[CG] |==|  0.92076
USER: genes 11 Torsion [CA]-CB--CG-[CD2] |==|  0.82301
USER: genes 12 Torsion [N]-CA--C-[N] |==|  0.35007
USER: genes 13 Torsion [C]-N--CA-[C] |==|  0.59075
USER: genes 14 Torsion [N]-CA--CB-[CG] |==|  0.11323
USER: genes 15 Torsion [CA]-CB--CG-[CD] |==|  0.71460
USER: genes 16 Torsion [CB]-CG--CD-[OE1] |==|  0.75172
USER: genes 17 Torsion [N]-CA--C-[N] |==|  0.31148
USER: genes 18 Torsion [C]-N--CA-[CB] |==|  0.50583
USER: genes 19 Torsion [N]-CA--CB-[CG1] |==|  0.68119
USER: genes 20 Torsion [N]-CA--C-[N] |==|  0.40739
USER: genes 21 Torsion [C]-N--CA-[C] |==|  0.57934
USER: genes 22 Torsion [N]-CA--C-[O] |==|  0.03619
USER: genes 23 Torsion [N]-CA--CB-[OG1] |==|  0.64229
USER: genes 24 Torsion [CA]-CB--OG1-[HG1] |==|  0.08151
ROOT
ATOM      1  CA  PHE C1005       0.386 -33.077   5.825  1.00 26.32 LIG 0.18  C 
ENDROOT
BRANCH 1 2
ATOM      2  N   PHE C1005       0.030 -33.292   4.431  1.00 26.54 LIG-0.35  N 
ATOM      3  C   ARG C1004      -1.175 -33.747   4.082  1.00 27.34 LIG 0.24  C 
ATOM      4 O    ARG C1004      -2.104 -33.870   4.879  1.00 26.08 LIG-0.27  OA
ATOM      5 H    PHE C1005       0.655 -33.103   3.869  1.00 26.54 LIG 0.16  HD
BRANCH 3 6
ATOM      6  CA  ARG C1004      -1.368 -34.111   2.601  1.00 28.49 LIG 0.18  C 
BRANCH 6 7
ATOM      7  N   ARG C1004      -2.732 -33.893   2.126  1.00 30.45 LIG-0.35  N 
ATOM      8  C   GLY C1003      -3.527 -34.934   1.876  1.00 32.03 LIG 0.25  C 
ATOM      9 O    GLY C1003      -3.174 -36.095   2.082  1.00 33.62 LIG-0.27  OA
ATOM     10 H    ARG C1004      -2.958 -33.070   2.029  1.00 30.45 LIG 0.16  HD
BRANCH 8 11
ATOM     11  CA  GLY C1003      -4.908 -34.631   1.333  1.00 33.10 LIG 0.47  C 
ATOM     12  N   GLY C1003      -4.869 -34.154  -0.075  1.00 33.92 LIG 0.61  N 
ENDBRANCH 8 11
ENDBRANCH 6 7
BRANCH 6 13
ATOM     13  CB  ARG C1004      -0.349 -33.377   1.725  1.00 28.45 LIG 0.04  C 
BRANCH 13 14
ATOM     14  CG  ARG C1004      -0.334 -31.878   1.914  1.00 27.92 LIG 0.02  C 
BRANCH 14 15
ATOM     15  CD  ARG C1004       0.096 -31.158   0.636  1.00 26.34 LIG 0.14  C 
BRANCH 15 16
ATOM     16  NE  ARG C1004      -0.973 -31.166  -0.352  1.00 24.25 LIG-0.23  N 
ATOM     17 HE   ARG C1004      -1.771 -31.002  -0.076  1.00 24.25 LIG 0.18  HD
ATOM     18  CZ  ARG C1004      -0.808 -31.407  -1.648  1.00 25.16 LIG 0.67  C 
ATOM     19  NH2 ARG C1004      -1.855 -31.374  -2.451  1.00 24.86 LIG-0.23  N 
ATOM     20  NH1 ARG C1004       0.388 -31.700  -2.138  1.00 22.12 LIG-0.23  N 
ATOM     21 1HH2 ARG C1004      -2.634 -31.197  -2.134  1.00 24.86 LIG 0.17  HD
ATOM     22 2HH2 ARG C1004      -1.757 -31.529  -3.291  1.00 24.86 LIG 0.17  HD
ATOM     23 1HH1 ARG C1004       1.070 -31.736  -1.615  1.00 22.12 LIG 0.17  HD
ATOM     24 2HH1 ARG C1004       0.482 -31.854  -2.979  1.00 22.12 LIG 0.17  HD
ENDBRANCH 15 16
ENDBRANCH 14 15
ENDBRANCH 13 14
ENDBRANCH 6 13
ENDBRANCH 3 6
ENDBRANCH 1 2
BRANCH 1 25
ATOM     25  CB  PHE C1005      -0.559 -32.062   6.457  1.00 25.48 LIG 0.07  C 
BRANCH 25 26
ATOM     26  CG  PHE C1005      -1.108 -31.080   5.470  1.00 23.55 LIG-0.06  A 
ATOM     27  CD1 PHE C1005      -2.483 -31.048   5.185  1.00 22.30 LIG 0.01  A 
ATOM     28  CE1 PHE C1005      -2.998 -30.137   4.249  1.00 23.64 LIG 0.00  A 
ATOM     29  CZ  PHE C1005      -2.104 -29.266   3.574  1.00 21.73 LIG 0.00  A 
ATOM     30  CE2 PHE C1005      -0.745 -29.292   3.862  1.00 19.92 LIG 0.00  A 
ATOM     31  CD2 PHE C1005      -0.241 -30.200   4.813  1.00 21.20 LIG 0.01  A 
ENDBRANCH 25 26
ENDBRANCH 1 25
BRANCH 1 32
ATOM     32  C   PHE C1005       0.346 -34.357   6.623  1.00 27.26 LIG 0.24  C 
ATOM     33 O    PHE C1005      -0.667 -35.048   6.617  1.00 28.13 LIG-0.27  OA
ATOM     34  N   GLN C1006       1.458 -34.647   7.290  1.00 28.15 LIG-0.35  N 
ATOM     35 H    GLN C1006       2.191 -34.209   7.187  1.00 28.15 LIG 0.16  HD
BRANCH 34 36
ATOM     36  CA  GLN C1006       1.561 -35.732   8.264  1.00 29.76 LIG 0.18  C 
BRANCH 36 37
ATOM     37  CB  GLN C1006       2.008 -37.026   7.588  1.00 29.94 LIG 0.04  C 
BRANCH 37 38
ATOM     38  CG  GLN C1006       3.090 -36.859   6.539  1.00 33.02 LIG 0.10  C 
BRANCH 38 39
ATOM     39  CD  GLN C1006       2.547 -36.929   5.123  1.00 35.46 LIG 0.21  C 
ATOM     40 OE1  GLN C1006       2.466 -38.006   4.531  1.00 38.48 LIG-0.27  OA
ATOM     41  NE2 GLN C1006       2.182 -35.774   4.568  1.00 37.01 LIG-0.37  N 
ATOM     42 22HE GLN C1006       1.875 -35.760   3.765  1.00 37.01 LIG 0.16  HD
ATOM     43 21HE GLN C1006       2.254 -35.042   5.014  1.00 37.01 LIG 0.16  HD
ENDBRANCH 38 39
ENDBRANCH 37 38
ENDBRANCH 36 37
BRANCH 36 44
ATOM     44  C   GLN C1006       2.550 -35.339   9.364  1.00 30.09 LIG 0.24  C 
ATOM     45  N   VAL C1007       2.013 -35.141  10.572  1.00 30.97 LIG-0.35  N 
ATOM     46 H    VAL C1007       1.164 -35.162  10.710  1.00 30.97 LIG 0.16  HD
ATOM     47 O    GLN C1006       3.754 -35.201   9.106  1.00 30.15 LIG-0.27  OA
BRANCH 45 48
ATOM     48  CA  VAL C1007       2.789 -34.866  11.792  1.00 32.05 LIG 0.18  C 
BRANCH 48 49
ATOM     49  CB  VAL C1007       1.850 -34.739  13.033  1.00 32.12 LIG 0.01  C 
ATOM     50  CG1 VAL C1007       1.862 -33.331  13.624  1.00 30.72 LIG 0.01  C 
ATOM     51  CG2 VAL C1007       2.181 -35.776  14.100  1.00 30.85 LIG 0.01  C 
ENDBRANCH 48 49
BRANCH 48 52
ATOM     52  C   VAL C1007       3.646 -36.152  11.960  1.00 33.20 LIG 0.24  C 
ATOM     53 O    VAL C1007       3.161 -37.224  11.616  1.00 34.91 LIG-0.27  OA
ATOM     54  N   THR C1008       4.877 -36.103  12.475  1.00 34.53 LIG-0.34  N 
ATOM     55 H    THR C1008       5.365 -36.810  12.511  1.00 34.53 LIG 0.16  HD
BRANCH 54 56
ATOM     56  CA  THR C1008       5.575 -34.946  13.027  1.00 33.96 LIG 0.19  C 
BRANCH 56 57
ATOM     57  C   THR C1008       7.076 -35.149  12.829  1.00 33.93 LIG 0.22  C 
ATOM     58 O    THR C1008       7.512 -36.029  12.081  1.00 34.05 LIG-0.29  OA
ENDBRANCH 56 57
BRANCH 56 59
ATOM     59  CB  THR C1008       5.298 -34.778  14.568  1.00 34.51 LIG 0.14  C 
ATOM     60  CG2 THR C1008       6.541 -35.054  15.417  1.00 33.41 LIG 0.04  C 
BRANCH 59 61
ATOM     61 OG1  THR C1008       4.878 -33.445  14.838  1.00 32.91 LIG-0.39  OA
ATOM     62 HG1  THR C1008       4.481 -33.134  14.165  1.00 32.91 LIG 0.21  HD
ENDBRANCH 59 61
ENDBRANCH 56 59
ENDBRANCH 54 56
ENDBRANCH 48 52
ENDBRANCH 45 48
ENDBRANCH 36 44
ENDBRANCH 34 36
ENDBRANCH 1 32
TORSDOF 23
ENDMDL
MODEL 2
USER: ADFR SOLUTION from run 100
USER: SCORE 19.175806 LL:  -4.331 LR: -17.091 RR:   0.000 FEB: -10.230
USER: RMSD 2.544689
USER: SEED 99
USER: STATUS searching
USER: GENES 25
USER: genes 0 Translation |==|  0.46074 0.63037 0.48656
USER: genes 1 Rotation |==|  0.56155 0.32636 0.56518 0.96023
USER: genes 2 Torsion [CB]-CA--N-[C] |==|  0.76667
USER: genes 3 Torsion [N]-C--CA-[N] |==|  0.38461
USER: genes 4 Torsion [C]-CA--N-[C] |==|  0.58947
USER: genes 5 Torsion [N]-C--CA-[N] |==|  0.60562
USER: genes 6 Torsion [C]-CA--CB-[CG] |==|  0.35495
USER: genes 7 Torsion [CA]-CB--CG-[CD] |==|  0.65912
USER: genes 8 Torsion [CB]-CG--CD-[NE] |==|  0.72300
USER: genes 9 Torsion [CG]-CD--NE-[HE] |==|  0.30339
USER: genes 10 Torsion [N]-CA--CB-[CG] |==|  0.91949
USER: genes 11 Torsion [CA]-CB--CG-[CD2] |==|  0.35911
USER: genes 12 Torsion [N]-CA--C-[N] |==|  0.22396
USER: genes 13 Torsion [C]-N--CA-[C] |==|  0.66780
USER: genes 14 Torsion [N]-CA--CB-[CG] |==|  0.80145
USER: genes 15 Torsion [CA]-CB--CG-[CD] |==|  0.27685
USER: genes 16 Torsion [CB]-CG--CD-[OE1] |==|  0.44575
USER: genes 17 Torsion [N]-CA--C-[N] |==|  0.30786
USER: genes 18 Torsion [C]-N--CA-[CB] |==|  0.43133
USER: genes 19 Torsion [N]-CA--CB-[CG1] |==|  0.80173
USER: genes 20 Torsion [N]-CA--C-[N] |==|  0.34664
USER: genes 21 Torsion [C]-N--CA-[C] |==|  0.59959
USER: genes 22 Torsion [N]-CA--C-[O] |==|  0.39609
USER: genes 23 Torsion [N]-CA--CB-[OG1] |==|  0.72962
USER: genes 24 Torsion [CA]-CB--OG1-[HG1] |==|  0.94844
ROOT
ATOM      1  CA  PHE C1005       0.361 -32.932   6.489  1.00 26.32 LIG 0.18  C 
ENDROOT
BRANCH 1 2
ATOM      2  N   PHE C1005       0.655 -33.156   5.081  1.00 26.54 LIG-0.35  N 
ATOM      3  C   ARG C1004       0.204 -34.235   4.439  1.00 27.34 LIG 0.24  C 
ATOM      4 O    ARG C1004      -0.599 -35.025   4.933  1.00 26.08 LIG-0.27  OA
ATOM      5 H    PHE C1005       1.133 -32.542   4.714  1.00 26.54 LIG 0.16  HD
BRANCH 3 6
ATOM      6  CA  ARG C1004       0.734 -34.455   3.013  1.00 28.49 LIG 0.18  C 
BRANCH 6 7
ATOM      7  N   ARG C1004       1.060 -35.850   2.726  1.00 30.45 LIG-0.35  N 
ATOM      8  C   GLY C1003       2.055 -36.146   1.891  1.00 32.03 LIG 0.25  C 
ATOM      9 O    GLY C1003       2.763 -35.279   1.379  1.00 33.62 LIG-0.27  OA
ATOM     10 H    ARG C1004       0.570 -36.430   3.130  1.00 30.45 LIG 0.16  HD
BRANCH 8 11
ATOM     11  CA  GLY C1003       2.297 -37.612   1.600  1.00 33.10 LIG 0.47  C 
ATOM     12  N   GLY C1003       3.745 -37.934   1.489  1.00 33.92 LIG 0.61  N 
ENDBRANCH 8 11
ENDBRANCH 6 7
BRANCH 6 13
ATOM     13  CB  ARG C1004      -0.242 -33.887   1.978  1.00 28.45 LIG 0.04  C 
BRANCH 13 14
ATOM     14  CG  ARG C1004       0.391 -32.945   0.980  1.00 27.92 LIG 0.02  C 
BRANCH 14 15
ATOM     15  CD  ARG C1004      -0.287 -31.576   0.996  1.00 26.34 LIG 0.14  C 
BRANCH 15 16
ATOM     16  NE  ARG C1004      -1.236 -31.453  -0.101  1.00 24.25 LIG-0.23  N 
ATOM     17 HE   ARG C1004      -2.074 -31.449   0.095  1.00 24.25 LIG 0.18  HD
ATOM     18  CZ  ARG C1004      -0.905 -31.345  -1.384  1.00 25.16 LIG 0.67  C 
ATOM     19  NH2 ARG C1004      -1.857 -31.225  -2.290  1.00 24.86 LIG-0.23  N 
ATOM     20  NH1 ARG C1004       0.364 -31.377  -1.763  1.00 22.12 LIG-0.23  N 
ATOM     21 1HH2 ARG C1004      -2.682 -31.217  -2.048  1.00 24.86 LIG 0.17  HD
ATOM     22 2HH2 ARG C1004      -1.652 -31.155  -3.122  1.00 24.86 LIG 0.17  HD
ATOM     23 1HH1 ARG C1004       0.986 -31.468  -1.176  1.00 22.12 LIG 0.17  HD
ATOM     24 2HH1 ARG C1004       0.566 -31.306  -2.596  1.00 22.12 LIG 0.17  HD
ENDBRANCH 15 16
ENDBRANCH 14 15
ENDBRANCH 13 14
ENDBRANCH 6 13
ENDBRANCH 3 6
ENDBRANCH 1 2
BRANCH 1 25
ATOM     25  CB  PHE C1005      -1.004 -32.273   6.641  1.00 25.48 LIG 0.07  C 
BRANCH 25 26
ATOM     26  CG  PHE C1005      -1.379 -31.424   5.467  1.00 23.55 LIG-0.06  A 
ATOM     27  CD1 PHE C1005      -0.499 -30.440   4.988  1.00 22.30 LIG 0.01  A 
ATOM     28  CE1 PHE C1005      -0.855 -29.633   3.895  1.00 23.64 LIG 0.00  A 
ATOM     29  CZ  PHE C1005      -2.131 -29.808   3.298  1.00 21.73 LIG 0.00  A 
ATOM     30  CE2 PHE C1005      -2.998 -30.787   3.768  1.00 19.92 LIG 0.00  A 
ATOM     31  CD2 PHE C1005      -2.625 -31.600   4.855  1.00 21.20 LIG 0.01  A 
ENDBRANCH 25 26
ENDBRANCH 1 25
BRANCH 1 32
ATOM     32  C   PHE C1005       0.384 -34.215   7.282  1.00 27.26 LIG 0.24  C 
ATOM     33 O    PHE C1005      -0.667 -34.786   7.550  1.00 28.13 LIG-0.27  OA
ATOM     34  N   GLN C1006       1.591 -34.644   7.635  1.00 28.15 LIG-0.35  N 
ATOM     35 H    GLN C1006       2.317 -34.291   7.338  1.00 28.15 LIG 0.16  HD
BRANCH 34 36
ATOM     36  CA  GLN C1006       1.821 -35.754   8.558  1.00 29.76 LIG 0.18  C 
BRANCH 36 37
ATOM     37  CB  GLN C1006       2.576 -36.887   7.867  1.00 29.94 LIG 0.04  C 
BRANCH 37 38
ATOM     38  CG  GLN C1006       1.767 -37.664   6.846  1.00 33.02 LIG 0.10  C 
BRANCH 38 39
ATOM     39  CD  GLN C1006       2.049 -37.226   5.420  1.00 35.46 LIG 0.21  C 
ATOM     40 OE1  GLN C1006       1.771 -37.958   4.470  1.00 38.48 LIG-0.27  OA
ATOM     41  NE2 GLN C1006       2.613 -36.029   5.266  1.00 37.01 LIG-0.37  N 
ATOM     42 22HE GLN C1006       2.798 -35.739   4.478  1.00 37.01 LIG 0.16  HD
ATOM     43 21HE GLN C1006       2.792 -35.547   5.955  1.00 37.01 LIG 0.16  HD
ENDBRANCH 38 39
ENDBRANCH 37 38
ENDBRANCH 36 37
BRANCH 36 44
ATOM     44  C   GLN C1006       2.608 -35.254   9.772  1.00 30.09 LIG 0.24  C 
ATOM     45  N   VAL C1007       1.928 -35.224  10.922  1.00 30.97 LIG-0.35  N 
ATOM     46 H    VAL C1007       1.088 -35.403  10.968  1.00 30.97 LIG 0.16  HD
ATOM     47 O    GLN C1006       3.786 -34.891   9.650  1.00 30.15 LIG-0.27  OA
BRANCH 45 48
ATOM     48  CA  VAL C1007       2.516 -34.885  12.228  1.00 32.05 LIG 0.18  C 
BRANCH 48 49
ATOM     49  CB  VAL C1007       1.427 -34.340  13.205  1.00 32.12 LIG 0.01  C 
ATOM     50  CG1 VAL C1007       0.949 -32.943  12.815  1.00 30.72 LIG 0.01  C 
ATOM     51  CG2 VAL C1007       1.906 -34.363  14.653  1.00 30.85 LIG 0.01  C 
ENDBRANCH 48 49
BRANCH 48 52
ATOM     52  C   VAL C1007       3.003 -36.262  12.760  1.00 33.20 LIG 0.24  C 
ATOM     53 O    VAL C1007       2.189 -37.174  12.846  1.00 34.91 LIG-0.27  OA
ATOM     54  N   THR C1008       4.272 -36.453  13.129  1.00 34.53 LIG-0.34  N 
ATOM     55 H    THR C1008       4.546 -37.233  13.369  1.00 34.53 LIG 0.16  HD
BRANCH 54 56
ATOM     56  CA  THR C1008       5.349 -35.469  13.194  1.00 33.96 LIG 0.19  C 
BRANCH 56 57
ATOM     57  C   THR C1008       6.651 -36.153  12.782  1.00 33.93 LIG 0.22  C 
ATOM     58 O    THR C1008       7.503 -35.562  12.112  1.00 34.05 LIG-0.29  OA
ENDBRANCH 56 57
BRANCH 56 59
ATOM     59  CB  THR C1008       5.529 -34.896  14.649  1.00 34.51 LIG 0.14  C 
ATOM     60  CG2 THR C1008       6.998 -34.650  15.000  1.00 33.41 LIG 0.04  C 
BRANCH 59 61
ATOM     61 OG1  THR C1008       4.843 -33.654  14.764  1.00 32.91 LIG-0.39  OA
ATOM     62 HG1  THR C1008       4.695 -33.343  13.997  1.00 32.91 LIG 0.21  HD
ENDBRANCH 59 61
ENDBRANCH 56 59
ENDBRANCH 54 56
ENDBRANCH 48 52
ENDBRANCH 45 48
ENDBRANCH 36 44
ENDBRANCH 34 36
ENDBRANCH 1 32
TORSDOF 23
ENDMDL
MODEL 3
USER: ADFR SOLUTION from run 63
USER: SCORE 18.506236 LL:  -3.415 LR: -16.956 RR:   0.000 FEB: -10.095
USER: RMSD 2.488769
USER: SEED 62
USER: STATUS no improvement in best in 13 clusters for 5 generations
USER: GENES 25
USER: genes 0 Translation |==|  0.43930 0.64283 0.46515
USER: genes 1 Rotation |==|  0.47893 0.41955 0.53841 0.99154
USER: genes 2 Torsion [CB]-CA--N-[C] |==|  0.14098
USER: genes 3 Torsion [N]-C--CA-[N] |==|  0.30835
USER: genes 4 Torsion [C]-CA--N-[C] |==|  0.69247
USER: genes 5 Torsion [N]-C--CA-[N] |==|  0.20190
USER: genes 6 Torsion [C]-CA--CB-[CG] |==|  0.93407
USER: genes 7 Torsion [CA]-CB--CG-[CD] |==|  0.79712
USER: genes 8 Torsion [CB]-CG--CD-[NE] |==|  0.86857
USER: genes 9 Torsion [CG]-CD--NE-[HE] |==|  0.33380
USER: genes 10 Torsion [N]-CA--CB-[CG] |==|  0.09532
USER: genes 11 Torsion [CA]-CB--CG-[CD2] |==|  0.16708
USER: genes 12 Torsion [N]-CA--C-[N] |==|  0.16585
USER: genes 13 Torsion [C]-N--CA-[C] |==|  0.84880
USER: genes 14 Torsion [N]-CA--CB-[CG] |==|  0.47031
USER: genes 15 Torsion [CA]-CB--CG-[CD] |==|  0.72554
USER: genes 16 Torsion [CB]-CG--CD-[OE1] |==|  0.13476
USER: genes 17 Torsion [N]-CA--C-[N] |==|  0.42542
USER: genes 18 Torsion [C]-N--CA-[CB] |==|  0.25122
USER: genes 19 Torsion [N]-CA--CB-[CG1] |==|  0.92663
USER: genes 20 Torsion [N]-CA--C-[N] |==|  0.33889
USER: genes 21 Torsion [C]-N--CA-[C] |==|  0.66913
USER: genes 22 Torsion [N]-CA--C-[O] |==|  0.41220
USER: genes 23 Torsion [N]-CA--CB-[OG1] |==|  0.66674
USER: genes 24 Torsion [CA]-CB--OG1-[HG1] |==|  0.01455
ROOT
ATOM      1  CA  PHE C1005      -0.057 -32.708   5.895  1.00 26.32 LIG 0.18  C 
ENDROOT
BRANCH 1 2
ATOM      2  N   PHE C1005      -0.341 -33.389   4.640  1.00 26.54 LIG-0.35  N 
ATOM      3  C   ARG C1004      -0.668 -32.710   3.539  1.00 27.34 LIG 0.24  C 
ATOM      4 O    ARG C1004      -0.606 -31.483   3.461  1.00 26.08 LIG-0.27  OA
ATOM      5 H    PHE C1005      -0.279 -34.246   4.677  1.00 26.54 LIG 0.16  HD
BRANCH 3 6
ATOM      6  CA  ARG C1004      -1.127 -33.542   2.331  1.00 28.49 LIG 0.18  C 
BRANCH 6 7
ATOM      7  N   ARG C1004      -2.545 -33.377   2.021  1.00 30.45 LIG-0.35  N 
ATOM      8  C   GLY C1003      -3.396 -34.382   2.225  1.00 32.03 LIG 0.25  C 
ATOM      9 O    GLY C1003      -3.043 -35.451   2.723  1.00 33.62 LIG-0.27  OA
ATOM     10 H    ARG C1004      -2.763 -32.606   1.709  1.00 30.45 LIG 0.16  HD
BRANCH 8 11
ATOM     11  CA  GLY C1003      -4.839 -34.154   1.827  1.00 33.10 LIG 0.47  C 
ATOM     12  N   GLY C1003      -5.025 -34.153   0.351  1.00 33.92 LIG 0.61  N 
ENDBRANCH 8 11
ENDBRANCH 6 7
BRANCH 6 13
ATOM     13  CB  ARG C1004      -0.251 -33.254   1.109  1.00 28.45 LIG 0.04  C 
BRANCH 13 14
ATOM     14  CG  ARG C1004       0.435 -31.908   1.141  1.00 27.92 LIG 0.02  C 
BRANCH 14 15
ATOM     15  CD  ARG C1004      -0.553 -30.770   0.889  1.00 26.34 LIG 0.14  C 
BRANCH 15 16
ATOM     16  NE  ARG C1004      -1.399 -31.060  -0.260  1.00 24.25 LIG-0.23  N 
ATOM     17 HE   ARG C1004      -2.248 -31.097  -0.130  1.00 24.25 LIG 0.18  HD
ATOM     18  CZ  ARG C1004      -0.956 -31.272  -1.495  1.00 25.16 LIG 0.67  C 
ATOM     19  NH2 ARG C1004      -1.823 -31.513  -2.461  1.00 24.86 LIG-0.23  N 
ATOM     20  NH1 ARG C1004       0.341 -31.264  -1.763  1.00 22.12 LIG-0.23  N 
ATOM     21 1HH2 ARG C1004      -2.665 -31.532  -2.287  1.00 24.86 LIG 0.17  HD
ATOM     22 2HH2 ARG C1004      -1.546 -31.652  -3.262  1.00 24.86 LIG 0.17  HD
ATOM     23 1HH1 ARG C1004       0.910 -31.120  -1.134  1.00 22.12 LIG 0.17  HD
ATOM     24 2HH1 ARG C1004       0.615 -31.402  -2.566  1.00 22.12 LIG 0.17  HD
ENDBRANCH 15 16
ENDBRANCH 14 15
ENDBRANCH 13 14
ENDBRANCH 6 13
ENDBRANCH 3 6
ENDBRANCH 1 2
BRANCH 1 25
ATOM     25  CB  PHE C1005      -1.177 -31.730   6.225  1.00 25.48 LIG 0.07  C 
BRANCH 25 26
ATOM     26  CG  PHE C1005      -2.524 -32.211   5.787  1.00 23.55 LIG-0.06  A 
ATOM     27  CD1 PHE C1005      -3.291 -31.460   4.880  1.00 22.30 LIG 0.01  A 
ATOM     28  CE1 PHE C1005      -4.561 -31.904   4.478  1.00 23.64 LIG 0.00  A 
ATOM     29  CZ  PHE C1005      -5.072 -33.110   5.024  1.00 21.73 LIG 0.00  A 
ATOM     30  CE2 PHE C1005      -4.310 -33.857   5.914  1.00 19.92 LIG 0.00  A 
ATOM     31  CD2 PHE C1005      -3.032 -33.411   6.299  1.00 21.20 LIG 0.01  A 
ENDBRANCH 25 26
ENDBRANCH 1 25
BRANCH 1 32
ATOM     32  C   PHE C1005       0.110 -33.677   7.039  1.00 27.26 LIG 0.24  C 
ATOM     33 O    PHE C1005      -0.637 -33.611   8.009  1.00 28.13 LIG-0.27  OA
ATOM     34  N   GLN C1006       1.088 -34.564   6.895  1.00 28.15 LIG-0.35  N 
ATOM     35 H    GLN C1006       1.522 -34.665   6.159  1.00 28.15 LIG 0.16  HD
BRANCH 34 36
ATOM     36  CA  GLN C1006       1.534 -35.462   7.959  1.00 29.76 LIG 0.18  C 
BRANCH 36 37
ATOM     37  CB  GLN C1006       2.731 -36.292   7.503  1.00 29.94 LIG 0.04  C 
BRANCH 37 38
ATOM     38  CG  GLN C1006       3.428 -37.067   8.605  1.00 33.02 LIG 0.10  C 
BRANCH 38 39
ATOM     39  CD  GLN C1006       4.673 -36.365   9.117  1.00 35.46 LIG 0.21  C 
ATOM     40 OE1  GLN C1006       4.644 -35.172   9.419  1.00 38.48 LIG-0.27  OA
ATOM     41  NE2 GLN C1006       5.778 -37.103   9.207  1.00 37.01 LIG-0.37  N 
ATOM     42 22HE GLN C1006       6.511 -36.750   9.485  1.00 37.01 LIG 0.16  HD
ATOM     43 21HE GLN C1006       5.758 -37.935   8.987  1.00 37.01 LIG 0.16  HD
ENDBRANCH 38 39
ENDBRANCH 37 38
ENDBRANCH 36 37
BRANCH 36 44
ATOM     44  C   GLN C1006       1.898 -34.642   9.200  1.00 30.09 LIG 0.24  C 
ATOM     45  N   VAL C1007       1.778 -35.284  10.366  1.00 30.97 LIG-0.35  N 
ATOM     46 H    VAL C1007       1.453 -36.078  10.425  1.00 30.97 LIG 0.16  HD
ATOM     47 O    GLN C1006       2.252 -33.460   9.089  1.00 30.15 LIG-0.27  OA
BRANCH 45 48
ATOM     48  CA  VAL C1007       2.178 -34.726  11.667  1.00 32.05 LIG 0.18  C 
BRANCH 48 49
ATOM     49  CB  VAL C1007       0.991 -33.965  12.336  1.00 32.12 LIG 0.01  C 
ATOM     50  CG1 VAL C1007      -0.004 -33.430  11.308  1.00 30.72 LIG 0.01  C 
ATOM     51  CG2 VAL C1007       1.480 -32.846  13.249  1.00 30.85 LIG 0.01  C 
ENDBRANCH 48 49
BRANCH 48 52
ATOM     52  C   VAL C1007       2.482 -35.994  12.514  1.00 33.20 LIG 0.24  C 
ATOM     53 O    VAL C1007       1.587 -36.818  12.671  1.00 34.91 LIG-0.27  OA
ATOM     54  N   THR C1008       3.681 -36.186  13.071  1.00 34.53 LIG-0.34  N 
ATOM     55 H    THR C1008       3.857 -36.917  13.489  1.00 34.53 LIG 0.16  HD
BRANCH 54 56
ATOM     56  CA  THR C1008       4.824 -35.279  13.079  1.00 33.96 LIG 0.19  C 
BRANCH 56 57
ATOM     57  C   THR C1008       5.991 -35.969  12.373  1.00 33.93 LIG 0.22  C 
ATOM     58 O    THR C1008       6.829 -35.324  11.737  1.00 34.05 LIG-0.29  OA
ENDBRANCH 56 57
BRANCH 56 59
ATOM     59  CB  THR C1008       5.274 -34.920  14.545  1.00 34.51 LIG 0.14  C 
ATOM     60  CG2 THR C1008       6.720 -35.332  14.827  1.00 33.41 LIG 0.04  C 
BRANCH 59 61
ATOM     61 OG1  THR C1008       5.178 -33.514  14.745  1.00 32.91 LIG-0.39  OA
ATOM     62 HG1  THR C1008       4.832 -33.157  14.067  1.00 32.91 LIG 0.21  HD
ENDBRANCH 59 61
ENDBRANCH 56 59
ENDBRANCH 54 56
ENDBRANCH 48 52
ENDBRANCH 45 48
ENDBRANCH 36 44
ENDBRANCH 34 36
ENDBRANCH 1 32
TORSDOF 23
ENDMDL
MODEL 4
USER: ADFR SOLUTION from run 20
USER: SCORE 18.733712 LL:  -4.247 LR: -16.904 RR:   0.000 FEB: -10.043
USER: RMSD 2.600540
USER: SEED 19
USER: STATUS 1 or 2 clusters left
USER: GENES 25
USER: genes 0 Translation |==|  0.46055 0.59443 0.44570
USER: genes 1 Rotation |==|  0.49486 0.50250 0.39236 0.98824
USER: genes 2 Torsion [CB]-CA--N-[C] |==|  0.38645
USER: genes 3 Torsion [N]-C--CA-[N] |==|  0.00427
USER: genes 4 Torsion [C]-CA--N-[C] |==|  0.78333
USER: genes 5 Torsion [N]-C--CA-[N] |==|  0.21480
USER: genes 6 Torsion [C]-CA--CB-[CG] |==|  0.88567
USER: genes 7 Torsion [CA]-CB--CG-[CD] |==|  0.71934
USER: genes 8 Torsion [CB]-CG--CD-[NE] |==|  0.91945
USER: genes 9 Torsion [CG]-CD--NE-[HE] |==|  0.30044
USER: genes 10 Torsion [N]-CA--CB-[CG] |==|  0.97601
USER: genes 11 Torsion [CA]-CB--CG-[CD2] |==|  0.74890
USER: genes 12 Torsion [N]-CA--C-[N] |==|  0.38636
USER: genes 13 Torsion [C]-N--CA-[C] |==|  0.65187
USER: genes 14 Torsion [N]-CA--CB-[CG] |==|  0.11332
USER: genes 15 Torsion [CA]-CB--CG-[CD] |==|  0.75813
USER: genes 16 Torsion [CB]-CG--CD-[OE1] |==|  0.78101
USER: genes 17 Torsion [N]-CA--C-[N] |==|  0.46647
USER: genes 18 Torsion [C]-N--CA-[CB] |==|  0.88286
USER: genes 19 Torsion [N]-CA--CB-[CG1] |==|  0.85894
USER: genes 20 Torsion [N]-CA--C-[N] |==|  0.39887
USER: genes 21 Torsion [C]-N--CA-[C] |==|  0.69668
USER: genes 22 Torsion [N]-CA--C-[O] |==|  0.75502
USER: genes 23 Torsion [N]-CA--CB-[OG1] |==|  0.81248
USER: genes 24 Torsion [CA]-CB--OG1-[HG1] |==|  0.13685
ROOT
ATOM      1  CA  PHE C1005       0.358 -33.579   5.355  1.00 26.32 LIG 0.18  C 
ENDROOT
BRANCH 1 2
ATOM      2  N   PHE C1005      -0.563 -33.727   4.238  1.00 26.54 LIG-0.35  N 
ATOM      3  C   ARG C1004      -0.162 -34.229   3.068  1.00 27.34 LIG 0.24  C 
ATOM      4 O    ARG C1004       0.947 -34.735   2.897  1.00 26.08 LIG-0.27  OA
ATOM      5 H    PHE C1005      -1.366 -33.466   4.400  1.00 26.54 LIG 0.16  HD
BRANCH 3 6
ATOM      6  CA  ARG C1004      -1.172 -34.161   1.911  1.00 28.49 LIG 0.18  C 
BRANCH 6 7
ATOM      7  N   ARG C1004      -2.427 -33.510   2.277  1.00 30.45 LIG-0.35  N 
ATOM      8  C   GLY C1003      -3.344 -34.173   2.980  1.00 32.03 LIG 0.25  C 
ATOM      9 O    GLY C1003      -3.157 -35.319   3.389  1.00 33.62 LIG-0.27  OA
ATOM     10 H    ARG C1004      -2.509 -32.698   2.007  1.00 30.45 LIG 0.16  HD
BRANCH 8 11
ATOM     11  CA  GLY C1003      -4.642 -33.451   3.273  1.00 33.10 LIG 0.47  C 
ATOM     12  N   GLY C1003      -5.550 -33.420   2.095  1.00 33.92 LIG 0.61  N 
ENDBRANCH 8 11
ENDBRANCH 6 7
BRANCH 6 13
ATOM     13  CB  ARG C1004      -0.541 -33.505   0.679  1.00 28.45 LIG 0.04  C 
BRANCH 13 14
ATOM     14  CG  ARG C1004       0.326 -32.307   0.990  1.00 27.92 LIG 0.02  C 
BRANCH 14 15
ATOM     15  CD  ARG C1004      -0.411 -30.997   0.717  1.00 26.34 LIG 0.14  C 
BRANCH 15 16
ATOM     16  NE  ARG C1004      -1.396 -31.165  -0.342  1.00 24.25 LIG-0.23  N 
ATOM     17 HE   ARG C1004      -2.227 -31.160  -0.117  1.00 24.25 LIG 0.18  HD
ATOM     18  CZ  ARG C1004      -1.108 -31.324  -1.630  1.00 25.16 LIG 0.67  C 
ATOM     19  NH2 ARG C1004      -2.091 -31.454  -2.501  1.00 24.86 LIG-0.23  N 
ATOM     20  NH1 ARG C1004       0.149 -31.375  -2.043  1.00 22.12 LIG-0.23  N 
ATOM     21 1HH2 ARG C1004      -2.908 -31.434  -2.234  1.00 24.86 LIG 0.17  HD
ATOM     22 2HH2 ARG C1004      -1.914 -31.558  -3.336  1.00 24.86 LIG 0.17  HD
ATOM     23 1HH1 ARG C1004       0.792 -31.304  -1.476  1.00 22.12 LIG 0.17  HD
ATOM     24 2HH1 ARG C1004       0.323 -31.478  -2.879  1.00 22.12 LIG 0.17  HD
ENDBRANCH 15 16
ENDBRANCH 14 15
ENDBRANCH 13 14
ENDBRANCH 6 13
ENDBRANCH 3 6
ENDBRANCH 1 2
BRANCH 1 25
ATOM     25  CB  PHE C1005       0.110 -32.254   6.066  1.00 25.48 LIG 0.07  C 
BRANCH 25 26
ATOM     26  CG  PHE C1005      -0.847 -31.366   5.334  1.00 23.55 LIG-0.06  A 
ATOM     27  CD1 PHE C1005      -2.229 -31.459   5.568  1.00 22.30 LIG 0.01  A 
ATOM     28  CE1 PHE C1005      -3.129 -30.636   4.872  1.00 23.64 LIG 0.00  A 
ATOM     29  CZ  PHE C1005      -2.623 -29.728   3.906  1.00 21.73 LIG 0.00  A 
ATOM     30  CE2 PHE C1005      -1.256 -29.631   3.680  1.00 19.92 LIG 0.00  A 
ATOM     31  CD2 PHE C1005      -0.361 -30.450   4.394  1.00 21.20 LIG 0.01  A 
ENDBRANCH 25 26
ENDBRANCH 1 25
BRANCH 1 32
ATOM     32  C   PHE C1005       0.228 -34.707   6.349  1.00 27.26 LIG 0.24  C 
ATOM     33 O    PHE C1005      -0.882 -35.137   6.643  1.00 28.13 LIG-0.27  OA
ATOM     34  N   GLN C1006       1.373 -35.168   6.839  1.00 28.15 LIG-0.35  N 
ATOM     35 H    GLN C1006       2.141 -34.930   6.532  1.00 28.15 LIG 0.16  HD
BRANCH 34 36
ATOM     36  CA  GLN C1006       1.459 -36.121   7.944  1.00 29.76 LIG 0.18  C 
BRANCH 36 37
ATOM     37  CB  GLN C1006       2.008 -37.461   7.463  1.00 29.94 LIG 0.04  C 
BRANCH 37 38
ATOM     38  CG  GLN C1006       3.151 -37.365   6.471  1.00 33.02 LIG 0.10  C 
BRANCH 38 39
ATOM     39  CD  GLN C1006       2.672 -37.252   5.035  1.00 35.46 LIG 0.21  C 
ATOM     40 OE1  GLN C1006       2.293 -38.248   4.418  1.00 38.48 LIG-0.27  OA
ATOM     41  NE2 GLN C1006       2.697 -36.036   4.492  1.00 37.01 LIG-0.37  N 
ATOM     42 22HE GLN C1006       2.442 -35.921   3.679  1.00 37.01 LIG 0.16  HD
ATOM     43 21HE GLN C1006       2.969 -35.364   4.956  1.00 37.01 LIG 0.16  HD
ENDBRANCH 38 39
ENDBRANCH 37 38
ENDBRANCH 36 37
BRANCH 36 44
ATOM     44  C   GLN C1006       2.351 -35.546   9.047  1.00 30.09 LIG 0.24  C 
ATOM     45  N   VAL C1007       2.312 -36.198  10.213  1.00 30.97 LIG-0.35  N 
ATOM     46 H    VAL C1007       1.773 -36.852  10.359  1.00 30.97 LIG 0.16  HD
ATOM     47 O    GLN C1006       3.030 -34.531   8.839  1.00 30.15 LIG-0.27  OA
BRANCH 45 48
ATOM     48  CA  VAL C1007       3.169 -35.887  11.369  1.00 32.05 LIG 0.18  C 
BRANCH 48 49
ATOM     49  CB  VAL C1007       4.635 -35.603  10.915  1.00 32.12 LIG 0.01  C 
ATOM     50  CG1 VAL C1007       5.181 -36.702  10.005  1.00 30.72 LIG 0.01  C 
ATOM     51  CG2 VAL C1007       5.561 -35.377  12.105  1.00 30.85 LIG 0.01  C 
ENDBRANCH 48 49
BRANCH 48 52
ATOM     52  C   VAL C1007       2.561 -34.562  11.909  1.00 33.20 LIG 0.24  C 
ATOM     53 O    VAL C1007       2.137 -33.744  11.100  1.00 34.91 LIG-0.27  OA
ATOM     54  N   THR C1008       2.507 -34.307  13.218  1.00 34.53 LIG-0.34  N 
ATOM     55 H    THR C1008       2.118 -33.597  13.510  1.00 34.53 LIG 0.16  HD
BRANCH 54 56
ATOM     56  CA  THR C1008       3.047 -35.106  14.314  1.00 33.96 LIG 0.19  C 
BRANCH 56 57
ATOM     57  C   THR C1008       1.879 -35.734  15.073  1.00 33.93 LIG 0.22  C 
ATOM     58 O    THR C1008       1.327 -35.142  16.005  1.00 34.05 LIG-0.29  OA
ENDBRANCH 56 57
BRANCH 56 59
ATOM     59  CB  THR C1008       3.879 -34.229  15.322  1.00 34.51 LIG 0.14  C 
ATOM     60  CG2 THR C1008       4.302 -35.013  16.565  1.00 33.41 LIG 0.04  C 
BRANCH 59 61
ATOM     61 OG1  THR C1008       5.062 -33.757  14.685  1.00 32.91 LIG-0.39  OA
ATOM     62 HG1  THR C1008       4.864 -33.419  13.941  1.00 32.91 LIG 0.21  HD
ENDBRANCH 59 61
ENDBRANCH 56 59
ENDBRANCH 54 56
ENDBRANCH 48 52
ENDBRANCH 45 48
ENDBRANCH 36 44
ENDBRANCH 34 36
ENDBRANCH 1 32
TORSDOF 23
ENDMDL
MODEL 5
USER: ADFR SOLUTION from run 4
USER: SCORE 18.655953 LL:  -3.695 LR: -16.703 RR:   0.000 FEB:  -9.842
USER: RMSD 3.399311
USER: SEED 779606
USER: STATUS searching
USER: GENES 25
USER: genes 0 Translation |==|  0.46018 0.61553 0.45811
USER: genes 1 Rotation |==|  0.55740 0.41225 0.47036 0.98798
USER: genes 2 Torsion [CB]-CA--N-[C] |==|  0.81982
USER: genes 3 Torsion [N]-C--CA-[N] |==|  0.59269
USER: genes 4 Torsion [C]-CA--N-[C] |==|  0.68129
USER: genes 5 Torsion [N]-C--CA-[N] |==|  0.23560
USER: genes 6 Torsion [C]-CA--CB-[CG] |==|  0.85025
USER: genes 7 Torsion [CA]-CB--CG-[CD] |==|  0.58782
USER: genes 8 Torsion [CB]-CG--CD-[NE] |==|  0.19201
USER: genes 9 Torsion [CG]-CD--NE-[HE] |==|  0.13581
USER: genes 10 Torsion [N]-CA--CB-[CG] |==|  0.92809
USER: genes 11 Torsion [CA]-CB--CG-[CD2] |==|  0.81929
USER: genes 12 Torsion [N]-CA--C-[N] |==|  0.26703
USER: genes 13 Torsion [C]-N--CA-[C] |==|  0.68561
USER: genes 14 Torsion [N]-CA--CB-[CG] |==|  0.08016
USER: genes 15 Torsion [CA]-CB--CG-[CD] |==|  0.78056
USER: genes 16 Torsion [CB]-CG--CD-[OE1] |==|  0.81498
USER: genes 17 Torsion [N]-CA--C-[N] |==|  0.40289
USER: genes 18 Torsion [C]-N--CA-[CB] |==|  0.78889
USER: genes 19 Torsion [N]-CA--CB-[CG1] |==|  0.97855
USER: genes 20 Torsion [N]-CA--C-[N] |==|  0.20105
USER: genes 21 Torsion [C]-N--CA-[C] |==|  0.71982
USER: genes 22 Torsion [N]-CA--C-[O] |==|  0.97836
USER: genes 23 Torsion [N]-CA--CB-[OG1] |==|  0.94237
USER: genes 24 Torsion [CA]-CB--OG1-[HG1] |==|  0.01187
ROOT
ATOM      1  CA  PHE C1005       0.351 -33.199   5.699  1.00 26.32 LIG 0.18  C 
ENDROOT
BRANCH 1 2
ATOM      2  N   PHE C1005       0.002 -33.329   4.292  1.00 26.54 LIG-0.35  N 
ATOM      3  C   ARG C1004      -1.181 -33.812   3.910  1.00 27.34 LIG 0.24  C 
ATOM      4 O    ARG C1004      -2.102 -34.036   4.695  1.00 26.08 LIG-0.27  OA
ATOM      5 H    PHE C1005       0.616 -33.071   3.747  1.00 26.54 LIG 0.16  HD
BRANCH 3 6
ATOM      6  CA  ARG C1004      -1.360 -34.077   2.407  1.00 28.49 LIG 0.18  C 
BRANCH 6 7
ATOM      7  N   ARG C1004      -2.724 -33.846   1.938  1.00 30.45 LIG-0.35  N 
ATOM      8  C   GLY C1003      -3.455 -34.862   1.480  1.00 32.03 LIG 0.25  C 
ATOM      9 O    GLY C1003      -3.043 -36.022   1.484  1.00 33.62 LIG-0.27  OA
ATOM     10 H    ARG C1004      -2.993 -33.031   1.984  1.00 30.45 LIG 0.16  HD
BRANCH 8 11
ATOM     11  CA  GLY C1003      -4.839 -34.536   0.960  1.00 33.10 LIG 0.47  C 
ATOM     12  N   GLY C1003      -4.820 -34.102  -0.463  1.00 33.92 LIG 0.61  N 
ENDBRANCH 8 11
ENDBRANCH 6 7
BRANCH 6 13
ATOM     13  CB  ARG C1004      -0.346 -33.271   1.590  1.00 28.45 LIG 0.04  C 
BRANCH 13 14
ATOM     14  CG  ARG C1004      -0.353 -31.788   1.881  1.00 27.92 LIG 0.02  C 
BRANCH 14 15
ATOM     15  CD  ARG C1004       0.016 -30.973   0.642  1.00 26.34 LIG 0.14  C 
BRANCH 15 16
ATOM     16  NE  ARG C1004      -1.036 -31.046  -0.361  1.00 24.25 LIG-0.23  N 
ATOM     17 HE   ARG C1004      -1.843 -30.899  -0.103  1.00 24.25 LIG 0.18  HD
ATOM     18  CZ  ARG C1004      -0.843 -31.323  -1.647  1.00 25.16 LIG 0.67  C 
ATOM     19  NH2 ARG C1004      -1.877 -31.348  -2.466  1.00 24.86 LIG-0.23  N 
ATOM     20  NH1 ARG C1004       0.369 -31.594  -2.108  1.00 22.12 LIG-0.23  N 
ATOM     21 1HH2 ARG C1004      -2.667 -31.185  -2.167  1.00 24.86 LIG 0.17  HD
ATOM     22 2HH2 ARG C1004      -1.761 -31.527  -3.299  1.00 24.86 LIG 0.17  HD
ATOM     23 1HH1 ARG C1004       1.043 -31.592  -1.575  1.00 22.12 LIG 0.17  HD
ATOM     24 2HH1 ARG C1004       0.482 -31.772  -2.942  1.00 22.12 LIG 0.17  HD
ENDBRANCH 15 16
ENDBRANCH 14 15
ENDBRANCH 13 14
ENDBRANCH 6 13
ENDBRANCH 3 6
ENDBRANCH 1 2
BRANCH 1 25
ATOM     25  CB  PHE C1005      -0.560 -32.180   6.373  1.00 25.48 LIG 0.07  C 
BRANCH 25 26
ATOM     26  CG  PHE C1005      -1.108 -31.164   5.420  1.00 23.55 LIG-0.06  A 
ATOM     27  CD1 PHE C1005      -2.484 -31.115   5.142  1.00 22.30 LIG 0.01  A 
ATOM     28  CE1 PHE C1005      -2.998 -30.172   4.237  1.00 23.64 LIG 0.00  A 
ATOM     29  CZ  PHE C1005      -2.101 -29.286   3.585  1.00 21.73 LIG 0.00  A 
ATOM     30  CE2 PHE C1005      -0.741 -29.329   3.866  1.00 19.92 LIG 0.00  A 
ATOM     31  CD2 PHE C1005      -0.238 -30.269   4.786  1.00 21.20 LIG 0.01  A 
ENDBRANCH 25 26
ENDBRANCH 1 25
BRANCH 1 32
ATOM     32  C   PHE C1005       0.249 -34.515   6.431  1.00 27.26 LIG 0.24  C 
ATOM     33 O    PHE C1005      -0.836 -34.895   6.856  1.00 28.13 LIG-0.27  OA
ATOM     34  N   GLN C1006       1.388 -35.187   6.554  1.00 28.15 LIG-0.35  N 
ATOM     35 H    GLN C1006       2.112 -34.957   6.149  1.00 28.15 LIG 0.16  HD
BRANCH 34 36
ATOM     36  CA  GLN C1006       1.542 -36.380   7.384  1.00 29.76 LIG 0.18  C 
BRANCH 36 37
ATOM     37  CB  GLN C1006       2.087 -37.546   6.562  1.00 29.94 LIG 0.04  C 
BRANCH 37 38
ATOM     38  CG  GLN C1006       2.964 -37.146   5.391  1.00 33.02 LIG 0.10  C 
BRANCH 38 39
ATOM     39  CD  GLN C1006       2.160 -36.681   4.190  1.00 35.46 LIG 0.21  C 
ATOM     40 OE1  GLN C1006       1.441 -37.466   3.571  1.00 38.48 LIG-0.27  OA
ATOM     41  NE2 GLN C1006       2.288 -35.399   3.849  1.00 37.01 LIG-0.37  N 
ATOM     42 22HE GLN C1006       1.858 -35.090   3.172  1.00 37.01 LIG 0.16  HD
ATOM     43 21HE GLN C1006       2.800 -34.882   4.306  1.00 37.01 LIG 0.16  HD
ENDBRANCH 38 39
ENDBRANCH 37 38
ENDBRANCH 36 37
BRANCH 36 44
ATOM     44  C   GLN C1006       2.478 -36.072   8.555  1.00 30.09 LIG 0.24  C 
ATOM     45  N   VAL C1007       2.181 -36.689   9.703  1.00 30.97 LIG-0.35  N 
ATOM     46 H    VAL C1007       1.475 -37.170   9.801  1.00 30.97 LIG 0.16  HD
ATOM     47 O    GLN C1006       3.421 -35.281   8.413  1.00 30.15 LIG-0.27  OA
BRANCH 45 48
ATOM     48  CA  VAL C1007       3.007 -36.624  10.920  1.00 32.05 LIG 0.18  C 
BRANCH 48 49
ATOM     49  CB  VAL C1007       4.269 -37.533  10.785  1.00 32.12 LIG 0.01  C 
ATOM     50  CG1 VAL C1007       4.230 -38.392   9.524  1.00 30.72 LIG 0.01  C 
ATOM     51  CG2 VAL C1007       4.476 -38.399  12.023  1.00 30.85 LIG 0.01  C 
ENDBRANCH 48 49
BRANCH 48 52
ATOM     52  C   VAL C1007       3.475 -35.142  10.947  1.00 33.20 LIG 0.24  C 
ATOM     53 O    VAL C1007       4.649 -34.897  10.693  1.00 34.91 LIG-0.27  OA
ATOM     54  N   THR C1008       2.631 -34.153  11.250  1.00 34.53 LIG-0.34  N 
ATOM     55 H    THR C1008       2.884 -33.332  11.207  1.00 34.53 LIG 0.16  HD
BRANCH 54 56
ATOM     56  CA  THR C1008       1.238 -34.258  11.674  1.00 33.96 LIG 0.19  C 
BRANCH 56 57
ATOM     57  C   THR C1008       0.344 -33.962  10.471  1.00 33.93 LIG 0.22  C 
ATOM     58 O    THR C1008       0.815 -33.552   9.406  1.00 34.05 LIG-0.29  OA
ENDBRANCH 56 57
BRANCH 56 59
ATOM     59  CB  THR C1008       0.895 -33.225  12.812  1.00 34.51 LIG 0.14  C 
ATOM     60  CG2 THR C1008      -0.023 -33.820  13.881  1.00 33.41 LIG 0.04  C 
BRANCH 59 61
ATOM     61 OG1  THR C1008       2.093 -32.804  13.455  1.00 32.91 LIG-0.39  OA
ATOM     62 HG1  THR C1008       2.755 -33.144  13.065  1.00 32.91 LIG 0.21  HD
ENDBRANCH 59 61
ENDBRANCH 56 59
ENDBRANCH 54 56
ENDBRANCH 48 52
ENDBRANCH 45 48
ENDBRANCH 36 44
ENDBRANCH 34 36
ENDBRANCH 1 32
TORSDOF 23
ENDMDL
MODEL 6
USER: ADFR SOLUTION from run 4
USER: SCORE 18.474631 LL:  -3.212 LR: -16.689 RR:   0.000 FEB:  -9.828
USER: RMSD 3.167015
USER: SEED 779606
USER: STATUS searching
USER: GENES 25
USER: genes 0 Translation |==|  0.46170 0.62493 0.46382
USER: genes 1 Rotation |==|  0.54105 0.41419 0.48045 0.99048
USER: genes 2 Torsion [CB]-CA--N-[C] |==|  0.83318
USER: genes 3 Torsion [N]-C--CA-[N] |==|  0.58834
USER: genes 4 Torsion [C]-CA--N-[C] |==|  0.68793
USER: genes 5 Torsion [N]-C--CA-[N] |==|  0.20958
USER: genes 6 Torsion [C]-CA--CB-[CG] |==|  0.85202
USER: genes 7 Torsion [CA]-CB--CG-[CD] |==|  0.58159
USER: genes 8 Torsion [CB]-CG--CD-[NE] |==|  0.20939
USER: genes 9 Torsion [CG]-CD--NE-[HE] |==|  0.11505
USER: genes 10 Torsion [N]-CA--CB-[CG] |==|  0.92264
USER: genes 11 Torsion [CA]-CB--CG-[CD2] |==|  0.82681
USER: genes 12 Torsion [N]-CA--C-[N] |==|  0.33466
USER: genes 13 Torsion [C]-N--CA-[C] |==|  0.51147
USER: genes 14 Torsion [N]-CA--CB-[CG] |==|  0.22939
USER: genes 15 Torsion [CA]-CB--CG-[CD] |==|  0.87034
USER: genes 16 Torsion [CB]-CG--CD-[OE1] |==|  0.36170
USER: genes 17 Torsion [N]-CA--C-[N] |==|  0.43820
USER: genes 18 Torsion [C]-N--CA-[CB] |==|  0.87053
USER: genes 19 Torsion [N]-CA--CB-[CG1] |==|  0.82321
USER: genes 20 Torsion [N]-CA--C-[N] |==|  0.36258
USER: genes 21 Torsion [C]-N--CA-[C] |==|  0.60953
USER: genes 22 Torsion [N]-CA--C-[O] |==|  0.91604
USER: genes 23 Torsion [N]-CA--CB-[OG1] |==|  0.99769
USER: genes 24 Torsion [CA]-CB--OG1-[HG1] |==|  0.13221
ROOT
ATOM      1  CA  PHE C1005       0.380 -33.030   5.858  1.00 26.32 LIG 0.18  C 
ENDROOT
BRANCH 1 2
ATOM      2  N   PHE C1005       0.025 -33.270   4.467  1.00 26.54 LIG-0.35  N 
ATOM      3  C   ARG C1004      -1.182 -33.725   4.126  1.00 27.34 LIG 0.24  C 
ATOM      4 O    ARG C1004      -2.113 -33.828   4.923  1.00 26.08 LIG-0.27  OA
ATOM      5 H    PHE C1005       0.651 -33.095   3.904  1.00 26.54 LIG 0.16  HD
BRANCH 3 6
ATOM      6  CA  ARG C1004      -1.375 -34.117   2.652  1.00 28.49 LIG 0.18  C 
BRANCH 6 7
ATOM      7  N   ARG C1004      -2.735 -33.895   2.168  1.00 30.45 LIG-0.35  N 
ATOM      8  C   GLY C1003      -3.509 -34.932   1.849  1.00 32.03 LIG 0.25  C 
ATOM      9 O    GLY C1003      -3.141 -36.097   1.997  1.00 33.62 LIG-0.27  OA
ATOM     10 H    ARG C1004      -2.972 -33.070   2.112  1.00 30.45 LIG 0.16  HD
BRANCH 8 11
ATOM     11  CA  GLY C1003      -4.886 -34.621   1.302  1.00 33.10 LIG 0.47  C 
ATOM     12  N   GLY C1003      -4.841 -34.155  -0.110  1.00 33.92 LIG 0.61  N 
ENDBRANCH 8 11
ENDBRANCH 6 7
BRANCH 6 13
ATOM     13  CB  ARG C1004      -0.345 -33.412   1.764  1.00 28.45 LIG 0.04  C 
BRANCH 13 14
ATOM     14  CG  ARG C1004      -0.303 -31.911   1.934  1.00 27.92 LIG 0.02  C 
BRANCH 14 15
ATOM     15  CD  ARG C1004       0.131 -31.215   0.645  1.00 26.34 LIG 0.14  C 
BRANCH 15 16
ATOM     16  NE  ARG C1004      -0.949 -31.204  -0.330  1.00 24.25 LIG-0.23  N 
ATOM     17 HE   ARG C1004      -1.743 -31.037  -0.043  1.00 24.25 LIG 0.18  HD
ATOM     18  CZ  ARG C1004      -0.801 -31.432  -1.631  1.00 25.16 LIG 0.67  C 
ATOM     19  NH2 ARG C1004      -1.857 -31.382  -2.421  1.00 24.86 LIG-0.23  N 
ATOM     20  NH1 ARG C1004       0.386 -31.729  -2.138  1.00 22.12 LIG-0.23  N 
ATOM     21 1HH2 ARG C1004      -2.632 -31.202  -2.093  1.00 24.86 LIG 0.17  HD
ATOM     22 2HH2 ARG C1004      -1.771 -31.529  -3.264  1.00 24.86 LIG 0.17  HD
ATOM     23 1HH1 ARG C1004       1.074 -31.776  -1.624  1.00 22.12 LIG 0.17  HD
ATOM     24 2HH1 ARG C1004       0.470 -31.875  -2.981  1.00 22.12 LIG 0.17  HD
ENDBRANCH 15 16
ENDBRANCH 14 15
ENDBRANCH 13 14
ENDBRANCH 6 13
ENDBRANCH 3 6
ENDBRANCH 1 2
BRANCH 1 25
ATOM     25  CB  PHE C1005      -0.555 -31.992   6.465  1.00 25.48 LIG 0.07  C 
BRANCH 25 26
ATOM     26  CG  PHE C1005      -1.104 -31.034   5.454  1.00 23.55 LIG-0.06  A 
ATOM     27  CD1 PHE C1005      -2.483 -30.982   5.196  1.00 22.30 LIG 0.01  A 
ATOM     28  CE1 PHE C1005      -2.998 -30.094   4.237  1.00 23.64 LIG 0.00  A 
ATOM     29  CZ  PHE C1005      -2.099 -29.269   3.512  1.00 21.73 LIG 0.00  A 
ATOM     30  CE2 PHE C1005      -0.735 -29.316   3.774  1.00 19.92 LIG 0.00  A 
ATOM     31  CD2 PHE C1005      -0.232 -30.199   4.747  1.00 21.20 LIG 0.01  A 
ENDBRANCH 25 26
ENDBRANCH 1 25
BRANCH 1 32
ATOM     32  C   PHE C1005       0.323 -34.292   6.683  1.00 27.26 LIG 0.24  C 
ATOM     33 O    PHE C1005      -0.728 -34.917   6.770  1.00 28.13 LIG-0.27  OA
ATOM     34  N   GLN C1006       1.464 -34.642   7.266  1.00 28.15 LIG-0.35  N 
ATOM     35 H    GLN C1006       2.213 -34.254   7.097  1.00 28.15 LIG 0.16  HD
BRANCH 34 36
ATOM     36  CA  GLN C1006       1.576 -35.717   8.251  1.00 29.76 LIG 0.18  C 
BRANCH 36 37
ATOM     37  CB  GLN C1006       1.186 -37.059   7.636  1.00 29.94 LIG 0.04  C 
BRANCH 37 38
ATOM     38  CG  GLN C1006       2.287 -37.746   6.851  1.00 33.02 LIG 0.10  C 
BRANCH 38 39
ATOM     39  CD  GLN C1006       3.000 -36.806   5.897  1.00 35.46 LIG 0.21  C 
ATOM     40 OE1  GLN C1006       4.229 -36.741   5.877  1.00 38.48 LIG-0.27  OA
ATOM     41  NE2 GLN C1006       2.227 -36.062   5.105  1.00 37.01 LIG-0.37  N 
ATOM     42 22HE GLN C1006       2.584 -35.509   4.552  1.00 37.01 LIG 0.16  HD
ATOM     43 21HE GLN C1006       1.372 -36.136   5.149  1.00 37.01 LIG 0.16  HD
ENDBRANCH 38 39
ENDBRANCH 37 38
ENDBRANCH 36 37
BRANCH 36 44
ATOM     44  C   GLN C1006       3.010 -35.774   8.783  1.00 30.09 LIG 0.24  C 
ATOM     45  N   VAL C1007       3.155 -36.359   9.977  1.00 30.97 LIG-0.35  N 
ATOM     46 H    VAL C1007       2.484 -36.623  10.447  1.00 30.97 LIG 0.16  HD
ATOM     47 O    GLN C1006       3.941 -35.279   8.133  1.00 30.15 LIG-0.27  OA
BRANCH 45 48
ATOM     48  CA  VAL C1007       4.451 -36.620  10.623  1.00 32.05 LIG 0.18  C 
BRANCH 48 49
ATOM     49  CB  VAL C1007       5.458 -37.258   9.615  1.00 32.12 LIG 0.01  C 
ATOM     50  CG1 VAL C1007       4.994 -38.628   9.125  1.00 30.72 LIG 0.01  C 
ATOM     51  CG2 VAL C1007       6.864 -37.339  10.197  1.00 30.85 LIG 0.01  C 
ENDBRANCH 48 49
BRANCH 48 52
ATOM     52  C   VAL C1007       4.957 -35.195  10.981  1.00 33.20 LIG 0.24  C 
ATOM     53 O    VAL C1007       4.950 -34.337  10.106  1.00 34.91 LIG-0.27  OA
ATOM     54  N   THR C1008       5.403 -34.904  12.206  1.00 34.53 LIG-0.34  N 
ATOM     55 H    THR C1008       5.627 -34.099  12.411  1.00 34.53 LIG 0.16  HD
BRANCH 54 56
ATOM     56  CA  THR C1008       5.580 -35.810  13.337  1.00 33.96 LIG 0.19  C 
BRANCH 56 57
ATOM     57  C   THR C1008       5.144 -35.084  14.609  1.00 33.93 LIG 0.22  C 
ATOM     58 O    THR C1008       5.252 -33.860  14.719  1.00 34.05 LIG-0.29  OA
ENDBRANCH 56 57
BRANCH 56 59
ATOM     59  CB  THR C1008       7.084 -36.244  13.507  1.00 34.51 LIG 0.14  C 
ATOM     60  CG2 THR C1008       7.268 -37.759  13.405  1.00 33.41 LIG 0.04  C 
BRANCH 59 61
ATOM     61 OG1  THR C1008       7.875 -35.643  12.486  1.00 32.91 LIG-0.39  OA
ATOM     62 HG1  THR C1008       7.689 -34.826  12.433  1.00 32.91 LIG 0.21  HD
ENDBRANCH 59 61
ENDBRANCH 56 59
ENDBRANCH 54 56
ENDBRANCH 48 52
ENDBRANCH 45 48
ENDBRANCH 36 44
ENDBRANCH 34 36
ENDBRANCH 1 32
TORSDOF 23
ENDMDL
MODEL 7
USER: ADFR SOLUTION from run 57
USER: SCORE 20.036077 LL:  -4.519 LR: -16.688 RR:   0.000 FEB:  -9.827
USER: RMSD 3.543902
USER: SEED 56
USER: STATUS searching
USER: GENES 25
USER: genes 0 Translation |==|  0.46002 0.62894 0.49274
USER: genes 1 Rotation |==|  0.54482 0.31767 0.57959 0.95652
USER: genes 2 Torsion [CB]-CA--N-[C] |==|  0.79894
USER: genes 3 Torsion [N]-C--CA-[N] |==|  0.31969
USER: genes 4 Torsion [C]-CA--N-[C] |==|  0.59870
USER: genes 5 Torsion [N]-C--CA-[N] |==|  0.64279
USER: genes 6 Torsion [C]-CA--CB-[CG] |==|  0.16089
USER: genes 7 Torsion [CA]-CB--CG-[CD] |==|  0.27886
USER: genes 8 Torsion [CB]-CG--CD-[NE] |==|  0.32469
USER: genes 9 Torsion [CG]-CD--NE-[HE] |==|  0.06144
USER: genes 10 Torsion [N]-CA--CB-[CG] |==|  0.90744
USER: genes 11 Torsion [CA]-CB--CG-[CD2] |==|  0.86646
USER: genes 12 Torsion [N]-CA--C-[N] |==|  0.20184
USER: genes 13 Torsion [C]-N--CA-[C] |==|  0.54173
USER: genes 14 Torsion [N]-CA--CB-[CG] |==|  0.05945
USER: genes 15 Torsion [CA]-CB--CG-[CD] |==|  0.22696
USER: genes 16 Torsion [CB]-CG--CD-[OE1] |==|  0.31105
USER: genes 17 Torsion [N]-CA--C-[N] |==|  0.42875
USER: genes 18 Torsion [C]-N--CA-[CB] |==|  0.87222
USER: genes 19 Torsion [N]-CA--CB-[CG1] |==|  0.83881
USER: genes 20 Torsion [N]-CA--C-[N] |==|  0.36430
USER: genes 21 Torsion [C]-N--CA-[C] |==|  0.68630
USER: genes 22 Torsion [N]-CA--C-[O] |==|  0.88751
USER: genes 23 Torsion [N]-CA--CB-[OG1] |==|  0.05583
USER: genes 24 Torsion [CA]-CB--OG1-[HG1] |==|  0.25817
ROOT
ATOM      1  CA  PHE C1005       0.347 -32.958   6.661  1.00 26.32 LIG 0.18  C 
ENDROOT
BRANCH 1 2
ATOM      2  N   PHE C1005       0.722 -33.277   5.291  1.00 26.54 LIG-0.35  N 
ATOM      3  C   ARG C1004       0.156 -34.290   4.633  1.00 27.34 LIG 0.24  C 
ATOM      4 O    ARG C1004      -0.808 -34.920   5.066  1.00 26.08 LIG-0.27  OA
ATOM      5 H    PHE C1005       1.326 -32.763   4.957  1.00 26.54 LIG 0.16  HD
BRANCH 3 6
ATOM      6  CA  ARG C1004       0.764 -34.645   3.267  1.00 28.49 LIG 0.18  C 
BRANCH 6 7
ATOM      7  N   ARG C1004       1.373 -35.973   3.232  1.00 30.45 LIG-0.35  N 
ATOM      8  C   GLY C1003       2.473 -36.185   2.510  1.00 32.03 LIG 0.25  C 
ATOM      9 O    GLY C1003       3.043 -35.281   1.899  1.00 33.62 LIG-0.27  OA
ATOM     10 H    ARG C1004       0.971 -36.571   3.700  1.00 30.45 LIG 0.16  HD
BRANCH 8 11
ATOM     11  CA  GLY C1003       3.014 -37.599   2.479  1.00 33.10 LIG 0.47  C 
ATOM     12  N   GLY C1003       4.461 -37.658   2.816  1.00 33.92 LIG 0.61  N 
ENDBRANCH 8 11
ENDBRANCH 6 7
BRANCH 6 13
ATOM     13  CB  ARG C1004      -0.272 -34.478   2.151  1.00 28.45 LIG 0.04  C 
BRANCH 13 14
ATOM     14  CG  ARG C1004      -0.858 -33.089   2.052  1.00 27.92 LIG 0.02  C 
BRANCH 14 15
ATOM     15  CD  ARG C1004      -0.205 -32.286   0.928  1.00 26.34 LIG 0.14  C 
BRANCH 15 16
ATOM     16  NE  ARG C1004      -1.177 -31.940  -0.098  1.00 24.25 LIG-0.23  N 
ATOM     17 HE   ARG C1004      -2.007 -31.935   0.125  1.00 24.25 LIG 0.18  HD
ATOM     18  CZ  ARG C1004      -0.877 -31.632  -1.356  1.00 25.16 LIG 0.67  C 
ATOM     19  NH2 ARG C1004      -1.847 -31.321  -2.195  1.00 24.86 LIG-0.23  N 
ATOM     20  NH1 ARG C1004       0.378 -31.652  -1.779  1.00 22.12 LIG-0.23  N 
ATOM     21 1HH2 ARG C1004      -2.664 -31.320  -1.926  1.00 24.86 LIG 0.17  HD
ATOM     22 2HH2 ARG C1004      -1.662 -31.121  -3.010  1.00 24.86 LIG 0.17  HD
ATOM     23 1HH1 ARG C1004       1.012 -31.867  -1.239  1.00 22.12 LIG 0.17  HD
ATOM     24 2HH1 ARG C1004       0.560 -31.450  -2.595  1.00 22.12 LIG 0.17  HD
ENDBRANCH 15 16
ENDBRANCH 14 15
ENDBRANCH 13 14
ENDBRANCH 6 13
ENDBRANCH 3 6
ENDBRANCH 1 2
BRANCH 1 25
ATOM     25  CB  PHE C1005      -1.041 -32.330   6.691  1.00 25.48 LIG 0.07  C 
BRANCH 25 26
ATOM     26  CG  PHE C1005      -1.334 -31.497   5.483  1.00 23.55 LIG-0.06  A 
ATOM     27  CD1 PHE C1005      -2.534 -31.666   4.773  1.00 22.30 LIG 0.01  A 
ATOM     28  CE1 PHE C1005      -2.805 -30.895   3.631  1.00 23.64 LIG 0.00  A 
ATOM     29  CZ  PHE C1005      -1.833 -29.960   3.187  1.00 21.73 LIG 0.00  A 
ATOM     30  CE2 PHE C1005      -0.649 -29.788   3.894  1.00 19.92 LIG 0.00  A 
ATOM     31  CD2 PHE C1005      -0.395 -30.556   5.046  1.00 21.20 LIG 0.01  A 
ENDBRANCH 25 26
ENDBRANCH 1 25
BRANCH 1 32
ATOM     32  C   PHE C1005       0.360 -34.177   7.549  1.00 27.26 LIG 0.24  C 
ATOM     33 O    PHE C1005      -0.698 -34.671   7.924  1.00 28.13 LIG-0.27  OA
ATOM     34  N   GLN C1006       1.565 -34.641   7.861  1.00 28.15 LIG-0.35  N 
ATOM     35 H    GLN C1006       2.287 -34.349   7.494  1.00 28.15 LIG 0.16  HD
BRANCH 34 36
ATOM     36  CA  GLN C1006       1.801 -35.689   8.852  1.00 29.76 LIG 0.18  C 
BRANCH 36 37
ATOM     37  CB  GLN C1006       1.368 -37.051   8.315  1.00 29.94 LIG 0.04  C 
BRANCH 37 38
ATOM     38  CG  GLN C1006       1.289 -37.146   6.803  1.00 33.02 LIG 0.10  C 
BRANCH 38 39
ATOM     39  CD  GLN C1006       2.643 -37.393   6.161  1.00 35.46 LIG 0.21  C 
ATOM     40 OE1  GLN C1006       2.890 -38.463   5.605  1.00 38.48 LIG-0.27  OA
ATOM     41  NE2 GLN C1006       3.530 -36.403   6.244  1.00 37.01 LIG-0.37  N 
ATOM     42 22HE GLN C1006       4.313 -36.497   5.902  1.00 37.01 LIG 0.16  HD
ATOM     43 21HE GLN C1006       3.320 -35.670   6.641  1.00 37.01 LIG 0.16  HD
ENDBRANCH 38 39
ENDBRANCH 37 38
ENDBRANCH 36 37
BRANCH 36 44
ATOM     44  C   GLN C1006       3.285 -35.713   9.228  1.00 30.09 LIG 0.24  C 
ATOM     45  N   VAL C1007       3.560 -36.201  10.442  1.00 30.97 LIG-0.35  N 
ATOM     46 H    VAL C1007       2.945 -36.421  11.002  1.00 30.97 LIG 0.16  HD
ATOM     47 O    GLN C1006       4.138 -35.279   8.442  1.00 30.15 LIG-0.27  OA
BRANCH 45 48
ATOM     48  CA  VAL C1007       4.919 -36.419  10.962  1.00 32.05 LIG 0.18  C 
BRANCH 48 49
ATOM     49  CB  VAL C1007       5.816 -37.129   9.898  1.00 32.12 LIG 0.01  C 
ATOM     50  CG1 VAL C1007       5.235 -38.471   9.458  1.00 30.72 LIG 0.01  C 
ATOM     51  CG2 VAL C1007       7.249 -37.294  10.389  1.00 30.85 LIG 0.01  C 
ENDBRANCH 48 49
BRANCH 48 52
ATOM     52  C   VAL C1007       5.454 -34.973  11.161  1.00 33.20 LIG 0.24  C 
ATOM     53 O    VAL C1007       5.337 -34.176  10.236  1.00 34.91 LIG-0.27  OA
ATOM     54  N   THR C1008       6.038 -34.600  12.303  1.00 34.53 LIG-0.34  N 
ATOM     55 H    THR C1008       6.279 -33.783  12.425  1.00 34.53 LIG 0.16  HD
BRANCH 54 56
ATOM     56  CA  THR C1008       6.354 -35.428  13.463  1.00 33.96 LIG 0.19  C 
BRANCH 56 57
ATOM     57  C   THR C1008       5.479 -34.974  14.630  1.00 33.93 LIG 0.22  C 
ATOM     58 O    THR C1008       5.258 -33.779  14.841  1.00 34.05 LIG-0.29  OA
ENDBRANCH 56 57
BRANCH 56 59
ATOM     59  CB  THR C1008       7.863 -35.282  13.890  1.00 34.51 LIG 0.14  C 
ATOM     60  CG2 THR C1008       8.726 -36.437  13.379  1.00 33.41 LIG 0.04  C 
BRANCH 59 61
ATOM     61 OG1  THR C1008       8.397 -34.075  13.358  1.00 32.91 LIG-0.39  OA
ATOM     62 HG1  THR C1008       8.316 -33.459  13.924  1.00 32.91 LIG 0.21  HD
ENDBRANCH 59 61
ENDBRANCH 56 59
ENDBRANCH 54 56
ENDBRANCH 48 52
ENDBRANCH 45 48
ENDBRANCH 36 44
ENDBRANCH 34 36
ENDBRANCH 1 32
TORSDOF 23
ENDMDL
MODEL 8
USER: ADFR SOLUTION from run 73
USER: SCORE 18.981618 LL:  -3.778 LR: -16.598 RR:   0.000 FEB:  -9.737
USER: RMSD 5.190870
USER: SEED 72
USER: STATUS searching
USER: GENES 25
USER: genes 0 Translation |==|  0.51083 0.54093 0.38022
USER: genes 1 Rotation |==|  0.69475 0.48299 0.60191 0.94877
USER: genes 2 Torsion [CB]-CA--N-[C] |==|  0.51798
USER: genes 3 Torsion [N]-C--CA-[N] |==|  0.18991
USER: genes 4 Torsion [C]-CA--N-[C] |==|  0.77749
USER: genes 5 Torsion [N]-C--CA-[N] |==|  0.56677
USER: genes 6 Torsion [C]-CA--CB-[CG] |==|  0.53306
USER: genes 7 Torsion [CA]-CB--CG-[CD] |==|  0.84472
USER: genes 8 Torsion [CB]-CG--CD-[NE] |==|  0.38073
USER: genes 9 Torsion [CG]-CD--NE-[HE] |==|  0.16195
USER: genes 10 Torsion [N]-CA--CB-[CG] |==|  0.81359
USER: genes 11 Torsion [CA]-CB--CG-[CD2] |==|  0.25540
USER: genes 12 Torsion [N]-CA--C-[N] |==|  0.36307
USER: genes 13 Torsion [C]-N--CA-[C] |==|  0.72981
USER: genes 14 Torsion [N]-CA--CB-[CG] |==|  0.91183
USER: genes 15 Torsion [CA]-CB--CG-[CD] |==|  0.43324
USER: genes 16 Torsion [CB]-CG--CD-[OE1] |==|  0.86753
USER: genes 17 Torsion [N]-CA--C-[N] |==|  0.03021
USER: genes 18 Torsion [C]-N--CA-[CB] |==|  0.90000
USER: genes 19 Torsion [N]-CA--CB-[CG1] |==|  0.74320
USER: genes 20 Torsion [N]-CA--C-[N] |==|  0.35039
USER: genes 21 Torsion [C]-N--CA-[C] |==|  0.78731
USER: genes 22 Torsion [N]-CA--C-[O] |==|  0.04442
USER: genes 23 Torsion [N]-CA--CB-[OG1] |==|  0.85204
USER: genes 24 Torsion [CA]-CB--OG1-[HG1] |==|  0.31063
ROOT
ATOM      1  CA  PHE C1005       1.338 -34.542   3.538  1.00 26.32 LIG 0.18  C 
ENDROOT
BRANCH 1 2
ATOM      2  N   PHE C1005       0.721 -34.299   2.243  1.00 26.54 LIG-0.35  N 
ATOM      3  C   ARG C1004       1.442 -34.280   1.120  1.00 27.34 LIG 0.24  C 
ATOM      4 O    ARG C1004       2.627 -34.610   1.076  1.00 26.08 LIG-0.27  OA
ATOM      5 H    PHE C1005      -0.130 -34.172   2.271  1.00 26.54 LIG 0.16  HD
BRANCH 3 6
ATOM      6  CA  ARG C1004       0.713 -33.829  -0.155  1.00 28.49 LIG 0.18  C 
BRANCH 6 7
ATOM      7  N   ARG C1004       0.352 -32.414  -0.144  1.00 30.45 LIG-0.35  N 
ATOM      8  C   GLY C1003      -0.730 -32.005   0.519  1.00 32.03 LIG 0.25  C 
ATOM      9 O    GLY C1003      -1.425 -32.776   1.181  1.00 33.62 LIG-0.27  OA
ATOM     10 H    ARG C1004       0.880 -31.898  -0.586  1.00 30.45 LIG 0.16  HD
BRANCH 8 11
ATOM     11  CA  GLY C1003      -1.072 -30.532   0.439  1.00 33.10 LIG 0.47  C 
ATOM     12  N   GLY C1003      -1.885 -30.077   1.598  1.00 33.92 LIG 0.61  N 
ENDBRANCH 8 11
ENDBRANCH 6 7
BRANCH 6 13
ATOM     13  CB  ARG C1004       1.530 -34.186  -1.401  1.00 28.45 LIG 0.04  C 
BRANCH 13 14
ATOM     14  CG  ARG C1004       1.036 -33.536  -2.673  1.00 27.92 LIG 0.02  C 
BRANCH 14 15
ATOM     15  CD  ARG C1004      -0.435 -33.860  -2.932  1.00 26.34 LIG 0.14  C 
BRANCH 15 16
ATOM     16  NE  ARG C1004      -1.159 -32.678  -3.373  1.00 24.25 LIG-0.23  N 
ATOM     17 HE   ARG C1004      -0.881 -32.283  -4.085  1.00 24.25 LIG 0.18  HD
ATOM     18  CZ  ARG C1004      -2.219 -32.162  -2.759  1.00 25.16 LIG 0.67  C 
ATOM     19  NH2 ARG C1004      -2.802 -31.091  -3.263  1.00 24.86 LIG-0.23  N 
ATOM     20  NH1 ARG C1004      -2.683 -32.698  -1.640  1.00 22.12 LIG-0.23  N 
ATOM     21 1HH2 ARG C1004      -2.495 -30.733  -3.983  1.00 24.86 LIG 0.17  HD
ATOM     22 2HH2 ARG C1004      -3.488 -30.750  -2.872  1.00 24.86 LIG 0.17  HD
ATOM     23 1HH1 ARG C1004      -2.298 -33.389  -1.301  1.00 22.12 LIG 0.17  HD
ATOM     24 2HH1 ARG C1004      -3.370 -32.356  -1.251  1.00 22.12 LIG 0.17  HD
ENDBRANCH 15 16
ENDBRANCH 14 15
ENDBRANCH 13 14
ENDBRANCH 6 13
ENDBRANCH 3 6
ENDBRANCH 1 2
BRANCH 1 25
ATOM     25  CB  PHE C1005       0.266 -34.666   4.614  1.00 25.48 LIG 0.07  C 
BRANCH 25 26
ATOM     26  CG  PHE C1005      -0.464 -33.385   4.864  1.00 23.55 LIG-0.06  A 
ATOM     27  CD1 PHE C1005       0.012 -32.465   5.813  1.00 22.30 LIG 0.01  A 
ATOM     28  CE1 PHE C1005      -0.680 -31.268   6.059  1.00 23.64 LIG 0.00  A 
ATOM     29  CZ  PHE C1005      -1.885 -31.013   5.355  1.00 21.73 LIG 0.00  A 
ATOM     30  CE2 PHE C1005      -2.351 -31.920   4.410  1.00 19.92 LIG 0.00  A 
ATOM     31  CD2 PHE C1005      -1.642 -33.110   4.161  1.00 21.20 LIG 0.01  A 
ENDBRANCH 25 26
ENDBRANCH 1 25
BRANCH 1 32
ATOM     32  C   PHE C1005       2.186 -35.790   3.535  1.00 27.26 LIG 0.24  C 
ATOM     33 O    PHE C1005       1.731 -36.836   3.086  1.00 28.13 LIG-0.27  OA
ATOM     34  N   GLN C1006       3.409 -35.648   4.034  1.00 28.15 LIG-0.35  N 
ATOM     35 H    GLN C1006       3.744 -34.882   4.236  1.00 28.15 LIG 0.16  HD
BRANCH 34 36
ATOM     36  CA  GLN C1006       4.315 -36.765   4.294  1.00 29.76 LIG 0.18  C 
BRANCH 36 37
ATOM     37  CB  GLN C1006       5.750 -36.398   3.925  1.00 29.94 LIG 0.04  C 
BRANCH 37 38
ATOM     38  CG  GLN C1006       5.882 -35.426   2.768  1.00 33.02 LIG 0.10  C 
BRANCH 38 39
ATOM     39  CD  GLN C1006       7.190 -34.654   2.799  1.00 35.46 LIG 0.21  C 
ATOM     40 OE1  GLN C1006       7.581 -34.119   3.836  1.00 38.48 LIG-0.27  OA
ATOM     41  NE2 GLN C1006       7.867 -34.586   1.654  1.00 37.01 LIG-0.37  N 
ATOM     42 22HE GLN C1006       8.610 -34.154   1.618  1.00 37.01 LIG 0.16  HD
ATOM     43 21HE GLN C1006       7.561 -34.973   0.949  1.00 37.01 LIG 0.16  HD
ENDBRANCH 38 39
ENDBRANCH 37 38
ENDBRANCH 36 37
BRANCH 36 44
ATOM     44  C   GLN C1006       4.231 -37.158   5.772  1.00 30.09 LIG 0.24  C 
ATOM     45  N   VAL C1007       3.229 -36.597   6.457  1.00 30.97 LIG-0.35  N 
ATOM     46 H    VAL C1007       2.710 -36.003   6.114  1.00 30.97 LIG 0.16  HD
ATOM     47 O    GLN C1006       5.067 -37.926   6.265  1.00 30.15 LIG-0.27  OA
BRANCH 45 48
ATOM     48  CA  VAL C1007       2.896 -36.916   7.854  1.00 32.05 LIG 0.18  C 
BRANCH 48 49
ATOM     49  CB  VAL C1007       3.129 -38.432   8.150  1.00 32.12 LIG 0.01  C 
ATOM     50  CG1 VAL C1007       1.866 -39.262   7.934  1.00 30.72 LIG 0.01  C 
ATOM     51  CG2 VAL C1007       3.690 -38.654   9.549  1.00 30.85 LIG 0.01  C 
ENDBRANCH 48 49
BRANCH 48 52
ATOM     52  C   VAL C1007       3.942 -36.097   8.660  1.00 33.20 LIG 0.24  C 
ATOM     53 O    VAL C1007       5.130 -36.255   8.402  1.00 34.91 LIG-0.27  OA
ATOM     54  N   THR C1008       3.568 -35.248   9.620  1.00 34.53 LIG-0.34  N 
ATOM     55 H    THR C1008       4.149 -34.756  10.022  1.00 34.53 LIG 0.16  HD
BRANCH 54 56
ATOM     56  CA  THR C1008       2.222 -35.006  10.133  1.00 33.96 LIG 0.19  C 
BRANCH 56 57
ATOM     57  C   THR C1008       1.470 -34.144   9.120  1.00 33.93 LIG 0.22  C 
ATOM     58 O    THR C1008       1.878 -34.008   7.963  1.00 34.05 LIG-0.29  OA
ENDBRANCH 56 57
BRANCH 56 59
ATOM     59  CB  THR C1008       2.251 -34.242  11.509  1.00 34.51 LIG 0.14  C 
ATOM     60  CG2 THR C1008       0.862 -34.131  12.142  1.00 33.41 LIG 0.04  C 
BRANCH 59 61
ATOM     61 OG1  THR C1008       3.090 -34.937  12.426  1.00 32.91 LIG-0.39  OA
ATOM     62 HG1  THR C1008       3.775 -34.477  12.582  1.00 32.91 LIG 0.21  HD
ENDBRANCH 59 61
ENDBRANCH 56 59
ENDBRANCH 54 56
ENDBRANCH 48 52
ENDBRANCH 45 48
ENDBRANCH 36 44
ENDBRANCH 34 36
ENDBRANCH 1 32
TORSDOF 23
ENDMDL
MODEL 9
USER: ADFR SOLUTION from run 4
USER: SCORE 18.389357 LL:  -3.323 LR: -16.356 RR:   0.000 FEB:  -9.495
USER: RMSD 2.635988
USER: SEED 779606
USER: STATUS searching
USER: GENES 25
USER: genes 0 Translation |==|  0.45466 0.60956 0.46434
USER: genes 1 Rotation |==|  0.54732 0.39540 0.44731 0.98378
USER: genes 2 Torsion [CB]-CA--N-[C] |==|  0.82248
USER: genes 3 Torsion [N]-C--CA-[N] |==|  0.57469
USER: genes 4 Torsion [C]-CA--N-[C] |==|  0.68576
USER: genes 5 Torsion [N]-C--CA-[N] |==|  0.23619
USER: genes 6 Torsion [C]-CA--CB-[CG] |==|  0.84059
USER: genes 7 Torsion [CA]-CB--CG-[CD] |==|  0.59366
USER: genes 8 Torsion [CB]-CG--CD-[NE] |==|  0.20409
USER: genes 9 Torsion [CG]-CD--NE-[HE] |==|  0.11877
USER: genes 10 Torsion [N]-CA--CB-[CG] |==|  0.93234
USER: genes 11 Torsion [CA]-CB--CG-[CD2] |==|  0.81197
USER: genes 12 Torsion [N]-CA--C-[N] |==|  0.36856
USER: genes 13 Torsion [C]-N--CA-[C] |==|  0.64930
USER: genes 14 Torsion [N]-CA--CB-[CG] |==|  0.24646
USER: genes 15 Torsion [CA]-CB--CG-[CD] |==|  0.81964
USER: genes 16 Torsion [CB]-CG--CD-[OE1] |==|  0.29047
USER: genes 17 Torsion [N]-CA--C-[N] |==|  0.49958
USER: genes 18 Torsion [C]-N--CA-[CB] |==|  0.53347
USER: genes 19 Torsion [N]-CA--CB-[CG1] |==|  0.86551
USER: genes 20 Torsion [N]-CA--C-[N] |==|  0.41915
USER: genes 21 Torsion [C]-N--CA-[C] |==|  0.78937
USER: genes 22 Torsion [N]-CA--C-[O] |==|  0.91610
USER: genes 23 Torsion [N]-CA--CB-[OG1] |==|  0.00438
USER: genes 24 Torsion [CA]-CB--OG1-[HG1] |==|  0.14607
ROOT
ATOM      1  CA  PHE C1005       0.243 -33.307   5.873  1.00 26.32 LIG 0.18  C 
ENDROOT
BRANCH 1 2
ATOM      2  N   PHE C1005      -0.040 -33.439   4.451  1.00 26.54 LIG-0.35  N 
ATOM      3  C   ARG C1004      -1.251 -33.788   4.012  1.00 27.34 LIG 0.24  C 
ATOM      4 O    ARG C1004      -2.235 -33.872   4.747  1.00 26.08 LIG-0.27  OA
ATOM      5 H    PHE C1005       0.630 -33.275   3.937  1.00 26.54 LIG 0.16  HD
BRANCH 3 6
ATOM      6  CA  ARG C1004      -1.378 -34.077   2.508  1.00 28.49 LIG 0.18  C 
BRANCH 6 7
ATOM      7  N   ARG C1004      -2.721 -33.839   1.985  1.00 30.45 LIG-0.35  N 
ATOM      8  C   GLY C1003      -3.458 -34.860   1.548  1.00 32.03 LIG 0.25  C 
ATOM      9 O    GLY C1003      -3.072 -36.026   1.615  1.00 33.62 LIG-0.27  OA
ATOM     10 H    ARG C1004      -2.973 -33.017   1.987  1.00 30.45 LIG 0.16  HD
BRANCH 8 11
ATOM     11  CA  GLY C1003      -4.818 -34.529   0.969  1.00 33.10 LIG 0.47  C 
ATOM     12  N   GLY C1003      -4.744 -34.163  -0.471  1.00 33.92 LIG 0.61  N 
ENDBRANCH 8 11
ENDBRANCH 6 7
BRANCH 6 13
ATOM     13  CB  ARG C1004      -0.325 -33.297   1.715  1.00 28.45 LIG 0.04  C 
BRANCH 13 14
ATOM     14  CG  ARG C1004      -0.379 -31.800   1.917  1.00 27.92 LIG 0.02  C 
BRANCH 14 15
ATOM     15  CD  ARG C1004       0.010 -31.050   0.644  1.00 26.34 LIG 0.14  C 
BRANCH 15 16
ATOM     16  NE  ARG C1004      -1.052 -31.125  -0.350  1.00 24.25 LIG-0.23  N 
ATOM     17 HE   ARG C1004      -1.861 -31.018  -0.077  1.00 24.25 LIG 0.18  HD
ATOM     18  CZ  ARG C1004      -0.865 -31.348  -1.646  1.00 25.16 LIG 0.67  C 
ATOM     19  NH2 ARG C1004      -1.908 -31.381  -2.454  1.00 24.86 LIG-0.23  N 
ATOM     20  NH1 ARG C1004       0.350 -31.555  -2.132  1.00 22.12 LIG-0.23  N 
ATOM     21 1HH2 ARG C1004      -2.699 -31.259  -2.140  1.00 24.86 LIG 0.17  HD
ATOM     22 2HH2 ARG C1004      -1.796 -31.525  -3.294  1.00 24.86 LIG 0.17  HD
ATOM     23 1HH1 ARG C1004       1.031 -31.547  -1.606  1.00 22.12 LIG 0.17  HD
ATOM     24 2HH1 ARG C1004       0.459 -31.698  -2.973  1.00 22.12 LIG 0.17  HD
ENDBRANCH 15 16
ENDBRANCH 14 15
ENDBRANCH 13 14
ENDBRANCH 6 13
ENDBRANCH 3 6
ENDBRANCH 1 2
BRANCH 1 25
ATOM     25  CB  PHE C1005      -0.590 -32.179   6.470  1.00 25.48 LIG 0.07  C 
BRANCH 25 26
ATOM     26  CG  PHE C1005      -1.004 -31.157   5.458  1.00 23.55 LIG-0.06  A 
ATOM     27  CD1 PHE C1005      -2.352 -31.029   5.084  1.00 22.30 LIG 0.01  A 
ATOM     28  CE1 PHE C1005      -2.741 -30.081   4.125  1.00 23.64 LIG 0.00  A 
ATOM     29  CZ  PHE C1005      -1.747 -29.272   3.515  1.00 21.73 LIG 0.00  A 
ATOM     30  CE2 PHE C1005      -0.415 -29.394   3.891  1.00 19.92 LIG 0.00  A 
ATOM     31  CD2 PHE C1005      -0.038 -30.337   4.865  1.00 21.20 LIG 0.01  A 
ENDBRANCH 25 26
ENDBRANCH 1 25
BRANCH 1 32
ATOM     32  C   PHE C1005      -0.038 -34.583   6.626  1.00 27.26 LIG 0.24  C 
ATOM     33 O    PHE C1005      -1.089 -35.185   6.437  1.00 28.13 LIG-0.27  OA
ATOM     34  N   GLN C1006       0.919 -34.972   7.463  1.00 28.15 LIG-0.35  N 
ATOM     35 H    GLN C1006       1.693 -34.598   7.493  1.00 28.15 LIG 0.16  HD
BRANCH 34 36
ATOM     36  CA  GLN C1006       0.766 -36.068   8.418  1.00 29.76 LIG 0.18  C 
BRANCH 36 37
ATOM     37  CB  GLN C1006       1.655 -37.249   8.035  1.00 29.94 LIG 0.04  C 
BRANCH 37 38
ATOM     38  CG  GLN C1006       3.057 -37.207   8.610  1.00 33.02 LIG 0.10  C 
BRANCH 38 39
ATOM     39  CD  GLN C1006       3.874 -36.043   8.078  1.00 35.46 LIG 0.21  C 
ATOM     40 OE1  GLN C1006       4.086 -35.051   8.776  1.00 38.48 LIG-0.27  OA
ATOM     41  NE2 GLN C1006       4.328 -36.156   6.831  1.00 37.01 LIG-0.37  N 
ATOM     42 22HE GLN C1006       4.790 -35.520   6.482  1.00 37.01 LIG 0.16  HD
ATOM     43 21HE GLN C1006       4.159 -36.865   6.375  1.00 37.01 LIG 0.16  HD
ENDBRANCH 38 39
ENDBRANCH 37 38
ENDBRANCH 36 37
BRANCH 36 44
ATOM     44  C   GLN C1006       1.118 -35.573   9.823  1.00 30.09 LIG 0.24  C 
ATOM     45  N   VAL C1007       1.014 -36.487  10.794  1.00 30.97 LIG-0.35  N 
ATOM     46 H    VAL C1007       0.705 -37.277  10.654  1.00 30.97 LIG 0.16  HD
ATOM     47 O    GLN C1006       1.448 -34.394  10.009  1.00 30.15 LIG-0.27  OA
BRANCH 45 48
ATOM     48  CA  VAL C1007       1.407 -36.260  12.194  1.00 32.05 LIG 0.18  C 
BRANCH 48 49
ATOM     49  CB  VAL C1007       1.442 -37.605  12.987  1.00 32.12 LIG 0.01  C 
ATOM     50  CG1 VAL C1007       0.179 -38.435  12.771  1.00 30.72 LIG 0.01  C 
ATOM     51  CG2 VAL C1007       1.692 -37.377  14.474  1.00 30.85 LIG 0.01  C 
ENDBRANCH 48 49
BRANCH 48 52
ATOM     52  C   VAL C1007       2.864 -35.731  12.068  1.00 33.20 LIG 0.24  C 
ATOM     53 O    VAL C1007       3.540 -36.108  11.117  1.00 34.91 LIG-0.27  OA
ATOM     54  N   THR C1008       3.379 -34.897  12.974  1.00 34.53 LIG-0.34  N 
ATOM     55 H    THR C1008       4.165 -34.564  12.866  1.00 34.53 LIG 0.16  HD
BRANCH 54 56
ATOM     56  CA  THR C1008       2.768 -34.424  14.213  1.00 33.96 LIG 0.19  C 
BRANCH 56 57
ATOM     57  C   THR C1008       1.721 -33.369  13.861  1.00 33.93 LIG 0.22  C 
ATOM     58 O    THR C1008       1.844 -32.648  12.867  1.00 34.05 LIG-0.29  OA
ENDBRANCH 56 57
BRANCH 56 59
ATOM     59  CB  THR C1008       3.829 -33.768  15.174  1.00 34.51 LIG 0.14  C 
ATOM     60  CG2 THR C1008       3.950 -34.515  16.503  1.00 33.41 LIG 0.04  C 
BRANCH 59 61
ATOM     61 OG1  THR C1008       5.110 -33.779  14.553  1.00 32.91 LIG-0.39  OA
ATOM     62 HG1  THR C1008       5.054 -33.432  13.790  1.00 32.91 LIG 0.21  HD
ENDBRANCH 59 61
ENDBRANCH 56 59
ENDBRANCH 54 56
ENDBRANCH 48 52
ENDBRANCH 45 48
ENDBRANCH 36 44
ENDBRANCH 34 36
ENDBRANCH 1 32
TORSDOF 23
ENDMDL
MODEL 10
USER: ADFR SOLUTION from run 123
USER: SCORE 18.815921 LL:  -3.797 LR: -16.326 RR:   0.000 FEB:  -9.466
USER: RMSD 3.836835
USER: SEED 122
USER: STATUS searching
USER: GENES 25
USER: genes 0 Translation |==|  0.45645 0.62850 0.49099
USER: genes 1 Rotation |==|  0.54668 0.30005 0.57919 0.94896
USER: genes 2 Torsion [CB]-CA--N-[C] |==|  0.84411
USER: genes 3 Torsion [N]-C--CA-[N] |==|  0.27834
USER: genes 4 Torsion [C]-CA--N-[C] |==|  0.56681
USER: genes 5 Torsion [N]-C--CA-[N] |==|  0.51464
USER: genes 6 Torsion [C]-CA--CB-[CG] |==|  0.34157
USER: genes 7 Torsion [CA]-CB--CG-[CD] |==|  0.71703
USER: genes 8 Torsion [CB]-CG--CD-[NE] |==|  0.69973
USER: genes 9 Torsion [CG]-CD--NE-[HE] |==|  0.29911
USER: genes 10 Torsion [N]-CA--CB-[CG] |==|  0.90248
USER: genes 11 Torsion [CA]-CB--CG-[CD2] |==|  0.37156
USER: genes 12 Torsion [N]-CA--C-[N] |==|  0.38615
USER: genes 13 Torsion [C]-N--CA-[C] |==|  0.51114
USER: genes 14 Torsion [N]-CA--CB-[CG] |==|  0.27341
USER: genes 15 Torsion [CA]-CB--CG-[CD] |==|  0.82099
USER: genes 16 Torsion [CB]-CG--CD-[OE1] |==|  0.82400
USER: genes 17 Torsion [N]-CA--C-[N] |==|  0.44758
USER: genes 18 Torsion [C]-N--CA-[CB] |==|  0.88272
USER: genes 19 Torsion [N]-CA--CB-[CG1] |==|  0.78593
USER: genes 20 Torsion [N]-CA--C-[N] |==|  0.34166
USER: genes 21 Torsion [C]-N--CA-[C] |==|  0.50714
USER: genes 22 Torsion [N]-CA--C-[O] |==|  0.89896
USER: genes 23 Torsion [N]-CA--CB-[OG1] |==|  0.68850
USER: genes 24 Torsion [CA]-CB--OG1-[HG1] |==|  0.83704
ROOT
ATOM      1  CA  PHE C1005       0.278 -32.966   6.612  1.00 26.32 LIG 0.18  C 
ENDROOT
BRANCH 1 2
ATOM      2  N   PHE C1005       0.753 -33.256   5.267  1.00 26.54 LIG-0.35  N 
ATOM      3  C   ARG C1004       0.049 -34.021   4.430  1.00 27.34 LIG 0.24  C 
ATOM      4 O    ARG C1004      -1.096 -34.404   4.670  1.00 26.08 LIG-0.27  OA
ATOM      5 H    PHE C1005       1.509 -32.896   5.071  1.00 26.54 LIG 0.16  HD
BRANCH 3 6
ATOM      6  CA  ARG C1004       0.738 -34.409   3.112  1.00 28.49 LIG 0.18  C 
BRANCH 6 7
ATOM      7  N   ARG C1004       1.296 -35.759   3.127  1.00 30.45 LIG-0.35  N 
ATOM      8  C   GLY C1003       2.299 -36.076   2.309  1.00 32.03 LIG 0.25  C 
ATOM      9 O    GLY C1003       2.824 -35.251   1.561  1.00 33.62 LIG-0.27  OA
ATOM     10 H    ARG C1004       0.931 -36.299   3.688  1.00 30.45 LIG 0.16  HD
BRANCH 8 11
ATOM     11  CA  GLY C1003       2.788 -37.509   2.342  1.00 33.10 LIG 0.47  C 
ATOM     12  N   GLY C1003       3.985 -37.718   1.485  1.00 33.92 LIG 0.61  N 
ENDBRANCH 8 11
ENDBRANCH 6 7
BRANCH 6 13
ATOM     13  CB  ARG C1004      -0.210 -34.211   1.926  1.00 28.45 LIG 0.04  C 
BRANCH 13 14
ATOM     14  CG  ARG C1004       0.320 -33.284   0.857  1.00 27.92 LIG 0.02  C 
BRANCH 14 15
ATOM     15  CD  ARG C1004      -0.315 -31.897   0.955  1.00 26.34 LIG 0.14  C 
BRANCH 15 16
ATOM     16  NE  ARG C1004      -1.249 -31.673  -0.138  1.00 24.25 LIG-0.23  N 
ATOM     17 HE   ARG C1004      -2.089 -31.675   0.049  1.00 24.25 LIG 0.18  HD
ATOM     18  CZ  ARG C1004      -0.902 -31.466  -1.405  1.00 25.16 LIG 0.67  C 
ATOM     19  NH2 ARG C1004      -1.843 -31.262  -2.308  1.00 24.86 LIG-0.23  N 
ATOM     20  NH1 ARG C1004       0.370 -31.483  -1.772  1.00 22.12 LIG-0.23  N 
ATOM     21 1HH2 ARG C1004      -2.671 -31.263  -2.075  1.00 24.86 LIG 0.17  HD
ATOM     22 2HH2 ARG C1004      -1.627 -31.127  -3.129  1.00 24.86 LIG 0.17  HD
ATOM     23 1HH1 ARG C1004       0.985 -31.630  -1.188  1.00 22.12 LIG 0.17  HD
ATOM     24 2HH1 ARG C1004       0.582 -31.348  -2.594  1.00 22.12 LIG 0.17  HD
ENDBRANCH 15 16
ENDBRANCH 14 15
ENDBRANCH 13 14
ENDBRANCH 6 13
ENDBRANCH 3 6
ENDBRANCH 1 2
BRANCH 1 25
ATOM     25  CB  PHE C1005      -1.109 -32.337   6.553  1.00 25.48 LIG 0.07  C 
BRANCH 25 26
ATOM     26  CG  PHE C1005      -1.298 -31.445   5.367  1.00 23.55 LIG-0.06  A 
ATOM     27  CD1 PHE C1005      -0.326 -30.488   5.032  1.00 22.30 LIG 0.01  A 
ATOM     28  CE1 PHE C1005      -0.508 -29.640   3.927  1.00 23.64 LIG 0.00  A 
ATOM     29  CZ  PHE C1005      -1.703 -29.745   3.170  1.00 21.73 LIG 0.00  A 
ATOM     30  CE2 PHE C1005      -2.661 -30.697   3.497  1.00 19.92 LIG 0.00  A 
ATOM     31  CD2 PHE C1005      -2.462 -31.552   4.598  1.00 21.20 LIG 0.01  A 
ENDBRANCH 25 26
ENDBRANCH 1 25
BRANCH 1 32
ATOM     32  C   PHE C1005       0.225 -34.204   7.473  1.00 27.26 LIG 0.24  C 
ATOM     33 O    PHE C1005      -0.174 -35.261   6.998  1.00 28.13 LIG-0.27  OA
ATOM     34  N   GLN C1006       0.640 -34.043   8.725  1.00 28.15 LIG-0.35  N 
ATOM     35 H    GLN C1006       1.023 -33.324   9.001  1.00 28.15 LIG 0.16  HD
BRANCH 34 36
ATOM     36  CA  GLN C1006       0.494 -35.060   9.765  1.00 29.76 LIG 0.18  C 
BRANCH 36 37
ATOM     37  CB  GLN C1006       1.271 -36.324   9.401  1.00 29.94 LIG 0.04  C 
BRANCH 37 38
ATOM     38  CG  GLN C1006       2.634 -36.447  10.055  1.00 33.02 LIG 0.10  C 
BRANCH 38 39
ATOM     39  CD  GLN C1006       3.597 -35.362   9.609  1.00 35.46 LIG 0.21  C 
ATOM     40 OE1  GLN C1006       3.952 -35.279   8.433  1.00 38.48 LIG-0.27  OA
ATOM     41  NE2 GLN C1006       4.033 -34.528  10.552  1.00 37.01 LIG-0.37  N 
ATOM     42 22HE GLN C1006       4.585 -33.901  10.351  1.00 37.01 LIG 0.16  HD
ATOM     43 21HE GLN C1006       3.762 -34.618  11.364  1.00 37.01 LIG 0.16  HD
ENDBRANCH 38 39
ENDBRANCH 37 38
ENDBRANCH 36 37
BRANCH 36 44
ATOM     44  C   GLN C1006       0.989 -34.499  11.100  1.00 30.09 LIG 0.24  C 
ATOM     45  N   VAL C1007       0.563 -35.150  12.188  1.00 30.97 LIG-0.35  N 
ATOM     46 H    VAL C1007      -0.005 -35.795  12.148  1.00 30.97 LIG 0.16  HD
ATOM     47 O    GLN C1006       1.714 -33.496  11.129  1.00 30.15 LIG-0.27  OA
BRANCH 45 48
ATOM     48  CA  VAL C1007       1.002 -34.853  13.560  1.00 32.05 LIG 0.18  C 
BRANCH 48 49
ATOM     49  CB  VAL C1007       2.541 -34.594  13.610  1.00 32.12 LIG 0.01  C 
ATOM     50  CG1 VAL C1007       3.346 -35.890  13.537  1.00 30.72 LIG 0.01  C 
ATOM     51  CG2 VAL C1007       2.938 -33.779  14.835  1.00 30.85 LIG 0.01  C 
ENDBRANCH 48 49
BRANCH 48 52
ATOM     52  C   VAL C1007       0.274 -33.517  13.879  1.00 33.20 LIG 0.24  C 
ATOM     53 O    VAL C1007       0.472 -32.556  13.144  1.00 34.91 LIG-0.27  OA
ATOM     54  N   THR C1008      -0.540 -33.404  14.932  1.00 34.53 LIG-0.34  N 
ATOM     55 H    THR C1008      -0.983 -32.679  15.068  1.00 34.53 LIG 0.16  HD
BRANCH 54 56
ATOM     56  CA  THR C1008      -0.816 -34.398  15.966  1.00 33.96 LIG 0.19  C 
BRANCH 56 57
ATOM     57  C   THR C1008      -1.863 -33.823  16.918  1.00 33.93 LIG 0.22  C 
ATOM     58 O    THR C1008      -1.873 -32.625  17.215  1.00 34.05 LIG-0.29  OA
ENDBRANCH 56 57
BRANCH 56 59
ATOM     59  CB  THR C1008       0.474 -34.746  16.799  1.00 34.51 LIG 0.14  C 
ATOM     60  CG2 THR C1008       0.244 -34.622  18.306  1.00 33.41 LIG 0.04  C 
BRANCH 59 61
ATOM     61 OG1  THR C1008       0.871 -36.086  16.531  1.00 32.91 LIG-0.39  OA
ATOM     62 HG1  THR C1008       0.244 -36.610  16.728  1.00 32.91 LIG 0.21  HD
ENDBRANCH 59 61
ENDBRANCH 56 59
ENDBRANCH 54 56
ENDBRANCH 48 52
ENDBRANCH 45 48
ENDBRANCH 36 44
ENDBRANCH 34 36
ENDBRANCH 1 32
TORSDOF 23
ENDMDL
MODEL 11
USER: ADFR SOLUTION from run 11
USER: SCORE 18.292864 LL:  -3.605 LR: -16.316 RR:   0.000 FEB:  -9.455
USER: RMSD 4.605916
USER: SEED 117277
USER: STATUS no improvement in best in 20 clusters for 5 generations
USER: GENES 25
USER: genes 0 Translation |==|  0.49948 0.54378 0.39009
USER: genes 1 Rotation |==|  0.67906 0.46481 0.59339 0.95605
USER: genes 2 Torsion [CB]-CA--N-[C] |==|  0.50312
USER: genes 3 Torsion [N]-C--CA-[N] |==|  0.18889
USER: genes 4 Torsion [C]-CA--N-[C] |==|  0.78333
USER: genes 5 Torsion [N]-C--CA-[N] |==|  0.58274
USER: genes 6 Torsion [C]-CA--CB-[CG] |==|  0.52544
USER: genes 7 Torsion [CA]-CB--CG-[CD] |==|  0.85947
USER: genes 8 Torsion [CB]-CG--CD-[NE] |==|  0.35947
USER: genes 9 Torsion [CG]-CD--NE-[HE] |==|  0.15380
USER: genes 10 Torsion [N]-CA--CB-[CG] |==|  0.82970
USER: genes 11 Torsion [CA]-CB--CG-[CD2] |==|  0.32138
USER: genes 12 Torsion [N]-CA--C-[N] |==|  0.32437
USER: genes 13 Torsion [C]-N--CA-[C] |==|  0.69925
USER: genes 14 Torsion [N]-CA--CB-[CG] |==|  0.06505
USER: genes 15 Torsion [CA]-CB--CG-[CD] |==|  0.31740
USER: genes 16 Torsion [CB]-CG--CD-[OE1] |==|  0.46530
USER: genes 17 Torsion [N]-CA--C-[N] |==|  0.06589
USER: genes 18 Torsion [C]-N--CA-[CB] |==|  0.57414
USER: genes 19 Torsion [N]-CA--CB-[CG1] |==|  0.10335
USER: genes 20 Torsion [N]-CA--C-[N] |==|  0.35511
USER: genes 21 Torsion [C]-N--CA-[C] |==|  0.48888
USER: genes 22 Torsion [N]-CA--C-[O] |==|  0.42472
USER: genes 23 Torsion [N]-CA--CB-[OG1] |==|  0.73480
USER: genes 24 Torsion [CA]-CB--OG1-[HG1] |==|  0.57270
ROOT
ATOM      1  CA  PHE C1005       1.117 -34.491   3.812  1.00 26.32 LIG 0.18  C 
ENDROOT
BRANCH 1 2
ATOM      2  N   PHE C1005       0.599 -34.278   2.469  1.00 26.54 LIG-0.35  N 
ATOM      3  C   ARG C1004       1.406 -34.262   1.406  1.00 27.34 LIG 0.24  C 
ATOM      4 O    ARG C1004       2.596 -34.571   1.460  1.00 26.08 LIG-0.27  OA
ATOM      5 H    PHE C1005      -0.253 -34.166   2.428  1.00 26.54 LIG 0.16  HD
BRANCH 3 6
ATOM      6  CA  ARG C1004       0.772 -33.843   0.070  1.00 28.49 LIG 0.18  C 
BRANCH 6 7
ATOM      7  N   ARG C1004       0.379 -32.436   0.033  1.00 30.45 LIG-0.35  N 
ATOM      8  C   GLY C1003      -0.741 -32.040   0.638  1.00 32.03 LIG 0.25  C 
ATOM      9 O    GLY C1003      -1.447 -32.812   1.286  1.00 33.62 LIG-0.27  OA
ATOM     10 H    ARG C1004       0.914 -31.919  -0.396  1.00 30.45 LIG 0.16  HD
BRANCH 8 11
ATOM     11  CA  GLY C1003      -1.112 -30.577   0.510  1.00 33.10 LIG 0.47  C 
ATOM     12  N   GLY C1003      -1.871 -30.081   1.688  1.00 33.92 LIG 0.61  N 
ENDBRANCH 8 11
ENDBRANCH 6 7
BRANCH 6 13
ATOM     13  CB  ARG C1004       1.694 -34.195  -1.102  1.00 28.45 LIG 0.04  C 
BRANCH 13 14
ATOM     14  CG  ARG C1004       1.253 -33.625  -2.430  1.00 27.92 LIG 0.02  C 
BRANCH 14 15
ATOM     15  CD  ARG C1004      -0.215 -33.940  -2.714  1.00 26.34 LIG 0.14  C 
BRANCH 15 16
ATOM     16  NE  ARG C1004      -0.944 -32.737  -3.086  1.00 24.25 LIG-0.23  N 
ATOM     17 HE   ARG C1004      -0.642 -32.277  -3.748  1.00 24.25 LIG 0.18  HD
ATOM     18  CZ  ARG C1004      -2.041 -32.294  -2.480  1.00 25.16 LIG 0.67  C 
ATOM     19  NH2 ARG C1004      -2.623 -31.194  -2.918  1.00 24.86 LIG-0.23  N 
ATOM     20  NH1 ARG C1004      -2.543 -32.933  -1.434  1.00 22.12 LIG-0.23  N 
ATOM     21 1HH2 ARG C1004      -2.292 -30.770  -3.589  1.00 24.86 LIG 0.17  HD
ATOM     22 2HH2 ARG C1004      -3.333 -30.900  -2.532  1.00 24.86 LIG 0.17  HD
ATOM     23 1HH1 ARG C1004      -2.159 -33.643  -1.137  1.00 22.12 LIG 0.17  HD
ATOM     24 2HH1 ARG C1004      -3.254 -32.637  -1.050  1.00 22.12 LIG 0.17  HD
ENDBRANCH 15 16
ENDBRANCH 14 15
ENDBRANCH 13 14
ENDBRANCH 6 13
ENDBRANCH 3 6
ENDBRANCH 1 2
BRANCH 1 25
ATOM     25  CB  PHE C1005      -0.026 -34.487   4.821  1.00 25.48 LIG 0.07  C 
BRANCH 25 26
ATOM     26  CG  PHE C1005      -0.769 -33.189   4.859  1.00 23.55 LIG-0.06  A 
ATOM     27  CD1 PHE C1005      -0.133 -32.014   5.293  1.00 22.30 LIG 0.01  A 
ATOM     28  CE1 PHE C1005      -0.833 -30.798   5.343  1.00 23.64 LIG 0.00  A 
ATOM     29  CZ  PHE C1005      -2.203 -30.778   4.974  1.00 21.73 LIG 0.00  A 
ATOM     30  CE2 PHE C1005      -2.830 -31.938   4.537  1.00 19.92 LIG 0.00  A 
ATOM     31  CD2 PHE C1005      -2.115 -33.150   4.477  1.00 21.20 LIG 0.01  A 
ENDBRANCH 25 26
ENDBRANCH 1 25
BRANCH 1 32
ATOM     32  C   PHE C1005       1.875 -35.790   3.927  1.00 27.26 LIG 0.24  C 
ATOM     33 O    PHE C1005       1.295 -36.854   3.743  1.00 28.13 LIG-0.27  OA
ATOM     34  N   GLN C1006       3.165 -35.671   4.223  1.00 28.15 LIG-0.35  N 
ATOM     35 H    GLN C1006       3.574 -34.914   4.232  1.00 28.15 LIG 0.16  HD
BRANCH 34 36
ATOM     36  CA  GLN C1006       4.028 -36.801   4.561  1.00 29.76 LIG 0.18  C 
BRANCH 36 37
ATOM     37  CB  GLN C1006       5.309 -36.773   3.731  1.00 29.94 LIG 0.04  C 
BRANCH 37 38
ATOM     38  CG  GLN C1006       5.694 -35.407   3.196  1.00 33.02 LIG 0.10  C 
BRANCH 38 39
ATOM     39  CD  GLN C1006       6.988 -34.886   3.797  1.00 35.46 LIG 0.21  C 
ATOM     40 OE1  GLN C1006       7.560 -33.910   3.313  1.00 38.48 LIG-0.27  OA
ATOM     41  NE2 GLN C1006       7.461 -35.546   4.854  1.00 37.01 LIG-0.37  N 
ATOM     42 22HE GLN C1006       8.194 -35.294   5.226  1.00 37.01 LIG 0.16  HD
ATOM     43 21HE GLN C1006       7.032 -36.224   5.164  1.00 37.01 LIG 0.16  HD
ENDBRANCH 38 39
ENDBRANCH 37 38
ENDBRANCH 36 37
BRANCH 36 44
ATOM     44  C   GLN C1006       4.362 -36.760   6.054  1.00 30.09 LIG 0.24  C 
ATOM     45  N   VAL C1007       3.486 -36.098   6.818  1.00 30.97 LIG-0.35  N 
ATOM     46 H    VAL C1007       2.820 -35.664   6.488  1.00 30.97 LIG 0.16  HD
ATOM     47 O    GLN C1006       5.393 -37.296   6.482  1.00 30.15 LIG-0.27  OA
BRANCH 45 48
ATOM     48  CA  VAL C1007       3.551 -36.027   8.286  1.00 32.05 LIG 0.18  C 
BRANCH 48 49
ATOM     49  CB  VAL C1007       2.132 -35.800   8.896  1.00 32.12 LIG 0.01  C 
ATOM     50  CG1 VAL C1007       1.048 -36.556   8.132  1.00 30.72 LIG 0.01  C 
ATOM     51  CG2 VAL C1007       1.790 -34.317   8.993  1.00 30.85 LIG 0.01  C 
ENDBRANCH 48 49
BRANCH 48 52
ATOM     52  C   VAL C1007       4.029 -37.452   8.685  1.00 33.20 LIG 0.24  C 
ATOM     53 O    VAL C1007       3.408 -38.417   8.252  1.00 34.91 LIG-0.27  OA
ATOM     54  N   THR C1008       5.081 -37.631   9.488  1.00 34.53 LIG-0.34  N 
ATOM     55 H    THR C1008       5.373 -38.423   9.657  1.00 34.53 LIG 0.16  HD
BRANCH 54 56
ATOM     56  CA  THR C1008       5.872 -36.614  10.174  1.00 33.96 LIG 0.19  C 
BRANCH 56 57
ATOM     57  C   THR C1008       6.904 -37.320  11.052  1.00 33.93 LIG 0.22  C 
ATOM     58 O    THR C1008       7.976 -36.781  11.343  1.00 34.05 LIG-0.29  OA
ENDBRANCH 56 57
BRANCH 56 59
ATOM     59  CB  THR C1008       4.978 -35.703  11.096  1.00 34.51 LIG 0.14  C 
ATOM     60  CG2 THR C1008       5.703 -35.280  12.375  1.00 33.41 LIG 0.04  C 
BRANCH 59 61
ATOM     61 OG1  THR C1008       4.614 -34.520  10.393  1.00 32.91 LIG-0.39  OA
ATOM     62 HG1  THR C1008       4.466 -33.902  10.942  1.00 32.91 LIG 0.21  HD
ENDBRANCH 59 61
ENDBRANCH 56 59
ENDBRANCH 54 56
ENDBRANCH 48 52
ENDBRANCH 45 48
ENDBRANCH 36 44
ENDBRANCH 34 36
ENDBRANCH 1 32
TORSDOF 23
ENDMDL
MODEL 12
USER: ADFR SOLUTION from run 125
USER: SCORE 18.254370 LL:  -3.657 LR: -16.245 RR:   0.000 FEB:  -9.384
USER: RMSD 2.986013
USER: SEED 124
USER: STATUS no improvement in best in 14 clusters for 5 generations
USER: GENES 25
USER: genes 0 Translation |==|  0.46154 0.61649 0.48365
USER: genes 1 Rotation |==|  0.57966 0.33481 0.56102 0.96113
USER: genes 2 Torsion [CB]-CA--N-[C] |==|  0.81342
USER: genes 3 Torsion [N]-C--CA-[N] |==|  0.32491
USER: genes 4 Torsion [C]-CA--N-[C] |==|  0.61111
USER: genes 5 Torsion [N]-C--CA-[N] |==|  0.71923
USER: genes 6 Torsion [C]-CA--CB-[CG] |==|  0.15682
USER: genes 7 Torsion [CA]-CB--CG-[CD] |==|  0.28975
USER: genes 8 Torsion [CB]-CG--CD-[NE] |==|  0.24617
USER: genes 9 Torsion [CG]-CD--NE-[HE] |==|  0.10960
USER: genes 10 Torsion [N]-CA--CB-[CG] |==|  0.90072
USER: genes 11 Torsion [CA]-CB--CG-[CD2] |==|  0.89263
USER: genes 12 Torsion [N]-CA--C-[N] |==|  0.27364
USER: genes 13 Torsion [C]-N--CA-[C] |==|  0.62848
USER: genes 14 Torsion [N]-CA--CB-[CG] |==|  0.07639
USER: genes 15 Torsion [CA]-CB--CG-[CD] |==|  0.70385
USER: genes 16 Torsion [CB]-CG--CD-[OE1] |==|  0.79684
USER: genes 17 Torsion [N]-CA--C-[N] |==|  0.41672
USER: genes 18 Torsion [C]-N--CA-[CB] |==|  0.86640
USER: genes 19 Torsion [N]-CA--CB-[CG1] |==|  0.92243
USER: genes 20 Torsion [N]-CA--C-[N] |==|  0.45511
USER: genes 21 Torsion [C]-N--CA-[C] |==|  0.67921
USER: genes 22 Torsion [N]-CA--C-[O] |==|  0.05928
USER: genes 23 Torsion [N]-CA--CB-[OG1] |==|  0.85378
USER: genes 24 Torsion [CA]-CB--OG1-[HG1] |==|  0.05335
ROOT
ATOM      1  CA  PHE C1005       0.377 -33.182   6.408  1.00 26.32 LIG 0.18  C 
ENDROOT
BRANCH 1 2
ATOM      2  N   PHE C1005       0.611 -33.306   4.977  1.00 26.54 LIG-0.35  N 
ATOM      3  C   ARG C1004      -0.109 -34.140   4.224  1.00 27.34 LIG 0.24  C 
ATOM      4 O    ARG C1004      -1.100 -34.738   4.641  1.00 26.08 LIG-0.27  OA
ATOM      5 H    PHE C1005       1.240 -32.804   4.673  1.00 26.54 LIG 0.16  HD
BRANCH 3 6
ATOM      6  CA  ARG C1004       0.352 -34.322   2.769  1.00 28.49 LIG 0.18  C 
BRANCH 6 7
ATOM      7  N   ARG C1004       0.769 -35.687   2.462  1.00 30.45 LIG-0.35  N 
ATOM      8  C   GLY C1003       1.834 -35.903   1.690  1.00 32.03 LIG 0.25  C 
ATOM      9 O    GLY C1003       2.530 -34.985   1.259  1.00 33.62 LIG-0.27  OA
ATOM     10 H    ARG C1004       0.283 -36.305   2.810  1.00 30.45 LIG 0.16  HD
BRANCH 8 11
ATOM     11  CA  GLY C1003       2.172 -37.344   1.370  1.00 33.10 LIG 0.47  C 
ATOM     12  N   GLY C1003       3.288 -37.863   2.206  1.00 33.92 LIG 0.61  N 
ENDBRANCH 8 11
ENDBRANCH 6 7
BRANCH 6 13
ATOM     13  CB  ARG C1004      -0.723 -33.834   1.794  1.00 28.45 LIG 0.04  C 
BRANCH 13 14
ATOM     14  CG  ARG C1004      -1.143 -32.397   2.001  1.00 27.92 LIG 0.02  C 
BRANCH 14 15
ATOM     15  CD  ARG C1004      -0.544 -31.481   0.936  1.00 26.34 LIG 0.14  C 
BRANCH 15 16
ATOM     16  NE  ARG C1004      -1.413 -31.398  -0.229  1.00 24.25 LIG-0.23  N 
ATOM     17 HE   ARG C1004      -2.261 -31.362  -0.091  1.00 24.25 LIG 0.18  HD
ATOM     18  CZ  ARG C1004      -0.993 -31.375  -1.490  1.00 25.16 LIG 0.67  C 
ATOM     19  NH2 ARG C1004      -1.878 -31.285  -2.465  1.00 24.86 LIG-0.23  N 
ATOM     20  NH1 ARG C1004       0.297 -31.461  -1.779  1.00 22.12 LIG-0.23  N 
ATOM     21 1HH2 ARG C1004      -2.718 -31.242  -2.281  1.00 24.86 LIG 0.17  HD
ATOM     22 2HH2 ARG C1004      -1.616 -31.270  -3.283  1.00 24.86 LIG 0.17  HD
ATOM     23 1HH1 ARG C1004       0.875 -31.533  -1.147  1.00 22.12 LIG 0.17  HD
ATOM     24 2HH1 ARG C1004       0.556 -31.445  -2.599  1.00 22.12 LIG 0.17  HD
ENDBRANCH 15 16
ENDBRANCH 14 15
ENDBRANCH 13 14
ENDBRANCH 6 13
ENDBRANCH 3 6
ENDBRANCH 1 2
BRANCH 1 25
ATOM     25  CB  PHE C1005      -0.988 -32.555   6.664  1.00 25.48 LIG 0.07  C 
BRANCH 25 26
ATOM     26  CG  PHE C1005      -1.355 -31.516   5.652  1.00 23.55 LIG-0.06  A 
ATOM     27  CD1 PHE C1005      -2.671 -31.421   5.170  1.00 22.30 LIG 0.01  A 
ATOM     28  CE1 PHE C1005      -3.013 -30.455   4.210  1.00 23.64 LIG 0.00  A 
ATOM     29  CZ  PHE C1005      -2.002 -29.593   3.711  1.00 21.73 LIG 0.00  A 
ATOM     30  CE2 PHE C1005      -0.702 -29.682   4.194  1.00 19.92 LIG 0.00  A 
ATOM     31  CD2 PHE C1005      -0.373 -30.644   5.167  1.00 21.20 LIG 0.01  A 
ENDBRANCH 25 26
ENDBRANCH 1 25
BRANCH 1 32
ATOM     32  C   PHE C1005       0.450 -34.515   7.111  1.00 27.26 LIG 0.24  C 
ATOM     33 O    PHE C1005      -0.517 -35.267   7.096  1.00 28.13 LIG-0.27  OA
ATOM     34  N   GLN C1006       1.608 -34.781   7.707  1.00 28.15 LIG-0.35  N 
ATOM     35 H    GLN C1006       2.308 -34.291   7.606  1.00 28.15 LIG 0.16  HD
BRANCH 34 36
ATOM     36  CA  GLN C1006       1.821 -35.923   8.593  1.00 29.76 LIG 0.18  C 
BRANCH 36 37
ATOM     37  CB  GLN C1006       2.619 -37.016   7.886  1.00 29.94 LIG 0.04  C 
BRANCH 37 38
ATOM     38  CG  GLN C1006       3.545 -36.524   6.791  1.00 33.02 LIG 0.10  C 
BRANCH 38 39
ATOM     39  CD  GLN C1006       3.032 -36.851   5.400  1.00 35.46 LIG 0.21  C 
ATOM     40 OE1  GLN C1006       3.069 -38.004   4.969  1.00 38.48 LIG-0.27  OA
ATOM     41  NE2 GLN C1006       2.558 -35.831   4.686  1.00 37.01 LIG-0.37  N 
ATOM     42 22HE GLN C1006       2.262 -35.964   3.890  1.00 37.01 LIG 0.16  HD
ATOM     43 21HE GLN C1006       2.549 -35.039   5.022  1.00 37.01 LIG 0.16  HD
ENDBRANCH 38 39
ENDBRANCH 37 38
ENDBRANCH 36 37
BRANCH 36 44
ATOM     44  C   GLN C1006       2.556 -35.461   9.854  1.00 30.09 LIG 0.24  C 
ATOM     45  N   VAL C1007       2.285 -36.159  10.962  1.00 30.97 LIG-0.35  N 
ATOM     46 H    VAL C1007       1.689 -36.779  10.985  1.00 30.97 LIG 0.16  HD
ATOM     47 O    GLN C1006       3.322 -34.489   9.814  1.00 30.15 LIG-0.27  OA
BRANCH 45 48
ATOM     48  CA  VAL C1007       2.958 -35.960  12.256  1.00 32.05 LIG 0.18  C 
BRANCH 48 49
ATOM     49  CB  VAL C1007       4.508 -35.911  12.075  1.00 32.12 LIG 0.01  C 
ATOM     50  CG1 VAL C1007       4.974 -36.714  10.863  1.00 30.72 LIG 0.01  C 
ATOM     51  CG2 VAL C1007       5.238 -36.361  13.336  1.00 30.85 LIG 0.01  C 
ENDBRANCH 48 49
BRANCH 48 52
ATOM     52  C   VAL C1007       2.474 -34.548  12.689  1.00 33.20 LIG 0.24  C 
ATOM     53 O    VAL C1007       1.975 -33.817  11.840  1.00 34.91 LIG-0.27  OA
ATOM     54  N   THR C1008       2.603 -34.127  13.950  1.00 34.53 LIG-0.34  N 
ATOM     55 H    THR C1008       2.281 -33.367  14.193  1.00 34.53 LIG 0.16  HD
BRANCH 54 56
ATOM     56  CA  THR C1008       3.256 -34.808  15.063  1.00 33.96 LIG 0.19  C 
BRANCH 56 57
ATOM     57  C   THR C1008       2.198 -35.135  16.115  1.00 33.93 LIG 0.22  C 
ATOM     58 O    THR C1008       1.000 -35.196  15.824  1.00 34.05 LIG-0.29  OA
ENDBRANCH 56 57
BRANCH 56 59
ATOM     59  CB  THR C1008       4.360 -33.907  15.734  1.00 34.51 LIG 0.14  C 
ATOM     60  CG2 THR C1008       5.179 -34.668  16.777  1.00 33.41 LIG 0.04  C 
BRANCH 59 61
ATOM     61 OG1  THR C1008       5.260 -33.431  14.739  1.00 32.91 LIG-0.39  OA
ATOM     62 HG1  THR C1008       4.900 -33.493  13.982  1.00 32.91 LIG 0.21  HD
ENDBRANCH 59 61
ENDBRANCH 56 59
ENDBRANCH 54 56
ENDBRANCH 48 52
ENDBRANCH 45 48
ENDBRANCH 36 44
ENDBRANCH 34 36
ENDBRANCH 1 32
TORSDOF 23
ENDMDL
MODEL 13
USER: ADFR SOLUTION from run 150
USER: SCORE 17.232207 LL:  -3.747 LR: -16.162 RR:   0.000 FEB:  -9.301
USER: RMSD 4.695043
USER: SEED 149
USER: STATUS no improvement in best in 23 clusters for 5 generations
USER: GENES 25
USER: genes 0 Translation |==|  0.47036 0.58061 0.41441
USER: genes 1 Rotation |==|  0.62400 0.45248 0.49769 0.98204
USER: genes 2 Torsion [CB]-CA--N-[C] |==|  0.46667
USER: genes 3 Torsion [N]-C--CA-[N] |==|  0.28370
USER: genes 4 Torsion [C]-CA--N-[C] |==|  0.75217
USER: genes 5 Torsion [N]-C--CA-[N] |==|  0.15489
USER: genes 6 Torsion [C]-CA--CB-[CG] |==|  0.47470
USER: genes 7 Torsion [CA]-CB--CG-[CD] |==|  0.19205
USER: genes 8 Torsion [CB]-CG--CD-[NE] |==|  0.60479
USER: genes 9 Torsion [CG]-CD--NE-[HE] |==|  0.63086
USER: genes 10 Torsion [N]-CA--CB-[CG] |==|  0.90909
USER: genes 11 Torsion [CA]-CB--CG-[CD2] |==|  0.35294
USER: genes 12 Torsion [N]-CA--C-[N] |==|  0.29642
USER: genes 13 Torsion [C]-N--CA-[C] |==|  0.80151
USER: genes 14 Torsion [N]-CA--CB-[CG] |==|  0.78091
USER: genes 15 Torsion [CA]-CB--CG-[CD] |==|  0.19719
USER: genes 16 Torsion [CB]-CG--CD-[OE1] |==|  0.20078
USER: genes 17 Torsion [N]-CA--C-[N] |==|  0.90988
USER: genes 18 Torsion [C]-N--CA-[CB] |==|  0.28240
USER: genes 19 Torsion [N]-CA--CB-[CG1] |==|  0.93223
USER: genes 20 Torsion [N]-CA--C-[N] |==|  0.44316
USER: genes 21 Torsion [C]-N--CA-[C] |==|  0.68833
USER: genes 22 Torsion [N]-CA--C-[O] |==|  0.09149
USER: genes 23 Torsion [N]-CA--CB-[OG1] |==|  0.71889
USER: genes 24 Torsion [CA]-CB--OG1-[HG1] |==|  0.19854
ROOT
ATOM      1  CA  PHE C1005       0.549 -33.828   4.487  1.00 26.32 LIG 0.18  C 
ENDROOT
BRANCH 1 2
ATOM      2  N   PHE C1005       0.025 -33.679   3.137  1.00 26.54 LIG-0.35  N 
ATOM      3  C   ARG C1004       0.775 -33.946   2.066  1.00 27.34 LIG 0.24  C 
ATOM      4 O    ARG C1004       1.886 -34.470   2.136  1.00 26.08 LIG-0.27  OA
ATOM      5 H    PHE C1005      -0.791 -33.411   3.099  1.00 26.54 LIG 0.16  HD
BRANCH 3 6
ATOM      6  CA  ARG C1004       0.177 -33.573   0.701  1.00 28.49 LIG 0.18  C 
BRANCH 6 7
ATOM      7  N   ARG C1004       0.729 -32.340   0.145  1.00 30.45 LIG-0.35  N 
ATOM      8  C   GLY C1003       0.165 -31.166   0.431  1.00 32.03 LIG 0.25  C 
ATOM      9 O    GLY C1003      -0.789 -31.066   1.202  1.00 33.62 LIG-0.27  OA
ATOM     10 H    ARG C1004       1.418 -32.442  -0.359  1.00 30.45 LIG 0.16  HD
BRANCH 8 11
ATOM     11  CA  GLY C1003       0.759 -29.938  -0.226  1.00 33.10 LIG 0.47  C 
ATOM     12  N   GLY C1003       0.794 -30.051  -1.708  1.00 33.92 LIG 0.61  N 
ENDBRANCH 8 11
ENDBRANCH 6 7
BRANCH 6 13
ATOM     13  CB  ARG C1004       0.310 -34.737  -0.286  1.00 28.45 LIG 0.04  C 
BRANCH 13 14
ATOM     14  CG  ARG C1004      -0.441 -34.540  -1.582  1.00 27.92 LIG 0.02  C 
BRANCH 14 15
ATOM     15  CD  ARG C1004       0.192 -33.441  -2.434  1.00 26.34 LIG 0.14  C 
BRANCH 15 16
ATOM     16  NE  ARG C1004      -0.828 -32.654  -3.112  1.00 24.25 LIG-0.23  N 
ATOM     17 HE   ARG C1004      -0.716 -32.496  -3.950  1.00 24.25 LIG 0.18  HD
ATOM     18  CZ  ARG C1004      -1.918 -32.162  -2.533  1.00 25.16 LIG 0.67  C 
ATOM     19  NH2 ARG C1004      -2.780 -31.473  -3.256  1.00 24.86 LIG-0.23  N 
ATOM     20  NH1 ARG C1004      -2.138 -32.338  -1.238  1.00 22.12 LIG-0.23  N 
ATOM     21 1HH2 ARG C1004      -2.634 -31.346  -4.094  1.00 24.86 LIG 0.17  HD
ATOM     22 2HH2 ARG C1004      -3.488 -31.150  -2.890  1.00 24.86 LIG 0.17  HD
ATOM     23 1HH1 ARG C1004      -1.571 -32.775  -0.761  1.00 22.12 LIG 0.17  HD
ATOM     24 2HH1 ARG C1004      -2.847 -32.014  -0.875  1.00 22.12 LIG 0.17  HD
ENDBRANCH 15 16
ENDBRANCH 14 15
ENDBRANCH 13 14
ENDBRANCH 6 13
ENDBRANCH 3 6
ENDBRANCH 1 2
BRANCH 1 25
ATOM     25  CB  PHE C1005      -0.400 -33.184   5.491  1.00 25.48 LIG 0.07  C 
BRANCH 25 26
ATOM     26  CG  PHE C1005      -1.108 -31.986   4.942  1.00 23.55 LIG-0.06  A 
ATOM     27  CD1 PHE C1005      -0.383 -30.925   4.375  1.00 22.30 LIG 0.01  A 
ATOM     28  CE1 PHE C1005      -1.045 -29.793   3.873  1.00 23.64 LIG 0.00  A 
ATOM     29  CZ  PHE C1005      -2.459 -29.725   3.971  1.00 21.73 LIG 0.00  A 
ATOM     30  CE2 PHE C1005      -3.177 -30.778   4.525  1.00 19.92 LIG 0.00  A 
ATOM     31  CD2 PHE C1005      -2.504 -31.914   5.012  1.00 21.20 LIG 0.01  A 
ENDBRANCH 25 26
ENDBRANCH 1 25
BRANCH 1 32
ATOM     32  C   PHE C1005       0.756 -35.276   4.858  1.00 27.26 LIG 0.24  C 
ATOM     33 O    PHE C1005      -0.213 -35.991   5.090  1.00 28.13 LIG-0.27  OA
ATOM     34  N   GLN C1006       2.021 -35.678   4.897  1.00 28.15 LIG-0.35  N 
ATOM     35 H    GLN C1006       2.674 -35.191   4.619  1.00 28.15 LIG 0.16  HD
BRANCH 34 36
ATOM     36  CA  GLN C1006       2.445 -36.978   5.412  1.00 29.76 LIG 0.18  C 
BRANCH 36 37
ATOM     37  CB  GLN C1006       3.892 -37.270   5.025  1.00 29.94 LIG 0.04  C 
BRANCH 37 38
ATOM     38  CG  GLN C1006       4.089 -37.747   3.599  1.00 33.02 LIG 0.10  C 
BRANCH 38 39
ATOM     39  CD  GLN C1006       3.861 -36.648   2.577  1.00 35.46 LIG 0.21  C 
ATOM     40 OE1  GLN C1006       4.676 -35.735   2.442  1.00 38.48 LIG-0.27  OA
ATOM     41  NE2 GLN C1006       2.741 -36.726   1.859  1.00 37.01 LIG-0.37  N 
ATOM     42 22HE GLN C1006       2.564 -36.123   1.272  1.00 37.01 LIG 0.16  HD
ATOM     43 21HE GLN C1006       2.196 -37.379   1.982  1.00 37.01 LIG 0.16  HD
ENDBRANCH 38 39
ENDBRANCH 37 38
ENDBRANCH 36 37
BRANCH 36 44
ATOM     44  C   GLN C1006       2.287 -37.001   6.935  1.00 30.09 LIG 0.24  C 
ATOM     45  N   VAL C1007       2.483 -35.828   7.547  1.00 30.97 LIG-0.35  N 
ATOM     46 H    VAL C1007       2.748 -35.126   7.128  1.00 30.97 LIG 0.16  HD
ATOM     47 O    GLN C1006       2.019 -38.057   7.522  1.00 30.15 LIG-0.27  OA
BRANCH 45 48
ATOM     48  CA  VAL C1007       2.276 -35.597   8.986  1.00 32.05 LIG 0.18  C 
BRANCH 48 49
ATOM     49  CB  VAL C1007       3.637 -35.588   9.751  1.00 32.12 LIG 0.01  C 
ATOM     50  CG1 VAL C1007       4.718 -36.374   9.013  1.00 30.72 LIG 0.01  C 
ATOM     51  CG2 VAL C1007       3.484 -36.090  11.182  1.00 30.85 LIG 0.01  C 
ENDBRANCH 48 49
BRANCH 48 52
ATOM     52  C   VAL C1007       1.684 -34.160   9.028  1.00 33.20 LIG 0.24  C 
ATOM     53 O    VAL C1007       1.877 -33.423   8.068  1.00 34.91 LIG-0.27  OA
ATOM     54  N   THR C1008       0.991 -33.726  10.084  1.00 34.53 LIG-0.34  N 
ATOM     55 H    THR C1008       0.619 -32.950  10.074  1.00 34.53 LIG 0.16  HD
BRANCH 54 56
ATOM     56  CA  THR C1008       0.749 -34.417  11.346  1.00 33.96 LIG 0.19  C 
BRANCH 56 57
ATOM     57  C   THR C1008      -0.738 -34.757  11.431  1.00 33.93 LIG 0.22  C 
ATOM     58 O    THR C1008      -1.394 -35.027  10.422  1.00 34.05 LIG-0.29  OA
ENDBRANCH 56 57
BRANCH 56 59
ATOM     59  CB  THR C1008       1.123 -33.519  12.585  1.00 34.51 LIG 0.14  C 
ATOM     60  CG2 THR C1008       0.105 -33.639  13.720  1.00 33.41 LIG 0.04  C 
BRANCH 59 61
ATOM     61 OG1  THR C1008       2.391 -33.913  13.097  1.00 32.91 LIG-0.39  OA
ATOM     62 HG1  THR C1008       2.995 -33.677  12.563  1.00 32.91 LIG 0.21  HD
ENDBRANCH 59 61
ENDBRANCH 56 59
ENDBRANCH 54 56
ENDBRANCH 48 52
ENDBRANCH 45 48
ENDBRANCH 36 44
ENDBRANCH 34 36
ENDBRANCH 1 32
TORSDOF 23
ENDMDL
MODEL 14
USER: ADFR SOLUTION from run 78
USER: SCORE 19.124827 LL:  -4.038 LR: -16.105 RR:   0.000 FEB:  -9.244
USER: RMSD 3.688834
USER: SEED 77
USER: STATUS no improvement in best in 4 clusters for 5 generations
USER: GENES 25
USER: genes 0 Translation |==|  0.46209 0.61120 0.48310
USER: genes 1 Rotation |==|  0.59067 0.34106 0.55163 0.96244
USER: genes 2 Torsion [CB]-CA--N-[C] |==|  0.77053
USER: genes 3 Torsion [N]-C--CA-[N] |==|  0.36891
USER: genes 4 Torsion [C]-CA--N-[C] |==|  0.61166
USER: genes 5 Torsion [N]-C--CA-[N] |==|  0.48378
USER: genes 6 Torsion [C]-CA--CB-[CG] |==|  0.19029
USER: genes 7 Torsion [CA]-CB--CG-[CD] |==|  0.29058
USER: genes 8 Torsion [CB]-CG--CD-[NE] |==|  0.24298
USER: genes 9 Torsion [CG]-CD--NE-[HE] |==|  0.09137
USER: genes 10 Torsion [N]-CA--CB-[CG] |==|  0.91349
USER: genes 11 Torsion [CA]-CB--CG-[CD2] |==|  0.88284
USER: genes 12 Torsion [N]-CA--C-[N] |==|  0.16917
USER: genes 13 Torsion [C]-N--CA-[C] |==|  0.69635
USER: genes 14 Torsion [N]-CA--CB-[CG] |==|  0.18824
USER: genes 15 Torsion [CA]-CB--CG-[CD] |==|  0.70600
USER: genes 16 Torsion [CB]-CG--CD-[OE1] |==|  0.68956
USER: genes 17 Torsion [N]-CA--C-[N] |==|  0.42923
USER: genes 18 Torsion [C]-N--CA-[CB] |==|  0.78310
USER: genes 19 Torsion [N]-CA--CB-[CG1] |==|  0.49172
USER: genes 20 Torsion [N]-CA--C-[N] |==|  0.16667
USER: genes 21 Torsion [C]-N--CA-[C] |==|  0.65742
USER: genes 22 Torsion [N]-CA--C-[O] |==|  0.04163
USER: genes 23 Torsion [N]-CA--CB-[OG1] |==|  0.05623
USER: genes 24 Torsion [CA]-CB--OG1-[HG1] |==|  0.90960
ROOT
ATOM      1  CA  PHE C1005       0.388 -33.277   6.393  1.00 26.32 LIG 0.18  C 
ENDROOT
BRANCH 1 2
ATOM      2  N   PHE C1005       0.568 -33.334   4.950  1.00 26.54 LIG-0.35  N 
ATOM      3  C   ARG C1004       0.036 -34.317   4.220  1.00 27.34 LIG 0.24  C 
ATOM      4 O    ARG C1004      -0.753 -35.143   4.677  1.00 26.08 LIG-0.27  OA
ATOM      5 H    PHE C1005       1.037 -32.691   4.623  1.00 26.54 LIG 0.16  HD
BRANCH 3 6
ATOM      6  CA  ARG C1004       0.450 -34.373   2.741  1.00 28.49 LIG 0.18  C 
BRANCH 6 7
ATOM      7  N   ARG C1004       0.836 -35.711   2.299  1.00 30.45 LIG-0.35  N 
ATOM      8  C   GLY C1003       1.875 -35.871   1.481  1.00 32.03 LIG 0.25  C 
ATOM      9 O    GLY C1003       2.575 -34.927   1.114  1.00 33.62 LIG-0.27  OA
ATOM     10 H    ARG C1004       0.349 -36.351   2.604  1.00 30.45 LIG 0.16  HD
BRANCH 8 11
ATOM     11  CA  GLY C1003       2.180 -37.282   1.022  1.00 33.10 LIG 0.47  C 
ATOM     12  N   GLY C1003       3.268 -37.324   0.009  1.00 33.92 LIG 0.61  N 
ENDBRANCH 8 11
ENDBRANCH 6 7
BRANCH 6 13
ATOM     13  CB  ARG C1004      -0.646 -33.786   1.848  1.00 28.45 LIG 0.04  C 
BRANCH 13 14
ATOM     14  CG  ARG C1004      -0.837 -32.294   2.000  1.00 27.92 LIG 0.02  C 
BRANCH 14 15
ATOM     15  CD  ARG C1004      -0.243 -31.531   0.817  1.00 26.34 LIG 0.14  C 
BRANCH 15 16
ATOM     16  NE  ARG C1004      -1.210 -31.409  -0.263  1.00 24.25 LIG-0.23  N 
ATOM     17 HE   ARG C1004      -2.040 -31.340  -0.048  1.00 24.25 LIG 0.18  HD
ATOM     18  CZ  ARG C1004      -0.907 -31.395  -1.557  1.00 25.16 LIG 0.67  C 
ATOM     19  NH2 ARG C1004      -1.873 -31.265  -2.447  1.00 24.86 LIG-0.23  N 
ATOM     20  NH1 ARG C1004       0.347 -31.529  -1.962  1.00 22.12 LIG-0.23  N 
ATOM     21 1HH2 ARG C1004      -2.690 -31.190  -2.187  1.00 24.86 LIG 0.17  HD
ATOM     22 2HH2 ARG C1004      -1.686 -31.255  -3.286  1.00 24.86 LIG 0.17  HD
ATOM     23 1HH1 ARG C1004       0.978 -31.627  -1.386  1.00 22.12 LIG 0.17  HD
ATOM     24 2HH1 ARG C1004       0.531 -31.518  -2.802  1.00 22.12 LIG 0.17  HD
ENDBRANCH 15 16
ENDBRANCH 14 15
ENDBRANCH 13 14
ENDBRANCH 6 13
ENDBRANCH 3 6
ENDBRANCH 1 2
BRANCH 1 25
ATOM     25  CB  PHE C1005      -0.957 -32.642   6.729  1.00 25.48 LIG 0.07  C 
BRANCH 25 26
ATOM     26  CG  PHE C1005      -1.391 -31.625   5.721  1.00 23.55 LIG-0.06  A 
ATOM     27  CD1 PHE C1005      -2.723 -31.586   5.275  1.00 22.30 LIG 0.01  A 
ATOM     28  CE1 PHE C1005      -3.130 -30.641   4.320  1.00 23.64 LIG 0.00  A 
ATOM     29  CZ  PHE C1005      -2.168 -29.742   3.790  1.00 21.73 LIG 0.00  A 
ATOM     30  CE2 PHE C1005      -0.853 -29.775   4.237  1.00 19.92 LIG 0.00  A 
ATOM     31  CD2 PHE C1005      -0.459 -30.717   5.206  1.00 21.20 LIG 0.01  A 
ENDBRANCH 25 26
ENDBRANCH 1 25
BRANCH 1 32
ATOM     32  C   PHE C1005       0.463 -34.645   7.027  1.00 27.26 LIG 0.24  C 
ATOM     33 O    PHE C1005      -0.505 -35.091   7.632  1.00 28.13 LIG-0.27  OA
ATOM     34  N   GLN C1006       1.616 -35.284   6.865  1.00 28.15 LIG-0.35  N 
ATOM     35 H    GLN C1006       2.237 -35.001   6.340  1.00 28.15 LIG 0.16  HD
BRANCH 34 36
ATOM     36  CA  GLN C1006       1.958 -36.528   7.552  1.00 29.76 LIG 0.18  C 
BRANCH 36 37
ATOM     37  CB  GLN C1006       2.438 -37.582   6.557  1.00 29.94 LIG 0.04  C 
BRANCH 37 38
ATOM     38  CG  GLN C1006       3.768 -37.278   5.895  1.00 33.02 LIG 0.10  C 
BRANCH 38 39
ATOM     39  CD  GLN C1006       3.614 -36.843   4.448  1.00 35.46 LIG 0.21  C 
ATOM     40 OE1  GLN C1006       4.010 -37.560   3.529  1.00 38.48 LIG-0.27  OA
ATOM     41  NE2 GLN C1006       3.045 -35.656   4.241  1.00 37.01 LIG-0.37  N 
ATOM     42 22HE GLN C1006       2.942 -35.362   3.440  1.00 37.01 LIG 0.16  HD
ATOM     43 21HE GLN C1006       2.782 -35.183   4.910  1.00 37.01 LIG 0.16  HD
ENDBRANCH 38 39
ENDBRANCH 37 38
ENDBRANCH 36 37
BRANCH 36 44
ATOM     44  C   GLN C1006       3.042 -36.252   8.598  1.00 30.09 LIG 0.24  C 
ATOM     45  N   VAL C1007       3.077 -37.108   9.624  1.00 30.97 LIG-0.35  N 
ATOM     46 H    VAL C1007       2.491 -37.728   9.729  1.00 30.97 LIG 0.16  HD
ATOM     47 O    GLN C1006       3.798 -35.279   8.476  1.00 30.15 LIG-0.27  OA
BRANCH 45 48
ATOM     48  CA  VAL C1007       4.102 -37.098  10.680  1.00 32.05 LIG 0.18  C 
BRANCH 48 49
ATOM     49  CB  VAL C1007       5.428 -37.750  10.177  1.00 32.12 LIG 0.01  C 
ATOM     50  CG1 VAL C1007       6.535 -37.689  11.226  1.00 30.72 LIG 0.01  C 
ATOM     51  CG2 VAL C1007       5.895 -37.137   8.862  1.00 30.85 LIG 0.01  C 
ENDBRANCH 48 49
BRANCH 48 52
ATOM     52  C   VAL C1007       4.360 -35.581  10.903  1.00 33.20 LIG 0.24  C 
ATOM     53 O    VAL C1007       5.494 -35.151  10.727  1.00 34.91 LIG-0.27  OA
ATOM     54  N   THR C1008       3.380 -34.760  11.289  1.00 34.53 LIG-0.34  N 
ATOM     55 H    THR C1008       3.518 -33.913  11.355  1.00 34.53 LIG 0.16  HD
BRANCH 54 56
ATOM     56  CA  THR C1008       2.006 -35.104  11.643  1.00 33.96 LIG 0.19  C 
BRANCH 56 57
ATOM     57  C   THR C1008       1.063 -34.304  10.746  1.00 33.93 LIG 0.22  C 
ATOM     58 O    THR C1008       1.470 -33.740   9.726  1.00 34.05 LIG-0.29  OA
ENDBRANCH 56 57
BRANCH 56 59
ATOM     59  CB  THR C1008       1.683 -34.747  13.143  1.00 34.51 LIG 0.14  C 
ATOM     60  CG2 THR C1008       1.765 -35.967  14.062  1.00 33.41 LIG 0.04  C 
BRANCH 59 61
ATOM     61 OG1  THR C1008       2.616 -33.783  13.618  1.00 32.91 LIG-0.39  OA
ATOM     62 HG1  THR C1008       3.360 -33.906  13.246  1.00 32.91 LIG 0.21  HD
ENDBRANCH 59 61
ENDBRANCH 56 59
ENDBRANCH 54 56
ENDBRANCH 48 52
ENDBRANCH 45 48
ENDBRANCH 36 44
ENDBRANCH 34 36
ENDBRANCH 1 32
TORSDOF 23
ENDMDL
MODEL 15
USER: ADFR SOLUTION from run 11
USER: SCORE 17.275841 LL:  -3.978 LR: -16.089 RR:   0.000 FEB:  -9.229
USER: RMSD 2.637728
USER: SEED 117277
USER: STATUS no improvement in best in 20 clusters for 5 generations
USER: GENES 25
USER: genes 0 Translation |==|  0.42652 0.59137 0.50894
USER: genes 1 Rotation |==|  0.66854 0.37396 0.63068 0.93431
USER: genes 2 Torsion [CB]-CA--N-[C] |==|  0.25000
USER: genes 3 Torsion [N]-C--CA-[N] |==|  0.09610
USER: genes 4 Torsion [C]-CA--N-[C] |==|  0.70210
USER: genes 5 Torsion [N]-C--CA-[N] |==|  0.16751
USER: genes 6 Torsion [C]-CA--CB-[CG] |==|  0.57052
USER: genes 7 Torsion [CA]-CB--CG-[CD] |==|  0.83494
USER: genes 8 Torsion [CB]-CG--CD-[NE] |==|  0.45659
USER: genes 9 Torsion [CG]-CD--NE-[HE] |==|  0.96387
USER: genes 10 Torsion [N]-CA--CB-[CG] |==|  0.99438
USER: genes 11 Torsion [CA]-CB--CG-[CD2] |==|  0.24887
USER: genes 12 Torsion [N]-CA--C-[N] |==|  0.24203
USER: genes 13 Torsion [C]-N--CA-[C] |==|  0.65387
USER: genes 14 Torsion [N]-CA--CB-[CG] |==|  0.74100
USER: genes 15 Torsion [CA]-CB--CG-[CD] |==|  0.24855
USER: genes 16 Torsion [CB]-CG--CD-[OE1] |==|  0.49882
USER: genes 17 Torsion [N]-CA--C-[N] |==|  0.19428
USER: genes 18 Torsion [C]-N--CA-[CB] |==|  0.49476
USER: genes 19 Torsion [N]-CA--CB-[CG1] |==|  0.08695
USER: genes 20 Torsion [N]-CA--C-[N] |==|  0.38782
USER: genes 21 Torsion [C]-N--CA-[C] |==|  0.57087
USER: genes 22 Torsion [N]-CA--C-[O] |==|  0.19770
USER: genes 23 Torsion [N]-CA--CB-[OG1] |==|  0.71688
USER: genes 24 Torsion [CA]-CB--OG1-[HG1] |==|  0.93353
ROOT
ATOM      1  CA  PHE C1005      -0.306 -33.634   7.110  1.00 26.32 LIG 0.18  C 
ENDROOT
BRANCH 1 2
ATOM      2  N   PHE C1005      -0.265 -33.355   5.682  1.00 26.54 LIG-0.35  N 
ATOM      3  C   ARG C1004      -0.218 -32.104   5.219  1.00 27.34 LIG 0.24  C 
ATOM      4 O    ARG C1004      -0.055 -31.124   5.944  1.00 26.08 LIG-0.27  OA
ATOM      5 H    PHE C1005      -0.273 -34.054   5.181  1.00 26.54 LIG 0.16  HD
BRANCH 3 6
ATOM      6  CA  ARG C1004      -0.368 -31.930   3.699  1.00 28.49 LIG 0.18  C 
BRANCH 6 7
ATOM      7  N   ARG C1004      -1.276 -32.901   3.093  1.00 30.45 LIG-0.35  N 
ATOM      8  C   GLY C1003      -0.792 -33.893   2.347  1.00 32.03 LIG 0.25  C 
ATOM      9 O    GLY C1003       0.416 -34.065   2.185  1.00 33.62 LIG-0.27  OA
ATOM     10 H    ARG C1004      -2.110 -32.773   3.258  1.00 30.45 LIG 0.16  HD
BRANCH 8 11
ATOM     11  CA  GLY C1003      -1.798 -34.827   1.707  1.00 33.10 LIG 0.47  C 
ATOM     12  N   GLY C1003      -2.722 -34.114   0.785  1.00 33.92 LIG 0.61  N 
ENDBRANCH 8 11
ENDBRANCH 6 7
BRANCH 6 13
ATOM     13  CB  ARG C1004      -0.775 -30.495   3.355  1.00 28.45 LIG 0.04  C 
BRANCH 13 14
ATOM     14  CG  ARG C1004      -1.514 -30.357   2.044  1.00 27.92 LIG 0.02  C 
BRANCH 14 15
ATOM     15  CD  ARG C1004      -0.671 -30.857   0.872  1.00 26.34 LIG 0.14  C 
BRANCH 15 16
ATOM     16  NE  ARG C1004      -1.494 -31.067  -0.310  1.00 24.25 LIG-0.23  N 
ATOM     17 HE   ARG C1004      -2.347 -31.067  -0.205  1.00 24.25 LIG 0.18  HD
ATOM     18  CZ  ARG C1004      -1.024 -31.259  -1.538  1.00 25.16 LIG 0.67  C 
ATOM     19  NH2 ARG C1004      -1.872 -31.426  -2.536  1.00 24.86 LIG-0.23  N 
ATOM     20  NH1 ARG C1004       0.280 -31.305  -1.768  1.00 22.12 LIG-0.23  N 
ATOM     21 1HH2 ARG C1004      -2.719 -31.409  -2.388  1.00 24.86 LIG 0.17  HD
ATOM     22 2HH2 ARG C1004      -1.577 -31.551  -3.334  1.00 24.86 LIG 0.17  HD
ATOM     23 1HH1 ARG C1004       0.835 -31.210  -1.118  1.00 22.12 LIG 0.17  HD
ATOM     24 2HH1 ARG C1004       0.571 -31.429  -2.567  1.00 22.12 LIG 0.17  HD
ENDBRANCH 15 16
ENDBRANCH 14 15
ENDBRANCH 13 14
ENDBRANCH 6 13
ENDBRANCH 3 6
ENDBRANCH 1 2
BRANCH 1 25
ATOM     25  CB  PHE C1005      -1.751 -33.694   7.590  1.00 25.48 LIG 0.07  C 
BRANCH 25 26
ATOM     26  CG  PHE C1005      -2.741 -33.407   6.506  1.00 23.55 LIG-0.06  A 
ATOM     27  CD1 PHE C1005      -3.193 -32.096   6.279  1.00 22.30 LIG 0.01  A 
ATOM     28  CE1 PHE C1005      -4.132 -31.828   5.271  1.00 23.64 LIG 0.00  A 
ATOM     29  CZ  PHE C1005      -4.642 -32.906   4.501  1.00 21.73 LIG 0.00  A 
ATOM     30  CE2 PHE C1005      -4.189 -34.201   4.720  1.00 19.92 LIG 0.00  A 
ATOM     31  CD2 PHE C1005      -3.236 -34.457   5.724  1.00 21.20 LIG 0.01  A 
ENDBRANCH 25 26
ENDBRANCH 1 25
BRANCH 1 32
ATOM     32  C   PHE C1005       0.385 -34.931   7.453  1.00 27.26 LIG 0.24  C 
ATOM     33 O    PHE C1005      -0.262 -35.971   7.508  1.00 28.13 LIG-0.27  OA
ATOM     34  N   GLN C1006       1.692 -34.838   7.670  1.00 28.15 LIG-0.35  N 
ATOM     35 H    GLN C1006       2.142 -34.122   7.513  1.00 28.15 LIG 0.16  HD
BRANCH 34 36
ATOM     36  CA  GLN C1006       2.508 -35.932   8.194  1.00 29.76 LIG 0.18  C 
BRANCH 36 37
ATOM     37  CB  GLN C1006       3.503 -36.419   7.144  1.00 29.94 LIG 0.04  C 
BRANCH 37 38
ATOM     38  CG  GLN C1006       3.023 -37.583   6.299  1.00 33.02 LIG 0.10  C 
BRANCH 38 39
ATOM     39  CD  GLN C1006       2.285 -37.134   5.050  1.00 35.46 LIG 0.21  C 
ATOM     40 OE1  GLN C1006       1.837 -37.958   4.253  1.00 38.48 LIG-0.27  OA
ATOM     41  NE2 GLN C1006       2.164 -35.819   4.871  1.00 37.01 LIG-0.37  N 
ATOM     42 22HE GLN C1006       1.760 -35.515   4.175  1.00 37.01 LIG 0.16  HD
ATOM     43 21HE GLN C1006       2.491 -35.275   5.451  1.00 37.01 LIG 0.16  HD
ENDBRANCH 38 39
ENDBRANCH 37 38
ENDBRANCH 36 37
BRANCH 36 44
ATOM     44  C   GLN C1006       3.247 -35.462   9.449  1.00 30.09 LIG 0.24  C 
ATOM     45  N   VAL C1007       2.478 -35.254  10.523  1.00 30.97 LIG-0.35  N 
ATOM     46 H    VAL C1007       1.620 -35.311  10.495  1.00 30.97 LIG 0.16  HD
ATOM     47 O    GLN C1006       4.472 -35.276   9.423  1.00 30.15 LIG-0.27  OA
BRANCH 45 48
ATOM     48  CA  VAL C1007       2.990 -34.908  11.858  1.00 32.05 LIG 0.18  C 
BRANCH 48 49
ATOM     49  CB  VAL C1007       1.817 -34.690  12.865  1.00 32.12 LIG 0.01  C 
ATOM     50  CG1 VAL C1007       0.607 -35.561  12.538  1.00 30.72 LIG 0.01  C 
ATOM     51  CG2 VAL C1007       1.417 -33.222  12.957  1.00 30.85 LIG 0.01  C 
ENDBRANCH 48 49
BRANCH 48 52
ATOM     52  C   VAL C1007       3.762 -36.189  12.280  1.00 33.20 LIG 0.24  C 
ATOM     53 O    VAL C1007       3.265 -37.280  12.024  1.00 34.91 LIG-0.27  OA
ATOM     54  N   THR C1008       4.933 -36.115  12.918  1.00 34.53 LIG-0.34  N 
ATOM     55 H    THR C1008       5.381 -36.828  13.096  1.00 34.53 LIG 0.16  HD
BRANCH 54 56
ATOM     56  CA  THR C1008       5.625 -34.921  13.393  1.00 33.96 LIG 0.19  C 
BRANCH 56 57
ATOM     57  C   THR C1008       7.120 -35.225  13.461  1.00 33.93 LIG 0.22  C 
ATOM     58 O    THR C1008       7.797 -35.355  12.437  1.00 34.05 LIG-0.29  OA
ENDBRANCH 56 57
BRANCH 56 59
ATOM     59  CB  THR C1008       5.140 -34.499  14.831  1.00 34.51 LIG 0.14  C 
ATOM     60  CG2 THR C1008       6.297 -34.065  15.732  1.00 33.41 LIG 0.04  C 
BRANCH 59 61
ATOM     61 OG1  THR C1008       4.235 -33.404  14.730  1.00 32.91 LIG-0.39  OA
ATOM     62 HG1  THR C1008       4.375 -32.990  14.012  1.00 32.91 LIG 0.21  HD
ENDBRANCH 59 61
ENDBRANCH 56 59
ENDBRANCH 54 56
ENDBRANCH 48 52
ENDBRANCH 45 48
ENDBRANCH 36 44
ENDBRANCH 34 36
ENDBRANCH 1 32
TORSDOF 23
ENDMDL
MODEL 16
USER: ADFR SOLUTION from run 177
USER: SCORE 18.315937 LL:  -4.582 LR: -16.003 RR:   0.000 FEB:  -9.143
USER: RMSD 7.889660
USER: SEED 176
USER: STATUS no improvement in best in 7 clusters for 5 generations
USER: GENES 25
USER: genes 0 Translation |==|  0.39689 0.73009 0.33341
USER: genes 1 Rotation |==|  0.47741 0.43197 0.62132 0.97973
USER: genes 2 Torsion [CB]-CA--N-[C] |==|  0.48404
USER: genes 3 Torsion [N]-C--CA-[N] |==|  0.45193
USER: genes 4 Torsion [C]-CA--N-[C] |==|  0.55773
USER: genes 5 Torsion [N]-C--CA-[N] |==|  0.81113
USER: genes 6 Torsion [C]-CA--CB-[CG] |==|  0.22597
USER: genes 7 Torsion [CA]-CB--CG-[CD] |==|  0.21638
USER: genes 8 Torsion [CB]-CG--CD-[NE] |==|  0.73331
USER: genes 9 Torsion [CG]-CD--NE-[HE] |==|  0.84996
USER: genes 10 Torsion [N]-CA--CB-[CG] |==|  0.28680
USER: genes 11 Torsion [CA]-CB--CG-[CD2] |==|  0.77448
USER: genes 12 Torsion [N]-CA--C-[N] |==|  0.96368
USER: genes 13 Torsion [C]-N--CA-[C] |==|  0.63149
USER: genes 14 Torsion [N]-CA--CB-[CG] |==|  0.64252
USER: genes 15 Torsion [CA]-CB--CG-[CD] |==|  0.07940
USER: genes 16 Torsion [CB]-CG--CD-[OE1] |==|  0.21502
USER: genes 17 Torsion [N]-CA--C-[N] |==|  0.36217
USER: genes 18 Torsion [C]-N--CA-[CB] |==|  0.89444
USER: genes 19 Torsion [N]-CA--CB-[CG1] |==|  0.73397
USER: genes 20 Torsion [N]-CA--C-[N] |==|  0.36649
USER: genes 21 Torsion [C]-N--CA-[C] |==|  0.81661
USER: genes 22 Torsion [N]-CA--C-[O] |==|  0.76851
USER: genes 23 Torsion [N]-CA--CB-[OG1] |==|  0.14087
USER: genes 24 Torsion [CA]-CB--OG1-[HG1] |==|  0.48299
ROOT
ATOM      1  CA  PHE C1005      -0.884 -31.137   2.239  1.00 26.32 LIG 0.18  C 
ENDROOT
BRANCH 1 2
ATOM      2  N   PHE C1005      -0.986 -31.963   1.045  1.00 26.54 LIG-0.35  N 
ATOM      3  C   ARG C1004       0.094 -32.498   0.474  1.00 27.34 LIG 0.24  C 
ATOM      4 O    ARG C1004       1.213 -32.464   0.986  1.00 26.08 LIG-0.27  OA
ATOM      5 H    PHE C1005      -1.788 -32.069   0.752  1.00 26.54 LIG 0.16  HD
BRANCH 3 6
ATOM      6  CA  ARG C1004      -0.118 -33.190  -0.882  1.00 28.49 LIG 0.18  C 
BRANCH 6 7
ATOM      7  N   ARG C1004       1.121 -33.393  -1.628  1.00 30.45 LIG-0.35  N 
ATOM      8  C   GLY C1003       1.083 -33.584  -2.947  1.00 32.03 LIG 0.25  C 
ATOM      9 O    GLY C1003       0.032 -33.546  -3.587  1.00 33.62 LIG-0.27  OA
ATOM     10 H    ARG C1004       1.839 -33.376  -1.156  1.00 30.45 LIG 0.16  HD
BRANCH 8 11
ATOM     11  CA  GLY C1003       2.402 -33.842  -3.643  1.00 33.10 LIG 0.47  C 
ATOM     12  N   GLY C1003       3.287 -32.647  -3.638  1.00 33.92 LIG 0.61  N 
ENDBRANCH 8 11
ENDBRANCH 6 7
BRANCH 6 13
ATOM     13  CB  ARG C1004      -0.884 -34.505  -0.705  1.00 28.45 LIG 0.04  C 
BRANCH 13 14
ATOM     14  CG  ARG C1004      -2.381 -34.340  -0.583  1.00 27.92 LIG 0.02  C 
BRANCH 14 15
ATOM     15  CD  ARG C1004      -3.029 -34.097  -1.946  1.00 26.34 LIG 0.14  C 
BRANCH 15 16
ATOM     16  NE  ARG C1004      -3.217 -32.674  -2.186  1.00 24.25 LIG-0.23  N 
ATOM     17 HE   ARG C1004      -3.646 -32.223  -1.592  1.00 24.25 LIG 0.18  HD
ATOM     18  CZ  ARG C1004      -2.776 -32.018  -3.255  1.00 25.16 LIG 0.67  C 
ATOM     19  NH2 ARG C1004      -2.998 -30.721  -3.356  1.00 24.86 LIG-0.23  N 
ATOM     20  NH1 ARG C1004      -2.137 -32.654  -4.226  1.00 22.12 LIG-0.23  N 
ATOM     21 1HH2 ARG C1004      -3.424 -30.308  -2.733  1.00 24.86 LIG 0.17  HD
ATOM     22 2HH2 ARG C1004      -2.717 -30.289  -4.044  1.00 24.86 LIG 0.17  HD
ATOM     23 1HH1 ARG C1004      -2.003 -33.502  -4.170  1.00 22.12 LIG 0.17  HD
ATOM     24 2HH1 ARG C1004      -1.857 -32.219  -4.913  1.00 22.12 LIG 0.17  HD
ENDBRANCH 15 16
ENDBRANCH 14 15
ENDBRANCH 13 14
ENDBRANCH 6 13
ENDBRANCH 3 6
ENDBRANCH 1 2
BRANCH 1 25
ATOM     25  CB  PHE C1005      -2.245 -30.548   2.587  1.00 25.48 LIG 0.07  C 
BRANCH 25 26
ATOM     26  CG  PHE C1005      -2.910 -31.244   3.732  1.00 23.55 LIG-0.06  A 
ATOM     27  CD1 PHE C1005      -2.833 -30.715   5.031  1.00 22.30 LIG 0.01  A 
ATOM     28  CE1 PHE C1005      -3.445 -31.375   6.110  1.00 23.64 LIG 0.00  A 
ATOM     29  CZ  PHE C1005      -4.119 -32.601   5.872  1.00 21.73 LIG 0.00  A 
ATOM     30  CE2 PHE C1005      -4.202 -33.120   4.586  1.00 19.92 LIG 0.00  A 
ATOM     31  CD2 PHE C1005      -3.598 -32.443   3.509  1.00 21.20 LIG 0.01  A 
ENDBRANCH 25 26
ENDBRANCH 1 25
BRANCH 1 32
ATOM     32  C   PHE C1005      -0.363 -31.916   3.422  1.00 27.26 LIG 0.24  C 
ATOM     33 O    PHE C1005       0.001 -31.322   4.431  1.00 28.13 LIG-0.27  OA
ATOM     34  N   GLN C1006      -0.347 -33.236   3.272  1.00 28.15 LIG-0.35  N 
ATOM     35 H    GLN C1006      -0.714 -33.634   2.603  1.00 28.15 LIG 0.16  HD
BRANCH 34 36
ATOM     36  CA  GLN C1006       0.288 -34.153   4.216  1.00 29.76 LIG 0.18  C 
BRANCH 36 37
ATOM     37  CB  GLN C1006      -0.760 -34.882   5.053  1.00 29.94 LIG 0.04  C 
BRANCH 37 38
ATOM     38  CG  GLN C1006      -0.534 -34.825   6.552  1.00 33.02 LIG 0.10  C 
BRANCH 38 39
ATOM     39  CD  GLN C1006       0.206 -33.572   6.985  1.00 35.46 LIG 0.21  C 
ATOM     40 OE1  GLN C1006      -0.378 -32.491   7.062  1.00 38.48 LIG-0.27  OA
ATOM     41  NE2 GLN C1006       1.502 -33.712   7.260  1.00 37.01 LIG-0.37  N 
ATOM     42 22HE GLN C1006       1.966 -33.030   7.503  1.00 37.01 LIG 0.16  HD
ATOM     43 21HE GLN C1006       1.874 -34.484   7.195  1.00 37.01 LIG 0.16  HD
ENDBRANCH 38 39
ENDBRANCH 37 38
ENDBRANCH 36 37
BRANCH 36 44
ATOM     44  C   GLN C1006       1.150 -35.159   3.449  1.00 30.09 LIG 0.24  C 
ATOM     45  N   VAL C1007       2.399 -35.306   3.904  1.00 30.97 LIG-0.35  N 
ATOM     46 H    VAL C1007       2.721 -34.821   4.537  1.00 30.97 LIG 0.16  HD
ATOM     47 O    GLN C1006       0.691 -35.757   2.467  1.00 30.15 LIG-0.27  OA
BRANCH 45 48
ATOM     48  CA  VAL C1007       3.359 -36.295   3.390  1.00 32.05 LIG 0.18  C 
BRANCH 48 49
ATOM     49  CB  VAL C1007       2.645 -37.642   3.051  1.00 32.12 LIG 0.01  C 
ATOM     50  CG1 VAL C1007       2.741 -38.649   4.196  1.00 30.72 LIG 0.01  C 
ATOM     51  CG2 VAL C1007       3.168 -38.248   1.754  1.00 30.85 LIG 0.01  C 
ENDBRANCH 48 49
BRANCH 48 52
ATOM     52  C   VAL C1007       3.844 -35.654   2.059  1.00 33.20 LIG 0.24  C 
ATOM     53 O    VAL C1007       3.002 -35.228   1.277  1.00 34.91 LIG-0.27  OA
ATOM     54  N   THR C1008       5.144 -35.575   1.760  1.00 34.53 LIG-0.34  N 
ATOM     55 H    THR C1008       5.405 -35.168   1.049  1.00 34.53 LIG 0.16  HD
BRANCH 54 56
ATOM     56  CA  THR C1008       6.274 -36.113   2.511  1.00 33.96 LIG 0.19  C 
BRANCH 56 57
ATOM     57  C   THR C1008       6.363 -35.372   3.844  1.00 33.93 LIG 0.22  C 
ATOM     58 O    THR C1008       6.933 -34.281   3.936  1.00 34.05 LIG-0.29  OA
ENDBRANCH 56 57
BRANCH 56 59
ATOM     59  CB  THR C1008       7.633 -35.915   1.742  1.00 34.51 LIG 0.14  C 
ATOM     60  CG2 THR C1008       7.725 -36.784   0.487  1.00 33.41 LIG 0.04  C 
BRANCH 59 61
ATOM     61 OG1  THR C1008       7.761 -34.556   1.337  1.00 32.91 LIG-0.39  OA
ATOM     62 HG1  THR C1008       8.522 -34.433   1.002  1.00 32.91 LIG 0.21  HD
ENDBRANCH 59 61
ENDBRANCH 56 59
ENDBRANCH 54 56
ENDBRANCH 48 52
ENDBRANCH 45 48
ENDBRANCH 36 44
ENDBRANCH 34 36
ENDBRANCH 1 32
TORSDOF 23
ENDMDL
MODEL 17
USER: ADFR SOLUTION from run 197
USER: SCORE 18.574609 LL:  -4.035 LR: -15.946 RR:   0.000 FEB:  -9.085
USER: RMSD 3.193135
USER: SEED 196
USER: STATUS searching
USER: GENES 25
USER: genes 0 Translation |==|  0.46581 0.62091 0.47095
USER: genes 1 Rotation |==|  0.53216 0.37529 0.46372 0.98177
USER: genes 2 Torsion [CB]-CA--N-[C] |==|  0.54468
USER: genes 3 Torsion [N]-C--CA-[N] |==|  0.46984
USER: genes 4 Torsion [C]-CA--N-[C] |==|  0.61806
USER: genes 5 Torsion [N]-C--CA-[N] |==|  0.60353
USER: genes 6 Torsion [C]-CA--CB-[CG] |==|  0.23756
USER: genes 7 Torsion [CA]-CB--CG-[CD] |==|  0.16933
USER: genes 8 Torsion [CB]-CG--CD-[NE] |==|  0.33509
USER: genes 9 Torsion [CG]-CD--NE-[HE] |==|  0.05683
USER: genes 10 Torsion [N]-CA--CB-[CG] |==|  0.97136
USER: genes 11 Torsion [CA]-CB--CG-[CD2] |==|  0.77886
USER: genes 12 Torsion [N]-CA--C-[N] |==|  0.28316
USER: genes 13 Torsion [C]-N--CA-[C] |==|  0.74223
USER: genes 14 Torsion [N]-CA--CB-[CG] |==|  0.10167
USER: genes 15 Torsion [CA]-CB--CG-[CD] |==|  0.22464
USER: genes 16 Torsion [CB]-CG--CD-[OE1] |==|  0.77450
USER: genes 17 Torsion [N]-CA--C-[N] |==|  0.47639
USER: genes 18 Torsion [C]-N--CA-[CB] |==|  0.51111
USER: genes 19 Torsion [N]-CA--CB-[CG1] |==|  0.10440
USER: genes 20 Torsion [N]-CA--C-[N] |==|  0.41792
USER: genes 21 Torsion [C]-N--CA-[C] |==|  0.77331
USER: genes 22 Torsion [N]-CA--C-[O] |==|  0.09429
USER: genes 23 Torsion [N]-CA--CB-[OG1] |==|  0.07015
USER: genes 24 Torsion [CA]-CB--OG1-[HG1] |==|  0.03927
ROOT
ATOM      1  CA  PHE C1005       0.460 -33.103   6.056  1.00 26.32 LIG 0.18  C 
ENDROOT
BRANCH 1 2
ATOM      2  N   PHE C1005       0.299 -33.358   4.632  1.00 26.54 LIG-0.35  N 
ATOM      3  C   ARG C1004       0.743 -34.485   4.073  1.00 27.34 LIG 0.24  C 
ATOM      4 O    ARG C1004       1.174 -35.436   4.724  1.00 26.08 LIG-0.27  OA
ATOM      5 H    PHE C1005      -0.100 -32.730   4.200  1.00 26.54 LIG 0.16  HD
BRANCH 3 6
ATOM      6  CA  ARG C1004       0.684 -34.558   2.539  1.00 28.49 LIG 0.18  C 
BRANCH 6 7
ATOM      7  N   ARG C1004       1.409 -35.699   1.986  1.00 30.45 LIG-0.35  N 
ATOM      8  C   GLY C1003       2.170 -35.546   0.902  1.00 32.03 LIG 0.25  C 
ATOM      9 O    GLY C1003       2.335 -34.452   0.364  1.00 33.62 LIG-0.27  OA
ATOM     10 H    ARG C1004       1.301 -36.440   2.408  1.00 30.45 LIG 0.16  HD
BRANCH 8 11
ATOM     11  CA  GLY C1003       2.846 -36.785   0.355  1.00 33.10 LIG 0.47  C 
ATOM     12  N   GLY C1003       4.212 -36.502  -0.162  1.00 33.92 LIG 0.61  N 
ENDBRANCH 8 11
ENDBRANCH 6 7
BRANCH 6 13
ATOM     13  CB  ARG C1004      -0.767 -34.530   2.050  1.00 28.45 LIG 0.04  C 
BRANCH 13 14
ATOM     14  CG  ARG C1004      -1.341 -33.142   1.887  1.00 27.92 LIG 0.02  C 
BRANCH 14 15
ATOM     15  CD  ARG C1004      -0.556 -32.331   0.856  1.00 26.34 LIG 0.14  C 
BRANCH 15 16
ATOM     16  NE  ARG C1004      -1.417 -31.906  -0.238  1.00 24.25 LIG-0.23  N 
ATOM     17 HE   ARG C1004      -2.265 -31.892  -0.095  1.00 24.25 LIG 0.18  HD
ATOM     18  CZ  ARG C1004      -0.990 -31.539  -1.442  1.00 25.16 LIG 0.67  C 
ATOM     19  NH2 ARG C1004      -1.868 -31.160  -2.352  1.00 24.86 LIG-0.23  N 
ATOM     20  NH1 ARG C1004       0.299 -31.568  -1.744  1.00 22.12 LIG-0.23  N 
ATOM     21 1HH2 ARG C1004      -2.707 -31.152  -2.162  1.00 24.86 LIG 0.17  HD
ATOM     22 2HH2 ARG C1004      -1.602 -30.921  -3.133  1.00 24.86 LIG 0.17  HD
ATOM     23 1HH1 ARG C1004       0.873 -31.828  -1.158  1.00 22.12 LIG 0.17  HD
ATOM     24 2HH1 ARG C1004       0.563 -31.328  -2.527  1.00 22.12 LIG 0.17  HD
ENDBRANCH 15 16
ENDBRANCH 14 15
ENDBRANCH 13 14
ENDBRANCH 6 13
ENDBRANCH 3 6
ENDBRANCH 1 2
BRANCH 1 25
ATOM     25  CB  PHE C1005      -0.461 -31.970   6.493  1.00 25.48 LIG 0.07  C 
BRANCH 25 26
ATOM     26  CG  PHE C1005      -1.098 -31.256   5.342  1.00 23.55 LIG-0.06  A 
ATOM     27  CD1 PHE C1005      -2.415 -31.556   4.956  1.00 22.30 LIG 0.01  A 
ATOM     28  CE1 PHE C1005      -3.009 -30.897   3.868  1.00 23.64 LIG 0.00  A 
ATOM     29  CZ  PHE C1005      -2.249 -29.941   3.145  1.00 21.73 LIG 0.00  A 
ATOM     30  CE2 PHE C1005      -0.949 -29.639   3.532  1.00 19.92 LIG 0.00  A 
ATOM     31  CD2 PHE C1005      -0.368 -30.295   4.634  1.00 21.20 LIG 0.01  A 
ENDBRANCH 25 26
ENDBRANCH 1 25
BRANCH 1 32
ATOM     32  C   PHE C1005       0.170 -34.327   6.887  1.00 27.26 LIG 0.24  C 
ATOM     33 O    PHE C1005      -0.991 -34.661   7.099  1.00 28.13 LIG-0.27  OA
ATOM     34  N   GLN C1006       1.239 -34.977   7.336  1.00 28.15 LIG-0.35  N 
ATOM     35 H    GLN C1006       2.039 -34.792   7.079  1.00 28.15 LIG 0.16  HD
BRANCH 34 36
ATOM     36  CA  GLN C1006       1.178 -36.069   8.306  1.00 29.76 LIG 0.18  C 
BRANCH 36 37
ATOM     37  CB  GLN C1006       2.252 -37.113   8.015  1.00 29.94 LIG 0.04  C 
BRANCH 37 38
ATOM     38  CG  GLN C1006       3.570 -36.552   7.516  1.00 33.02 LIG 0.10  C 
BRANCH 38 39
ATOM     39  CD  GLN C1006       4.447 -36.029   8.640  1.00 35.46 LIG 0.21  C 
ATOM     40 OE1  GLN C1006       4.258 -34.910   9.117  1.00 38.48 LIG-0.27  OA
ATOM     41  NE2 GLN C1006       5.419 -36.837   9.062  1.00 37.01 LIG-0.37  N 
ATOM     42 22HE GLN C1006       5.946 -36.583   9.692  1.00 37.01 LIG 0.16  HD
ATOM     43 21HE GLN C1006       5.519 -37.612   8.704  1.00 37.01 LIG 0.16  HD
ENDBRANCH 38 39
ENDBRANCH 37 38
ENDBRANCH 36 37
BRANCH 36 44
ATOM     44  C   GLN C1006       1.351 -35.507   9.719  1.00 30.09 LIG 0.24  C 
ATOM     45  N   VAL C1007       1.138 -36.378  10.711  1.00 30.97 LIG-0.35  N 
ATOM     46 H    VAL C1007       0.855 -37.178  10.571  1.00 30.97 LIG 0.16  HD
ATOM     47 O    GLN C1006       1.646 -34.316   9.889  1.00 30.15 LIG-0.27  OA
BRANCH 45 48
ATOM     48  CA  VAL C1007       1.357 -36.084  12.136  1.00 32.05 LIG 0.18  C 
BRANCH 48 49
ATOM     49  CB  VAL C1007       1.107 -37.352  13.012  1.00 32.12 LIG 0.01  C 
ATOM     50  CG1 VAL C1007       1.598 -38.628  12.331  1.00 30.72 LIG 0.01  C 
ATOM     51  CG2 VAL C1007      -0.358 -37.483  13.412  1.00 30.85 LIG 0.01  C 
ENDBRANCH 48 49
BRANCH 48 52
ATOM     52  C   VAL C1007       2.872 -35.742  12.196  1.00 33.20 LIG 0.24  C 
ATOM     53 O    VAL C1007       3.622 -36.279  11.389  1.00 34.91 LIG-0.27  OA
ATOM     54  N   THR C1008       3.357 -34.894  13.107  1.00 34.53 LIG-0.34  N 
ATOM     55 H    THR C1008       4.186 -34.667  13.096  1.00 34.53 LIG 0.16  HD
BRANCH 54 56
ATOM     56  CA  THR C1008       2.641 -34.244  14.201  1.00 33.96 LIG 0.19  C 
BRANCH 56 57
ATOM     57  C   THR C1008       1.914 -33.022  13.641  1.00 33.93 LIG 0.22  C 
ATOM     58 O    THR C1008       1.449 -33.019  12.498  1.00 34.05 LIG-0.29  OA
ENDBRANCH 56 57
BRANCH 56 59
ATOM     59  CB  THR C1008       3.622 -33.760  15.334  1.00 34.51 LIG 0.14  C 
ATOM     60  CG2 THR C1008       3.761 -34.786  16.460  1.00 33.41 LIG 0.04  C 
BRANCH 59 61
ATOM     61 OG1  THR C1008       4.918 -33.542  14.785  1.00 32.91 LIG-0.39  OA
ATOM     62 HG1  THR C1008       4.868 -33.523  13.947  1.00 32.91 LIG 0.21  HD
ENDBRANCH 59 61
ENDBRANCH 56 59
ENDBRANCH 54 56
ENDBRANCH 48 52
ENDBRANCH 45 48
ENDBRANCH 36 44
ENDBRANCH 34 36
ENDBRANCH 1 32
TORSDOF 23
ENDMDL
MODEL 18
USER: ADFR SOLUTION from run 85
USER: SCORE 18.569408 LL:  -4.372 LR: -15.921 RR:   0.000 FEB:  -9.061
USER: RMSD 3.743711
USER: SEED 84
USER: STATUS no improvement in best in 6 clusters for 5 generations
USER: GENES 25
USER: genes 0 Translation |==|  0.46752 0.57269 0.42334
USER: genes 1 Rotation |==|  0.59938 0.52473 0.47480 0.98875
USER: genes 2 Torsion [CB]-CA--N-[C] |==|  0.52896
USER: genes 3 Torsion [N]-C--CA-[N] |==|  0.93003
USER: genes 4 Torsion [C]-CA--N-[C] |==|  0.83302
USER: genes 5 Torsion [N]-C--CA-[N] |==|  0.20515
USER: genes 6 Torsion [C]-CA--CB-[CG] |==|  0.87328
USER: genes 7 Torsion [CA]-CB--CG-[CD] |==|  0.72714
USER: genes 8 Torsion [CB]-CG--CD-[NE] |==|  0.93612
USER: genes 9 Torsion [CG]-CD--NE-[HE] |==|  0.32004
USER: genes 10 Torsion [N]-CA--CB-[CG] |==|  0.93582
USER: genes 11 Torsion [CA]-CB--CG-[CD2] |==|  0.33818
USER: genes 12 Torsion [N]-CA--C-[N] |==|  0.32045
USER: genes 13 Torsion [C]-N--CA-[C] |==|  0.84379
USER: genes 14 Torsion [N]-CA--CB-[CG] |==|  0.96278
USER: genes 15 Torsion [CA]-CB--CG-[CD] |==|  0.83315
USER: genes 16 Torsion [CB]-CG--CD-[OE1] |==|  0.36954
USER: genes 17 Torsion [N]-CA--C-[N] |==|  0.89608
USER: genes 18 Torsion [C]-N--CA-[CB] |==|  0.26812
USER: genes 19 Torsion [N]-CA--CB-[CG1] |==|  0.25509
USER: genes 20 Torsion [N]-CA--C-[N] |==|  0.44304
USER: genes 21 Torsion [C]-N--CA-[C] |==|  0.63959
USER: genes 22 Torsion [N]-CA--C-[O] |==|  0.09073
USER: genes 23 Torsion [N]-CA--CB-[OG1] |==|  0.02630
USER: genes 24 Torsion [CA]-CB--OG1-[HG1] |==|  0.75760
ROOT
ATOM      1  CA  PHE C1005       0.494 -33.971   4.735  1.00 26.32 LIG 0.18  C 
ENDROOT
BRANCH 1 2
ATOM      2  N   PHE C1005      -0.411 -33.918   3.596  1.00 26.54 LIG-0.35  N 
ATOM      3  C   ARG C1004      -0.217 -34.679   2.517  1.00 27.34 LIG 0.24  C 
ATOM      4 O    ARG C1004       0.631 -35.570   2.466  1.00 26.08 LIG-0.27  OA
ATOM      5 H    PHE C1005      -1.065 -33.365   3.684  1.00 26.54 LIG 0.16  HD
BRANCH 3 6
ATOM      6  CA  ARG C1004      -1.125 -34.401   1.309  1.00 28.49 LIG 0.18  C 
BRANCH 6 7
ATOM      7  N   ARG C1004      -2.401 -33.791   1.674  1.00 30.45 LIG-0.35  N 
ATOM      8  C   GLY C1003      -3.238 -34.431   2.491  1.00 32.03 LIG 0.25  C 
ATOM      9 O    GLY C1003      -2.956 -35.513   3.006  1.00 33.62 LIG-0.27  OA
ATOM     10 H    ARG C1004      -2.550 -33.019   1.327  1.00 30.45 LIG 0.16  HD
BRANCH 8 11
ATOM     11  CA  GLY C1003      -4.565 -33.762   2.779  1.00 33.10 LIG 0.47  C 
ATOM     12  N   GLY C1003      -5.500 -33.839   1.625  1.00 33.92 LIG 0.61  N 
ENDBRANCH 8 11
ENDBRANCH 6 7
BRANCH 6 13
ATOM     13  CB  ARG C1004      -0.389 -33.565   0.258  1.00 28.45 LIG 0.04  C 
BRANCH 13 14
ATOM     14  CG  ARG C1004       0.374 -32.389   0.823  1.00 27.92 LIG 0.02  C 
BRANCH 14 15
ATOM     15  CD  ARG C1004      -0.423 -31.091   0.692  1.00 26.34 LIG 0.14  C 
BRANCH 15 16
ATOM     16  NE  ARG C1004      -1.410 -31.191  -0.374  1.00 24.25 LIG-0.23  N 
ATOM     17 HE   ARG C1004      -2.240 -31.154  -0.152  1.00 24.25 LIG 0.18  HD
ATOM     18  CZ  ARG C1004      -1.124 -31.337  -1.663  1.00 25.16 LIG 0.67  C 
ATOM     19  NH2 ARG C1004      -2.107 -31.403  -2.541  1.00 24.86 LIG-0.23  N 
ATOM     20  NH1 ARG C1004       0.132 -31.436  -2.073  1.00 22.12 LIG-0.23  N 
ATOM     21 1HH2 ARG C1004      -2.924 -31.352  -2.276  1.00 24.86 LIG 0.17  HD
ATOM     22 2HH2 ARG C1004      -1.931 -31.497  -3.377  1.00 24.86 LIG 0.17  HD
ATOM     23 1HH1 ARG C1004       0.775 -31.407  -1.503  1.00 22.12 LIG 0.17  HD
ATOM     24 2HH1 ARG C1004       0.305 -31.530  -2.910  1.00 22.12 LIG 0.17  HD
ENDBRANCH 15 16
ENDBRANCH 14 15
ENDBRANCH 13 14
ENDBRANCH 6 13
ENDBRANCH 3 6
ENDBRANCH 1 2
BRANCH 1 25
ATOM     25  CB  PHE C1005      -0.101 -33.205   5.911  1.00 25.48 LIG 0.07  C 
BRANCH 25 26
ATOM     26  CG  PHE C1005      -1.106 -32.179   5.495  1.00 23.55 LIG-0.06  A 
ATOM     27  CD1 PHE C1005      -0.744 -31.137   4.623  1.00 22.30 LIG 0.01  A 
ATOM     28  CE1 PHE C1005      -1.683 -30.165   4.242  1.00 23.64 LIG 0.00  A 
ATOM     29  CZ  PHE C1005      -2.997 -30.233   4.773  1.00 21.73 LIG 0.00  A 
ATOM     30  CE2 PHE C1005      -3.357 -31.268   5.628  1.00 19.92 LIG 0.00  A 
ATOM     31  CD2 PHE C1005      -2.412 -32.246   5.993  1.00 21.20 LIG 0.01  A 
ENDBRANCH 25 26
ENDBRANCH 1 25
BRANCH 1 32
ATOM     32  C   PHE C1005       0.785 -35.388   5.161  1.00 27.26 LIG 0.24  C 
ATOM     33 O    PHE C1005      -0.119 -36.094   5.594  1.00 28.13 LIG-0.27  OA
ATOM     34  N   GLN C1006       2.049 -35.775   5.022  1.00 28.15 LIG-0.35  N 
ATOM     35 H    GLN C1006       2.639 -35.303   4.610  1.00 28.15 LIG 0.16  HD
BRANCH 34 36
ATOM     36  CA  GLN C1006       2.575 -37.034   5.546  1.00 29.76 LIG 0.18  C 
BRANCH 36 37
ATOM     37  CB  GLN C1006       4.069 -37.159   5.259  1.00 29.94 LIG 0.04  C 
BRANCH 37 38
ATOM     38  CG  GLN C1006       4.612 -36.162   4.252  1.00 33.02 LIG 0.10  C 
BRANCH 38 39
ATOM     39  CD  GLN C1006       3.945 -36.281   2.893  1.00 35.46 LIG 0.21  C 
ATOM     40 OE1  GLN C1006       3.545 -35.280   2.299  1.00 38.48 LIG-0.27  OA
ATOM     41  NE2 GLN C1006       3.814 -37.512   2.401  1.00 37.01 LIG-0.37  N 
ATOM     42 22HE GLN C1006       3.437 -37.632   1.637  1.00 37.01 LIG 0.16  HD
ATOM     43 21HE GLN C1006       4.107 -38.187   2.847  1.00 37.01 LIG 0.16  HD
ENDBRANCH 38 39
ENDBRANCH 37 38
ENDBRANCH 36 37
BRANCH 36 44
ATOM     44  C   GLN C1006       2.316 -37.108   7.053  1.00 30.09 LIG 0.24  C 
ATOM     45  N   VAL C1007       2.442 -35.952   7.712  1.00 30.97 LIG-0.35  N 
ATOM     46 H    VAL C1007       2.717 -35.230   7.333  1.00 30.97 LIG 0.16  HD
ATOM     47 O    GLN C1006       2.034 -38.188   7.589  1.00 30.15 LIG-0.27  OA
BRANCH 45 48
ATOM     48  CA  VAL C1007       2.132 -35.771   9.140  1.00 32.05 LIG 0.18  C 
BRANCH 48 49
ATOM     49  CB  VAL C1007       3.424 -35.885  10.009  1.00 32.12 LIG 0.01  C 
ATOM     50  CG1 VAL C1007       4.087 -34.529  10.237  1.00 30.72 LIG 0.01  C 
ATOM     51  CG2 VAL C1007       4.416 -36.880   9.418  1.00 30.85 LIG 0.01  C 
ENDBRANCH 48 49
BRANCH 48 52
ATOM     52  C   VAL C1007       1.630 -34.301   9.206  1.00 33.20 LIG 0.24  C 
ATOM     53 O    VAL C1007       1.947 -33.536   8.302  1.00 34.91 LIG-0.27  OA
ATOM     54  N   THR C1008       0.880 -33.869  10.223  1.00 34.53 LIG-0.34  N 
ATOM     55 H    THR C1008       0.559 -33.071  10.223  1.00 34.53 LIG 0.16  HD
BRANCH 54 56
ATOM     56  CA  THR C1008       0.492 -34.598  11.427  1.00 33.96 LIG 0.19  C 
BRANCH 56 57
ATOM     57  C   THR C1008      -1.020 -34.463  11.605  1.00 33.93 LIG 0.22  C 
ATOM     58 O    THR C1008      -1.776 -34.384  10.633  1.00 34.05 LIG-0.29  OA
ENDBRANCH 56 57
BRANCH 56 59
ATOM     59  CB  THR C1008       1.195 -34.019  12.712  1.00 34.51 LIG 0.14  C 
ATOM     60  CG2 THR C1008       2.241 -34.977  13.284  1.00 33.41 LIG 0.04  C 
BRANCH 59 61
ATOM     61 OG1  THR C1008       1.854 -32.799  12.390  1.00 32.91 LIG-0.39  OA
ATOM     62 HG1  THR C1008       2.630 -32.965  12.112  1.00 32.91 LIG 0.21  HD
ENDBRANCH 59 61
ENDBRANCH 56 59
ENDBRANCH 54 56
ENDBRANCH 48 52
ENDBRANCH 45 48
ENDBRANCH 36 44
ENDBRANCH 34 36
ENDBRANCH 1 32
TORSDOF 23
ENDMDL
MODEL 19
USER: ADFR SOLUTION from run 73
USER: SCORE 18.280179 LL:  -4.431 LR: -15.899 RR:   0.000 FEB:  -9.038
USER: RMSD 5.727280
USER: SEED 72
USER: STATUS searching
USER: GENES 25
USER: genes 0 Translation |==|  0.51406 0.53608 0.39085
USER: genes 1 Rotation |==|  0.69714 0.48308 0.59811 0.94858
USER: genes 2 Torsion [CB]-CA--N-[C] |==|  0.52951
USER: genes 3 Torsion [N]-C--CA-[N] |==|  0.18504
USER: genes 4 Torsion [C]-CA--N-[C] |==|  0.77482
USER: genes 5 Torsion [N]-C--CA-[N] |==|  0.53331
USER: genes 6 Torsion [C]-CA--CB-[CG] |==|  0.55224
USER: genes 7 Torsion [CA]-CB--CG-[CD] |==|  0.80623
USER: genes 8 Torsion [CB]-CG--CD-[NE] |==|  0.37632
USER: genes 9 Torsion [CG]-CD--NE-[HE] |==|  0.19153
USER: genes 10 Torsion [N]-CA--CB-[CG] |==|  0.82449
USER: genes 11 Torsion [CA]-CB--CG-[CD2] |==|  0.30836
USER: genes 12 Torsion [N]-CA--C-[N] |==|  0.33818
USER: genes 13 Torsion [C]-N--CA-[C] |==|  0.75690
USER: genes 14 Torsion [N]-CA--CB-[CG] |==|  0.88170
USER: genes 15 Torsion [CA]-CB--CG-[CD] |==|  0.41743
USER: genes 16 Torsion [CB]-CG--CD-[OE1] |==|  0.86901
USER: genes 17 Torsion [N]-CA--C-[N] |==|  0.95556
USER: genes 18 Torsion [C]-N--CA-[CB] |==|  0.24414
USER: genes 19 Torsion [N]-CA--CB-[CG1] |==|  0.78506
USER: genes 20 Torsion [N]-CA--C-[N] |==|  0.26182
USER: genes 21 Torsion [C]-N--CA-[C] |==|  0.16614
USER: genes 22 Torsion [N]-CA--C-[O] |==|  0.07159
USER: genes 23 Torsion [N]-CA--CB-[OG1] |==|  0.71391
USER: genes 24 Torsion [CA]-CB--OG1-[HG1] |==|  0.35113
ROOT
ATOM      1  CA  PHE C1005       1.401 -34.630   3.833  1.00 26.32 LIG 0.18  C 
ENDROOT
BRANCH 1 2
ATOM      2  N   PHE C1005       0.776 -34.366   2.545  1.00 26.54 LIG-0.35  N 
ATOM      3  C   ARG C1004       1.473 -34.427   1.409  1.00 27.34 LIG 0.24  C 
ATOM      4 O    ARG C1004       2.627 -34.848   1.348  1.00 26.08 LIG-0.27  OA
ATOM      5 H    PHE C1005      -0.061 -34.173   2.588  1.00 26.54 LIG 0.16  HD
BRANCH 3 6
ATOM      6  CA  ARG C1004       0.754 -33.947   0.138  1.00 28.49 LIG 0.18  C 
BRANCH 6 7
ATOM      7  N   ARG C1004       0.466 -32.515   0.143  1.00 30.45 LIG-0.35  N 
ATOM      8  C   GLY C1003      -0.596 -32.048   0.799  1.00 32.03 LIG 0.25  C 
ATOM      9 O    GLY C1003      -1.333 -32.779   1.460  1.00 33.62 LIG-0.27  OA
ATOM     10 H    ARG C1004       1.022 -32.029  -0.298  1.00 30.45 LIG 0.16  HD
BRANCH 8 11
ATOM     11  CA  GLY C1003      -0.861 -30.560   0.712  1.00 33.10 LIG 0.47  C 
ATOM     12  N   GLY C1003      -1.882 -30.109   1.695  1.00 33.92 LIG 0.61  N 
ENDBRANCH 8 11
ENDBRANCH 6 7
BRANCH 6 13
ATOM     13  CB  ARG C1004       1.536 -34.354  -1.114  1.00 28.45 LIG 0.04  C 
BRANCH 13 14
ATOM     14  CG  ARG C1004       1.173 -33.570  -2.354  1.00 27.92 LIG 0.02  C 
BRANCH 14 15
ATOM     15  CD  ARG C1004      -0.230 -33.922  -2.848  1.00 26.34 LIG 0.14  C 
BRANCH 15 16
ATOM     16  NE  ARG C1004      -0.973 -32.722  -3.203  1.00 24.25 LIG-0.23  N 
ATOM     17 HE   ARG C1004      -0.715 -32.285  -3.898  1.00 24.25 LIG 0.18  HD
ATOM     18  CZ  ARG C1004      -2.020 -32.250  -2.534  1.00 25.16 LIG 0.67  C 
ATOM     19  NH2 ARG C1004      -2.623 -31.157  -2.962  1.00 24.86 LIG-0.23  N 
ATOM     20  NH1 ARG C1004      -2.452 -32.853  -1.436  1.00 22.12 LIG-0.23  N 
ATOM     21 1HH2 ARG C1004      -2.337 -30.756  -3.667  1.00 24.86 LIG 0.17  HD
ATOM     22 2HH2 ARG C1004      -3.301 -30.845  -2.536  1.00 24.86 LIG 0.17  HD
ATOM     23 1HH1 ARG C1004      -2.054 -33.558  -1.147  1.00 22.12 LIG 0.17  HD
ATOM     24 2HH1 ARG C1004      -3.131 -32.539  -1.012  1.00 22.12 LIG 0.17  HD
ENDBRANCH 15 16
ENDBRANCH 14 15
ENDBRANCH 13 14
ENDBRANCH 6 13
ENDBRANCH 3 6
ENDBRANCH 1 2
BRANCH 1 25
ATOM     25  CB  PHE C1005       0.336 -34.750   4.917  1.00 25.48 LIG 0.07  C 
BRANCH 25 26
ATOM     26  CG  PHE C1005      -0.439 -33.486   5.120  1.00 23.55 LIG-0.06  A 
ATOM     27  CD1 PHE C1005       0.170 -32.361   5.699  1.00 22.30 LIG 0.01  A 
ATOM     28  CE1 PHE C1005      -0.559 -31.178   5.903  1.00 23.64 LIG 0.00  A 
ATOM     29  CZ  PHE C1005      -1.931 -31.146   5.541  1.00 21.73 LIG 0.00  A 
ATOM     30  CE2 PHE C1005      -2.531 -32.257   4.961  1.00 19.92 LIG 0.00  A 
ATOM     31  CD2 PHE C1005      -1.787 -33.433   4.747  1.00 21.20 LIG 0.01  A 
ENDBRANCH 25 26
ENDBRANCH 1 25
BRANCH 1 32
ATOM     32  C   PHE C1005       2.232 -35.889   3.812  1.00 27.26 LIG 0.24  C 
ATOM     33 O    PHE C1005       1.713 -36.958   3.512  1.00 28.13 LIG-0.27  OA
ATOM     34  N   GLN C1006       3.513 -35.729   4.126  1.00 28.15 LIG-0.35  N 
ATOM     35 H    GLN C1006       3.878 -34.956   4.219  1.00 28.15 LIG 0.16  HD
BRANCH 34 36
ATOM     36  CA  GLN C1006       4.440 -36.839   4.346  1.00 29.76 LIG 0.18  C 
BRANCH 36 37
ATOM     37  CB  GLN C1006       5.865 -36.437   3.975  1.00 29.94 LIG 0.04  C 
BRANCH 37 38
ATOM     38  CG  GLN C1006       5.991 -35.638   2.692  1.00 33.02 LIG 0.10  C 
BRANCH 38 39
ATOM     39  CD  GLN C1006       7.172 -34.685   2.709  1.00 35.46 LIG 0.21  C 
ATOM     40 OE1  GLN C1006       7.380 -33.957   3.680  1.00 38.48 LIG-0.27  OA
ATOM     41  NE2 GLN C1006       7.948 -34.679   1.625  1.00 37.01 LIG-0.37  N 
ATOM     42 22HE GLN C1006       8.626 -34.152   1.584  1.00 37.01 LIG 0.16  HD
ATOM     43 21HE GLN C1006       7.770 -35.203   0.967  1.00 37.01 LIG 0.16  HD
ENDBRANCH 38 39
ENDBRANCH 37 38
ENDBRANCH 36 37
BRANCH 36 44
ATOM     44  C   GLN C1006       4.375 -37.275   5.812  1.00 30.09 LIG 0.24  C 
ATOM     45  N   VAL C1007       3.794 -36.403   6.643  1.00 30.97 LIG-0.35  N 
ATOM     46 H    VAL C1007       3.538 -35.622   6.389  1.00 30.97 LIG 0.16  HD
ATOM     47 O    GLN C1006       4.860 -38.358   6.166  1.00 30.15 LIG-0.27  OA
BRANCH 45 48
ATOM     48  CA  VAL C1007       3.527 -36.664   8.066  1.00 32.05 LIG 0.18  C 
BRANCH 48 49
ATOM     49  CB  VAL C1007       4.755 -36.269   8.945  1.00 32.12 LIG 0.01  C 
ATOM     50  CG1 VAL C1007       5.870 -37.310   8.879  1.00 30.72 LIG 0.01  C 
ATOM     51  CG2 VAL C1007       4.352 -36.000  10.391  1.00 30.85 LIG 0.01  C 
ENDBRANCH 48 49
BRANCH 48 52
ATOM     52  C   VAL C1007       2.363 -35.685   8.389  1.00 33.20 LIG 0.24  C 
ATOM     53 O    VAL C1007       2.642 -34.537   8.717  1.00 34.91 LIG-0.27  OA
ATOM     54  N   THR C1008       1.088 -36.078   8.325  1.00 34.53 LIG-0.34  N 
ATOM     55 H    THR C1008       0.450 -35.515   8.449  1.00 34.53 LIG 0.16  HD
BRANCH 54 56
ATOM     56  CA  THR C1008       0.572 -37.416   8.055  1.00 33.96 LIG 0.19  C 
BRANCH 56 57
ATOM     57  C   THR C1008       1.100 -38.362   9.133  1.00 33.93 LIG 0.22  C 
ATOM     58 O    THR C1008       1.417 -37.948  10.251  1.00 34.05 LIG-0.29  OA
ENDBRANCH 56 57
BRANCH 56 59
ATOM     59  CB  THR C1008       1.045 -37.952   6.652  1.00 34.51 LIG 0.14  C 
ATOM     60  CG2 THR C1008       1.479 -39.418   6.704  1.00 33.41 LIG 0.04  C 
BRANCH 59 61
ATOM     61 OG1  THR C1008      -0.023 -37.851   5.715  1.00 32.91 LIG-0.39  OA
ATOM     62 HG1  THR C1008       0.237 -37.426   5.038  1.00 32.91 LIG 0.21  HD
ENDBRANCH 59 61
ENDBRANCH 56 59
ENDBRANCH 54 56
ENDBRANCH 48 52
ENDBRANCH 45 48
ENDBRANCH 36 44
ENDBRANCH 34 36
ENDBRANCH 1 32
TORSDOF 23
ENDMDL
MODEL 20
USER: ADFR SOLUTION from run 111
USER: SCORE 17.977244 LL:  -3.456 LR: -15.899 RR:   0.000 FEB:  -9.038
USER: RMSD 3.625679
USER: SEED 110
USER: STATUS no improvement in best in 11 clusters for 5 generations
USER: GENES 25
USER: genes 0 Translation |==|  0.45678 0.59130 0.43581
USER: genes 1 Rotation |==|  0.54517 0.49691 0.43434 0.99360
USER: genes 2 Torsion [CB]-CA--N-[C] |==|  0.48334
USER: genes 3 Torsion [N]-C--CA-[N] |==|  0.12588
USER: genes 4 Torsion [C]-CA--N-[C] |==|  0.15660
USER: genes 5 Torsion [N]-C--CA-[N] |==|  0.06102
USER: genes 6 Torsion [C]-CA--CB-[CG] |==|  0.58721
USER: genes 7 Torsion [CA]-CB--CG-[CD] |==|  0.83383
USER: genes 8 Torsion [CB]-CG--CD-[NE] |==|  0.34218
USER: genes 9 Torsion [CG]-CD--NE-[HE] |==|  0.68784
USER: genes 10 Torsion [N]-CA--CB-[CG] |==|  0.93926
USER: genes 11 Torsion [CA]-CB--CG-[CD2] |==|  0.77872
USER: genes 12 Torsion [N]-CA--C-[N] |==|  0.37321
USER: genes 13 Torsion [C]-N--CA-[C] |==|  0.63333
USER: genes 14 Torsion [N]-CA--CB-[CG] |==|  0.13569
USER: genes 15 Torsion [CA]-CB--CG-[CD] |==|  0.75512
USER: genes 16 Torsion [CB]-CG--CD-[OE1] |==|  0.76972
USER: genes 17 Torsion [N]-CA--C-[N] |==|  0.39715
USER: genes 18 Torsion [C]-N--CA-[CB] |==|  0.87438
USER: genes 19 Torsion [N]-CA--CB-[CG1] |==|  0.80293
USER: genes 20 Torsion [N]-CA--C-[N] |==|  0.34871
USER: genes 21 Torsion [C]-N--CA-[C] |==|  0.65793
USER: genes 22 Torsion [N]-CA--C-[O] |==|  0.00698
USER: genes 23 Torsion [N]-CA--CB-[OG1] |==|  0.05922
USER: genes 24 Torsion [CA]-CB--OG1-[HG1] |==|  0.80952
ROOT
ATOM      1  CA  PHE C1005       0.284 -33.636   5.081  1.00 26.32 LIG 0.18  C 
ENDROOT
BRANCH 1 2
ATOM      2  N   PHE C1005      -0.544 -33.706   3.886  1.00 26.54 LIG-0.35  N 
ATOM      3  C   ARG C1004      -0.232 -34.514   2.870  1.00 27.34 LIG 0.24  C 
ATOM      4 O    ARG C1004       0.668 -35.351   2.928  1.00 26.08 LIG-0.27  OA
ATOM      5 H    PHE C1005      -1.233 -33.192   3.898  1.00 26.54 LIG 0.16  HD
BRANCH 3 6
ATOM      6  CA  ARG C1004      -1.072 -34.364   1.592  1.00 28.49 LIG 0.18  C 
BRANCH 6 7
ATOM      7  N   ARG C1004      -1.275 -32.973   1.195  1.00 30.45 LIG-0.35  N 
ATOM      8  C   GLY C1003      -0.227 -32.178   0.986  1.00 32.03 LIG 0.25  C 
ATOM      9 O    GLY C1003       0.933 -32.584   1.063  1.00 33.62 LIG-0.27  OA
ATOM     10 H    ARG C1004      -2.097 -32.733   1.113  1.00 30.45 LIG 0.16  HD
BRANCH 8 11
ATOM     11  CA  GLY C1003      -0.516 -30.735   0.631  1.00 33.10 LIG 0.47  C 
ATOM     12  N   GLY C1003      -1.872 -30.306   1.069  1.00 33.92 LIG 0.61  N 
ENDBRANCH 8 11
ENDBRANCH 6 7
BRANCH 6 13
ATOM     13  CB  ARG C1004      -0.473 -35.189   0.449  1.00 28.45 LIG 0.04  C 
BRANCH 13 14
ATOM     14  CG  ARG C1004      -0.693 -34.597  -0.924  1.00 27.92 LIG 0.02  C 
BRANCH 14 15
ATOM     15  CD  ARG C1004      -2.181 -34.455  -1.240  1.00 26.34 LIG 0.14  C 
BRANCH 15 16
ATOM     16  NE  ARG C1004      -2.516 -33.076  -1.564  1.00 24.25 LIG-0.23  N 
ATOM     17 HE   ARG C1004      -3.017 -32.648  -1.011  1.00 24.25 LIG 0.18  HD
ATOM     18  CZ  ARG C1004      -2.105 -32.429  -2.650  1.00 25.16 LIG 0.67  C 
ATOM     19  NH2 ARG C1004      -2.465 -31.172  -2.829  1.00 24.86 LIG-0.23  N 
ATOM     20  NH1 ARG C1004      -1.359 -33.036  -3.561  1.00 22.12 LIG-0.23  N 
ATOM     21 1HH2 ARG C1004      -2.960 -30.779  -2.246  1.00 24.86 LIG 0.17  HD
ATOM     22 2HH2 ARG C1004      -2.204 -30.746  -3.529  1.00 24.86 LIG 0.17  HD
ATOM     23 1HH1 ARG C1004      -1.134 -33.860  -3.454  1.00 22.12 LIG 0.17  HD
ATOM     24 2HH1 ARG C1004      -1.100 -32.608  -4.260  1.00 22.12 LIG 0.17  HD
ENDBRANCH 15 16
ENDBRANCH 14 15
ENDBRANCH 13 14
ENDBRANCH 6 13
ENDBRANCH 3 6
ENDBRANCH 1 2
BRANCH 1 25
ATOM     25  CB  PHE C1005      -0.221 -32.533   6.004  1.00 25.48 LIG 0.07  C 
BRANCH 25 26
ATOM     26  CG  PHE C1005      -1.037 -31.501   5.291  1.00 23.55 LIG-0.06  A 
ATOM     27  CD1 PHE C1005      -2.440 -31.544   5.335  1.00 22.30 LIG 0.01  A 
ATOM     28  CE1 PHE C1005      -3.207 -30.584   4.655  1.00 23.64 LIG 0.00  A 
ATOM     29  CZ  PHE C1005      -2.543 -29.584   3.898  1.00 21.73 LIG 0.00  A 
ATOM     30  CE2 PHE C1005      -1.155 -29.537   3.861  1.00 19.92 LIG 0.00  A 
ATOM     31  CD2 PHE C1005      -0.395 -30.495   4.558  1.00 21.20 LIG 0.01  A 
ENDBRANCH 25 26
ENDBRANCH 1 25
BRANCH 1 32
ATOM     32  C   PHE C1005       0.304 -34.943   5.834  1.00 27.26 LIG 0.24  C 
ATOM     33 O    PHE C1005      -0.742 -35.551   6.029  1.00 28.13 LIG-0.27  OA
ATOM     34  N   GLN C1006       1.504 -35.350   6.234  1.00 28.15 LIG-0.35  N 
ATOM     35 H    GLN C1006       2.233 -34.967   5.986  1.00 28.15 LIG 0.16  HD
BRANCH 34 36
ATOM     36  CA  GLN C1006       1.719 -36.483   7.133  1.00 29.76 LIG 0.18  C 
BRANCH 36 37
ATOM     37  CB  GLN C1006       2.265 -37.686   6.368  1.00 29.94 LIG 0.04  C 
BRANCH 37 38
ATOM     38  CG  GLN C1006       3.441 -37.385   5.459  1.00 33.02 LIG 0.10  C 
BRANCH 38 39
ATOM     39  CD  GLN C1006       3.010 -36.956   4.067  1.00 35.46 LIG 0.21  C 
ATOM     40 OE1  GLN C1006       2.720 -37.793   3.212  1.00 38.48 LIG-0.27  OA
ATOM     41  NE2 GLN C1006       2.976 -35.645   3.832  1.00 37.01 LIG-0.37  N 
ATOM     42 22HE GLN C1006       2.745 -35.353   3.057  1.00 37.01 LIG 0.16  HD
ATOM     43 21HE GLN C1006       3.186 -35.092   4.456  1.00 37.01 LIG 0.16  HD
ENDBRANCH 38 39
ENDBRANCH 37 38
ENDBRANCH 36 37
BRANCH 36 44
ATOM     44  C   GLN C1006       2.689 -36.076   8.245  1.00 30.09 LIG 0.24  C 
ATOM     45  N   VAL C1007       2.425 -36.589   9.451  1.00 30.97 LIG-0.35  N 
ATOM     46 H    VAL C1007       1.722 -37.058   9.610  1.00 30.97 LIG 0.16  HD
ATOM     47 O    GLN C1006       3.628 -35.303   8.007  1.00 30.15 LIG-0.27  OA
BRANCH 45 48
ATOM     48  CA  VAL C1007       3.286 -36.421  10.632  1.00 32.05 LIG 0.18  C 
BRANCH 48 49
ATOM     49  CB  VAL C1007       4.785 -36.659  10.268  1.00 32.12 LIG 0.01  C 
ATOM     50  CG1 VAL C1007       5.082 -38.129   9.981  1.00 30.72 LIG 0.01  C 
ATOM     51  CG2 VAL C1007       5.720 -36.119  11.344  1.00 30.85 LIG 0.01  C 
ENDBRANCH 48 49
BRANCH 48 52
ATOM     52  C   VAL C1007       3.104 -34.918  10.987  1.00 33.20 LIG 0.24  C 
ATOM     53 O    VAL C1007       3.329 -34.083  10.118  1.00 34.91 LIG-0.27  OA
ATOM     54  N   THR C1008       2.724 -34.534  12.208  1.00 34.53 LIG-0.34  N 
ATOM     55 H    THR C1008       2.571 -33.705  12.379  1.00 34.53 LIG 0.16  HD
BRANCH 54 56
ATOM     56  CA  THR C1008       2.512 -35.369  13.388  1.00 33.96 LIG 0.19  C 
BRANCH 56 57
ATOM     57  C   THR C1008       1.083 -35.150  13.881  1.00 33.93 LIG 0.22  C 
ATOM     58 O    THR C1008       0.302 -34.408  13.279  1.00 34.05 LIG-0.29  OA
ENDBRANCH 56 57
BRANCH 56 59
ATOM     59  CB  THR C1008       3.502 -34.993  14.554  1.00 34.51 LIG 0.14  C 
ATOM     60  CG2 THR C1008       4.710 -35.929  14.615  1.00 33.41 LIG 0.04  C 
BRANCH 59 61
ATOM     61 OG1  THR C1008       3.989 -33.669  14.362  1.00 32.91 LIG-0.39  OA
ATOM     62 HG1  THR C1008       4.491 -33.650  13.689  1.00 32.91 LIG 0.21  HD
ENDBRANCH 59 61
ENDBRANCH 56 59
ENDBRANCH 54 56
ENDBRANCH 48 52
ENDBRANCH 45 48
ENDBRANCH 36 44
ENDBRANCH 34 36
ENDBRANCH 1 32
TORSDOF 23
ENDMDL
MODEL 21
USER: ADFR SOLUTION from run 38
USER: SCORE 17.475620 LL:  -3.888 LR: -15.872 RR:   0.000 FEB:  -9.011
USER: RMSD 3.353109
USER: SEED 37
USER: STATUS searching
USER: GENES 25
USER: genes 0 Translation |==|  0.47438 0.62301 0.48273
USER: genes 1 Rotation |==|  0.53782 0.40859 0.58304 0.98303
USER: genes 2 Torsion [CB]-CA--N-[C] |==|  0.82222
USER: genes 3 Torsion [N]-C--CA-[N] |==|  0.62431
USER: genes 4 Torsion [C]-CA--N-[C] |==|  0.13481
USER: genes 5 Torsion [N]-C--CA-[N] |==|  0.45163
USER: genes 6 Torsion [C]-CA--CB-[CG] |==|  0.63194
USER: genes 7 Torsion [CA]-CB--CG-[CD] |==|  0.31834
USER: genes 8 Torsion [CB]-CG--CD-[NE] |==|  0.56249
USER: genes 9 Torsion [CG]-CD--NE-[HE] |==|  0.24593
USER: genes 10 Torsion [N]-CA--CB-[CG] |==|  0.88874
USER: genes 11 Torsion [CA]-CB--CG-[CD2] |==|  0.39534
USER: genes 12 Torsion [N]-CA--C-[N] |==|  0.49948
USER: genes 13 Torsion [C]-N--CA-[C] |==|  0.23272
USER: genes 14 Torsion [N]-CA--CB-[CG] |==|  0.75345
USER: genes 15 Torsion [CA]-CB--CG-[CD] |==|  0.25215
USER: genes 16 Torsion [CB]-CG--CD-[OE1] |==|  0.57670
USER: genes 17 Torsion [N]-CA--C-[N] |==|  0.43205
USER: genes 18 Torsion [C]-N--CA-[CB] |==|  0.87767
USER: genes 19 Torsion [N]-CA--CB-[CG1] |==|  0.84510
USER: genes 20 Torsion [N]-CA--C-[N] |==|  0.35556
USER: genes 21 Torsion [C]-N--CA-[C] |==|  0.74318
USER: genes 22 Torsion [N]-CA--C-[O] |==|  0.84116
USER: genes 23 Torsion [N]-CA--CB-[OG1] |==|  0.04371
USER: genes 24 Torsion [CA]-CB--OG1-[HG1] |==|  0.29904
ROOT
ATOM      1  CA  PHE C1005       0.627 -33.065   6.383  1.00 26.32 LIG 0.18  C 
ENDROOT
BRANCH 1 2
ATOM      2  N   PHE C1005       0.499 -33.518   5.006  1.00 26.54 LIG-0.35  N 
ATOM      3  C   ARG C1004      -0.356 -34.487   4.669  1.00 27.34 LIG 0.24  C 
ATOM      4 O    ARG C1004      -1.187 -34.952   5.448  1.00 26.08 LIG-0.27  OA
ATOM      5 H    PHE C1005       1.012 -33.113   4.447  1.00 26.54 LIG 0.16  HD
BRANCH 3 6
ATOM      6  CA  ARG C1004      -0.267 -35.007   3.226  1.00 28.49 LIG 0.18  C 
BRANCH 6 7
ATOM      7  N   ARG C1004      -1.572 -35.165   2.588  1.00 30.45 LIG-0.35  N 
ATOM      8  C   GLY C1003      -2.466 -34.179   2.642  1.00 32.03 LIG 0.25  C 
ATOM      9 O    GLY C1003      -2.219 -33.096   3.173  1.00 33.62 LIG-0.27  OA
ATOM     10 H    ARG C1004      -1.697 -35.919   2.194  1.00 30.45 LIG 0.16  HD
BRANCH 8 11
ATOM     11  CA  GLY C1003      -3.816 -34.437   2.006  1.00 33.10 LIG 0.47  C 
ATOM     12  N   GLY C1003      -4.852 -33.475   2.469  1.00 33.92 LIG 0.61  N 
ENDBRANCH 8 11
ENDBRANCH 6 7
BRANCH 6 13
ATOM     13  CB  ARG C1004       0.661 -34.124   2.387  1.00 28.45 LIG 0.04  C 
BRANCH 13 14
ATOM     14  CG  ARG C1004       0.090 -33.723   1.046  1.00 27.92 LIG 0.02  C 
BRANCH 14 15
ATOM     15  CD  ARG C1004      -0.146 -32.215   0.968  1.00 26.34 LIG 0.14  C 
BRANCH 15 16
ATOM     16  NE  ARG C1004      -1.141 -31.895  -0.045  1.00 24.25 LIG-0.23  N 
ATOM     17 HE   ARG C1004      -1.967 -31.886   0.197  1.00 24.25 LIG 0.18  HD
ATOM     18  CZ  ARG C1004      -0.870 -31.616  -1.316  1.00 25.16 LIG 0.67  C 
ATOM     19  NH2 ARG C1004      -1.859 -31.328  -2.141  1.00 24.86 LIG-0.23  N 
ATOM     20  NH1 ARG C1004       0.376 -31.645  -1.766  1.00 22.12 LIG-0.23  N 
ATOM     21 1HH2 ARG C1004      -2.670 -31.321  -1.854  1.00 24.86 LIG 0.17  HD
ATOM     22 2HH2 ARG C1004      -1.692 -31.147  -2.964  1.00 24.86 LIG 0.17  HD
ATOM     23 1HH1 ARG C1004       1.021 -31.846  -1.235  1.00 22.12 LIG 0.17  HD
ATOM     24 2HH1 ARG C1004       0.539 -31.463  -2.591  1.00 22.12 LIG 0.17  HD
ENDBRANCH 15 16
ENDBRANCH 14 15
ENDBRANCH 13 14
ENDBRANCH 6 13
ENDBRANCH 3 6
ENDBRANCH 1 2
BRANCH 1 25
ATOM     25  CB  PHE C1005      -0.680 -32.437   6.852  1.00 25.48 LIG 0.07  C 
BRANCH 25 26
ATOM     26  CG  PHE C1005      -1.335 -31.595   5.802  1.00 23.55 LIG-0.06  A 
ATOM     27  CD1 PHE C1005      -0.563 -30.786   4.951  1.00 22.30 LIG 0.01  A 
ATOM     28  CE1 PHE C1005      -1.177 -29.985   3.975  1.00 23.64 LIG 0.00  A 
ATOM     29  CZ  PHE C1005      -2.593 -29.982   3.879  1.00 21.73 LIG 0.00  A 
ATOM     30  CE2 PHE C1005      -3.355 -30.788   4.716  1.00 19.92 LIG 0.00  A 
ATOM     31  CD2 PHE C1005      -2.729 -31.599   5.681  1.00 21.20 LIG 0.01  A 
ENDBRANCH 25 26
ENDBRANCH 1 25
BRANCH 1 32
ATOM     32  C   PHE C1005       1.000 -34.190   7.317  1.00 27.26 LIG 0.24  C 
ATOM     33 O    PHE C1005       1.159 -35.322   6.875  1.00 28.13 LIG-0.27  OA
ATOM     34  N   GLN C1006       1.139 -33.847   8.593  1.00 28.15 LIG-0.35  N 
ATOM     35 H    GLN C1006       1.136 -33.029   8.859  1.00 28.15 LIG 0.16  HD
BRANCH 34 36
ATOM     36  CA  GLN C1006       1.311 -34.810   9.678  1.00 29.76 LIG 0.18  C 
BRANCH 36 37
ATOM     37  CB  GLN C1006       0.448 -36.048   9.447  1.00 29.94 LIG 0.04  C 
BRANCH 37 38
ATOM     38  CG  GLN C1006      -0.956 -35.963  10.012  1.00 33.02 LIG 0.10  C 
BRANCH 38 39
ATOM     39  CD  GLN C1006      -1.956 -35.405   9.015  1.00 35.46 LIG 0.21  C 
ATOM     40 OE1  GLN C1006      -2.962 -34.807   9.399  1.00 38.48 LIG-0.27  OA
ATOM     41  NE2 GLN C1006      -1.687 -35.608   7.726  1.00 37.01 LIG-0.37  N 
ATOM     42 22HE GLN C1006      -2.227 -35.317   7.123  1.00 37.01 LIG 0.16  HD
ATOM     43 21HE GLN C1006      -0.974 -36.031   7.498  1.00 37.01 LIG 0.16  HD
ENDBRANCH 38 39
ENDBRANCH 37 38
ENDBRANCH 36 37
BRANCH 36 44
ATOM     44  C   GLN C1006       2.787 -35.203   9.784  1.00 30.09 LIG 0.24  C 
ATOM     45  N   VAL C1007       3.177 -35.644  10.984  1.00 30.97 LIG-0.35  N 
ATOM     46 H    VAL C1007       2.658 -35.641  11.669  1.00 30.97 LIG 0.16  HD
ATOM     47 O    GLN C1006       3.539 -35.084   8.807  1.00 30.15 LIG-0.27  OA
BRANCH 45 48
ATOM     48  CA  VAL C1007       4.517 -36.176  11.278  1.00 32.05 LIG 0.18  C 
BRANCH 48 49
ATOM     49  CB  VAL C1007       4.988 -37.152  10.154  1.00 32.12 LIG 0.01  C 
ATOM     50  CG1 VAL C1007       3.996 -38.290   9.925  1.00 30.72 LIG 0.01  C 
ATOM     51  CG2 VAL C1007       6.384 -37.699  10.430  1.00 30.85 LIG 0.01  C 
ENDBRANCH 48 49
BRANCH 48 52
ATOM     52  C   VAL C1007       5.416 -34.909  11.231  1.00 33.20 LIG 0.24  C 
ATOM     53 O    VAL C1007       5.362 -34.193  10.237  1.00 34.91 LIG-0.27  OA
ATOM     54  N   THR C1008       6.240 -34.605  12.237  1.00 34.53 LIG-0.34  N 
ATOM     55 H    THR C1008       6.691 -33.872  12.228  1.00 34.53 LIG 0.16  HD
BRANCH 54 56
ATOM     56  CA  THR C1008       6.513 -35.382  13.443  1.00 33.96 LIG 0.19  C 
BRANCH 56 57
ATOM     57  C   THR C1008       5.558 -34.918  14.541  1.00 33.93 LIG 0.22  C 
ATOM     58 O    THR C1008       5.518 -33.738  14.901  1.00 34.05 LIG-0.29  OA
ENDBRANCH 56 57
BRANCH 56 59
ATOM     59  CB  THR C1008       7.989 -35.175  13.949  1.00 34.51 LIG 0.14  C 
ATOM     60  CG2 THR C1008       8.890 -36.368  13.623  1.00 33.41 LIG 0.04  C 
BRANCH 59 61
ATOM     61 OG1  THR C1008       8.552 -34.025  13.327  1.00 32.91 LIG-0.39  OA
ATOM     62 HG1  THR C1008       8.614 -33.404  13.890  1.00 32.91 LIG 0.21  HD
ENDBRANCH 59 61
ENDBRANCH 56 59
ENDBRANCH 54 56
ENDBRANCH 48 52
ENDBRANCH 45 48
ENDBRANCH 36 44
ENDBRANCH 34 36
ENDBRANCH 1 32
TORSDOF 23
ENDMDL
MODEL 22
USER: ADFR SOLUTION from run 112
USER: SCORE 18.853975 LL:  -4.894 LR: -15.843 RR:   0.000 FEB:  -8.982
USER: RMSD 4.707081
USER: SEED 111
USER: STATUS searching
USER: GENES 25
USER: genes 0 Translation |==|  0.46287 0.58291 0.43517
USER: genes 1 Rotation |==|  0.54998 0.50828 0.41786 0.99060
USER: genes 2 Torsion [CB]-CA--N-[C] |==|  0.51119
USER: genes 3 Torsion [N]-C--CA-[N] |==|  0.91972
USER: genes 4 Torsion [C]-CA--N-[C] |==|  0.84867
USER: genes 5 Torsion [N]-C--CA-[N] |==|  0.20520
USER: genes 6 Torsion [C]-CA--CB-[CG] |==|  0.86953
USER: genes 7 Torsion [CA]-CB--CG-[CD] |==|  0.75766
USER: genes 8 Torsion [CB]-CG--CD-[NE] |==|  0.90251
USER: genes 9 Torsion [CG]-CD--NE-[HE] |==|  0.30862
USER: genes 10 Torsion [N]-CA--CB-[CG] |==|  0.95885
USER: genes 11 Torsion [CA]-CB--CG-[CD2] |==|  0.78921
USER: genes 12 Torsion [N]-CA--C-[N] |==|  0.42836
USER: genes 13 Torsion [C]-N--CA-[C] |==|  0.84541
USER: genes 14 Torsion [N]-CA--CB-[CG] |==|  0.34642
USER: genes 15 Torsion [CA]-CB--CG-[CD] |==|  0.70708
USER: genes 16 Torsion [CB]-CG--CD-[OE1] |==|  0.03238
USER: genes 17 Torsion [N]-CA--C-[N] |==|  0.88766
USER: genes 18 Torsion [C]-N--CA-[CB] |==|  0.42523
USER: genes 19 Torsion [N]-CA--CB-[CG1] |==|  0.95599
USER: genes 20 Torsion [N]-CA--C-[N] |==|  0.42273
USER: genes 21 Torsion [C]-N--CA-[C] |==|  0.78004
USER: genes 22 Torsion [N]-CA--C-[O] |==|  0.33585
USER: genes 23 Torsion [N]-CA--CB-[OG1] |==|  0.97938
USER: genes 24 Torsion [CA]-CB--OG1-[HG1] |==|  0.59840
ROOT
ATOM      1  CA  PHE C1005       0.403 -33.787   5.063  1.00 26.32 LIG 0.18  C 
ENDROOT
BRANCH 1 2
ATOM      2  N   PHE C1005      -0.483 -33.773   3.909  1.00 26.54 LIG-0.35  N 
ATOM      3  C   ARG C1004      -0.393 -34.698   2.951  1.00 27.34 LIG 0.24  C 
ATOM      4 O    ARG C1004       0.323 -35.694   3.043  1.00 26.08 LIG-0.27  OA
ATOM      5 H    PHE C1005      -1.054 -33.129   3.904  1.00 26.54 LIG 0.16  HD
BRANCH 3 6
ATOM      6  CA  ARG C1004      -1.252 -34.471   1.696  1.00 28.49 LIG 0.18  C 
BRANCH 6 7
ATOM      7  N   ARG C1004      -2.476 -33.721   1.962  1.00 30.45 LIG-0.35  N 
ATOM      8  C   GLY C1003      -3.327 -34.140   2.898  1.00 32.03 LIG 0.25  C 
ATOM      9 O    GLY C1003      -3.098 -35.123   3.602  1.00 33.62 LIG-0.27  OA
ATOM     10 H    ARG C1004      -2.587 -33.019   1.478  1.00 30.45 LIG 0.16  HD
BRANCH 8 11
ATOM     11  CA  GLY C1003      -4.601 -33.341   3.078  1.00 33.10 LIG 0.47  C 
ATOM     12  N   GLY C1003      -5.572 -33.571   1.975  1.00 33.92 LIG 0.61  N 
ENDBRANCH 8 11
ENDBRANCH 6 7
BRANCH 6 13
ATOM     13  CB  ARG C1004      -0.426 -33.816   0.585  1.00 28.45 LIG 0.04  C 
BRANCH 13 14
ATOM     14  CG  ARG C1004       0.401 -32.636   1.041  1.00 27.92 LIG 0.02  C 
BRANCH 14 15
ATOM     15  CD  ARG C1004      -0.401 -31.336   0.982  1.00 26.34 LIG 0.14  C 
BRANCH 15 16
ATOM     16  NE  ARG C1004      -1.316 -31.339  -0.150  1.00 24.25 LIG-0.23  N 
ATOM     17 HE   ARG C1004      -2.158 -31.382   0.020  1.00 24.25 LIG 0.18  HD
ATOM     18  CZ  ARG C1004      -0.948 -31.282  -1.425  1.00 25.16 LIG 0.67  C 
ATOM     19  NH2 ARG C1004      -1.873 -31.278  -2.367  1.00 24.86 LIG-0.23  N 
ATOM     20  NH1 ARG C1004       0.333 -31.248  -1.762  1.00 22.12 LIG-0.23  N 
ATOM     21 1HH2 ARG C1004      -2.705 -31.313  -2.151  1.00 24.86 LIG 0.17  HD
ATOM     22 2HH2 ARG C1004      -1.644 -31.241  -3.194  1.00 24.86 LIG 0.17  HD
ATOM     23 1HH1 ARG C1004       0.939 -31.264  -1.152  1.00 22.12 LIG 0.17  HD
ATOM     24 2HH1 ARG C1004       0.559 -31.211  -2.591  1.00 22.12 LIG 0.17  HD
ENDBRANCH 15 16
ENDBRANCH 14 15
ENDBRANCH 13 14
ENDBRANCH 6 13
ENDBRANCH 3 6
ENDBRANCH 1 2
BRANCH 1 25
ATOM     25  CB  PHE C1005       0.012 -32.681   6.037  1.00 25.48 LIG 0.07  C 
BRANCH 25 26
ATOM     26  CG  PHE C1005      -0.909 -31.668   5.433  1.00 23.55 LIG-0.06  A 
ATOM     27  CD1 PHE C1005      -2.281 -31.682   5.733  1.00 22.30 LIG 0.01  A 
ATOM     28  CE1 PHE C1005      -3.148 -30.740   5.157  1.00 23.64 LIG 0.00  A 
ATOM     29  CZ  PHE C1005      -2.623 -29.789   4.244  1.00 21.73 LIG 0.00  A 
ATOM     30  CE2 PHE C1005      -1.264 -29.771   3.954  1.00 19.92 LIG 0.00  A 
ATOM     31  CD2 PHE C1005      -0.400 -30.710   4.548  1.00 21.20 LIG 0.01  A 
ENDBRANCH 25 26
ENDBRANCH 1 25
BRANCH 1 32
ATOM     32  C   PHE C1005       0.376 -35.113   5.781  1.00 27.26 LIG 0.24  C 
ATOM     33 O    PHE C1005      -0.613 -35.832   5.699  1.00 28.13 LIG-0.27  OA
ATOM     34  N   GLN C1006       1.475 -35.411   6.467  1.00 28.15 LIG-0.35  N 
ATOM     35 H    GLN C1006       2.197 -34.946   6.415  1.00 28.15 LIG 0.16  HD
BRANCH 34 36
ATOM     36  CA  GLN C1006       1.581 -36.549   7.377  1.00 29.76 LIG 0.18  C 
BRANCH 36 37
ATOM     37  CB  GLN C1006       2.949 -36.579   8.052  1.00 29.94 LIG 0.04  C 
BRANCH 37 38
ATOM     38  CG  GLN C1006       2.913 -36.602   9.569  1.00 33.02 LIG 0.10  C 
BRANCH 38 39
ATOM     39  CD  GLN C1006       3.291 -35.266  10.183  1.00 35.46 LIG 0.21  C 
ATOM     40 OE1  GLN C1006       3.377 -34.254   9.487  1.00 38.48 LIG-0.27  OA
ATOM     41  NE2 GLN C1006       3.528 -35.260  11.494  1.00 37.01 LIG-0.37  N 
ATOM     42 22HE GLN C1006       3.752 -34.529  11.888  1.00 37.01 LIG 0.16  HD
ATOM     43 21HE GLN C1006       3.458 -35.988  11.947  1.00 37.01 LIG 0.16  HD
ENDBRANCH 38 39
ENDBRANCH 37 38
ENDBRANCH 36 37
BRANCH 36 44
ATOM     44  C   GLN C1006       0.471 -36.468   8.428  1.00 30.09 LIG 0.24  C 
ATOM     45  N   VAL C1007       0.222 -35.243   8.903  1.00 30.97 LIG-0.35  N 
ATOM     46 H    VAL C1007       0.697 -34.558   8.689  1.00 30.97 LIG 0.16  HD
ATOM     47 O    GLN C1006      -0.116 -37.492   8.802  1.00 30.15 LIG-0.27  OA
BRANCH 45 48
ATOM     48  CA  VAL C1007      -0.871 -34.918   9.834  1.00 32.05 LIG 0.18  C 
BRANCH 48 49
ATOM     49  CB  VAL C1007      -0.515 -33.665  10.695  1.00 32.12 LIG 0.01  C 
ATOM     50  CG1 VAL C1007       0.975 -33.336  10.646  1.00 30.72 LIG 0.01  C 
ATOM     51  CG2 VAL C1007      -0.988 -33.818  12.136  1.00 30.85 LIG 0.01  C 
ENDBRANCH 48 49
BRANCH 48 52
ATOM     52  C   VAL C1007      -2.040 -34.539   8.883  1.00 33.20 LIG 0.24  C 
ATOM     53 O    VAL C1007      -1.768 -34.069   7.784  1.00 34.91 LIG-0.27  OA
ATOM     54  N   THR C1008      -3.314 -34.706   9.247  1.00 34.53 LIG-0.34  N 
ATOM     55 H    THR C1008      -3.953 -34.548   8.694  1.00 34.53 LIG 0.16  HD
BRANCH 54 56
ATOM     56  CA  THR C1008      -3.828 -35.152  10.539  1.00 33.96 LIG 0.19  C 
BRANCH 56 57
ATOM     57  C   THR C1008      -3.693 -36.672  10.613  1.00 33.93 LIG 0.22  C 
ATOM     58 O    THR C1008      -3.028 -37.216  11.499  1.00 34.05 LIG-0.29  OA
ENDBRANCH 56 57
BRANCH 56 59
ATOM     59  CB  THR C1008      -5.347 -34.780  10.722  1.00 34.51 LIG 0.14  C 
ATOM     60  CG2 THR C1008      -5.607 -34.018  12.022  1.00 33.41 LIG 0.04  C 
BRANCH 59 61
ATOM     61 OG1  THR C1008      -5.772 -33.954   9.643  1.00 32.91 LIG-0.39  OA
ATOM     62 HG1  THR C1008      -6.328 -33.390   9.925  1.00 32.91 LIG 0.21  HD
ENDBRANCH 59 61
ENDBRANCH 56 59
ENDBRANCH 54 56
ENDBRANCH 48 52
ENDBRANCH 45 48
ENDBRANCH 36 44
ENDBRANCH 34 36
ENDBRANCH 1 32
TORSDOF 23
ENDMDL
MODEL 23
USER: ADFR SOLUTION from run 12
USER: SCORE 18.621853 LL:  -4.121 LR: -15.813 RR:   0.000 FEB:  -8.953
USER: RMSD 6.153391
USER: SEED 296966
USER: STATUS no improvement in best in 4 clusters for 5 generations
USER: GENES 25
USER: genes 0 Translation |==|  0.36521 0.72067 0.42447
USER: genes 1 Rotation |==|  0.49661 0.52729 0.68483 0.96377
USER: genes 2 Torsion [CB]-CA--N-[C] |==|  0.57408
USER: genes 3 Torsion [N]-C--CA-[N] |==|  0.97682
USER: genes 4 Torsion [C]-CA--N-[C] |==|  0.74588
USER: genes 5 Torsion [N]-C--CA-[N] |==|  0.10490
USER: genes 6 Torsion [C]-CA--CB-[CG] |==|  0.96854
USER: genes 7 Torsion [CA]-CB--CG-[CD] |==|  0.77923
USER: genes 8 Torsion [CB]-CG--CD-[NE] |==|  0.89103
USER: genes 9 Torsion [CG]-CD--NE-[HE] |==|  0.32426
USER: genes 10 Torsion [N]-CA--CB-[CG] |==|  0.05767
USER: genes 11 Torsion [CA]-CB--CG-[CD2] |==|  0.72852
USER: genes 12 Torsion [N]-CA--C-[N] |==|  0.83687
USER: genes 13 Torsion [C]-N--CA-[C] |==|  0.65564
USER: genes 14 Torsion [N]-CA--CB-[CG] |==|  0.44549
USER: genes 15 Torsion [CA]-CB--CG-[CD] |==|  0.22658
USER: genes 16 Torsion [CB]-CG--CD-[OE1] |==|  0.76115
USER: genes 17 Torsion [N]-CA--C-[N] |==|  0.40013
USER: genes 18 Torsion [C]-N--CA-[CB] |==|  0.78835
USER: genes 19 Torsion [N]-CA--CB-[CG1] |==|  0.13274
USER: genes 20 Torsion [N]-CA--C-[N] |==|  0.18604
USER: genes 21 Torsion [C]-N--CA-[C] |==|  0.52944
USER: genes 22 Torsion [N]-CA--C-[O] |==|  0.63428
USER: genes 23 Torsion [N]-CA--CB-[OG1] |==|  0.01439
USER: genes 24 Torsion [CA]-CB--OG1-[HG1] |==|  0.26106
ROOT
ATOM      1  CA  PHE C1005      -1.501 -31.307   4.766  1.00 26.32 LIG 0.18  C 
ENDROOT
BRANCH 1 2
ATOM      2  N   PHE C1005      -1.823 -32.253   3.708  1.00 26.54 LIG-0.35  N 
ATOM      3  C   ARG C1004      -0.893 -33.055   3.185  1.00 27.34 LIG 0.24  C 
ATOM      4 O    ARG C1004       0.241 -33.162   3.650  1.00 26.08 LIG-0.27  OA
ATOM      5 H    PHE C1005      -2.646 -32.244   3.459  1.00 26.54 LIG 0.16  HD
BRANCH 3 6
ATOM      6  CA  ARG C1004      -1.307 -33.872   1.951  1.00 28.49 LIG 0.18  C 
BRANCH 6 7
ATOM      7  N   ARG C1004      -2.734 -33.784   1.653  1.00 30.45 LIG-0.35  N 
ATOM      8  C   GLY C1003      -3.581 -34.678   2.165  1.00 32.03 LIG 0.25  C 
ATOM      9 O    GLY C1003      -3.214 -35.562   2.938  1.00 33.62 LIG-0.27  OA
ATOM     10 H    ARG C1004      -2.961 -33.132   1.140  1.00 30.45 LIG 0.16  HD
BRANCH 8 11
ATOM     11  CA  GLY C1003      -5.036 -34.555   1.766  1.00 33.10 LIG 0.47  C 
ATOM     12  N   GLY C1003      -5.200 -34.154   0.344  1.00 33.92 LIG 0.61  N 
ENDBRANCH 8 11
ENDBRANCH 6 7
BRANCH 6 13
ATOM     13  CB  ARG C1004      -0.459 -33.486   0.735  1.00 28.45 LIG 0.04  C 
BRANCH 13 14
ATOM     14  CG  ARG C1004       0.377 -32.243   0.931  1.00 27.92 LIG 0.02  C 
BRANCH 14 15
ATOM     15  CD  ARG C1004      -0.459 -30.975   0.760  1.00 26.34 LIG 0.14  C 
BRANCH 15 16
ATOM     16  NE  ARG C1004      -1.411 -31.122  -0.331  1.00 24.25 LIG-0.23  N 
ATOM     17 HE   ARG C1004      -2.248 -31.090  -0.136  1.00 24.25 LIG 0.18  HD
ATOM     18  CZ  ARG C1004      -1.083 -31.304  -1.607  1.00 25.16 LIG 0.67  C 
ATOM     19  NH2 ARG C1004      -2.039 -31.411  -2.511  1.00 24.86 LIG-0.23  N 
ATOM     20  NH1 ARG C1004       0.186 -31.397  -1.975  1.00 22.12 LIG-0.23  N 
ATOM     21 1HH2 ARG C1004      -2.864 -31.363  -2.273  1.00 24.86 LIG 0.17  HD
ATOM     22 2HH2 ARG C1004      -1.836 -31.529  -3.338  1.00 24.86 LIG 0.17  HD
ATOM     23 1HH1 ARG C1004       0.810 -31.341  -1.387  1.00 22.12 LIG 0.17  HD
ATOM     24 2HH1 ARG C1004       0.385 -31.515  -2.804  1.00 22.12 LIG 0.17  HD
ENDBRANCH 15 16
ENDBRANCH 14 15
ENDBRANCH 13 14
ENDBRANCH 6 13
ENDBRANCH 3 6
ENDBRANCH 1 2
BRANCH 1 25
ATOM     25  CB  PHE C1005      -2.740 -31.021   5.606  1.00 25.48 LIG 0.07  C 
BRANCH 25 26
ATOM     26  CG  PHE C1005      -3.787 -32.083   5.488  1.00 23.55 LIG-0.06  A 
ATOM     27  CD1 PHE C1005      -3.690 -33.267   6.238  1.00 22.30 LIG 0.01  A 
ATOM     28  CE1 PHE C1005      -4.664 -34.272   6.117  1.00 23.64 LIG 0.00  A 
ATOM     29  CZ  PHE C1005      -5.735 -34.085   5.205  1.00 21.73 LIG 0.00  A 
ATOM     30  CE2 PHE C1005      -5.835 -32.910   4.470  1.00 19.92 LIG 0.00  A 
ATOM     31  CD2 PHE C1005      -4.861 -31.903   4.609  1.00 21.20 LIG 0.01  A 
ENDBRANCH 25 26
ENDBRANCH 1 25
BRANCH 1 32
ATOM     32  C   PHE C1005      -0.400 -31.814   5.663  1.00 27.26 LIG 0.24  C 
ATOM     33 O    PHE C1005       0.630 -31.163   5.794  1.00 28.13 LIG-0.27  OA
ATOM     34  N   GLN C1006      -0.648 -32.970   6.270  1.00 28.15 LIG-0.35  N 
ATOM     35 H    GLN C1006      -1.420 -33.349   6.254  1.00 28.15 LIG 0.16  HD
BRANCH 34 36
ATOM     36  CA  GLN C1006       0.353 -33.721   7.026  1.00 29.76 LIG 0.18  C 
BRANCH 36 37
ATOM     37  CB  GLN C1006      -0.011 -33.770   8.508  1.00 29.94 LIG 0.04  C 
BRANCH 37 38
ATOM     38  CG  GLN C1006       0.664 -34.876   9.296  1.00 33.02 LIG 0.10  C 
BRANCH 38 39
ATOM     39  CD  GLN C1006       2.078 -34.515   9.717  1.00 35.46 LIG 0.21  C 
ATOM     40 OE1  GLN C1006       3.029 -34.712   8.962  1.00 38.48 LIG-0.27  OA
ATOM     41  NE2 GLN C1006       2.221 -33.993  10.935  1.00 37.01 LIG-0.37  N 
ATOM     42 22HE GLN C1006       3.002 -33.779  11.222  1.00 37.01 LIG 0.16  HD
ATOM     43 21HE GLN C1006       1.531 -33.871  11.434  1.00 37.01 LIG 0.16  HD
ENDBRANCH 38 39
ENDBRANCH 37 38
ENDBRANCH 36 37
BRANCH 36 44
ATOM     44  C   GLN C1006       0.462 -35.139   6.460  1.00 30.09 LIG 0.24  C 
ATOM     45  N   VAL C1007       1.692 -35.663   6.464  1.00 30.97 LIG-0.35  N 
ATOM     46 H    VAL C1007       2.386 -35.213   6.701  1.00 30.97 LIG 0.16  HD
ATOM     47 O    GLN C1006      -0.539 -35.717   6.017  1.00 30.15 LIG-0.27  OA
BRANCH 45 48
ATOM     48  CA  VAL C1007       2.009 -37.045   6.071  1.00 32.05 LIG 0.18  C 
BRANCH 48 49
ATOM     49  CB  VAL C1007       1.607 -38.050   7.196  1.00 32.12 LIG 0.01  C 
ATOM     50  CG1 VAL C1007       0.195 -37.796   7.719  1.00 30.72 LIG 0.01  C 
ATOM     51  CG2 VAL C1007       2.615 -38.050   8.339  1.00 30.85 LIG 0.01  C 
ENDBRANCH 48 49
BRANCH 48 52
ATOM     52  C   VAL C1007       1.076 -37.285   4.850  1.00 33.20 LIG 0.24  C 
ATOM     53 O    VAL C1007       0.175 -38.109   4.958  1.00 34.91 LIG-0.27  OA
ATOM     54  N   THR C1008       1.251 -36.622   3.703  1.00 34.53 LIG-0.34  N 
ATOM     55 H    THR C1008       0.696 -36.719   3.053  1.00 34.53 LIG 0.16  HD
BRANCH 54 56
ATOM     56  CA  THR C1008       2.319 -35.689   3.358  1.00 33.96 LIG 0.19  C 
BRANCH 56 57
ATOM     57  C   THR C1008       1.946 -34.995   2.049  1.00 33.93 LIG 0.22  C 
ATOM     58 O    THR C1008       2.751 -34.904   1.118  1.00 34.05 LIG-0.29  OA
ENDBRANCH 56 57
BRANCH 56 59
ATOM     59  CB  THR C1008       3.695 -36.426   3.153  1.00 34.51 LIG 0.14  C 
ATOM     60  CG2 THR C1008       4.731 -36.029   4.206  1.00 33.41 LIG 0.04  C 
BRANCH 59 61
ATOM     61 OG1  THR C1008       3.503 -37.834   3.244  1.00 32.91 LIG-0.39  OA
ATOM     62 HG1  THR C1008       3.386 -38.151   2.475  1.00 32.91 LIG 0.21  HD
ENDBRANCH 59 61
ENDBRANCH 56 59
ENDBRANCH 54 56
ENDBRANCH 48 52
ENDBRANCH 45 48
ENDBRANCH 36 44
ENDBRANCH 34 36
ENDBRANCH 1 32
TORSDOF 23
ENDMDL
MODEL 24
USER: ADFR SOLUTION from run 4
USER: SCORE 17.930581 LL:  -3.660 LR: -15.791 RR:   0.000 FEB:  -8.930
USER: RMSD 3.537860
USER: SEED 779606
USER: STATUS searching
USER: GENES 25
USER: genes 0 Translation |==|  0.44815 0.62526 0.48592
USER: genes 1 Rotation |==|  0.51367 0.38454 0.46900 0.98531
USER: genes 2 Torsion [CB]-CA--N-[C] |==|  0.82778
USER: genes 3 Torsion [N]-C--CA-[N] |==|  0.57034
USER: genes 4 Torsion [C]-CA--N-[C] |==|  0.56593
USER: genes 5 Torsion [N]-C--CA-[N] |==|  0.29439
USER: genes 6 Torsion [C]-CA--CB-[CG] |==|  0.80105
USER: genes 7 Torsion [CA]-CB--CG-[CD] |==|  0.57944
USER: genes 8 Torsion [CB]-CG--CD-[NE] |==|  0.30147
USER: genes 9 Torsion [CG]-CD--NE-[HE] |==|  0.05684
USER: genes 10 Torsion [N]-CA--CB-[CG] |==|  0.92589
USER: genes 11 Torsion [CA]-CB--CG-[CD2] |==|  0.83214
USER: genes 12 Torsion [N]-CA--C-[N] |==|  0.44986
USER: genes 13 Torsion [C]-N--CA-[C] |==|  0.53303
USER: genes 14 Torsion [N]-CA--CB-[CG] |==|  0.23531
USER: genes 15 Torsion [CA]-CB--CG-[CD] |==|  0.83726
USER: genes 16 Torsion [CB]-CG--CD-[OE1] |==|  0.32766
USER: genes 17 Torsion [N]-CA--C-[N] |==|  0.48256
USER: genes 18 Torsion [C]-N--CA-[CB] |==|  0.89292
USER: genes 19 Torsion [N]-CA--CB-[CG1] |==|  0.83194
USER: genes 20 Torsion [N]-CA--C-[N] |==|  0.35100
USER: genes 21 Torsion [C]-N--CA-[C] |==|  0.78039
USER: genes 22 Torsion [N]-CA--C-[O] |==|  0.07407
USER: genes 23 Torsion [N]-CA--CB-[OG1] |==|  0.02613
USER: genes 24 Torsion [CA]-CB--OG1-[HG1] |==|  0.24260
ROOT
ATOM      1  CA  PHE C1005       0.116 -33.024   6.471  1.00 26.32 LIG 0.18  C 
ENDROOT
BRANCH 1 2
ATOM      2  N   PHE C1005      -0.105 -33.386   5.079  1.00 26.54 LIG-0.35  N 
ATOM      3  C   ARG C1004      -1.291 -33.828   4.655  1.00 27.34 LIG 0.24  C 
ATOM      4 O    ARG C1004      -2.302 -33.818   5.355  1.00 26.08 LIG-0.27  OA
ATOM      5 H    PHE C1005       0.583 -33.290   4.572  1.00 26.54 LIG 0.16  HD
BRANCH 3 6
ATOM      6  CA  ARG C1004      -1.349 -34.355   3.212  1.00 28.49 LIG 0.18  C 
BRANCH 6 7
ATOM      7  N   ARG C1004      -2.681 -34.267   2.619  1.00 30.45 LIG-0.35  N 
ATOM      8  C   GLY C1003      -3.019 -35.073   1.612  1.00 32.03 LIG 0.25  C 
ATOM      9 O    GLY C1003      -2.261 -35.943   1.184  1.00 33.62 LIG-0.27  OA
ATOM     10 H    ARG C1004      -3.198 -33.675   2.966  1.00 30.45 LIG 0.16  HD
BRANCH 8 11
ATOM     11  CA  GLY C1003      -4.396 -34.886   1.012  1.00 33.10 LIG 0.47  C 
ATOM     12  N   GLY C1003      -4.348 -34.226  -0.320  1.00 33.92 LIG 0.61  N 
ENDBRANCH 8 11
ENDBRANCH 6 7
BRANCH 6 13
ATOM     13  CB  ARG C1004      -0.303 -33.658   2.337  1.00 28.45 LIG 0.04  C 
BRANCH 13 14
ATOM     14  CG  ARG C1004      -0.620 -32.214   2.022  1.00 27.92 LIG 0.02  C 
BRANCH 14 15
ATOM     15  CD  ARG C1004      -0.019 -31.790   0.682  1.00 26.34 LIG 0.14  C 
BRANCH 15 16
ATOM     16  NE  ARG C1004      -1.058 -31.617  -0.323  1.00 24.25 LIG-0.23  N 
ATOM     17 HE   ARG C1004      -1.863 -31.494  -0.046  1.00 24.25 LIG 0.18  HD
ATOM     18  CZ  ARG C1004      -0.856 -31.637  -1.636  1.00 25.16 LIG 0.67  C 
ATOM     19  NH2 ARG C1004      -1.878 -31.455  -2.451  1.00 24.86 LIG-0.23  N 
ATOM     20  NH1 ARG C1004       0.352 -31.856  -2.134  1.00 22.12 LIG-0.23  N 
ATOM     21 1HH2 ARG C1004      -2.666 -31.325  -2.130  1.00 24.86 LIG 0.17  HD
ATOM     22 2HH2 ARG C1004      -1.757 -31.466  -3.302  1.00 24.86 LIG 0.17  HD
ATOM     23 1HH1 ARG C1004       1.018 -31.988  -1.606  1.00 22.12 LIG 0.17  HD
ATOM     24 2HH1 ARG C1004       0.470 -31.866  -2.986  1.00 22.12 LIG 0.17  HD
ENDBRANCH 15 16
ENDBRANCH 14 15
ENDBRANCH 13 14
ENDBRANCH 6 13
ENDBRANCH 3 6
ENDBRANCH 1 2
BRANCH 1 25
ATOM     25  CB  PHE C1005      -0.794 -31.866   6.862  1.00 25.48 LIG 0.07  C 
BRANCH 25 26
ATOM     26  CG  PHE C1005      -1.174 -31.002   5.701  1.00 23.55 LIG-0.06  A 
ATOM     27  CD1 PHE C1005      -2.521 -30.863   5.325  1.00 22.30 LIG 0.01  A 
ATOM     28  CE1 PHE C1005      -2.878 -30.065   4.227  1.00 23.64 LIG 0.00  A 
ATOM     29  CZ  PHE C1005      -1.856 -29.421   3.484  1.00 21.73 LIG 0.00  A 
ATOM     30  CE2 PHE C1005      -0.525 -29.552   3.860  1.00 19.92 LIG 0.00  A 
ATOM     31  CD2 PHE C1005      -0.178 -30.343   4.971  1.00 21.20 LIG 0.01  A 
ENDBRANCH 25 26
ENDBRANCH 1 25
BRANCH 1 32
ATOM     32  C   PHE C1005      -0.130 -34.185   7.404  1.00 27.26 LIG 0.24  C 
ATOM     33 O    PHE C1005      -0.772 -35.154   7.015  1.00 28.13 LIG-0.27  OA
ATOM     34  N   GLN C1006       0.397 -34.061   8.617  1.00 28.15 LIG-0.35  N 
ATOM     35 H    GLN C1006       0.939 -33.427   8.828  1.00 28.15 LIG 0.16  HD
BRANCH 34 36
ATOM     36  CA  GLN C1006       0.118 -34.978   9.721  1.00 29.76 LIG 0.18  C 
BRANCH 36 37
ATOM     37  CB  GLN C1006       0.758 -36.341   9.468  1.00 29.94 LIG 0.04  C 
BRANCH 37 38
ATOM     38  CG  GLN C1006       2.212 -36.452   9.886  1.00 33.02 LIG 0.10  C 
BRANCH 38 39
ATOM     39  CD  GLN C1006       3.101 -35.439   9.187  1.00 35.46 LIG 0.21  C 
ATOM     40 OE1  GLN C1006       3.711 -34.586   9.831  1.00 38.48 LIG-0.27  OA
ATOM     41  NE2 GLN C1006       3.169 -35.524   7.859  1.00 37.01 LIG-0.37  N 
ATOM     42 22HE GLN C1006       3.654 -34.968   7.417  1.00 37.01 LIG 0.16  HD
ATOM     43 21HE GLN C1006       2.727 -36.134   7.444  1.00 37.01 LIG 0.16  HD
ENDBRANCH 38 39
ENDBRANCH 37 38
ENDBRANCH 36 37
BRANCH 36 44
ATOM     44  C   GLN C1006       0.644 -34.379  11.028  1.00 30.09 LIG 0.24  C 
ATOM     45  N   VAL C1007       0.335 -35.061  12.135  1.00 30.97 LIG-0.35  N 
ATOM     46 H    VAL C1007      -0.181 -35.749  12.125  1.00 30.97 LIG 0.16  HD
ATOM     47 O    GLN C1006       1.287 -33.320  11.019  1.00 30.15 LIG-0.27  OA
BRANCH 45 48
ATOM     48  CA  VAL C1007       0.828 -34.729  13.481  1.00 32.05 LIG 0.18  C 
BRANCH 48 49
ATOM     49  CB  VAL C1007       2.316 -34.259  13.429  1.00 32.12 LIG 0.01  C 
ATOM     50  CG1 VAL C1007       3.242 -35.337  12.870  1.00 30.72 LIG 0.01  C 
ATOM     51  CG2 VAL C1007       2.804 -33.780  14.791  1.00 30.85 LIG 0.01  C 
ENDBRANCH 48 49
BRANCH 48 52
ATOM     52  C   VAL C1007      -0.052 -33.513  13.886  1.00 33.20 LIG 0.24  C 
ATOM     53 O    VAL C1007      -0.092 -32.546  13.134  1.00 34.91 LIG-0.27  OA
ATOM     54  N   THR C1008      -0.743 -33.507  15.029  1.00 34.53 LIG-0.34  N 
ATOM     55 H    THR C1008      -1.272 -32.856  15.218  1.00 34.53 LIG 0.16  HD
BRANCH 54 56
ATOM     56  CA  THR C1008      -0.739 -34.513  16.088  1.00 33.96 LIG 0.19  C 
BRANCH 56 57
ATOM     57  C   THR C1008      -1.628 -35.676  15.650  1.00 33.93 LIG 0.22  C 
ATOM     58 O    THR C1008      -1.813 -35.929  14.456  1.00 34.05 LIG-0.29  OA
ENDBRANCH 56 57
BRANCH 56 59
ATOM     59  CB  THR C1008      -1.305 -33.939  17.440  1.00 34.51 LIG 0.14  C 
ATOM     60  CG2 THR C1008      -0.221 -33.788  18.508  1.00 33.41 LIG 0.04  C 
BRANCH 59 61
ATOM     61 OG1  THR C1008      -1.874 -32.653  17.215  1.00 32.91 LIG-0.39  OA
ATOM     62 HG1  THR C1008      -2.677 -32.738  16.984  1.00 32.91 LIG 0.21  HD
ENDBRANCH 59 61
ENDBRANCH 56 59
ENDBRANCH 54 56
ENDBRANCH 48 52
ENDBRANCH 45 48
ENDBRANCH 36 44
ENDBRANCH 34 36
ENDBRANCH 1 32
TORSDOF 23
ENDMDL
MODEL 25
USER: ADFR SOLUTION from run 142
USER: SCORE 18.420910 LL:  -3.551 LR: -15.778 RR:   0.000 FEB:  -8.917
USER: RMSD 3.162350
USER: SEED 141
USER: STATUS searching
USER: GENES 25
USER: genes 0 Translation |==|  0.42561 0.67947 0.46903
USER: genes 1 Rotation |==|  0.53640 0.36123 0.54822 0.97654
USER: genes 2 Torsion [CB]-CA--N-[C] |==|  0.14925
USER: genes 3 Torsion [N]-C--CA-[N] |==|  0.18982
USER: genes 4 Torsion [C]-CA--N-[C] |==|  0.78029
USER: genes 5 Torsion [N]-C--CA-[N] |==|  0.08018
USER: genes 6 Torsion [C]-CA--CB-[CG] |==|  0.58218
USER: genes 7 Torsion [CA]-CB--CG-[CD] |==|  0.78332
USER: genes 8 Torsion [CB]-CG--CD-[NE] |==|  0.53354
USER: genes 9 Torsion [CG]-CD--NE-[HE] |==|  0.33394
USER: genes 10 Torsion [N]-CA--CB-[CG] |==|  0.12822
USER: genes 11 Torsion [CA]-CB--CG-[CD2] |==|  0.71287
USER: genes 12 Torsion [N]-CA--C-[N] |==|  0.14914
USER: genes 13 Torsion [C]-N--CA-[C] |==|  0.84006
USER: genes 14 Torsion [N]-CA--CB-[CG] |==|  0.44871
USER: genes 15 Torsion [CA]-CB--CG-[CD] |==|  0.69519
USER: genes 16 Torsion [CB]-CG--CD-[OE1] |==|  0.16884
USER: genes 17 Torsion [N]-CA--C-[N] |==|  0.34447
USER: genes 18 Torsion [C]-N--CA-[CB] |==|  0.51891
USER: genes 19 Torsion [N]-CA--CB-[CG1] |==|  0.08060
USER: genes 20 Torsion [N]-CA--C-[N] |==|  0.44019
USER: genes 21 Torsion [C]-N--CA-[C] |==|  0.81694
USER: genes 22 Torsion [N]-CA--C-[O] |==|  0.29243
USER: genes 23 Torsion [N]-CA--CB-[OG1] |==|  0.08651
USER: genes 24 Torsion [CA]-CB--OG1-[HG1] |==|  0.07788
ROOT
ATOM      1  CA  PHE C1005      -0.324 -32.048   6.003  1.00 26.32 LIG 0.18  C 
ENDROOT
BRANCH 1 2
ATOM      2  N   PHE C1005      -0.264 -32.422   4.597  1.00 26.54 LIG-0.35  N 
ATOM      3  C   ARG C1004      -0.374 -31.510   3.629  1.00 27.34 LIG 0.24  C 
ATOM      4 O    ARG C1004      -0.380 -30.298   3.844  1.00 26.08 LIG-0.27  OA
ATOM      5 H    PHE C1005      -0.153 -33.264   4.456  1.00 26.54 LIG 0.16  HD
BRANCH 3 6
ATOM      6  CA  ARG C1004      -0.484 -32.045   2.193  1.00 28.49 LIG 0.18  C 
BRANCH 6 7
ATOM      7  N   ARG C1004      -1.739 -32.745   1.932  1.00 30.45 LIG-0.35  N 
ATOM      8  C   GLY C1003      -1.901 -34.003   2.344  1.00 32.03 LIG 0.25  C 
ATOM      9 O    GLY C1003      -1.042 -34.597   2.995  1.00 33.62 LIG-0.27  OA
ATOM     10 H    ARG C1004      -2.331 -32.288   1.507  1.00 30.45 LIG 0.16  HD
BRANCH 8 11
ATOM     11  CA  GLY C1003      -3.207 -34.681   1.988  1.00 33.10 LIG 0.47  C 
ATOM     12  N   GLY C1003      -3.792 -34.154   0.726  1.00 33.92 LIG 0.61  N 
ENDBRANCH 8 11
ENDBRANCH 6 7
BRANCH 6 13
ATOM     13  CB  ARG C1004      -0.250 -30.923   1.177  1.00 28.45 LIG 0.04  C 
BRANCH 13 14
ATOM     14  CG  ARG C1004      -0.982 -31.108  -0.132  1.00 27.92 LIG 0.02  C 
BRANCH 14 15
ATOM     15  CD  ARG C1004      -0.275 -32.123  -1.029  1.00 26.34 LIG 0.14  C 
BRANCH 15 16
ATOM     16  NE  ARG C1004      -0.814 -32.088  -2.381  1.00 24.25 LIG-0.23  N 
ATOM     17 HE   ARG C1004      -0.272 -31.899  -3.021  1.00 24.25 LIG 0.18  HD
ATOM     18  CZ  ARG C1004      -2.082 -32.328  -2.700  1.00 25.16 LIG 0.67  C 
ATOM     19  NH2 ARG C1004      -2.451 -32.279  -3.966  1.00 24.86 LIG-0.23  N 
ATOM     20  NH1 ARG C1004      -2.980 -32.593  -1.763  1.00 22.12 LIG-0.23  N 
ATOM     21 1HH2 ARG C1004      -1.872 -32.094  -4.576  1.00 24.86 LIG 0.17  HD
ATOM     22 2HH2 ARG C1004      -3.268 -32.432  -4.182  1.00 24.86 LIG 0.17  HD
ATOM     23 1HH1 ARG C1004      -2.746 -32.612  -0.936  1.00 22.12 LIG 0.17  HD
ATOM     24 2HH1 ARG C1004      -3.797 -32.746  -1.982  1.00 22.12 LIG 0.17  HD
ENDBRANCH 15 16
ENDBRANCH 14 15
ENDBRANCH 13 14
ENDBRANCH 6 13
ENDBRANCH 3 6
ENDBRANCH 1 2
BRANCH 1 25
ATOM     25  CB  PHE C1005      -1.593 -31.251   6.279  1.00 25.48 LIG 0.07  C 
BRANCH 25 26
ATOM     26  CG  PHE C1005      -2.814 -31.866   5.671  1.00 23.55 LIG-0.06  A 
ATOM     27  CD1 PHE C1005      -3.407 -33.000   6.250  1.00 22.30 LIG 0.01  A 
ATOM     28  CE1 PHE C1005      -4.545 -33.586   5.672  1.00 23.64 LIG 0.00  A 
ATOM     29  CZ  PHE C1005      -5.072 -33.032   4.478  1.00 21.73 LIG 0.00  A 
ATOM     30  CE2 PHE C1005      -4.491 -31.905   3.910  1.00 19.92 LIG 0.00  A 
ATOM     31  CD2 PHE C1005      -3.359 -31.316   4.504  1.00 21.20 LIG 0.01  A 
ENDBRANCH 25 26
ENDBRANCH 1 25
BRANCH 1 32
ATOM     32  C   PHE C1005      -0.287 -33.253   6.911  1.00 27.26 LIG 0.24  C 
ATOM     33 O    PHE C1005      -1.165 -33.411   7.751  1.00 28.13 LIG-0.27  OA
ATOM     34  N   GLN C1006       0.732 -34.083   6.713  1.00 28.15 LIG-0.35  N 
ATOM     35 H    GLN C1006       1.268 -34.012   6.044  1.00 28.15 LIG 0.16  HD
BRANCH 34 36
ATOM     36  CA  GLN C1006       1.054 -35.199   7.600  1.00 29.76 LIG 0.18  C 
BRANCH 36 37
ATOM     37  CB  GLN C1006       2.287 -35.949   7.103  1.00 29.94 LIG 0.04  C 
BRANCH 37 38
ATOM     38  CG  GLN C1006       2.965 -36.823   8.141  1.00 33.02 LIG 0.10  C 
BRANCH 38 39
ATOM     39  CD  GLN C1006       4.312 -36.274   8.578  1.00 35.46 LIG 0.21  C 
ATOM     40 OE1  GLN C1006       4.398 -35.168   9.112  1.00 38.48 LIG-0.27  OA
ATOM     41  NE2 GLN C1006       5.373 -37.045   8.344  1.00 37.01 LIG-0.37  N 
ATOM     42 22HE GLN C1006       6.158 -36.776   8.567  1.00 37.01 LIG 0.16  HD
ATOM     43 21HE GLN C1006       5.272 -37.812   7.969  1.00 37.01 LIG 0.16  HD
ENDBRANCH 38 39
ENDBRANCH 37 38
ENDBRANCH 36 37
BRANCH 36 44
ATOM     44  C   GLN C1006       1.289 -34.672   9.018  1.00 30.09 LIG 0.24  C 
ATOM     45  N   VAL C1007       0.525 -35.223   9.967  1.00 30.97 LIG-0.35  N 
ATOM     46 H    VAL C1007      -0.104 -35.782   9.788  1.00 30.97 LIG 0.16  HD
ATOM     47 O    GLN C1006       2.123 -33.780   9.226  1.00 30.15 LIG-0.27  OA
BRANCH 45 48
ATOM     48  CA  VAL C1007       0.659 -34.947  11.407  1.00 32.05 LIG 0.18  C 
BRANCH 48 49
ATOM     49  CB  VAL C1007      -0.272 -35.882  12.242  1.00 32.12 LIG 0.01  C 
ATOM     50  CG1 VAL C1007      -0.515 -37.222  11.550  1.00 30.72 LIG 0.01  C 
ATOM     51  CG2 VAL C1007      -1.593 -35.204  12.585  1.00 30.85 LIG 0.01  C 
ENDBRANCH 48 49
BRANCH 48 52
ATOM     52  C   VAL C1007       2.134 -35.339  11.702  1.00 33.20 LIG 0.24  C 
ATOM     53 O    VAL C1007       2.695 -36.115  10.937  1.00 34.91 LIG-0.27  OA
ATOM     54  N   THR C1008       2.780 -34.857  12.767  1.00 34.53 LIG-0.34  N 
ATOM     55 H    THR C1008       3.612 -35.034  12.892  1.00 34.53 LIG 0.16  HD
BRANCH 54 56
ATOM     56  CA  THR C1008       2.250 -34.011  13.833  1.00 33.96 LIG 0.19  C 
BRANCH 56 57
ATOM     57  C   THR C1008       1.877 -32.657  13.233  1.00 33.93 LIG 0.22  C 
ATOM     58 O    THR C1008       0.699 -32.343  13.037  1.00 34.05 LIG-0.29  OA
ENDBRANCH 56 57
BRANCH 56 59
ATOM     59  CB  THR C1008       3.312 -33.773  14.971  1.00 34.51 LIG 0.14  C 
ATOM     60  CG2 THR C1008       3.259 -34.853  16.053  1.00 33.41 LIG 0.04  C 
BRANCH 59 61
ATOM     61 OG1  THR C1008       4.622 -33.783  14.414  1.00 32.91 LIG-0.39  OA
ATOM     62 HG1  THR C1008       4.588 -33.532  13.613  1.00 32.91 LIG 0.21  HD
ENDBRANCH 59 61
ENDBRANCH 56 59
ENDBRANCH 54 56
ENDBRANCH 48 52
ENDBRANCH 45 48
ENDBRANCH 36 44
ENDBRANCH 34 36
ENDBRANCH 1 32
TORSDOF 23
ENDMDL
MODEL 26
USER: ADFR SOLUTION from run 122
USER: SCORE 18.646243 LL:  -3.940 LR: -15.770 RR:   0.000 FEB:  -8.910
USER: RMSD 4.399757
USER: SEED 121
USER: STATUS searching
USER: GENES 25
USER: genes 0 Translation |==|  0.44777 0.63379 0.49661
USER: genes 1 Rotation |==|  0.52940 0.28505 0.60303 0.93854
USER: genes 2 Torsion [CB]-CA--N-[C] |==|  0.85408
USER: genes 3 Torsion [N]-C--CA-[N] |==|  0.26831
USER: genes 4 Torsion [C]-CA--N-[C] |==|  0.57088
USER: genes 5 Torsion [N]-C--CA-[N] |==|  0.84761
USER: genes 6 Torsion [C]-CA--CB-[CG] |==|  0.13480
USER: genes 7 Torsion [CA]-CB--CG-[CD] |==|  0.29997
USER: genes 8 Torsion [CB]-CG--CD-[NE] |==|  0.35466
USER: genes 9 Torsion [CG]-CD--NE-[HE] |==|  0.06480
USER: genes 10 Torsion [N]-CA--CB-[CG] |==|  0.87898
USER: genes 11 Torsion [CA]-CB--CG-[CD2] |==|  0.90067
USER: genes 12 Torsion [N]-CA--C-[N] |==|  0.39107
USER: genes 13 Torsion [C]-N--CA-[C] |==|  0.61880
USER: genes 14 Torsion [N]-CA--CB-[CG] |==|  0.79734
USER: genes 15 Torsion [CA]-CB--CG-[CD] |==|  0.24134
USER: genes 16 Torsion [CB]-CG--CD-[OE1] |==|  0.14557
USER: genes 17 Torsion [N]-CA--C-[N] |==|  0.41971
USER: genes 18 Torsion [C]-N--CA-[CB] |==|  0.54445
USER: genes 19 Torsion [N]-CA--CB-[CG1] |==|  0.65633
USER: genes 20 Torsion [N]-CA--C-[N] |==|  0.38521
USER: genes 21 Torsion [C]-N--CA-[C] |==|  0.62765
USER: genes 22 Torsion [N]-CA--C-[O] |==|  0.92080
USER: genes 23 Torsion [N]-CA--CB-[OG1] |==|  0.98394
USER: genes 24 Torsion [CA]-CB--OG1-[HG1] |==|  0.93432
ROOT
ATOM      1  CA  PHE C1005       0.108 -32.871   6.768  1.00 26.32 LIG 0.18  C 
ENDROOT
BRANCH 1 2
ATOM      2  N   PHE C1005       0.721 -33.242   5.501  1.00 26.54 LIG-0.35  N 
ATOM      3  C   ARG C1004       0.109 -34.063   4.646  1.00 27.34 LIG 0.24  C 
ATOM      4 O    ARG C1004      -1.055 -34.436   4.788  1.00 26.08 LIG-0.27  OA
ATOM      5 H    PHE C1005       1.495 -32.891   5.362  1.00 26.54 LIG 0.16  HD
BRANCH 3 6
ATOM      6  CA  ARG C1004       0.932 -34.529   3.434  1.00 28.49 LIG 0.18  C 
BRANCH 6 7
ATOM      7  N   ARG C1004       1.553 -35.836   3.626  1.00 30.45 LIG-0.35  N 
ATOM      8  C   GLY C1003       2.657 -36.157   2.951  1.00 32.03 LIG 0.25  C 
ATOM      9 O    GLY C1003       3.219 -35.365   2.196  1.00 33.62 LIG-0.27  OA
ATOM     10 H    ARG C1004       1.156 -36.351   4.189  1.00 30.45 LIG 0.16  HD
BRANCH 8 11
ATOM     11  CA  GLY C1003       3.212 -37.550   3.161  1.00 33.10 LIG 0.47  C 
ATOM     12  N   GLY C1003       3.462 -37.849   4.596  1.00 33.92 LIG 0.61  N 
ENDBRANCH 8 11
ENDBRANCH 6 7
BRANCH 6 13
ATOM     13  CB  ARG C1004       0.084 -34.496   2.158  1.00 28.45 LIG 0.04  C 
BRANCH 13 14
ATOM     14  CG  ARG C1004      -0.675 -33.207   1.951  1.00 27.92 LIG 0.02  C 
BRANCH 14 15
ATOM     15  CD  ARG C1004      -0.072 -32.380   0.815  1.00 26.34 LIG 0.14  C 
BRANCH 15 16
ATOM     16  NE  ARG C1004      -1.091 -32.007  -0.155  1.00 24.25 LIG-0.23  N 
ATOM     17 HE   ARG C1004      -1.908 -31.989   0.113  1.00 24.25 LIG 0.18  HD
ATOM     18  CZ  ARG C1004      -0.853 -31.693  -1.425  1.00 25.16 LIG 0.67  C 
ATOM     19  NH2 ARG C1004      -1.861 -31.358  -2.208  1.00 24.86 LIG-0.23  N 
ATOM     20  NH1 ARG C1004       0.377 -31.733  -1.915  1.00 22.12 LIG-0.23  N 
ATOM     21 1HH2 ARG C1004      -2.662 -31.344  -1.896  1.00 24.86 LIG 0.17  HD
ATOM     22 2HH2 ARG C1004      -1.716 -31.154  -3.031  1.00 24.86 LIG 0.17  HD
ATOM     23 1HH1 ARG C1004       1.034 -31.964  -1.411  1.00 22.12 LIG 0.17  HD
ATOM     24 2HH1 ARG C1004       0.519 -31.528  -2.738  1.00 22.12 LIG 0.17  HD
ENDBRANCH 15 16
ENDBRANCH 14 15
ENDBRANCH 13 14
ENDBRANCH 6 13
ENDBRANCH 3 6
ENDBRANCH 1 2
BRANCH 1 25
ATOM     25  CB  PHE C1005      -1.300 -32.337   6.532  1.00 25.48 LIG 0.07  C 
BRANCH 25 26
ATOM     26  CG  PHE C1005      -1.383 -31.397   5.371  1.00 23.55 LIG-0.06  A 
ATOM     27  CD1 PHE C1005      -2.511 -31.396   4.533  1.00 22.30 LIG 0.01  A 
ATOM     28  CE1 PHE C1005      -2.585 -30.524   3.435  1.00 23.64 LIG 0.00  A 
ATOM     29  CZ  PHE C1005      -1.489 -29.663   3.166  1.00 21.73 LIG 0.00  A 
ATOM     30  CE2 PHE C1005      -0.378 -29.659   3.999  1.00 19.92 LIG 0.00  A 
ATOM     31  CD2 PHE C1005      -0.320 -30.526   5.106  1.00 21.20 LIG 0.01  A 
ENDBRANCH 25 26
ENDBRANCH 1 25
BRANCH 1 32
ATOM     32  C   PHE C1005       0.044 -34.033   7.728  1.00 27.26 LIG 0.24  C 
ATOM     33 O    PHE C1005      -0.219 -35.155   7.311  1.00 28.13 LIG-0.27  OA
ATOM     34  N   GLN C1006       0.296 -33.735   8.998  1.00 28.15 LIG-0.35  N 
ATOM     35 H    GLN C1006       0.590 -32.966   9.248  1.00 28.15 LIG 0.16  HD
BRANCH 34 36
ATOM     36  CA  GLN C1006       0.103 -34.671  10.105  1.00 29.76 LIG 0.18  C 
BRANCH 36 37
ATOM     37  CB  GLN C1006       1.433 -35.284  10.535  1.00 29.94 LIG 0.04  C 
BRANCH 37 38
ATOM     38  CG  GLN C1006       2.006 -36.307   9.572  1.00 33.02 LIG 0.10  C 
BRANCH 38 39
ATOM     39  CD  GLN C1006       2.853 -35.675   8.483  1.00 35.46 LIG 0.21  C 
ATOM     40 OE1  GLN C1006       3.771 -34.904   8.766  1.00 38.48 LIG-0.27  OA
ATOM     41  NE2 GLN C1006       2.541 -35.992   7.227  1.00 37.01 LIG-0.37  N 
ATOM     42 22HE GLN C1006       2.988 -35.655   6.574  1.00 37.01 LIG 0.16  HD
ATOM     43 21HE GLN C1006       1.893 -36.535   7.069  1.00 37.01 LIG 0.16  HD
ENDBRANCH 38 39
ENDBRANCH 37 38
ENDBRANCH 36 37
BRANCH 36 44
ATOM     44  C   GLN C1006      -0.551 -33.942  11.281  1.00 30.09 LIG 0.24  C 
ATOM     45  N   VAL C1007      -1.312 -34.703  12.074  1.00 30.97 LIG-0.35  N 
ATOM     46 H    VAL C1007      -1.482 -35.528  11.900  1.00 30.97 LIG 0.16  HD
ATOM     47 O    GLN C1006      -0.381 -32.725  11.439  1.00 30.15 LIG-0.27  OA
BRANCH 45 48
ATOM     48  CA  VAL C1007      -1.942 -34.236  13.320  1.00 32.05 LIG 0.18  C 
BRANCH 48 49
ATOM     49  CB  VAL C1007      -2.410 -35.442  14.194  1.00 32.12 LIG 0.01  C 
ATOM     50  CG1 VAL C1007      -3.900 -35.372  14.523  1.00 30.72 LIG 0.01  C 
ATOM     51  CG2 VAL C1007      -1.580 -35.573  15.466  1.00 30.85 LIG 0.01  C 
ENDBRANCH 48 49
BRANCH 48 52
ATOM     52  C   VAL C1007      -0.774 -33.524  14.058  1.00 33.20 LIG 0.24  C 
ATOM     53 O    VAL C1007       0.331 -34.054  14.047  1.00 34.91 LIG-0.27  OA
ATOM     54  N   THR C1008      -0.961 -32.369  14.702  1.00 34.53 LIG-0.34  N 
ATOM     55 H    THR C1008      -0.298 -31.954  15.059  1.00 34.53 LIG 0.16  HD
BRANCH 54 56
ATOM     56  CA  THR C1008      -2.214 -31.647  14.908  1.00 33.96 LIG 0.19  C 
BRANCH 56 57
ATOM     57  C   THR C1008      -1.976 -30.172  14.592  1.00 33.93 LIG 0.22  C 
ATOM     58 O    THR C1008      -0.866 -29.654  14.737  1.00 34.05 LIG-0.29  OA
ENDBRANCH 56 57
BRANCH 56 59
ATOM     59  CB  THR C1008      -2.714 -31.760  16.397  1.00 34.51 LIG 0.14  C 
ATOM     60  CG2 THR C1008      -4.146 -32.290  16.491  1.00 33.41 LIG 0.04  C 
BRANCH 59 61
ATOM     61 OG1  THR C1008      -1.873 -32.654  17.119  1.00 32.91 LIG-0.39  OA
ATOM     62 HG1  THR C1008      -1.497 -33.180  16.582  1.00 32.91 LIG 0.21  HD
ENDBRANCH 59 61
ENDBRANCH 56 59
ENDBRANCH 54 56
ENDBRANCH 48 52
ENDBRANCH 45 48
ENDBRANCH 36 44
ENDBRANCH 34 36
ENDBRANCH 1 32
TORSDOF 23
ENDMDL
MODEL 27
USER: ADFR SOLUTION from run 40
USER: SCORE 18.610125 LL:  -4.804 LR: -15.759 RR:   0.000 FEB:  -8.898
USER: RMSD 5.321589
USER: SEED 39
USER: STATUS 1 or 2 clusters left
USER: GENES 25
USER: genes 0 Translation |==|  0.45378 0.50111 0.34789
USER: genes 1 Rotation |==|  0.17395 0.57654 0.22005 0.74384
USER: genes 2 Torsion [CB]-CA--N-[C] |==|  0.25833
USER: genes 3 Torsion [N]-C--CA-[N] |==|  0.93414
USER: genes 4 Torsion [C]-CA--N-[C] |==|  0.83473
USER: genes 5 Torsion [N]-C--CA-[N] |==|  0.96486
USER: genes 6 Torsion [C]-CA--CB-[CG] |==|  0.82114
USER: genes 7 Torsion [CA]-CB--CG-[CD] |==|  0.49455
USER: genes 8 Torsion [CB]-CG--CD-[NE] |==|  0.35657
USER: genes 9 Torsion [CG]-CD--NE-[HE] |==|  0.87059
USER: genes 10 Torsion [N]-CA--CB-[CG] |==|  0.10541
USER: genes 11 Torsion [CA]-CB--CG-[CD2] |==|  0.10499
USER: genes 12 Torsion [N]-CA--C-[N] |==|  0.96520
USER: genes 13 Torsion [C]-N--CA-[C] |==|  0.79306
USER: genes 14 Torsion [N]-CA--CB-[CG] |==|  0.87947
USER: genes 15 Torsion [CA]-CB--CG-[CD] |==|  0.41424
USER: genes 16 Torsion [CB]-CG--CD-[OE1] |==|  0.96746
USER: genes 17 Torsion [N]-CA--C-[N] |==|  0.33889
USER: genes 18 Torsion [C]-N--CA-[CB] |==|  0.22904
USER: genes 19 Torsion [N]-CA--CB-[CG1] |==|  0.41663
USER: genes 20 Torsion [N]-CA--C-[N] |==|  0.35185
USER: genes 21 Torsion [C]-N--CA-[C] |==|  0.83440
USER: genes 22 Torsion [N]-CA--C-[O] |==|  0.32114
USER: genes 23 Torsion [N]-CA--CB-[OG1] |==|  0.87125
USER: genes 24 Torsion [CA]-CB--OG1-[HG1] |==|  0.12183
ROOT
ATOM      1  CA  PHE C1005       0.226 -35.259   2.641  1.00 26.32 LIG 0.18  C 
ENDROOT
BRANCH 1 2
ATOM      2  N   PHE C1005      -1.193 -34.977   2.480  1.00 26.54 LIG-0.35  N 
ATOM      3  C   ARG C1004      -2.039 -35.902   2.023  1.00 27.34 LIG 0.24  C 
ATOM      4 O    ARG C1004      -1.722 -37.079   1.853  1.00 26.08 LIG-0.27  OA
ATOM      5 H    PHE C1005      -1.425 -34.178   2.701  1.00 26.54 LIG 0.16  HD
BRANCH 3 6
ATOM      6  CA  ARG C1004      -3.470 -35.431   1.718  1.00 28.49 LIG 0.18  C 
BRANCH 6 7
ATOM      7  N   ARG C1004      -3.854 -34.232   2.458  1.00 30.45 LIG-0.35  N 
ATOM      8  C   GLY C1003      -3.846 -34.238   3.791  1.00 32.03 LIG 0.25  C 
ATOM      9 O    GLY C1003      -3.471 -35.213   4.442  1.00 33.62 LIG-0.27  OA
ATOM     10 H    ARG C1004      -4.074 -33.558   1.972  1.00 30.45 LIG 0.16  HD
BRANCH 8 11
ATOM     11  CA  GLY C1003      -4.310 -32.976   4.488  1.00 33.10 LIG 0.47  C 
ATOM     12  N   GLY C1003      -4.418 -31.823   3.555  1.00 33.92 LIG 0.61  N 
ENDBRANCH 8 11
ENDBRANCH 6 7
BRANCH 6 13
ATOM     13  CB  ARG C1004      -3.670 -35.244   0.211  1.00 28.45 LIG 0.04  C 
BRANCH 13 14
ATOM     14  CG  ARG C1004      -2.820 -34.154  -0.397  1.00 27.92 LIG 0.02  C 
BRANCH 14 15
ATOM     15  CD  ARG C1004      -3.034 -34.054  -1.907  1.00 26.34 LIG 0.14  C 
BRANCH 15 16
ATOM     16  NE  ARG C1004      -3.337 -32.687  -2.301  1.00 24.25 LIG-0.23  N 
ATOM     17 HE   ARG C1004      -3.924 -32.260  -1.839  1.00 24.25 LIG 0.18  HD
ATOM     18  CZ  ARG C1004      -2.776 -32.048  -3.323  1.00 25.16 LIG 0.67  C 
ATOM     19  NH2 ARG C1004      -3.124 -30.800  -3.576  1.00 24.86 LIG-0.23  N 
ATOM     20  NH1 ARG C1004      -1.890 -32.654  -4.099  1.00 22.12 LIG-0.23  N 
ATOM     21 1HH2 ARG C1004      -3.708 -30.408  -3.082  1.00 24.86 LIG 0.17  HD
ATOM     22 2HH2 ARG C1004      -2.766 -30.380  -4.235  1.00 24.86 LIG 0.17  HD
ATOM     23 1HH1 ARG C1004      -1.671 -33.472  -3.945  1.00 22.12 LIG 0.17  HD
ATOM     24 2HH1 ARG C1004      -1.534 -32.231  -4.757  1.00 22.12 LIG 0.17  HD
ENDBRANCH 15 16
ENDBRANCH 14 15
ENDBRANCH 13 14
ENDBRANCH 6 13
ENDBRANCH 3 6
ENDBRANCH 1 2
BRANCH 1 25
ATOM     25  CB  PHE C1005       0.987 -34.850   1.386  1.00 25.48 LIG 0.07  C 
BRANCH 25 26
ATOM     26  CG  PHE C1005       0.469 -33.588   0.771  1.00 23.55 LIG-0.06  A 
ATOM     27  CD1 PHE C1005       0.429 -33.438  -0.625  1.00 22.30 LIG 0.01  A 
ATOM     28  CE1 PHE C1005      -0.044 -32.249  -1.203  1.00 23.64 LIG 0.00  A 
ATOM     29  CZ  PHE C1005      -0.456 -31.189  -0.355  1.00 21.73 LIG 0.00  A 
ATOM     30  CE2 PHE C1005      -0.424 -31.340   1.026  1.00 19.92 LIG 0.00  A 
ATOM     31  CD2 PHE C1005       0.039 -32.542   1.595  1.00 21.20 LIG 0.01  A 
ENDBRANCH 25 26
ENDBRANCH 1 25
BRANCH 1 32
ATOM     32  C   PHE C1005       0.813 -34.544   3.833  1.00 27.26 LIG 0.24  C 
ATOM     33 O    PHE C1005       1.930 -34.848   4.237  1.00 28.13 LIG-0.27  OA
ATOM     34  N   GLN C1006       0.044 -33.601   4.365  1.00 28.15 LIG-0.35  N 
ATOM     35 H    GLN C1006      -0.683 -33.327   3.996  1.00 28.15 LIG 0.16  HD
BRANCH 34 36
ATOM     36  CA  GLN C1006       0.344 -32.926   5.627  1.00 29.76 LIG 0.18  C 
BRANCH 36 37
ATOM     37  CB  GLN C1006      -0.478 -31.647   5.766  1.00 29.94 LIG 0.04  C 
BRANCH 37 38
ATOM     38  CG  GLN C1006      -0.557 -30.798   4.512  1.00 33.02 LIG 0.10  C 
BRANCH 38 39
ATOM     39  CD  GLN C1006      -1.862 -30.029   4.407  1.00 35.46 LIG 0.21  C 
ATOM     40 OE1  GLN C1006      -2.805 -30.283   5.156  1.00 38.48 LIG-0.27  OA
ATOM     41  NE2 GLN C1006      -1.923 -29.088   3.465  1.00 37.01 LIG-0.37  N 
ATOM     42 22HE GLN C1006      -2.643 -28.630   3.362  1.00 37.01 LIG 0.16  HD
ATOM     43 21HE GLN C1006      -1.242 -28.940   2.961  1.00 37.01 LIG 0.16  HD
ENDBRANCH 38 39
ENDBRANCH 37 38
ENDBRANCH 36 37
BRANCH 36 44
ATOM     44  C   GLN C1006       0.054 -33.873   6.794  1.00 30.09 LIG 0.24  C 
ATOM     45  N   VAL C1007       1.090 -34.121   7.601  1.00 30.97 LIG-0.35  N 
ATOM     46 H    VAL C1007       1.883 -33.828   7.440  1.00 30.97 LIG 0.16  HD
ATOM     47 O    GLN C1006      -1.071 -34.373   6.932  1.00 30.15 LIG-0.27  OA
BRANCH 45 48
ATOM     48  CA  VAL C1007       1.009 -34.910   8.841  1.00 32.05 LIG 0.18  C 
BRANCH 48 49
ATOM     49  CB  VAL C1007       1.085 -36.439   8.534  1.00 32.12 LIG 0.01  C 
ATOM     50  CG1 VAL C1007       1.722 -37.226   9.677  1.00 30.72 LIG 0.01  C 
ATOM     51  CG2 VAL C1007       1.805 -36.716   7.219  1.00 30.85 LIG 0.01  C 
ENDBRANCH 48 49
BRANCH 48 52
ATOM     52  C   VAL C1007       2.302 -34.502   9.601  1.00 33.20 LIG 0.24  C 
ATOM     53 O    VAL C1007       3.377 -34.612   9.023  1.00 34.91 LIG-0.27  OA
ATOM     54  N   THR C1008       2.255 -34.053  10.858  1.00 34.53 LIG-0.34  N 
ATOM     55 H    THR C1008       2.968 -33.776  11.251  1.00 34.53 LIG 0.16  HD
BRANCH 54 56
ATOM     56  CA  THR C1008       1.091 -33.951  11.734  1.00 33.96 LIG 0.19  C 
BRANCH 56 57
ATOM     57  C   THR C1008       0.066 -33.034  11.069  1.00 33.93 LIG 0.22  C 
ATOM     58 O    THR C1008      -1.037 -33.456  10.710  1.00 34.05 LIG-0.29  OA
ENDBRANCH 56 57
BRANCH 56 59
ATOM     59  CB  THR C1008       1.467 -33.340  13.136  1.00 34.51 LIG 0.14  C 
ATOM     60  CG2 THR C1008       0.359 -33.536  14.172  1.00 33.41 LIG 0.04  C 
BRANCH 59 61
ATOM     61 OG1  THR C1008       2.642 -33.970  13.634  1.00 32.91 LIG-0.39  OA
ATOM     62 HG1  THR C1008       3.206 -34.040  13.015  1.00 32.91 LIG 0.21  HD
ENDBRANCH 59 61
ENDBRANCH 56 59
ENDBRANCH 54 56
ENDBRANCH 48 52
ENDBRANCH 45 48
ENDBRANCH 36 44
ENDBRANCH 34 36
ENDBRANCH 1 32
TORSDOF 23
ENDMDL
MODEL 28
USER: ADFR SOLUTION from run 155
USER: SCORE 17.751766 LL:  -3.999 LR: -15.749 RR:   0.000 FEB:  -8.889
USER: RMSD 6.943846
USER: SEED 154
USER: STATUS no improvement in best in 13 clusters for 5 generations
USER: GENES 25
USER: genes 0 Translation |==|  0.46156 0.58042 0.47810
USER: genes 1 Rotation |==|  0.74886 0.47352 0.46310 0.93128
USER: genes 2 Torsion [CB]-CA--N-[C] |==|  0.77113
USER: genes 3 Torsion [N]-C--CA-[N] |==|  0.59444
USER: genes 4 Torsion [C]-CA--N-[C] |==|  0.16180
USER: genes 5 Torsion [N]-C--CA-[N] |==|  0.40220
USER: genes 6 Torsion [C]-CA--CB-[CG] |==|  0.39972
USER: genes 7 Torsion [CA]-CB--CG-[CD] |==|  0.93047
USER: genes 8 Torsion [CB]-CG--CD-[NE] |==|  0.31714
USER: genes 9 Torsion [CG]-CD--NE-[HE] |==|  0.87061
USER: genes 10 Torsion [N]-CA--CB-[CG] |==|  0.59066
USER: genes 11 Torsion [CA]-CB--CG-[CD2] |==|  0.96368
USER: genes 12 Torsion [N]-CA--C-[N] |==|  0.17313
USER: genes 13 Torsion [C]-N--CA-[C] |==|  0.71457
USER: genes 14 Torsion [N]-CA--CB-[CG] |==|  0.98603
USER: genes 15 Torsion [CA]-CB--CG-[CD] |==|  0.30064
USER: genes 16 Torsion [CB]-CG--CD-[OE1] |==|  0.02493
USER: genes 17 Torsion [N]-CA--C-[N] |==|  0.90645
USER: genes 18 Torsion [C]-N--CA-[CB] |==|  0.88683
USER: genes 19 Torsion [N]-CA--CB-[CG1] |==|  0.83001
USER: genes 20 Torsion [N]-CA--C-[N] |==|  0.30050
USER: genes 21 Torsion [C]-N--CA-[C] |==|  0.58448
USER: genes 22 Torsion [N]-CA--C-[O] |==|  0.99184
USER: genes 23 Torsion [N]-CA--CB-[OG1] |==|  0.93288
USER: genes 24 Torsion [CA]-CB--OG1-[HG1] |==|  0.22819
ROOT
ATOM      1  CA  PHE C1005       0.377 -33.831   6.254  1.00 26.32 LIG 0.18  C 
ENDROOT
BRANCH 1 2
ATOM      2  N   PHE C1005      -0.227 -32.974   5.245  1.00 26.54 LIG-0.35  N 
ATOM      3  C   ARG C1004      -1.252 -33.392   4.501  1.00 27.34 LIG 0.24  C 
ATOM      4 O    ARG C1004      -1.848 -34.449   4.708  1.00 26.08 LIG-0.27  OA
ATOM      5 H    PHE C1005       0.131 -32.195   5.178  1.00 26.54 LIG 0.16  HD
BRANCH 3 6
ATOM      6  CA  ARG C1004      -1.681 -32.473   3.346  1.00 28.49 LIG 0.18  C 
BRANCH 6 7
ATOM      7  N   ARG C1004      -3.119 -32.495   3.093  1.00 30.45 LIG-0.35  N 
ATOM      8  C   GLY C1003      -3.974 -32.166   4.062  1.00 32.03 LIG 0.25  C 
ATOM      9 O    GLY C1003      -3.596 -31.785   5.170  1.00 33.62 LIG-0.27  OA
ATOM     10 H    ARG C1004      -3.347 -32.729   2.298  1.00 30.45 LIG 0.16  HD
BRANCH 8 11
ATOM     11  CA  GLY C1003      -5.450 -32.266   3.742  1.00 33.10 LIG 0.47  C 
ATOM     12  N   GLY C1003      -6.254 -32.706   4.914  1.00 33.92 LIG 0.61  N 
ENDBRANCH 8 11
ENDBRANCH 6 7
BRANCH 6 13
ATOM     13  CB  ARG C1004      -1.177 -31.045   3.575  1.00 28.45 LIG 0.04  C 
BRANCH 13 14
ATOM     14  CG  ARG C1004      -0.758 -30.325   2.314  1.00 27.92 LIG 0.02  C 
BRANCH 14 15
ATOM     15  CD  ARG C1004      -0.347 -31.309   1.220  1.00 26.34 LIG 0.14  C 
BRANCH 15 16
ATOM     16  NE  ARG C1004      -1.270 -31.254   0.095  1.00 24.25 LIG-0.23  N 
ATOM     17 HE   ARG C1004      -2.112 -31.262   0.271  1.00 24.25 LIG 0.18  HD
ATOM     18  CZ  ARG C1004      -0.909 -31.192  -1.182  1.00 25.16 LIG 0.67  C 
ATOM     19  NH2 ARG C1004      -1.840 -31.133  -2.116  1.00 24.86 LIG-0.23  N 
ATOM     20  NH1 ARG C1004       0.370 -31.209  -1.528  1.00 22.12 LIG-0.23  N 
ATOM     21 1HH2 ARG C1004      -2.671 -31.134  -1.894  1.00 24.86 LIG 0.17  HD
ATOM     22 2HH2 ARG C1004      -1.616 -31.093  -2.944  1.00 24.86 LIG 0.17  HD
ATOM     23 1HH1 ARG C1004       0.979 -31.261  -0.923  1.00 22.12 LIG 0.17  HD
ATOM     24 2HH1 ARG C1004       0.591 -31.169  -2.358  1.00 22.12 LIG 0.17  HD
ENDBRANCH 15 16
ENDBRANCH 14 15
ENDBRANCH 13 14
ENDBRANCH 6 13
ENDBRANCH 3 6
ENDBRANCH 1 2
BRANCH 1 25
ATOM     25  CB  PHE C1005      -0.435 -33.778   7.542  1.00 25.48 LIG 0.07  C 
BRANCH 25 26
ATOM     26  CG  PHE C1005       0.404 -33.929   8.772  1.00 23.55 LIG-0.06  A 
ATOM     27  CD1 PHE C1005      -0.120 -33.616  10.037  1.00 22.30 LIG 0.01  A 
ATOM     28  CE1 PHE C1005       0.671 -33.744  11.190  1.00 23.64 LIG 0.00  A 
ATOM     29  CZ  PHE C1005       2.019 -34.169  11.056  1.00 21.73 LIG 0.00  A 
ATOM     30  CE2 PHE C1005       2.534 -34.487   9.805  1.00 19.92 LIG 0.00  A 
ATOM     31  CD2 PHE C1005       1.728 -34.369   8.657  1.00 21.20 LIG 0.01  A 
ENDBRANCH 25 26
ENDBRANCH 1 25
BRANCH 1 32
ATOM     32  C   PHE C1005       0.481 -35.264   5.792  1.00 27.26 LIG 0.24  C 
ATOM     33 O    PHE C1005      -0.127 -36.144   6.391  1.00 28.13 LIG-0.27  OA
ATOM     34  N   GLN C1006       1.247 -35.463   4.725  1.00 28.15 LIG-0.35  N 
ATOM     35 H    GLN C1006       1.569 -34.819   4.254  1.00 28.15 LIG 0.16  HD
BRANCH 34 36
ATOM     36  CA  GLN C1006       1.627 -36.786   4.234  1.00 29.76 LIG 0.18  C 
BRANCH 36 37
ATOM     37  CB  GLN C1006       1.481 -36.865   2.717  1.00 29.94 LIG 0.04  C 
BRANCH 37 38
ATOM     38  CG  GLN C1006       0.874 -35.635   2.069  1.00 33.02 LIG 0.10  C 
BRANCH 38 39
ATOM     39  CD  GLN C1006       1.890 -34.827   1.281  1.00 35.46 LIG 0.21  C 
ATOM     40 OE1  GLN C1006       3.022 -35.266   1.076  1.00 38.48 LIG-0.27  OA
ATOM     41  NE2 GLN C1006       1.491 -33.634   0.843  1.00 37.01 LIG-0.37  N 
ATOM     42 22HE GLN C1006       2.032 -33.136   0.398  1.00 37.01 LIG 0.16  HD
ATOM     43 21HE GLN C1006       0.691 -33.362   1.007  1.00 37.01 LIG 0.16  HD
ENDBRANCH 38 39
ENDBRANCH 37 38
ENDBRANCH 36 37
BRANCH 36 44
ATOM     44  C   GLN C1006       3.071 -37.088   4.644  1.00 30.09 LIG 0.24  C 
ATOM     45  N   VAL C1007       3.888 -36.030   4.681  1.00 30.97 LIG-0.35  N 
ATOM     46 H    VAL C1007       3.642 -35.247   4.425  1.00 30.97 LIG 0.16  HD
ATOM     47 O    GLN C1006       3.423 -38.249   4.895  1.00 30.15 LIG-0.27  OA
BRANCH 45 48
ATOM     48  CA  VAL C1007       5.281 -36.072   5.153  1.00 32.05 LIG 0.18  C 
BRANCH 48 49
ATOM     49  CB  VAL C1007       5.413 -36.973   6.422  1.00 32.12 LIG 0.01  C 
ATOM     50  CG1 VAL C1007       4.578 -36.450   7.589  1.00 30.72 LIG 0.01  C 
ATOM     51  CG2 VAL C1007       6.868 -37.154   6.837  1.00 30.85 LIG 0.01  C 
ENDBRANCH 48 49
BRANCH 48 52
ATOM     52  C   VAL C1007       6.028 -36.770   3.982  1.00 33.20 LIG 0.24  C 
ATOM     53 O    VAL C1007       5.852 -37.972   3.813  1.00 34.91 LIG-0.27  OA
ATOM     54  N   THR C1008       6.851 -36.090   3.180  1.00 34.53 LIG-0.34  N 
ATOM     55 H    THR C1008       7.215 -36.472   2.501  1.00 34.53 LIG 0.16  HD
BRANCH 54 56
ATOM     56  CA  THR C1008       7.260 -34.693   3.288  1.00 33.96 LIG 0.19  C 
BRANCH 56 57
ATOM     57  C   THR C1008       7.530 -34.161   1.882  1.00 33.93 LIG 0.22  C 
ATOM     58 O    THR C1008       7.446 -34.892   0.891  1.00 34.05 LIG-0.29  OA
ENDBRANCH 56 57
BRANCH 56 59
ATOM     59  CB  THR C1008       8.575 -34.533   4.139  1.00 34.51 LIG 0.14  C 
ATOM     60  CG2 THR C1008       8.568 -33.262   4.989  1.00 33.41 LIG 0.04  C 
BRANCH 59 61
ATOM     61 OG1  THR C1008       8.714 -35.643   5.020  1.00 32.91 LIG-0.39  OA
ATOM     62 HG1  THR C1008       9.052 -36.290   4.605  1.00 32.91 LIG 0.21  HD
ENDBRANCH 59 61
ENDBRANCH 56 59
ENDBRANCH 54 56
ENDBRANCH 48 52
ENDBRANCH 45 48
ENDBRANCH 36 44
ENDBRANCH 34 36
ENDBRANCH 1 32
TORSDOF 23
ENDMDL
MODEL 29
USER: ADFR SOLUTION from run 150
USER: SCORE 16.789729 LL:  -3.189 LR: -15.727 RR:   0.000 FEB:  -8.866
USER: RMSD 3.881602
USER: SEED 149
USER: STATUS no improvement in best in 23 clusters for 5 generations
USER: GENES 25
USER: genes 0 Translation |==|  0.46394 0.58047 0.41010
USER: genes 1 Rotation |==|  0.62699 0.44120 0.49636 0.98000
USER: genes 2 Torsion [CB]-CA--N-[C] |==|  0.48552
USER: genes 3 Torsion [N]-C--CA-[N] |==|  0.25403
USER: genes 4 Torsion [C]-CA--N-[C] |==|  0.77018
USER: genes 5 Torsion [N]-C--CA-[N] |==|  0.12332
USER: genes 6 Torsion [C]-CA--CB-[CG] |==|  0.47287
USER: genes 7 Torsion [CA]-CB--CG-[CD] |==|  0.17540
USER: genes 8 Torsion [CB]-CG--CD-[NE] |==|  0.61024
USER: genes 9 Torsion [CG]-CD--NE-[HE] |==|  0.65010
USER: genes 10 Torsion [N]-CA--CB-[CG] |==|  0.90194
USER: genes 11 Torsion [CA]-CB--CG-[CD2] |==|  0.34004
USER: genes 12 Torsion [N]-CA--C-[N] |==|  0.34182
USER: genes 13 Torsion [C]-N--CA-[C] |==|  0.72377
USER: genes 14 Torsion [N]-CA--CB-[CG] |==|  0.40963
USER: genes 15 Torsion [CA]-CB--CG-[CD] |==|  0.66571
USER: genes 16 Torsion [CB]-CG--CD-[OE1] |==|  0.22253
USER: genes 17 Torsion [N]-CA--C-[N] |==|  0.85436
USER: genes 18 Torsion [C]-N--CA-[CB] |==|  0.87777
USER: genes 19 Torsion [N]-CA--CB-[CG1] |==|  0.85648
USER: genes 20 Torsion [N]-CA--C-[N] |==|  0.40933
USER: genes 21 Torsion [C]-N--CA-[C] |==|  0.67373
USER: genes 22 Torsion [N]-CA--C-[O] |==|  0.76379
USER: genes 23 Torsion [N]-CA--CB-[OG1] |==|  0.44341
USER: genes 24 Torsion [CA]-CB--OG1-[HG1] |==|  0.16424
ROOT
ATOM      1  CA  PHE C1005       0.424 -33.830   4.367  1.00 26.32 LIG 0.18  C 
ENDROOT
BRANCH 1 2
ATOM      2  N   PHE C1005      -0.039 -33.655   2.999  1.00 26.54 LIG-0.35  N 
ATOM      3  C   ARG C1004       0.701 -34.044   1.958  1.00 27.34 LIG 0.24  C 
ATOM      4 O    ARG C1004       1.735 -34.700   2.076  1.00 26.08 LIG-0.27  OA
ATOM      5 H    PHE C1005      -0.814 -33.288   2.928  1.00 26.54 LIG 0.16  HD
BRANCH 3 6
ATOM      6  CA  ARG C1004       0.193 -33.637   0.566  1.00 28.49 LIG 0.18  C 
BRANCH 6 7
ATOM      7  N   ARG C1004       0.733 -32.361   0.104  1.00 30.45 LIG-0.35  N 
ATOM      8  C   GLY C1003       0.173 -31.217   0.498  1.00 32.03 LIG 0.25  C 
ATOM      9 O    GLY C1003      -0.766 -31.184   1.293  1.00 33.62 LIG-0.27  OA
ATOM     10 H    ARG C1004       1.411 -32.419  -0.420  1.00 30.45 LIG 0.16  HD
BRANCH 8 11
ATOM     11  CA  GLY C1003       0.752 -29.937  -0.067  1.00 33.10 LIG 0.47  C 
ATOM     12  N   GLY C1003       1.008 -30.029  -1.529  1.00 33.92 LIG 0.61  N 
ENDBRANCH 8 11
ENDBRANCH 6 7
BRANCH 6 13
ATOM     13  CB  ARG C1004       0.451 -34.752  -0.452  1.00 28.45 LIG 0.04  C 
BRANCH 13 14
ATOM     14  CG  ARG C1004      -0.220 -34.539  -1.789  1.00 27.92 LIG 0.02  C 
BRANCH 14 15
ATOM     15  CD  ARG C1004       0.312 -33.288  -2.488  1.00 26.34 LIG 0.14  C 
BRANCH 15 16
ATOM     16  NE  ARG C1004      -0.763 -32.562  -3.148  1.00 24.25 LIG-0.23  N 
ATOM     17 HE   ARG C1004      -0.668 -32.385  -3.984  1.00 24.25 LIG 0.18  HD
ATOM     18  CZ  ARG C1004      -1.880 -32.153  -2.555  1.00 25.16 LIG 0.67  C 
ATOM     19  NH2 ARG C1004      -2.791 -31.513  -3.263  1.00 24.86 LIG-0.23  N 
ATOM     20  NH1 ARG C1004      -2.078 -32.362  -1.262  1.00 22.12 LIG-0.23  N 
ATOM     21 1HH2 ARG C1004      -2.660 -31.365  -4.100  1.00 24.86 LIG 0.17  HD
ATOM     22 2HH2 ARG C1004      -3.516 -31.245  -2.888  1.00 24.86 LIG 0.17  HD
ATOM     23 1HH1 ARG C1004      -1.480 -32.767  -0.795  1.00 22.12 LIG 0.17  HD
ATOM     24 2HH1 ARG C1004      -2.805 -32.093  -0.889  1.00 22.12 LIG 0.17  HD
ENDBRANCH 15 16
ENDBRANCH 14 15
ENDBRANCH 13 14
ENDBRANCH 6 13
ENDBRANCH 3 6
ENDBRANCH 1 2
BRANCH 1 25
ATOM     25  CB  PHE C1005      -0.558 -33.185   5.339  1.00 25.48 LIG 0.07  C 
BRANCH 25 26
ATOM     26  CG  PHE C1005      -1.178 -31.935   4.800  1.00 23.55 LIG-0.06  A 
ATOM     27  CD1 PHE C1005      -0.375 -30.848   4.416  1.00 22.30 LIG 0.01  A 
ATOM     28  CE1 PHE C1005      -0.957 -29.668   3.924  1.00 23.64 LIG 0.00  A 
ATOM     29  CZ  PHE C1005      -2.371 -29.579   3.847  1.00 21.73 LIG 0.00  A 
ATOM     30  CE2 PHE C1005      -3.164 -30.657   4.220  1.00 19.92 LIG 0.00  A 
ATOM     31  CD2 PHE C1005      -2.571 -31.841   4.698  1.00 21.20 LIG 0.01  A 
ENDBRANCH 25 26
ENDBRANCH 1 25
BRANCH 1 32
ATOM     32  C   PHE C1005       0.592 -35.286   4.726  1.00 27.26 LIG 0.24  C 
ATOM     33 O    PHE C1005      -0.355 -36.056   4.614  1.00 28.13 LIG-0.27  OA
ATOM     34  N   GLN C1006       1.805 -35.632   5.144  1.00 28.15 LIG-0.35  N 
ATOM     35 H    GLN C1006       2.482 -35.102   5.103  1.00 28.15 LIG 0.16  HD
BRANCH 34 36
ATOM     36  CA  GLN C1006       2.126 -36.939   5.713  1.00 29.76 LIG 0.18  C 
BRANCH 36 37
ATOM     37  CB  GLN C1006       3.468 -37.444   5.190  1.00 29.94 LIG 0.04  C 
BRANCH 37 38
ATOM     38  CG  GLN C1006       4.259 -38.289   6.171  1.00 33.02 LIG 0.10  C 
BRANCH 38 39
ATOM     39  CD  GLN C1006       5.619 -37.694   6.492  1.00 35.46 LIG 0.21  C 
ATOM     40 OE1  GLN C1006       5.729 -36.779   7.308  1.00 38.48 LIG-0.27  OA
ATOM     41  NE2 GLN C1006       6.662 -38.208   5.841  1.00 37.01 LIG-0.37  N 
ATOM     42 22HE GLN C1006       7.452 -37.900   5.983  1.00 37.01 LIG 0.16  HD
ATOM     43 21HE GLN C1006       6.544 -38.847   5.278  1.00 37.01 LIG 0.16  HD
ENDBRANCH 38 39
ENDBRANCH 37 38
ENDBRANCH 36 37
BRANCH 36 44
ATOM     44  C   GLN C1006       2.155 -36.838   7.240  1.00 30.09 LIG 0.24  C 
ATOM     45  N   VAL C1007       2.932 -35.869   7.735  1.00 30.97 LIG-0.35  N 
ATOM     46 H    VAL C1007       3.436 -35.381   7.237  1.00 30.97 LIG 0.16  HD
ATOM     47 O    GLN C1006       1.507 -37.633   7.934  1.00 30.15 LIG-0.27  OA
BRANCH 45 48
ATOM     48  CA  VAL C1007       3.022 -35.522   9.162  1.00 32.05 LIG 0.18  C 
BRANCH 48 49
ATOM     49  CB  VAL C1007       1.605 -35.479   9.815  1.00 32.12 LIG 0.01  C 
ATOM     50  CG1 VAL C1007       0.635 -34.599   9.030  1.00 30.72 LIG 0.01  C 
ATOM     51  CG2 VAL C1007       1.669 -35.045  11.275  1.00 30.85 LIG 0.01  C 
ENDBRANCH 48 49
BRANCH 48 52
ATOM     52  C   VAL C1007       3.800 -36.725   9.767  1.00 33.20 LIG 0.24  C 
ATOM     53 O    VAL C1007       3.628 -37.835   9.276  1.00 34.91 LIG-0.27  OA
ATOM     54  N   THR C1008       4.628 -36.566  10.802  1.00 34.53 LIG-0.34  N 
ATOM     55 H    THR C1008       5.097 -37.226  11.093  1.00 34.53 LIG 0.16  HD
BRANCH 54 56
ATOM     56  CA  THR C1008       4.879 -35.353  11.575  1.00 33.96 LIG 0.19  C 
BRANCH 56 57
ATOM     57  C   THR C1008       6.347 -34.969  11.403  1.00 33.93 LIG 0.22  C 
ATOM     58 O    THR C1008       7.228 -35.463  12.112  1.00 34.05 LIG-0.29  OA
ENDBRANCH 56 57
BRANCH 56 59
ATOM     59  CB  THR C1008       4.600 -35.570  13.109  1.00 34.51 LIG 0.14  C 
ATOM     60  CG2 THR C1008       5.081 -36.937  13.601  1.00 33.41 LIG 0.04  C 
BRANCH 59 61
ATOM     61 OG1  THR C1008       5.280 -34.574  13.866  1.00 32.91 LIG-0.39  OA
ATOM     62 HG1  THR C1008       5.015 -33.813  13.629  1.00 32.91 LIG 0.21  HD
ENDBRANCH 59 61
ENDBRANCH 56 59
ENDBRANCH 54 56
ENDBRANCH 48 52
ENDBRANCH 45 48
ENDBRANCH 36 44
ENDBRANCH 34 36
ENDBRANCH 1 32
TORSDOF 23
ENDMDL
MODEL 30
USER: ADFR SOLUTION from run 198
USER: SCORE 17.423893 LL:  -3.488 LR: -15.734 RR:   0.000 FEB:  -8.873
USER: RMSD 4.348117
USER: SEED 197
USER: STATUS no improvement in best in 17 clusters for 5 generations
USER: GENES 25
USER: genes 0 Translation |==|  0.45011 0.55934 0.39631
USER: genes 1 Rotation |==|  0.58830 0.38813 0.59723 0.96929
USER: genes 2 Torsion [CB]-CA--N-[C] |==|  0.49182
USER: genes 3 Torsion [N]-C--CA-[N] |==|  0.18704
USER: genes 4 Torsion [C]-CA--N-[C] |==|  0.78049
USER: genes 5 Torsion [N]-C--CA-[N] |==|  0.44060
USER: genes 6 Torsion [C]-CA--CB-[CG] |==|  0.36463
USER: genes 7 Torsion [CA]-CB--CG-[CD] |==|  0.17809
USER: genes 8 Torsion [CB]-CG--CD-[NE] |==|  0.16523
USER: genes 9 Torsion [CG]-CD--NE-[HE] |==|  0.11818
USER: genes 10 Torsion [N]-CA--CB-[CG] |==|  0.78476
USER: genes 11 Torsion [CA]-CB--CG-[CD2] |==|  0.04209
USER: genes 12 Torsion [N]-CA--C-[N] |==|  0.37593
USER: genes 13 Torsion [C]-N--CA-[C] |==|  0.62634
USER: genes 14 Torsion [N]-CA--CB-[CG] |==|  0.89483
USER: genes 15 Torsion [CA]-CB--CG-[CD] |==|  0.35465
USER: genes 16 Torsion [CB]-CG--CD-[OE1] |==|  0.05794
USER: genes 17 Torsion [N]-CA--C-[N] |==|  0.50791
USER: genes 18 Torsion [C]-N--CA-[CB] |==|  0.58231
USER: genes 19 Torsion [N]-CA--CB-[CG1] |==|  0.38834
USER: genes 20 Torsion [N]-CA--C-[N] |==|  0.36016
USER: genes 21 Torsion [C]-N--CA-[C] |==|  0.64851
USER: genes 22 Torsion [N]-CA--C-[O] |==|  0.09606
USER: genes 23 Torsion [N]-CA--CB-[OG1] |==|  0.86004
USER: genes 24 Torsion [CA]-CB--OG1-[HG1] |==|  0.16235
ROOT
ATOM      1  CA  PHE C1005       0.154 -34.211   3.985  1.00 26.32 LIG 0.18  C 
ENDROOT
BRANCH 1 2
ATOM      2  N   PHE C1005       0.140 -34.384   2.540  1.00 26.54 LIG-0.35  N 
ATOM      3  C   ARG C1004       1.252 -34.680   1.863  1.00 27.34 LIG 0.24  C 
ATOM      4 O    ARG C1004       2.315 -34.973   2.411  1.00 26.08 LIG-0.27  OA
ATOM      5 H    PHE C1005      -0.632 -34.279   2.175  1.00 26.54 LIG 0.16  HD
BRANCH 3 6
ATOM      6  CA  ARG C1004       1.150 -34.651   0.330  1.00 28.49 LIG 0.18  C 
BRANCH 6 7
ATOM      7  N   ARG C1004       0.932 -33.312  -0.210  1.00 30.45 LIG-0.35  N 
ATOM      8  C   GLY C1003      -0.285 -32.769  -0.181  1.00 32.03 LIG 0.25  C 
ATOM      9 O    GLY C1003      -1.246 -33.337   0.338  1.00 33.62 LIG-0.27  OA
ATOM     10 H    ARG C1004       1.632 -32.929  -0.531  1.00 30.45 LIG 0.16  HD
BRANCH 8 11
ATOM     11  CA  GLY C1003      -0.444 -31.401  -0.810  1.00 33.10 LIG 0.47  C 
ATOM     12  N   GLY C1003      -1.854 -31.111  -1.183  1.00 33.92 LIG 0.61  N 
ENDBRANCH 8 11
ENDBRANCH 6 7
BRANCH 6 13
ATOM     13  CB  ARG C1004       2.373 -35.317  -0.307  1.00 28.45 LIG 0.04  C 
BRANCH 13 14
ATOM     14  CG  ARG C1004       2.040 -36.333  -1.376  1.00 27.92 LIG 0.02  C 
BRANCH 14 15
ATOM     15  CD  ARG C1004       1.350 -35.678  -2.573  1.00 26.34 LIG 0.14  C 
BRANCH 15 16
ATOM     16  NE  ARG C1004       2.199 -34.657  -3.169  1.00 24.25 LIG-0.23  N 
ATOM     17 HE   ARG C1004       3.035 -34.838  -3.261  1.00 24.25 LIG 0.18  HD
ATOM     18  CZ  ARG C1004       1.779 -33.465  -3.580  1.00 25.16 LIG 0.67  C 
ATOM     19  NH2 ARG C1004       2.643 -32.624  -4.118  1.00 24.86 LIG-0.23  N 
ATOM     20  NH1 ARG C1004       0.512 -33.104  -3.438  1.00 22.12 LIG-0.23  N 
ATOM     21 1HH2 ARG C1004       3.469 -32.851  -4.200  1.00 24.86 LIG 0.17  HD
ATOM     22 2HH2 ARG C1004       2.380 -31.851  -4.386  1.00 24.86 LIG 0.17  HD
ATOM     23 1HH1 ARG C1004      -0.051 -33.644  -3.075  1.00 22.12 LIG 0.17  HD
ATOM     24 2HH1 ARG C1004       0.252 -32.331  -3.708  1.00 22.12 LIG 0.17  HD
ENDBRANCH 15 16
ENDBRANCH 14 15
ENDBRANCH 13 14
ENDBRANCH 6 13
ENDBRANCH 3 6
ENDBRANCH 1 2
BRANCH 1 25
ATOM     25  CB  PHE C1005      -1.231 -33.809   4.477  1.00 25.48 LIG 0.07  C 
BRANCH 25 26
ATOM     26  CG  PHE C1005      -1.546 -32.367   4.229  1.00 23.55 LIG-0.06  A 
ATOM     27  CD1 PHE C1005      -2.635 -31.754   4.870  1.00 22.30 LIG 0.01  A 
ATOM     28  CE1 PHE C1005      -2.940 -30.405   4.627  1.00 23.64 LIG 0.00  A 
ATOM     29  CZ  PHE C1005      -2.148 -29.677   3.701  1.00 21.73 LIG 0.00  A 
ATOM     30  CE2 PHE C1005      -1.067 -30.282   3.073  1.00 19.92 LIG 0.00  A 
ATOM     31  CD2 PHE C1005      -0.760 -31.631   3.335  1.00 21.20 LIG 0.01  A 
ENDBRANCH 25 26
ENDBRANCH 1 25
BRANCH 1 32
ATOM     32  C   PHE C1005       0.591 -35.465   4.700  1.00 27.26 LIG 0.24  C 
ATOM     33 O    PHE C1005       0.143 -36.552   4.355  1.00 28.13 LIG-0.27  OA
ATOM     34  N   GLN C1006       1.467 -35.283   5.682  1.00 28.15 LIG-0.35  N 
ATOM     35 H    GLN C1006       1.853 -34.529   5.830  1.00 28.15 LIG 0.16  HD
BRANCH 34 36
ATOM     36  CA  GLN C1006       1.871 -36.334   6.615  1.00 29.76 LIG 0.18  C 
BRANCH 36 37
ATOM     37  CB  GLN C1006       3.257 -36.869   6.263  1.00 29.94 LIG 0.04  C 
BRANCH 37 38
ATOM     38  CG  GLN C1006       3.539 -36.983   4.777  1.00 33.02 LIG 0.10  C 
BRANCH 38 39
ATOM     39  CD  GLN C1006       4.829 -36.293   4.371  1.00 35.46 LIG 0.21  C 
ATOM     40 OE1  GLN C1006       5.706 -36.058   5.203  1.00 38.48 LIG-0.27  OA
ATOM     41  NE2 GLN C1006       4.946 -35.956   3.087  1.00 37.01 LIG-0.37  N 
ATOM     42 22HE GLN C1006       5.655 -35.557   2.810  1.00 37.01 LIG 0.16  HD
ATOM     43 21HE GLN C1006       4.310 -36.137   2.537  1.00 37.01 LIG 0.16  HD
ENDBRANCH 38 39
ENDBRANCH 37 38
ENDBRANCH 36 37
BRANCH 36 44
ATOM     44  C   GLN C1006       1.863 -35.781   8.042  1.00 30.09 LIG 0.24  C 
ATOM     45  N   VAL C1007       2.273 -36.632   8.988  1.00 30.97 LIG-0.35  N 
ATOM     46 H    VAL C1007       2.461 -37.454   8.820  1.00 30.97 LIG 0.16  HD
ATOM     47 O    GLN C1006       1.473 -34.627   8.266  1.00 30.15 LIG-0.27  OA
BRANCH 45 48
ATOM     48  CA  VAL C1007       2.449 -36.278  10.406  1.00 32.05 LIG 0.18  C 
BRANCH 48 49
ATOM     49  CB  VAL C1007       3.568 -37.146  11.062  1.00 32.12 LIG 0.01  C 
ATOM     50  CG1 VAL C1007       4.447 -36.334  12.011  1.00 30.72 LIG 0.01  C 
ATOM     51  CG2 VAL C1007       4.417 -37.859  10.015  1.00 30.85 LIG 0.01  C 
ENDBRANCH 48 49
BRANCH 48 52
ATOM     52  C   VAL C1007       2.950 -34.808  10.340  1.00 33.20 LIG 0.24  C 
ATOM     53 O    VAL C1007       3.897 -34.547   9.605  1.00 34.91 LIG-0.27  OA
ATOM     54  N   THR C1008       2.379 -33.846  11.070  1.00 34.53 LIG-0.34  N 
ATOM     55 H    THR C1008       2.625 -33.026  10.984  1.00 34.53 LIG 0.16  HD
BRANCH 54 56
ATOM     56  CA  THR C1008       1.320 -33.983  12.066  1.00 33.96 LIG 0.19  C 
BRANCH 56 57
ATOM     57  C   THR C1008       0.190 -33.021  11.701  1.00 33.93 LIG 0.22  C 
ATOM     58 O    THR C1008      -0.092 -32.777  10.525  1.00 34.05 LIG-0.29  OA
ENDBRANCH 56 57
BRANCH 56 59
ATOM     59  CB  THR C1008       1.829 -33.623  13.512  1.00 34.51 LIG 0.14  C 
ATOM     60  CG2 THR C1008       0.812 -33.988  14.594  1.00 33.41 LIG 0.04  C 
BRANCH 59 61
ATOM     61 OG1  THR C1008       3.030 -34.335  13.788  1.00 32.91 LIG-0.39  OA
ATOM     62 HG1  THR C1008       3.611 -34.139  13.213  1.00 32.91 LIG 0.21  HD
ENDBRANCH 59 61
ENDBRANCH 56 59
ENDBRANCH 54 56
ENDBRANCH 48 52
ENDBRANCH 45 48
ENDBRANCH 36 44
ENDBRANCH 34 36
ENDBRANCH 1 32
TORSDOF 23
ENDMDL
MODEL 31
USER: ADFR SOLUTION from run 120
USER: SCORE 19.024260 LL:  -4.919 LR: -15.720 RR:   0.000 FEB:  -8.859
USER: RMSD 3.204650
USER: SEED 119
USER: STATUS no improvement in best in 6 clusters for 5 generations
USER: GENES 25
USER: genes 0 Translation |==|  0.46305 0.58982 0.43547
USER: genes 1 Rotation |==|  0.53402 0.50692 0.40373 0.98941
USER: genes 2 Torsion [CB]-CA--N-[C] |==|  0.50000
USER: genes 3 Torsion [N]-C--CA-[N] |==|  0.91976
USER: genes 4 Torsion [C]-CA--N-[C] |==|  0.84945
USER: genes 5 Torsion [N]-C--CA-[N] |==|  0.19277
USER: genes 6 Torsion [C]-CA--CB-[CG] |==|  0.87638
USER: genes 7 Torsion [CA]-CB--CG-[CD] |==|  0.75540
USER: genes 8 Torsion [CB]-CG--CD-[NE] |==|  0.89991
USER: genes 9 Torsion [CG]-CD--NE-[HE] |==|  0.31584
USER: genes 10 Torsion [N]-CA--CB-[CG] |==|  0.97006
USER: genes 11 Torsion [CA]-CB--CG-[CD2] |==|  0.77335
USER: genes 12 Torsion [N]-CA--C-[N] |==|  0.41705
USER: genes 13 Torsion [C]-N--CA-[C] |==|  0.85380
USER: genes 14 Torsion [N]-CA--CB-[CG] |==|  0.35788
USER: genes 15 Torsion [CA]-CB--CG-[CD] |==|  0.70418
USER: genes 16 Torsion [CB]-CG--CD-[OE1] |==|  0.13605
USER: genes 17 Torsion [N]-CA--C-[N] |==|  0.86977
USER: genes 18 Torsion [C]-N--CA-[CB] |==|  0.86587
USER: genes 19 Torsion [N]-CA--CB-[CG1] |==|  0.83484
USER: genes 20 Torsion [N]-CA--C-[N] |==|  0.28446
USER: genes 21 Torsion [C]-N--CA-[C] |==|  0.58718
USER: genes 22 Torsion [N]-CA--C-[O] |==|  0.02749
USER: genes 23 Torsion [N]-CA--CB-[OG1] |==|  0.46440
USER: genes 24 Torsion [CA]-CB--OG1-[HG1] |==|  0.44861
ROOT
ATOM      1  CA  PHE C1005       0.406 -33.662   5.071  1.00 26.32 LIG 0.18  C 
ENDROOT
BRANCH 1 2
ATOM      2  N   PHE C1005      -0.492 -33.672   3.927  1.00 26.54 LIG-0.35  N 
ATOM      3  C   ARG C1004      -0.413 -34.617   2.988  1.00 27.34 LIG 0.24  C 
ATOM      4 O    ARG C1004       0.304 -35.611   3.093  1.00 26.08 LIG-0.27  OA
ATOM      5 H    PHE C1005      -1.063 -33.028   3.915  1.00 26.54 LIG 0.16  HD
BRANCH 3 6
ATOM      6  CA  ARG C1004      -1.285 -34.417   1.738  1.00 28.49 LIG 0.18  C 
BRANCH 6 7
ATOM      7  N   ARG C1004      -2.506 -33.660   2.001  1.00 30.45 LIG-0.35  N 
ATOM      8  C   GLY C1003      -3.344 -34.055   2.959  1.00 32.03 LIG 0.25  C 
ATOM      9 O    GLY C1003      -3.105 -35.020   3.684  1.00 33.62 LIG-0.27  OA
ATOM     10 H    ARG C1004      -2.623 -32.970   1.501  1.00 30.45 LIG 0.16  HD
BRANCH 8 11
ATOM     11  CA  GLY C1003      -4.616 -33.253   3.135  1.00 33.10 LIG 0.47  C 
ATOM     12  N   GLY C1003      -5.557 -33.429   1.997  1.00 33.92 LIG 0.61  N 
ENDBRANCH 8 11
ENDBRANCH 6 7
BRANCH 6 13
ATOM     13  CB  ARG C1004      -0.471 -33.785   0.604  1.00 28.45 LIG 0.04  C 
BRANCH 13 14
ATOM     14  CG  ARG C1004       0.406 -32.633   1.038  1.00 27.92 LIG 0.02  C 
BRANCH 14 15
ATOM     15  CD  ARG C1004      -0.349 -31.306   0.985  1.00 26.34 LIG 0.14  C 
BRANCH 15 16
ATOM     16  NE  ARG C1004      -1.268 -31.273  -0.143  1.00 24.25 LIG-0.23  N 
ATOM     17 HE   ARG C1004      -2.111 -31.252   0.030  1.00 24.25 LIG 0.18  HD
ATOM     18  CZ  ARG C1004      -0.904 -31.275  -1.421  1.00 25.16 LIG 0.67  C 
ATOM     19  NH2 ARG C1004      -1.831 -31.231  -2.359  1.00 24.86 LIG-0.23  N 
ATOM     20  NH1 ARG C1004       0.375 -31.341  -1.763  1.00 22.12 LIG-0.23  N 
ATOM     21 1HH2 ARG C1004      -2.663 -31.201  -2.140  1.00 24.86 LIG 0.17  HD
ATOM     22 2HH2 ARG C1004      -1.605 -31.232  -3.188  1.00 24.86 LIG 0.17  HD
ATOM     23 1HH1 ARG C1004       0.981 -31.384  -1.155  1.00 22.12 LIG 0.17  HD
ATOM     24 2HH1 ARG C1004       0.598 -31.342  -2.593  1.00 22.12 LIG 0.17  HD
ENDBRANCH 15 16
ENDBRANCH 14 15
ENDBRANCH 13 14
ENDBRANCH 6 13
ENDBRANCH 3 6
ENDBRANCH 1 2
BRANCH 1 25
ATOM     25  CB  PHE C1005       0.089 -32.477   5.975  1.00 25.48 LIG 0.07  C 
BRANCH 25 26
ATOM     26  CG  PHE C1005      -0.858 -31.501   5.352  1.00 23.55 LIG-0.06  A 
ATOM     27  CD1 PHE C1005      -2.230 -31.549   5.649  1.00 22.30 LIG 0.01  A 
ATOM     28  CE1 PHE C1005      -3.123 -30.643   5.054  1.00 23.64 LIG 0.00  A 
ATOM     29  CZ  PHE C1005      -2.622 -29.694   4.125  1.00 21.73 LIG 0.00  A 
ATOM     30  CE2 PHE C1005      -1.263 -29.642   3.837  1.00 19.92 LIG 0.00  A 
ATOM     31  CD2 PHE C1005      -0.375 -30.546   4.450  1.00 21.20 LIG 0.01  A 
ENDBRANCH 25 26
ENDBRANCH 1 25
BRANCH 1 32
ATOM     32  C   PHE C1005       0.315 -34.937   5.873  1.00 27.26 LIG 0.24  C 
ATOM     33 O    PHE C1005      -0.738 -35.563   5.907  1.00 28.13 LIG-0.27  OA
ATOM     34  N   GLN C1006       1.431 -35.295   6.499  1.00 28.15 LIG-0.35  N 
ATOM     35 H    GLN C1006       2.186 -34.904   6.368  1.00 28.15 LIG 0.16  HD
BRANCH 34 36
ATOM     36  CA  GLN C1006       1.503 -36.385   7.471  1.00 29.76 LIG 0.18  C 
BRANCH 36 37
ATOM     37  CB  GLN C1006       2.889 -36.456   8.106  1.00 29.94 LIG 0.04  C 
BRANCH 37 38
ATOM     38  CG  GLN C1006       2.898 -36.489   9.622  1.00 33.02 LIG 0.10  C 
BRANCH 38 39
ATOM     39  CD  GLN C1006       3.353 -35.176  10.234  1.00 35.46 LIG 0.21  C 
ATOM     40 OE1  GLN C1006       2.870 -34.106   9.861  1.00 38.48 LIG-0.27  OA
ATOM     41  NE2 GLN C1006       4.297 -35.252  11.171  1.00 37.01 LIG-0.37  N 
ATOM     42 22HE GLN C1006       4.593 -34.536  11.543  1.00 37.01 LIG 0.16  HD
ATOM     43 21HE GLN C1006       4.610 -36.019  11.404  1.00 37.01 LIG 0.16  HD
ENDBRANCH 38 39
ENDBRANCH 37 38
ENDBRANCH 36 37
BRANCH 36 44
ATOM     44  C   GLN C1006       0.436 -36.178   8.549  1.00 30.09 LIG 0.24  C 
ATOM     45  N   VAL C1007       0.365 -34.943   9.055  1.00 30.97 LIG-0.35  N 
ATOM     46 H    VAL C1007       0.924 -34.324   8.844  1.00 30.97 LIG 0.16  HD
ATOM     47 O    GLN C1006      -0.277 -37.123   8.915  1.00 30.15 LIG-0.27  OA
BRANCH 45 48
ATOM     48  CA  VAL C1007      -0.655 -34.495  10.016  1.00 32.05 LIG 0.18  C 
BRANCH 48 49
ATOM     49  CB  VAL C1007      -2.085 -34.910   9.545  1.00 32.12 LIG 0.01  C 
ATOM     50  CG1 VAL C1007      -2.438 -34.318   8.183  1.00 30.72 LIG 0.01  C 
ATOM     51  CG2 VAL C1007      -3.146 -34.555  10.581  1.00 30.85 LIG 0.01  C 
ENDBRANCH 48 49
BRANCH 48 52
ATOM     52  C   VAL C1007      -0.310 -35.307  11.297  1.00 33.20 LIG 0.24  C 
ATOM     53 O    VAL C1007      -0.653 -36.483  11.351  1.00 34.91 LIG-0.27  OA
ATOM     54  N   THR C1008       0.333 -34.744  12.323  1.00 34.53 LIG-0.34  N 
ATOM     55 H    THR C1008       0.571 -35.215  13.002  1.00 34.53 LIG 0.16  HD
BRANCH 54 56
ATOM     56  CA  THR C1008       0.727 -33.347  12.480  1.00 33.96 LIG 0.19  C 
BRANCH 56 57
ATOM     57  C   THR C1008       2.014 -33.299  13.301  1.00 33.93 LIG 0.22  C 
ATOM     58 O    THR C1008       2.649 -34.325  13.562  1.00 34.05 LIG-0.29  OA
ENDBRANCH 56 57
BRANCH 56 59
ATOM     59  CB  THR C1008      -0.374 -32.512  13.235  1.00 34.51 LIG 0.14  C 
ATOM     60  CG2 THR C1008      -0.874 -33.216  14.497  1.00 33.41 LIG 0.04  C 
BRANCH 59 61
ATOM     61 OG1  THR C1008       0.164 -31.253  13.627  1.00 32.91 LIG-0.39  OA
ATOM     62 HG1  THR C1008      -0.464 -30.720  13.794  1.00 32.91 LIG 0.21  HD
ENDBRANCH 59 61
ENDBRANCH 56 59
ENDBRANCH 54 56
ENDBRANCH 48 52
ENDBRANCH 45 48
ENDBRANCH 36 44
ENDBRANCH 34 36
ENDBRANCH 1 32
TORSDOF 23
ENDMDL
MODEL 32
USER: ADFR SOLUTION from run 132
USER: SCORE 16.729998 LL:  -3.843 LR: -15.702 RR:   0.000 FEB:  -8.841
USER: RMSD 2.258322
USER: SEED 131
USER: STATUS no improvement in best in 19 clusters for 5 generations
USER: GENES 25
USER: genes 0 Translation |==|  0.46203 0.61618 0.46494
USER: genes 1 Rotation |==|  0.48744 0.45122 0.44995 0.99493
USER: genes 2 Torsion [CB]-CA--N-[C] |==|  0.43071
USER: genes 3 Torsion [N]-C--CA-[N] |==|  0.96997
USER: genes 4 Torsion [C]-CA--N-[C] |==|  0.79997
USER: genes 5 Torsion [N]-C--CA-[N] |==|  0.87562
USER: genes 6 Torsion [C]-CA--CB-[CG] |==|  0.65913
USER: genes 7 Torsion [CA]-CB--CG-[CD] |==|  0.78427
USER: genes 8 Torsion [CB]-CG--CD-[NE] |==|  0.48874
USER: genes 9 Torsion [CG]-CD--NE-[HE] |==|  0.77840
USER: genes 10 Torsion [N]-CA--CB-[CG] |==|  0.93336
USER: genes 11 Torsion [CA]-CB--CG-[CD2] |==|  0.30212
USER: genes 12 Torsion [N]-CA--C-[N] |==|  0.31594
USER: genes 13 Torsion [C]-N--CA-[C] |==|  0.72235
USER: genes 14 Torsion [N]-CA--CB-[CG] |==|  0.17954
USER: genes 15 Torsion [CA]-CB--CG-[CD] |==|  0.28267
USER: genes 16 Torsion [CB]-CG--CD-[OE1] |==|  0.70334
USER: genes 17 Torsion [N]-CA--C-[N] |==|  0.35713
USER: genes 18 Torsion [C]-N--CA-[CB] |==|  0.27070
USER: genes 19 Torsion [N]-CA--CB-[CG1] |==|  0.40791
USER: genes 20 Torsion [N]-CA--C-[N] |==|  0.34855
USER: genes 21 Torsion [C]-N--CA-[C] |==|  0.13839
USER: genes 22 Torsion [N]-CA--C-[O] |==|  0.48302
USER: genes 23 Torsion [N]-CA--CB-[OG1] |==|  0.24327
USER: genes 24 Torsion [CA]-CB--OG1-[HG1] |==|  0.17651
ROOT
ATOM      1  CA  PHE C1005       0.387 -33.188   5.889  1.00 26.32 LIG 0.18  C 
ENDROOT
BRANCH 1 2
ATOM      2  N   PHE C1005      -0.238 -33.603   4.642  1.00 26.54 LIG-0.35  N 
ATOM      3  C   ARG C1004       0.423 -34.335   3.742  1.00 27.34 LIG 0.24  C 
ATOM      4 O    ARG C1004       1.528 -34.830   3.959  1.00 26.08 LIG-0.27  OA
ATOM      5 H    PHE C1005      -1.051 -33.339   4.544  1.00 26.54 LIG 0.16  HD
BRANCH 3 6
ATOM      6  CA  ARG C1004      -0.274 -34.551   2.390  1.00 28.49 LIG 0.18  C 
BRANCH 6 7
ATOM      7  N   ARG C1004      -1.671 -34.127   2.385  1.00 30.45 LIG-0.35  N 
ATOM      8  C   GLY C1003      -2.588 -34.837   3.042  1.00 32.03 LIG 0.25  C 
ATOM      9 O    GLY C1003      -2.296 -35.828   3.711  1.00 33.62 LIG-0.27  OA
ATOM     10 H    ARG C1004      -1.834 -33.410   1.939  1.00 30.45 LIG 0.16  HD
BRANCH 8 11
ATOM     11  CA  GLY C1003      -4.024 -34.367   2.945  1.00 33.10 LIG 0.47  C 
ATOM     12  N   GLY C1003      -4.149 -32.895   3.119  1.00 33.92 LIG 0.61  N 
ENDBRANCH 8 11
ENDBRANCH 6 7
BRANCH 6 13
ATOM     13  CB  ARG C1004       0.516 -33.883   1.260  1.00 28.45 LIG 0.04  C 
BRANCH 13 14
ATOM     14  CG  ARG C1004      -0.276 -32.870   0.465  1.00 27.92 LIG 0.02  C 
BRANCH 14 15
ATOM     15  CD  ARG C1004      -1.214 -33.552  -0.530  1.00 26.34 LIG 0.14  C 
BRANCH 15 16
ATOM     16  NE  ARG C1004      -2.039 -32.573  -1.222  1.00 24.25 LIG-0.23  N 
ATOM     17 HE   ARG C1004      -2.728 -32.267  -0.807  1.00 24.25 LIG 0.18  HD
ATOM     18  CZ  ARG C1004      -1.809 -32.116  -2.449  1.00 25.16 LIG 0.67  C 
ATOM     19  NH2 ARG C1004      -2.623 -31.216  -2.968  1.00 24.86 LIG-0.23  N 
ATOM     20  NH1 ARG C1004      -0.787 -32.567  -3.161  1.00 22.12 LIG-0.23  N 
ATOM     21 1HH2 ARG C1004      -3.295 -30.931  -2.513  1.00 24.86 LIG 0.17  HD
ATOM     22 2HH2 ARG C1004      -2.482 -30.915  -3.761  1.00 24.86 LIG 0.17  HD
ATOM     23 1HH1 ARG C1004      -0.262 -33.163  -2.831  1.00 22.12 LIG 0.17  HD
ATOM     24 2HH1 ARG C1004      -0.648 -32.264  -3.953  1.00 22.12 LIG 0.17  HD
ENDBRANCH 15 16
ENDBRANCH 14 15
ENDBRANCH 13 14
ENDBRANCH 6 13
ENDBRANCH 3 6
ENDBRANCH 1 2
BRANCH 1 25
ATOM     25  CB  PHE C1005      -0.286 -31.926   6.417  1.00 25.48 LIG 0.07  C 
BRANCH 25 26
ATOM     26  CG  PHE C1005      -0.959 -31.129   5.344  1.00 23.55 LIG-0.06  A 
ATOM     27  CD1 PHE C1005      -0.200 -30.406   4.409  1.00 22.30 LIG 0.01  A 
ATOM     28  CE1 PHE C1005      -0.830 -29.646   3.411  1.00 23.64 LIG 0.00  A 
ATOM     29  CZ  PHE C1005      -2.248 -29.596   3.377  1.00 21.73 LIG 0.00  A 
ATOM     30  CE2 PHE C1005      -2.999 -30.317   4.298  1.00 19.92 LIG 0.00  A 
ATOM     31  CD2 PHE C1005      -2.357 -31.087   5.286  1.00 21.20 LIG 0.01  A 
ENDBRANCH 25 26
ENDBRANCH 1 25
BRANCH 1 32
ATOM     32  C   PHE C1005       0.318 -34.265   6.943  1.00 27.26 LIG 0.24  C 
ATOM     33 O    PHE C1005      -0.768 -34.605   7.398  1.00 28.13 LIG-0.27  OA
ATOM     34  N   GLN C1006       1.487 -34.784   7.302  1.00 28.15 LIG-0.35  N 
ATOM     35 H    GLN C1006       2.221 -34.612   6.888  1.00 28.15 LIG 0.16  HD
BRANCH 34 36
ATOM     36  CA  GLN C1006       1.657 -35.697   8.431  1.00 29.76 LIG 0.18  C 
BRANCH 36 37
ATOM     37  CB  GLN C1006       2.611 -36.834   8.070  1.00 29.94 LIG 0.04  C 
BRANCH 37 38
ATOM     38  CG  GLN C1006       4.037 -36.405   7.783  1.00 33.02 LIG 0.10  C 
BRANCH 38 39
ATOM     39  CD  GLN C1006       4.973 -36.668   8.949  1.00 35.46 LIG 0.21  C 
ATOM     40 OE1  GLN C1006       5.392 -35.741   9.642  1.00 38.48 LIG-0.27  OA
ATOM     41  NE2 GLN C1006       5.314 -37.939   9.163  1.00 37.01 LIG-0.37  N 
ATOM     42 22HE GLN C1006       5.847 -38.138   9.807  1.00 37.01 LIG 0.16  HD
ATOM     43 21HE GLN C1006       5.000 -38.559   8.656  1.00 37.01 LIG 0.16  HD
ENDBRANCH 38 39
ENDBRANCH 37 38
ENDBRANCH 36 37
BRANCH 36 44
ATOM     44  C   GLN C1006       2.188 -34.922   9.640  1.00 30.09 LIG 0.24  C 
ATOM     45  N   VAL C1007       1.501 -35.091  10.774  1.00 30.97 LIG-0.35  N 
ATOM     46 H    VAL C1007       0.771 -35.545  10.810  1.00 30.97 LIG 0.16  HD
ATOM     47 O    GLN C1006       3.175 -34.183   9.526  1.00 30.15 LIG-0.27  OA
BRANCH 45 48
ATOM     48  CA  VAL C1007       1.897 -34.532  12.077  1.00 32.05 LIG 0.18  C 
BRANCH 48 49
ATOM     49  CB  VAL C1007       1.134 -33.201  12.367  1.00 32.12 LIG 0.01  C 
ATOM     50  CG1 VAL C1007       0.848 -33.014  13.855  1.00 30.72 LIG 0.01  C 
ATOM     51  CG2 VAL C1007      -0.150 -33.097  11.552  1.00 30.85 LIG 0.01  C 
ENDBRANCH 48 49
BRANCH 48 52
ATOM     52  C   VAL C1007       1.401 -35.607  13.084  1.00 33.20 LIG 0.24  C 
ATOM     53 O    VAL C1007       0.220 -35.935  13.053  1.00 34.91 LIG-0.27  OA
ATOM     54  N   THR C1008       2.230 -36.158  13.974  1.00 34.53 LIG-0.34  N 
ATOM     55 H    THR C1008       1.961 -36.793  14.489  1.00 34.53 LIG 0.16  HD
BRANCH 54 56
ATOM     56  CA  THR C1008       3.629 -35.825  14.227  1.00 33.96 LIG 0.19  C 
BRANCH 56 57
ATOM     57  C   THR C1008       3.739 -34.312  14.401  1.00 33.93 LIG 0.22  C 
ATOM     58 O    THR C1008       4.801 -33.779  14.736  1.00 34.05 LIG-0.29  OA
ENDBRANCH 56 57
BRANCH 56 59
ATOM     59  CB  THR C1008       4.557 -36.255  13.030  1.00 34.51 LIG 0.14  C 
ATOM     60  CG2 THR C1008       4.048 -37.512  12.322  1.00 33.41 LIG 0.04  C 
BRANCH 59 61
ATOM     61 OG1  THR C1008       4.612 -35.209  12.066  1.00 32.91 LIG-0.39  OA
ATOM     62 HG1  THR C1008       4.967 -34.529  12.410  1.00 32.91 LIG 0.21  HD
ENDBRANCH 59 61
ENDBRANCH 56 59
ENDBRANCH 54 56
ENDBRANCH 48 52
ENDBRANCH 45 48
ENDBRANCH 36 44
ENDBRANCH 34 36
ENDBRANCH 1 32
TORSDOF 23
ENDMDL
MODEL 33
USER: ADFR SOLUTION from run 79
USER: SCORE 17.896856 LL:  -4.915 LR: -15.671 RR:   0.000 FEB:  -8.810
USER: RMSD 6.984989
USER: SEED 78
USER: STATUS no improvement in best in 19 clusters for 5 generations
USER: GENES 25
USER: genes 0 Translation |==|  0.45827 0.69890 0.26036
USER: genes 1 Rotation |==|  0.56765 0.36630 0.56297 0.97284
USER: genes 2 Torsion [CB]-CA--N-[C] |==|  0.83771
USER: genes 3 Torsion [N]-C--CA-[N] |==|  0.08105
USER: genes 4 Torsion [C]-CA--N-[C] |==|  0.16693
USER: genes 5 Torsion [N]-C--CA-[N] |==|  0.59319
USER: genes 6 Torsion [C]-CA--CB-[CG] |==|  0.40519
USER: genes 7 Torsion [CA]-CB--CG-[CD] |==|  0.75668
USER: genes 8 Torsion [CB]-CG--CD-[NE] |==|  0.18407
USER: genes 9 Torsion [CG]-CD--NE-[HE] |==|  0.20013
USER: genes 10 Torsion [N]-CA--CB-[CG] |==|  0.48570
USER: genes 11 Torsion [CA]-CB--CG-[CD2] |==|  0.18555
USER: genes 12 Torsion [N]-CA--C-[N] |==|  0.75002
USER: genes 13 Torsion [C]-N--CA-[C] |==|  0.22816
USER: genes 14 Torsion [N]-CA--CB-[CG] |==|  0.35012
USER: genes 15 Torsion [CA]-CB--CG-[CD] |==|  0.74273
USER: genes 16 Torsion [CB]-CG--CD-[OE1] |==|  0.83727
USER: genes 17 Torsion [N]-CA--C-[N] |==|  0.41309
USER: genes 18 Torsion [C]-N--CA-[CB] |==|  0.53531
USER: genes 19 Torsion [N]-CA--CB-[CG1] |==|  0.08484
USER: genes 20 Torsion [N]-CA--C-[N] |==|  0.34377
USER: genes 21 Torsion [C]-N--CA-[C] |==|  0.77194
USER: genes 22 Torsion [N]-CA--C-[O] |==|  0.81843
USER: genes 23 Torsion [N]-CA--CB-[OG1] |==|  0.99432
USER: genes 24 Torsion [CA]-CB--OG1-[HG1] |==|  0.13775
ROOT
ATOM      1  CA  PHE C1005       0.313 -31.699   0.212  1.00 26.32 LIG 0.18  C 
ENDROOT
BRANCH 1 2
ATOM      2  N   PHE C1005       0.369 -31.922  -1.225  1.00 26.54 LIG-0.35  N 
ATOM      3  C   ARG C1004      -0.540 -32.675  -1.848  1.00 27.34 LIG 0.24  C 
ATOM      4 O    ARG C1004      -1.554 -33.100  -1.296  1.00 26.08 LIG-0.27  OA
ATOM      5 H    PHE C1005       1.025 -31.532  -1.622  1.00 26.54 LIG 0.16  HD
BRANCH 3 6
ATOM      6  CA  ARG C1004      -0.271 -32.990  -3.328  1.00 28.49 LIG 0.18  C 
BRANCH 6 7
ATOM      7  N   ARG C1004       1.151 -33.029  -3.661  1.00 30.45 LIG-0.35  N 
ATOM      8  C   GLY C1003       1.956 -33.902  -3.055  1.00 32.03 LIG 0.25  C 
ATOM      9 O    GLY C1003       1.537 -34.731  -2.247  1.00 33.62 LIG-0.27  OA
ATOM     10 H    ARG C1004       1.402 -32.462  -4.256  1.00 30.45 LIG 0.16  HD
BRANCH 8 11
ATOM     11  CA  GLY C1003       3.426 -33.845  -3.412  1.00 33.10 LIG 0.47  C 
ATOM     12  N   GLY C1003       4.066 -35.187  -3.383  1.00 33.92 LIG 0.61  N 
ENDBRANCH 8 11
ENDBRANCH 6 7
BRANCH 6 13
ATOM     13  CB  ARG C1004      -0.977 -34.284  -3.744  1.00 28.45 LIG 0.04  C 
BRANCH 13 14
ATOM     14  CG  ARG C1004      -1.476 -34.288  -5.170  1.00 27.92 LIG 0.02  C 
BRANCH 14 15
ATOM     15  CD  ARG C1004      -2.882 -33.696  -5.271  1.00 26.34 LIG 0.14  C 
BRANCH 15 16
ATOM     16  NE  ARG C1004      -2.876 -32.279  -4.939  1.00 24.25 LIG-0.23  N 
ATOM     17 HE   ARG C1004      -2.523 -31.738  -5.508  1.00 24.25 LIG 0.18  HD
ATOM     18  CZ  ARG C1004      -3.373 -31.758  -3.822  1.00 25.16 LIG 0.67  C 
ATOM     19  NH2 ARG C1004      -3.321 -30.452  -3.638  1.00 24.86 LIG-0.23  N 
ATOM     20  NH1 ARG C1004      -3.900 -32.534  -2.886  1.00 22.12 LIG-0.23  N 
ATOM     21 1HH2 ARG C1004      -2.968 -29.947  -4.238  1.00 24.86 LIG 0.17  HD
ATOM     22 2HH2 ARG C1004      -3.640 -30.106  -2.919  1.00 24.86 LIG 0.17  HD
ATOM     23 1HH1 ARG C1004      -3.923 -33.386  -2.997  1.00 22.12 LIG 0.17  HD
ATOM     24 2HH1 ARG C1004      -4.219 -32.185  -2.168  1.00 22.12 LIG 0.17  HD
ENDBRANCH 15 16
ENDBRANCH 14 15
ENDBRANCH 13 14
ENDBRANCH 6 13
ENDBRANCH 3 6
ENDBRANCH 1 2
BRANCH 1 25
ATOM     25  CB  PHE C1005      -1.016 -31.057   0.591  1.00 25.48 LIG 0.07  C 
BRANCH 25 26
ATOM     26  CG  PHE C1005      -1.195 -30.910   2.070  1.00 23.55 LIG-0.06  A 
ATOM     27  CD1 PHE C1005      -2.194 -31.633   2.743  1.00 22.30 LIG 0.01  A 
ATOM     28  CE1 PHE C1005      -2.372 -31.485   4.128  1.00 23.64 LIG 0.00  A 
ATOM     29  CZ  PHE C1005      -1.546 -30.573   4.834  1.00 21.73 LIG 0.00  A 
ATOM     30  CE2 PHE C1005      -0.553 -29.864   4.169  1.00 19.92 LIG 0.00  A 
ATOM     31  CD2 PHE C1005      -0.373 -30.030   2.783  1.00 21.20 LIG 0.01  A 
ENDBRANCH 25 26
ENDBRANCH 1 25
BRANCH 1 32
ATOM     32  C   PHE C1005       0.486 -32.979   0.991  1.00 27.26 LIG 0.24  C 
ATOM     33 O    PHE C1005       1.608 -33.341   1.329  1.00 28.13 LIG-0.27  OA
ATOM     34  N   GLN C1006      -0.637 -33.634   1.265  1.00 28.15 LIG-0.35  N 
ATOM     35 H    GLN C1006      -1.417 -33.303   1.119  1.00 28.15 LIG 0.16  HD
BRANCH 34 36
ATOM     36  CA  GLN C1006      -0.673 -34.978   1.840  1.00 29.76 LIG 0.18  C 
BRANCH 36 37
ATOM     37  CB  GLN C1006       0.415 -35.858   1.231  1.00 29.94 LIG 0.04  C 
BRANCH 37 38
ATOM     38  CG  GLN C1006       1.336 -36.524   2.236  1.00 33.02 LIG 0.10  C 
BRANCH 38 39
ATOM     39  CD  GLN C1006       2.583 -35.705   2.517  1.00 35.46 LIG 0.21  C 
ATOM     40 OE1  GLN C1006       3.356 -35.402   1.608  1.00 38.48 LIG-0.27  OA
ATOM     41  NE2 GLN C1006       2.790 -35.353   3.785  1.00 37.01 LIG-0.37  N 
ATOM     42 22HE GLN C1006       3.486 -34.894   3.997  1.00 37.01 LIG 0.16  HD
ATOM     43 21HE GLN C1006       2.226 -35.584   4.393  1.00 37.01 LIG 0.16  HD
ENDBRANCH 38 39
ENDBRANCH 37 38
ENDBRANCH 36 37
BRANCH 36 44
ATOM     44  C   GLN C1006      -0.496 -34.888   3.358  1.00 30.09 LIG 0.24  C 
ATOM     45  N   VAL C1007      -1.121 -35.836   4.064  1.00 30.97 LIG-0.35  N 
ATOM     46 H    VAL C1007      -1.644 -36.414   3.700  1.00 30.97 LIG 0.16  HD
ATOM     47 O    GLN C1006       0.170 -33.972   3.859  1.00 30.15 LIG-0.27  OA
BRANCH 45 48
ATOM     48  CA  VAL C1007      -0.997 -36.006   5.520  1.00 32.05 LIG 0.18  C 
BRANCH 48 49
ATOM     49  CB  VAL C1007      -1.590 -37.378   5.973  1.00 32.12 LIG 0.01  C 
ATOM     50  CG1 VAL C1007      -1.452 -38.450   4.895  1.00 30.72 LIG 0.01  C 
ATOM     51  CG2 VAL C1007      -3.041 -37.245   6.422  1.00 30.85 LIG 0.01  C 
ENDBRANCH 48 49
BRANCH 48 52
ATOM     52  C   VAL C1007       0.541 -36.045   5.739  1.00 33.20 LIG 0.24  C 
ATOM     53 O    VAL C1007       1.194 -36.889   5.136  1.00 34.91 LIG-0.27  OA
ATOM     54  N   THR C1008       1.146 -35.191   6.569  1.00 34.53 LIG-0.34  N 
ATOM     55 H    THR C1008       2.003 -35.182   6.641  1.00 34.53 LIG 0.16  HD
BRANCH 54 56
ATOM     56  CA  THR C1008       0.529 -34.195   7.440  1.00 33.96 LIG 0.19  C 
BRANCH 56 57
ATOM     57  C   THR C1008       0.224 -32.951   6.608  1.00 33.93 LIG 0.22  C 
ATOM     58 O    THR C1008       1.127 -32.272   6.112  1.00 34.05 LIG-0.29  OA
ENDBRANCH 56 57
BRANCH 56 59
ATOM     59  CB  THR C1008       1.485 -33.779   8.620  1.00 34.51 LIG 0.14  C 
ATOM     60  CG2 THR C1008       0.862 -34.035   9.993  1.00 33.41 LIG 0.04  C 
BRANCH 59 61
ATOM     61 OG1  THR C1008       2.693 -34.530   8.546  1.00 32.91 LIG-0.39  OA
ATOM     62 HG1  THR C1008       2.999 -34.492   7.765  1.00 32.91 LIG 0.21  HD
ENDBRANCH 59 61
ENDBRANCH 56 59
ENDBRANCH 54 56
ENDBRANCH 48 52
ENDBRANCH 45 48
ENDBRANCH 36 44
ENDBRANCH 34 36
ENDBRANCH 1 32
TORSDOF 23
ENDMDL
MODEL 34
USER: ADFR SOLUTION from run 175
USER: SCORE 18.670056 LL:  -4.221 LR: -15.632 RR:   0.000 FEB:  -8.771
USER: RMSD 3.322000
USER: SEED 174
USER: STATUS searching
USER: GENES 25
USER: genes 0 Translation |==|  0.46668 0.57676 0.42276
USER: genes 1 Rotation |==|  0.59630 0.52493 0.47413 0.98932
USER: genes 2 Torsion [CB]-CA--N-[C] |==|  0.54486
USER: genes 3 Torsion [N]-C--CA-[N] |==|  0.92095
USER: genes 4 Torsion [C]-CA--N-[C] |==|  0.84140
USER: genes 5 Torsion [N]-C--CA-[N] |==|  0.20782
USER: genes 6 Torsion [C]-CA--CB-[CG] |==|  0.87395
USER: genes 7 Torsion [CA]-CB--CG-[CD] |==|  0.74882
USER: genes 8 Torsion [CB]-CG--CD-[NE] |==|  0.91312
USER: genes 9 Torsion [CG]-CD--NE-[HE] |==|  0.33240
USER: genes 10 Torsion [N]-CA--CB-[CG] |==|  0.93539
USER: genes 11 Torsion [CA]-CB--CG-[CD2] |==|  0.82227
USER: genes 12 Torsion [N]-CA--C-[N] |==|  0.31898
USER: genes 13 Torsion [C]-N--CA-[C] |==|  0.74876
USER: genes 14 Torsion [N]-CA--CB-[CG] |==|  0.11093
USER: genes 15 Torsion [CA]-CB--CG-[CD] |==|  0.72540
USER: genes 16 Torsion [CB]-CG--CD-[OE1] |==|  0.22272
USER: genes 17 Torsion [N]-CA--C-[N] |==|  0.05000
USER: genes 18 Torsion [C]-N--CA-[CB] |==|  0.55171
USER: genes 19 Torsion [N]-CA--CB-[CG1] |==|  0.43353
USER: genes 20 Torsion [N]-CA--C-[N] |==|  0.30888
USER: genes 21 Torsion [C]-N--CA-[C] |==|  0.53035
USER: genes 22 Torsion [N]-CA--C-[O] |==|  0.23007
USER: genes 23 Torsion [N]-CA--CB-[OG1] |==|  0.71882
USER: genes 24 Torsion [CA]-CB--OG1-[HG1] |==|  0.28662
ROOT
ATOM      1  CA  PHE C1005       0.477 -33.897   4.719  1.00 26.32 LIG 0.18  C 
ENDROOT
BRANCH 1 2
ATOM      2  N   PHE C1005      -0.429 -33.858   3.581  1.00 26.54 LIG-0.35  N 
ATOM      3  C   ARG C1004      -0.304 -34.710   2.561  1.00 27.34 LIG 0.24  C 
ATOM      4 O    ARG C1004       0.469 -35.667   2.575  1.00 26.08 LIG-0.27  OA
ATOM      5 H    PHE C1005      -1.036 -33.249   3.629  1.00 26.54 LIG 0.16  HD
BRANCH 3 6
ATOM      6  CA  ARG C1004      -1.197 -34.450   1.338  1.00 28.49 LIG 0.18  C 
BRANCH 6 7
ATOM      7  N   ARG C1004      -2.453 -33.783   1.670  1.00 30.45 LIG-0.35  N 
ATOM      8  C   GLY C1003      -3.288 -34.330   2.554  1.00 32.03 LIG 0.25  C 
ATOM      9 O    GLY C1003      -3.019 -35.369   3.156  1.00 33.62 LIG-0.27  OA
ATOM     10 H    ARG C1004      -2.592 -33.040   1.259  1.00 30.45 LIG 0.16  HD
BRANCH 8 11
ATOM     11  CA  GLY C1003      -4.595 -33.608   2.805  1.00 33.10 LIG 0.47  C 
ATOM     12  N   GLY C1003      -5.561 -33.783   1.688  1.00 33.92 LIG 0.61  N 
ENDBRANCH 8 11
ENDBRANCH 6 7
BRANCH 6 13
ATOM     13  CB  ARG C1004      -0.428 -33.685   0.257  1.00 28.45 LIG 0.04  C 
BRANCH 13 14
ATOM     14  CG  ARG C1004       0.377 -32.517   0.779  1.00 27.92 LIG 0.02  C 
BRANCH 14 15
ATOM     15  CD  ARG C1004      -0.442 -31.227   0.771  1.00 26.34 LIG 0.14  C 
BRANCH 15 16
ATOM     16  NE  ARG C1004      -1.406 -31.228  -0.319  1.00 24.25 LIG-0.23  N 
ATOM     17 HE   ARG C1004      -2.239 -31.169  -0.113  1.00 24.25 LIG 0.18  HD
ATOM     18  CZ  ARG C1004      -1.096 -31.313  -1.608  1.00 25.16 LIG 0.67  C 
ATOM     19  NH2 ARG C1004      -2.060 -31.291  -2.509  1.00 24.86 LIG-0.23  N 
ATOM     20  NH1 ARG C1004       0.165 -31.440  -1.997  1.00 22.12 LIG-0.23  N 
ATOM     21 1HH2 ARG C1004      -2.880 -31.221  -2.259  1.00 24.86 LIG 0.17  HD
ATOM     22 2HH2 ARG C1004      -1.868 -31.346  -3.345  1.00 24.86 LIG 0.17  HD
ATOM     23 1HH1 ARG C1004       0.794 -31.468  -1.411  1.00 22.12 LIG 0.17  HD
ATOM     24 2HH1 ARG C1004       0.353 -31.494  -2.834  1.00 22.12 LIG 0.17  HD
ENDBRANCH 15 16
ENDBRANCH 14 15
ENDBRANCH 13 14
ENDBRANCH 6 13
ENDBRANCH 3 6
ENDBRANCH 1 2
BRANCH 1 25
ATOM     25  CB  PHE C1005      -0.113 -33.116   5.886  1.00 25.48 LIG 0.07  C 
BRANCH 25 26
ATOM     26  CG  PHE C1005      -1.115 -32.091   5.458  1.00 23.55 LIG-0.06  A 
ATOM     27  CD1 PHE C1005      -2.463 -32.208   5.836  1.00 22.30 LIG 0.01  A 
ATOM     28  CE1 PHE C1005      -3.407 -31.254   5.423  1.00 23.64 LIG 0.00  A 
ATOM     29  CZ  PHE C1005      -2.984 -30.183   4.594  1.00 21.73 LIG 0.00  A 
ATOM     30  CE2 PHE C1005      -1.650 -30.062   4.228  1.00 19.92 LIG 0.00  A 
ATOM     31  CD2 PHE C1005      -0.709 -31.016   4.659  1.00 21.20 LIG 0.01  A 
ENDBRANCH 25 26
ENDBRANCH 1 25
BRANCH 1 32
ATOM     32  C   PHE C1005       0.768 -35.310   5.162  1.00 27.26 LIG 0.24  C 
ATOM     33 O    PHE C1005      -0.135 -36.005   5.614  1.00 28.13 LIG-0.27  OA
ATOM     34  N   GLN C1006       2.028 -35.704   5.015  1.00 28.15 LIG-0.35  N 
ATOM     35 H    GLN C1006       2.615 -35.241   4.591  1.00 28.15 LIG 0.16  HD
BRANCH 34 36
ATOM     36  CA  GLN C1006       2.554 -36.958   5.552  1.00 29.76 LIG 0.18  C 
BRANCH 36 37
ATOM     37  CB  GLN C1006       3.647 -37.519   4.646  1.00 29.94 LIG 0.04  C 
BRANCH 37 38
ATOM     38  CG  GLN C1006       4.594 -36.484   4.070  1.00 33.02 LIG 0.10  C 
BRANCH 38 39
ATOM     39  CD  GLN C1006       4.236 -36.090   2.648  1.00 35.46 LIG 0.21  C 
ATOM     40 OE1  GLN C1006       3.336 -35.279   2.427  1.00 38.48 LIG-0.27  OA
ATOM     41  NE2 GLN C1006       4.935 -36.673   1.675  1.00 37.01 LIG-0.37  N 
ATOM     42 22HE GLN C1006       4.765 -36.488   0.853  1.00 37.01 LIG 0.16  HD
ATOM     43 21HE GLN C1006       5.556 -37.235   1.870  1.00 37.01 LIG 0.16  HD
ENDBRANCH 38 39
ENDBRANCH 37 38
ENDBRANCH 36 37
BRANCH 36 44
ATOM     44  C   GLN C1006       3.102 -36.720   6.961  1.00 30.09 LIG 0.24  C 
ATOM     45  N   VAL C1007       2.678 -35.601   7.559  1.00 30.97 LIG-0.35  N 
ATOM     46 H    VAL C1007       2.189 -35.019   7.157  1.00 30.97 LIG 0.16  HD
ATOM     47 O    GLN C1006       3.899 -37.521   7.468  1.00 30.15 LIG-0.27  OA
BRANCH 45 48
ATOM     48  CA  VAL C1007       2.989 -35.232   8.949  1.00 32.05 LIG 0.18  C 
BRANCH 48 49
ATOM     49  CB  VAL C1007       1.993 -34.151   9.474  1.00 32.12 LIG 0.01  C 
ATOM     50  CG1 VAL C1007       1.882 -34.160  10.997  1.00 30.72 LIG 0.01  C 
ATOM     51  CG2 VAL C1007       0.618 -34.290   8.831  1.00 30.85 LIG 0.01  C 
ENDBRANCH 48 49
BRANCH 48 52
ATOM     52  C   VAL C1007       2.730 -36.552   9.728  1.00 33.20 LIG 0.24  C 
ATOM     53 O    VAL C1007       1.574 -36.946   9.838  1.00 34.91 LIG-0.27  OA
ATOM     54  N   THR C1008       3.732 -37.242  10.278  1.00 34.53 LIG-0.34  N 
ATOM     55 H    THR C1008       3.586 -38.000  10.658  1.00 34.53 LIG 0.16  HD
BRANCH 54 56
ATOM     56  CA  THR C1008       5.145 -36.880  10.339  1.00 33.96 LIG 0.19  C 
BRANCH 56 57
ATOM     57  C   THR C1008       5.934 -38.098  10.818  1.00 33.93 LIG 0.22  C 
ATOM     58 O    THR C1008       6.275 -38.991  10.036  1.00 34.05 LIG-0.29  OA
ENDBRANCH 56 57
BRANCH 56 59
ATOM     59  CB  THR C1008       5.403 -35.697  11.345  1.00 34.51 LIG 0.14  C 
ATOM     60  CG2 THR C1008       6.668 -35.907  12.178  1.00 33.41 LIG 0.04  C 
BRANCH 59 61
ATOM     61 OG1  THR C1008       5.556 -34.479  10.624  1.00 32.91 LIG-0.39  OA
ATOM     62 HG1  THR C1008       4.851 -34.026  10.686  1.00 32.91 LIG 0.21  HD
ENDBRANCH 59 61
ENDBRANCH 56 59
ENDBRANCH 54 56
ENDBRANCH 48 52
ENDBRANCH 45 48
ENDBRANCH 36 44
ENDBRANCH 34 36
ENDBRANCH 1 32
TORSDOF 23
ENDMDL
MODEL 35
USER: ADFR SOLUTION from run 156
USER: SCORE 19.644252 LL:  -5.114 LR: -15.606 RR:   0.000 FEB:  -8.745
USER: RMSD 7.996799
USER: SEED 155
USER: STATUS no improvement in best in 2 clusters for 5 generations
USER: GENES 25
USER: genes 0 Translation |==|  0.42628 0.67718 0.27118
USER: genes 1 Rotation |==|  0.51478 0.82036 0.53176 0.88229
USER: genes 2 Torsion [CB]-CA--N-[C] |==|  0.75262
USER: genes 3 Torsion [N]-C--CA-[N] |==|  0.87273
USER: genes 4 Torsion [C]-CA--N-[C] |==|  0.71966
USER: genes 5 Torsion [N]-C--CA-[N] |==|  0.07045
USER: genes 6 Torsion [C]-CA--CB-[CG] |==|  0.78013
USER: genes 7 Torsion [CA]-CB--CG-[CD] |==|  0.24861
USER: genes 8 Torsion [CB]-CG--CD-[NE] |==|  0.58803
USER: genes 9 Torsion [CG]-CD--NE-[HE] |==|  0.01187
USER: genes 10 Torsion [N]-CA--CB-[CG] |==|  0.99522
USER: genes 11 Torsion [CA]-CB--CG-[CD2] |==|  0.76578
USER: genes 12 Torsion [N]-CA--C-[N] |==|  0.17262
USER: genes 13 Torsion [C]-N--CA-[C] |==|  0.14315
USER: genes 14 Torsion [N]-CA--CB-[CG] |==|  0.66343
USER: genes 15 Torsion [CA]-CB--CG-[CD] |==|  0.69512
USER: genes 16 Torsion [CB]-CG--CD-[OE1] |==|  0.53631
USER: genes 17 Torsion [N]-CA--C-[N] |==|  0.10203
USER: genes 18 Torsion [C]-N--CA-[CB] |==|  0.88888
USER: genes 19 Torsion [N]-CA--CB-[CG1] |==|  0.68128
USER: genes 20 Torsion [N]-CA--C-[N] |==|  0.35098
USER: genes 21 Torsion [C]-N--CA-[C] |==|  0.71721
USER: genes 22 Torsion [N]-CA--C-[O] |==|  0.27370
USER: genes 23 Torsion [N]-CA--CB-[OG1] |==|  0.25364
USER: genes 24 Torsion [CA]-CB--OG1-[HG1] |==|  0.77174
ROOT
ATOM      1  CA  PHE C1005      -0.311 -32.090   0.512  1.00 26.32 LIG 0.18  C 
ENDROOT
BRANCH 1 2
ATOM      2  N   PHE C1005      -1.527 -32.725   0.997  1.00 26.54 LIG-0.35  N 
ATOM      3  C   ARG C1004      -1.485 -33.844   1.723  1.00 27.34 LIG 0.24  C 
ATOM      4 O    ARG C1004      -0.439 -34.327   2.157  1.00 26.08 LIG-0.27  OA
ATOM      5 H    PHE C1005      -2.253 -32.321   0.777  1.00 26.54 LIG 0.16  HD
BRANCH 3 6
ATOM      6  CA  ARG C1004      -2.833 -34.522   2.016  1.00 28.49 LIG 0.18  C 
BRANCH 6 7
ATOM      7  N   ARG C1004      -3.867 -33.587   2.452  1.00 30.45 LIG-0.35  N 
ATOM      8  C   GLY C1003      -4.170 -33.481   3.746  1.00 32.03 LIG 0.25  C 
ATOM      9 O    GLY C1003      -3.568 -34.110   4.616  1.00 33.62 LIG-0.27  OA
ATOM     10 H    ARG C1004      -4.241 -33.136   1.823  1.00 30.45 LIG 0.16  HD
BRANCH 8 11
ATOM     11  CA  GLY C1003      -5.290 -32.532   4.115  1.00 33.10 LIG 0.47  C 
ATOM     12  N   GLY C1003      -6.251 -32.330   2.998  1.00 33.92 LIG 0.61  N 
ENDBRANCH 8 11
ENDBRANCH 6 7
BRANCH 6 13
ATOM     13  CB  ARG C1004      -3.299 -35.346   0.812  1.00 28.45 LIG 0.04  C 
BRANCH 13 14
ATOM     14  CG  ARG C1004      -3.924 -34.529  -0.295  1.00 27.92 LIG 0.02  C 
BRANCH 14 15
ATOM     15  CD  ARG C1004      -2.875 -34.057  -1.301  1.00 26.34 LIG 0.14  C 
BRANCH 15 16
ATOM     16  NE  ARG C1004      -3.244 -32.770  -1.872  1.00 24.25 LIG-0.23  N 
ATOM     17 HE   ARG C1004      -3.949 -32.385  -1.565  1.00 24.25 LIG 0.18  HD
ATOM     18  CZ  ARG C1004      -2.572 -32.145  -2.834  1.00 25.16 LIG 0.67  C 
ATOM     19  NH2 ARG C1004      -2.998 -30.972  -3.263  1.00 24.86 LIG-0.23  N 
ATOM     20  NH1 ARG C1004      -1.496 -32.693  -3.377  1.00 22.12 LIG-0.23  N 
ATOM     21 1HH2 ARG C1004      -3.704 -30.619  -2.921  1.00 24.86 LIG 0.17  HD
ATOM     22 2HH2 ARG C1004      -2.570 -30.560  -3.885  1.00 24.86 LIG 0.17  HD
ATOM     23 1HH1 ARG C1004      -1.223 -33.464  -3.109  1.00 22.12 LIG 0.17  HD
ATOM     24 2HH1 ARG C1004      -1.069 -32.279  -3.999  1.00 22.12 LIG 0.17  HD
ENDBRANCH 15 16
ENDBRANCH 14 15
ENDBRANCH 13 14
ENDBRANCH 6 13
ENDBRANCH 3 6
ENDBRANCH 1 2
BRANCH 1 25
ATOM     25  CB  PHE C1005       0.210 -31.098   1.546  1.00 25.48 LIG 0.07  C 
BRANCH 25 26
ATOM     26  CG  PHE C1005      -0.665 -30.999   2.756  1.00 23.55 LIG-0.06  A 
ATOM     27  CD1 PHE C1005      -0.390 -31.766   3.900  1.00 22.30 LIG 0.01  A 
ATOM     28  CE1 PHE C1005      -1.218 -31.685   5.031  1.00 23.64 LIG 0.00  A 
ATOM     29  CZ  PHE C1005      -2.355 -30.837   4.991  1.00 21.73 LIG 0.00  A 
ATOM     30  CE2 PHE C1005      -2.623 -30.073   3.862  1.00 19.92 LIG 0.00  A 
ATOM     31  CD2 PHE C1005      -1.778 -30.151   2.739  1.00 21.20 LIG 0.01  A 
ENDBRANCH 25 26
ENDBRANCH 1 25
BRANCH 1 32
ATOM     32  C   PHE C1005       0.770 -33.096   0.203  1.00 27.26 LIG 0.24  C 
ATOM     33 O    PHE C1005       1.824 -33.072   0.827  1.00 28.13 LIG-0.27  OA
ATOM     34  N   GLN C1006       0.476 -33.969  -0.756  1.00 28.15 LIG-0.35  N 
ATOM     35 H    GLN C1006      -0.310 -34.039  -1.098  1.00 28.15 LIG 0.16  HD
BRANCH 34 36
ATOM     36  CA  GLN C1006       1.446 -34.898  -1.333  1.00 29.76 LIG 0.18  C 
BRANCH 36 37
ATOM     37  CB  GLN C1006       2.468 -34.154  -2.188  1.00 29.94 LIG 0.04  C 
BRANCH 37 38
ATOM     38  CG  GLN C1006       2.529 -34.594  -3.638  1.00 33.02 LIG 0.10  C 
BRANCH 38 39
ATOM     39  CD  GLN C1006       3.808 -35.343  -3.969  1.00 35.46 LIG 0.21  C 
ATOM     40 OE1  GLN C1006       4.127 -35.559  -5.138  1.00 38.48 LIG-0.27  OA
ATOM     41  NE2 GLN C1006       4.541 -35.753  -2.935  1.00 37.01 LIG-0.37  N 
ATOM     42 22HE GLN C1006       5.271 -36.188  -3.070  1.00 37.01 LIG 0.16  HD
ATOM     43 21HE GLN C1006       4.285 -35.583  -2.132  1.00 37.01 LIG 0.16  HD
ENDBRANCH 38 39
ENDBRANCH 37 38
ENDBRANCH 36 37
BRANCH 36 44
ATOM     44  C   GLN C1006       2.149 -35.664  -0.209  1.00 30.09 LIG 0.24  C 
ATOM     45  N   VAL C1007       1.379 -35.981   0.837  1.00 30.97 LIG-0.35  N 
ATOM     46 H    VAL C1007       0.565 -35.714   0.909  1.00 30.97 LIG 0.16  HD
ATOM     47 O    GLN C1006       3.355 -35.932  -0.293  1.00 30.15 LIG-0.27  OA
BRANCH 45 48
ATOM     48  CA  VAL C1007       1.818 -36.808   1.972  1.00 32.05 LIG 0.18  C 
BRANCH 48 49
ATOM     49  CB  VAL C1007       2.701 -38.000   1.485  1.00 32.12 LIG 0.01  C 
ATOM     50  CG1 VAL C1007       2.036 -39.351   1.741  1.00 30.72 LIG 0.01  C 
ATOM     51  CG2 VAL C1007       4.095 -37.958   2.098  1.00 30.85 LIG 0.01  C 
ENDBRANCH 48 49
BRANCH 48 52
ATOM     52  C   VAL C1007       2.719 -35.836   2.785  1.00 33.20 LIG 0.24  C 
ATOM     53 O    VAL C1007       3.645 -35.279   2.207  1.00 34.91 LIG-0.27  OA
ATOM     54  N   THR C1008       2.506 -35.616   4.085  1.00 34.53 LIG-0.34  N 
ATOM     55 H    THR C1008       2.973 -35.035   4.513  1.00 34.53 LIG 0.16  HD
BRANCH 54 56
ATOM     56  CA  THR C1008       1.527 -36.259   4.957  1.00 33.96 LIG 0.19  C 
BRANCH 56 57
ATOM     57  C   THR C1008       0.351 -35.303   5.147  1.00 33.93 LIG 0.22  C 
ATOM     58 O    THR C1008      -0.685 -35.420   4.486  1.00 34.05 LIG-0.29  OA
ENDBRANCH 56 57
BRANCH 56 59
ATOM     59  CB  THR C1008       2.133 -36.585   6.374  1.00 34.51 LIG 0.14  C 
ATOM     60  CG2 THR C1008       3.643 -36.823   6.320  1.00 33.41 LIG 0.04  C 
BRANCH 59 61
ATOM     61 OG1  THR C1008       1.898 -35.495   7.259  1.00 32.91 LIG-0.39  OA
ATOM     62 HG1  THR C1008       2.483 -34.904   7.137  1.00 32.91 LIG 0.21  HD
ENDBRANCH 59 61
ENDBRANCH 56 59
ENDBRANCH 54 56
ENDBRANCH 48 52
ENDBRANCH 45 48
ENDBRANCH 36 44
ENDBRANCH 34 36
ENDBRANCH 1 32
TORSDOF 23
ENDMDL
MODEL 36
USER: ADFR SOLUTION from run 110
USER: SCORE 18.092020 LL:  -4.653 LR: -15.593 RR:   0.000 FEB:  -8.732
USER: RMSD 3.194435
USER: SEED 109
USER: STATUS searching
USER: GENES 25
USER: genes 0 Translation |==|  0.47887 0.57891 0.43259
USER: genes 1 Rotation |==|  0.58963 0.49822 0.43126 0.98707
USER: genes 2 Torsion [CB]-CA--N-[C] |==|  0.50556
USER: genes 3 Torsion [N]-C--CA-[N] |==|  0.88735
USER: genes 4 Torsion [C]-CA--N-[C] |==|  0.83810
USER: genes 5 Torsion [N]-C--CA-[N] |==|  0.86421
USER: genes 6 Torsion [C]-CA--CB-[CG] |==|  0.82187
USER: genes 7 Torsion [CA]-CB--CG-[CD] |==|  0.59768
USER: genes 8 Torsion [CB]-CG--CD-[NE] |==|  0.12068
USER: genes 9 Torsion [CG]-CD--NE-[HE] |==|  0.23713
USER: genes 10 Torsion [N]-CA--CB-[CG] |==|  0.97025
USER: genes 11 Torsion [CA]-CB--CG-[CD2] |==|  0.80438
USER: genes 12 Torsion [N]-CA--C-[N] |==|  0.32272
USER: genes 13 Torsion [C]-N--CA-[C] |==|  0.85363
USER: genes 14 Torsion [N]-CA--CB-[CG] |==|  0.41328
USER: genes 15 Torsion [CA]-CB--CG-[CD] |==|  0.70963
USER: genes 16 Torsion [CB]-CG--CD-[OE1] |==|  0.00934
USER: genes 17 Torsion [N]-CA--C-[N] |==|  0.85873
USER: genes 18 Torsion [C]-N--CA-[CB] |==|  0.16689
USER: genes 19 Torsion [N]-CA--CB-[CG1] |==|  0.62183
USER: genes 20 Torsion [N]-CA--C-[N] |==|  0.42762
USER: genes 21 Torsion [C]-N--CA-[C] |==|  0.75795
USER: genes 22 Torsion [N]-CA--C-[O] |==|  0.06547
USER: genes 23 Torsion [N]-CA--CB-[OG1] |==|  0.86272
USER: genes 24 Torsion [CA]-CB--OG1-[HG1] |==|  0.17391
ROOT
ATOM      1  CA  PHE C1005       0.715 -33.859   4.991  1.00 26.32 LIG 0.18  C 
ENDROOT
BRANCH 1 2
ATOM      2  N   PHE C1005      -0.092 -33.703   3.790  1.00 26.54 LIG-0.35  N 
ATOM      3  C   ARG C1004       0.134 -34.440   2.700  1.00 27.34 LIG 0.24  C 
ATOM      4 O    ARG C1004       0.918 -35.388   2.679  1.00 26.08 LIG-0.27  OA
ATOM      5 H    PHE C1005      -0.709 -33.107   3.849  1.00 26.54 LIG 0.16  HD
BRANCH 3 6
ATOM      6  CA  ARG C1004      -0.655 -34.056   1.438  1.00 28.49 LIG 0.18  C 
BRANCH 6 7
ATOM      7  N   ARG C1004      -2.045 -33.699   1.712  1.00 30.45 LIG-0.35  N 
ATOM      8  C   GLY C1003      -2.855 -34.574   2.308  1.00 32.03 LIG 0.25  C 
ATOM      9 O    GLY C1003      -2.463 -35.675   2.695  1.00 33.62 LIG-0.27  OA
ATOM     10 H    ARG C1004      -2.275 -32.910   1.462  1.00 30.45 LIG 0.16  HD
BRANCH 8 11
ATOM     11  CA  GLY C1003      -4.296 -34.154   2.507  1.00 33.10 LIG 0.47  C 
ATOM     12  N   GLY C1003      -4.411 -32.800   3.112  1.00 33.92 LIG 0.61  N 
ENDBRANCH 8 11
ENDBRANCH 6 7
BRANCH 6 13
ATOM     13  CB  ARG C1004       0.064 -32.946   0.666  1.00 28.45 LIG 0.04  C 
BRANCH 13 14
ATOM     14  CG  ARG C1004       0.169 -31.637   1.416  1.00 27.92 LIG 0.02  C 
BRANCH 14 15
ATOM     15  CD  ARG C1004       0.055 -30.442   0.471  1.00 26.34 LIG 0.14  C 
BRANCH 15 16
ATOM     16  NE  ARG C1004      -1.013 -30.642  -0.497  1.00 24.25 LIG-0.23  N 
ATOM     17 HE   ARG C1004      -1.811 -30.423  -0.260  1.00 24.25 LIG 0.18  HD
ATOM     18  CZ  ARG C1004      -0.849 -31.139  -1.718  1.00 25.16 LIG 0.67  C 
ATOM     19  NH2 ARG C1004      -1.896 -31.262  -2.513  1.00 24.86 LIG-0.23  N 
ATOM     20  NH1 ARG C1004       0.345 -31.530  -2.138  1.00 22.12 LIG-0.23  N 
ATOM     21 1HH2 ARG C1004      -2.675 -31.021  -2.239  1.00 24.86 LIG 0.17  HD
ATOM     22 2HH2 ARG C1004      -1.799 -31.583  -3.304  1.00 24.86 LIG 0.17  HD
ATOM     23 1HH1 ARG C1004       1.027 -31.464  -1.618  1.00 22.12 LIG 0.17  HD
ATOM     24 2HH1 ARG C1004       0.439 -31.850  -2.931  1.00 22.12 LIG 0.17  HD
ENDBRANCH 15 16
ENDBRANCH 14 15
ENDBRANCH 13 14
ENDBRANCH 6 13
ENDBRANCH 3 6
ENDBRANCH 1 2
BRANCH 1 25
ATOM     25  CB  PHE C1005       0.206 -32.930   6.088  1.00 25.48 LIG 0.07  C 
BRANCH 25 26
ATOM     26  CG  PHE C1005      -0.795 -31.934   5.594  1.00 23.55 LIG-0.06  A 
ATOM     27  CD1 PHE C1005      -2.150 -32.049   5.945  1.00 22.30 LIG 0.01  A 
ATOM     28  CE1 PHE C1005      -3.094 -31.123   5.471  1.00 23.64 LIG 0.00  A 
ATOM     29  CZ  PHE C1005      -2.662 -30.084   4.607  1.00 21.73 LIG 0.00  A 
ATOM     30  CE2 PHE C1005      -1.320 -29.965   4.266  1.00 19.92 LIG 0.00  A 
ATOM     31  CD2 PHE C1005      -0.380 -30.890   4.758  1.00 21.20 LIG 0.01  A 
ENDBRANCH 25 26
ENDBRANCH 1 25
BRANCH 1 32
ATOM     32  C   PHE C1005       0.705 -35.279   5.500  1.00 27.26 LIG 0.24  C 
ATOM     33 O    PHE C1005      -0.345 -35.783   5.883  1.00 28.13 LIG-0.27  OA
ATOM     34  N   GLN C1006       1.881 -35.897   5.484  1.00 28.15 LIG-0.35  N 
ATOM     35 H    GLN C1006       2.577 -35.565   5.104  1.00 28.15 LIG 0.16  HD
BRANCH 34 36
ATOM     36  CA  GLN C1006       2.122 -37.199   6.102  1.00 29.76 LIG 0.18  C 
BRANCH 36 37
ATOM     37  CB  GLN C1006       3.601 -37.571   6.025  1.00 29.94 LIG 0.04  C 
BRANCH 37 38
ATOM     38  CG  GLN C1006       4.108 -38.419   7.175  1.00 33.02 LIG 0.10  C 
BRANCH 38 39
ATOM     39  CD  GLN C1006       4.943 -37.626   8.164  1.00 35.46 LIG 0.21  C 
ATOM     40 OE1  GLN C1006       5.099 -36.412   8.026  1.00 38.48 LIG-0.27  OA
ATOM     41  NE2 GLN C1006       5.494 -38.313   9.164  1.00 37.01 LIG-0.37  N 
ATOM     42 22HE GLN C1006       5.981 -37.910   9.746  1.00 37.01 LIG 0.16  HD
ATOM     43 21HE GLN C1006       5.362 -39.160   9.226  1.00 37.01 LIG 0.16  HD
ENDBRANCH 38 39
ENDBRANCH 37 38
ENDBRANCH 36 37
BRANCH 36 44
ATOM     44  C   GLN C1006       1.659 -37.165   7.561  1.00 30.09 LIG 0.24  C 
ATOM     45  N   VAL C1007       2.124 -36.142   8.285  1.00 30.97 LIG-0.35  N 
ATOM     46 H    VAL C1007       2.698 -35.580   7.977  1.00 30.97 LIG 0.16  HD
ATOM     47 O    GLN C1006       0.923 -38.056   8.007  1.00 30.15 LIG-0.27  OA
BRANCH 45 48
ATOM     48  CA  VAL C1007       1.721 -35.853   9.671  1.00 32.05 LIG 0.18  C 
BRANCH 48 49
ATOM     49  CB  VAL C1007       2.067 -37.050  10.613  1.00 32.12 LIG 0.01  C 
ATOM     50  CG1 VAL C1007       0.928 -37.371  11.578  1.00 30.72 LIG 0.01  C 
ATOM     51  CG2 VAL C1007       3.368 -36.814  11.370  1.00 30.85 LIG 0.01  C 
ENDBRANCH 48 49
BRANCH 48 52
ATOM     52  C   VAL C1007       2.629 -34.652  10.057  1.00 33.20 LIG 0.24  C 
ATOM     53 O    VAL C1007       3.707 -34.530   9.487  1.00 34.91 LIG-0.27  OA
ATOM     54  N   THR C1008       2.258 -33.775  10.993  1.00 34.53 LIG-0.34  N 
ATOM     55 H    THR C1008       2.740 -33.082  11.160  1.00 34.53 LIG 0.16  HD
BRANCH 54 56
ATOM     56  CA  THR C1008       1.070 -33.813  11.842  1.00 33.96 LIG 0.19  C 
BRANCH 56 57
ATOM     57  C   THR C1008      -0.077 -33.136  11.094  1.00 33.93 LIG 0.22  C 
ATOM     58 O    THR C1008      -0.081 -33.053   9.863  1.00 34.05 LIG-0.29  OA
ENDBRANCH 56 57
BRANCH 56 59
ATOM     59  CB  THR C1008       1.297 -33.047  13.199  1.00 34.51 LIG 0.14  C 
ATOM     60  CG2 THR C1008       0.172 -33.298  14.204  1.00 33.41 LIG 0.04  C 
BRANCH 59 61
ATOM     61 OG1  THR C1008       2.515 -33.481  13.796  1.00 32.91 LIG-0.39  OA
ATOM     62 HG1  THR C1008       3.159 -33.288  13.291  1.00 32.91 LIG 0.21  HD
ENDBRANCH 59 61
ENDBRANCH 56 59
ENDBRANCH 54 56
ENDBRANCH 48 52
ENDBRANCH 45 48
ENDBRANCH 36 44
ENDBRANCH 34 36
ENDBRANCH 1 32
TORSDOF 23
ENDMDL
MODEL 37
USER: ADFR SOLUTION from run 85
USER: SCORE 18.981553 LL:  -4.448 LR: -15.584 RR:   0.000 FEB:  -8.723
USER: RMSD 5.767999
USER: SEED 84
USER: STATUS no improvement in best in 6 clusters for 5 generations
USER: GENES 25
USER: genes 0 Translation |==|  0.46198 0.57525 0.37747
USER: genes 1 Rotation |==|  0.70441 0.38289 0.56197 0.93665
USER: genes 2 Torsion [CB]-CA--N-[C] |==|  0.84989
USER: genes 3 Torsion [N]-C--CA-[N] |==|  0.96190
USER: genes 4 Torsion [C]-CA--N-[C] |==|  0.77771
USER: genes 5 Torsion [N]-C--CA-[N] |==|  0.18721
USER: genes 6 Torsion [C]-CA--CB-[CG] |==|  0.52330
USER: genes 7 Torsion [CA]-CB--CG-[CD] |==|  0.74448
USER: genes 8 Torsion [CB]-CG--CD-[NE] |==|  0.29073
USER: genes 9 Torsion [CG]-CD--NE-[HE] |==|  0.24235
USER: genes 10 Torsion [N]-CA--CB-[CG] |==|  0.85116
USER: genes 11 Torsion [CA]-CB--CG-[CD2] |==|  0.46706
USER: genes 12 Torsion [N]-CA--C-[N] |==|  0.36125
USER: genes 13 Torsion [C]-N--CA-[C] |==|  0.66940
USER: genes 14 Torsion [N]-CA--CB-[CG] |==|  0.98044
USER: genes 15 Torsion [CA]-CB--CG-[CD] |==|  0.77430
USER: genes 16 Torsion [CB]-CG--CD-[OE1] |==|  0.28394
USER: genes 17 Torsion [N]-CA--C-[N] |==|  0.90291
USER: genes 18 Torsion [C]-N--CA-[CB] |==|  0.19444
USER: genes 19 Torsion [N]-CA--CB-[CG1] |==|  0.08632
USER: genes 20 Torsion [N]-CA--C-[N] |==|  0.16443
USER: genes 21 Torsion [C]-N--CA-[C] |==|  0.57926
USER: genes 22 Torsion [N]-CA--C-[O] |==|  0.09616
USER: genes 23 Torsion [N]-CA--CB-[OG1] |==|  0.99606
USER: genes 24 Torsion [CA]-CB--OG1-[HG1] |==|  0.75452
ROOT
ATOM      1  CA  PHE C1005       0.386 -33.925   3.462  1.00 26.32 LIG 0.18  C 
ENDROOT
BRANCH 1 2
ATOM      2  N   PHE C1005       0.277 -33.384   2.115  1.00 26.54 LIG-0.35  N 
ATOM      3  C   ARG C1004      -0.652 -33.820   1.263  1.00 27.34 LIG 0.24  C 
ATOM      4 O    ARG C1004      -1.561 -34.582   1.590  1.00 26.08 LIG-0.27  OA
ATOM      5 H    PHE C1005       0.854 -32.773   1.928  1.00 26.54 LIG 0.16  HD
BRANCH 3 6
ATOM      6  CA  ARG C1004      -0.548 -33.312  -0.184  1.00 28.49 LIG 0.18  C 
BRANCH 6 7
ATOM      7  N   ARG C1004       0.364 -32.181  -0.335  1.00 30.45 LIG-0.35  N 
ATOM      8  C   GLY C1003      -0.038 -30.951  -0.018  1.00 32.03 LIG 0.25  C 
ATOM      9 O    GLY C1003      -1.150 -30.725   0.458  1.00 33.62 LIG-0.27  OA
ATOM     10 H    ARG C1004       1.146 -32.380  -0.634  1.00 30.45 LIG 0.16  HD
BRANCH 8 11
ATOM     11  CA  GLY C1003       0.945 -29.823  -0.254  1.00 33.10 LIG 0.47  C 
ATOM     12  N   GLY C1003       1.208 -29.596  -1.700  1.00 33.92 LIG 0.61  N 
ENDBRANCH 8 11
ENDBRANCH 6 7
BRANCH 6 13
ATOM     13  CB  ARG C1004      -0.182 -34.455  -1.136  1.00 28.45 LIG 0.04  C 
BRANCH 13 14
ATOM     14  CG  ARG C1004       0.137 -34.011  -2.545  1.00 27.92 LIG 0.02  C 
BRANCH 14 15
ATOM     15  CD  ARG C1004      -1.106 -34.037  -3.433  1.00 26.34 LIG 0.14  C 
BRANCH 15 16
ATOM     16  NE  ARG C1004      -1.606 -32.691  -3.670  1.00 24.25 LIG-0.23  N 
ATOM     17 HE   ARG C1004      -1.274 -32.254  -4.333  1.00 24.25 LIG 0.18  HD
ATOM     18  CZ  ARG C1004      -2.535 -32.086  -2.939  1.00 25.16 LIG 0.67  C 
ATOM     19  NH2 ARG C1004      -2.918 -30.864  -3.260  1.00 24.86 LIG-0.23  N 
ATOM     20  NH1 ARG C1004      -3.066 -32.685  -1.883  1.00 22.12 LIG-0.23  N 
ATOM     21 1HH2 ARG C1004      -2.566 -30.467  -3.937  1.00 24.86 LIG 0.17  HD
ATOM     22 2HH2 ARG C1004      -3.519 -30.465  -2.792  1.00 24.86 LIG 0.17  HD
ATOM     23 1HH1 ARG C1004      -2.809 -33.476  -1.663  1.00 22.12 LIG 0.17  HD
ATOM     24 2HH1 ARG C1004      -3.667 -32.283  -1.417  1.00 22.12 LIG 0.17  HD
ENDBRANCH 15 16
ENDBRANCH 14 15
ENDBRANCH 13 14
ENDBRANCH 6 13
ENDBRANCH 3 6
ENDBRANCH 1 2
BRANCH 1 25
ATOM     25  CB  PHE C1005      -0.956 -33.821   4.177  1.00 25.48 LIG 0.07  C 
BRANCH 25 26
ATOM     26  CG  PHE C1005      -1.521 -32.436   4.167  1.00 23.55 LIG-0.06  A 
ATOM     27  CD1 PHE C1005      -0.724 -31.343   3.787  1.00 22.30 LIG 0.01  A 
ATOM     28  CE1 PHE C1005      -1.248 -30.040   3.790  1.00 23.64 LIG 0.00  A 
ATOM     29  CZ  PHE C1005      -2.588 -29.840   4.210  1.00 21.73 LIG 0.00  A 
ATOM     30  CE2 PHE C1005      -3.379 -30.922   4.578  1.00 19.92 LIG 0.00  A 
ATOM     31  CD2 PHE C1005      -2.848 -32.225   4.558  1.00 21.20 LIG 0.01  A 
ENDBRANCH 25 26
ENDBRANCH 1 25
BRANCH 1 32
ATOM     32  C   PHE C1005       0.837 -35.364   3.459  1.00 27.26 LIG 0.24  C 
ATOM     33 O    PHE C1005       0.277 -36.178   2.735  1.00 28.13 LIG-0.27  OA
ATOM     34  N   GLN C1006       1.852 -35.643   4.270  1.00 28.15 LIG-0.35  N 
ATOM     35 H    GLN C1006       2.302 -35.035   4.680  1.00 28.15 LIG 0.16  HD
BRANCH 34 36
ATOM     36  CA  GLN C1006       2.315 -37.000   4.555  1.00 29.76 LIG 0.18  C 
BRANCH 36 37
ATOM     37  CB  GLN C1006       3.765 -37.182   4.116  1.00 29.94 LIG 0.04  C 
BRANCH 37 38
ATOM     38  CG  GLN C1006       4.351 -36.014   3.346  1.00 33.02 LIG 0.10  C 
BRANCH 38 39
ATOM     39  CD  GLN C1006       3.962 -36.026   1.879  1.00 35.46 LIG 0.21  C 
ATOM     40 OE1  GLN C1006       3.080 -35.279   1.455  1.00 38.48 LIG-0.27  OA
ATOM     41  NE2 GLN C1006       4.615 -36.885   1.097  1.00 37.01 LIG-0.37  N 
ATOM     42 22HE GLN C1006       4.425 -36.934   0.260  1.00 37.01 LIG 0.16  HD
ATOM     43 21HE GLN C1006       5.225 -37.391   1.431  1.00 37.01 LIG 0.16  HD
ENDBRANCH 38 39
ENDBRANCH 37 38
ENDBRANCH 36 37
BRANCH 36 44
ATOM     44  C   GLN C1006       2.173 -37.284   6.053  1.00 30.09 LIG 0.24  C 
ATOM     45  N   VAL C1007       2.396 -36.239   6.857  1.00 30.97 LIG-0.35  N 
ATOM     46 H    VAL C1007       2.669 -35.478   6.562  1.00 30.97 LIG 0.16  HD
ATOM     47 O    GLN C1006       1.893 -38.422   6.452  1.00 30.15 LIG-0.27  OA
BRANCH 45 48
ATOM     48  CA  VAL C1007       2.208 -36.258   8.316  1.00 32.05 LIG 0.18  C 
BRANCH 48 49
ATOM     49  CB  VAL C1007       3.293 -37.144   9.006  1.00 32.12 LIG 0.01  C 
ATOM     50  CG1 VAL C1007       4.615 -37.135   8.244  1.00 30.72 LIG 0.01  C 
ATOM     51  CG2 VAL C1007       2.802 -38.571   9.221  1.00 30.85 LIG 0.01  C 
ENDBRANCH 48 49
BRANCH 48 52
ATOM     52  C   VAL C1007       2.459 -34.778   8.721  1.00 33.20 LIG 0.24  C 
ATOM     53 O    VAL C1007       3.354 -34.538   9.524  1.00 34.91 LIG-0.27  OA
ATOM     54  N   THR C1008       1.717 -33.787   8.222  1.00 34.53 LIG-0.34  N 
ATOM     55 H    THR C1008       1.899 -32.967   8.407  1.00 34.53 LIG 0.16  HD
BRANCH 54 56
ATOM     56  CA  THR C1008       0.555 -33.888   7.343  1.00 33.96 LIG 0.19  C 
BRANCH 56 57
ATOM     57  C   THR C1008       0.481 -32.619   6.496  1.00 33.93 LIG 0.22  C 
ATOM     58 O    THR C1008       1.502 -32.043   6.110  1.00 34.05 LIG-0.29  OA
ENDBRANCH 56 57
BRANCH 56 59
ATOM     59  CB  THR C1008      -0.785 -34.016   8.160  1.00 34.51 LIG 0.14  C 
ATOM     60  CG2 THR C1008      -1.548 -35.299   7.828  1.00 33.41 LIG 0.04  C 
BRANCH 59 61
ATOM     61 OG1  THR C1008      -0.497 -34.032   9.554  1.00 32.91 LIG-0.39  OA
ATOM     62 HG1  THR C1008      -0.356 -34.822   9.803  1.00 32.91 LIG 0.21  HD
ENDBRANCH 59 61
ENDBRANCH 56 59
ENDBRANCH 54 56
ENDBRANCH 48 52
ENDBRANCH 45 48
ENDBRANCH 36 44
ENDBRANCH 34 36
ENDBRANCH 1 32
TORSDOF 23
ENDMDL
MODEL 38
USER: ADFR SOLUTION from run 129
USER: SCORE 17.611473 LL:  -5.318 LR: -15.566 RR:   0.000 FEB:  -8.705
USER: RMSD 3.719209
USER: SEED 128
USER: STATUS no improvement in best in 11 clusters for 5 generations
USER: GENES 25
USER: genes 0 Translation |==|  0.45216 0.59264 0.44588
USER: genes 1 Rotation |==|  0.44217 0.47871 0.32147 0.96296
USER: genes 2 Torsion [CB]-CA--N-[C] |==|  0.35454
USER: genes 3 Torsion [N]-C--CA-[N] |==|  0.98330
USER: genes 4 Torsion [C]-CA--N-[C] |==|  0.80417
USER: genes 5 Torsion [N]-C--CA-[N] |==|  0.19721
USER: genes 6 Torsion [C]-CA--CB-[CG] |==|  0.90553
USER: genes 7 Torsion [CA]-CB--CG-[CD] |==|  0.70740
USER: genes 8 Torsion [CB]-CG--CD-[NE] |==|  0.93139
USER: genes 9 Torsion [CG]-CD--NE-[HE] |==|  0.27752
USER: genes 10 Torsion [N]-CA--CB-[CG] |==|  0.03755
USER: genes 11 Torsion [CA]-CB--CG-[CD2] |==|  0.71196
USER: genes 12 Torsion [N]-CA--C-[N] |==|  0.72468
USER: genes 13 Torsion [C]-N--CA-[C] |==|  0.23194
USER: genes 14 Torsion [N]-CA--CB-[CG] |==|  0.72352
USER: genes 15 Torsion [CA]-CB--CG-[CD] |==|  0.21944
USER: genes 16 Torsion [CB]-CG--CD-[OE1] |==|  0.81780
USER: genes 17 Torsion [N]-CA--C-[N] |==|  0.80809
USER: genes 18 Torsion [C]-N--CA-[CB] |==|  0.51923
USER: genes 19 Torsion [N]-CA--CB-[CG1] |==|  0.44155
USER: genes 20 Torsion [N]-CA--C-[N] |==|  0.31321
USER: genes 21 Torsion [C]-N--CA-[C] |==|  0.63837
USER: genes 22 Torsion [N]-CA--C-[O] |==|  0.06451
USER: genes 23 Torsion [N]-CA--CB-[OG1] |==|  0.93739
USER: genes 24 Torsion [CA]-CB--OG1-[HG1] |==|  0.25037
ROOT
ATOM      1  CA  PHE C1005       0.194 -33.611   5.360  1.00 26.32 LIG 0.18  C 
ENDROOT
BRANCH 1 2
ATOM      2  N   PHE C1005      -0.712 -33.745   4.229  1.00 26.54 LIG-0.35  N 
ATOM      3  C   ARG C1004      -0.361 -34.420   3.133  1.00 27.34 LIG 0.24  C 
ATOM      4 O    ARG C1004       0.667 -35.093   3.056  1.00 26.08 LIG-0.27  OA
ATOM      5 H    PHE C1005      -1.473 -33.358   4.333  1.00 26.54 LIG 0.16  HD
BRANCH 3 6
ATOM      6  CA  ARG C1004      -1.322 -34.333   1.937  1.00 28.49 LIG 0.18  C 
BRANCH 6 7
ATOM      7  N   ARG C1004      -2.561 -33.622   2.242  1.00 30.45 LIG-0.35  N 
ATOM      8  C   GLY C1003      -3.469 -34.175   3.047  1.00 32.03 LIG 0.25  C 
ATOM      9 O    GLY C1003      -3.284 -35.259   3.599  1.00 33.62 LIG-0.27  OA
ATOM     10 H    ARG C1004      -2.641 -32.851   1.870  1.00 30.45 LIG 0.16  HD
BRANCH 8 11
ATOM     11  CA  GLY C1003      -4.751 -33.402   3.272  1.00 33.10 LIG 0.47  C 
ATOM     12  N   GLY C1003      -5.621 -33.387   2.065  1.00 33.92 LIG 0.61  N 
ENDBRANCH 8 11
ENDBRANCH 6 7
BRANCH 6 13
ATOM     13  CB  ARG C1004      -0.619 -33.729   0.718  1.00 28.45 LIG 0.04  C 
BRANCH 13 14
ATOM     14  CG  ARG C1004       0.414 -32.679   1.055  1.00 27.92 LIG 0.02  C 
BRANCH 14 15
ATOM     15  CD  ARG C1004      -0.096 -31.273   0.738  1.00 26.34 LIG 0.14  C 
BRANCH 15 16
ATOM     16  NE  ARG C1004      -1.124 -31.311  -0.292  1.00 24.25 LIG-0.23  N 
ATOM     17 HE   ARG C1004      -1.944 -31.263  -0.037  1.00 24.25 LIG 0.18  HD
ATOM     18  CZ  ARG C1004      -0.891 -31.416  -1.596  1.00 25.16 LIG 0.67  C 
ATOM     19  NH2 ARG C1004      -1.908 -31.428  -2.436  1.00 24.86 LIG-0.23  N 
ATOM     20  NH1 ARG C1004       0.346 -31.529  -2.058  1.00 22.12 LIG-0.23  N 
ATOM     21 1HH2 ARG C1004      -2.713 -31.367  -2.138  1.00 24.86 LIG 0.17  HD
ATOM     22 2HH2 ARG C1004      -1.767 -31.495  -3.281  1.00 24.86 LIG 0.17  HD
ATOM     23 1HH1 ARG C1004       1.010 -31.535  -1.512  1.00 22.12 LIG 0.17  HD
ATOM     24 2HH1 ARG C1004       0.484 -31.596  -2.904  1.00 22.12 LIG 0.17  HD
ENDBRANCH 15 16
ENDBRANCH 14 15
ENDBRANCH 13 14
ENDBRANCH 6 13
ENDBRANCH 3 6
ENDBRANCH 1 2
BRANCH 1 25
ATOM     25  CB  PHE C1005       0.340 -32.143   5.743  1.00 25.48 LIG 0.07  C 
BRANCH 25 26
ATOM     26  CG  PHE C1005      -0.692 -31.267   5.108  1.00 23.55 LIG-0.06  A 
ATOM     27  CD1 PHE C1005      -2.014 -31.261   5.583  1.00 22.30 LIG 0.01  A 
ATOM     28  CE1 PHE C1005      -2.988 -30.449   4.979  1.00 23.64 LIG 0.00  A 
ATOM     29  CZ  PHE C1005      -2.623 -29.654   3.862  1.00 21.73 LIG 0.00  A 
ATOM     30  CE2 PHE C1005      -1.314 -29.654   3.397  1.00 19.92 LIG 0.00  A 
ATOM     31  CD2 PHE C1005      -0.342 -30.461   4.019  1.00 21.20 LIG 0.01  A 
ENDBRANCH 25 26
ENDBRANCH 1 25
BRANCH 1 32
ATOM     32  C   PHE C1005      -0.280 -34.393   6.561  1.00 27.26 LIG 0.24  C 
ATOM     33 O    PHE C1005      -0.062 -35.597   6.630  1.00 28.13 LIG-0.27  OA
ATOM     34  N   GLN C1006      -0.915 -33.682   7.486  1.00 28.15 LIG-0.35  N 
ATOM     35 H    GLN C1006      -0.954 -32.823   7.470  1.00 28.15 LIG 0.16  HD
BRANCH 34 36
ATOM     36  CA  GLN C1006      -1.613 -34.274   8.627  1.00 29.76 LIG 0.18  C 
BRANCH 36 37
ATOM     37  CB  GLN C1006      -2.330 -35.558   8.218  1.00 29.94 LIG 0.04  C 
BRANCH 37 38
ATOM     38  CG  GLN C1006      -3.816 -35.403   7.953  1.00 33.02 LIG 0.10  C 
BRANCH 38 39
ATOM     39  CD  GLN C1006      -4.108 -34.809   6.586  1.00 35.46 LIG 0.21  C 
ATOM     40 OE1  GLN C1006      -3.776 -33.655   6.318  1.00 38.48 LIG-0.27  OA
ATOM     41  NE2 GLN C1006      -4.742 -35.597   5.719  1.00 37.01 LIG-0.37  N 
ATOM     42 22HE GLN C1006      -4.936 -35.304   4.934  1.00 37.01 LIG 0.16  HD
ATOM     43 21HE GLN C1006      -4.958 -36.398   5.944  1.00 37.01 LIG 0.16  HD
ENDBRANCH 38 39
ENDBRANCH 37 38
ENDBRANCH 36 37
BRANCH 36 44
ATOM     44  C   GLN C1006      -0.609 -34.560   9.747  1.00 30.09 LIG 0.24  C 
ATOM     45  N   VAL C1007       0.264 -35.540   9.496  1.00 30.97 LIG-0.35  N 
ATOM     46 H    VAL C1007       0.223 -36.026   8.787  1.00 30.97 LIG 0.16  HD
ATOM     47 O    GLN C1006      -0.652 -33.920  10.806  1.00 30.15 LIG-0.27  OA
BRANCH 45 48
ATOM     48  CA  VAL C1007       1.380 -35.907  10.382  1.00 32.05 LIG 0.18  C 
BRANCH 48 49
ATOM     49  CB  VAL C1007       2.301 -36.972   9.707  1.00 32.12 LIG 0.01  C 
ATOM     50  CG1 VAL C1007       3.697 -37.001  10.325  1.00 30.72 LIG 0.01  C 
ATOM     51  CG2 VAL C1007       2.382 -36.773   8.198  1.00 30.85 LIG 0.01  C 
ENDBRANCH 48 49
BRANCH 48 52
ATOM     52  C   VAL C1007       2.180 -34.579  10.505  1.00 33.20 LIG 0.24  C 
ATOM     53 O    VAL C1007       2.758 -34.154   9.511  1.00 34.91 LIG-0.27  OA
ATOM     54  N   THR C1008       2.252 -33.917  11.662  1.00 34.53 LIG-0.34  N 
ATOM     55 H    THR C1008       2.649 -33.155  11.707  1.00 34.53 LIG 0.16  HD
BRANCH 54 56
ATOM     56  CA  THR C1008       1.720 -34.317  12.961  1.00 33.96 LIG 0.19  C 
BRANCH 56 57
ATOM     57  C   THR C1008       0.921 -33.148  13.534  1.00 33.93 LIG 0.22  C 
ATOM     58 O    THR C1008       0.444 -32.275  12.803  1.00 34.05 LIG-0.29  OA
ENDBRANCH 56 57
BRANCH 56 59
ATOM     59  CB  THR C1008       2.869 -34.675  13.977  1.00 34.51 LIG 0.14  C 
ATOM     60  CG2 THR C1008       2.505 -35.860  14.873  1.00 33.41 LIG 0.04  C 
BRANCH 59 61
ATOM     61 OG1  THR C1008       4.051 -35.021  13.261  1.00 32.91 LIG-0.39  OA
ATOM     62 HG1  THR C1008       4.512 -34.331  13.132  1.00 32.91 LIG 0.21  HD
ENDBRANCH 59 61
ENDBRANCH 56 59
ENDBRANCH 54 56
ENDBRANCH 48 52
ENDBRANCH 45 48
ENDBRANCH 36 44
ENDBRANCH 34 36
ENDBRANCH 1 32
TORSDOF 23
ENDMDL
MODEL 39
USER: ADFR SOLUTION from run 47
USER: SCORE 18.641070 LL:  -4.614 LR: -15.552 RR:   0.000 FEB:  -8.691
USER: RMSD 8.079997
USER: SEED 46
USER: STATUS searching
USER: GENES 25
USER: genes 0 Translation |==|  0.40592 0.70375 0.29148
USER: genes 1 Rotation |==|  0.51756 0.82589 0.55356 0.87499
USER: genes 2 Torsion [CB]-CA--N-[C] |==|  0.76997
USER: genes 3 Torsion [N]-C--CA-[N] |==|  0.90007
USER: genes 4 Torsion [C]-CA--N-[C] |==|  0.70128
USER: genes 5 Torsion [N]-C--CA-[N] |==|  0.06870
USER: genes 6 Torsion [C]-CA--CB-[CG] |==|  0.77688
USER: genes 7 Torsion [CA]-CB--CG-[CD] |==|  0.27475
USER: genes 8 Torsion [CB]-CG--CD-[NE] |==|  0.64089
USER: genes 9 Torsion [CG]-CD--NE-[HE] |==|  0.02998
USER: genes 10 Torsion [N]-CA--CB-[CG] |==|  0.01131
USER: genes 11 Torsion [CA]-CB--CG-[CD2] |==|  0.79116
USER: genes 12 Torsion [N]-CA--C-[N] |==|  0.09755
USER: genes 13 Torsion [C]-N--CA-[C] |==|  0.16398
USER: genes 14 Torsion [N]-CA--CB-[CG] |==|  0.57731
USER: genes 15 Torsion [CA]-CB--CG-[CD] |==|  0.51732
USER: genes 16 Torsion [CB]-CG--CD-[OE1] |==|  0.41949
USER: genes 17 Torsion [N]-CA--C-[N] |==|  0.09557
USER: genes 18 Torsion [C]-N--CA-[CB] |==|  0.54704
USER: genes 19 Torsion [N]-CA--CB-[CG1] |==|  0.78844
USER: genes 20 Torsion [N]-CA--C-[N] |==|  0.29590
USER: genes 21 Torsion [C]-N--CA-[C] |==|  0.56151
USER: genes 22 Torsion [N]-CA--C-[O] |==|  0.93598
USER: genes 23 Torsion [N]-CA--CB-[OG1] |==|  0.85073
USER: genes 24 Torsion [CA]-CB--OG1-[HG1] |==|  0.83885
ROOT
ATOM      1  CA  PHE C1005      -0.708 -31.611   1.076  1.00 26.32 LIG 0.18  C 
ENDROOT
BRANCH 1 2
ATOM      2  N   PHE C1005      -1.864 -32.352   1.557  1.00 26.54 LIG-0.35  N 
ATOM      3  C   ARG C1004      -1.727 -33.443   2.312  1.00 27.34 LIG 0.24  C 
ATOM      4 O    ARG C1004      -0.648 -33.810   2.775  1.00 26.08 LIG-0.27  OA
ATOM      5 H    PHE C1005      -2.623 -32.026   1.314  1.00 26.54 LIG 0.16  HD
BRANCH 3 6
ATOM      6  CA  ARG C1004      -3.008 -34.243   2.600  1.00 28.49 LIG 0.18  C 
BRANCH 6 7
ATOM      7  N   ARG C1004      -4.189 -33.401   2.770  1.00 30.45 LIG-0.35  N 
ATOM      8  C   GLY C1003      -4.722 -33.233   3.981  1.00 32.03 LIG 0.25  C 
ATOM      9 O    GLY C1003      -4.222 -33.724   4.993  1.00 33.62 LIG-0.27  OA
ATOM     10 H    ARG C1004      -4.490 -33.043   2.049  1.00 30.45 LIG 0.16  HD
BRANCH 8 11
ATOM     11  CA  GLY C1003      -5.977 -32.392   4.070  1.00 33.10 LIG 0.47  C 
ATOM     12  N   GLY C1003      -6.736 -32.371   2.791  1.00 33.92 LIG 0.61  N 
ENDBRANCH 8 11
ENDBRANCH 6 7
BRANCH 6 13
ATOM     13  CB  ARG C1004      -3.234 -35.310   1.525  1.00 28.45 LIG 0.04  C 
BRANCH 13 14
ATOM     14  CG  ARG C1004      -3.853 -34.784   0.250  1.00 27.92 LIG 0.02  C 
BRANCH 14 15
ATOM     15  CD  ARG C1004      -2.795 -34.542  -0.826  1.00 26.34 LIG 0.14  C 
BRANCH 15 16
ATOM     16  NE  ARG C1004      -2.921 -33.206  -1.389  1.00 24.25 LIG-0.23  N 
ATOM     17 HE   ARG C1004      -3.446 -32.654  -0.990  1.00 24.25 LIG 0.18  HD
ATOM     18  CZ  ARG C1004      -2.285 -32.776  -2.474  1.00 25.16 LIG 0.67  C 
ATOM     19  NH2 ARG C1004      -2.470 -31.535  -2.883  1.00 24.86 LIG-0.23  N 
ATOM     20  NH1 ARG C1004      -1.487 -33.582  -3.158  1.00 22.12 LIG-0.23  N 
ATOM     21 1HH2 ARG C1004      -2.998 -31.013  -2.448  1.00 24.86 LIG 0.17  HD
ATOM     22 2HH2 ARG C1004      -2.064 -31.248  -3.584  1.00 24.86 LIG 0.17  HD
ATOM     23 1HH1 ARG C1004      -1.375 -34.395  -2.902  1.00 22.12 LIG 0.17  HD
ATOM     24 2HH1 ARG C1004      -1.081 -33.292  -3.859  1.00 22.12 LIG 0.17  HD
ENDBRANCH 15 16
ENDBRANCH 14 15
ENDBRANCH 13 14
ENDBRANCH 6 13
ENDBRANCH 3 6
ENDBRANCH 1 2
BRANCH 1 25
ATOM     25  CB  PHE C1005      -0.212 -30.656   2.154  1.00 25.48 LIG 0.07  C 
BRANCH 25 26
ATOM     26  CG  PHE C1005      -0.961 -30.787   3.443  1.00 23.55 LIG-0.06  A 
ATOM     27  CD1 PHE C1005      -0.386 -31.451   4.539  1.00 22.30 LIG 0.01  A 
ATOM     28  CE1 PHE C1005      -1.094 -31.587   5.744  1.00 23.64 LIG 0.00  A 
ATOM     29  CZ  PHE C1005      -2.411 -31.068   5.830  1.00 21.73 LIG 0.00  A 
ATOM     30  CE2 PHE C1005      -2.977 -30.404   4.748  1.00 19.92 LIG 0.00  A 
ATOM     31  CD2 PHE C1005      -2.254 -30.260   3.549  1.00 21.20 LIG 0.01  A 
ENDBRANCH 25 26
ENDBRANCH 1 25
BRANCH 1 32
ATOM     32  C   PHE C1005       0.420 -32.527   0.667  1.00 27.26 LIG 0.24  C 
ATOM     33 O    PHE C1005       1.582 -32.188   0.862  1.00 28.13 LIG-0.27  OA
ATOM     34  N   GLN C1006       0.048 -33.675   0.113  1.00 28.15 LIG-0.35  N 
ATOM     35 H    GLN C1006      -0.771 -33.940   0.093  1.00 28.15 LIG 0.16  HD
BRANCH 34 36
ATOM     36  CA  GLN C1006       0.977 -34.611  -0.518  1.00 29.76 LIG 0.18  C 
BRANCH 36 37
ATOM     37  CB  GLN C1006       1.655 -33.971  -1.726  1.00 29.94 LIG 0.04  C 
BRANCH 37 38
ATOM     38  CG  GLN C1006       2.088 -34.944  -2.806  1.00 33.02 LIG 0.10  C 
BRANCH 38 39
ATOM     39  CD  GLN C1006       2.888 -34.275  -3.910  1.00 35.46 LIG 0.21  C 
ATOM     40 OE1  GLN C1006       3.735 -34.904  -4.543  1.00 38.48 LIG-0.27  OA
ATOM     41  NE2 GLN C1006       2.627 -32.988  -4.138  1.00 37.01 LIG-0.37  N 
ATOM     42 22HE GLN C1006       3.058 -32.563  -4.748  1.00 37.01 LIG 0.16  HD
ATOM     43 21HE GLN C1006       2.027 -32.583  -3.674  1.00 37.01 LIG 0.16  HD
ENDBRANCH 38 39
ENDBRANCH 37 38
ENDBRANCH 36 37
BRANCH 36 44
ATOM     44  C   GLN C1006       2.025 -35.058   0.505  1.00 30.09 LIG 0.24  C 
ATOM     45  N   VAL C1007       1.585 -35.172   1.762  1.00 30.97 LIG-0.35  N 
ATOM     46 H    VAL C1007       0.790 -34.944   1.996  1.00 30.97 LIG 0.16  HD
ATOM     47 O    GLN C1006       3.194 -35.266   0.154  1.00 30.15 LIG-0.27  OA
BRANCH 45 48
ATOM     48  CA  VAL C1007       2.389 -35.691   2.880  1.00 32.05 LIG 0.18  C 
BRANCH 48 49
ATOM     49  CB  VAL C1007       1.478 -36.088   4.084  1.00 32.12 LIG 0.01  C 
ATOM     50  CG1 VAL C1007       0.984 -34.869   4.860  1.00 30.72 LIG 0.01  C 
ATOM     51  CG2 VAL C1007       2.172 -37.077   5.015  1.00 30.85 LIG 0.01  C 
ENDBRANCH 48 49
BRANCH 48 52
ATOM     52  C   VAL C1007       3.012 -36.988   2.292  1.00 33.20 LIG 0.24  C 
ATOM     53 O    VAL C1007       2.289 -37.968   2.150  1.00 34.91 LIG-0.27  OA
ATOM     54  N   THR C1008       4.303 -37.048   1.957  1.00 34.53 LIG-0.34  N 
ATOM     55 H    THR C1008       4.626 -37.751   1.580  1.00 34.53 LIG 0.16  HD
BRANCH 54 56
ATOM     56  CA  THR C1008       5.330 -36.028   2.147  1.00 33.96 LIG 0.19  C 
BRANCH 56 57
ATOM     57  C   THR C1008       6.461 -36.293   1.155  1.00 33.93 LIG 0.22  C 
ATOM     58 O    THR C1008       6.644 -37.414   0.674  1.00 34.05 LIG-0.29  OA
ENDBRANCH 56 57
BRANCH 56 59
ATOM     59  CB  THR C1008       5.929 -36.067   3.603  1.00 34.51 LIG 0.14  C 
ATOM     60  CG2 THR C1008       6.889 -34.906   3.868  1.00 33.41 LIG 0.04  C 
BRANCH 59 61
ATOM     61 OG1  THR C1008       4.876 -35.984   4.558  1.00 32.91 LIG-0.39  OA
ATOM     62 HG1  THR C1008       4.438 -35.278   4.431  1.00 32.91 LIG 0.21  HD
ENDBRANCH 59 61
ENDBRANCH 56 59
ENDBRANCH 54 56
ENDBRANCH 48 52
ENDBRANCH 45 48
ENDBRANCH 36 44
ENDBRANCH 34 36
ENDBRANCH 1 32
TORSDOF 23
ENDMDL
MODEL 40
USER: ADFR SOLUTION from run 29
USER: SCORE 18.317564 LL:  -4.808 LR: -15.545 RR:   0.000 FEB:  -8.684
USER: RMSD 5.350801
USER: SEED 28
USER: STATUS no improvement in best in 6 clusters for 5 generations
USER: GENES 25
USER: genes 0 Translation |==|  0.36463 0.71748 0.42575
USER: genes 1 Rotation |==|  0.50077 0.51171 0.68651 0.96376
USER: genes 2 Torsion [CB]-CA--N-[C] |==|  0.58143
USER: genes 3 Torsion [N]-C--CA-[N] |==|  0.96739
USER: genes 4 Torsion [C]-CA--N-[C] |==|  0.75655
USER: genes 5 Torsion [N]-C--CA-[N] |==|  0.10071
USER: genes 6 Torsion [C]-CA--CB-[CG] |==|  0.96359
USER: genes 7 Torsion [CA]-CB--CG-[CD] |==|  0.78492
USER: genes 8 Torsion [CB]-CG--CD-[NE] |==|  0.89235
USER: genes 9 Torsion [CG]-CD--NE-[HE] |==|  0.32966
USER: genes 10 Torsion [N]-CA--CB-[CG] |==|  0.05105
USER: genes 11 Torsion [CA]-CB--CG-[CD2] |==|  0.23133
USER: genes 12 Torsion [N]-CA--C-[N] |==|  0.81295
USER: genes 13 Torsion [C]-N--CA-[C] |==|  0.67885
USER: genes 14 Torsion [N]-CA--CB-[CG] |==|  0.48149
USER: genes 15 Torsion [CA]-CB--CG-[CD] |==|  0.30501
USER: genes 16 Torsion [CB]-CG--CD-[OE1] |==|  0.18803
USER: genes 17 Torsion [N]-CA--C-[N] |==|  0.32397
USER: genes 18 Torsion [C]-N--CA-[CB] |==|  0.19249
USER: genes 19 Torsion [N]-CA--CB-[CG1] |==|  0.45876
USER: genes 20 Torsion [N]-CA--C-[N] |==|  0.25546
USER: genes 21 Torsion [C]-N--CA-[C] |==|  0.15401
USER: genes 22 Torsion [N]-CA--C-[O] |==|  0.69313
USER: genes 23 Torsion [N]-CA--CB-[OG1] |==|  0.89237
USER: genes 24 Torsion [CA]-CB--OG1-[HG1] |==|  0.17866
ROOT
ATOM      1  CA  PHE C1005      -1.513 -31.364   4.802  1.00 26.32 LIG 0.18  C 
ENDROOT
BRANCH 1 2
ATOM      2  N   PHE C1005      -1.773 -32.270   3.692  1.00 26.54 LIG-0.35  N 
ATOM      3  C   ARG C1004      -0.826 -33.084   3.222  1.00 27.34 LIG 0.24  C 
ATOM      4 O    ARG C1004       0.263 -33.238   3.773  1.00 26.08 LIG-0.27  OA
ATOM      5 H    PHE C1005      -2.573 -32.230   3.379  1.00 26.54 LIG 0.16  HD
BRANCH 3 6
ATOM      6  CA  ARG C1004      -1.161 -33.853   1.934  1.00 28.49 LIG 0.18  C 
BRANCH 6 7
ATOM      7  N   ARG C1004      -2.573 -33.779   1.567  1.00 30.45 LIG-0.35  N 
ATOM      8  C   GLY C1003      -3.438 -34.666   2.059  1.00 32.03 LIG 0.25  C 
ATOM      9 O    GLY C1003      -3.104 -35.532   2.867  1.00 33.62 LIG-0.27  OA
ATOM     10 H    ARG C1004      -2.778 -33.139   1.031  1.00 30.45 LIG 0.16  HD
BRANCH 8 11
ATOM     11  CA  GLY C1003      -4.874 -34.560   1.590  1.00 33.10 LIG 0.47  C 
ATOM     12  N   GLY C1003      -4.974 -34.154   0.162  1.00 33.92 LIG 0.61  N 
ENDBRANCH 8 11
ENDBRANCH 6 7
BRANCH 6 13
ATOM     13  CB  ARG C1004      -0.261 -33.398   0.781  1.00 28.45 LIG 0.04  C 
BRANCH 13 14
ATOM     14  CG  ARG C1004       0.505 -32.125   1.057  1.00 27.92 LIG 0.02  C 
BRANCH 14 15
ATOM     15  CD  ARG C1004      -0.388 -30.893   0.917  1.00 26.34 LIG 0.14  C 
BRANCH 15 16
ATOM     16  NE  ARG C1004      -1.308 -31.041  -0.201  1.00 24.25 LIG-0.23  N 
ATOM     17 HE   ARG C1004      -2.150 -31.032  -0.027  1.00 24.25 LIG 0.18  HD
ATOM     18  CZ  ARG C1004      -0.944 -31.191  -1.471  1.00 25.16 LIG 0.67  C 
ATOM     19  NH2 ARG C1004      -1.873 -31.303  -2.401  1.00 24.86 LIG-0.23  N 
ATOM     20  NH1 ARG C1004       0.336 -31.249  -1.808  1.00 22.12 LIG-0.23  N 
ATOM     21 1HH2 ARG C1004      -2.705 -31.279  -2.184  1.00 24.86 LIG 0.17  HD
ATOM     22 2HH2 ARG C1004      -1.647 -31.400  -3.225  1.00 24.86 LIG 0.17  HD
ATOM     23 1HH1 ARG C1004       0.944 -31.190  -1.202  1.00 22.12 LIG 0.17  HD
ATOM     24 2HH1 ARG C1004       0.559 -31.346  -2.633  1.00 22.12 LIG 0.17  HD
ENDBRANCH 15 16
ENDBRANCH 14 15
ENDBRANCH 13 14
ENDBRANCH 6 13
ENDBRANCH 3 6
ENDBRANCH 1 2
BRANCH 1 25
ATOM     25  CB  PHE C1005      -2.795 -31.117   5.587  1.00 25.48 LIG 0.07  C 
BRANCH 25 26
ATOM     26  CG  PHE C1005      -3.848 -32.148   5.330  1.00 23.55 LIG-0.06  A 
ATOM     27  CD1 PHE C1005      -4.876 -31.904   4.405  1.00 22.30 LIG 0.01  A 
ATOM     28  CE1 PHE C1005      -5.873 -32.865   4.173  1.00 23.64 LIG 0.00  A 
ATOM     29  CZ  PHE C1005      -5.843 -34.078   4.909  1.00 21.73 LIG 0.00  A 
ATOM     30  CE2 PHE C1005      -4.821 -34.323   5.818  1.00 19.92 LIG 0.00  A 
ATOM     31  CD2 PHE C1005      -3.818 -33.359   6.032  1.00 21.20 LIG 0.01  A 
ENDBRANCH 25 26
ENDBRANCH 1 25
BRANCH 1 32
ATOM     32  C   PHE C1005      -0.455 -31.901   5.734  1.00 27.26 LIG 0.24  C 
ATOM     33 O    PHE C1005       0.627 -31.332   5.822  1.00 28.13 LIG-0.27  OA
ATOM     34  N   GLN C1006      -0.799 -32.987   6.418  1.00 28.15 LIG-0.35  N 
ATOM     35 H    GLN C1006      -1.601 -33.299   6.426  1.00 28.15 LIG 0.16  HD
BRANCH 34 36
ATOM     36  CA  GLN C1006       0.136 -33.767   7.227  1.00 29.76 LIG 0.18  C 
BRANCH 36 37
ATOM     37  CB  GLN C1006      -0.340 -33.853   8.675  1.00 29.94 LIG 0.04  C 
BRANCH 37 38
ATOM     38  CG  GLN C1006       0.477 -34.773   9.562  1.00 33.02 LIG 0.10  C 
BRANCH 38 39
ATOM     39  CD  GLN C1006       1.298 -34.016  10.591  1.00 35.46 LIG 0.21  C 
ATOM     40 OE1  GLN C1006       0.750 -33.406  11.509  1.00 38.48 LIG-0.27  OA
ATOM     41  NE2 GLN C1006       2.621 -34.046  10.434  1.00 37.01 LIG-0.37  N 
ATOM     42 22HE GLN C1006       3.129 -33.627  10.987  1.00 37.01 LIG 0.16  HD
ATOM     43 21HE GLN C1006       2.967 -34.483   9.779  1.00 37.01 LIG 0.16  HD
ENDBRANCH 38 39
ENDBRANCH 37 38
ENDBRANCH 36 37
BRANCH 36 44
ATOM     44  C   GLN C1006       0.280 -35.170   6.631  1.00 30.09 LIG 0.24  C 
ATOM     45  N   VAL C1007       1.502 -35.480   6.186  1.00 30.97 LIG-0.35  N 
ATOM     46 H    VAL C1007       2.147 -34.911   6.169  1.00 30.97 LIG 0.16  HD
ATOM     47 O    GLN C1006      -0.699 -35.926   6.562  1.00 30.15 LIG-0.27  OA
BRANCH 45 48
ATOM     48  CA  VAL C1007       1.891 -36.806   5.679  1.00 32.05 LIG 0.18  C 
BRANCH 48 49
ATOM     49  CB  VAL C1007       1.196 -37.106   4.313  1.00 32.12 LIG 0.01  C 
ATOM     50  CG1 VAL C1007       1.839 -38.285   3.586  1.00 30.72 LIG 0.01  C 
ATOM     51  CG2 VAL C1007       1.159 -35.874   3.416  1.00 30.85 LIG 0.01  C 
ENDBRANCH 48 49
BRANCH 48 52
ATOM     52  C   VAL C1007       3.416 -36.651   5.426  1.00 33.20 LIG 0.24  C 
ATOM     53 O    VAL C1007       3.786 -36.241   4.331  1.00 34.91 LIG-0.27  OA
ATOM     54  N   THR C1008       4.311 -36.964   6.366  1.00 34.53 LIG-0.34  N 
ATOM     55 H    THR C1008       5.150 -36.821   6.238  1.00 34.53 LIG 0.16  HD
BRANCH 54 56
ATOM     56  CA  THR C1008       4.067 -37.556   7.678  1.00 33.96 LIG 0.19  C 
BRANCH 56 57
ATOM     57  C   THR C1008       3.293 -38.858   7.482  1.00 33.93 LIG 0.22  C 
ATOM     58 O    THR C1008       2.113 -38.963   7.830  1.00 34.05 LIG-0.29  OA
ENDBRANCH 56 57
BRANCH 56 59
ATOM     59  CB  THR C1008       3.213 -36.605   8.597  1.00 34.51 LIG 0.14  C 
ATOM     60  CG2 THR C1008       3.380 -36.927  10.083  1.00 33.41 LIG 0.04  C 
BRANCH 59 61
ATOM     61 OG1  THR C1008       3.618 -35.255   8.399  1.00 32.91 LIG-0.39  OA
ATOM     62 HG1  THR C1008       3.447 -35.024   7.609  1.00 32.91 LIG 0.21  HD
ENDBRANCH 59 61
ENDBRANCH 56 59
ENDBRANCH 54 56
ENDBRANCH 48 52
ENDBRANCH 45 48
ENDBRANCH 36 44
ENDBRANCH 34 36
ENDBRANCH 1 32
TORSDOF 23
ENDMDL
MODEL 41
USER: ADFR SOLUTION from run 184
USER: SCORE 18.164582 LL:  -3.967 LR: -15.522 RR:   0.000 FEB:  -8.661
USER: RMSD 8.407279
USER: SEED 183
USER: STATUS searching
USER: GENES 25
USER: genes 0 Translation |==|  0.46177 0.60941 0.45347
USER: genes 1 Rotation |==|  0.78918 0.43166 0.46657 0.90073
USER: genes 2 Torsion [CB]-CA--N-[C] |==|  0.76521
USER: genes 3 Torsion [N]-C--CA-[N] |==|  0.43119
USER: genes 4 Torsion [C]-CA--N-[C] |==|  0.62869
USER: genes 5 Torsion [N]-C--CA-[N] |==|  0.34411
USER: genes 6 Torsion [C]-CA--CB-[CG] |==|  0.00820
USER: genes 7 Torsion [CA]-CB--CG-[CD] |==|  0.73724
USER: genes 8 Torsion [CB]-CG--CD-[NE] |==|  0.07717
USER: genes 9 Torsion [CG]-CD--NE-[HE] |==|  0.86819
USER: genes 10 Torsion [N]-CA--CB-[CG] |==|  0.60018
USER: genes 11 Torsion [CA]-CB--CG-[CD2] |==|  0.48249
USER: genes 12 Torsion [N]-CA--C-[N] |==|  0.23579
USER: genes 13 Torsion [C]-N--CA-[C] |==|  0.54111
USER: genes 14 Torsion [N]-CA--CB-[CG] |==|  0.04524
USER: genes 15 Torsion [CA]-CB--CG-[CD] |==|  0.22677
USER: genes 16 Torsion [CB]-CG--CD-[OE1] |==|  0.07113
USER: genes 17 Torsion [N]-CA--C-[N] |==|  0.51664
USER: genes 18 Torsion [C]-N--CA-[CB] |==|  0.52801
USER: genes 19 Torsion [N]-CA--CB-[CG1] |==|  0.80950
USER: genes 20 Torsion [N]-CA--C-[N] |==|  0.33460
USER: genes 21 Torsion [C]-N--CA-[C] |==|  0.66063
USER: genes 22 Torsion [N]-CA--C-[O] |==|  0.83994
USER: genes 23 Torsion [N]-CA--CB-[OG1] |==|  0.97814
USER: genes 24 Torsion [CA]-CB--OG1-[HG1] |==|  0.24547
ROOT
ATOM      1  CA  PHE C1005       0.382 -33.310   5.571  1.00 26.32 LIG 0.18  C 
ENDROOT
BRANCH 1 2
ATOM      2  N   PHE C1005       0.011 -32.236   4.660  1.00 26.54 LIG-0.35  N 
ATOM      3  C   ARG C1004      -0.858 -32.435   3.668  1.00 27.34 LIG 0.24  C 
ATOM      4 O    ARG C1004      -1.512 -33.470   3.542  1.00 26.08 LIG-0.27  OA
ATOM      5 H    PHE C1005       0.396 -31.484   4.820  1.00 26.54 LIG 0.16  HD
BRANCH 3 6
ATOM      6  CA  ARG C1004      -1.026 -31.284   2.663  1.00 28.49 LIG 0.18  C 
BRANCH 6 7
ATOM      7  N   ARG C1004      -1.498 -31.724   1.353  1.00 30.45 LIG-0.35  N 
ATOM      8  C   GLY C1003      -0.909 -31.276   0.244  1.00 32.03 LIG 0.25  C 
ATOM      9 O    GLY C1003       0.072 -30.532   0.276  1.00 33.62 LIG-0.27  OA
ATOM     10 H    ARG C1004      -2.160 -32.272   1.369  1.00 30.45 LIG 0.16  HD
BRANCH 8 11
ATOM     11  CA  GLY C1003      -1.489 -31.733  -1.077  1.00 33.10 LIG 0.47  C 
ATOM     12  N   GLY C1003      -1.873 -30.592  -1.950  1.00 33.92 LIG 0.61  N 
ENDBRANCH 8 11
ENDBRANCH 6 7
BRANCH 6 13
ATOM     13  CB  ARG C1004      -1.925 -30.187   3.240  1.00 28.45 LIG 0.04  C 
BRANCH 13 14
ATOM     14  CG  ARG C1004      -2.379 -30.439   4.659  1.00 27.92 LIG 0.02  C 
BRANCH 14 15
ATOM     15  CD  ARG C1004      -3.748 -31.117   4.696  1.00 26.34 LIG 0.14  C 
BRANCH 15 16
ATOM     16  NE  ARG C1004      -3.970 -31.909   3.496  1.00 24.25 LIG-0.23  N 
ATOM     17 HE   ARG C1004      -3.794 -31.542   2.738  1.00 24.25 LIG 0.18  HD
ATOM     18  CZ  ARG C1004      -4.425 -33.158   3.483  1.00 25.16 LIG 0.67  C 
ATOM     19  NH2 ARG C1004      -4.573 -33.780   2.328  1.00 24.86 LIG-0.23  N 
ATOM     20  NH1 ARG C1004      -4.748 -33.775   4.609  1.00 22.12 LIG-0.23  N 
ATOM     21 1HH2 ARG C1004      -4.376 -33.378   1.594  1.00 24.86 LIG 0.17  HD
ATOM     22 2HH2 ARG C1004      -4.867 -34.588   2.310  1.00 24.86 LIG 0.17  HD
ATOM     23 1HH1 ARG C1004      -4.666 -33.368   5.362  1.00 22.12 LIG 0.17  HD
ATOM     24 2HH1 ARG C1004      -5.041 -34.583   4.588  1.00 22.12 LIG 0.17  HD
ENDBRANCH 15 16
ENDBRANCH 14 15
ENDBRANCH 13 14
ENDBRANCH 6 13
ENDBRANCH 3 6
ENDBRANCH 1 2
BRANCH 1 25
ATOM     25  CB  PHE C1005      -0.640 -33.417   6.697  1.00 25.48 LIG 0.07  C 
BRANCH 25 26
ATOM     26  CG  PHE C1005      -0.026 -33.780   8.012  1.00 23.55 LIG-0.06  A 
ATOM     27  CD1 PHE C1005       1.332 -34.133   8.093  1.00 22.30 LIG 0.01  A 
ATOM     28  CE1 PHE C1005       1.906 -34.487   9.325  1.00 23.64 LIG 0.00  A 
ATOM     29  CZ  PHE C1005       1.087 -34.510  10.484  1.00 21.73 LIG 0.00  A 
ATOM     30  CE2 PHE C1005      -0.253 -34.154  10.404  1.00 19.92 LIG 0.00  A 
ATOM     31  CD2 PHE C1005      -0.816 -33.786   9.167  1.00 21.20 LIG 0.01  A 
ENDBRANCH 25 26
ENDBRANCH 1 25
BRANCH 1 32
ATOM     32  C   PHE C1005       0.485 -34.639   4.866  1.00 27.26 LIG 0.24  C 
ATOM     33 O    PHE C1005      -0.476 -35.401   4.855  1.00 28.13 LIG-0.27  OA
ATOM     34  N   GLN C1006       1.653 -34.885   4.283  1.00 28.15 LIG-0.35  N 
ATOM     35 H    GLN C1006       2.270 -34.290   4.205  1.00 28.15 LIG 0.16  HD
BRANCH 34 36
ATOM     36  CA  GLN C1006       2.020 -36.180   3.714  1.00 29.76 LIG 0.18  C 
BRANCH 36 37
ATOM     37  CB  GLN C1006       1.264 -36.435   2.413  1.00 29.94 LIG 0.04  C 
BRANCH 37 38
ATOM     38  CG  GLN C1006       0.629 -35.206   1.791  1.00 33.02 LIG 0.10  C 
BRANCH 38 39
ATOM     39  CD  GLN C1006       1.616 -34.382   0.984  1.00 35.46 LIG 0.21  C 
ATOM     40 OE1  GLN C1006       2.614 -34.904   0.487  1.00 38.48 LIG-0.27  OA
ATOM     41  NE2 GLN C1006       1.345 -33.083   0.859  1.00 37.01 LIG-0.37  N 
ATOM     42 22HE GLN C1006       1.877 -32.573   0.416  1.00 37.01 LIG 0.16  HD
ATOM     43 21HE GLN C1006       0.637 -32.756   1.221  1.00 37.01 LIG 0.16  HD
ENDBRANCH 38 39
ENDBRANCH 37 38
ENDBRANCH 36 37
BRANCH 36 44
ATOM     44  C   GLN C1006       3.530 -36.220   3.467  1.00 30.09 LIG 0.24  C 
ATOM     45  N   VAL C1007       3.978 -37.308   2.831  1.00 30.97 LIG-0.35  N 
ATOM     46 H    VAL C1007       3.468 -37.972   2.636  1.00 30.97 LIG 0.16  HD
ATOM     47 O    GLN C1006       4.256 -35.299   3.866  1.00 30.15 LIG-0.27  OA
BRANCH 45 48
ATOM     48  CA  VAL C1007       5.370 -37.502   2.395  1.00 32.05 LIG 0.18  C 
BRANCH 48 49
ATOM     49  CB  VAL C1007       5.494 -38.753   1.469  1.00 32.12 LIG 0.01  C 
ATOM     50  CG1 VAL C1007       5.257 -40.057   2.227  1.00 30.72 LIG 0.01  C 
ATOM     51  CG2 VAL C1007       6.833 -38.786   0.741  1.00 30.85 LIG 0.01  C 
ENDBRANCH 48 49
BRANCH 48 52
ATOM     52  C   VAL C1007       5.649 -36.234   1.540  1.00 33.20 LIG 0.24  C 
ATOM     53 O    VAL C1007       4.952 -36.033   0.551  1.00 34.91 LIG-0.27  OA
ATOM     54  N   THR C1008       6.629 -35.384   1.858  1.00 34.53 LIG-0.34  N 
ATOM     55 H    THR C1008       6.740 -34.656   1.414  1.00 34.53 LIG 0.16  HD
BRANCH 54 56
ATOM     56  CA  THR C1008       7.616 -35.510   2.927  1.00 33.96 LIG 0.19  C 
BRANCH 56 57
ATOM     57  C   THR C1008       7.494 -34.290   3.839  1.00 33.93 LIG 0.22  C 
ATOM     58 O    THR C1008       7.622 -33.144   3.401  1.00 34.05 LIG-0.29  OA
ENDBRANCH 56 57
BRANCH 56 59
ATOM     59  CB  THR C1008       9.085 -35.561   2.362  1.00 34.51 LIG 0.14  C 
ATOM     60  CG2 THR C1008       9.869 -36.765   2.887  1.00 33.41 LIG 0.04  C 
BRANCH 59 61
ATOM     61 OG1  THR C1008       9.049 -35.654   0.942  1.00 32.91 LIG-0.39  OA
ATOM     62 HG1  THR C1008       9.027 -34.882   0.611  1.00 32.91 LIG 0.21  HD
ENDBRANCH 59 61
ENDBRANCH 56 59
ENDBRANCH 54 56
ENDBRANCH 48 52
ENDBRANCH 45 48
ENDBRANCH 36 44
ENDBRANCH 34 36
ENDBRANCH 1 32
TORSDOF 23
ENDMDL
MODEL 42
USER: ADFR SOLUTION from run 110
USER: SCORE 17.535308 LL:  -3.890 LR: -15.508 RR:   0.000 FEB:  -8.647
USER: RMSD 4.273050
USER: SEED 109
USER: STATUS searching
USER: GENES 25
USER: genes 0 Translation |==|  0.46115 0.55637 0.39477
USER: genes 1 Rotation |==|  0.60305 0.39959 0.58338 0.97154
USER: genes 2 Torsion [CB]-CA--N-[C] |==|  0.47778
USER: genes 3 Torsion [N]-C--CA-[N] |==|  0.19100
USER: genes 4 Torsion [C]-CA--N-[C] |==|  0.77204
USER: genes 5 Torsion [N]-C--CA-[N] |==|  0.36785
USER: genes 6 Torsion [C]-CA--CB-[CG] |==|  0.33194
USER: genes 7 Torsion [CA]-CB--CG-[CD] |==|  0.25705
USER: genes 8 Torsion [CB]-CG--CD-[NE] |==|  0.09961
USER: genes 9 Torsion [CG]-CD--NE-[HE] |==|  0.17495
USER: genes 10 Torsion [N]-CA--CB-[CG] |==|  0.79928
USER: genes 11 Torsion [CA]-CB--CG-[CD2] |==|  0.05038
USER: genes 12 Torsion [N]-CA--C-[N] |==|  0.27444
USER: genes 13 Torsion [C]-N--CA-[C] |==|  0.74799
USER: genes 14 Torsion [N]-CA--CB-[CG] |==|  0.86098
USER: genes 15 Torsion [CA]-CB--CG-[CD] |==|  0.30990
USER: genes 16 Torsion [CB]-CG--CD-[OE1] |==|  0.03270
USER: genes 17 Torsion [N]-CA--C-[N] |==|  0.04441
USER: genes 18 Torsion [C]-N--CA-[CB] |==|  0.57256
USER: genes 19 Torsion [N]-CA--CB-[CG1] |==|  0.89867
USER: genes 20 Torsion [N]-CA--C-[N] |==|  0.35619
USER: genes 21 Torsion [C]-N--CA-[C] |==|  0.77936
USER: genes 22 Torsion [N]-CA--C-[O] |==|  0.19682
USER: genes 23 Torsion [N]-CA--CB-[OG1] |==|  0.56592
USER: genes 24 Torsion [CA]-CB--OG1-[HG1] |==|  0.91451
ROOT
ATOM      1  CA  PHE C1005       0.369 -34.264   3.942  1.00 26.32 LIG 0.18  C 
ENDROOT
BRANCH 1 2
ATOM      2  N   PHE C1005       0.255 -34.352   2.494  1.00 26.54 LIG-0.35  N 
ATOM      3  C   ARG C1004       1.327 -34.543   1.721  1.00 27.34 LIG 0.24  C 
ATOM      4 O    ARG C1004       2.442 -34.807   2.171  1.00 26.08 LIG-0.27  OA
ATOM      5 H    PHE C1005      -0.547 -34.271   2.193  1.00 26.54 LIG 0.16  HD
BRANCH 3 6
ATOM      6  CA  ARG C1004       1.107 -34.430   0.204  1.00 28.49 LIG 0.18  C 
BRANCH 6 7
ATOM      7  N   ARG C1004       0.811 -33.070  -0.237  1.00 30.45 LIG-0.35  N 
ATOM      8  C   GLY C1003      -0.429 -32.591  -0.142  1.00 32.03 LIG 0.25  C 
ATOM      9 O    GLY C1003      -1.347 -33.239   0.361  1.00 33.62 LIG-0.27  OA
ATOM     10 H    ARG C1004       1.483 -32.633  -0.548  1.00 30.45 LIG 0.16  HD
BRANCH 8 11
ATOM     11  CA  GLY C1003      -0.670 -31.193  -0.671  1.00 33.10 LIG 0.47  C 
ATOM     12  N   GLY C1003      -1.873 -31.119  -1.543  1.00 33.92 LIG 0.61  N 
ENDBRANCH 8 11
ENDBRANCH 6 7
BRANCH 6 13
ATOM     13  CB  ARG C1004       2.297 -35.018  -0.561  1.00 28.45 LIG 0.04  C 
BRANCH 13 14
ATOM     14  CG  ARG C1004       1.942 -36.179  -1.461  1.00 27.92 LIG 0.02  C 
BRANCH 14 15
ATOM     15  CD  ARG C1004       1.630 -35.709  -2.882  1.00 26.34 LIG 0.14  C 
BRANCH 15 16
ATOM     16  NE  ARG C1004       2.480 -34.589  -3.259  1.00 24.25 LIG-0.23  N 
ATOM     17 HE   ARG C1004       3.328 -34.728  -3.296  1.00 24.25 LIG 0.18  HD
ATOM     18  CZ  ARG C1004       2.043 -33.368  -3.549  1.00 25.16 LIG 0.67  C 
ATOM     19  NH2 ARG C1004       2.912 -32.435  -3.891  1.00 24.86 LIG-0.23  N 
ATOM     20  NH1 ARG C1004       0.754 -33.073  -3.479  1.00 22.12 LIG-0.23  N 
ATOM     21 1HH2 ARG C1004       3.751 -32.620  -3.925  1.00 24.86 LIG 0.17  HD
ATOM     22 2HH2 ARG C1004       2.638 -31.642  -4.080  1.00 24.86 LIG 0.17  HD
ATOM     23 1HH1 ARG C1004       0.187 -33.675  -3.243  1.00 22.12 LIG 0.17  HD
ATOM     24 2HH1 ARG C1004       0.483 -32.279  -3.669  1.00 22.12 LIG 0.17  HD
ENDBRANCH 15 16
ENDBRANCH 14 15
ENDBRANCH 13 14
ENDBRANCH 6 13
ENDBRANCH 3 6
ENDBRANCH 1 2
BRANCH 1 25
ATOM     25  CB  PHE C1005      -0.966 -33.850   4.548  1.00 25.48 LIG 0.07  C 
BRANCH 25 26
ATOM     26  CG  PHE C1005      -1.304 -32.414   4.294  1.00 23.55 LIG-0.06  A 
ATOM     27  CD1 PHE C1005      -2.289 -31.767   5.059  1.00 22.30 LIG 0.01  A 
ATOM     28  CE1 PHE C1005      -2.617 -30.424   4.813  1.00 23.64 LIG 0.00  A 
ATOM     29  CZ  PHE C1005      -1.959 -29.738   3.760  1.00 21.73 LIG 0.00  A 
ATOM     30  CE2 PHE C1005      -0.980 -30.376   3.009  1.00 19.92 LIG 0.00  A 
ATOM     31  CD2 PHE C1005      -0.648 -31.718   3.273  1.00 21.20 LIG 0.01  A 
ENDBRANCH 25 26
ENDBRANCH 1 25
BRANCH 1 32
ATOM     32  C   PHE C1005       0.809 -35.571   4.555  1.00 27.26 LIG 0.24  C 
ATOM     33 O    PHE C1005      -0.011 -36.462   4.746  1.00 28.13 LIG-0.27  OA
ATOM     34  N   GLN C1006       2.103 -35.657   4.844  1.00 28.15 LIG-0.35  N 
ATOM     35 H    GLN C1006       2.676 -35.066   4.595  1.00 28.15 LIG 0.16  HD
BRANCH 34 36
ATOM     36  CA  GLN C1006       2.693 -36.754   5.608  1.00 29.76 LIG 0.18  C 
BRANCH 36 37
ATOM     37  CB  GLN C1006       4.115 -37.042   5.134  1.00 29.94 LIG 0.04  C 
BRANCH 37 38
ATOM     38  CG  GLN C1006       4.268 -37.208   3.634  1.00 33.02 LIG 0.10  C 
BRANCH 38 39
ATOM     39  CD  GLN C1006       5.051 -36.074   2.997  1.00 35.46 LIG 0.21  C 
ATOM     40 OE1  GLN C1006       5.669 -35.267   3.691  1.00 38.48 LIG-0.27  OA
ATOM     41  NE2 GLN C1006       5.018 -36.002   1.667  1.00 37.01 LIG-0.37  N 
ATOM     42 22HE GLN C1006       5.440 -35.374   1.259  1.00 37.01 LIG 0.16  HD
ATOM     43 21HE GLN C1006       4.574 -36.585   1.216  1.00 37.01 LIG 0.16  HD
ENDBRANCH 38 39
ENDBRANCH 37 38
ENDBRANCH 36 37
BRANCH 36 44
ATOM     44  C   GLN C1006       2.691 -36.398   7.097  1.00 30.09 LIG 0.24  C 
ATOM     45  N   VAL C1007       1.892 -35.383   7.442  1.00 30.97 LIG-0.35  N 
ATOM     46 H    VAL C1007       1.462 -34.915   6.862  1.00 30.97 LIG 0.16  HD
ATOM     47 O    GLN C1006       3.413 -37.017   7.891  1.00 30.15 LIG-0.27  OA
BRANCH 45 48
ATOM     48  CA  VAL C1007       1.652 -34.947   8.827  1.00 32.05 LIG 0.18  C 
BRANCH 48 49
ATOM     49  CB  VAL C1007       0.262 -34.248   8.958  1.00 32.12 LIG 0.01  C 
ATOM     50  CG1 VAL C1007      -0.083 -33.415   7.726  1.00 30.72 LIG 0.01  C 
ATOM     51  CG2 VAL C1007       0.172 -33.404  10.224  1.00 30.85 LIG 0.01  C 
ENDBRANCH 48 49
BRANCH 48 52
ATOM     52  C   VAL C1007       1.599 -36.287   9.612  1.00 33.20 LIG 0.24  C 
ATOM     53 O    VAL C1007       0.842 -37.165   9.215  1.00 34.91 LIG-0.27  OA
ATOM     54  N   THR C1008       2.347 -36.484  10.701  1.00 34.53 LIG-0.34  N 
ATOM     55 H    THR C1008       2.354 -37.248  11.096  1.00 34.53 LIG 0.16  HD
BRANCH 54 56
ATOM     56  CA  THR C1008       3.222 -35.529  11.375  1.00 33.96 LIG 0.19  C 
BRANCH 56 57
ATOM     57  C   THR C1008       4.534 -35.444  10.595  1.00 33.93 LIG 0.22  C 
ATOM     58 O    THR C1008       4.589 -34.904   9.487  1.00 34.05 LIG-0.29  OA
ENDBRANCH 56 57
BRANCH 56 59
ATOM     59  CB  THR C1008       3.550 -35.977  12.848  1.00 34.51 LIG 0.14  C 
ATOM     60  CG2 THR C1008       4.714 -36.968  12.910  1.00 33.41 LIG 0.04  C 
BRANCH 59 61
ATOM     61 OG1  THR C1008       3.908 -34.840  13.627  1.00 32.91 LIG-0.39  OA
ATOM     62 HG1  THR C1008       4.278 -34.268  13.135  1.00 32.91 LIG 0.21  HD
ENDBRANCH 59 61
ENDBRANCH 56 59
ENDBRANCH 54 56
ENDBRANCH 48 52
ENDBRANCH 45 48
ENDBRANCH 36 44
ENDBRANCH 34 36
ENDBRANCH 1 32
TORSDOF 23
ENDMDL
MODEL 43
USER: ADFR SOLUTION from run 34
USER: SCORE 18.169801 LL:  -4.696 LR: -15.474 RR:   0.000 FEB:  -8.613
USER: RMSD 4.637014
USER: SEED 33
USER: STATUS no improvement in best in 23 clusters for 5 generations
USER: GENES 25
USER: genes 0 Translation |==|  0.46870 0.59996 0.49062
USER: genes 1 Rotation |==|  0.60354 0.32288 0.52782 0.95512
USER: genes 2 Torsion [CB]-CA--N-[C] |==|  0.78333
USER: genes 3 Torsion [N]-C--CA-[N] |==|  0.36893
USER: genes 4 Torsion [C]-CA--N-[C] |==|  0.59299
USER: genes 5 Torsion [N]-C--CA-[N] |==|  0.45988
USER: genes 6 Torsion [C]-CA--CB-[CG] |==|  0.36521
USER: genes 7 Torsion [CA]-CB--CG-[CD] |==|  0.60140
USER: genes 8 Torsion [CB]-CG--CD-[NE] |==|  0.75118
USER: genes 9 Torsion [CG]-CD--NE-[HE] |==|  0.31157
USER: genes 10 Torsion [N]-CA--CB-[CG] |==|  0.94940
USER: genes 11 Torsion [CA]-CB--CG-[CD2] |==|  0.35494
USER: genes 12 Torsion [N]-CA--C-[N] |==|  0.23575
USER: genes 13 Torsion [C]-N--CA-[C] |==|  0.84349
USER: genes 14 Torsion [N]-CA--CB-[CG] |==|  0.29091
USER: genes 15 Torsion [CA]-CB--CG-[CD] |==|  0.78700
USER: genes 16 Torsion [CB]-CG--CD-[OE1] |==|  0.05333
USER: genes 17 Torsion [N]-CA--C-[N] |==|  0.94875
USER: genes 18 Torsion [C]-N--CA-[CB] |==|  0.29391
USER: genes 19 Torsion [N]-CA--CB-[CG1] |==|  0.13748
USER: genes 20 Torsion [N]-CA--C-[N] |==|  0.33659
USER: genes 21 Torsion [C]-N--CA-[C] |==|  0.77227
USER: genes 22 Torsion [N]-CA--C-[O] |==|  0.03782
USER: genes 23 Torsion [N]-CA--CB-[OG1] |==|  0.09320
USER: genes 24 Torsion [CA]-CB--OG1-[HG1] |==|  0.50017
ROOT
ATOM      1  CA  PHE C1005       0.517 -33.480   6.602  1.00 26.32 LIG 0.18  C 
ENDROOT
BRANCH 1 2
ATOM      2  N   PHE C1005       0.775 -33.423   5.170  1.00 26.54 LIG-0.35  N 
ATOM      3  C   ARG C1004       0.141 -34.230   4.317  1.00 27.34 LIG 0.24  C 
ATOM      4 O    ARG C1004      -0.795 -34.957   4.647  1.00 26.08 LIG-0.27  OA
ATOM      5 H    PHE C1005       1.358 -32.837   4.935  1.00 26.54 LIG 0.16  HD
BRANCH 3 6
ATOM      6  CA  ARG C1004       0.632 -34.209   2.861  1.00 28.49 LIG 0.18  C 
BRANCH 6 7
ATOM      7  N   ARG C1004       0.827 -35.542   2.297  1.00 30.45 LIG-0.35  N 
ATOM      8  C   GLY C1003       1.799 -35.756   1.409  1.00 32.03 LIG 0.25  C 
ATOM      9 O    GLY C1003       2.590 -34.875   1.075  1.00 33.62 LIG-0.27  OA
ATOM     10 H    ARG C1004       0.281 -36.142   2.580  1.00 30.45 LIG 0.16  HD
BRANCH 8 11
ATOM     11  CA  GLY C1003       1.904 -37.150   0.828  1.00 33.10 LIG 0.47  C 
ATOM     12  N   GLY C1003       2.774 -37.195  -0.378  1.00 33.92 LIG 0.61  N 
ENDBRANCH 8 11
ENDBRANCH 6 7
BRANCH 6 13
ATOM     13  CB  ARG C1004      -0.301 -33.366   1.986  1.00 28.45 LIG 0.04  C 
BRANCH 13 14
ATOM     14  CG  ARG C1004       0.410 -32.362   1.108  1.00 27.92 LIG 0.02  C 
BRANCH 14 15
ATOM     15  CD  ARG C1004      -0.388 -31.065   0.983  1.00 26.34 LIG 0.14  C 
BRANCH 15 16
ATOM     16  NE  ARG C1004      -1.308 -31.126  -0.143  1.00 24.25 LIG-0.23  N 
ATOM     17 HE   ARG C1004      -2.150 -31.143   0.031  1.00 24.25 LIG 0.18  HD
ATOM     18  CZ  ARG C1004      -0.944 -31.158  -1.421  1.00 25.16 LIG 0.67  C 
ATOM     19  NH2 ARG C1004      -1.873 -31.199  -2.358  1.00 24.86 LIG-0.23  N 
ATOM     20  NH1 ARG C1004       0.336 -31.169  -1.763  1.00 22.12 LIG-0.23  N 
ATOM     21 1HH2 ARG C1004      -2.705 -31.205  -2.139  1.00 24.86 LIG 0.17  HD
ATOM     22 2HH2 ARG C1004      -1.647 -31.221  -3.187  1.00 24.86 LIG 0.17  HD
ATOM     23 1HH1 ARG C1004       0.944 -31.155  -1.155  1.00 22.12 LIG 0.17  HD
ATOM     24 2HH1 ARG C1004       0.559 -31.189  -2.593  1.00 22.12 LIG 0.17  HD
ENDBRANCH 15 16
ENDBRANCH 14 15
ENDBRANCH 13 14
ENDBRANCH 6 13
ENDBRANCH 3 6
ENDBRANCH 1 2
BRANCH 1 25
ATOM     25  CB  PHE C1005      -0.790 -32.766   6.927  1.00 25.48 LIG 0.07  C 
BRANCH 25 26
ATOM     26  CG  PHE C1005      -1.241 -31.844   5.837  1.00 23.55 LIG-0.06  A 
ATOM     27  CD1 PHE C1005      -0.376 -30.860   5.332  1.00 22.30 LIG 0.01  A 
ATOM     28  CE1 PHE C1005      -0.803 -29.985   4.319  1.00 23.64 LIG 0.00  A 
ATOM     29  CZ  PHE C1005      -2.131 -30.092   3.833  1.00 21.73 LIG 0.00  A 
ATOM     30  CE2 PHE C1005      -2.984 -31.071   4.328  1.00 19.92 LIG 0.00  A 
ATOM     31  CD2 PHE C1005      -2.542 -31.953   5.332  1.00 21.20 LIG 0.01  A 
ENDBRANCH 25 26
ENDBRANCH 1 25
BRANCH 1 32
ATOM     32  C   PHE C1005       0.446 -34.899   7.109  1.00 27.26 LIG 0.24  C 
ATOM     33 O    PHE C1005      -0.639 -35.459   7.207  1.00 28.13 LIG-0.27  OA
ATOM     34  N   GLN C1006       1.615 -35.452   7.413  1.00 28.15 LIG-0.35  N 
ATOM     35 H    GLN C1006       2.369 -35.082   7.227  1.00 28.15 LIG 0.16  HD
BRANCH 34 36
ATOM     36  CA  GLN C1006       1.752 -36.740   8.092  1.00 29.76 LIG 0.18  C 
BRANCH 36 37
ATOM     37  CB  GLN C1006       3.222 -37.072   8.333  1.00 29.94 LIG 0.04  C 
BRANCH 37 38
ATOM     38  CG  GLN C1006       3.690 -36.897   9.766  1.00 33.02 LIG 0.10  C 
BRANCH 38 39
ATOM     39  CD  GLN C1006       3.911 -35.441  10.135  1.00 35.46 LIG 0.21  C 
ATOM     40 OE1  GLN C1006       3.398 -34.538   9.473  1.00 38.48 LIG-0.27  OA
ATOM     41  NE2 GLN C1006       4.686 -35.206  11.193  1.00 37.01 LIG-0.37  N 
ATOM     42 22HE GLN C1006       4.847 -34.398  11.438  1.00 37.01 LIG 0.16  HD
ATOM     43 21HE GLN C1006       5.026 -35.864  11.630  1.00 37.01 LIG 0.16  HD
ENDBRANCH 38 39
ENDBRANCH 37 38
ENDBRANCH 36 37
BRANCH 36 44
ATOM     44  C   GLN C1006       0.991 -36.700   9.420  1.00 30.09 LIG 0.24  C 
ATOM     45  N   VAL C1007       0.706 -35.478   9.880  1.00 30.97 LIG-0.35  N 
ATOM     46 H    VAL C1007       0.990 -34.762   9.497  1.00 30.97 LIG 0.16  HD
ATOM     47 O    GLN C1006       0.699 -37.751  10.007  1.00 30.15 LIG-0.27  OA
BRANCH 45 48
ATOM     48  CA  VAL C1007      -0.110 -35.209  11.074  1.00 32.05 LIG 0.18  C 
BRANCH 48 49
ATOM     49  CB  VAL C1007       0.784 -34.747  12.268  1.00 32.12 LIG 0.01  C 
ATOM     50  CG1 VAL C1007       1.745 -33.630  11.870  1.00 30.72 LIG 0.01  C 
ATOM     51  CG2 VAL C1007       1.540 -35.915  12.892  1.00 30.85 LIG 0.01  C 
ENDBRANCH 48 49
BRANCH 48 52
ATOM     52  C   VAL C1007      -0.991 -34.006  10.633  1.00 33.20 LIG 0.24  C 
ATOM     53 O    VAL C1007      -0.433 -32.972  10.284  1.00 34.91 LIG-0.27  OA
ATOM     54  N   THR C1008      -2.324 -34.083  10.640  1.00 34.53 LIG-0.34  N 
ATOM     55 H    THR C1008      -2.802 -33.434  10.340  1.00 34.53 LIG 0.16  HD
BRANCH 54 56
ATOM     56  CA  THR C1008      -3.159 -35.183  11.115  1.00 33.96 LIG 0.19  C 
BRANCH 56 57
ATOM     57  C   THR C1008      -3.242 -36.235  10.010  1.00 33.93 LIG 0.22  C 
ATOM     58 O    THR C1008      -2.478 -36.211   9.041  1.00 34.05 LIG-0.29  OA
ENDBRANCH 56 57
BRANCH 56 59
ATOM     59  CB  THR C1008      -4.620 -34.703  11.452  1.00 34.51 LIG 0.14  C 
ATOM     60  CG2 THR C1008      -4.742 -34.166  12.879  1.00 33.41 LIG 0.04  C 
BRANCH 59 61
ATOM     61 OG1  THR C1008      -4.999 -33.658  10.563  1.00 32.91 LIG-0.39  OA
ATOM     62 HG1  THR C1008      -5.779 -33.403  10.746  1.00 32.91 LIG 0.21  HD
ENDBRANCH 59 61
ENDBRANCH 56 59
ENDBRANCH 54 56
ENDBRANCH 48 52
ENDBRANCH 45 48
ENDBRANCH 36 44
ENDBRANCH 34 36
ENDBRANCH 1 32
TORSDOF 23
ENDMDL
MODEL 44
USER: ADFR SOLUTION from run 153
USER: SCORE 17.805366 LL:  -4.312 LR: -15.475 RR:   0.000 FEB:  -8.614
USER: RMSD 4.262577
USER: SEED 152
USER: STATUS no improvement in best in 7 clusters for 5 generations
USER: GENES 25
USER: genes 0 Translation |==|  0.43334 0.59304 0.47353
USER: genes 1 Rotation |==|  0.67843 0.41555 0.56263 0.95509
USER: genes 2 Torsion [CB]-CA--N-[C] |==|  0.76922
USER: genes 3 Torsion [N]-C--CA-[N] |==|  0.83557
USER: genes 4 Torsion [C]-CA--N-[C] |==|  0.20166
USER: genes 5 Torsion [N]-C--CA-[N] |==|  0.38947
USER: genes 6 Torsion [C]-CA--CB-[CG] |==|  0.50998
USER: genes 7 Torsion [CA]-CB--CG-[CD] |==|  0.89464
USER: genes 8 Torsion [CB]-CG--CD-[NE] |==|  0.34002
USER: genes 9 Torsion [CG]-CD--NE-[HE] |==|  0.75969
USER: genes 10 Torsion [N]-CA--CB-[CG] |==|  0.99351
USER: genes 11 Torsion [CA]-CB--CG-[CD2] |==|  0.28952
USER: genes 12 Torsion [N]-CA--C-[N] |==|  0.18352
USER: genes 13 Torsion [C]-N--CA-[C] |==|  0.77400
USER: genes 14 Torsion [N]-CA--CB-[CG] |==|  0.84717
USER: genes 15 Torsion [CA]-CB--CG-[CD] |==|  0.37656
USER: genes 16 Torsion [CB]-CG--CD-[OE1] |==|  0.59271
USER: genes 17 Torsion [N]-CA--C-[N] |==|  0.18333
USER: genes 18 Torsion [C]-N--CA-[CB] |==|  0.88208
USER: genes 19 Torsion [N]-CA--CB-[CG1] |==|  0.80234
USER: genes 20 Torsion [N]-CA--C-[N] |==|  0.28695
USER: genes 21 Torsion [C]-N--CA-[C] |==|  0.73166
USER: genes 22 Torsion [N]-CA--C-[O] |==|  0.04250
USER: genes 23 Torsion [N]-CA--CB-[OG1] |==|  0.84964
USER: genes 24 Torsion [CA]-CB--OG1-[HG1] |==|  0.14564
ROOT
ATOM      1  CA  PHE C1005      -0.173 -33.604   6.128  1.00 26.32 LIG 0.18  C 
ENDROOT
BRANCH 1 2
ATOM      2  N   PHE C1005      -0.452 -33.257   4.742  1.00 26.54 LIG-0.35  N 
ATOM      3  C   ARG C1004      -1.012 -34.132   3.905  1.00 27.34 LIG 0.24  C 
ATOM      4 O    ARG C1004      -1.464 -35.217   4.268  1.00 26.08 LIG-0.27  OA
ATOM      5 H    PHE C1005      -0.227 -32.456   4.523  1.00 26.54 LIG 0.16  HD
BRANCH 3 6
ATOM      6  CA  ARG C1004      -1.084 -33.716   2.427  1.00 28.49 LIG 0.18  C 
BRANCH 6 7
ATOM      7  N   ARG C1004      -1.835 -32.483   2.209  1.00 30.45 LIG-0.35  N 
ATOM      8  C   GLY C1003      -1.313 -31.310   2.568  1.00 32.03 LIG 0.25  C 
ATOM      9 O    GLY C1003      -0.179 -31.211   3.036  1.00 33.62 LIG-0.27  OA
ATOM     10 H    ARG C1004      -2.608 -32.584   1.846  1.00 30.45 LIG 0.16  HD
BRANCH 8 11
ATOM     11  CA  GLY C1003      -2.173 -30.081   2.362  1.00 33.10 LIG 0.47  C 
ATOM     12  N   GLY C1003      -2.056 -29.115   3.487  1.00 33.92 LIG 0.61  N 
ENDBRANCH 8 11
ENDBRANCH 6 7
BRANCH 6 13
ATOM     13  CB  ARG C1004       0.319 -33.629   1.819  1.00 28.45 LIG 0.04  C 
BRANCH 13 14
ATOM     14  CG  ARG C1004       0.346 -33.143   0.388  1.00 27.92 LIG 0.02  C 
BRANCH 14 15
ATOM     15  CD  ARG C1004      -0.833 -33.695  -0.412  1.00 26.34 LIG 0.14  C 
BRANCH 15 16
ATOM     16  NE  ARG C1004      -1.630 -32.616  -0.978  1.00 24.25 LIG-0.23  N 
ATOM     17 HE   ARG C1004      -2.250 -32.279  -0.486  1.00 24.25 LIG 0.18  HD
ATOM     18  CZ  ARG C1004      -1.471 -32.113  -2.198  1.00 25.16 LIG 0.67  C 
ATOM     19  NH2 ARG C1004      -2.248 -31.123  -2.596  1.00 24.86 LIG-0.23  N 
ATOM     20  NH1 ARG C1004      -0.558 -32.605  -3.022  1.00 22.12 LIG-0.23  N 
ATOM     21 1HH2 ARG C1004      -2.850 -30.810  -2.068  1.00 24.86 LIG 0.17  HD
ATOM     22 2HH2 ARG C1004      -2.152 -30.792  -3.383  1.00 24.86 LIG 0.17  HD
ATOM     23 1HH1 ARG C1004      -0.059 -33.259  -2.771  1.00 22.12 LIG 0.17  HD
ATOM     24 2HH1 ARG C1004      -0.464 -32.271  -3.809  1.00 22.12 LIG 0.17  HD
ENDBRANCH 15 16
ENDBRANCH 14 15
ENDBRANCH 13 14
ENDBRANCH 6 13
ENDBRANCH 3 6
ENDBRANCH 1 2
BRANCH 1 25
ATOM     25  CB  PHE C1005      -1.426 -33.422   6.976  1.00 25.48 LIG 0.07  C 
BRANCH 25 26
ATOM     26  CG  PHE C1005      -2.588 -32.889   6.198  1.00 23.55 LIG-0.06  A 
ATOM     27  CD1 PHE C1005      -2.652 -31.529   5.853  1.00 22.30 LIG 0.01  A 
ATOM     28  CE1 PHE C1005      -3.748 -31.024   5.135  1.00 23.64 LIG 0.00  A 
ATOM     29  CZ  PHE C1005      -4.806 -31.904   4.787  1.00 21.73 LIG 0.00  A 
ATOM     30  CE2 PHE C1005      -4.738 -33.251   5.121  1.00 19.92 LIG 0.00  A 
ATOM     31  CD2 PHE C1005      -3.627 -33.750   5.828  1.00 21.20 LIG 0.01  A 
ENDBRANCH 25 26
ENDBRANCH 1 25
BRANCH 1 32
ATOM     32  C   PHE C1005       0.319 -35.024   6.267  1.00 27.26 LIG 0.24  C 
ATOM     33 O    PHE C1005      -0.368 -35.853   6.852  1.00 28.13 LIG-0.27  OA
ATOM     34  N   GLN C1006       1.502 -35.272   5.716  1.00 28.15 LIG-0.35  N 
ATOM     35 H    GLN C1006       1.911 -34.707   5.213  1.00 28.15 LIG 0.16  HD
BRANCH 34 36
ATOM     36  CA  GLN C1006       2.237 -36.523   5.899  1.00 29.76 LIG 0.18  C 
BRANCH 36 37
ATOM     37  CB  GLN C1006       3.217 -36.749   4.751  1.00 29.94 LIG 0.04  C 
BRANCH 37 38
ATOM     38  CG  GLN C1006       2.598 -36.720   3.367  1.00 33.02 LIG 0.10  C 
BRANCH 38 39
ATOM     39  CD  GLN C1006       3.419 -35.915   2.376  1.00 35.46 LIG 0.21  C 
ATOM     40 OE1  GLN C1006       2.873 -35.279   1.475  1.00 38.48 LIG-0.27  OA
ATOM     41  NE2 GLN C1006       4.742 -35.949   2.533  1.00 37.01 LIG-0.37  N 
ATOM     42 22HE GLN C1006       5.251 -35.515   1.993  1.00 37.01 LIG 0.16  HD
ATOM     43 21HE GLN C1006       5.086 -36.406   3.175  1.00 37.01 LIG 0.16  HD
ENDBRANCH 38 39
ENDBRANCH 37 38
ENDBRANCH 36 37
BRANCH 36 44
ATOM     44  C   GLN C1006       2.983 -36.485   7.236  1.00 30.09 LIG 0.24  C 
ATOM     45  N   VAL C1007       2.207 -36.463   8.324  1.00 30.97 LIG-0.35  N 
ATOM     46 H    VAL C1007       1.350 -36.402   8.280  1.00 30.97 LIG 0.16  HD
ATOM     47 O    GLN C1006       4.221 -36.455   7.262  1.00 30.15 LIG-0.27  OA
BRANCH 45 48
ATOM     48  CA  VAL C1007       2.709 -36.537   9.705  1.00 32.05 LIG 0.18  C 
BRANCH 48 49
ATOM     49  CB  VAL C1007       3.841 -37.606   9.830  1.00 32.12 LIG 0.01  C 
ATOM     50  CG1 VAL C1007       3.304 -39.030   9.714  1.00 30.72 LIG 0.01  C 
ATOM     51  CG2 VAL C1007       4.642 -37.433  11.115  1.00 30.85 LIG 0.01  C 
ENDBRANCH 48 49
BRANCH 48 52
ATOM     52  C   VAL C1007       3.340 -35.133   9.924  1.00 33.20 LIG 0.24  C 
ATOM     53 O    VAL C1007       4.438 -34.904   9.430  1.00 34.91 LIG-0.27  OA
ATOM     54  N   THR C1008       2.714 -34.196  10.641  1.00 34.53 LIG-0.34  N 
ATOM     55 H    THR C1008       3.044 -33.404  10.710  1.00 34.53 LIG 0.16  HD
BRANCH 54 56
ATOM     56  CA  THR C1008       1.463 -34.317  11.383  1.00 33.96 LIG 0.19  C 
BRANCH 56 57
ATOM     57  C   THR C1008       0.329 -33.791  10.504  1.00 33.93 LIG 0.22  C 
ATOM     58 O    THR C1008       0.483 -33.620   9.291  1.00 34.05 LIG-0.29  OA
ENDBRANCH 56 57
BRANCH 56 59
ATOM     59  CB  THR C1008       1.489 -33.475  12.714  1.00 34.51 LIG 0.14  C 
ATOM     60  CG2 THR C1008       0.246 -33.709  13.575  1.00 33.41 LIG 0.04  C 
BRANCH 59 61
ATOM     61 OG1  THR C1008       2.627 -33.838  13.488  1.00 32.91 LIG-0.39  OA
ATOM     62 HG1  THR C1008       3.318 -33.783  13.014  1.00 32.91 LIG 0.21  HD
ENDBRANCH 59 61
ENDBRANCH 56 59
ENDBRANCH 54 56
ENDBRANCH 48 52
ENDBRANCH 45 48
ENDBRANCH 36 44
ENDBRANCH 34 36
ENDBRANCH 1 32
TORSDOF 23
ENDMDL
MODEL 45
USER: ADFR SOLUTION from run 184
USER: SCORE 18.309534 LL:  -4.223 LR: -15.460 RR:   0.000 FEB:  -8.600
USER: RMSD 7.317375
USER: SEED 183
USER: STATUS searching
USER: GENES 25
USER: genes 0 Translation |==|  0.46590 0.59925 0.45608
USER: genes 1 Rotation |==|  0.78992 0.43539 0.45562 0.89975
USER: genes 2 Torsion [CB]-CA--N-[C] |==|  0.76307
USER: genes 3 Torsion [N]-C--CA-[N] |==|  0.43109
USER: genes 4 Torsion [C]-CA--N-[C] |==|  0.64317
USER: genes 5 Torsion [N]-C--CA-[N] |==|  0.33046
USER: genes 6 Torsion [C]-CA--CB-[CG] |==|  0.98998
USER: genes 7 Torsion [CA]-CB--CG-[CD] |==|  0.72955
USER: genes 8 Torsion [CB]-CG--CD-[NE] |==|  0.09637
USER: genes 9 Torsion [CG]-CD--NE-[HE] |==|  0.82512
USER: genes 10 Torsion [N]-CA--CB-[CG] |==|  0.61502
USER: genes 11 Torsion [CA]-CB--CG-[CD2] |==|  0.47453
USER: genes 12 Torsion [N]-CA--C-[N] |==|  0.23976
USER: genes 13 Torsion [C]-N--CA-[C] |==|  0.66700
USER: genes 14 Torsion [N]-CA--CB-[CG] |==|  0.87344
USER: genes 15 Torsion [CA]-CB--CG-[CD] |==|  0.35917
USER: genes 16 Torsion [CB]-CG--CD-[OE1] |==|  0.15988
USER: genes 17 Torsion [N]-CA--C-[N] |==|  0.95325
USER: genes 18 Torsion [C]-N--CA-[CB] |==|  0.82222
USER: genes 19 Torsion [N]-CA--CB-[CG1] |==|  0.92787
USER: genes 20 Torsion [N]-CA--C-[N] |==|  0.18640
USER: genes 21 Torsion [C]-N--CA-[C] |==|  0.61534
USER: genes 22 Torsion [N]-CA--C-[O] |==|  0.16839
USER: genes 23 Torsion [N]-CA--CB-[OG1] |==|  0.87086
USER: genes 24 Torsion [CA]-CB--OG1-[HG1] |==|  0.24547
ROOT
ATOM      1  CA  PHE C1005       0.462 -33.493   5.643  1.00 26.32 LIG 0.18  C 
ENDROOT
BRANCH 1 2
ATOM      2  N   PHE C1005       0.087 -32.399   4.759  1.00 26.54 LIG-0.35  N 
ATOM      3  C   ARG C1004      -0.811 -32.567   3.787  1.00 27.34 LIG 0.24  C 
ATOM      4 O    ARG C1004      -1.487 -33.588   3.664  1.00 26.08 LIG-0.27  OA
ATOM      5 H    PHE C1005       0.490 -31.656   4.920  1.00 26.54 LIG 0.16  HD
BRANCH 3 6
ATOM      6  CA  ARG C1004      -0.984 -31.397   2.804  1.00 28.49 LIG 0.18  C 
BRANCH 6 7
ATOM      7  N   ARG C1004      -1.498 -31.809   1.501  1.00 30.45 LIG-0.35  N 
ATOM      8  C   GLY C1003      -0.868 -31.439   0.386  1.00 32.03 LIG 0.25  C 
ATOM      9 O    GLY C1003       0.181 -30.796   0.407  1.00 33.62 LIG-0.27  OA
ATOM     10 H    ARG C1004      -2.211 -32.289   1.524  1.00 30.45 LIG 0.16  HD
BRANCH 8 11
ATOM     11  CA  GLY C1003      -1.491 -31.857  -0.929  1.00 33.10 LIG 0.47  C 
ATOM     12  N   GLY C1003      -1.868 -30.691  -1.771  1.00 33.92 LIG 0.61  N 
ENDBRANCH 8 11
ENDBRANCH 6 7
BRANCH 6 13
ATOM     13  CB  ARG C1004      -1.849 -30.294   3.421  1.00 28.45 LIG 0.04  C 
BRANCH 13 14
ATOM     14  CG  ARG C1004      -2.399 -30.628   4.788  1.00 27.92 LIG 0.02  C 
BRANCH 14 15
ATOM     15  CD  ARG C1004      -3.832 -31.154   4.701  1.00 26.34 LIG 0.14  C 
BRANCH 15 16
ATOM     16  NE  ARG C1004      -4.026 -31.940   3.492  1.00 24.25 LIG-0.23  N 
ATOM     17 HE   ARG C1004      -3.934 -31.538   2.737  1.00 24.25 LIG 0.18  HD
ATOM     18  CZ  ARG C1004      -4.335 -33.232   3.467  1.00 25.16 LIG 0.67  C 
ATOM     19  NH2 ARG C1004      -4.473 -33.843   2.305  1.00 24.86 LIG-0.23  N 
ATOM     20  NH1 ARG C1004      -4.525 -33.907   4.591  1.00 22.12 LIG-0.23  N 
ATOM     21 1HH2 ARG C1004      -4.363 -33.404   1.574  1.00 24.86 LIG 0.17  HD
ATOM     22 2HH2 ARG C1004      -4.673 -34.678   2.280  1.00 24.86 LIG 0.17  HD
ATOM     23 1HH1 ARG C1004      -4.449 -33.509   5.350  1.00 22.12 LIG 0.17  HD
ATOM     24 2HH1 ARG C1004      -4.725 -34.743   4.563  1.00 22.12 LIG 0.17  HD
ENDBRANCH 15 16
ENDBRANCH 14 15
ENDBRANCH 13 14
ENDBRANCH 6 13
ENDBRANCH 3 6
ENDBRANCH 1 2
BRANCH 1 25
ATOM     25  CB  PHE C1005      -0.520 -33.587   6.805  1.00 25.48 LIG 0.07  C 
BRANCH 25 26
ATOM     26  CG  PHE C1005       0.148 -33.856   8.116  1.00 23.55 LIG-0.06  A 
ATOM     27  CD1 PHE C1005       1.507 -34.205   8.167  1.00 22.30 LIG 0.01  A 
ATOM     28  CE1 PHE C1005       2.132 -34.471   9.396  1.00 23.64 LIG 0.00  A 
ATOM     29  CZ  PHE C1005       1.362 -34.411  10.586  1.00 21.73 LIG 0.00  A 
ATOM     30  CE2 PHE C1005       0.019 -34.059  10.536  1.00 19.92 LIG 0.00  A 
ATOM     31  CD2 PHE C1005      -0.594 -33.779   9.301  1.00 21.20 LIG 0.01  A 
ENDBRANCH 25 26
ENDBRANCH 1 25
BRANCH 1 32
ATOM     32  C   PHE C1005       0.504 -34.816   4.920  1.00 27.26 LIG 0.24  C 
ATOM     33 O    PHE C1005      -0.485 -35.540   4.915  1.00 28.13 LIG-0.27  OA
ATOM     34  N   GLN C1006       1.654 -35.098   4.317  1.00 28.15 LIG-0.35  N 
ATOM     35 H    GLN C1006       2.291 -34.526   4.237  1.00 28.15 LIG 0.16  HD
BRANCH 34 36
ATOM     36  CA  GLN C1006       1.963 -36.399   3.726  1.00 29.76 LIG 0.18  C 
BRANCH 36 37
ATOM     37  CB  GLN C1006       2.204 -36.269   2.225  1.00 29.94 LIG 0.04  C 
BRANCH 37 38
ATOM     38  CG  GLN C1006       1.189 -35.419   1.486  1.00 33.02 LIG 0.10  C 
BRANCH 38 39
ATOM     39  CD  GLN C1006       1.837 -34.359   0.612  1.00 35.46 LIG 0.21  C 
ATOM     40 OE1  GLN C1006       2.636 -34.673  -0.270  1.00 38.48 LIG-0.27  OA
ATOM     41  NE2 GLN C1006       1.502 -33.095   0.863  1.00 37.01 LIG-0.37  N 
ATOM     42 22HE GLN C1006       1.848 -32.458   0.400  1.00 37.01 LIG 0.16  HD
ATOM     43 21HE GLN C1006       0.940 -32.915   1.489  1.00 37.01 LIG 0.16  HD
ENDBRANCH 38 39
ENDBRANCH 37 38
ENDBRANCH 36 37
BRANCH 36 44
ATOM     44  C   GLN C1006       3.196 -36.991   4.413  1.00 30.09 LIG 0.24  C 
ATOM     45  N   VAL C1007       3.933 -36.123   5.113  1.00 30.97 LIG-0.35  N 
ATOM     46 H    VAL C1007       3.770 -35.279   5.122  1.00 30.97 LIG 0.16  HD
ATOM     47 O    GLN C1006       3.469 -38.193   4.284  1.00 30.15 LIG-0.27  OA
BRANCH 45 48
ATOM     48  CA  VAL C1007       5.093 -36.495   5.939  1.00 32.05 LIG 0.18  C 
BRANCH 48 49
ATOM     49  CB  VAL C1007       4.661 -37.413   7.126  1.00 32.12 LIG 0.01  C 
ATOM     50  CG1 VAL C1007       3.203 -37.194   7.523  1.00 30.72 LIG 0.01  C 
ATOM     51  CG2 VAL C1007       5.580 -37.248   8.331  1.00 30.85 LIG 0.01  C 
ENDBRANCH 48 49
BRANCH 48 52
ATOM     52  C   VAL C1007       5.963 -37.337   4.964  1.00 33.20 LIG 0.24  C 
ATOM     53 O    VAL C1007       6.111 -38.531   5.200  1.00 34.91 LIG-0.27  OA
ATOM     54  N   THR C1008       6.548 -36.781   3.900  1.00 34.53 LIG-0.34  N 
ATOM     55 H    THR C1008       6.980 -37.266   3.335  1.00 34.53 LIG 0.16  HD
BRANCH 54 56
ATOM     56  CA  THR C1008       6.570 -35.372   3.519  1.00 33.96 LIG 0.19  C 
BRANCH 56 57
ATOM     57  C   THR C1008       6.363 -35.279   2.008  1.00 33.93 LIG 0.22  C 
ATOM     58 O    THR C1008       5.336 -35.707   1.473  1.00 34.05 LIG-0.29  OA
ENDBRANCH 56 57
BRANCH 56 59
ATOM     59  CB  THR C1008       7.945 -34.693   3.873  1.00 34.51 LIG 0.14  C 
ATOM     60  CG2 THR C1008       7.877 -33.167   3.797  1.00 33.41 LIG 0.04  C 
BRANCH 59 61
ATOM     61 OG1  THR C1008       8.327 -35.044   5.199  1.00 32.91 LIG-0.39  OA
ATOM     62 HG1  THR C1008       8.768 -35.759   5.184  1.00 32.91 LIG 0.21  HD
ENDBRANCH 59 61
ENDBRANCH 56 59
ENDBRANCH 54 56
ENDBRANCH 48 52
ENDBRANCH 45 48
ENDBRANCH 36 44
ENDBRANCH 34 36
ENDBRANCH 1 32
TORSDOF 23
ENDMDL
MODEL 46
USER: ADFR SOLUTION from run 146
USER: SCORE 16.765398 LL:  -4.355 LR: -15.424 RR:   0.000 FEB:  -8.563
USER: RMSD 5.736070
USER: SEED 145
USER: STATUS no improvement in best in 3 clusters for 5 generations
USER: GENES 25
USER: genes 0 Translation |==|  0.48201 0.61508 0.28632
USER: genes 1 Rotation |==|  0.59456 0.39266 0.64977 0.95509
USER: genes 2 Torsion [CB]-CA--N-[C] |==|  0.16677
USER: genes 3 Torsion [N]-C--CA-[N] |==|  0.81762
USER: genes 4 Torsion [C]-CA--N-[C] |==|  0.20176
USER: genes 5 Torsion [N]-C--CA-[N] |==|  0.50166
USER: genes 6 Torsion [C]-CA--CB-[CG] |==|  0.45393
USER: genes 7 Torsion [CA]-CB--CG-[CD] |==|  0.73015
USER: genes 8 Torsion [CB]-CG--CD-[NE] |==|  0.16585
USER: genes 9 Torsion [CG]-CD--NE-[HE] |==|  0.22110
USER: genes 10 Torsion [N]-CA--CB-[CG] |==|  0.63042
USER: genes 11 Torsion [CA]-CB--CG-[CD2] |==|  0.78175
USER: genes 12 Torsion [N]-CA--C-[N] |==|  0.58714
USER: genes 13 Torsion [C]-N--CA-[C] |==|  0.49690
USER: genes 14 Torsion [N]-CA--CB-[CG] |==|  0.52077
USER: genes 15 Torsion [CA]-CB--CG-[CD] |==|  0.63857
USER: genes 16 Torsion [CB]-CG--CD-[OE1] |==|  0.66188
USER: genes 17 Torsion [N]-CA--C-[N] |==|  0.79896
USER: genes 18 Torsion [C]-N--CA-[CB] |==|  0.88328
USER: genes 19 Torsion [N]-CA--CB-[CG1] |==|  0.76604
USER: genes 20 Torsion [N]-CA--C-[N] |==|  0.34479
USER: genes 21 Torsion [C]-N--CA-[C] |==|  0.65201
USER: genes 22 Torsion [N]-CA--C-[O] |==|  0.08145
USER: genes 23 Torsion [N]-CA--CB-[OG1] |==|  0.75914
USER: genes 24 Torsion [CA]-CB--OG1-[HG1] |==|  0.19199
ROOT
ATOM      1  CA  PHE C1005       0.776 -33.208   0.932  1.00 26.32 LIG 0.18  C 
ENDROOT
BRANCH 1 2
ATOM      2  N   PHE C1005       0.843 -33.399  -0.509  1.00 26.54 LIG-0.35  N 
ATOM      3  C   ARG C1004       0.334 -32.501  -1.355  1.00 27.34 LIG 0.24  C 
ATOM      4 O    ARG C1004      -0.081 -31.399  -0.996  1.00 26.08 LIG-0.27  OA
ATOM      5 H    PHE C1005       1.230 -34.127  -0.755  1.00 26.54 LIG 0.16  HD
BRANCH 3 6
ATOM      6  CA  ARG C1004       0.296 -32.901  -2.838  1.00 28.49 LIG 0.18  C 
BRANCH 6 7
ATOM      7  N   ARG C1004       1.623 -33.058  -3.428  1.00 30.45 LIG-0.35  N 
ATOM      8  C   GLY C1003       2.376 -34.111  -3.110  1.00 32.03 LIG 0.25  C 
ATOM      9 O    GLY C1003       1.974 -35.005  -2.366  1.00 33.62 LIG-0.27  OA
ATOM     10 H    ARG C1004       1.857 -32.435  -3.973  1.00 30.45 LIG 0.16  HD
BRANCH 8 11
ATOM     11  CA  GLY C1003       3.761 -34.176  -3.719  1.00 33.10 LIG 0.47  C 
ATOM     12  N   GLY C1003       4.502 -35.398  -3.306  1.00 33.92 LIG 0.61  N 
ENDBRANCH 8 11
ENDBRANCH 6 7
BRANCH 6 13
ATOM     13  CB  ARG C1004      -0.556 -34.158  -3.039  1.00 28.45 LIG 0.04  C 
BRANCH 13 14
ATOM     14  CG  ARG C1004      -0.976 -34.400  -4.470  1.00 27.92 LIG 0.02  C 
BRANCH 14 15
ATOM     15  CD  ARG C1004      -2.388 -33.877  -4.734  1.00 26.34 LIG 0.14  C 
BRANCH 15 16
ATOM     16  NE  ARG C1004      -2.470 -32.446  -4.479  1.00 24.25 LIG-0.23  N 
ATOM     17 HE   ARG C1004      -2.174 -31.916  -5.088  1.00 24.25 LIG 0.18  HD
ATOM     18  CZ  ARG C1004      -2.966 -31.898  -3.375  1.00 25.16 LIG 0.67  C 
ATOM     19  NH2 ARG C1004      -2.999 -30.583  -3.263  1.00 24.86 LIG-0.23  N 
ATOM     20  NH1 ARG C1004      -3.407 -32.654  -2.380  1.00 22.12 LIG-0.23  N 
ATOM     21 1HH2 ARG C1004      -2.701 -30.090  -3.902  1.00 24.86 LIG 0.17  HD
ATOM     22 2HH2 ARG C1004      -3.318 -30.220  -2.552  1.00 24.86 LIG 0.17  HD
ATOM     23 1HH1 ARG C1004      -3.375 -33.511  -2.444  1.00 22.12 LIG 0.17  HD
ATOM     24 2HH1 ARG C1004      -3.726 -32.288  -1.671  1.00 22.12 LIG 0.17  HD
ENDBRANCH 15 16
ENDBRANCH 14 15
ENDBRANCH 13 14
ENDBRANCH 6 13
ENDBRANCH 3 6
ENDBRANCH 1 2
BRANCH 1 25
ATOM     25  CB  PHE C1005      -0.677 -33.108   1.381  1.00 25.48 LIG 0.07  C 
BRANCH 25 26
ATOM     26  CG  PHE C1005      -0.925 -31.963   2.312  1.00 23.55 LIG-0.06  A 
ATOM     27  CD1 PHE C1005      -1.495 -30.769   1.839  1.00 22.30 LIG 0.01  A 
ATOM     28  CE1 PHE C1005      -1.716 -29.689   2.708  1.00 23.64 LIG 0.00  A 
ATOM     29  CZ  PHE C1005      -1.329 -29.810   4.068  1.00 21.73 LIG 0.00  A 
ATOM     30  CE2 PHE C1005      -0.773 -30.994   4.537  1.00 19.92 LIG 0.00  A 
ATOM     31  CD2 PHE C1005      -0.569 -32.076   3.660  1.00 21.20 LIG 0.01  A 
ENDBRANCH 25 26
ENDBRANCH 1 25
BRANCH 1 32
ATOM     32  C   PHE C1005       1.452 -34.328   1.684  1.00 27.26 LIG 0.24  C 
ATOM     33 O    PHE C1005       2.416 -34.900   1.190  1.00 28.13 LIG-0.27  OA
ATOM     34  N   GLN C1006       0.930 -34.610   2.873  1.00 28.15 LIG-0.35  N 
ATOM     35 H    GLN C1006       0.329 -34.121   3.247  1.00 28.15 LIG 0.16  HD
BRANCH 34 36
ATOM     36  CA  GLN C1006       1.313 -35.773   3.672  1.00 29.76 LIG 0.18  C 
BRANCH 36 37
ATOM     37  CB  GLN C1006       2.814 -35.771   3.946  1.00 29.94 LIG 0.04  C 
BRANCH 37 38
ATOM     38  CG  GLN C1006       3.343 -37.026   4.616  1.00 33.02 LIG 0.10  C 
BRANCH 38 39
ATOM     39  CD  GLN C1006       4.204 -36.722   5.829  1.00 35.46 LIG 0.21  C 
ATOM     40 OE1  GLN C1006       5.370 -37.114   5.888  1.00 38.48 LIG-0.27  OA
ATOM     41  NE2 GLN C1006       3.627 -36.029   6.810  1.00 37.01 LIG-0.37  N 
ATOM     42 22HE GLN C1006       4.072 -35.838   7.521  1.00 37.01 LIG 0.16  HD
ATOM     43 21HE GLN C1006       2.810 -35.773   6.732  1.00 37.01 LIG 0.16  HD
ENDBRANCH 38 39
ENDBRANCH 37 38
ENDBRANCH 36 37
BRANCH 36 44
ATOM     44  C   GLN C1006       0.532 -35.766   4.989  1.00 30.09 LIG 0.24  C 
ATOM     45  N   VAL C1007       0.912 -34.839   5.874  1.00 30.97 LIG-0.35  N 
ATOM     46 H    VAL C1007       1.591 -34.327   5.746  1.00 30.97 LIG 0.16  HD
ATOM     47 O    GLN C1006      -0.365 -36.595   5.191  1.00 30.15 LIG-0.27  OA
BRANCH 45 48
ATOM     48  CA  VAL C1007       0.230 -34.582   7.153  1.00 32.05 LIG 0.18  C 
BRANCH 48 49
ATOM     49  CB  VAL C1007      -1.321 -34.612   6.974  1.00 32.12 LIG 0.01  C 
ATOM     50  CG1 VAL C1007      -1.872 -33.271   6.495  1.00 30.72 LIG 0.01  C 
ATOM     51  CG2 VAL C1007      -2.028 -35.064   8.247  1.00 30.85 LIG 0.01  C 
ENDBRANCH 48 49
BRANCH 48 52
ATOM     52  C   VAL C1007       0.643 -35.803   8.022  1.00 33.20 LIG 0.24  C 
ATOM     53 O    VAL C1007       0.398 -36.928   7.600  1.00 34.91 LIG-0.27  OA
ATOM     54  N   THR C1008       1.240 -35.642   9.206  1.00 34.53 LIG-0.34  N 
ATOM     55 H    THR C1008       1.517 -36.323   9.653  1.00 34.53 LIG 0.16  HD
BRANCH 54 56
ATOM     56  CA  THR C1008       1.518 -34.394   9.911  1.00 33.96 LIG 0.19  C 
BRANCH 56 57
ATOM     57  C   THR C1008       3.011 -34.343  10.229  1.00 33.93 LIG 0.22  C 
ATOM     58 O    THR C1008       3.841 -34.904   9.509  1.00 34.05 LIG-0.29  OA
ENDBRANCH 56 57
BRANCH 56 59
ATOM     59  CB  THR C1008       0.719 -34.299  11.264  1.00 34.51 LIG 0.14  C 
ATOM     60  CG2 THR C1008       1.418 -33.406  12.291  1.00 33.41 LIG 0.04  C 
BRANCH 59 61
ATOM     61 OG1  THR C1008      -0.572 -33.751  11.022  1.00 32.91 LIG-0.39  OA
ATOM     62 HG1  THR C1008      -1.034 -34.303  10.589  1.00 32.91 LIG 0.21  HD
ENDBRANCH 59 61
ENDBRANCH 56 59
ENDBRANCH 54 56
ENDBRANCH 48 52
ENDBRANCH 45 48
ENDBRANCH 36 44
ENDBRANCH 34 36
ENDBRANCH 1 32
TORSDOF 23
ENDMDL
MODEL 47
USER: ADFR SOLUTION from run 6
USER: SCORE 17.823834 LL:  -4.306 LR: -15.414 RR:   0.000 FEB:  -8.553
USER: RMSD 2.688070
USER: SEED 472653
USER: STATUS no improvement in best in 8 clusters for 5 generations
USER: GENES 25
USER: genes 0 Translation |==|  0.46047 0.63092 0.49000
USER: genes 1 Rotation |==|  0.52417 0.32354 0.58803 0.95883
USER: genes 2 Torsion [CB]-CA--N-[C] |==|  0.80000
USER: genes 3 Torsion [N]-C--CA-[N] |==|  0.36377
USER: genes 4 Torsion [C]-CA--N-[C] |==|  0.80941
USER: genes 5 Torsion [N]-C--CA-[N] |==|  0.32952
USER: genes 6 Torsion [C]-CA--CB-[CG] |==|  0.13054
USER: genes 7 Torsion [CA]-CB--CG-[CD] |==|  0.32374
USER: genes 8 Torsion [CB]-CG--CD-[NE] |==|  0.29238
USER: genes 9 Torsion [CG]-CD--NE-[HE] |==|  0.06186
USER: genes 10 Torsion [N]-CA--CB-[CG] |==|  0.88557
USER: genes 11 Torsion [CA]-CB--CG-[CD2] |==|  0.87334
USER: genes 12 Torsion [N]-CA--C-[N] |==|  0.16516
USER: genes 13 Torsion [C]-N--CA-[C] |==|  0.74311
USER: genes 14 Torsion [N]-CA--CB-[CG] |==|  0.18201
USER: genes 15 Torsion [CA]-CB--CG-[CD] |==|  0.29427
USER: genes 16 Torsion [CB]-CG--CD-[OE1] |==|  0.72174
USER: genes 17 Torsion [N]-CA--C-[N] |==|  0.34297
USER: genes 18 Torsion [C]-N--CA-[CB] |==|  0.28281
USER: genes 19 Torsion [N]-CA--CB-[CG1] |==|  0.36213
USER: genes 20 Torsion [N]-CA--C-[N] |==|  0.36589
USER: genes 21 Torsion [C]-N--CA-[C] |==|  0.14169
USER: genes 22 Torsion [N]-CA--C-[O] |==|  0.50026
USER: genes 23 Torsion [N]-CA--CB-[OG1] |==|  0.29497
USER: genes 24 Torsion [CA]-CB--OG1-[HG1] |==|  0.83939
ROOT
ATOM      1  CA  PHE C1005       0.356 -32.922   6.585  1.00 26.32 LIG 0.18  C 
ENDROOT
BRANCH 1 2
ATOM      2  N   PHE C1005       0.719 -33.366   5.247  1.00 26.54 LIG-0.35  N 
ATOM      3  C   ARG C1004       0.144 -34.432   4.687  1.00 27.34 LIG 0.24  C 
ATOM      4 O    ARG C1004      -0.820 -35.014   5.182  1.00 26.08 LIG-0.27  OA
ATOM      5 H    PHE C1005       1.324 -32.887   4.864  1.00 26.54 LIG 0.16  HD
BRANCH 3 6
ATOM      6  CA  ARG C1004       0.741 -34.912   3.355  1.00 28.49 LIG 0.18  C 
BRANCH 6 7
ATOM      7  N   ARG C1004       1.008 -36.348   3.325  1.00 30.45 LIG-0.35  N 
ATOM      8  C   GLY C1003       1.973 -36.865   4.084  1.00 32.03 LIG 0.25  C 
ATOM      9 O    GLY C1003       2.631 -36.180   4.867  1.00 33.62 LIG-0.27  OA
ATOM     10 H    ARG C1004       0.505 -36.802   2.795  1.00 30.45 LIG 0.16  HD
BRANCH 8 11
ATOM     11  CA  GLY C1003       2.227 -38.352   3.958  1.00 33.10 LIG 0.47  C 
ATOM     12  N   GLY C1003       3.605 -38.652   3.484  1.00 33.92 LIG 0.61  N 
ENDBRANCH 8 11
ENDBRANCH 6 7
BRANCH 6 13
ATOM     13  CB  ARG C1004      -0.142 -34.484   2.179  1.00 28.45 LIG 0.04  C 
BRANCH 13 14
ATOM     14  CG  ARG C1004      -0.576 -33.038   2.223  1.00 27.92 LIG 0.02  C 
BRANCH 14 15
ATOM     15  CD  ARG C1004      -0.020 -32.251   1.037  1.00 26.34 LIG 0.14  C 
BRANCH 15 16
ATOM     16  NE  ARG C1004      -1.059 -31.986   0.054  1.00 24.25 LIG-0.23  N 
ATOM     17 HE   ARG C1004      -1.876 -32.006   0.323  1.00 24.25 LIG 0.18  HD
ATOM     18  CZ  ARG C1004      -0.841 -31.716  -1.229  1.00 25.16 LIG 0.67  C 
ATOM     19  NH2 ARG C1004      -1.867 -31.479  -2.025  1.00 24.86 LIG-0.23  N 
ATOM     20  NH1 ARG C1004       0.389 -31.702  -1.721  1.00 22.12 LIG-0.23  N 
ATOM     21 1HH2 ARG C1004      -2.668 -31.500  -1.711  1.00 24.86 LIG 0.17  HD
ATOM     22 2HH2 ARG C1004      -1.735 -31.304  -2.856  1.00 24.86 LIG 0.17  HD
ATOM     23 1HH1 ARG C1004       1.059 -31.869  -1.208  1.00 22.12 LIG 0.17  HD
ATOM     24 2HH1 ARG C1004       0.518 -31.526  -2.552  1.00 22.12 LIG 0.17  HD
ENDBRANCH 15 16
ENDBRANCH 14 15
ENDBRANCH 13 14
ENDBRANCH 6 13
ENDBRANCH 3 6
ENDBRANCH 1 2
BRANCH 1 25
ATOM     25  CB  PHE C1005      -1.033 -32.295   6.569  1.00 25.48 LIG 0.07  C 
BRANCH 25 26
ATOM     26  CG  PHE C1005      -1.269 -31.423   5.376  1.00 23.55 LIG-0.06  A 
ATOM     27  CD1 PHE C1005      -2.457 -31.533   4.635  1.00 22.30 LIG 0.01  A 
ATOM     28  CE1 PHE C1005      -2.674 -30.725   3.508  1.00 23.64 LIG 0.00  A 
ATOM     29  CZ  PHE C1005      -1.662 -29.814   3.110  1.00 21.73 LIG 0.00  A 
ATOM     30  CE2 PHE C1005      -0.490 -29.700   3.848  1.00 19.92 LIG 0.00  A 
ATOM     31  CD2 PHE C1005      -0.288 -30.504   4.985  1.00 21.20 LIG 0.01  A 
ENDBRANCH 25 26
ENDBRANCH 1 25
BRANCH 1 32
ATOM     32  C   PHE C1005       0.378 -34.054   7.582  1.00 27.26 LIG 0.24  C 
ATOM     33 O    PHE C1005      -0.643 -34.352   8.191  1.00 28.13 LIG-0.27  OA
ATOM     34  N   GLN C1006       1.549 -34.668   7.719  1.00 28.15 LIG-0.35  N 
ATOM     35 H    GLN C1006       2.218 -34.518   7.200  1.00 28.15 LIG 0.16  HD
BRANCH 34 36
ATOM     36  CA  GLN C1006       1.830 -35.656   8.759  1.00 29.76 LIG 0.18  C 
BRANCH 36 37
ATOM     37  CB  GLN C1006       2.782 -36.732   8.241  1.00 29.94 LIG 0.04  C 
BRANCH 37 38
ATOM     38  CG  GLN C1006       4.176 -36.242   7.900  1.00 33.02 LIG 0.10  C 
BRANCH 38 39
ATOM     39  CD  GLN C1006       5.212 -36.665   8.926  1.00 35.46 LIG 0.21  C 
ATOM     40 OE1  GLN C1006       5.599 -35.879   9.790  1.00 38.48 LIG-0.27  OA
ATOM     41  NE2 GLN C1006       5.674 -37.911   8.826  1.00 37.01 LIG-0.37  N 
ATOM     42 22HE GLN C1006       6.267 -38.195   9.380  1.00 37.01 LIG 0.16  HD
ATOM     43 21HE GLN C1006       5.378 -38.430   8.208  1.00 37.01 LIG 0.16  HD
ENDBRANCH 38 39
ENDBRANCH 37 38
ENDBRANCH 36 37
BRANCH 36 44
ATOM     44  C   GLN C1006       2.434 -34.956   9.979  1.00 30.09 LIG 0.24  C 
ATOM     45  N   VAL C1007       1.779 -35.145  11.129  1.00 30.97 LIG-0.35  N 
ATOM     46 H    VAL C1007       1.032 -35.570  11.172  1.00 30.97 LIG 0.16  HD
ATOM     47 O    GLN C1006       3.448 -34.254   9.862  1.00 30.15 LIG-0.27  OA
BRANCH 45 48
ATOM     48  CA  VAL C1007       2.242 -34.660  12.439  1.00 32.05 LIG 0.18  C 
BRANCH 48 49
ATOM     49  CB  VAL C1007       1.467 -33.371  12.861  1.00 32.12 LIG 0.01  C 
ATOM     50  CG1 VAL C1007       0.919 -33.468  14.283  1.00 30.72 LIG 0.01  C 
ATOM     51  CG2 VAL C1007       0.356 -33.032  11.875  1.00 30.85 LIG 0.01  C 
ENDBRANCH 48 49
BRANCH 48 52
ATOM     52  C   VAL C1007       1.835 -35.809  13.403  1.00 33.20 LIG 0.24  C 
ATOM     53 O    VAL C1007       0.691 -36.246  13.339  1.00 34.91 LIG-0.27  OA
ATOM     54  N   THR C1008       2.699 -36.310  14.290  1.00 34.53 LIG-0.34  N 
ATOM     55 H    THR C1008       2.484 -36.984  14.779  1.00 34.53 LIG 0.16  HD
BRANCH 54 56
ATOM     56  CA  THR C1008       4.056 -35.855  14.578  1.00 33.96 LIG 0.19  C 
BRANCH 56 57
ATOM     57  C   THR C1008       4.015 -34.349  14.832  1.00 33.93 LIG 0.22  C 
ATOM     58 O    THR C1008       5.040 -33.714  15.098  1.00 34.05 LIG-0.29  OA
ENDBRANCH 56 57
BRANCH 56 59
ATOM     59  CB  THR C1008       5.032 -36.128  13.373  1.00 34.51 LIG 0.14  C 
ATOM     60  CG2 THR C1008       4.429 -37.083  12.341  1.00 33.41 LIG 0.04  C 
BRANCH 59 61
ATOM     61 OG1  THR C1008       5.328 -34.904  12.709  1.00 32.91 LIG-0.39  OA
ATOM     62 HG1  THR C1008       4.613 -34.548  12.445  1.00 32.91 LIG 0.21  HD
ENDBRANCH 59 61
ENDBRANCH 56 59
ENDBRANCH 54 56
ENDBRANCH 48 52
ENDBRANCH 45 48
ENDBRANCH 36 44
ENDBRANCH 34 36
ENDBRANCH 1 32
TORSDOF 23
ENDMDL
MODEL 48
USER: ADFR SOLUTION from run 68
USER: SCORE 18.168639 LL:  -4.383 LR: -15.404 RR:   0.000 FEB:  -8.543
USER: RMSD 6.877533
USER: SEED 67
USER: STATUS searching
USER: GENES 25
USER: genes 0 Translation |==|  0.35822 0.74530 0.44476
USER: genes 1 Rotation |==|  0.60341 0.47149 0.72134 0.93532
USER: genes 2 Torsion [CB]-CA--N-[C] |==|  0.74408
USER: genes 3 Torsion [N]-C--CA-[N] |==|  0.21503
USER: genes 4 Torsion [C]-CA--N-[C] |==|  0.74646
USER: genes 5 Torsion [N]-C--CA-[N] |==|  0.25768
USER: genes 6 Torsion [C]-CA--CB-[CG] |==|  0.41751
USER: genes 7 Torsion [CA]-CB--CG-[CD] |==|  0.17623
USER: genes 8 Torsion [CB]-CG--CD-[NE] |==|  0.69414
USER: genes 9 Torsion [CG]-CD--NE-[HE] |==|  0.03849
USER: genes 10 Torsion [N]-CA--CB-[CG] |==|  0.06432
USER: genes 11 Torsion [CA]-CB--CG-[CD2] |==|  0.26567
USER: genes 12 Torsion [N]-CA--C-[N] |==|  0.70730
USER: genes 13 Torsion [C]-N--CA-[C] |==|  0.72388
USER: genes 14 Torsion [N]-CA--CB-[CG] |==|  0.46997
USER: genes 15 Torsion [CA]-CB--CG-[CD] |==|  0.21687
USER: genes 16 Torsion [CB]-CG--CD-[OE1] |==|  0.73336
USER: genes 17 Torsion [N]-CA--C-[N] |==|  0.38072
USER: genes 18 Torsion [C]-N--CA-[CB] |==|  0.79444
USER: genes 19 Torsion [N]-CA--CB-[CG1] |==|  0.83771
USER: genes 20 Torsion [N]-CA--C-[N] |==|  0.22373
USER: genes 21 Torsion [C]-N--CA-[C] |==|  0.46879
USER: genes 22 Torsion [N]-CA--C-[O] |==|  0.34885
USER: genes 23 Torsion [N]-CA--CB-[OG1] |==|  0.70921
USER: genes 24 Torsion [CA]-CB--OG1-[HG1] |==|  0.01074
ROOT
ATOM      1  CA  PHE C1005      -1.638 -30.864   5.329  1.00 26.32 LIG 0.18  C 
ENDROOT
BRANCH 1 2
ATOM      2  N   PHE C1005      -1.800 -31.231   3.930  1.00 26.54 LIG-0.35  N 
ATOM      3  C   ARG C1004      -1.436 -32.433   3.479  1.00 27.34 LIG 0.24  C 
ATOM      4 O    ARG C1004      -1.088 -33.352   4.220  1.00 26.08 LIG-0.27  OA
ATOM      5 H    PHE C1005      -2.143 -30.615   3.437  1.00 26.54 LIG 0.16  HD
BRANCH 3 6
ATOM      6  CA  ARG C1004      -1.481 -32.636   1.957  1.00 28.49 LIG 0.18  C 
BRANCH 6 7
ATOM      7  N   ARG C1004      -0.350 -32.029   1.259  1.00 30.45 LIG-0.35  N 
ATOM      8  C   GLY C1003      -0.439 -30.779   0.804  1.00 32.03 LIG 0.25  C 
ATOM      9 O    GLY C1003      -1.434 -30.079   0.995  1.00 33.62 LIG-0.27  OA
ATOM     10 H    ARG C1004       0.341 -32.532   1.176  1.00 30.45 LIG 0.16  HD
BRANCH 8 11
ATOM     11  CA  GLY C1003       0.752 -30.237   0.043  1.00 33.10 LIG 0.47  C 
ATOM     12  N   GLY C1003       0.626 -30.443  -1.425  1.00 33.92 LIG 0.61  N 
ENDBRANCH 8 11
ENDBRANCH 6 7
BRANCH 6 13
ATOM     13  CB  ARG C1004      -1.615 -34.123   1.612  1.00 28.45 LIG 0.04  C 
BRANCH 13 14
ATOM     14  CG  ARG C1004      -2.346 -34.396   0.318  1.00 27.92 LIG 0.02  C 
BRANCH 14 15
ATOM     15  CD  ARG C1004      -1.592 -33.824  -0.882  1.00 26.34 LIG 0.14  C 
BRANCH 15 16
ATOM     16  NE  ARG C1004      -2.302 -32.688  -1.451  1.00 24.25 LIG-0.23  N 
ATOM     17 HE   ARG C1004      -2.935 -32.340  -0.983  1.00 24.25 LIG 0.18  HD
ATOM     18  CZ  ARG C1004      -2.047 -32.149  -2.638  1.00 25.16 LIG 0.67  C 
ATOM     19  NH2 ARG C1004      -2.752 -31.109  -3.042  1.00 24.86 LIG-0.23  N 
ATOM     20  NH1 ARG C1004      -1.109 -32.654  -3.426  1.00 22.12 LIG-0.23  N 
ATOM     21 1HH2 ARG C1004      -3.370 -30.787  -2.538  1.00 24.86 LIG 0.17  HD
ATOM     22 2HH2 ARG C1004      -2.593 -30.754  -3.809  1.00 24.86 LIG 0.17  HD
ATOM     23 1HH1 ARG C1004      -0.657 -33.340  -3.171  1.00 22.12 LIG 0.17  HD
ATOM     24 2HH1 ARG C1004      -0.952 -32.296  -4.192  1.00 22.12 LIG 0.17  HD
ENDBRANCH 15 16
ENDBRANCH 14 15
ENDBRANCH 13 14
ENDBRANCH 6 13
ENDBRANCH 3 6
ENDBRANCH 1 2
BRANCH 1 25
ATOM     25  CB  PHE C1005      -2.909 -31.186   6.106  1.00 25.48 LIG 0.07  C 
BRANCH 25 26
ATOM     26  CG  PHE C1005      -3.743 -32.242   5.453  1.00 23.55 LIG-0.06  A 
ATOM     27  CD1 PHE C1005      -4.667 -31.904   4.450  1.00 22.30 LIG 0.01  A 
ATOM     28  CE1 PHE C1005      -5.460 -32.892   3.846  1.00 23.64 LIG 0.00  A 
ATOM     29  CZ  PHE C1005      -5.335 -34.237   4.283  1.00 21.73 LIG 0.00  A 
ATOM     30  CE2 PHE C1005      -4.416 -34.572   5.269  1.00 19.92 LIG 0.00  A 
ATOM     31  CD2 PHE C1005      -3.614 -33.576   5.858  1.00 21.20 LIG 0.01  A 
ENDBRANCH 25 26
ENDBRANCH 1 25
BRANCH 1 32
ATOM     32  C   PHE C1005      -0.471 -31.575   5.969  1.00 27.26 LIG 0.24  C 
ATOM     33 O    PHE C1005       0.674 -31.219   5.716  1.00 28.13 LIG-0.27  OA
ATOM     34  N   GLN C1006      -0.793 -32.565   6.795  1.00 28.15 LIG-0.35  N 
ATOM     35 H    GLN C1006      -1.601 -32.719   7.046  1.00 28.15 LIG 0.16  HD
BRANCH 34 36
ATOM     36  CA  GLN C1006       0.180 -33.494   7.367  1.00 29.76 LIG 0.18  C 
BRANCH 36 37
ATOM     37  CB  GLN C1006      -0.130 -33.768   8.836  1.00 29.94 LIG 0.04  C 
BRANCH 37 38
ATOM     38  CG  GLN C1006       0.657 -34.908   9.453  1.00 33.02 LIG 0.10  C 
BRANCH 38 39
ATOM     39  CD  GLN C1006       2.079 -34.512   9.811  1.00 35.46 LIG 0.21  C 
ATOM     40 OE1  GLN C1006       3.010 -34.744   9.040  1.00 38.48 LIG-0.27  OA
ATOM     41  NE2 GLN C1006       2.252 -33.918  10.991  1.00 37.01 LIG-0.37  N 
ATOM     42 22HE GLN C1006       3.039 -33.680  11.242  1.00 37.01 LIG 0.16  HD
ATOM     43 21HE GLN C1006       1.575 -33.772  11.502  1.00 37.01 LIG 0.16  HD
ENDBRANCH 38 39
ENDBRANCH 37 38
ENDBRANCH 36 37
BRANCH 36 44
ATOM     44  C   GLN C1006       0.169 -34.800   6.569  1.00 30.09 LIG 0.24  C 
ATOM     45  N   VAL C1007       1.373 -35.317   6.300  1.00 30.97 LIG-0.35  N 
ATOM     46 H    VAL C1007       2.105 -34.911   6.498  1.00 30.97 LIG 0.16  HD
ATOM     47 O    GLN C1006      -0.902 -35.298   6.196  1.00 30.15 LIG-0.27  OA
BRANCH 45 48
ATOM     48  CA  VAL C1007       1.592 -36.616   5.646  1.00 32.05 LIG 0.18  C 
BRANCH 48 49
ATOM     49  CB  VAL C1007       1.287 -37.793   6.626  1.00 32.12 LIG 0.01  C 
ATOM     50  CG1 VAL C1007       2.147 -37.732   7.886  1.00 30.72 LIG 0.01  C 
ATOM     51  CG2 VAL C1007       1.425 -39.148   5.942  1.00 30.85 LIG 0.01  C 
ENDBRANCH 48 49
BRANCH 48 52
ATOM     52  C   VAL C1007       0.519 -36.628   4.521  1.00 33.20 LIG 0.24  C 
ATOM     53 O    VAL C1007      -0.517 -37.255   4.712  1.00 34.91 LIG-0.27  OA
ATOM     54  N   THR C1008       0.715 -35.984   3.368  1.00 34.53 LIG-0.34  N 
ATOM     55 H    THR C1008       0.092 -35.949   2.775  1.00 34.53 LIG 0.16  HD
BRANCH 54 56
ATOM     56  CA  THR C1008       1.913 -35.278   2.925  1.00 33.96 LIG 0.19  C 
BRANCH 56 57
ATOM     57  C   THR C1008       1.757 -34.951   1.441  1.00 33.93 LIG 0.22  C 
ATOM     58 O    THR C1008       1.877 -33.796   1.021  1.00 34.05 LIG-0.29  OA
ENDBRANCH 56 57
BRANCH 56 59
ATOM     59  CB  THR C1008       3.208 -36.155   3.106  1.00 34.51 LIG 0.14  C 
ATOM     60  CG2 THR C1008       4.127 -36.095   1.884  1.00 33.41 LIG 0.04  C 
BRANCH 59 61
ATOM     61 OG1  THR C1008       3.950 -35.689   4.228  1.00 32.91 LIG-0.39  OA
ATOM     62 HG1  THR C1008       3.525 -35.071   4.608  1.00 32.91 LIG 0.21  HD
ENDBRANCH 59 61
ENDBRANCH 56 59
ENDBRANCH 54 56
ENDBRANCH 48 52
ENDBRANCH 45 48
ENDBRANCH 36 44
ENDBRANCH 34 36
ENDBRANCH 1 32
TORSDOF 23
ENDMDL
MODEL 49
USER: ADFR SOLUTION from run 28
USER: SCORE 16.564564 LL:  -3.784 LR: -15.392 RR:   0.000 FEB:  -8.531
USER: RMSD 5.035923
USER: SEED 27
USER: STATUS no improvement in best in 7 clusters for 5 generations
USER: GENES 25
USER: genes 0 Translation |==|  0.47276 0.57135 0.40795
USER: genes 1 Rotation |==|  0.64781 0.45788 0.52739 0.97500
USER: genes 2 Torsion [CB]-CA--N-[C] |==|  0.48342
USER: genes 3 Torsion [N]-C--CA-[N] |==|  0.28723
USER: genes 4 Torsion [C]-CA--N-[C] |==|  0.75477
USER: genes 5 Torsion [N]-C--CA-[N] |==|  0.13682
USER: genes 6 Torsion [C]-CA--CB-[CG] |==|  0.59857
USER: genes 7 Torsion [CA]-CB--CG-[CD] |==|  0.70728
USER: genes 8 Torsion [CB]-CG--CD-[NE] |==|  0.31138
USER: genes 9 Torsion [CG]-CD--NE-[HE] |==|  0.23174
USER: genes 10 Torsion [N]-CA--CB-[CG] |==|  0.89219
USER: genes 11 Torsion [CA]-CB--CG-[CD2] |==|  0.84671
USER: genes 12 Torsion [N]-CA--C-[N] |==|  0.30047
USER: genes 13 Torsion [C]-N--CA-[C] |==|  0.74418
USER: genes 14 Torsion [N]-CA--CB-[CG] |==|  0.83185
USER: genes 15 Torsion [CA]-CB--CG-[CD] |==|  0.29314
USER: genes 16 Torsion [CB]-CG--CD-[OE1] |==|  0.60359
USER: genes 17 Torsion [N]-CA--C-[N] |==|  0.53181
USER: genes 18 Torsion [C]-N--CA-[CB] |==|  0.48530
USER: genes 19 Torsion [N]-CA--CB-[CG1] |==|  0.72620
USER: genes 20 Torsion [N]-CA--C-[N] |==|  0.37232
USER: genes 21 Torsion [C]-N--CA-[C] |==|  0.72587
USER: genes 22 Torsion [N]-CA--C-[O] |==|  0.02219
USER: genes 23 Torsion [N]-CA--CB-[OG1] |==|  0.09345
USER: genes 24 Torsion [CA]-CB--OG1-[HG1] |==|  0.18129
ROOT
ATOM      1  CA  PHE C1005       0.596 -33.995   4.308  1.00 26.32 LIG 0.18  C 
ENDROOT
BRANCH 1 2
ATOM      2  N   PHE C1005       0.065 -33.796   2.967  1.00 26.54 LIG-0.35  N 
ATOM      3  C   ARG C1004       0.822 -33.985   1.884  1.00 27.34 LIG 0.24  C 
ATOM      4 O    ARG C1004       1.949 -34.477   1.928  1.00 26.08 LIG-0.27  OA
ATOM      5 H    PHE C1005      -0.759 -33.552   2.942  1.00 26.54 LIG 0.16  HD
BRANCH 3 6
ATOM      6  CA  ARG C1004       0.210 -33.564   0.538  1.00 28.49 LIG 0.18  C 
BRANCH 6 7
ATOM      7  N   ARG C1004       0.743 -32.303   0.030  1.00 30.45 LIG-0.35  N 
ATOM      8  C   GLY C1003       0.179 -31.148   0.383  1.00 32.03 LIG 0.25  C 
ATOM      9 O    GLY C1003      -0.760 -31.090   1.177  1.00 33.62 LIG-0.27  OA
ATOM     10 H    ARG C1004       1.423 -32.377  -0.491  1.00 30.45 LIG 0.16  HD
BRANCH 8 11
ATOM     11  CA  GLY C1003       0.752 -29.886  -0.228  1.00 33.10 LIG 0.47  C 
ATOM     12  N   GLY C1003       0.900 -29.990  -1.704  1.00 33.92 LIG 0.61  N 
ENDBRANCH 8 11
ENDBRANCH 6 7
BRANCH 6 13
ATOM     13  CB  ARG C1004       0.350 -34.685  -0.496  1.00 28.45 LIG 0.04  C 
BRANCH 13 14
ATOM     14  CG  ARG C1004       0.596 -34.201  -1.906  1.00 27.92 LIG 0.02  C 
BRANCH 14 15
ATOM     15  CD  ARG C1004      -0.655 -34.342  -2.772  1.00 26.34 LIG 0.14  C 
BRANCH 15 16
ATOM     16  NE  ARG C1004      -1.189 -33.037  -3.131  1.00 24.25 LIG-0.23  N 
ATOM     17 HE   ARG C1004      -0.840 -32.637  -3.808  1.00 24.25 LIG 0.18  HD
ATOM     18  CZ  ARG C1004      -2.176 -32.417  -2.492  1.00 25.16 LIG 0.67  C 
ATOM     19  NH2 ARG C1004      -2.584 -31.237  -2.921  1.00 24.86 LIG-0.23  N 
ATOM     20  NH1 ARG C1004      -2.737 -32.958  -1.421  1.00 22.12 LIG-0.23  N 
ATOM     21 1HH2 ARG C1004      -2.213 -30.878  -3.608  1.00 24.86 LIG 0.17  HD
ATOM     22 2HH2 ARG C1004      -3.221 -30.829  -2.513  1.00 24.86 LIG 0.17  HD
ATOM     23 1HH1 ARG C1004      -2.464 -33.720  -1.131  1.00 22.12 LIG 0.17  HD
ATOM     24 2HH1 ARG C1004      -3.374 -32.548  -1.016  1.00 22.12 LIG 0.17  HD
ENDBRANCH 15 16
ENDBRANCH 14 15
ENDBRANCH 13 14
ENDBRANCH 6 13
ENDBRANCH 3 6
ENDBRANCH 1 2
BRANCH 1 25
ATOM     25  CB  PHE C1005      -0.434 -33.568   5.347  1.00 25.48 LIG 0.07  C 
BRANCH 25 26
ATOM     26  CG  PHE C1005      -1.189 -32.338   4.953  1.00 23.55 LIG-0.06  A 
ATOM     27  CD1 PHE C1005      -2.593 -32.352   4.888  1.00 22.30 LIG 0.01  A 
ATOM     28  CE1 PHE C1005      -3.302 -31.203   4.505  1.00 23.64 LIG 0.00  A 
ATOM     29  CZ  PHE C1005      -2.579 -30.033   4.157  1.00 21.73 LIG 0.00  A 
ATOM     30  CE2 PHE C1005      -1.191 -30.017   4.228  1.00 19.92 LIG 0.00  A 
ATOM     31  CD2 PHE C1005      -0.490 -31.170   4.628  1.00 21.20 LIG 0.01  A 
ENDBRANCH 25 26
ENDBRANCH 1 25
BRANCH 1 32
ATOM     32  C   PHE C1005       0.985 -35.431   4.555  1.00 27.26 LIG 0.24  C 
ATOM     33 O    PHE C1005       0.116 -36.286   4.681  1.00 28.13 LIG-0.27  OA
ATOM     34  N   GLN C1006       2.292 -35.664   4.611  1.00 28.15 LIG-0.35  N 
ATOM     35 H    GLN C1006       2.881 -35.072   4.406  1.00 28.15 LIG 0.16  HD
BRANCH 34 36
ATOM     36  CA  GLN C1006       2.872 -36.941   5.025  1.00 29.76 LIG 0.18  C 
BRANCH 36 37
ATOM     37  CB  GLN C1006       4.161 -37.225   4.258  1.00 29.94 LIG 0.04  C 
BRANCH 37 38
ATOM     38  CG  GLN C1006       4.001 -37.321   2.753  1.00 33.02 LIG 0.10  C 
BRANCH 38 39
ATOM     39  CD  GLN C1006       4.535 -36.098   2.029  1.00 35.46 LIG 0.21  C 
ATOM     40 OE1  GLN C1006       3.961 -35.654   1.035  1.00 38.48 LIG-0.27  OA
ATOM     41  NE2 GLN C1006       5.646 -35.552   2.522  1.00 37.01 LIG-0.37  N 
ATOM     42 22HE GLN C1006       5.992 -34.862   2.143  1.00 37.01 LIG 0.16  HD
ATOM     43 21HE GLN C1006       6.019 -35.892   3.219  1.00 37.01 LIG 0.16  HD
ENDBRANCH 38 39
ENDBRANCH 37 38
ENDBRANCH 36 37
BRANCH 36 44
ATOM     44  C   GLN C1006       3.144 -36.914   6.531  1.00 30.09 LIG 0.24  C 
ATOM     45  N   VAL C1007       3.890 -37.922   6.996  1.00 30.97 LIG-0.35  N 
ATOM     46 H    VAL C1007       4.141 -38.578   6.500  1.00 30.97 LIG 0.16  HD
ATOM     47 O    GLN C1006       2.669 -36.015   7.239  1.00 30.15 LIG-0.27  OA
BRANCH 45 48
ATOM     48  CA  VAL C1007       4.364 -38.034   8.384  1.00 32.05 LIG 0.18  C 
BRANCH 48 49
ATOM     49  CB  VAL C1007       5.093 -39.395   8.616  1.00 32.12 LIG 0.01  C 
ATOM     50  CG1 VAL C1007       4.183 -40.432   9.270  1.00 30.72 LIG 0.01  C 
ATOM     51  CG2 VAL C1007       6.377 -39.218   9.419  1.00 30.85 LIG 0.01  C 
ENDBRANCH 48 49
BRANCH 48 52
ATOM     52  C   VAL C1007       5.417 -36.894   8.488  1.00 33.20 LIG 0.24  C 
ATOM     53 O    VAL C1007       6.242 -36.780   7.588  1.00 34.91 LIG-0.27  OA
ATOM     54  N   THR C1008       5.438 -36.062   9.532  1.00 34.53 LIG-0.34  N 
ATOM     55 H    THR C1008       5.987 -35.400   9.554  1.00 34.53 LIG 0.16  HD
BRANCH 54 56
ATOM     56  CA  THR C1008       4.611 -36.106  10.734  1.00 33.96 LIG 0.19  C 
BRANCH 56 57
ATOM     57  C   THR C1008       3.464 -35.112  10.565  1.00 33.93 LIG 0.22  C 
ATOM     58 O    THR C1008       3.262 -34.540   9.490  1.00 34.05 LIG-0.29  OA
ENDBRANCH 56 57
BRANCH 56 59
ATOM     59  CB  THR C1008       5.427 -35.706  12.020  1.00 34.51 LIG 0.14  C 
ATOM     60  CG2 THR C1008       6.163 -36.898  12.636  1.00 33.41 LIG 0.04  C 
BRANCH 59 61
ATOM     61 OG1  THR C1008       6.401 -34.724  11.683  1.00 32.91 LIG-0.39  OA
ATOM     62 HG1  THR C1008       6.015 -34.018  11.442  1.00 32.91 LIG 0.21  HD
ENDBRANCH 59 61
ENDBRANCH 56 59
ENDBRANCH 54 56
ENDBRANCH 48 52
ENDBRANCH 45 48
ENDBRANCH 36 44
ENDBRANCH 34 36
ENDBRANCH 1 32
TORSDOF 23
ENDMDL
MODEL 50
USER: ADFR SOLUTION from run 175
USER: SCORE 18.167377 LL:  -4.433 LR: -15.380 RR:   0.000 FEB:  -8.519
USER: RMSD 5.901980
USER: SEED 174
USER: STATUS searching
USER: GENES 25
USER: genes 0 Translation |==|  0.46001 0.62006 0.29999
USER: genes 1 Rotation |==|  0.57374 0.26061 0.58317 0.92466
USER: genes 2 Torsion [CB]-CA--N-[C] |==|  0.79335
USER: genes 3 Torsion [N]-C--CA-[N] |==|  0.33396
USER: genes 4 Torsion [C]-CA--N-[C] |==|  0.53401
USER: genes 5 Torsion [N]-C--CA-[N] |==|  0.69939
USER: genes 6 Torsion [C]-CA--CB-[CG] |==|  0.81258
USER: genes 7 Torsion [CA]-CB--CG-[CD] |==|  0.32806
USER: genes 8 Torsion [CB]-CG--CD-[NE] |==|  0.99785
USER: genes 9 Torsion [CG]-CD--NE-[HE] |==|  0.16670
USER: genes 10 Torsion [N]-CA--CB-[CG] |==|  0.59600
USER: genes 11 Torsion [CA]-CB--CG-[CD2] |==|  0.19282
USER: genes 12 Torsion [N]-CA--C-[N] |==|  0.22010
USER: genes 13 Torsion [C]-N--CA-[C] |==|  0.69885
USER: genes 14 Torsion [N]-CA--CB-[CG] |==|  0.11553
USER: genes 15 Torsion [CA]-CB--CG-[CD] |==|  0.73373
USER: genes 16 Torsion [CB]-CG--CD-[OE1] |==|  0.17335
USER: genes 17 Torsion [N]-CA--C-[N] |==|  0.10798
USER: genes 18 Torsion [C]-N--CA-[CB] |==|  0.55190
USER: genes 19 Torsion [N]-CA--CB-[CG1] |==|  0.12788
USER: genes 20 Torsion [N]-CA--C-[N] |==|  0.39346
USER: genes 21 Torsion [C]-N--CA-[C] |==|  0.63603
USER: genes 22 Torsion [N]-CA--C-[O] |==|  0.29078
USER: genes 23 Torsion [N]-CA--CB-[OG1] |==|  0.46771
USER: genes 24 Torsion [CA]-CB--OG1-[HG1] |==|  0.91706
ROOT
ATOM      1  CA  PHE C1005       0.347 -33.118   1.312  1.00 26.32 LIG 0.18  C 
ENDROOT
BRANCH 1 2
ATOM      2  N   PHE C1005       1.050 -33.209   0.041  1.00 26.54 LIG-0.35  N 
ATOM      3  C   ARG C1004       0.753 -34.155  -0.853  1.00 27.34 LIG 0.24  C 
ATOM      4 O    ARG C1004      -0.214 -34.906  -0.740  1.00 26.08 LIG-0.27  OA
ATOM      5 H    PHE C1005       1.658 -32.611  -0.075  1.00 26.54 LIG 0.16  HD
BRANCH 3 6
ATOM      6  CA  ARG C1004       1.686 -34.265  -2.069  1.00 28.49 LIG 0.18  C 
BRANCH 6 7
ATOM      7  N   ARG C1004       2.328 -35.572  -2.188  1.00 30.45 LIG-0.35  N 
ATOM      8  C   GLY C1003       3.340 -35.744  -3.038  1.00 32.03 LIG 0.25  C 
ATOM      9 O    GLY C1003       3.804 -34.819  -3.704  1.00 33.62 LIG-0.27  OA
ATOM     10 H    ARG C1004       2.004 -36.186  -1.681  1.00 30.45 LIG 0.16  HD
BRANCH 8 11
ATOM     11  CA  GLY C1003       3.919 -37.139  -3.146  1.00 33.10 LIG 0.47  C 
ATOM     12  N   GLY C1003       5.266 -37.242  -2.525  1.00 33.92 LIG 0.61  N 
ENDBRANCH 8 11
ENDBRANCH 6 7
BRANCH 6 13
ATOM     13  CB  ARG C1004       0.946 -33.890  -3.356  1.00 28.45 LIG 0.04  C 
BRANCH 13 14
ATOM     14  CG  ARG C1004      -0.140 -34.862  -3.754  1.00 27.92 LIG 0.02  C 
BRANCH 14 15
ATOM     15  CD  ARG C1004      -1.513 -34.192  -3.768  1.00 26.34 LIG 0.14  C 
BRANCH 15 16
ATOM     16  NE  ARG C1004      -1.414 -32.793  -3.376  1.00 24.25 LIG-0.23  N 
ATOM     17 HE   ARG C1004      -0.921 -32.279  -3.858  1.00 24.25 LIG 0.18  HD
ATOM     18  CZ  ARG C1004      -2.029 -32.252  -2.330  1.00 25.16 LIG 0.67  C 
ATOM     19  NH2 ARG C1004      -1.873 -30.965  -2.082  1.00 24.86 LIG-0.23  N 
ATOM     20  NH1 ARG C1004      -2.779 -32.991  -1.525  1.00 22.12 LIG-0.23  N 
ATOM     21 1HH2 ARG C1004      -1.377 -30.486  -2.595  1.00 24.86 LIG 0.17  HD
ATOM     22 2HH2 ARG C1004      -2.267 -30.607  -1.407  1.00 24.86 LIG 0.17  HD
ATOM     23 1HH1 ARG C1004      -2.872 -33.833  -1.676  1.00 22.12 LIG 0.17  HD
ATOM     24 2HH1 ARG C1004      -3.172 -32.629  -0.851  1.00 22.12 LIG 0.17  HD
ENDBRANCH 15 16
ENDBRANCH 14 15
ENDBRANCH 13 14
ENDBRANCH 6 13
ENDBRANCH 3 6
ENDBRANCH 1 2
BRANCH 1 25
ATOM     25  CB  PHE C1005      -1.052 -32.553   1.097  1.00 25.48 LIG 0.07  C 
BRANCH 25 26
ATOM     26  CG  PHE C1005      -1.516 -31.691   2.228  1.00 23.55 LIG-0.06  A 
ATOM     27  CD1 PHE C1005      -2.564 -32.112   3.063  1.00 22.30 LIG 0.01  A 
ATOM     28  CE1 PHE C1005      -3.010 -31.298   4.117  1.00 23.64 LIG 0.00  A 
ATOM     29  CZ  PHE C1005      -2.405 -30.029   4.308  1.00 21.73 LIG 0.00  A 
ATOM     30  CE2 PHE C1005      -1.364 -29.616   3.487  1.00 19.92 LIG 0.00  A 
ATOM     31  CD2 PHE C1005      -0.914 -30.446   2.442  1.00 21.20 LIG 0.01  A 
ENDBRANCH 25 26
ENDBRANCH 1 25
BRANCH 1 32
ATOM     32  C   PHE C1005       0.242 -34.457   1.998  1.00 27.26 LIG 0.24  C 
ATOM     33 O    PHE C1005      -0.802 -35.097   1.932  1.00 28.13 LIG-0.27  OA
ATOM     34  N   GLN C1006       1.336 -34.856   2.638  1.00 28.15 LIG-0.35  N 
ATOM     35 H    GLN C1006       2.090 -34.446   2.573  1.00 28.15 LIG 0.16  HD
BRANCH 34 36
ATOM     36  CA  GLN C1006       1.383 -36.024   3.515  1.00 29.76 LIG 0.18  C 
BRANCH 36 37
ATOM     37  CB  GLN C1006       2.554 -36.932   3.148  1.00 29.94 LIG 0.04  C 
BRANCH 37 38
ATOM     38  CG  GLN C1006       3.845 -36.208   2.818  1.00 33.02 LIG 0.10  C 
BRANCH 38 39
ATOM     39  CD  GLN C1006       4.033 -35.994   1.327  1.00 35.46 LIG 0.21  C 
ATOM     40 OE1  GLN C1006       3.238 -35.308   0.684  1.00 38.48 LIG-0.27  OA
ATOM     41  NE2 GLN C1006       5.084 -36.593   0.768  1.00 37.01 LIG-0.37  N 
ATOM     42 22HE GLN C1006       5.229 -36.508  -0.075  1.00 37.01 LIG 0.16  HD
ATOM     43 21HE GLN C1006       5.617 -37.064   1.251  1.00 37.01 LIG 0.16  HD
ENDBRANCH 38 39
ENDBRANCH 37 38
ENDBRANCH 36 37
BRANCH 36 44
ATOM     44  C   GLN C1006       1.504 -35.565   4.970  1.00 30.09 LIG 0.24  C 
ATOM     45  N   VAL C1007       0.787 -34.482   5.290  1.00 30.97 LIG-0.35  N 
ATOM     46 H    VAL C1007       0.344 -34.032   4.706  1.00 30.97 LIG 0.16  HD
ATOM     47 O    GLN C1006       2.244 -36.168   5.760  1.00 30.15 LIG-0.27  OA
BRANCH 45 48
ATOM     48  CA  VAL C1007       0.668 -33.936   6.652  1.00 32.05 LIG 0.18  C 
BRANCH 48 49
ATOM     49  CB  VAL C1007      -0.572 -32.995   6.768  1.00 32.12 LIG 0.01  C 
ATOM     50  CG1 VAL C1007      -1.820 -33.605   6.135  1.00 30.72 LIG 0.01  C 
ATOM     51  CG2 VAL C1007      -0.290 -31.614   6.186  1.00 30.85 LIG 0.01  C 
ENDBRANCH 48 49
BRANCH 48 52
ATOM     52  C   VAL C1007       0.401 -35.201   7.515  1.00 33.20 LIG 0.24  C 
ATOM     53 O    VAL C1007      -0.330 -36.074   7.059  1.00 34.91 LIG-0.27  OA
ATOM     54  N   THR C1008       0.940 -35.339   8.729  1.00 34.53 LIG-0.34  N 
ATOM     55 H    THR C1008       0.834 -36.067   9.175  1.00 34.53 LIG 0.16  HD
BRANCH 54 56
ATOM     56  CA  THR C1008       1.744 -34.373   9.471  1.00 33.96 LIG 0.19  C 
BRANCH 56 57
ATOM     57  C   THR C1008       2.995 -35.082   9.986  1.00 33.93 LIG 0.22  C 
ATOM     58 O    THR C1008       4.097 -34.904   9.458  1.00 34.05 LIG-0.29  OA
ENDBRANCH 56 57
BRANCH 56 59
ATOM     59  CB  THR C1008       0.961 -33.790  10.707  1.00 34.51 LIG 0.14  C 
ATOM     60  CG2 THR C1008       0.311 -34.886  11.554  1.00 33.41 LIG 0.04  C 
BRANCH 59 61
ATOM     61 OG1  THR C1008       1.858 -33.069  11.546  1.00 32.91 LIG-0.39  OA
ATOM     62 HG1  THR C1008       2.627 -33.403  11.486  1.00 32.91 LIG 0.21  HD
ENDBRANCH 59 61
ENDBRANCH 56 59
ENDBRANCH 54 56
ENDBRANCH 48 52
ENDBRANCH 45 48
ENDBRANCH 36 44
ENDBRANCH 34 36
ENDBRANCH 1 32
TORSDOF 23
ENDMDL
MODEL 51
USER: ADFR SOLUTION from run 55
USER: SCORE 16.911113 LL:  -3.877 LR: -15.349 RR:   0.000 FEB:  -8.488
USER: RMSD 7.608951
USER: SEED 54
USER: STATUS no improvement in best in 6 clusters for 5 generations
USER: GENES 25
USER: genes 0 Translation |==|  0.36976 0.73459 0.37791
USER: genes 1 Rotation |==|  0.50725 0.49968 0.65506 0.97529
USER: genes 2 Torsion [CB]-CA--N-[C] |==|  0.52450
USER: genes 3 Torsion [N]-C--CA-[N] |==|  0.16522
USER: genes 4 Torsion [C]-CA--N-[C] |==|  0.19444
USER: genes 5 Torsion [N]-C--CA-[N] |==|  0.86626
USER: genes 6 Torsion [C]-CA--CB-[CG] |==|  0.49026
USER: genes 7 Torsion [CA]-CB--CG-[CD] |==|  0.42648
USER: genes 8 Torsion [CB]-CG--CD-[NE] |==|  0.85968
USER: genes 9 Torsion [CG]-CD--NE-[HE] |==|  0.99136
USER: genes 10 Torsion [N]-CA--CB-[CG] |==|  0.17589
USER: genes 11 Torsion [CA]-CB--CG-[CD2] |==|  0.73207
USER: genes 12 Torsion [N]-CA--C-[N] |==|  0.94012
USER: genes 13 Torsion [C]-N--CA-[C] |==|  0.63495
USER: genes 14 Torsion [N]-CA--CB-[CG] |==|  0.74886
USER: genes 15 Torsion [CA]-CB--CG-[CD] |==|  0.74826
USER: genes 16 Torsion [CB]-CG--CD-[OE1] |==|  0.55756
USER: genes 17 Torsion [N]-CA--C-[N] |==|  0.42892
USER: genes 18 Torsion [C]-N--CA-[CB] |==|  0.88752
USER: genes 19 Torsion [N]-CA--CB-[CG1] |==|  0.80580
USER: genes 20 Torsion [N]-CA--C-[N] |==|  0.33333
USER: genes 21 Torsion [C]-N--CA-[C] |==|  0.80542
USER: genes 22 Torsion [N]-CA--C-[O] |==|  0.27973
USER: genes 23 Torsion [N]-CA--CB-[OG1] |==|  0.13760
USER: genes 24 Torsion [CA]-CB--OG1-[HG1] |==|  0.46769
ROOT
ATOM      1  CA  PHE C1005      -1.413 -31.056   3.474  1.00 26.32 LIG 0.18  C 
ENDROOT
BRANCH 1 2
ATOM      2  N   PHE C1005      -1.748 -31.877   2.320  1.00 26.54 LIG-0.35  N 
ATOM      3  C   ARG C1004      -0.804 -32.488   1.602  1.00 27.34 LIG 0.24  C 
ATOM      4 O    ARG C1004       0.379 -32.528   1.940  1.00 26.08 LIG-0.27  OA
ATOM      5 H    PHE C1005      -2.591 -31.929   2.152  1.00 26.54 LIG 0.16  HD
BRANCH 3 6
ATOM      6  CA  ARG C1004      -1.263 -33.168   0.303  1.00 28.49 LIG 0.18  C 
BRANCH 6 7
ATOM      7  N   ARG C1004      -1.885 -32.246  -0.644  1.00 30.45 LIG-0.35  N 
ATOM      8  C   GLY C1003      -1.145 -31.331  -1.270  1.00 32.03 LIG 0.25  C 
ATOM      9 O    GLY C1003       0.075 -31.260  -1.123  1.00 33.62 LIG-0.27  OA
ATOM     10 H    ARG C1004      -2.732 -32.348  -0.751  1.00 30.45 LIG 0.16  HD
BRANCH 8 11
ATOM     11  CA  GLY C1003      -1.869 -30.375  -2.194  1.00 33.10 LIG 0.47  C 
ATOM     12  N   GLY C1003      -2.794 -31.078  -3.122  1.00 33.92 LIG 0.61  N 
ENDBRANCH 8 11
ENDBRANCH 6 7
BRANCH 6 13
ATOM     13  CB  ARG C1004      -0.108 -33.937  -0.345  1.00 28.45 LIG 0.04  C 
BRANCH 13 14
ATOM     14  CG  ARG C1004      -0.494 -34.707  -1.586  1.00 27.92 LIG 0.02  C 
BRANCH 14 15
ATOM     15  CD  ARG C1004       0.701 -34.895  -2.521  1.00 26.34 LIG 0.14  C 
BRANCH 15 16
ATOM     16  NE  ARG C1004       1.372 -33.627  -2.769  1.00 24.25 LIG-0.23  N 
ATOM     17 HE   ARG C1004       1.029 -32.920  -2.420  1.00 24.25 LIG 0.18  HD
ATOM     18  CZ  ARG C1004       2.476 -33.481  -3.495  1.00 25.16 LIG 0.67  C 
ATOM     19  NH2 ARG C1004       3.002 -32.279  -3.638  1.00 24.86 LIG-0.23  N 
ATOM     20  NH1 ARG C1004       3.041 -34.521  -4.089  1.00 22.12 LIG-0.23  N 
ATOM     21 1HH2 ARG C1004       2.630 -31.600  -3.263  1.00 24.86 LIG 0.17  HD
ATOM     22 2HH2 ARG C1004       3.716 -32.175  -4.106  1.00 24.86 LIG 0.17  HD
ATOM     23 1HH1 ARG C1004       2.693 -35.304  -4.009  1.00 22.12 LIG 0.17  HD
ATOM     24 2HH1 ARG C1004       3.755 -34.415  -4.556  1.00 22.12 LIG 0.17  HD
ENDBRANCH 15 16
ENDBRANCH 14 15
ENDBRANCH 13 14
ENDBRANCH 6 13
ENDBRANCH 3 6
ENDBRANCH 1 2
BRANCH 1 25
ATOM     25  CB  PHE C1005      -2.680 -30.667   4.226  1.00 25.48 LIG 0.07  C 
BRANCH 25 26
ATOM     26  CG  PHE C1005      -3.408 -31.843   4.797  1.00 23.55 LIG-0.06  A 
ATOM     27  CD1 PHE C1005      -3.014 -32.399   6.025  1.00 22.30 LIG 0.01  A 
ATOM     28  CE1 PHE C1005      -3.687 -33.512   6.555  1.00 23.64 LIG 0.00  A 
ATOM     29  CZ  PHE C1005      -4.755 -34.085   5.817  1.00 21.73 LIG 0.00  A 
ATOM     30  CE2 PHE C1005      -5.149 -33.530   4.606  1.00 19.92 LIG 0.00  A 
ATOM     31  CD2 PHE C1005      -4.477 -32.405   4.090  1.00 21.20 LIG 0.01  A 
ENDBRANCH 25 26
ENDBRANCH 1 25
BRANCH 1 32
ATOM     32  C   PHE C1005      -0.473 -31.765   4.418  1.00 27.26 LIG 0.24  C 
ATOM     33 O    PHE C1005       0.205 -31.115   5.207  1.00 28.13 LIG-0.27  OA
ATOM     34  N   GLN C1006      -0.461 -33.090   4.321  1.00 28.15 LIG-0.35  N 
ATOM     35 H    GLN C1006      -1.027 -33.528   3.844  1.00 28.15 LIG 0.16  HD
BRANCH 34 36
ATOM     36  CA  GLN C1006       0.506 -33.945   5.006  1.00 29.76 LIG 0.18  C 
BRANCH 36 37
ATOM     37  CB  GLN C1006      -0.151 -34.681   6.171  1.00 29.94 LIG 0.04  C 
BRANCH 37 38
ATOM     38  CG  GLN C1006      -0.093 -33.954   7.501  1.00 33.02 LIG 0.10  C 
BRANCH 38 39
ATOM     39  CD  GLN C1006       1.140 -34.313   8.311  1.00 35.46 LIG 0.21  C 
ATOM     40 OE1  GLN C1006       1.169 -34.131   9.528  1.00 38.48 LIG-0.27  OA
ATOM     41  NE2 GLN C1006       2.170 -34.818   7.634  1.00 37.01 LIG-0.37  N 
ATOM     42 22HE GLN C1006       2.894 -35.031   8.047  1.00 37.01 LIG 0.16  HD
ATOM     43 21HE GLN C1006       2.112 -34.931   6.783  1.00 37.01 LIG 0.16  HD
ENDBRANCH 38 39
ENDBRANCH 37 38
ENDBRANCH 36 37
BRANCH 36 44
ATOM     44  C   GLN C1006       1.097 -34.947   4.011  1.00 30.09 LIG 0.24  C 
ATOM     45  N   VAL C1007       2.315 -35.407   4.317  1.00 30.97 LIG-0.35  N 
ATOM     46 H    VAL C1007       2.766 -35.111   4.987  1.00 30.97 LIG 0.16  HD
ATOM     47 O    GLN C1006       0.469 -35.264   2.992  1.00 30.15 LIG-0.27  OA
BRANCH 45 48
ATOM     48  CA  VAL C1007       3.021 -36.455   3.564  1.00 32.05 LIG 0.18  C 
BRANCH 48 49
ATOM     49  CB  VAL C1007       2.039 -37.592   3.136  1.00 32.12 LIG 0.01  C 
ATOM     50  CG1 VAL C1007       1.563 -38.421   4.326  1.00 30.72 LIG 0.01  C 
ATOM     51  CG2 VAL C1007       2.646 -38.487   2.061  1.00 30.85 LIG 0.01  C 
ENDBRANCH 48 49
BRANCH 48 52
ATOM     52  C   VAL C1007       3.490 -35.710   2.283  1.00 33.20 LIG 0.24  C 
ATOM     53 O    VAL C1007       2.639 -35.217   1.551  1.00 34.91 LIG-0.27  OA
ATOM     54  N   THR C1008       4.786 -35.613   1.972  1.00 34.53 LIG-0.34  N 
ATOM     55 H    THR C1008       5.040 -35.151   1.292  1.00 34.53 LIG 0.16  HD
BRANCH 54 56
ATOM     56  CA  THR C1008       5.923 -36.217   2.659  1.00 33.96 LIG 0.19  C 
BRANCH 56 57
ATOM     57  C   THR C1008       6.098 -35.518   4.006  1.00 33.93 LIG 0.22  C 
ATOM     58 O    THR C1008       5.692 -36.029   5.053  1.00 34.05 LIG-0.29  OA
ENDBRANCH 56 57
BRANCH 56 59
ATOM     59  CB  THR C1008       7.256 -36.052   1.838  1.00 34.51 LIG 0.14  C 
ATOM     60  CG2 THR C1008       7.271 -36.911   0.572  1.00 33.41 LIG 0.04  C 
BRANCH 59 61
ATOM     61 OG1  THR C1008       7.409 -34.693   1.440  1.00 32.91 LIG-0.39  OA
ATOM     62 HG1  THR C1008       8.187 -34.573   1.145  1.00 32.91 LIG 0.21  HD
ENDBRANCH 59 61
ENDBRANCH 56 59
ENDBRANCH 54 56
ENDBRANCH 48 52
ENDBRANCH 45 48
ENDBRANCH 36 44
ENDBRANCH 34 36
ENDBRANCH 1 32
TORSDOF 23
ENDMDL
