MODEL 1
USER: ADFR SOLUTION from run 124
USER: SCORE 19.414416 LL:  -5.598 LR: -15.264 RR:   0.000 FEB:  -8.105
USER: RMSD 6.650205
USER: SEED 123
USER: STATUS no improvement in best in 3 clusters for 5 generations
USER: GENES 26
USER: genes 0 Translation |==|  0.49233 0.52804 0.38256
USER: genes 1 Rotation |==|  0.43786 0.97023 0.65284 0.54078
USER: genes 2 Torsion [N]-C--CA-[N] |==|  0.36667
USER: genes 3 Torsion [C]-CA--N-[C] |==|  0.83184
USER: genes 4 Torsion [N]-C--CA-[N] |==|  0.36541
USER: genes 5 Torsion [C]-CA--N-[C] |==|  0.67096
USER: genes 6 Torsion [N]-C--CA-[N] |==|  0.50192
USER: genes 7 Torsion [C]-CA--N-[H2] |==|  0.63114
USER: genes 8 Torsion [C]-CA--CB-[CG] |==|  0.83411
USER: genes 9 Torsion [CA]-CB--CG-[ND1] |==|  0.25560
USER: genes 10 Torsion [C]-CA--CB-[CG] |==|  0.46966
USER: genes 11 Torsion [CA]-CB--CG-[CD2] |==|  0.98851
USER: genes 12 Torsion [C]-CA--CB-[CG] |==|  0.80017
USER: genes 13 Torsion [CA]-CB--CG-[CD2] |==|  0.73878
USER: genes 14 Torsion [C]-N--CA-[C] |==|  0.65891
USER: genes 15 Torsion [N]-CA--C-[N] |==|  0.83021
USER: genes 16 Torsion [C]-N--CA-[CB] |==|  0.19196
USER: genes 17 Torsion [N]-CA--CB-[CG] |==|  0.53997
USER: genes 18 Torsion [CA]-CB--CG-[ND1] |==|  0.83473
USER: genes 19 Torsion [N]-CA--C-[N] |==|  0.90108
USER: genes 20 Torsion [C]-N--CA-[C] |==|  0.63283
USER: genes 21 Torsion [N]-CA--C-[O] |==|  0.13239
USER: genes 22 Torsion [N]-CA--CB-[CG] |==|  0.74585
USER: genes 23 Torsion [CA]-CB--CG-[ND1] |==|  0.68947
USER: genes 24 Torsion [N]-CA--CB-[CG] |==|  0.06420
USER: genes 25 Torsion [CA]-CB--CG-[CD2] |==|  0.68976
ROOT
ATOM      1  C   HIS X   1       2.475   0.691  17.456  1.00 40.87 LIG 0.24  C 
ATOM      2 O    HIS X   1       3.666   0.975  17.615  1.00 40.80 LIG-0.27  OA
ATOM      3  N   HIS X   2       1.993  -0.536  17.440  1.00 30.16 LIG-0.35  N 
ATOM      4 H    HIS X   2       1.162  -0.716  17.310  1.00 30.16 LIG 0.16  HD
ENDROOT
BRANCH 1 5
ATOM      5  CA  HIS X   1       1.406   1.746  17.265  1.00 48.06 LIG 0.18  C 
BRANCH 5 6
ATOM      6  N   HIS X   1       1.563   2.791  18.281  1.00 54.11 LIG-0.35  N 
ATOM      7 H    HIS X   1       1.712   3.574  17.957  1.00 54.11 LIG 0.16  HD
ATOM      8  C   HIS X   0       1.481   2.543  19.572  1.00 58.54 LIG 0.24  C 
ATOM      9 O    HIS X   0       1.500   1.410  20.057  1.00 63.37 LIG-0.27  OA
BRANCH 8 10
ATOM     10  CA  HIS X   0       1.359   3.789  20.434  1.00 62.53 LIG 0.18  C 
BRANCH 10 11
ATOM     11  N   HIS X   0       0.273   3.684  21.416  1.00 60.73 LIG-0.35  N 
ATOM     12  C   HIS X  -1      -0.749   4.525  21.395  1.00 60.09 LIG 0.25  C 
ATOM     13 O    HIS X  -1      -1.120   5.120  20.380  1.00 62.79 LIG-0.27  OA
ATOM     14 H    HIS X   0       0.364   3.046  21.985  1.00 60.73 LIG 0.16  HD
BRANCH 12 15
ATOM     15  CA  HIS X  -1      -1.476   4.683  22.725  1.00 59.53 LIG 0.28  C 
BRANCH 15 16
ATOM     16  N   HIS X  -1      -2.620   5.644  22.570  1.00 57.14 LIG-0.07  N 
ATOM     17 H3   HIS X  -1      -2.543   6.074  21.795  1.00 57.14 LIG 0.28  HD
ATOM     18 H2   HIS X  -1      -2.606   6.232  23.238  1.00 57.14 LIG 0.28  HD
ATOM     19 H1   HIS X  -1      -3.389   5.195  22.585  1.00 57.14 LIG 0.28  HD
ENDBRANCH 15 16
BRANCH 15 20
ATOM     20  CB  HIS X  -1      -1.972   3.335  23.247  1.00 57.27 LIG 0.10  C 
BRANCH 20 21
ATOM     21  CG  HIS X  -1      -2.922   2.642  22.325  1.00 54.13 LIG 0.06  A 
ATOM     22 ND1  HIS X  -1      -2.506   1.736  21.372  1.00 52.72 LIG-0.24  NA
ATOM     23  CE1 HIS X  -1      -3.555   1.301  20.695  1.00 54.35 LIG 0.23  A 
ATOM     24 NE2  HIS X  -1      -4.637   1.893  21.172  1.00 53.65 LIG-0.25  NA
ATOM     25  CD2 HIS X  -1      -4.267   2.736  22.195  1.00 55.23 LIG 0.14  A 
ENDBRANCH 20 21
ENDBRANCH 15 20
ENDBRANCH 12 15
ENDBRANCH 10 11
BRANCH 10 26
ATOM     26  CB  HIS X   0       2.712   4.097  21.111  1.00 64.99 LIG 0.10  C 
BRANCH 26 27
ATOM     27  CG  HIS X   0       2.775   5.443  21.774  1.00 69.41 LIG 0.06  A 
ATOM     28 ND1  HIS X   0       3.878   5.873  22.485  1.00 72.01 LIG-0.24  NA
ATOM     29  CE1 HIS X   0       3.655   7.092  22.947  1.00 72.69 LIG 0.23  A 
ATOM     30 NE2  HIS X   0       2.450   7.470  22.559  1.00 72.94 LIG-0.25  NA
ATOM     31  CD2 HIS X   0       1.880   6.459  21.820  1.00 71.12 LIG 0.14  A 
ENDBRANCH 26 27
ENDBRANCH 10 26
ENDBRANCH 8 10
ENDBRANCH 5 6
BRANCH 5 32
ATOM     32  CB  HIS X   1       1.505   2.350  15.866  1.00 48.25 LIG 0.10  C 
BRANCH 32 33
ATOM     33  CG  HIS X   1       2.692   3.243  15.679  1.00 50.36 LIG 0.06  A 
ATOM     34  CD2 HIS X   1       2.823   4.586  15.805  1.00 51.47 LIG 0.14  A 
ATOM     35 NE2  HIS X   1       4.134   4.893  15.528  1.00 50.72 LIG-0.25  NA
ATOM     36  CE1 HIS X   1       4.783   3.777  15.243  1.00 48.50 LIG 0.23  A 
ATOM     37 ND1  HIS X   1       3.938   2.766  15.325  1.00 47.89 LIG-0.24  NA
ENDBRANCH 32 33
ENDBRANCH 5 32
ENDBRANCH 1 5
BRANCH 3 38
ATOM     38  CA  HIS X   2       2.838  -1.734  17.647  1.00 26.25 LIG 0.18  C 
BRANCH 38 39
ATOM     39  C   HIS X   2       2.760  -2.721  16.486  1.00 23.72 LIG 0.24  C 
ATOM     40  N   HIS X   3       1.549  -3.207  16.272  1.00 22.33 LIG-0.35  N 
ATOM     41 H    HIS X   3       0.862  -3.005  16.748  1.00 22.33 LIG 0.16  HD
ATOM     42 O    HIS X   2       3.755  -3.043  15.820  1.00 19.88 LIG-0.27  OA
BRANCH 40 43
ATOM     43  CA  HIS X   3       1.269  -4.152  15.178  1.00 22.38 LIG 0.18  C 
BRANCH 43 44
ATOM     44  CB  HIS X   3       1.909  -5.559  15.397  1.00 22.51 LIG 0.10  C 
BRANCH 44 45
ATOM     45  CG  HIS X   3       1.947  -6.446  14.185  1.00 18.10 LIG 0.06  A 
ATOM     46  CD2 HIS X   3       2.975  -7.079  13.566  1.00 18.75 LIG 0.14  A 
ATOM     47 NE2  HIS X   3       2.439  -7.801  12.524  1.00 20.06 LIG-0.25  NA
ATOM     48  CE1 HIS X   3       1.130  -7.629  12.515  1.00 21.69 LIG 0.23  A 
ATOM     49 ND1  HIS X   3       0.809  -6.828  13.517  1.00 17.48 LIG-0.24  NA
ENDBRANCH 44 45
ENDBRANCH 43 44
BRANCH 43 50
ATOM     50  C   HIS X   3      -0.229  -4.228  14.882  1.00 21.59 LIG 0.24  C 
ATOM     51 O    HIS X   3      -0.662  -4.324  13.740  1.00 25.47 LIG-0.27  OA
ATOM     52  N   HIS X   4      -1.012  -4.122  15.935  1.00 25.63 LIG-0.35  N 
ATOM     53 H    HIS X   4      -0.729  -4.023  16.742  1.00 25.63 LIG 0.16  HD
BRANCH 52 54
ATOM     54  CA  HIS X   4      -2.471  -4.165  15.798  1.00 23.96 LIG 0.17  C 
BRANCH 54 55
ATOM     55  C   HIS X   4      -3.065  -2.999  16.595  1.00 31.35 LIG 0.22  C 
ATOM     56 O    HIS X   4      -2.615  -1.857  16.490  1.00 37.06 LIG-0.29  OA
ENDBRANCH 54 55
BRANCH 54 57
ATOM     57  CB  HIS X   4      -3.048  -5.508  16.261  1.00 23.83 LIG 0.09  C 
BRANCH 57 58
ATOM     58  CG  HIS X   4      -3.177  -6.530  15.162  1.00 22.57 LIG 0.06  A 
ATOM     59 ND1  HIS X   4      -4.396  -6.971  14.680  1.00 22.63 LIG-0.24  NA
ATOM     60  CE1 HIS X   4      -4.192  -7.858  13.720  1.00 19.94 LIG 0.23  A 
ATOM     61 NE2  HIS X   4      -2.890  -8.021  13.573  1.00 20.25 LIG-0.25  NA
ATOM     62  CD2 HIS X   4      -2.235  -7.192  14.453  1.00 21.52 LIG 0.14  A 
ENDBRANCH 57 58
ENDBRANCH 54 57
ENDBRANCH 52 54
ENDBRANCH 43 50
ENDBRANCH 40 43
ENDBRANCH 38 39
BRANCH 38 63
ATOM     63  CB  HIS X   2       2.462  -2.450  18.950  1.00 28.74 LIG 0.10  C 
BRANCH 63 64
ATOM     64  CG  HIS X   2       1.072  -2.164  19.413  1.00 28.63 LIG 0.06  A 
ATOM     65 ND1  HIS X   2      -0.035  -2.627  18.743  1.00 31.27 LIG-0.24  NA
ATOM     66  CE1 HIS X   2      -1.126  -2.243  19.379  1.00 28.11 LIG 0.23  A 
ATOM     67 NE2  HIS X   2      -0.768  -1.537  20.434  1.00 29.87 LIG-0.25  NA
ATOM     68  CD2 HIS X   2       0.606  -1.479  20.484  1.00 31.84 LIG 0.14  A 
ENDBRANCH 63 64
ENDBRANCH 38 63
ENDBRANCH 3 38
TORSDOF 24
ENDMDL
MODEL 2
USER: ADFR SOLUTION from run 43
USER: SCORE 19.418115 LL:  -6.133 LR: -15.121 RR:   0.000 FEB:  -7.962
USER: RMSD 10.482970
USER: SEED 42
USER: STATUS searching
USER: GENES 26
USER: genes 0 Translation |==|  0.55151 0.55386 0.38891
USER: genes 1 Rotation |==|  0.48453 0.22632 0.80812 0.78271
USER: genes 2 Torsion [N]-C--CA-[N] |==|  0.98154
USER: genes 3 Torsion [C]-CA--N-[C] |==|  0.77222
USER: genes 4 Torsion [N]-C--CA-[N] |==|  0.35432
USER: genes 5 Torsion [C]-CA--N-[C] |==|  0.63745
USER: genes 6 Torsion [N]-C--CA-[N] |==|  0.49817
USER: genes 7 Torsion [C]-CA--N-[H2] |==|  0.56599
USER: genes 8 Torsion [C]-CA--CB-[CG] |==|  0.79253
USER: genes 9 Torsion [CA]-CB--CG-[ND1] |==|  0.78782
USER: genes 10 Torsion [C]-CA--CB-[CG] |==|  0.47321
USER: genes 11 Torsion [CA]-CB--CG-[CD2] |==|  0.87067
USER: genes 12 Torsion [C]-CA--CB-[CG] |==|  0.81183
USER: genes 13 Torsion [CA]-CB--CG-[CD2] |==|  0.48528
USER: genes 14 Torsion [C]-N--CA-[C] |==|  0.44414
USER: genes 15 Torsion [N]-CA--C-[N] |==|  0.92943
USER: genes 16 Torsion [C]-N--CA-[CB] |==|  0.72785
USER: genes 17 Torsion [N]-CA--CB-[CG] |==|  0.17515
USER: genes 18 Torsion [CA]-CB--CG-[ND1] |==|  0.30452
USER: genes 19 Torsion [N]-CA--C-[N] |==|  0.21179
USER: genes 20 Torsion [C]-N--CA-[C] |==|  0.75569
USER: genes 21 Torsion [N]-CA--C-[O] |==|  0.06546
USER: genes 22 Torsion [N]-CA--CB-[CG] |==|  0.31421
USER: genes 23 Torsion [CA]-CB--CG-[ND1] |==|  0.70903
USER: genes 24 Torsion [N]-CA--CB-[CG] |==|  0.22088
USER: genes 25 Torsion [CA]-CB--CG-[CD2] |==|  0.24972
ROOT
ATOM      1  C   HIS X   1       3.673   1.311  17.570  1.00 40.87 LIG 0.24  C 
ATOM      2 O    HIS X   1       4.043   0.322  16.930  1.00 40.80 LIG-0.27  OA
ATOM      3  N   HIS X   2       4.473   2.099  18.260  1.00 30.16 LIG-0.35  N 
ATOM      4 H    HIS X   2       4.195   2.774  18.715  1.00 30.16 LIG 0.16  HD
ENDROOT
BRANCH 1 5
ATOM      5  CA  HIS X   1       2.224   1.745  17.629  1.00 48.06 LIG 0.18  C 
BRANCH 5 6
ATOM      6  N   HIS X   1       2.082   2.851  18.579  1.00 54.11 LIG-0.35  N 
ATOM      7 H    HIS X   1       2.070   3.628  18.211  1.00 54.11 LIG 0.16  HD
ATOM      8  C   HIS X   0       1.982   2.661  19.879  1.00 58.54 LIG 0.24  C 
ATOM      9 O    HIS X   0       2.227   1.591  20.438  1.00 63.37 LIG-0.27  OA
BRANCH 8 10
ATOM     10  CA  HIS X   0       1.533   3.892  20.650  1.00 62.53 LIG 0.18  C 
BRANCH 10 11
ATOM     11  N   HIS X   0       0.382   3.617  21.517  1.00 60.73 LIG-0.35  N 
ATOM     12  C   HIS X  -1      -0.686   4.399  21.502  1.00 60.09 LIG 0.25  C 
ATOM     13 O    HIS X  -1      -1.013   5.086  20.532  1.00 62.79 LIG-0.27  OA
ATOM     14 H    HIS X   0       0.467   2.923  22.018  1.00 60.73 LIG 0.16  HD
BRANCH 12 15
ATOM     15  CA  HIS X  -1      -1.525   4.364  22.774  1.00 59.53 LIG 0.28  C 
BRANCH 15 16
ATOM     16  N   HIS X  -1      -2.693   5.299  22.642  1.00 57.14 LIG-0.07  N 
ATOM     17 H3   HIS X  -1      -2.444   6.021  22.185  1.00 57.14 LIG 0.28  HD
ATOM     18 H2   HIS X  -1      -2.971   5.543  23.452  1.00 57.14 LIG 0.28  HD
ATOM     19 H1   HIS X  -1      -3.355   4.888  22.211  1.00 57.14 LIG 0.28  HD
ENDBRANCH 15 16
BRANCH 15 20
ATOM     20  CB  HIS X  -1      -2.004   2.945  23.082  1.00 57.27 LIG 0.10  C 
BRANCH 20 21
ATOM     21  CG  HIS X  -1      -3.113   2.476  22.196  1.00 54.13 LIG 0.06  A 
ATOM     22 ND1  HIS X  -1      -4.417   2.895  22.352  1.00 52.72 LIG-0.24  NA
ATOM     23  CE1 HIS X  -1      -5.177   2.306  21.445  1.00 54.35 LIG 0.23  A 
ATOM     24 NE2  HIS X  -1      -4.414   1.518  20.707  1.00 53.65 LIG-0.25  NA
ATOM     25  CD2 HIS X  -1      -3.116   1.608  21.156  1.00 55.23 LIG 0.14  A 
ENDBRANCH 20 21
ENDBRANCH 15 20
ENDBRANCH 12 15
ENDBRANCH 10 11
BRANCH 10 26
ATOM     26  CB  HIS X   0       2.719   4.479  21.445  1.00 64.99 LIG 0.10  C 
BRANCH 26 27
ATOM     27  CG  HIS X   0       2.444   5.822  22.058  1.00 69.41 LIG 0.06  A 
ATOM     28 ND1  HIS X   0       2.782   6.130  23.361  1.00 72.01 LIG-0.24  NA
ATOM     29  CE1 HIS X   0       2.429   7.377  23.623  1.00 72.69 LIG 0.23  A 
ATOM     30 NE2  HIS X   0       1.879   7.891  22.537  1.00 72.94 LIG-0.25  NA
ATOM     31  CD2 HIS X   0       1.880   6.940  21.542  1.00 71.12 LIG 0.14  A 
ENDBRANCH 26 27
ENDBRANCH 10 26
ENDBRANCH 8 10
ENDBRANCH 5 6
BRANCH 5 32
ATOM     32  CB  HIS X   1       1.746   2.172  16.243  1.00 48.25 LIG 0.10  C 
BRANCH 32 33
ATOM     33  CG  HIS X   1       2.394   3.427  15.744  1.00 50.36 LIG 0.06  A 
ATOM     34  CD2 HIS X   1       2.306   4.057  14.547  1.00 51.47 LIG 0.14  A 
ATOM     35 NE2  HIS X   1       3.099   5.177  14.621  1.00 50.72 LIG-0.25  NA
ATOM     36  CE1 HIS X   1       3.653   5.231  15.820  1.00 48.50 LIG 0.23  A 
ATOM     37 ND1  HIS X   1       3.246   4.187  16.518  1.00 47.89 LIG-0.24  NA
ENDBRANCH 32 33
ENDBRANCH 5 32
ENDBRANCH 1 5
BRANCH 3 38
ATOM     38  CA  HIS X   2       5.939   1.902  18.321  1.00 26.25 LIG 0.18  C 
BRANCH 38 39
ATOM     39  C   HIS X   2       6.689   3.161  18.745  1.00 23.72 LIG 0.24  C 
ATOM     40  N   HIS X   3       6.048   4.286  18.479  1.00 22.33 LIG-0.35  N 
ATOM     41 H    HIS X   3       5.283   4.319  18.086  1.00 22.33 LIG 0.16  HD
ATOM     42 O    HIS X   2       7.808   3.120  19.278  1.00 19.88 LIG-0.27  OA
BRANCH 40 43
ATOM     43  CA  HIS X   3       6.598   5.603  18.839  1.00 22.38 LIG 0.18  C 
BRANCH 43 44
ATOM     44  CB  HIS X   3       6.018   6.172  20.172  1.00 22.51 LIG 0.10  C 
BRANCH 44 45
ATOM     45  CG  HIS X   3       6.318   5.365  21.403  1.00 18.10 LIG 0.06  A 
ATOM     46  CD2 HIS X   3       5.923   4.125  21.784  1.00 18.75 LIG 0.14  A 
ATOM     47 NE2  HIS X   3       6.534   3.856  22.988  1.00 20.06 LIG-0.25  NA
ATOM     48  CE1 HIS X   3       7.287   4.886  23.324  1.00 21.69 LIG 0.23  A 
ATOM     49 ND1  HIS X   3       7.185   5.802  22.376  1.00 17.48 LIG-0.24  NA
ENDBRANCH 44 45
ENDBRANCH 43 44
BRANCH 43 50
ATOM     50  C   HIS X   3       8.126   5.588  18.822  1.00 21.59 LIG 0.24  C 
ATOM     51 O    HIS X   3       8.788   5.605  19.853  1.00 25.47 LIG-0.27  OA
ATOM     52  N   HIS X   4       8.672   5.618  17.624  1.00 25.63 LIG-0.35  N 
ATOM     53 H    HIS X   4       8.226   5.638  16.889  1.00 25.63 LIG 0.16  HD
BRANCH 52 54
ATOM     54  CA  HIS X   4      10.128   5.621  17.458  1.00 23.96 LIG 0.17  C 
BRANCH 54 55
ATOM     55  C   HIS X   4      10.615   7.073  17.493  1.00 31.35 LIG 0.22  C 
ATOM     56 O    HIS X   4       9.956   7.956  18.047  1.00 37.06 LIG-0.29  OA
ENDBRANCH 54 55
BRANCH 54 57
ATOM     57  CB  HIS X   4      10.556   4.921  16.163  1.00 23.83 LIG 0.09  C 
BRANCH 57 58
ATOM     58  CG  HIS X   4      11.172   5.842  15.144  1.00 22.57 LIG 0.06  A 
ATOM     59 ND1  HIS X   4      10.505   6.269  14.010  1.00 22.63 LIG-0.24  NA
ATOM     60  CE1 HIS X   4      11.294   7.070  13.313  1.00 19.94 LIG 0.23  A 
ATOM     61 NE2  HIS X   4      12.451   7.165  13.941  1.00 20.25 LIG-0.25  NA
ATOM     62  CD2 HIS X   4      12.395   6.418  15.094  1.00 21.52 LIG 0.14  A 
ENDBRANCH 57 58
ENDBRANCH 54 57
ENDBRANCH 52 54
ENDBRANCH 43 50
ENDBRANCH 40 43
ENDBRANCH 38 39
BRANCH 38 63
ATOM     63  CB  HIS X   2       6.481   1.417  16.971  1.00 28.74 LIG 0.10  C 
BRANCH 63 64
ATOM     64  CG  HIS X   2       6.651   2.507  15.965  1.00 28.63 LIG 0.06  A 
ATOM     65 ND1  HIS X   2       5.643   2.879  15.108  1.00 31.27 LIG-0.24  NA
ATOM     66  CE1 HIS X   2       6.060   3.872  14.344  1.00 28.11 LIG 0.23  A 
ATOM     67 NE2  HIS X   2       7.308   4.152  14.667  1.00 29.87 LIG-0.25  NA
ATOM     68  CD2 HIS X   2       7.701   3.316  15.687  1.00 31.84 LIG 0.14  A 
ENDBRANCH 63 64
ENDBRANCH 38 63
ENDBRANCH 3 38
TORSDOF 24
ENDMDL
MODEL 3
USER: ADFR SOLUTION from run 112
USER: SCORE 18.885793 LL:  -5.631 LR: -14.682 RR:   0.000 FEB:  -7.523
USER: RMSD 6.648923
USER: SEED 111
USER: STATUS no improvement in best in 13 clusters for 5 generations
USER: GENES 26
USER: genes 0 Translation |==|  0.47232 0.50741 0.39825
USER: genes 1 Rotation |==|  0.55516 0.93084 0.62014 0.71657
USER: genes 2 Torsion [N]-C--CA-[N] |==|  0.34956
USER: genes 3 Torsion [C]-CA--N-[C] |==|  0.84823
USER: genes 4 Torsion [N]-C--CA-[N] |==|  0.48217
USER: genes 5 Torsion [C]-CA--N-[C] |==|  0.67875
USER: genes 6 Torsion [N]-C--CA-[N] |==|  0.51203
USER: genes 7 Torsion [C]-CA--N-[H2] |==|  0.29351
USER: genes 8 Torsion [C]-CA--CB-[CG] |==|  0.82898
USER: genes 9 Torsion [CA]-CB--CG-[ND1] |==|  0.76042
USER: genes 10 Torsion [C]-CA--CB-[CG] |==|  0.43265
USER: genes 11 Torsion [CA]-CB--CG-[CD2] |==|  0.55035
USER: genes 12 Torsion [C]-CA--CB-[CG] |==|  0.45546
USER: genes 13 Torsion [CA]-CB--CG-[CD2] |==|  0.97745
USER: genes 14 Torsion [C]-N--CA-[C] |==|  0.62778
USER: genes 15 Torsion [N]-CA--C-[N] |==|  0.47768
USER: genes 16 Torsion [C]-N--CA-[CB] |==|  0.82695
USER: genes 17 Torsion [N]-CA--CB-[CG] |==|  0.72146
USER: genes 18 Torsion [CA]-CB--CG-[ND1] |==|  0.05573
USER: genes 19 Torsion [N]-CA--C-[N] |==|  0.15816
USER: genes 20 Torsion [C]-N--CA-[C] |==|  0.67364
USER: genes 21 Torsion [N]-CA--C-[O] |==|  0.97366
USER: genes 22 Torsion [N]-CA--CB-[CG] |==|  0.06444
USER: genes 23 Torsion [CA]-CB--CG-[ND1] |==|  0.71670
USER: genes 24 Torsion [N]-CA--CB-[CG] |==|  0.28866
USER: genes 25 Torsion [CA]-CB--CG-[CD2] |==|  0.34855
ROOT
ATOM      1  C   HIS X   1       2.070   0.196  17.738  1.00 40.87 LIG 0.24  C 
ATOM      2 O    HIS X   1       2.914  -0.273  18.507  1.00 40.80 LIG-0.27  OA
ATOM      3  N   HIS X   2       1.067  -0.485  17.220  1.00 30.16 LIG-0.35  N 
ATOM      4 H    HIS X   2       0.498  -0.146  16.672  1.00 30.16 LIG 0.16  HD
ENDROOT
BRANCH 1 5
ATOM      5  CA  HIS X   1       2.086   1.645  17.300  1.00 48.06 LIG 0.18  C 
BRANCH 5 6
ATOM      6  N   HIS X   1       2.117   2.513  18.481  1.00 54.11 LIG-0.35  N 
ATOM      7 H    HIS X   1       2.767   3.076  18.483  1.00 54.11 LIG 0.16  HD
ATOM      8  C   HIS X   0       1.224   2.430  19.446  1.00 58.54 LIG 0.24  C 
ATOM      9 O    HIS X   0       0.435   1.491  19.573  1.00 63.37 LIG-0.27  OA
BRANCH 8 10
ATOM     10  CA  HIS X   0       1.244   3.605  20.408  1.00 62.53 LIG 0.18  C 
BRANCH 10 11
ATOM     11  N   HIS X   0       0.142   3.553  21.376  1.00 60.73 LIG-0.35  N 
ATOM     12  C   HIS X  -1      -0.801   4.482  21.388  1.00 60.09 LIG 0.25  C 
ATOM     13 O    HIS X  -1      -1.106   5.154  20.401  1.00 62.79 LIG-0.27  OA
ATOM     14 H    HIS X   0       0.169   2.884  21.915  1.00 60.73 LIG 0.16  HD
BRANCH 12 15
ATOM     15  CA  HIS X  -1      -1.526   4.642  22.719  1.00 59.53 LIG 0.28  C 
BRANCH 15 16
ATOM     16  N   HIS X  -1      -2.637   5.644  22.578  1.00 57.14 LIG-0.07  N 
ATOM     17 H3   HIS X  -1      -2.619   6.206  23.268  1.00 57.14 LIG 0.28  HD
ATOM     18 H2   HIS X  -1      -3.419   5.220  22.562  1.00 57.14 LIG 0.28  HD
ATOM     19 H1   HIS X  -1      -2.531   6.100  21.821  1.00 57.14 LIG 0.28  HD
ENDBRANCH 15 16
BRANCH 15 20
ATOM     20  CB  HIS X  -1      -2.070   3.303  23.218  1.00 57.27 LIG 0.10  C 
BRANCH 20 21
ATOM     21  CG  HIS X  -1      -3.072   2.679  22.302  1.00 54.13 LIG 0.06  A 
ATOM     22 ND1  HIS X  -1      -4.417   2.980  22.355  1.00 52.72 LIG-0.24  NA
ATOM     23  CE1 HIS X  -1      -5.060   2.268  21.445  1.00 54.35 LIG 0.23  A 
ATOM     24 NE2  HIS X  -1      -4.182   1.514  20.805  1.00 53.65 LIG-0.25  NA
ATOM     25  CD2 HIS X  -1      -2.930   1.755  21.321  1.00 55.23 LIG 0.14  A 
ENDBRANCH 20 21
ENDBRANCH 15 20
ENDBRANCH 12 15
ENDBRANCH 10 11
BRANCH 10 26
ATOM     26  CB  HIS X   0       2.616   3.690  21.110  1.00 64.99 LIG 0.10  C 
BRANCH 26 27
ATOM     27  CG  HIS X   0       2.966   5.060  21.614  1.00 69.41 LIG 0.06  A 
ATOM     28 ND1  HIS X   0       2.020   6.045  21.817  1.00 72.01 LIG-0.24  NA
ATOM     29  CE1 HIS X   0       2.611   7.138  22.269  1.00 72.69 LIG 0.23  A 
ATOM     30 NE2  HIS X   0       3.906   6.897  22.372  1.00 72.94 LIG-0.25  NA
ATOM     31  CD2 HIS X   0       4.154   5.604  21.973  1.00 71.12 LIG 0.14  A 
ENDBRANCH 26 27
ENDBRANCH 10 26
ENDBRANCH 8 10
ENDBRANCH 5 6
BRANCH 5 32
ATOM     32  CB  HIS X   1       3.300   1.914  16.414  1.00 48.25 LIG 0.10  C 
BRANCH 32 33
ATOM     33  CG  HIS X   1       3.205   3.188  15.634  1.00 50.36 LIG 0.06  A 
ATOM     34  CD2 HIS X   1       2.177   4.057  15.472  1.00 51.47 LIG 0.14  A 
ATOM     35 NE2  HIS X   1       2.628   5.071  14.661  1.00 50.72 LIG-0.25  NA
ATOM     36  CE1 HIS X   1       3.887   4.832  14.338  1.00 48.50 LIG 0.23  A 
ATOM     37 ND1  HIS X   1       4.261   3.702  14.909  1.00 47.89 LIG-0.24  NA
ENDBRANCH 32 33
ENDBRANCH 5 32
ENDBRANCH 1 5
BRANCH 3 38
ATOM     38  CA  HIS X   2       0.817  -1.911  17.534  1.00 26.25 LIG 0.18  C 
BRANCH 38 39
ATOM     39  C   HIS X   2       0.526  -2.748  16.292  1.00 23.72 LIG 0.24  C 
ATOM     40  N   HIS X   3       0.466  -4.049  16.521  1.00 22.33 LIG-0.35  N 
ATOM     41 H    HIS X   3       0.594  -4.405  17.293  1.00 22.33 LIG 0.16  HD
ATOM     42 O    HIS X   2       0.377  -2.242  15.169  1.00 19.88 LIG-0.27  OA
BRANCH 40 43
ATOM     43  CA  HIS X   3       0.167  -5.017  15.453  1.00 22.38 LIG 0.18  C 
BRANCH 43 44
ATOM     44  CB  HIS X   3      -1.246  -4.823  14.818  1.00 22.51 LIG 0.10  C 
BRANCH 44 45
ATOM     45  CG  HIS X   3      -2.309  -5.764  15.310  1.00 18.10 LIG 0.06  A 
ATOM     46  CD2 HIS X   3      -3.465  -6.190  14.743  1.00 18.75 LIG 0.14  A 
ATOM     47 NE2  HIS X   3      -4.038  -7.089  15.613  1.00 20.06 LIG-0.25  NA
ATOM     48  CE1 HIS X   3      -3.254  -7.221  16.667  1.00 21.69 LIG 0.23  A 
ATOM     49 ND1  HIS X   3      -2.198  -6.443  16.499  1.00 17.48 LIG-0.24  NA
ENDBRANCH 44 45
ENDBRANCH 43 44
BRANCH 43 50
ATOM     50  C   HIS X   3       1.281  -5.048  14.407  1.00 21.59 LIG 0.24  C 
ATOM     51 O    HIS X   3       1.057  -4.886  13.213  1.00 25.47 LIG-0.27  OA
ATOM     52  N   HIS X   4       2.480  -5.322  14.876  1.00 25.63 LIG-0.35  N 
ATOM     53 H    HIS X   4       2.654  -5.469  15.706  1.00 25.63 LIG 0.16  HD
BRANCH 52 54
ATOM     54  CA  HIS X   4       3.641  -5.397  13.984  1.00 23.96 LIG 0.17  C 
BRANCH 54 55
ATOM     55  C   HIS X   4       4.199  -6.822  14.038  1.00 31.35 LIG 0.22  C 
ATOM     56 O    HIS X   4       3.795  -7.637  14.870  1.00 37.06 LIG-0.29  OA
ENDBRANCH 54 55
BRANCH 54 57
ATOM     57  CB  HIS X   4       4.713  -4.364  14.354  1.00 23.83 LIG 0.09  C 
BRANCH 57 58
ATOM     58  CG  HIS X   4       4.649  -3.901  15.785  1.00 22.57 LIG 0.06  A 
ATOM     59 ND1  HIS X   4       4.103  -2.688  16.162  1.00 22.63 LIG-0.24  NA
ATOM     60  CE1 HIS X   4       4.183  -2.562  17.477  1.00 19.94 LIG 0.23  A 
ATOM     61 NE2  HIS X   4       4.773  -3.637  17.963  1.00 20.25 LIG-0.25  NA
ATOM     62  CD2 HIS X   4       5.061  -4.495  16.928  1.00 21.52 LIG 0.14  A 
ENDBRANCH 57 58
ENDBRANCH 54 57
ENDBRANCH 52 54
ENDBRANCH 43 50
ENDBRANCH 40 43
ENDBRANCH 38 39
BRANCH 38 63
ATOM     63  CB  HIS X   2      -0.340  -2.057  18.529  1.00 28.74 LIG 0.10  C 
BRANCH 63 64
ATOM     64  CG  HIS X   2      -1.617  -2.512  17.903  1.00 28.63 LIG 0.06  A 
ATOM     65 ND1  HIS X   2      -2.179  -1.867  16.828  1.00 31.27 LIG-0.24  NA
ATOM     66  CE1 HIS X   2      -3.287  -2.490  16.472  1.00 28.11 LIG 0.23  A 
ATOM     67 NE2  HIS X   2      -3.471  -3.512  17.284  1.00 29.87 LIG-0.25  NA
ATOM     68  CD2 HIS X   2      -2.434  -3.554  18.187  1.00 31.84 LIG 0.14  A 
ENDBRANCH 63 64
ENDBRANCH 38 63
ENDBRANCH 3 38
TORSDOF 24
ENDMDL
MODEL 4
USER: ADFR SOLUTION from run 13
USER: SCORE 18.255904 LL:  -6.569 LR: -14.548 RR:   0.000 FEB:  -7.389
USER: RMSD 10.431070
USER: SEED 970653
USER: STATUS searching
USER: GENES 26
USER: genes 0 Translation |==|  0.55358 0.56892 0.37751
USER: genes 1 Rotation |==|  0.48271 0.32152 0.87580 0.77681
USER: genes 2 Torsion [N]-C--CA-[N] |==|  0.91625
USER: genes 3 Torsion [C]-CA--N-[C] |==|  0.75876
USER: genes 4 Torsion [N]-C--CA-[N] |==|  0.34188
USER: genes 5 Torsion [C]-CA--N-[C] |==|  0.64144
USER: genes 6 Torsion [N]-C--CA-[N] |==|  0.49578
USER: genes 7 Torsion [C]-CA--N-[H2] |==|  0.23206
USER: genes 8 Torsion [C]-CA--CB-[CG] |==|  0.78474
USER: genes 9 Torsion [CA]-CB--CG-[ND1] |==|  0.79148
USER: genes 10 Torsion [C]-CA--CB-[CG] |==|  0.46467
USER: genes 11 Torsion [CA]-CB--CG-[CD2] |==|  0.87906
USER: genes 12 Torsion [C]-CA--CB-[CG] |==|  0.87038
USER: genes 13 Torsion [CA]-CB--CG-[CD2] |==|  0.34399
USER: genes 14 Torsion [C]-N--CA-[C] |==|  0.48620
USER: genes 15 Torsion [N]-CA--C-[N] |==|  0.42144
USER: genes 16 Torsion [C]-N--CA-[CB] |==|  0.29479
USER: genes 17 Torsion [N]-CA--CB-[CG] |==|  0.83852
USER: genes 18 Torsion [CA]-CB--CG-[ND1] |==|  0.35303
USER: genes 19 Torsion [N]-CA--C-[N] |==|  0.13785
USER: genes 20 Torsion [C]-N--CA-[C] |==|  0.77871
USER: genes 21 Torsion [N]-CA--C-[O] |==|  0.80759
USER: genes 22 Torsion [N]-CA--CB-[CG] |==|  0.12260
USER: genes 23 Torsion [CA]-CB--CG-[ND1] |==|  0.83794
USER: genes 24 Torsion [N]-CA--CB-[CG] |==|  0.57478
USER: genes 25 Torsion [CA]-CB--CG-[CD2] |==|  0.04495
ROOT
ATOM      1  C   HIS X   1       3.715   1.672  17.365  1.00 40.87 LIG 0.24  C 
ATOM      2 O    HIS X   1       4.149   0.558  17.059  1.00 40.80 LIG-0.27  OA
ATOM      3  N   HIS X   2       4.459   2.750  17.520  1.00 30.16 LIG-0.35  N 
ATOM      4 H    HIS X   2       4.141   3.514  17.751  1.00 30.16 LIG 0.16  HD
ENDROOT
BRANCH 1 5
ATOM      5  CA  HIS X   1       2.242   1.935  17.595  1.00 48.06 LIG 0.18  C 
BRANCH 5 6
ATOM      6  N   HIS X   1       2.084   3.018  18.570  1.00 54.11 LIG-0.35  N 
ATOM      7 H    HIS X   1       2.007   3.798  18.216  1.00 54.11 LIG 0.16  HD
ATOM      8  C   HIS X   0       2.064   2.804  19.869  1.00 58.54 LIG 0.24  C 
ATOM      9 O    HIS X   0       2.401   1.742  20.396  1.00 63.37 LIG-0.27  OA
BRANCH 8 10
ATOM     10  CA  HIS X   0       1.583   3.994  20.683  1.00 62.53 LIG 0.18  C 
BRANCH 10 11
ATOM     11  N   HIS X   0       0.428   3.663  21.527  1.00 60.73 LIG-0.35  N 
ATOM     12  C   HIS X  -1      -0.665   4.408  21.510  1.00 60.09 LIG 0.25  C 
ATOM     13 O    HIS X  -1      -1.000   5.103  20.549  1.00 62.79 LIG-0.27  OA
ATOM     14 H    HIS X   0       0.529   2.962  22.015  1.00 60.73 LIG 0.16  HD
BRANCH 12 15
ATOM     15  CA  HIS X  -1      -1.522   4.318  22.768  1.00 59.53 LIG 0.28  C 
BRANCH 15 16
ATOM     16  N   HIS X  -1      -2.708   5.232  22.644  1.00 57.14 LIG-0.07  N 
ATOM     17 H3   HIS X  -1      -3.005   5.443  23.456  1.00 57.14 LIG 0.28  HD
ATOM     18 H2   HIS X  -1      -3.353   4.820  22.190  1.00 57.14 LIG 0.28  HD
ATOM     19 H1   HIS X  -1      -2.468   5.973  22.214  1.00 57.14 LIG 0.28  HD
ENDBRANCH 15 16
BRANCH 15 20
ATOM     20  CB  HIS X  -1      -1.974   2.881  23.028  1.00 57.27 LIG 0.10  C 
BRANCH 20 21
ATOM     21  CG  HIS X  -1      -3.104   2.437  22.157  1.00 54.13 LIG 0.06  A 
ATOM     22 ND1  HIS X  -1      -4.403   2.852  22.355  1.00 52.72 LIG-0.24  NA
ATOM     23  CE1 HIS X  -1      -5.185   2.287  21.451  1.00 54.35 LIG 0.23  A 
ATOM     24 NE2  HIS X  -1      -4.441   1.518  20.675  1.00 53.65 LIG-0.25  NA
ATOM     25  CD2 HIS X  -1      -3.133   1.596  21.095  1.00 55.23 LIG 0.14  A 
ENDBRANCH 20 21
ENDBRANCH 15 20
ENDBRANCH 12 15
ENDBRANCH 10 11
BRANCH 10 26
ATOM     26  CB  HIS X   0       2.749   4.572  21.514  1.00 64.99 LIG 0.10  C 
BRANCH 26 27
ATOM     27  CG  HIS X   0       2.467   5.918  22.117  1.00 69.41 LIG 0.06  A 
ATOM     28 ND1  HIS X   0       2.822   6.245  23.410  1.00 72.01 LIG-0.24  NA
ATOM     29  CE1 HIS X   0       2.458   7.490  23.665  1.00 72.69 LIG 0.23  A 
ATOM     30 NE2  HIS X   0       1.884   7.985  22.583  1.00 72.94 LIG-0.25  NA
ATOM     31  CD2 HIS X   0       1.880   7.023  21.598  1.00 71.12 LIG 0.14  A 
ENDBRANCH 26 27
ENDBRANCH 10 26
ENDBRANCH 8 10
ENDBRANCH 5 6
BRANCH 5 32
ATOM     32  CB  HIS X   1       1.562   2.305  16.278  1.00 48.25 LIG 0.10  C 
BRANCH 32 33
ATOM     33  CG  HIS X   1       2.314   3.323  15.478  1.00 50.36 LIG 0.06  A 
ATOM     34  CD2 HIS X   1       2.781   3.286  14.206  1.00 51.47 LIG 0.14  A 
ATOM     35 NE2  HIS X   1       3.392   4.493  13.964  1.00 50.72 LIG-0.25  NA
ATOM     36  CE1 HIS X   1       3.302   5.244  15.049  1.00 48.50 LIG 0.23  A 
ATOM     37 ND1  HIS X   1       2.657   4.563  15.978  1.00 47.89 LIG-0.24  NA
ENDBRANCH 32 33
ENDBRANCH 5 32
ENDBRANCH 1 5
BRANCH 3 38
ATOM     38  CA  HIS X   2       5.925   2.751  17.308  1.00 26.25 LIG 0.18  C 
BRANCH 38 39
ATOM     39  C   HIS X   2       6.539   4.142  17.431  1.00 23.72 LIG 0.24  C 
ATOM     40  N   HIS X   3       7.799   4.141  17.834  1.00 22.33 LIG-0.35  N 
ATOM     41 H    HIS X   3       8.238   3.427  18.028  1.00 22.33 LIG 0.16  HD
ATOM     42 O    HIS X   2       5.899   5.175  17.187  1.00 19.88 LIG-0.27  OA
BRANCH 40 43
ATOM     43  CA  HIS X   3       8.572   5.385  17.985  1.00 22.38 LIG 0.18  C 
BRANCH 43 44
ATOM     44  CB  HIS X   3       8.795   5.797  19.474  1.00 22.51 LIG 0.10  C 
BRANCH 44 45
ATOM     45  CG  HIS X   3       7.544   6.000  20.282  1.00 18.10 LIG 0.06  A 
ATOM     46  CD2 HIS X   3       6.415   6.707  20.030  1.00 18.75 LIG 0.14  A 
ATOM     47 NE2  HIS X   3       5.565   6.510  21.094  1.00 20.06 LIG-0.25  NA
ATOM     48  CE1 HIS X   3       6.146   5.699  21.959  1.00 21.69 LIG 0.23  A 
ATOM     49 ND1  HIS X   3       7.334   5.366  21.483  1.00 17.48 LIG-0.24  NA
ENDBRANCH 44 45
ENDBRANCH 43 44
BRANCH 43 50
ATOM     50  C   HIS X   3       9.876   5.327  17.190  1.00 21.59 LIG 0.24  C 
ATOM     51 O    HIS X   3      10.949   5.667  17.675  1.00 25.47 LIG-0.27  OA
ATOM     52  N   HIS X   4       9.749   4.946  15.936  1.00 25.63 LIG-0.35  N 
ATOM     53 H    HIS X   4       9.001   4.732  15.568  1.00 25.63 LIG 0.16  HD
BRANCH 52 54
ATOM     54  CA  HIS X   4      10.915   4.857  15.053  1.00 23.96 LIG 0.17  C 
BRANCH 54 55
ATOM     55  C   HIS X   4      11.258   6.268  14.563  1.00 31.35 LIG 0.22  C 
ATOM     56 O    HIS X   4      10.520   6.871  13.782  1.00 37.06 LIG-0.29  OA
ENDBRANCH 54 55
BRANCH 54 57
ATOM     57  CB  HIS X   4      10.669   3.904  13.877  1.00 23.83 LIG 0.09  C 
BRANCH 57 58
ATOM     58  CG  HIS X   4       9.322   4.072  13.224  1.00 22.57 LIG 0.06  A 
ATOM     59 ND1  HIS X   4       8.129   3.934  13.910  1.00 22.63 LIG-0.24  NA
ATOM     60  CE1 HIS X   4       7.121   4.143  13.079  1.00 19.94 LIG 0.23  A 
ATOM     61 NE2  HIS X   4       7.613   4.393  11.881  1.00 20.25 LIG-0.25  NA
ATOM     62  CD2 HIS X   4       8.986   4.368  11.948  1.00 21.52 LIG 0.14  A 
ENDBRANCH 57 58
ENDBRANCH 54 57
ENDBRANCH 52 54
ENDBRANCH 43 50
ENDBRANCH 40 43
ENDBRANCH 38 39
BRANCH 38 63
ATOM     63  CB  HIS X   2       6.280   2.156  15.940  1.00 28.74 LIG 0.10  C 
BRANCH 63 64
ATOM     64  CG  HIS X   2       7.639   1.542  15.887  1.00 28.63 LIG 0.06  A 
ATOM     65 ND1  HIS X   2       8.276   1.270  14.699  1.00 31.27 LIG-0.24  NA
ATOM     66  CE1 HIS X   2       9.463   0.749  14.947  1.00 28.11 LIG 0.23  A 
ATOM     67 NE2  HIS X   2       9.617   0.662  16.254  1.00 29.87 LIG-0.25  NA
ATOM     68  CD2 HIS X   2       8.491   1.160  16.867  1.00 31.84 LIG 0.14  A 
ENDBRANCH 63 64
ENDBRANCH 38 63
ENDBRANCH 3 38
TORSDOF 24
ENDMDL
MODEL 5
USER: ADFR SOLUTION from run 172
USER: SCORE 18.395459 LL:  -5.328 LR: -14.529 RR:   0.000 FEB:  -7.370
USER: RMSD 10.574063
USER: SEED 171
USER: STATUS searching
USER: GENES 26
USER: genes 0 Translation |==|  0.46792 0.42685 0.33511
USER: genes 1 Rotation |==|  0.56898 0.29538 0.94922 0.53962
USER: genes 2 Torsion [N]-C--CA-[N] |==|  0.91202
USER: genes 3 Torsion [C]-CA--N-[C] |==|  0.68599
USER: genes 4 Torsion [N]-C--CA-[N] |==|  0.86603
USER: genes 5 Torsion [C]-CA--N-[C] |==|  0.71038
USER: genes 6 Torsion [N]-C--CA-[N] |==|  0.79705
USER: genes 7 Torsion [C]-CA--N-[H2] |==|  0.71304
USER: genes 8 Torsion [C]-CA--CB-[CG] |==|  0.45743
USER: genes 9 Torsion [CA]-CB--CG-[ND1] |==|  0.15194
USER: genes 10 Torsion [C]-CA--CB-[CG] |==|  0.83858
USER: genes 11 Torsion [CA]-CB--CG-[CD2] |==|  0.36694
USER: genes 12 Torsion [C]-CA--CB-[CG] |==|  0.33655
USER: genes 13 Torsion [CA]-CB--CG-[CD2] |==|  0.32071
USER: genes 14 Torsion [C]-N--CA-[C] |==|  0.68537
USER: genes 15 Torsion [N]-CA--C-[N] |==|  0.64391
USER: genes 16 Torsion [C]-N--CA-[CB] |==|  0.83333
USER: genes 17 Torsion [N]-CA--CB-[CG] |==|  0.61940
USER: genes 18 Torsion [CA]-CB--CG-[ND1] |==|  0.29129
USER: genes 19 Torsion [N]-CA--C-[N] |==|  0.42277
USER: genes 20 Torsion [C]-N--CA-[C] |==|  0.77491
USER: genes 21 Torsion [N]-CA--C-[O] |==|  0.91341
USER: genes 22 Torsion [N]-CA--CB-[CG] |==|  0.09221
USER: genes 23 Torsion [CA]-CB--CG-[ND1] |==|  0.31809
USER: genes 24 Torsion [N]-CA--CB-[CG] |==|  0.58254
USER: genes 25 Torsion [CA]-CB--CG-[CD2] |==|  0.43206
ROOT
ATOM      1  C   HIS X   1       1.980  -1.738  16.602  1.00 40.87 LIG 0.24  C 
ATOM      2 O    HIS X   1       3.177  -1.858  16.321  1.00 40.80 LIG-0.27  OA
ATOM      3  N   HIS X   2       1.399  -0.603  16.938  1.00 30.16 LIG-0.35  N 
ATOM      4 H    HIS X   2       0.568  -0.542  17.148  1.00 30.16 LIG 0.16  HD
ENDROOT
BRANCH 1 5
ATOM      5  CA  HIS X   1       1.020  -2.908  16.582  1.00 48.06 LIG 0.18  C 
BRANCH 5 6
ATOM      6  N   HIS X   1      -0.022  -2.704  17.592  1.00 54.11 LIG-0.35  N 
ATOM      7 H    HIS X   1      -0.548  -2.045  17.423  1.00 54.11 LIG 0.16  HD
ATOM      8  C   HIS X   0      -0.133  -3.467  18.660  1.00 58.54 LIG 0.24  C 
ATOM      9 O    HIS X   0       0.737  -4.256  19.035  1.00 63.37 LIG-0.27  OA
BRANCH 8 10
ATOM     10  CA  HIS X   0      -1.444  -3.294  19.409  1.00 62.53 LIG 0.18  C 
BRANCH 10 11
ATOM     11  N   HIS X   0      -1.771  -1.882  19.644  1.00 60.73 LIG-0.35  N 
ATOM     12  C   HIS X  -1      -1.616  -1.336  20.840  1.00 60.09 LIG 0.25  C 
ATOM     13 O    HIS X  -1      -0.819  -1.756  21.682  1.00 62.79 LIG-0.27  OA
ATOM     14 H    HIS X   0      -2.062  -1.461  18.953  1.00 60.73 LIG 0.16  HD
BRANCH 12 15
ATOM     15  CA  HIS X  -1      -2.477  -0.105  21.098  1.00 59.53 LIG 0.28  C 
BRANCH 15 16
ATOM     16  N   HIS X  -1      -1.944   1.064  20.320  1.00 57.14 LIG-0.07  N 
ATOM     17 H3   HIS X  -1      -1.393   0.771  19.685  1.00 57.14 LIG 0.28  HD
ATOM     18 H2   HIS X  -1      -1.501   1.608  20.868  1.00 57.14 LIG 0.28  HD
ATOM     19 H1   HIS X  -1      -2.621   1.505  19.945  1.00 57.14 LIG 0.28  HD
ENDBRANCH 15 16
BRANCH 15 20
ATOM     20  CB  HIS X  -1      -3.940  -0.368  20.740  1.00 57.27 LIG 0.10  C 
BRANCH 20 21
ATOM     21  CG  HIS X  -1      -4.889   0.644  21.295  1.00 54.13 LIG 0.06  A 
ATOM     22 ND1  HIS X  -1      -4.750   1.996  21.070  1.00 52.72 LIG-0.24  NA
ATOM     23  CE1 HIS X  -1      -5.717   2.645  21.696  1.00 54.35 LIG 0.23  A 
ATOM     24 NE2  HIS X  -1      -6.478   1.763  22.321  1.00 53.65 LIG-0.25  NA
ATOM     25  CD2 HIS X  -1      -5.982   0.502  22.084  1.00 55.23 LIG 0.14  A 
ENDBRANCH 20 21
ENDBRANCH 15 20
ENDBRANCH 12 15
ENDBRANCH 10 11
BRANCH 10 26
ATOM     26  CB  HIS X   0      -2.580  -4.025  18.661  1.00 64.99 LIG 0.10  C 
BRANCH 26 27
ATOM     27  CG  HIS X   0      -2.781  -3.562  17.246  1.00 69.41 LIG 0.06  A 
ATOM     28 ND1  HIS X   0      -2.843  -2.227  16.899  1.00 72.01 LIG-0.24  NA
ATOM     29  CE1 HIS X   0      -3.017  -2.120  15.593  1.00 72.69 LIG 0.23  A 
ATOM     30 NE2  HIS X   0      -3.067  -3.336  15.079  1.00 72.94 LIG-0.25  NA
ATOM     31  CD2 HIS X   0      -2.918  -4.256  16.090  1.00 71.12 LIG 0.14  A 
ENDBRANCH 26 27
ENDBRANCH 10 26
ENDBRANCH 8 10
ENDBRANCH 5 6
BRANCH 5 32
ATOM     32  CB  HIS X   1       0.393  -3.052  15.197  1.00 48.25 LIG 0.10  C 
BRANCH 32 33
ATOM     33  CG  HIS X   1       0.649  -4.380  14.556  1.00 50.36 LIG 0.06  A 
ATOM     34  CD2 HIS X   1      -0.201  -5.377  14.206  1.00 51.47 LIG 0.14  A 
ATOM     35 NE2  HIS X   1       0.557  -6.376  13.643  1.00 50.72 LIG-0.25  NA
ATOM     36  CE1 HIS X   1       1.825  -6.004  13.646  1.00 48.50 LIG 0.23  A 
ATOM     37 ND1  HIS X   1       1.910  -4.805  14.193  1.00 47.89 LIG-0.24  NA
ENDBRANCH 32 33
ENDBRANCH 5 32
ENDBRANCH 1 5
BRANCH 3 38
ATOM     38  CA  HIS X   2       2.125   0.687  16.987  1.00 26.25 LIG 0.18  C 
BRANCH 38 39
ATOM     39  C   HIS X   2       2.245   1.245  18.402  1.00 23.72 LIG 0.24  C 
ATOM     40  N   HIS X   3       1.840   2.498  18.524  1.00 22.33 LIG-0.35  N 
ATOM     41 H    HIS X   3       1.549   2.972  17.868  1.00 22.33 LIG 0.16  HD
ATOM     42 O    HIS X   2       2.699   0.578  19.344  1.00 19.88 LIG-0.27  OA
BRANCH 40 43
ATOM     43  CA  HIS X   3       1.853   3.201  19.817  1.00 22.38 LIG 0.18  C 
BRANCH 43 44
ATOM     44  CB  HIS X   3       0.967   2.515  20.903  1.00 22.51 LIG 0.10  C 
BRANCH 44 45
ATOM     45  CG  HIS X   3       0.129   3.445  21.735  1.00 18.10 LIG 0.06  A 
ATOM     46  CD2 HIS X   3       0.463   4.335  22.701  1.00 18.75 LIG 0.14  A 
ATOM     47 NE2  HIS X   3      -0.697   4.959  23.099  1.00 20.06 LIG-0.25  NA
ATOM     48  CE1 HIS X   3      -1.704   4.479  22.392  1.00 21.69 LIG 0.23  A 
ATOM     49 ND1  HIS X   3      -1.227   3.575  21.552  1.00 17.48 LIG-0.24  NA
ENDBRANCH 44 45
ENDBRANCH 43 44
BRANCH 43 50
ATOM     50  C   HIS X   3       3.282   3.451  20.297  1.00 21.59 LIG 0.24  C 
ATOM     51 O    HIS X   3       4.203   2.690  20.023  1.00 25.47 LIG-0.27  OA
ATOM     52  N   HIS X   4       3.435   4.504  21.072  1.00 25.63 LIG-0.35  N 
ATOM     53 H    HIS X   4       2.796   5.034  21.302  1.00 25.63 LIG 0.16  HD
BRANCH 52 54
ATOM     54  CA  HIS X   4       4.749   4.857  21.616  1.00 23.96 LIG 0.17  C 
BRANCH 54 55
ATOM     55  C   HIS X   4       5.013   3.981  22.846  1.00 31.35 LIG 0.22  C 
ATOM     56 O    HIS X   4       4.091   3.593  23.564  1.00 37.06 LIG-0.29  OA
ENDBRANCH 54 55
BRANCH 54 57
ATOM     57  CB  HIS X   4       4.842   6.348  21.964  1.00 23.83 LIG 0.09  C 
BRANCH 57 58
ATOM     58  CG  HIS X   4       3.546   6.946  22.443  1.00 22.57 LIG 0.06  A 
ATOM     59 ND1  HIS X   4       3.364   7.426  23.727  1.00 22.63 LIG-0.24  NA
ATOM     60  CE1 HIS X   4       2.133   7.893  23.850  1.00 19.94 LIG 0.23  A 
ATOM     61 NE2  HIS X   4       1.505   7.720  22.702  1.00 20.25 LIG-0.25  NA
ATOM     62  CD2 HIS X   4       2.370   7.143  21.803  1.00 21.52 LIG 0.14  A 
ENDBRANCH 57 58
ENDBRANCH 54 57
ENDBRANCH 52 54
ENDBRANCH 43 50
ENDBRANCH 40 43
ENDBRANCH 38 39
BRANCH 38 63
ATOM     63  CB  HIS X   2       1.450   1.728  16.086  1.00 28.74 LIG 0.10  C 
BRANCH 63 64
ATOM     64  CG  HIS X   2       2.395   2.737  15.522  1.00 28.63 LIG 0.06  A 
ATOM     65 ND1  HIS X   2       3.596   3.033  16.121  1.00 31.27 LIG-0.24  NA
ATOM     66  CE1 HIS X   2       4.232   3.941  15.403  1.00 28.11 LIG 0.23  A 
ATOM     67 NE2  HIS X   2       3.482   4.253  14.365  1.00 29.87 LIG-0.25  NA
ATOM     68  CD2 HIS X   2       2.328   3.506  14.410  1.00 31.84 LIG 0.14  A 
ENDBRANCH 63 64
ENDBRANCH 38 63
ENDBRANCH 3 38
TORSDOF 24
ENDMDL
MODEL 6
USER: ADFR SOLUTION from run 24
USER: SCORE 18.230186 LL:  -5.085 LR: -14.487 RR:   0.000 FEB:  -7.328
USER: RMSD 7.479153
USER: SEED 23
USER: STATUS no improvement in best in 16 clusters for 5 generations
USER: GENES 26
USER: genes 0 Translation |==|  0.48481 0.61124 0.48052
USER: genes 1 Rotation |==|  0.57580 0.71418 0.86224 0.75915
USER: genes 2 Torsion [N]-C--CA-[N] |==|  0.30183
USER: genes 3 Torsion [C]-CA--N-[C] |==|  0.68671
USER: genes 4 Torsion [N]-C--CA-[N] |==|  0.36590
USER: genes 5 Torsion [C]-CA--N-[C] |==|  0.80768
USER: genes 6 Torsion [N]-C--CA-[N] |==|  0.65753
USER: genes 7 Torsion [C]-CA--N-[H2] |==|  0.19874
USER: genes 8 Torsion [C]-CA--CB-[CG] |==|  0.61977
USER: genes 9 Torsion [CA]-CB--CG-[ND1] |==|  0.86773
USER: genes 10 Torsion [C]-CA--CB-[CG] |==|  0.59285
USER: genes 11 Torsion [CA]-CB--CG-[CD2] |==|  0.80862
USER: genes 12 Torsion [C]-CA--CB-[CG] |==|  0.42806
USER: genes 13 Torsion [CA]-CB--CG-[CD2] |==|  0.02250
USER: genes 14 Torsion [C]-N--CA-[C] |==|  0.14558
USER: genes 15 Torsion [N]-CA--C-[N] |==|  0.10980
USER: genes 16 Torsion [C]-N--CA-[CB] |==|  0.77011
USER: genes 17 Torsion [N]-CA--CB-[CG] |==|  0.54041
USER: genes 18 Torsion [CA]-CB--CG-[ND1] |==|  0.22084
USER: genes 19 Torsion [N]-CA--C-[N] |==|  0.72782
USER: genes 20 Torsion [C]-N--CA-[C] |==|  0.68139
USER: genes 21 Torsion [N]-CA--C-[O] |==|  0.90581
USER: genes 22 Torsion [N]-CA--CB-[CG] |==|  0.17852
USER: genes 23 Torsion [CA]-CB--CG-[ND1] |==|  0.74386
USER: genes 24 Torsion [N]-CA--CB-[CG] |==|  0.72861
USER: genes 25 Torsion [CA]-CB--CG-[CD2] |==|  0.03541
ROOT
ATOM      1  C   HIS X   1       2.322   2.688  19.219  1.00 40.87 LIG 0.24  C 
ATOM      2 O    HIS X   1       2.939   1.672  19.552  1.00 40.80 LIG-0.27  OA
ATOM      3  N   HIS X   2       2.051   3.025  17.974  1.00 30.16 LIG-0.35  N 
ATOM      4 H    HIS X   2       1.635   3.747  17.760  1.00 30.16 LIG 0.16  HD
ENDROOT
BRANCH 1 5
ATOM      5  CA  HIS X   1       1.787   3.681  20.229  1.00 48.06 LIG 0.18  C 
BRANCH 5 6
ATOM      6  N   HIS X   1       0.657   3.087  20.948  1.00 54.11 LIG-0.35  N 
ATOM      7 H    HIS X   1       0.873   2.427  21.456  1.00 54.11 LIG 0.16  HD
ATOM      8  C   HIS X   0      -0.577   3.531  20.821  1.00 58.54 LIG 0.24  C 
ATOM      9 O    HIS X   0      -0.939   4.309  19.936  1.00 63.37 LIG-0.27  OA
BRANCH 8 10
ATOM     10  CA  HIS X   0      -1.537   2.996  21.870  1.00 62.53 LIG 0.18  C 
BRANCH 10 11
ATOM     11  N   HIS X   0      -2.341   4.059  22.484  1.00 60.73 LIG-0.35  N 
ATOM     12  C   HIS X  -1      -1.789   4.957  23.284  1.00 60.09 LIG 0.25  C 
ATOM     13 O    HIS X  -1      -0.598   5.271  23.235  1.00 62.79 LIG-0.27  OA
ATOM     14 H    HIS X   0      -3.176   4.041  22.280  1.00 60.73 LIG 0.16  HD
BRANCH 12 15
ATOM     15  CA  HIS X  -1      -2.750   5.620  24.264  1.00 59.53 LIG 0.28  C 
BRANCH 15 16
ATOM     16  N   HIS X  -1      -2.715   7.111  24.084  1.00 57.14 LIG-0.07  N 
ATOM     17 H3   HIS X  -1      -3.143   7.502  24.760  1.00 57.14 LIG 0.28  HD
ATOM     18 H2   HIS X  -1      -3.111   7.328  23.317  1.00 57.14 LIG 0.28  HD
ATOM     19 H1   HIS X  -1      -1.869   7.389  24.070  1.00 57.14 LIG 0.28  HD
ENDBRANCH 15 16
BRANCH 15 20
ATOM     20  CB  HIS X  -1      -4.173   5.091  24.086  1.00 57.27 LIG 0.10  C 
BRANCH 20 21
ATOM     21  CG  HIS X  -1      -5.223   6.154  24.125  1.00 54.13 LIG 0.06  A 
ATOM     22 ND1  HIS X  -1      -5.261   7.127  25.101  1.00 52.72 LIG-0.24  NA
ATOM     23  CE1 HIS X  -1      -6.303   7.914  24.893  1.00 54.35 LIG 0.23  A 
ATOM     24 NE2  HIS X  -1      -6.943   7.486  23.818  1.00 53.65 LIG-0.25  NA
ATOM     25  CD2 HIS X  -1      -6.286   6.386  23.317  1.00 55.23 LIG 0.14  A 
ENDBRANCH 20 21
ENDBRANCH 15 20
ENDBRANCH 12 15
ENDBRANCH 10 11
BRANCH 10 26
ATOM     26  CB  HIS X   0      -2.424   1.890  21.259  1.00 64.99 LIG 0.10  C 
BRANCH 26 27
ATOM     27  CG  HIS X   0      -3.817   1.839  21.820  1.00 69.41 LIG 0.06  A 
ATOM     28 ND1  HIS X   0      -4.933   2.162  21.075  1.00 72.01 LIG-0.24  NA
ATOM     29  CE1 HIS X   0      -6.016   2.019  21.820  1.00 72.69 LIG 0.23  A 
ATOM     30 NE2  HIS X   0      -5.644   1.611  23.020  1.00 72.94 LIG-0.25  NA
ATOM     31  CD2 HIS X   0      -4.274   1.485  23.045  1.00 71.12 LIG 0.14  A 
ENDBRANCH 26 27
ENDBRANCH 10 26
ENDBRANCH 8 10
ENDBRANCH 5 6
BRANCH 5 32
ATOM     32  CB  HIS X   1       2.888   4.079  21.210  1.00 48.25 LIG 0.10  C 
BRANCH 32 33
ATOM     33  CG  HIS X   1       2.688   5.431  21.822  1.00 50.36 LIG 0.06  A 
ATOM     34  CD2 HIS X   1       1.638   6.287  21.763  1.00 51.47 LIG 0.14  A 
ATOM     35 NE2  HIS X   1       1.971   7.389  22.514  1.00 50.72 LIG-0.25  NA
ATOM     36  CE1 HIS X   1       3.182   7.215  23.015  1.00 48.50 LIG 0.23  A 
ATOM     37 ND1  HIS X   1       3.639   6.043  22.612  1.00 47.89 LIG-0.24  NA
ENDBRANCH 32 33
ENDBRANCH 5 32
ENDBRANCH 1 5
BRANCH 3 38
ATOM     38  CA  HIS X   2       2.435   2.191  16.813  1.00 26.25 LIG 0.18  C 
BRANCH 38 39
ATOM     39  C   HIS X   2       1.971   0.743  16.945  1.00 23.72 LIG 0.24  C 
ATOM     40  N   HIS X   3       0.764   0.610  17.469  1.00 22.33 LIG-0.35  N 
ATOM     41 H    HIS X   3       0.282   1.271  17.732  1.00 22.33 LIG 0.16  HD
ATOM     42 O    HIS X   2       2.679  -0.215  16.602  1.00 19.88 LIG-0.27  OA
BRANCH 40 43
ATOM     43  CA  HIS X   3       0.133  -0.708  17.650  1.00 22.38 LIG 0.18  C 
BRANCH 43 44
ATOM     44  CB  HIS X   3      -0.561  -1.244  16.359  1.00 22.51 LIG 0.10  C 
BRANCH 44 45
ATOM     45  CG  HIS X   3      -1.500  -2.399  16.563  1.00 18.10 LIG 0.06  A 
ATOM     46  CD2 HIS X   3      -1.322  -3.737  16.429  1.00 18.75 LIG 0.14  A 
ATOM     47 NE2  HIS X   3      -2.505  -4.342  16.789  1.00 20.06 LIG-0.25  NA
ATOM     48  CE1 HIS X   3      -3.370  -3.411  17.144  1.00 21.69 LIG 0.23  A 
ATOM     49 ND1  HIS X   3      -2.781  -2.232  17.030  1.00 17.48 LIG-0.24  NA
ENDBRANCH 44 45
ENDBRANCH 43 44
BRANCH 43 50
ATOM     50  C   HIS X   3       1.114  -1.714  18.251  1.00 21.59 LIG 0.24  C 
ATOM     51 O    HIS X   3       1.375  -1.733  19.448  1.00 25.47 LIG-0.27  OA
ATOM     52  N   HIS X   4       1.698  -2.512  17.382  1.00 25.63 LIG-0.35  N 
ATOM     53 H    HIS X   4       1.551  -2.495  16.534  1.00 25.63 LIG 0.16  HD
BRANCH 52 54
ATOM     54  CA  HIS X   4       2.671  -3.518  17.816  1.00 23.96 LIG 0.17  C 
BRANCH 54 55
ATOM     55  C   HIS X   4       4.038  -3.150  17.232  1.00 31.35 LIG 0.22  C 
ATOM     56 O    HIS X   4       4.138  -2.615  16.126  1.00 37.06 LIG-0.29  OA
ENDBRANCH 54 55
BRANCH 54 57
ATOM     57  CB  HIS X   4       2.251  -4.934  17.403  1.00 23.83 LIG 0.09  C 
BRANCH 57 58
ATOM     58  CG  HIS X   4       2.203  -5.148  15.913  1.00 22.57 LIG 0.06  A 
ATOM     59 ND1  HIS X   4       1.058  -4.965  15.160  1.00 22.63 LIG-0.24  NA
ATOM     60  CE1 HIS X   4       1.323  -5.220  13.890  1.00 19.94 LIG 0.23  A 
ATOM     61 NE2  HIS X   4       2.590  -5.577  13.792  1.00 20.25 LIG-0.25  NA
ATOM     62  CD2 HIS X   4       3.165  -5.526  15.040  1.00 21.52 LIG 0.14  A 
ENDBRANCH 57 58
ENDBRANCH 54 57
ENDBRANCH 52 54
ENDBRANCH 43 50
ENDBRANCH 40 43
ENDBRANCH 38 39
BRANCH 38 63
ATOM     63  CB  HIS X   2       3.953   2.221  16.598  1.00 28.74 LIG 0.10  C 
BRANCH 63 64
ATOM     64  CG  HIS X   2       4.392   3.193  15.553  1.00 28.63 LIG 0.06  A 
ATOM     65 ND1  HIS X   2       5.660   3.177  15.022  1.00 31.27 LIG-0.24  NA
ATOM     66  CE1 HIS X   2       5.767   4.129  14.113  1.00 28.11 LIG 0.23  A 
ATOM     67 NE2  HIS X   2       4.617   4.770  14.042  1.00 29.87 LIG-0.25  NA
ATOM     68  CD2 HIS X   2       3.734   4.198  14.929  1.00 31.84 LIG 0.14  A 
ENDBRANCH 63 64
ENDBRANCH 38 63
ENDBRANCH 3 38
TORSDOF 24
ENDMDL
MODEL 7
USER: ADFR SOLUTION from run 105
USER: SCORE 19.225035 LL:  -5.996 LR: -14.466 RR:   0.000 FEB:  -7.307
USER: RMSD 11.035925
USER: SEED 104
USER: STATUS no improvement in best in 24 clusters for 5 generations
USER: GENES 26
USER: genes 0 Translation |==|  0.56410 0.58183 0.37593
USER: genes 1 Rotation |==|  0.52097 0.33963 0.89848 0.75506
USER: genes 2 Torsion [N]-C--CA-[N] |==|  0.91667
USER: genes 3 Torsion [C]-CA--N-[C] |==|  0.70721
USER: genes 4 Torsion [N]-C--CA-[N] |==|  0.35812
USER: genes 5 Torsion [C]-CA--N-[C] |==|  0.63506
USER: genes 6 Torsion [N]-C--CA-[N] |==|  0.50066
USER: genes 7 Torsion [C]-CA--N-[H2] |==|  0.87500
USER: genes 8 Torsion [C]-CA--CB-[CG] |==|  0.78314
USER: genes 9 Torsion [CA]-CB--CG-[ND1] |==|  0.79383
USER: genes 10 Torsion [C]-CA--CB-[CG] |==|  0.45551
USER: genes 11 Torsion [CA]-CB--CG-[CD2] |==|  0.88399
USER: genes 12 Torsion [C]-CA--CB-[CG] |==|  0.88072
USER: genes 13 Torsion [CA]-CB--CG-[CD2] |==|  0.30856
USER: genes 14 Torsion [C]-N--CA-[C] |==|  0.62389
USER: genes 15 Torsion [N]-CA--C-[N] |==|  0.82358
USER: genes 16 Torsion [C]-N--CA-[CB] |==|  0.76575
USER: genes 17 Torsion [N]-CA--CB-[CG] |==|  0.15449
USER: genes 18 Torsion [CA]-CB--CG-[ND1] |==|  0.77781
USER: genes 19 Torsion [N]-CA--C-[N] |==|  0.21367
USER: genes 20 Torsion [C]-N--CA-[C] |==|  0.18287
USER: genes 21 Torsion [N]-CA--C-[O] |==|  0.03096
USER: genes 22 Torsion [N]-CA--CB-[CG] |==|  0.73300
USER: genes 23 Torsion [CA]-CB--CG-[ND1] |==|  0.26959
USER: genes 24 Torsion [N]-CA--CB-[CG] |==|  0.57378
USER: genes 25 Torsion [CA]-CB--CG-[CD2] |==|  0.95972
ROOT
ATOM      1  C   HIS X   1       3.928   1.982  17.337  1.00 40.87 LIG 0.24  C 
ATOM      2 O    HIS X   1       4.500   0.950  16.972  1.00 40.80 LIG-0.27  OA
ATOM      3  N   HIS X   2       4.495   3.170  17.401  1.00 30.16 LIG-0.35  N 
ATOM      4 H    HIS X   2       4.085   3.875  17.675  1.00 30.16 LIG 0.16  HD
ENDROOT
BRANCH 1 5
ATOM      5  CA  HIS X   1       2.472   2.000  17.753  1.00 48.06 LIG 0.18  C 
BRANCH 5 6
ATOM      6  N   HIS X   1       2.259   3.058  18.743  1.00 54.11 LIG-0.35  N 
ATOM      7 H    HIS X   1       2.258   3.852  18.412  1.00 54.11 LIG 0.16  HD
ATOM      8  C   HIS X   0       2.087   2.806  20.025  1.00 58.54 LIG 0.24  C 
ATOM      9 O    HIS X   0       2.315   1.713  20.547  1.00 63.37 LIG-0.27  OA
BRANCH 8 10
ATOM     10  CA  HIS X   0       1.576   3.993  20.824  1.00 62.53 LIG 0.18  C 
BRANCH 10 11
ATOM     11  N   HIS X   0       0.399   3.656  21.634  1.00 60.73 LIG-0.35  N 
ATOM     12  C   HIS X  -1      -0.682   4.420  21.619  1.00 60.09 LIG 0.25  C 
ATOM     13 O    HIS X  -1      -0.985   5.151  20.674  1.00 62.79 LIG-0.27  OA
ATOM     14 H    HIS X   0       0.478   2.938  22.101  1.00 60.73 LIG 0.16  HD
BRANCH 12 15
ATOM     15  CA  HIS X  -1      -1.565   4.305  22.856  1.00 59.53 LIG 0.28  C 
BRANCH 15 16
ATOM     16  N   HIS X  -1      -2.755   5.211  22.719  1.00 57.14 LIG-0.07  N 
ATOM     17 H3   HIS X  -1      -3.334   4.855  22.145  1.00 57.14 LIG 0.28  HD
ATOM     18 H2   HIS X  -1      -2.491   6.006  22.418  1.00 57.14 LIG 0.28  HD
ATOM     19 H1   HIS X  -1      -3.147   5.309  23.513  1.00 57.14 LIG 0.28  HD
ENDBRANCH 15 16
BRANCH 15 20
ATOM     20  CB  HIS X  -1      -2.010   2.861  23.086  1.00 57.27 LIG 0.10  C 
BRANCH 20 21
ATOM     21  CG  HIS X  -1      -3.127   2.424  22.193  1.00 54.13 LIG 0.06  A 
ATOM     22 ND1  HIS X  -1      -4.428   2.842  22.371  1.00 52.72 LIG-0.24  NA
ATOM     23  CE1 HIS X  -1      -5.196   2.284  21.451  1.00 54.35 LIG 0.23  A 
ATOM     24 NE2  HIS X  -1      -4.440   1.518  20.682  1.00 53.65 LIG-0.25  NA
ATOM     25  CD2 HIS X  -1      -3.140   1.590  21.125  1.00 55.23 LIG 0.14  A 
ENDBRANCH 20 21
ENDBRANCH 15 20
ENDBRANCH 12 15
ENDBRANCH 10 11
BRANCH 10 26
ATOM     26  CB  HIS X   0       2.714   4.577  21.688  1.00 64.99 LIG 0.10  C 
BRANCH 26 27
ATOM     27  CG  HIS X   0       2.438   5.955  22.219  1.00 69.41 LIG 0.06  A 
ATOM     28 ND1  HIS X   0       2.769   6.340  23.503  1.00 72.01 LIG-0.24  NA
ATOM     29  CE1 HIS X   0       2.418   7.602  23.688  1.00 72.69 LIG 0.23  A 
ATOM     30 NE2  HIS X   0       1.876   8.050  22.570  1.00 72.94 LIG-0.25  NA
ATOM     31  CD2 HIS X   0       1.880   7.042  21.634  1.00 71.12 LIG 0.14  A 
ENDBRANCH 26 27
ENDBRANCH 10 26
ENDBRANCH 8 10
ENDBRANCH 5 6
BRANCH 5 32
ATOM     32  CB  HIS X   1       1.579   2.227  16.535  1.00 48.25 LIG 0.10  C 
BRANCH 32 33
ATOM     33  CG  HIS X   1       2.090   3.281  15.603  1.00 50.36 LIG 0.06  A 
ATOM     34  CD2 HIS X   1       2.592   3.190  14.347  1.00 51.47 LIG 0.14  A 
ATOM     35 NE2  HIS X   1       2.904   4.466  13.942  1.00 50.72 LIG-0.25  NA
ATOM     36  CE1 HIS X   1       2.603   5.309  14.915  1.00 48.50 LIG 0.23  A 
ATOM     37 ND1  HIS X   1       2.112   4.622  15.930  1.00 47.89 LIG-0.24  NA
ENDBRANCH 32 33
ENDBRANCH 5 32
ENDBRANCH 1 5
BRANCH 3 38
ATOM     38  CA  HIS X   2       5.901   3.412  17.006  1.00 26.25 LIG 0.18  C 
BRANCH 38 39
ATOM     39  C   HIS X   2       6.654   4.288  18.002  1.00 23.72 LIG 0.24  C 
ATOM     40  N   HIS X   3       6.172   5.515  18.114  1.00 22.33 LIG-0.35  N 
ATOM     41 H    HIS X   3       5.505   5.809  17.659  1.00 22.33 LIG 0.16  HD
ATOM     42 O    HIS X   2       7.640   3.879  18.634  1.00 19.88 LIG-0.27  OA
BRANCH 40 43
ATOM     43  CA  HIS X   3       6.748   6.498  19.046  1.00 22.38 LIG 0.18  C 
BRANCH 43 44
ATOM     44  CB  HIS X   3       6.192   6.372  20.500  1.00 22.51 LIG 0.10  C 
BRANCH 44 45
ATOM     45  CG  HIS X   3       6.340   5.016  21.132  1.00 18.10 LIG 0.06  A 
ATOM     46  CD2 HIS X   3       7.199   4.551  22.072  1.00 18.75 LIG 0.14  A 
ATOM     47 NE2  HIS X   3       6.860   3.241  22.320  1.00 20.06 LIG-0.25  NA
ATOM     48  CE1 HIS X   3       5.822   2.919  21.571  1.00 21.69 LIG 0.23  A 
ATOM     49 ND1  HIS X   3       5.481   3.980  20.857  1.00 17.48 LIG-0.24  NA
ENDBRANCH 44 45
ENDBRANCH 43 44
BRANCH 43 50
ATOM     50  C   HIS X   3       8.275   6.479  18.997  1.00 21.59 LIG 0.24  C 
ATOM     51 O    HIS X   3       8.949   5.988  19.896  1.00 25.47 LIG-0.27  OA
ATOM     52  N   HIS X   4       8.808   7.082  17.955  1.00 25.63 LIG-0.35  N 
ATOM     53 H    HIS X   4       8.354   7.459  17.329  1.00 25.63 LIG 0.16  HD
BRANCH 52 54
ATOM     54  CA  HIS X   4      10.262   7.151  17.786  1.00 23.96 LIG 0.17  C 
BRANCH 54 55
ATOM     55  C   HIS X   4      10.791   5.730  17.565  1.00 31.35 LIG 0.22  C 
ATOM     56 O    HIS X   4      10.024   4.789  17.349  1.00 37.06 LIG-0.29  OA
ENDBRANCH 54 55
BRANCH 54 57
ATOM     57  CB  HIS X   4      10.946   7.821  18.985  1.00 23.83 LIG 0.09  C 
BRANCH 57 58
ATOM     58  CG  HIS X   4      11.220   9.289  18.792  1.00 22.57 LIG 0.06  A 
ATOM     59 ND1  HIS X   4      10.386  10.282  19.271  1.00 22.63 LIG-0.24  NA
ATOM     60  CE1 HIS X   4      10.886  11.465  18.955  1.00 19.94 LIG 0.23  A 
ATOM     61 NE2  HIS X   4      12.002  11.277  18.275  1.00 20.25 LIG-0.25  NA
ATOM     62  CD2 HIS X   4      12.239   9.926  18.172  1.00 21.52 LIG 0.14  A 
ENDBRANCH 57 58
ENDBRANCH 54 57
ENDBRANCH 52 54
ENDBRANCH 43 50
ENDBRANCH 40 43
ENDBRANCH 38 39
BRANCH 38 63
ATOM     63  CB  HIS X   2       5.975   4.048  15.612  1.00 28.74 LIG 0.10  C 
BRANCH 63 64
ATOM     64  CG  HIS X   2       7.248   3.762  14.888  1.00 28.63 LIG 0.06  A 
ATOM     65 ND1  HIS X   2       7.398   4.004  13.543  1.00 31.27 LIG-0.24  NA
ATOM     66  CE1 HIS X   2       8.622   3.677  13.172  1.00 28.11 LIG 0.23  A 
ATOM     67 NE2  HIS X   2       9.271   3.221  14.226  1.00 29.87 LIG-0.25  NA
ATOM     68  CD2 HIS X   2       8.435   3.271  15.318  1.00 31.84 LIG 0.14  A 
ENDBRANCH 63 64
ENDBRANCH 38 63
ENDBRANCH 3 38
TORSDOF 24
ENDMDL
MODEL 8
USER: ADFR SOLUTION from run 183
USER: SCORE 19.204166 LL:  -5.785 LR: -14.434 RR:   0.000 FEB:  -7.275
USER: RMSD 6.173737
USER: SEED 182
USER: STATUS no improvement in best in 14 clusters for 5 generations
USER: GENES 26
USER: genes 0 Translation |==|  0.43094 0.52437 0.43961
USER: genes 1 Rotation |==|  0.73041 0.94371 0.49778 0.50561
USER: genes 2 Torsion [N]-C--CA-[N] |==|  0.13195
USER: genes 3 Torsion [C]-CA--N-[C] |==|  0.14400
USER: genes 4 Torsion [N]-C--CA-[N] |==|  0.23371
USER: genes 5 Torsion [C]-CA--N-[C] |==|  0.66115
USER: genes 6 Torsion [N]-C--CA-[N] |==|  0.47840
USER: genes 7 Torsion [C]-CA--N-[H2] |==|  0.58273
USER: genes 8 Torsion [C]-CA--CB-[CG] |==|  0.67728
USER: genes 9 Torsion [CA]-CB--CG-[ND1] |==|  0.30545
USER: genes 10 Torsion [C]-CA--CB-[CG] |==|  0.43663
USER: genes 11 Torsion [CA]-CB--CG-[CD2] |==|  0.47756
USER: genes 12 Torsion [C]-CA--CB-[CG] |==|  0.44773
USER: genes 13 Torsion [CA]-CB--CG-[CD2] |==|  0.04867
USER: genes 14 Torsion [C]-N--CA-[C] |==|  0.81946
USER: genes 15 Torsion [N]-CA--C-[N] |==|  0.42524
USER: genes 16 Torsion [C]-N--CA-[CB] |==|  0.84331
USER: genes 17 Torsion [N]-CA--CB-[CG] |==|  0.27146
USER: genes 18 Torsion [CA]-CB--CG-[ND1] |==|  0.72097
USER: genes 19 Torsion [N]-CA--C-[N] |==|  0.97644
USER: genes 20 Torsion [C]-N--CA-[C] |==|  0.56307
USER: genes 21 Torsion [N]-CA--C-[O] |==|  0.64930
USER: genes 22 Torsion [N]-CA--CB-[CG] |==|  0.68447
USER: genes 23 Torsion [CA]-CB--CG-[ND1] |==|  0.76068
USER: genes 24 Torsion [N]-CA--CB-[CG] |==|  0.38149
USER: genes 25 Torsion [CA]-CB--CG-[CD2] |==|  0.73024
ROOT
ATOM      1  C   HIS X   1       1.232   0.603  18.483  1.00 40.87 LIG 0.24  C 
ATOM      2 O    HIS X   1       1.917  -0.418  18.378  1.00 40.80 LIG-0.27  OA
ATOM      3  N   HIS X   2       0.142   0.702  19.219  1.00 30.16 LIG-0.35  N 
ATOM      4 H    HIS X   2      -0.333   1.418  19.266  1.00 30.16 LIG 0.16  HD
ENDROOT
BRANCH 1 5
ATOM      5  CA  HIS X   1       1.579   1.891  17.767  1.00 48.06 LIG 0.18  C 
BRANCH 5 6
ATOM      6  N   HIS X   1       1.509   3.010  18.711  1.00 54.11 LIG-0.35  N 
ATOM      7 H    HIS X   1       1.022   3.665  18.440  1.00 54.11 LIG 0.16  HD
ATOM      8  C   HIS X   0       2.138   3.002  19.867  1.00 58.54 LIG 0.24  C 
ATOM      9 O    HIS X   0       3.013   2.188  20.168  1.00 63.37 LIG-0.27  OA
BRANCH 8 10
ATOM     10  CA  HIS X   0       1.692   4.099  20.821  1.00 62.53 LIG 0.18  C 
BRANCH 10 11
ATOM     11  N   HIS X   0       0.496   3.723  21.583  1.00 60.73 LIG-0.35  N 
ATOM     12  C   HIS X  -1      -0.606   4.453  21.527  1.00 60.09 LIG 0.25  C 
ATOM     13 O    HIS X  -1      -0.896   5.176  20.571  1.00 62.79 LIG-0.27  OA
ATOM     14 H    HIS X   0       0.580   3.008  22.053  1.00 60.73 LIG 0.16  HD
BRANCH 12 15
ATOM     15  CA  HIS X  -1      -1.533   4.308  22.728  1.00 59.53 LIG 0.28  C 
BRANCH 15 16
ATOM     16  N   HIS X  -1      -2.643   5.317  22.641  1.00 57.14 LIG-0.07  N 
ATOM     17 H3   HIS X  -1      -2.352   6.043  22.216  1.00 57.14 LIG 0.28  HD
ATOM     18 H2   HIS X  -1      -2.907   5.540  23.462  1.00 57.14 LIG 0.28  HD
ATOM     19 H1   HIS X  -1      -3.328   4.966  22.194  1.00 57.14 LIG 0.28  HD
ENDBRANCH 15 16
BRANCH 15 20
ATOM     20  CB  HIS X  -1      -2.099   2.891  22.823  1.00 57.27 LIG 0.10  C 
BRANCH 20 21
ATOM     21  CG  HIS X  -1      -3.583   2.821  22.661  1.00 54.13 LIG 0.06  A 
ATOM     22 ND1  HIS X  -1      -4.184   2.272  21.549  1.00 52.72 LIG-0.24  NA
ATOM     23  CE1 HIS X  -1      -5.497   2.364  21.672  1.00 54.35 LIG 0.23  A 
ATOM     24 NE2  HIS X  -1      -5.770   2.955  22.823  1.00 53.65 LIG-0.25  NA
ATOM     25  CD2 HIS X  -1      -4.588   3.250  23.462  1.00 55.23 LIG 0.14  A 
ENDBRANCH 20 21
ENDBRANCH 15 20
ENDBRANCH 12 15
ENDBRANCH 10 11
BRANCH 10 26
ATOM     26  CB  HIS X   0       2.859   4.497  21.750  1.00 64.99 LIG 0.10  C 
BRANCH 26 27
ATOM     27  CG  HIS X   0       2.736   5.875  22.335  1.00 69.41 LIG 0.06  A 
ATOM     28 ND1  HIS X   0       1.748   6.761  21.955  1.00 72.01 LIG-0.24  NA
ATOM     29  CE1 HIS X   0       1.880   7.886  22.638  1.00 72.69 LIG 0.23  A 
ATOM     30 NE2  HIS X   0       2.915   7.760  23.451  1.00 72.94 LIG-0.25  NA
ATOM     31  CD2 HIS X   0       3.465   6.510  23.284  1.00 71.12 LIG 0.14  A 
ENDBRANCH 26 27
ENDBRANCH 10 26
ENDBRANCH 8 10
ENDBRANCH 5 6
BRANCH 5 32
ATOM     32  CB  HIS X   1       2.977   1.796  17.160  1.00 48.25 LIG 0.10  C 
BRANCH 32 33
ATOM     33  CG  HIS X   1       3.234   2.804  16.083  1.00 50.36 LIG 0.06  A 
ATOM     34  CD2 HIS X   1       2.590   3.955  15.770  1.00 51.47 LIG 0.14  A 
ATOM     35 NE2  HIS X   1       3.245   4.505  14.694  1.00 50.72 LIG-0.25  NA
ATOM     36  CE1 HIS X   1       4.256   3.720  14.361  1.00 48.50 LIG 0.23  A 
ATOM     37 ND1  HIS X   1       4.272   2.685  15.181  1.00 47.89 LIG-0.24  NA
ENDBRANCH 32 33
ENDBRANCH 5 32
ENDBRANCH 1 5
BRANCH 3 38
ATOM     38  CA  HIS X   2      -0.374  -0.413  20.045  1.00 26.25 LIG 0.18  C 
BRANCH 38 39
ATOM     39  C   HIS X   2      -0.832  -1.605  19.210  1.00 23.72 LIG 0.24  C 
ATOM     40  N   HIS X   3      -0.762  -2.765  19.842  1.00 22.33 LIG-0.35  N 
ATOM     41 H    HIS X   3      -0.470  -2.854  20.646  1.00 22.33 LIG 0.16  HD
ATOM     42 O    HIS X   2      -1.218  -1.486  18.037  1.00 19.88 LIG-0.27  OA
BRANCH 40 43
ATOM     43  CA  HIS X   3      -1.186  -4.025  19.211  1.00 22.38 LIG 0.18  C 
BRANCH 43 44
ATOM     44  CB  HIS X   3      -2.663  -3.997  18.705  1.00 22.51 LIG 0.10  C 
BRANCH 44 45
ATOM     45  CG  HIS X   3      -2.839  -3.700  17.243  1.00 18.10 LIG 0.06  A 
ATOM     46  CD2 HIS X   3      -2.778  -4.500  16.149  1.00 18.75 LIG 0.14  A 
ATOM     47 NE2  HIS X   3      -3.066  -3.715  15.055  1.00 20.06 LIG-0.25  NA
ATOM     48  CE1 HIS X   3      -3.309  -2.484  15.465  1.00 21.69 LIG 0.23  A 
ATOM     49 ND1  HIS X   3      -3.193  -2.455  16.783  1.00 17.48 LIG-0.24  NA
ENDBRANCH 44 45
ENDBRANCH 43 44
BRANCH 43 50
ATOM     50  C   HIS X   3      -0.202  -4.460  18.126  1.00 21.59 LIG 0.24  C 
ATOM     51 O    HIS X   3      -0.246  -5.574  17.616  1.00 25.47 LIG-0.27  OA
ATOM     52  N   HIS X   4       0.725  -3.575  17.826  1.00 25.63 LIG-0.35  N 
ATOM     53 H    HIS X   4       0.792  -2.800  18.193  1.00 25.63 LIG 0.16  HD
BRANCH 52 54
ATOM     54  CA  HIS X   4       1.743  -3.863  16.812  1.00 23.96 LIG 0.17  C 
BRANCH 54 55
ATOM     55  C   HIS X   4       2.956  -2.964  17.076  1.00 31.35 LIG 0.22  C 
ATOM     56 O    HIS X   4       3.421  -2.241  16.193  1.00 37.06 LIG-0.29  OA
ENDBRANCH 54 55
BRANCH 54 57
ATOM     57  CB  HIS X   4       1.204  -3.666  15.389  1.00 23.83 LIG 0.09  C 
BRANCH 57 58
ATOM     58  CG  HIS X   4       1.111  -4.939  14.589  1.00 22.57 LIG 0.06  A 
ATOM     59 ND1  HIS X   4       2.169  -5.453  13.863  1.00 22.63 LIG-0.24  NA
ATOM     60  CE1 HIS X   4       1.791  -6.575  13.273  1.00 19.94 LIG 0.23  A 
ATOM     61 NE2  HIS X   4       0.526  -6.799  13.575  1.00 20.25 LIG-0.25  NA
ATOM     62  CD2 HIS X   4       0.083  -5.798  14.408  1.00 21.52 LIG 0.14  A 
ENDBRANCH 57 58
ENDBRANCH 54 57
ENDBRANCH 52 54
ENDBRANCH 43 50
ENDBRANCH 40 43
ENDBRANCH 38 39
BRANCH 38 63
ATOM     63  CB  HIS X   2      -1.529   0.057  20.937  1.00 28.74 LIG 0.10  C 
BRANCH 63 64
ATOM     64  CG  HIS X   2      -2.672  -0.901  20.995  1.00 28.63 LIG 0.06  A 
ATOM     65 ND1  HIS X   2      -2.687  -1.975  21.853  1.00 31.27 LIG-0.24  NA
ATOM     66  CE1 HIS X   2      -3.819  -2.639  21.705  1.00 28.11 LIG 0.23  A 
ATOM     67 NE2  HIS X   2      -4.536  -2.040  20.775  1.00 29.87 LIG-0.25  NA
ATOM     68  CD2 HIS X   2      -3.844  -0.942  20.318  1.00 31.84 LIG 0.14  A 
ENDBRANCH 63 64
ENDBRANCH 38 63
ENDBRANCH 3 38
TORSDOF 24
ENDMDL
MODEL 9
USER: ADFR SOLUTION from run 93
USER: SCORE 18.070026 LL:  -5.563 LR: -14.374 RR:   0.000 FEB:  -7.215
USER: RMSD 6.496231
USER: SEED 92
USER: STATUS 1 or 2 clusters left
USER: GENES 26
USER: genes 0 Translation |==|  0.47587 0.61526 0.48049
USER: genes 1 Rotation |==|  0.59148 0.75032 0.87224 0.70102
USER: genes 2 Torsion [N]-C--CA-[N] |==|  0.22890
USER: genes 3 Torsion [C]-CA--N-[C] |==|  0.62513
USER: genes 4 Torsion [N]-C--CA-[N] |==|  0.81667
USER: genes 5 Torsion [C]-CA--N-[C] |==|  0.59448
USER: genes 6 Torsion [N]-C--CA-[N] |==|  0.69502
USER: genes 7 Torsion [C]-CA--N-[H2] |==|  0.91204
USER: genes 8 Torsion [C]-CA--CB-[CG] |==|  0.50765
USER: genes 9 Torsion [CA]-CB--CG-[ND1] |==|  0.03505
USER: genes 10 Torsion [C]-CA--CB-[CG] |==|  0.81438
USER: genes 11 Torsion [CA]-CB--CG-[CD2] |==|  0.36510
USER: genes 12 Torsion [C]-CA--CB-[CG] |==|  0.39944
USER: genes 13 Torsion [CA]-CB--CG-[CD2] |==|  0.53232
USER: genes 14 Torsion [C]-N--CA-[C] |==|  0.21155
USER: genes 15 Torsion [N]-CA--C-[N] |==|  0.83897
USER: genes 16 Torsion [C]-N--CA-[CB] |==|  0.82347
USER: genes 17 Torsion [N]-CA--CB-[CG] |==|  0.36874
USER: genes 18 Torsion [CA]-CB--CG-[ND1] |==|  0.66334
USER: genes 19 Torsion [N]-CA--C-[N] |==|  0.34798
USER: genes 20 Torsion [C]-N--CA-[C] |==|  0.20428
USER: genes 21 Torsion [N]-CA--C-[O] |==|  0.98655
USER: genes 22 Torsion [N]-CA--CB-[CG] |==|  0.50073
USER: genes 23 Torsion [CA]-CB--CG-[ND1] |==|  0.05634
USER: genes 24 Torsion [N]-CA--CB-[CG] |==|  0.72973
USER: genes 25 Torsion [CA]-CB--CG-[CD2] |==|  0.03892
ROOT
ATOM      1  C   HIS X   1       2.141   2.784  19.219  1.00 40.87 LIG 0.24  C 
ATOM      2 O    HIS X   1       2.991   1.910  19.412  1.00 40.80 LIG-0.27  OA
ATOM      3  N   HIS X   2       1.557   3.018  18.061  1.00 30.16 LIG-0.35  N 
ATOM      4 H    HIS X   2       0.979   3.644  17.941  1.00 30.16 LIG 0.16  HD
ENDROOT
BRANCH 1 5
ATOM      5  CA  HIS X   1       1.656   3.703  20.320  1.00 48.06 LIG 0.18  C 
BRANCH 5 6
ATOM      6  N   HIS X   1       0.403   3.185  20.874  1.00 54.11 LIG-0.35  N 
ATOM      7 H    HIS X   1       0.411   2.338  21.025  1.00 54.11 LIG 0.16  HD
ATOM      8  C   HIS X   0      -0.638   3.955  21.114  1.00 58.54 LIG 0.24  C 
ATOM      9 O    HIS X   0      -0.752   5.108  20.695  1.00 63.37 LIG-0.27  OA
BRANCH 8 10
ATOM     10  CA  HIS X   0      -1.710   3.296  21.967  1.00 62.53 LIG 0.18  C 
BRANCH 10 11
ATOM     11  N   HIS X   0      -2.352   2.167  21.283  1.00 60.73 LIG-0.35  N 
ATOM     12  C   HIS X  -1      -3.633   1.893  21.473  1.00 60.09 LIG 0.25  C 
ATOM     13 O    HIS X  -1      -4.464   2.733  21.824  1.00 62.79 LIG-0.27  OA
ATOM     14 H    HIS X   0      -1.832   1.719  20.765  1.00 60.73 LIG 0.16  HD
BRANCH 12 15
ATOM     15  CA  HIS X  -1      -4.028   0.449  21.187  1.00 59.53 LIG 0.28  C 
BRANCH 15 16
ATOM     16  N   HIS X  -1      -4.870   0.387  19.945  1.00 57.14 LIG-0.07  N 
ATOM     17 H3   HIS X  -1      -4.343   0.301  19.233  1.00 57.14 LIG 0.28  HD
ATOM     18 H2   HIS X  -1      -5.348   1.134  19.872  1.00 57.14 LIG 0.28  HD
ATOM     19 H1   HIS X  -1      -5.419  -0.313  19.993  1.00 57.14 LIG 0.28  HD
ENDBRANCH 15 16
BRANCH 15 20
ATOM     20  CB  HIS X  -1      -2.796  -0.445  21.048  1.00 57.27 LIG 0.10  C 
BRANCH 20 21
ATOM     21  CG  HIS X  -1      -3.114  -1.863  20.702  1.00 54.13 LIG 0.06  A 
ATOM     22 ND1  HIS X  -1      -4.364  -2.263  20.280  1.00 52.72 LIG-0.24  NA
ATOM     23  CE1 HIS X  -1      -4.356  -3.568  20.067  1.00 54.35 LIG 0.23  A 
ATOM     24 NE2  HIS X  -1      -3.147  -4.030  20.336  1.00 53.65 LIG-0.25  NA
ATOM     25  CD2 HIS X  -1      -2.350  -2.981  20.734  1.00 55.23 LIG 0.14  A 
ENDBRANCH 20 21
ENDBRANCH 15 20
ENDBRANCH 12 15
ENDBRANCH 10 11
BRANCH 10 26
ATOM     26  CB  HIS X   0      -1.116   2.875  23.329  1.00 64.99 LIG 0.10  C 
BRANCH 26 27
ATOM     27  CG  HIS X   0      -0.092   1.780  23.240  1.00 69.41 LIG 0.06  A 
ATOM     28 ND1  HIS X   0      -0.293   0.628  22.507  1.00 72.01 LIG-0.24  NA
ATOM     29  CE1 HIS X   0       0.773  -0.148  22.605  1.00 72.69 LIG 0.23  A 
ATOM     30 NE2  HIS X   0       1.661   0.460  23.371  1.00 72.94 LIG-0.25  NA
ATOM     31  CD2 HIS X   0       1.146   1.670  23.779  1.00 71.12 LIG 0.14  A 
ENDBRANCH 26 27
ENDBRANCH 10 26
ENDBRANCH 8 10
ENDBRANCH 5 6
BRANCH 5 32
ATOM     32  CB  HIS X   1       2.713   3.815  21.417  1.00 48.25 LIG 0.10  C 
BRANCH 32 33
ATOM     33  CG  HIS X   1       2.801   5.178  22.031  1.00 50.36 LIG 0.06  A 
ATOM     34  CD2 HIS X   1       3.725   5.722  22.860  1.00 51.47 LIG 0.14  A 
ATOM     35 NE2  HIS X   1       3.329   7.013  23.116  1.00 50.72 LIG-0.25  NA
ATOM     36  CE1 HIS X   1       2.204   7.252  22.465  1.00 48.50 LIG 0.23  A 
ATOM     37 ND1  HIS X   1       1.861   6.162  21.804  1.00 47.89 LIG-0.24  NA
ENDBRANCH 32 33
ENDBRANCH 5 32
ENDBRANCH 1 5
BRANCH 3 38
ATOM     38  CA  HIS X   2       1.836   2.221  16.844  1.00 26.25 LIG 0.18  C 
BRANCH 38 39
ATOM     39  C   HIS X   2       1.162   0.853  16.865  1.00 23.72 LIG 0.24  C 
ATOM     40  N   HIS X   3       1.500   0.101  17.899  1.00 22.33 LIG-0.35  N 
ATOM     41 H    HIS X   3       2.061   0.344  18.503  1.00 22.33 LIG 0.16  HD
ATOM     42 O    HIS X   2       0.380   0.484  15.976  1.00 19.88 LIG-0.27  OA
BRANCH 40 43
ATOM     43  CA  HIS X   3       0.932  -1.241  18.107  1.00 22.38 LIG 0.18  C 
BRANCH 43 44
ATOM     44  CB  HIS X   3      -0.611  -1.230  18.347  1.00 22.51 LIG 0.10  C 
BRANCH 44 45
ATOM     45  CG  HIS X   3      -1.396  -2.230  17.546  1.00 18.10 LIG 0.06  A 
ATOM     46  CD2 HIS X   3      -1.375  -3.586  17.531  1.00 18.75 LIG 0.14  A 
ATOM     47 NE2  HIS X   3      -2.338  -3.998  16.639  1.00 20.06 LIG-0.25  NA
ATOM     48  CE1 HIS X   3      -2.938  -2.934  16.138  1.00 21.69 LIG 0.23  A 
ATOM     49 ND1  HIS X   3      -2.397  -1.857  16.682  1.00 17.48 LIG-0.24  NA
ENDBRANCH 44 45
ENDBRANCH 43 44
BRANCH 43 50
ATOM     50  C   HIS X   3       1.345  -2.197  16.989  1.00 21.59 LIG 0.24  C 
ATOM     51 O    HIS X   3       1.097  -1.966  15.811  1.00 25.47 LIG-0.27  OA
ATOM     52  N   HIS X   4       1.928  -3.307  17.390  1.00 25.63 LIG-0.35  N 
ATOM     53 H    HIS X   4       2.084  -3.502  18.214  1.00 25.63 LIG 0.16  HD
BRANCH 52 54
ATOM     54  CA  HIS X   4       2.366  -4.321  16.426  1.00 23.96 LIG 0.17  C 
BRANCH 54 55
ATOM     55  C   HIS X   4       3.616  -3.798  15.712  1.00 31.35 LIG 0.22  C 
ATOM     56 O    HIS X   4       4.041  -2.659  15.916  1.00 37.06 LIG-0.29  OA
ENDBRANCH 54 55
BRANCH 54 57
ATOM     57  CB  HIS X   4       1.258  -4.673  15.426  1.00 23.83 LIG 0.09  C 
BRANCH 57 58
ATOM     58  CG  HIS X   4       1.656  -5.717  14.416  1.00 22.57 LIG 0.06  A 
ATOM     59 ND1  HIS X   4       2.711  -6.590  14.608  1.00 22.63 LIG-0.24  NA
ATOM     60  CE1 HIS X   4       2.814  -7.390  13.558  1.00 19.94 LIG 0.23  A 
ATOM     61 NE2  HIS X   4       1.880  -7.057  12.688  1.00 20.25 LIG-0.25  NA
ATOM     62  CD2 HIS X   4       1.134  -6.024  13.206  1.00 21.52 LIG 0.14  A 
ENDBRANCH 57 58
ENDBRANCH 54 57
ENDBRANCH 52 54
ENDBRANCH 43 50
ENDBRANCH 40 43
ENDBRANCH 38 39
BRANCH 38 63
ATOM     63  CB  HIS X   2       3.346   2.042  16.644  1.00 28.74 LIG 0.10  C 
BRANCH 63 64
ATOM     64  CG  HIS X   2       3.945   3.017  15.685  1.00 28.63 LIG 0.06  A 
ATOM     65 ND1  HIS X   2       5.196   2.840  15.145  1.00 31.27 LIG-0.24  NA
ATOM     66  CE1 HIS X   2       5.464   3.838  14.322  1.00 28.11 LIG 0.23  A 
ATOM     67 NE2  HIS X   2       4.434   4.662  14.316  1.00 29.87 LIG-0.25  NA
ATOM     68  CD2 HIS X   2       3.464   4.167  15.156  1.00 31.84 LIG 0.14  A 
ENDBRANCH 63 64
ENDBRANCH 38 63
ENDBRANCH 3 38
TORSDOF 24
ENDMDL
MODEL 10
USER: ADFR SOLUTION from run 183
USER: SCORE 17.930479 LL:  -5.876 LR: -14.368 RR:   0.000 FEB:  -7.209
USER: RMSD 6.433809
USER: SEED 182
USER: STATUS no improvement in best in 14 clusters for 5 generations
USER: GENES 26
USER: genes 0 Translation |==|  0.42836 0.52453 0.44082
USER: genes 1 Rotation |==|  0.72648 0.94562 0.49020 0.50578
USER: genes 2 Torsion [N]-C--CA-[N] |==|  0.13716
USER: genes 3 Torsion [C]-CA--N-[C] |==|  0.14006
USER: genes 4 Torsion [N]-C--CA-[N] |==|  0.23483
USER: genes 5 Torsion [C]-CA--N-[C] |==|  0.66851
USER: genes 6 Torsion [N]-C--CA-[N] |==|  0.47902
USER: genes 7 Torsion [C]-CA--N-[H2] |==|  0.59173
USER: genes 8 Torsion [C]-CA--CB-[CG] |==|  0.69783
USER: genes 9 Torsion [CA]-CB--CG-[ND1] |==|  0.29931
USER: genes 10 Torsion [C]-CA--CB-[CG] |==|  0.44157
USER: genes 11 Torsion [CA]-CB--CG-[CD2] |==|  0.49516
USER: genes 12 Torsion [C]-CA--CB-[CG] |==|  0.46454
USER: genes 13 Torsion [CA]-CB--CG-[CD2] |==|  0.07192
USER: genes 14 Torsion [C]-N--CA-[C] |==|  0.85551
USER: genes 15 Torsion [N]-CA--C-[N] |==|  0.89037
USER: genes 16 Torsion [C]-N--CA-[CB] |==|  0.35261
USER: genes 17 Torsion [N]-CA--CB-[CG] |==|  0.53692
USER: genes 18 Torsion [CA]-CB--CG-[ND1] |==|  0.24299
USER: genes 19 Torsion [N]-CA--C-[N] |==|  0.41930
USER: genes 20 Torsion [C]-N--CA-[C] |==|  0.62004
USER: genes 21 Torsion [N]-CA--C-[O] |==|  0.85539
USER: genes 22 Torsion [N]-CA--CB-[CG] |==|  0.86075
USER: genes 23 Torsion [CA]-CB--CG-[ND1] |==|  0.75543
USER: genes 24 Torsion [N]-CA--CB-[CG] |==|  0.38265
USER: genes 25 Torsion [CA]-CB--CG-[CD2] |==|  0.73100
ROOT
ATOM      1  C   HIS X   1       1.179   0.607  18.505  1.00 40.87 LIG 0.24  C 
ATOM      2 O    HIS X   1       1.881  -0.405  18.419  1.00 40.80 LIG-0.27  OA
ATOM      3  N   HIS X   2       0.098   0.708  19.253  1.00 30.16 LIG-0.35  N 
ATOM      4 H    HIS X   2      -0.388   1.416  19.286  1.00 30.16 LIG 0.16  HD
ENDROOT
BRANCH 1 5
ATOM      5  CA  HIS X   1       1.494   1.880  17.749  1.00 48.06 LIG 0.18  C 
BRANCH 5 6
ATOM      6  N   HIS X   1       1.462   3.018  18.672  1.00 54.11 LIG-0.35  N 
ATOM      7 H    HIS X   1       0.979   3.675  18.399  1.00 54.11 LIG 0.16  HD
ATOM      8  C   HIS X   0       2.117   3.023  19.815  1.00 58.54 LIG 0.24  C 
ATOM      9 O    HIS X   0       2.986   2.202  20.112  1.00 63.37 LIG-0.27  OA
BRANCH 8 10
ATOM     10  CA  HIS X   0       1.708   4.144  20.756  1.00 62.53 LIG 0.18  C 
BRANCH 10 11
ATOM     11  N   HIS X   0       0.529   3.797  21.559  1.00 60.73 LIG-0.35  N 
ATOM     12  C   HIS X  -1      -0.585   4.507  21.478  1.00 60.09 LIG 0.25  C 
ATOM     13 O    HIS X  -1      -0.900   5.169  20.486  1.00 62.79 LIG-0.27  OA
ATOM     14 H    HIS X   0       0.630   3.112  22.068  1.00 60.73 LIG 0.16  HD
BRANCH 12 15
ATOM     15  CA  HIS X  -1      -1.491   4.421  22.700  1.00 59.53 LIG 0.28  C 
BRANCH 15 16
ATOM     16  N   HIS X  -1      -2.620   5.402  22.570  1.00 57.14 LIG-0.07  N 
ATOM     17 H3   HIS X  -1      -2.363   6.084  22.058  1.00 57.14 LIG 0.28  HD
ATOM     18 H2   HIS X  -1      -2.844   5.706  23.376  1.00 57.14 LIG 0.28  HD
ATOM     19 H1   HIS X  -1      -3.322   5.000  22.198  1.00 57.14 LIG 0.28  HD
ENDBRANCH 15 16
BRANCH 15 20
ATOM     20  CB  HIS X  -1      -2.029   3.002  22.891  1.00 57.27 LIG 0.10  C 
BRANCH 20 21
ATOM     21  CG  HIS X  -1      -3.486   2.864  22.586  1.00 54.13 LIG 0.06  A 
ATOM     22 ND1  HIS X  -1      -3.952   2.217  21.461  1.00 52.72 LIG-0.24  NA
ATOM     23  CE1 HIS X  -1      -5.273   2.266  21.445  1.00 54.35 LIG 0.23  A 
ATOM     24 NE2  HIS X  -1      -5.681   2.922  22.518  1.00 53.65 LIG-0.25  NA
ATOM     25  CD2 HIS X  -1      -4.581   3.305  23.249  1.00 55.23 LIG 0.14  A 
ENDBRANCH 20 21
ENDBRANCH 15 20
ENDBRANCH 12 15
ENDBRANCH 10 11
BRANCH 10 26
ATOM     26  CB  HIS X   0       2.903   4.550  21.644  1.00 64.99 LIG 0.10  C 
BRANCH 26 27
ATOM     27  CG  HIS X   0       2.790   5.925  22.237  1.00 69.41 LIG 0.06  A 
ATOM     28 ND1  HIS X   0       1.715   6.756  21.993  1.00 72.01 LIG-0.24  NA
ATOM     29  CE1 HIS X   0       1.880   7.893  22.649  1.00 72.69 LIG 0.23  A 
ATOM     30 NE2  HIS X   0       3.020   7.828  23.313  1.00 72.94 LIG-0.25  NA
ATOM     31  CD2 HIS X   0       3.607   6.606  23.076  1.00 71.12 LIG 0.14  A 
ENDBRANCH 26 27
ENDBRANCH 10 26
ENDBRANCH 8 10
ENDBRANCH 5 6
BRANCH 5 32
ATOM     32  CB  HIS X   1       2.867   1.774  17.088  1.00 48.25 LIG 0.10  C 
BRANCH 32 33
ATOM     33  CG  HIS X   1       3.133   2.850  16.080  1.00 50.36 LIG 0.06  A 
ATOM     34  CD2 HIS X   1       2.634   4.105  15.967  1.00 51.47 LIG 0.14  A 
ATOM     35 NE2  HIS X   1       3.222   4.676  14.863  1.00 50.72 LIG-0.25  NA
ATOM     36  CE1 HIS X   1       4.052   3.802  14.321  1.00 48.50 LIG 0.23  A 
ATOM     37 ND1  HIS X   1       4.017   2.691  15.033  1.00 47.89 LIG-0.24  NA
ENDBRANCH 32 33
ENDBRANCH 5 32
ENDBRANCH 1 5
BRANCH 3 38
ATOM     38  CA  HIS X   2      -0.388  -0.393  20.115  1.00 26.25 LIG 0.18  C 
BRANCH 38 39
ATOM     39  C   HIS X   2      -0.537  -1.712  19.364  1.00 23.72 LIG 0.24  C 
ATOM     40  N   HIS X   3      -1.020  -1.584  18.139  1.00 22.33 LIG-0.35  N 
ATOM     41 H    HIS X   3      -1.250  -0.831  17.793  1.00 22.33 LIG 0.16  HD
ATOM     42 O    HIS X   2      -0.242  -2.804  19.872  1.00 19.88 LIG-0.27  OA
BRANCH 40 43
ATOM     43  CA  HIS X   3      -1.209  -2.740  17.249  1.00 22.38 LIG 0.18  C 
BRANCH 43 44
ATOM     44  CB  HIS X   3      -2.654  -2.842  16.666  1.00 22.51 LIG 0.10  C 
BRANCH 44 45
ATOM     45  CG  HIS X   3      -2.995  -4.151  16.011  1.00 18.10 LIG 0.06  A 
ATOM     46  CD2 HIS X   3      -2.842  -4.586  14.736  1.00 18.75 LIG 0.14  A 
ATOM     47 NE2  HIS X   3      -3.282  -5.890  14.695  1.00 20.06 LIG-0.25  NA
ATOM     48  CE1 HIS X   3      -3.675  -6.245  15.904  1.00 21.69 LIG 0.23  A 
ATOM     49 ND1  HIS X   3      -3.497  -5.218  16.718  1.00 17.48 LIG-0.24  NA
ENDBRANCH 44 45
ENDBRANCH 43 44
BRANCH 43 50
ATOM     50  C   HIS X   3      -0.134  -2.786  16.165  1.00 21.59 LIG 0.24  C 
ATOM     51 O    HIS X   3       0.368  -1.768  15.703  1.00 25.47 LIG-0.27  OA
ATOM     52  N   HIS X   4       0.165  -3.991  15.726  1.00 25.63 LIG-0.35  N 
ATOM     53 H    HIS X   4      -0.197  -4.716  16.015  1.00 25.63 LIG 0.16  HD
BRANCH 52 54
ATOM     54  CA  HIS X   4       1.171  -4.184  14.677  1.00 23.96 LIG 0.17  C 
BRANCH 54 55
ATOM     55  C   HIS X   4       0.637  -5.218  13.681  1.00 31.35 LIG 0.22  C 
ATOM     56 O    HIS X   4       0.218  -6.314  14.059  1.00 37.06 LIG-0.29  OA
ENDBRANCH 54 55
BRANCH 54 57
ATOM     57  CB  HIS X   4       2.524  -4.616  15.256  1.00 23.83 LIG 0.09  C 
BRANCH 57 58
ATOM     58  CG  HIS X   4       3.010  -3.750  16.388  1.00 22.57 LIG 0.06  A 
ATOM     59 ND1  HIS X   4       3.764  -2.607  16.195  1.00 22.63 LIG-0.24  NA
ATOM     60  CE1 HIS X   4       4.035  -2.057  17.367  1.00 19.94 LIG 0.23  A 
ATOM     61 NE2  HIS X   4       3.500  -2.808  18.312  1.00 20.25 LIG-0.25  NA
ATOM     62  CD2 HIS X   4       2.843  -3.863  17.726  1.00 21.52 LIG 0.14  A 
ENDBRANCH 57 58
ENDBRANCH 54 57
ENDBRANCH 52 54
ENDBRANCH 43 50
ENDBRANCH 40 43
ENDBRANCH 38 39
BRANCH 38 63
ATOM     63  CB  HIS X   2      -1.725  -0.025  20.769  1.00 28.74 LIG 0.10  C 
BRANCH 63 64
ATOM     64  CG  HIS X   2      -2.717  -1.141  20.776  1.00 28.63 LIG 0.06  A 
ATOM     65 ND1  HIS X   2      -2.723  -2.112  21.748  1.00 31.27 LIG-0.24  NA
ATOM     66  CE1 HIS X   2      -3.711  -2.957  21.519  1.00 28.11 LIG 0.23  A 
ATOM     67 NE2  HIS X   2      -4.343  -2.575  20.426  1.00 29.87 LIG-0.25  NA
ATOM     68  CD2 HIS X   2      -3.745  -1.433  19.944  1.00 31.84 LIG 0.14  A 
ENDBRANCH 63 64
ENDBRANCH 38 63
ENDBRANCH 3 38
TORSDOF 24
ENDMDL
MODEL 11
USER: ADFR SOLUTION from run 34
USER: SCORE 18.426961 LL:  -5.432 LR: -14.363 RR:   0.000 FEB:  -7.204
USER: RMSD 6.610304
USER: SEED 33
USER: STATUS no improvement in best in 7 clusters for 5 generations
USER: GENES 26
USER: genes 0 Translation |==|  0.47320 0.51720 0.38762
USER: genes 1 Rotation |==|  0.52290 0.89680 0.64289 0.76760
USER: genes 2 Torsion [N]-C--CA-[N] |==|  0.39778
USER: genes 3 Torsion [C]-CA--N-[C] |==|  0.84754
USER: genes 4 Torsion [N]-C--CA-[N] |==|  0.48301
USER: genes 5 Torsion [C]-CA--N-[C] |==|  0.68667
USER: genes 6 Torsion [N]-C--CA-[N] |==|  0.50888
USER: genes 7 Torsion [C]-CA--N-[H2] |==|  0.30668
USER: genes 8 Torsion [C]-CA--CB-[CG] |==|  0.82859
USER: genes 9 Torsion [CA]-CB--CG-[ND1] |==|  0.76097
USER: genes 10 Torsion [C]-CA--CB-[CG] |==|  0.44755
USER: genes 11 Torsion [CA]-CB--CG-[CD2] |==|  0.52461
USER: genes 12 Torsion [C]-CA--CB-[CG] |==|  0.46101
USER: genes 13 Torsion [CA]-CB--CG-[CD2] |==|  0.51901
USER: genes 14 Torsion [C]-N--CA-[C] |==|  0.84082
USER: genes 15 Torsion [N]-CA--C-[N] |==|  0.39853
USER: genes 16 Torsion [C]-N--CA-[CB] |==|  0.53925
USER: genes 17 Torsion [N]-CA--CB-[CG] |==|  0.10644
USER: genes 18 Torsion [CA]-CB--CG-[ND1] |==|  0.26394
USER: genes 19 Torsion [N]-CA--C-[N] |==|  0.80882
USER: genes 20 Torsion [C]-N--CA-[C] |==|  0.86337
USER: genes 21 Torsion [N]-CA--C-[O] |==|  0.43857
USER: genes 22 Torsion [N]-CA--CB-[CG] |==|  0.08872
USER: genes 23 Torsion [CA]-CB--CG-[ND1] |==|  0.68265
USER: genes 24 Torsion [N]-CA--CB-[CG] |==|  0.69202
USER: genes 25 Torsion [CA]-CB--CG-[CD2] |==|  0.73669
ROOT
ATOM      1  C   HIS X   1       2.087   0.431  17.547  1.00 40.87 LIG 0.24  C 
ATOM      2 O    HIS X   1       2.730  -0.002  18.508  1.00 40.80 LIG-0.27  OA
ATOM      3  N   HIS X   2       1.328  -0.306  16.760  1.00 30.16 LIG-0.35  N 
ATOM      4 H    HIS X   2       0.902   0.010  16.084  1.00 30.16 LIG 0.16  HD
ENDROOT
BRANCH 1 5
ATOM      5  CA  HIS X   1       2.092   1.895  17.160  1.00 48.06 LIG 0.18  C 
BRANCH 5 6
ATOM      6  N   HIS X   1       2.136   2.720  18.370  1.00 54.11 LIG-0.35  N 
ATOM      7 H    HIS X   1       2.786   3.284  18.384  1.00 54.11 LIG 0.16  HD
ATOM      8  C   HIS X   0       1.255   2.603  19.342  1.00 58.54 LIG 0.24  C 
ATOM      9 O    HIS X   0       0.468   1.660  19.446  1.00 63.37 LIG-0.27  OA
BRANCH 8 10
ATOM     10  CA  HIS X   0       1.286   3.744  20.345  1.00 62.53 LIG 0.18  C 
BRANCH 10 11
ATOM     11  N   HIS X   0       0.200   3.653  21.328  1.00 60.73 LIG-0.35  N 
ATOM     12  C   HIS X  -1      -0.776   4.546  21.351  1.00 60.09 LIG 0.25  C 
ATOM     13 O    HIS X  -1      -1.120   5.204  20.367  1.00 62.79 LIG-0.27  OA
ATOM     14 H    HIS X   0       0.260   2.986  21.868  1.00 60.73 LIG 0.16  HD
BRANCH 12 15
ATOM     15  CA  HIS X  -1      -1.489   4.682  22.692  1.00 59.53 LIG 0.28  C 
BRANCH 15 16
ATOM     16  N   HIS X  -1      -2.620   5.662  22.571  1.00 57.14 LIG-0.07  N 
ATOM     17 H3   HIS X  -1      -2.565   6.262  23.227  1.00 57.14 LIG 0.28  HD
ATOM     18 H2   HIS X  -1      -3.396   5.230  22.630  1.00 57.14 LIG 0.28  HD
ATOM     19 H1   HIS X  -1      -2.571   6.078  21.785  1.00 57.14 LIG 0.28  HD
ENDBRANCH 15 16
BRANCH 15 20
ATOM     20  CB  HIS X  -1      -2.000   3.328  23.187  1.00 57.27 LIG 0.10  C 
BRANCH 20 21
ATOM     21  CG  HIS X  -1      -3.003   2.693  22.279  1.00 54.13 LIG 0.06  A 
ATOM     22 ND1  HIS X  -1      -4.351   2.971  22.351  1.00 52.72 LIG-0.24  NA
ATOM     23  CE1 HIS X  -1      -4.994   2.253  21.445  1.00 54.35 LIG 0.23  A 
ATOM     24 NE2  HIS X  -1      -4.112   1.519  20.790  1.00 53.65 LIG-0.25  NA
ATOM     25  CD2 HIS X  -1      -2.857   1.777  21.292  1.00 55.23 LIG 0.14  A 
ENDBRANCH 20 21
ENDBRANCH 15 20
ENDBRANCH 12 15
ENDBRANCH 10 11
BRANCH 10 26
ATOM     26  CB  HIS X   0       2.670   3.809  21.027  1.00 64.99 LIG 0.10  C 
BRANCH 26 27
ATOM     27  CG  HIS X   0       2.969   5.126  21.684  1.00 69.41 LIG 0.06  A 
ATOM     28 ND1  HIS X   0       2.016   6.111  21.851  1.00 72.01 LIG-0.24  NA
ATOM     29  CE1 HIS X   0       2.559   7.150  22.463  1.00 72.69 LIG 0.23  A 
ATOM     30 NE2  HIS X   0       3.828   6.873  22.704  1.00 72.94 LIG-0.25  NA
ATOM     31  CD2 HIS X   0       4.110   5.612  22.231  1.00 71.12 LIG 0.14  A 
ENDBRANCH 26 27
ENDBRANCH 10 26
ENDBRANCH 8 10
ENDBRANCH 5 6
BRANCH 5 32
ATOM     32  CB  HIS X   1       3.292   2.200  16.266  1.00 48.25 LIG 0.10  C 
BRANCH 32 33
ATOM     33  CG  HIS X   1       3.201   3.522  15.569  1.00 50.36 LIG 0.06  A 
ATOM     34  CD2 HIS X   1       3.990   4.081  14.619  1.00 51.47 LIG 0.14  A 
ATOM     35 NE2  HIS X   1       3.451   5.310  14.318  1.00 50.72 LIG-0.25  NA
ATOM     36  CE1 HIS X   1       2.371   5.495  15.057  1.00 48.50 LIG 0.23  A 
ATOM     37 ND1  HIS X   1       2.197   4.433  15.822  1.00 47.89 LIG-0.24  NA
ENDBRANCH 32 33
ENDBRANCH 5 32
ENDBRANCH 1 5
BRANCH 3 38
ATOM     38  CA  HIS X   2       1.133  -1.759  16.964  1.00 26.25 LIG 0.18  C 
BRANCH 38 39
ATOM     39  C   HIS X   2       2.444  -2.540  16.960  1.00 23.72 LIG 0.24  C 
ATOM     40  N   HIS X   3       2.473  -3.548  17.816  1.00 22.33 LIG-0.35  N 
ATOM     41 H    HIS X   3       1.824  -3.746  18.344  1.00 22.33 LIG 0.16  HD
ATOM     42 O    HIS X   2       3.396  -2.236  16.227  1.00 19.88 LIG-0.27  OA
BRANCH 40 43
ATOM     43  CA  HIS X   3       3.642  -4.435  17.938  1.00 22.38 LIG 0.18  C 
BRANCH 43 44
ATOM     44  CB  HIS X   3       3.344  -5.745  18.733  1.00 22.51 LIG 0.10  C 
BRANCH 44 45
ATOM     45  CG  HIS X   3       1.995  -6.359  18.483  1.00 18.10 LIG 0.06  A 
ATOM     46  CD2 HIS X   3       0.768  -6.067  18.982  1.00 18.75 LIG 0.14  A 
ATOM     47 NE2  HIS X   3      -0.130  -6.916  18.376  1.00 20.06 LIG-0.25  NA
ATOM     48  CE1 HIS X   3       0.521  -7.689  17.526  1.00 21.69 LIG 0.23  A 
ATOM     49 ND1  HIS X   3       1.802  -7.360  17.562  1.00 17.48 LIG-0.24  NA
ENDBRANCH 44 45
ENDBRANCH 43 44
BRANCH 43 50
ATOM     50  C   HIS X   3       4.275  -4.707  16.574  1.00 21.59 LIG 0.24  C 
ATOM     51 O    HIS X   3       5.354  -4.224  16.250  1.00 25.47 LIG-0.27  OA
ATOM     52  N   HIS X   4       3.551  -5.444  15.759  1.00 25.63 LIG-0.35  N 
ATOM     53 H    HIS X   4       2.778  -5.768  15.955  1.00 25.63 LIG 0.16  HD
BRANCH 52 54
ATOM     54  CA  HIS X   4       4.029  -5.774  14.413  1.00 23.96 LIG 0.17  C 
BRANCH 54 55
ATOM     55  C   HIS X   4       4.503  -4.482  13.739  1.00 31.35 LIG 0.22  C 
ATOM     56 O    HIS X   4       5.301  -4.506  12.800  1.00 37.06 LIG-0.29  OA
ENDBRANCH 54 55
BRANCH 54 57
ATOM     57  CB  HIS X   4       2.950  -6.474  13.579  1.00 23.83 LIG 0.09  C 
BRANCH 57 58
ATOM     58  CG  HIS X   4       1.546  -6.038  13.905  1.00 22.57 LIG 0.06  A 
ATOM     59 ND1  HIS X   4       0.604  -6.881  14.467  1.00 22.63 LIG-0.24  NA
ATOM     60  CE1 HIS X   4      -0.527  -6.218  14.642  1.00 19.94 LIG 0.23  A 
ATOM     61 NE2  HIS X   4      -0.361  -4.986  14.200  1.00 20.25 LIG-0.25  NA
ATOM     62  CD2 HIS X   4       0.929  -4.845  13.747  1.00 21.52 LIG 0.14  A 
ENDBRANCH 57 58
ENDBRANCH 54 57
ENDBRANCH 52 54
ENDBRANCH 43 50
ENDBRANCH 40 43
ENDBRANCH 38 39
BRANCH 38 63
ATOM     63  CB  HIS X   2       0.193  -2.338  15.899  1.00 28.74 LIG 0.10  C 
BRANCH 63 64
ATOM     64  CG  HIS X   2      -1.132  -2.766  16.436  1.00 28.63 LIG 0.06  A 
ATOM     65 ND1  HIS X   2      -2.187  -1.894  16.570  1.00 31.27 LIG-0.24  NA
ATOM     66  CE1 HIS X   2      -3.233  -2.541  17.049  1.00 28.11 LIG 0.23  A 
ATOM     67 NE2  HIS X   2      -2.893  -3.801  17.242  1.00 29.87 LIG-0.25  NA
ATOM     68  CD2 HIS X   2      -1.583  -3.971  16.858  1.00 31.84 LIG 0.14  A 
ENDBRANCH 63 64
ENDBRANCH 38 63
ENDBRANCH 3 38
TORSDOF 24
ENDMDL
MODEL 12
USER: ADFR SOLUTION from run 8
USER: SCORE 18.894901 LL:  -5.800 LR: -14.345 RR:   0.000 FEB:  -7.186
USER: RMSD 5.814874
USER: SEED 195990
USER: STATUS no improvement in best in 7 clusters for 5 generations
USER: GENES 26
USER: genes 0 Translation |==|  0.43587 0.56272 0.29501
USER: genes 1 Rotation |==|  0.30164 0.23083 0.43075 0.86524
USER: genes 2 Torsion [N]-C--CA-[N] |==|  0.05905
USER: genes 3 Torsion [C]-CA--N-[C] |==|  0.72221
USER: genes 4 Torsion [N]-C--CA-[N] |==|  0.16022
USER: genes 5 Torsion [C]-CA--N-[C] |==|  0.67250
USER: genes 6 Torsion [N]-C--CA-[N] |==|  0.69787
USER: genes 7 Torsion [C]-CA--N-[H2] |==|  0.03135
USER: genes 8 Torsion [C]-CA--CB-[CG] |==|  0.22979
USER: genes 9 Torsion [CA]-CB--CG-[ND1] |==|  0.48434
USER: genes 10 Torsion [C]-CA--CB-[CG] |==|  0.80111
USER: genes 11 Torsion [CA]-CB--CG-[CD2] |==|  0.26542
USER: genes 12 Torsion [C]-CA--CB-[CG] |==|  0.70413
USER: genes 13 Torsion [CA]-CB--CG-[CD2] |==|  0.65306
USER: genes 14 Torsion [C]-N--CA-[C] |==|  0.74962
USER: genes 15 Torsion [N]-CA--C-[N] |==|  0.34852
USER: genes 16 Torsion [C]-N--CA-[CB] |==|  0.52845
USER: genes 17 Torsion [N]-CA--CB-[CG] |==|  0.17771
USER: genes 18 Torsion [CA]-CB--CG-[ND1] |==|  0.31616
USER: genes 19 Torsion [N]-CA--C-[N] |==|  0.37848
USER: genes 20 Torsion [C]-N--CA-[C] |==|  0.78399
USER: genes 21 Torsion [N]-CA--C-[O] |==|  0.05747
USER: genes 22 Torsion [N]-CA--CB-[CG] |==|  0.86110
USER: genes 23 Torsion [CA]-CB--CG-[ND1] |==|  0.86338
USER: genes 24 Torsion [N]-CA--CB-[CG] |==|  0.62450
USER: genes 25 Torsion [CA]-CB--CG-[CD2] |==|  0.79784
ROOT
ATOM      1  C   HIS X   1       1.331   1.523  15.880  1.00 40.87 LIG 0.24  C 
ATOM      2 O    HIS X   1       0.755   1.328  14.806  1.00 40.80 LIG-0.27  OA
ATOM      3  N   HIS X   2       1.582   0.590  16.777  1.00 30.16 LIG-0.35  N 
ATOM      4 H    HIS X   2       1.969   0.749  17.528  1.00 30.16 LIG 0.16  HD
ENDROOT
BRANCH 1 5
ATOM      5  CA  HIS X   1       1.836   2.890  16.294  1.00 48.06 LIG 0.18  C 
BRANCH 5 6
ATOM      6  N   HIS X   1       2.885   2.738  17.306  1.00 54.11 LIG-0.35  N 
ATOM      7 H    HIS X   1       3.656   2.538  16.982  1.00 54.11 LIG 0.16  HD
ATOM      8  C   HIS X   0       2.656   2.896  18.594  1.00 58.54 LIG 0.24  C 
ATOM      9 O    HIS X   0       1.530   2.952  19.090  1.00 63.37 LIG-0.27  OA
BRANCH 8 10
ATOM     10  CA  HIS X   0       3.917   3.006  19.435  1.00 62.53 LIG 0.18  C 
BRANCH 10 11
ATOM     11  N   HIS X   0       4.780   4.113  19.006  1.00 60.73 LIG-0.35  N 
ATOM     12  C   HIS X  -1       6.004   3.889  18.557  1.00 60.09 LIG 0.25  C 
ATOM     13 O    HIS X  -1       6.357   2.825  18.045  1.00 62.79 LIG-0.27  OA
ATOM     14 H    HIS X   0       4.424   4.893  19.074  1.00 60.73 LIG 0.16  HD
BRANCH 12 15
ATOM     15  CA  HIS X  -1       6.958   5.071  18.680  1.00 59.53 LIG 0.28  C 
BRANCH 15 16
ATOM     16  N   HIS X  -1       7.241   5.643  17.320  1.00 57.14 LIG-0.07  N 
ATOM     17 H3   HIS X  -1       7.136   6.527  17.342  1.00 57.14 LIG 0.28  HD
ATOM     18 H2   HIS X  -1       6.678   5.292  16.727  1.00 57.14 LIG 0.28  HD
ATOM     19 H1   HIS X  -1       8.078   5.450  17.085  1.00 57.14 LIG 0.28  HD
ENDBRANCH 15 16
BRANCH 15 20
ATOM     20  CB  HIS X  -1       6.391   6.146  19.608  1.00 57.27 LIG 0.10  C 
BRANCH 20 21
ATOM     21  CG  HIS X  -1       6.628   5.877  21.059  1.00 54.13 LIG 0.06  A 
ATOM     22 ND1  HIS X  -1       6.295   6.780  22.046  1.00 52.72 LIG-0.24  NA
ATOM     23  CE1 HIS X  -1       6.635   6.284  23.224  1.00 54.35 LIG 0.23  A 
ATOM     24 NE2  HIS X  -1       7.178   5.093  23.036  1.00 53.65 LIG-0.25  NA
ATOM     25  CD2 HIS X  -1       7.183   4.815  21.689  1.00 55.23 LIG 0.14  A 
ENDBRANCH 20 21
ENDBRANCH 15 20
ENDBRANCH 12 15
ENDBRANCH 10 11
BRANCH 10 26
ATOM     26  CB  HIS X   0       3.545   3.119  20.930  1.00 64.99 LIG 0.10  C 
BRANCH 26 27
ATOM     27  CG  HIS X   0       2.936   4.437  21.315  1.00 69.41 LIG 0.06  A 
ATOM     28 ND1  HIS X   0       3.696   5.552  21.610  1.00 72.01 LIG-0.24  NA
ATOM     29  CE1 HIS X   0       2.896   6.563  21.904  1.00 72.69 LIG 0.23  A 
ATOM     30 NE2  HIS X   0       1.646   6.147  21.806  1.00 72.94 LIG-0.25  NA
ATOM     31  CD2 HIS X   0       1.643   4.822  21.435  1.00 71.12 LIG 0.14  A 
ENDBRANCH 26 27
ENDBRANCH 10 26
ENDBRANCH 8 10
ENDBRANCH 5 6
BRANCH 5 32
ATOM     32  CB  HIS X   1       2.376   3.642  15.080  1.00 48.25 LIG 0.10  C 
BRANCH 32 33
ATOM     33  CG  HIS X   1       3.870   3.736  15.047  1.00 50.36 LIG 0.06  A 
ATOM     34  CD2 HIS X   1       4.691   4.810  14.954  1.00 51.47 LIG 0.14  A 
ATOM     35 NE2  HIS X   1       5.981   4.336  14.976  1.00 50.72 LIG-0.25  NA
ATOM     36  CE1 HIS X   1       5.952   3.019  15.078  1.00 48.50 LIG 0.23  A 
ATOM     37 ND1  HIS X   1       4.691   2.629  15.121  1.00 47.89 LIG-0.24  NA
ENDBRANCH 32 33
ENDBRANCH 5 32
ENDBRANCH 1 5
BRANCH 3 38
ATOM     38  CA  HIS X   2       1.221  -0.832  16.579  1.00 26.25 LIG 0.18  C 
BRANCH 38 39
ATOM     39  C   HIS X   2      -0.174  -1.166  17.098  1.00 23.72 LIG 0.24  C 
ATOM     40  N   HIS X   3      -0.963  -1.732  16.198  1.00 22.33 LIG-0.35  N 
ATOM     41 H    HIS X   3      -0.727  -1.886  15.386  1.00 22.33 LIG 0.16  HD
ATOM     42 O    HIS X   2      -0.531  -0.912  18.257  1.00 19.88 LIG-0.27  OA
BRANCH 40 43
ATOM     43  CA  HIS X   3      -2.336  -2.152  16.518  1.00 22.38 LIG 0.18  C 
BRANCH 43 44
ATOM     44  CB  HIS X   3      -2.995  -3.017  15.398  1.00 22.51 LIG 0.10  C 
BRANCH 44 45
ATOM     45  CG  HIS X   3      -2.338  -4.343  15.136  1.00 18.10 LIG 0.06  A 
ATOM     46  CD2 HIS X   3      -1.092  -4.660  14.705  1.00 18.75 LIG 0.14  A 
ATOM     47 NE2  HIS X   3      -1.006  -6.034  14.686  1.00 20.06 LIG-0.25  NA
ATOM     48  CE1 HIS X   3      -2.151  -6.539  15.105  1.00 21.69 LIG 0.23  A 
ATOM     49 ND1  HIS X   3      -2.965  -5.538  15.397  1.00 17.48 LIG-0.24  NA
ENDBRANCH 44 45
ENDBRANCH 43 44
BRANCH 43 50
ATOM     50  C   HIS X   3      -2.406  -2.818  17.891  1.00 21.59 LIG 0.24  C 
ATOM     51 O    HIS X   3      -1.604  -3.677  18.240  1.00 25.47 LIG-0.27  OA
ATOM     52  N   HIS X   4      -3.422  -2.446  18.641  1.00 25.63 LIG-0.35  N 
ATOM     53 H    HIS X   4      -4.014  -1.868  18.404  1.00 25.63 LIG 0.16  HD
BRANCH 52 54
ATOM     54  CA  HIS X   4      -3.621  -3.013  19.978  1.00 23.96 LIG 0.17  C 
BRANCH 54 55
ATOM     55  C   HIS X   4      -4.226  -4.412  19.824  1.00 31.35 LIG 0.22  C 
ATOM     56 O    HIS X   4      -4.125  -5.040  18.768  1.00 37.06 LIG-0.29  OA
ENDBRANCH 54 55
BRANCH 54 57
ATOM     57  CB  HIS X   4      -4.506  -2.117  20.853  1.00 23.83 LIG 0.09  C 
BRANCH 57 58
ATOM     58  CG  HIS X   4      -4.078  -0.673  20.879  1.00 22.57 LIG 0.06  A 
ATOM     59 ND1  HIS X   4      -2.775  -0.275  21.115  1.00 22.63 LIG-0.24  NA
ATOM     60  CE1 HIS X   4      -2.706   1.045  21.070  1.00 19.94 LIG 0.23  A 
ATOM     61 NE2  HIS X   4      -3.914   1.518  20.832  1.00 20.25 LIG-0.25  NA
ATOM     62  CD2 HIS X   4      -4.787   0.464  20.695  1.00 21.52 LIG 0.14  A 
ENDBRANCH 57 58
ENDBRANCH 54 57
ENDBRANCH 52 54
ENDBRANCH 43 50
ENDBRANCH 40 43
ENDBRANCH 38 39
BRANCH 38 63
ATOM     63  CB  HIS X   2       2.247  -1.754  17.248  1.00 28.74 LIG 0.10  C 
BRANCH 63 64
ATOM     64  CG  HIS X   2       2.664  -2.907  16.397  1.00 28.63 LIG 0.06  A 
ATOM     65 ND1  HIS X   2       3.910  -2.982  15.820  1.00 31.27 LIG-0.24  NA
ATOM     66  CE1 HIS X   2       4.012  -4.109  15.140  1.00 28.11 LIG 0.23  A 
ATOM     67 NE2  HIS X   2       2.873  -4.766  15.246  1.00 29.87 LIG-0.25  NA
ATOM     68  CD2 HIS X   2       2.013  -4.038  16.036  1.00 31.84 LIG 0.14  A 
ENDBRANCH 63 64
ENDBRANCH 38 63
ENDBRANCH 3 38
TORSDOF 24
ENDMDL
MODEL 13
USER: ADFR SOLUTION from run 3
USER: SCORE 19.054235 LL:  -6.111 LR: -14.335 RR:   0.000 FEB:  -7.175
USER: RMSD 9.740347
USER: SEED 454871
USER: STATUS no improvement in best in 5 clusters for 5 generations
USER: GENES 26
USER: genes 0 Translation |==|  0.53958 0.56138 0.38010
USER: genes 1 Rotation |==|  0.40151 0.30963 0.91910 0.66856
USER: genes 2 Torsion [N]-C--CA-[N] |==|  0.50556
USER: genes 3 Torsion [C]-CA--N-[C] |==|  0.56929
USER: genes 4 Torsion [N]-C--CA-[N] |==|  0.47194
USER: genes 5 Torsion [C]-CA--N-[C] |==|  0.70864
USER: genes 6 Torsion [N]-C--CA-[N] |==|  0.87241
USER: genes 7 Torsion [C]-CA--N-[H2] |==|  0.84045
USER: genes 8 Torsion [C]-CA--CB-[CG] |==|  0.48251
USER: genes 9 Torsion [CA]-CB--CG-[ND1] |==|  0.25086
USER: genes 10 Torsion [C]-CA--CB-[CG] |==|  0.18539
USER: genes 11 Torsion [CA]-CB--CG-[CD2] |==|  0.13897
USER: genes 12 Torsion [C]-CA--CB-[CG] |==|  0.79604
USER: genes 13 Torsion [CA]-CB--CG-[CD2] |==|  0.71610
USER: genes 14 Torsion [C]-N--CA-[C] |==|  0.70080
USER: genes 15 Torsion [N]-CA--C-[N] |==|  0.99235
USER: genes 16 Torsion [C]-N--CA-[CB] |==|  0.17155
USER: genes 17 Torsion [N]-CA--CB-[CG] |==|  0.34286
USER: genes 18 Torsion [CA]-CB--CG-[ND1] |==|  0.29062
USER: genes 19 Torsion [N]-CA--C-[N] |==|  0.87751
USER: genes 20 Torsion [C]-N--CA-[C] |==|  0.49392
USER: genes 21 Torsion [N]-CA--C-[O] |==|  0.79220
USER: genes 22 Torsion [N]-CA--CB-[CG] |==|  0.46877
USER: genes 23 Torsion [CA]-CB--CG-[ND1] |==|  0.11465
USER: genes 24 Torsion [N]-CA--CB-[CG] |==|  0.98381
USER: genes 25 Torsion [CA]-CB--CG-[CD2] |==|  0.70115
ROOT
ATOM      1  C   HIS X   1       3.431   1.491  17.412  1.00 40.87 LIG 0.24  C 
ATOM      2 O    HIS X   1       4.217   0.559  17.607  1.00 40.80 LIG-0.27  OA
ATOM      3  N   HIS X   2       3.740   2.768  17.525  1.00 30.16 LIG-0.35  N 
ATOM      4 H    HIS X   2       3.174   3.404  17.402  1.00 30.16 LIG 0.16  HD
ENDROOT
BRANCH 1 5
ATOM      5  CA  HIS X   1       1.992   1.267  17.000  1.00 48.06 LIG 0.18  C 
BRANCH 5 6
ATOM      6  N   HIS X   1       1.717  -0.171  16.943  1.00 54.11 LIG-0.35  N 
ATOM      7 H    HIS X   1       2.231  -0.645  17.444  1.00 54.11 LIG 0.16  HD
ATOM      8  C   HIS X   0       0.765  -0.682  16.190  1.00 58.54 LIG 0.24  C 
ATOM      9 O    HIS X   0       0.180  -0.056  15.303  1.00 63.37 LIG-0.27  OA
BRANCH 8 10
ATOM     10  CA  HIS X   0       0.438  -2.132  16.506  1.00 62.53 LIG 0.18  C 
BRANCH 10 11
ATOM     11  N   HIS X   0      -0.774  -2.593  15.820  1.00 60.73 LIG-0.35  N 
ATOM     12  C   HIS X  -1      -1.913  -2.748  16.476  1.00 60.09 LIG 0.25  C 
ATOM     13 O    HIS X  -1      -2.191  -2.136  17.510  1.00 62.79 LIG-0.27  OA
ATOM     14 H    HIS X   0      -0.675  -2.748  14.980  1.00 60.73 LIG 0.16  HD
BRANCH 12 15
ATOM     15  CA  HIS X  -1      -2.895  -3.723  15.837  1.00 59.53 LIG 0.28  C 
BRANCH 15 16
ATOM     16  N   HIS X  -1      -2.995  -3.453  14.362  1.00 57.14 LIG-0.07  N 
ATOM     17 H3   HIS X  -1      -2.202  -3.589  13.981  1.00 57.14 LIG 0.28  HD
ATOM     18 H2   HIS X  -1      -3.245  -2.608  14.231  1.00 57.14 LIG 0.28  HD
ATOM     19 H1   HIS X  -1      -3.596  -4.000  14.000  1.00 57.14 LIG 0.28  HD
ENDBRANCH 15 16
BRANCH 15 20
ATOM     20  CB  HIS X  -1      -2.480  -5.172  16.091  1.00 57.27 LIG 0.10  C 
BRANCH 20 21
ATOM     21  CG  HIS X  -1      -3.479  -6.178  15.619  1.00 54.13 LIG 0.06  A 
ATOM     22 ND1  HIS X  -1      -3.449  -6.716  14.350  1.00 52.72 LIG-0.24  NA
ATOM     23  CE1 HIS X  -1      -4.459  -7.558  14.208  1.00 54.35 LIG 0.23  A 
ATOM     24 NE2  HIS X  -1      -5.144  -7.585  15.339  1.00 53.65 LIG-0.25  NA
ATOM     25  CD2 HIS X  -1      -4.549  -6.731  16.239  1.00 55.23 LIG 0.14  A 
ENDBRANCH 20 21
ENDBRANCH 15 20
ENDBRANCH 12 15
ENDBRANCH 10 11
BRANCH 10 26
ATOM     26  CB  HIS X   0       1.653  -3.029  16.184  1.00 64.99 LIG 0.10  C 
BRANCH 26 27
ATOM     27  CG  HIS X   0       2.844  -2.792  17.067  1.00 69.41 LIG 0.06  A 
ATOM     28 ND1  HIS X   0       4.111  -2.569  16.567  1.00 72.01 LIG-0.24  NA
ATOM     29  CE1 HIS X   0       4.954  -2.385  17.569  1.00 72.69 LIG 0.23  A 
ATOM     30 NE2  HIS X   0       4.279  -2.476  18.702  1.00 72.94 LIG-0.25  NA
ATOM     31  CD2 HIS X   0       2.956  -2.726  18.416  1.00 71.12 LIG 0.14  A 
ENDBRANCH 26 27
ENDBRANCH 10 26
ENDBRANCH 8 10
ENDBRANCH 5 6
BRANCH 5 32
ATOM     32  CB  HIS X   1       1.049   1.948  17.991  1.00 48.25 LIG 0.10  C 
BRANCH 32 33
ATOM     33  CG  HIS X   1       0.950   1.243  19.308  1.00 50.36 LIG 0.06  A 
ATOM     34  CD2 HIS X   1      -0.010   0.428  19.810  1.00 51.47 LIG 0.14  A 
ATOM     35 NE2  HIS X   1       0.401   0.044  21.064  1.00 50.72 LIG-0.25  NA
ATOM     36  CE1 HIS X   1       1.572   0.603  21.321  1.00 48.50 LIG 0.23  A 
ATOM     37 ND1  HIS X   1       1.926   1.333  20.279  1.00 47.89 LIG-0.24  NA
ENDBRANCH 32 33
ENDBRANCH 5 32
ENDBRANCH 1 5
BRANCH 3 38
ATOM     38  CA  HIS X   2       5.100   3.237  17.876  1.00 26.25 LIG 0.18  C 
BRANCH 38 39
ATOM     39  C   HIS X   2       5.186   3.793  19.294  1.00 23.72 LIG 0.24  C 
ATOM     40  N   HIS X   3       4.030   3.813  19.937  1.00 22.33 LIG-0.35  N 
ATOM     41 H    HIS X   3       3.287   3.554  19.591  1.00 22.33 LIG 0.16  HD
ATOM     42 O    HIS X   2       6.249   4.202  19.785  1.00 19.88 LIG-0.27  OA
BRANCH 40 43
ATOM     43  CA  HIS X   3       3.916   4.288  21.326  1.00 22.38 LIG 0.18  C 
BRANCH 43 44
ATOM     44  CB  HIS X   3       4.322   5.785  21.502  1.00 22.51 LIG 0.10  C 
BRANCH 44 45
ATOM     45  CG  HIS X   3       3.272   6.671  22.112  1.00 18.10 LIG 0.06  A 
ATOM     46  CD2 HIS X   3       2.100   7.145  21.622  1.00 18.75 LIG 0.14  A 
ATOM     47 NE2  HIS X   3       1.505   7.876  22.625  1.00 20.06 LIG-0.25  NA
ATOM     48  CE1 HIS X   3       2.277   7.838  23.695  1.00 21.69 LIG 0.23  A 
ATOM     49 ND1  HIS X   3       3.341   7.104  23.414  1.00 17.48 LIG-0.24  NA
ENDBRANCH 44 45
ENDBRANCH 43 44
BRANCH 43 50
ATOM     50  C   HIS X   3       2.536   3.982  21.904  1.00 21.59 LIG 0.24  C 
ATOM     51 O    HIS X   3       2.392   3.480  23.013  1.00 25.47 LIG-0.27  OA
ATOM     52  N   HIS X   4       1.524   4.239  21.102  1.00 25.63 LIG-0.35  N 
ATOM     53 H    HIS X   4       1.605   4.562  20.309  1.00 25.63 LIG 0.16  HD
BRANCH 52 54
ATOM     54  CA  HIS X   4       0.144   3.982  21.522  1.00 23.96 LIG 0.17  C 
BRANCH 54 55
ATOM     55  C   HIS X   4      -0.794   4.433  20.397  1.00 31.35 LIG 0.22  C 
ATOM     56 O    HIS X   4      -1.015   5.628  20.190  1.00 37.06 LIG-0.29  OA
ENDBRANCH 54 55
BRANCH 54 57
ATOM     57  CB  HIS X   4      -0.192   4.685  22.843  1.00 23.83 LIG 0.09  C 
BRANCH 57 58
ATOM     58  CG  HIS X   4      -1.659   4.679  23.184  1.00 22.57 LIG 0.06  A 
ATOM     59 ND1  HIS X   4      -2.473   3.577  22.996  1.00 22.63 LIG-0.24  NA
ATOM     60  CE1 HIS X   4      -3.702   3.868  23.390  1.00 19.94 LIG 0.23  A 
ATOM     61 NE2  HIS X   4      -3.719   5.119  23.809  1.00 20.25 LIG-0.25  NA
ATOM     62  CD2 HIS X   4      -2.452   5.643  23.703  1.00 21.52 LIG 0.14  A 
ENDBRANCH 57 58
ENDBRANCH 54 57
ENDBRANCH 52 54
ENDBRANCH 43 50
ENDBRANCH 40 43
ENDBRANCH 38 39
BRANCH 38 63
ATOM     63  CB  HIS X   2       5.585   4.299  16.883  1.00 28.74 LIG 0.10  C 
BRANCH 63 64
ATOM     64  CG  HIS X   2       4.658   4.514  15.732  1.00 28.63 LIG 0.06  A 
ATOM     65 ND1  HIS X   2       3.460   5.175  15.868  1.00 31.27 LIG-0.24  NA
ATOM     66  CE1 HIS X   2       2.857   5.234  14.695  1.00 28.11 LIG 0.23  A 
ATOM     67 NE2  HIS X   2       3.616   4.627  13.803  1.00 29.87 LIG-0.25  NA
ATOM     68  CD2 HIS X   2       4.756   4.173  14.426  1.00 31.84 LIG 0.14  A 
ENDBRANCH 63 64
ENDBRANCH 38 63
ENDBRANCH 3 38
TORSDOF 24
ENDMDL
MODEL 14
USER: ADFR SOLUTION from run 188
USER: SCORE 18.888339 LL:  -6.102 LR: -14.318 RR:   0.000 FEB:  -7.159
USER: RMSD 6.567733
USER: SEED 187
USER: STATUS no improvement in best in 11 clusters for 5 generations
USER: GENES 26
USER: genes 0 Translation |==|  0.48170 0.50168 0.38692
USER: genes 1 Rotation |==|  0.57554 0.96171 0.61964 0.62962
USER: genes 2 Torsion [N]-C--CA-[N] |==|  0.30364
USER: genes 3 Torsion [C]-CA--N-[C] |==|  0.79594
USER: genes 4 Torsion [N]-C--CA-[N] |==|  0.50743
USER: genes 5 Torsion [C]-CA--N-[C] |==|  0.69682
USER: genes 6 Torsion [N]-C--CA-[N] |==|  0.50177
USER: genes 7 Torsion [C]-CA--N-[H2] |==|  0.96508
USER: genes 8 Torsion [C]-CA--CB-[CG] |==|  0.83618
USER: genes 9 Torsion [CA]-CB--CG-[ND1] |==|  0.73428
USER: genes 10 Torsion [C]-CA--CB-[CG] |==|  0.42027
USER: genes 11 Torsion [CA]-CB--CG-[CD2] |==|  0.57886
USER: genes 12 Torsion [C]-CA--CB-[CG] |==|  0.49592
USER: genes 13 Torsion [CA]-CB--CG-[CD2] |==|  0.29110
USER: genes 14 Torsion [C]-N--CA-[C] |==|  0.65340
USER: genes 15 Torsion [N]-CA--C-[N] |==|  0.52778
USER: genes 16 Torsion [C]-N--CA-[CB] |==|  0.79332
USER: genes 17 Torsion [N]-CA--CB-[CG] |==|  0.99639
USER: genes 18 Torsion [CA]-CB--CG-[ND1] |==|  0.77431
USER: genes 19 Torsion [N]-CA--C-[N] |==|  0.26049
USER: genes 20 Torsion [C]-N--CA-[C] |==|  0.66523
USER: genes 21 Torsion [N]-CA--C-[O] |==|  0.35970
USER: genes 22 Torsion [N]-CA--CB-[CG] |==|  0.89217
USER: genes 23 Torsion [CA]-CB--CG-[ND1] |==|  0.18921
USER: genes 24 Torsion [N]-CA--CB-[CG] |==|  0.87339
USER: genes 25 Torsion [CA]-CB--CG-[CD2] |==|  0.38066
ROOT
ATOM      1  C   HIS X   1       2.259   0.058  17.535  1.00 40.87 LIG 0.24  C 
ATOM      2 O    HIS X   1       3.335  -0.410  17.919  1.00 40.80 LIG-0.27  OA
ATOM      3  N   HIS X   2       1.149  -0.637  17.388  1.00 30.16 LIG-0.35  N 
ATOM      4 H    HIS X   2       0.413  -0.296  17.102  1.00 30.16 LIG 0.16  HD
ENDROOT
BRANCH 1 5
ATOM      5  CA  HIS X   1       2.088   1.522  17.188  1.00 48.06 LIG 0.18  C 
BRANCH 5 6
ATOM      6  N   HIS X   1       2.150   2.325  18.413  1.00 54.11 LIG-0.35  N 
ATOM      7 H    HIS X   1       2.881   2.770  18.502  1.00 54.11 LIG 0.16  HD
ATOM      8  C   HIS X   0       1.170   2.355  19.292  1.00 58.54 LIG 0.24  C 
ATOM      9 O    HIS X   0       0.229   1.559  19.299  1.00 63.37 LIG-0.27  OA
BRANCH 8 10
ATOM     10  CA  HIS X   0       1.292   3.472  20.315  1.00 62.53 LIG 0.18  C 
BRANCH 10 11
ATOM     11  N   HIS X   0       0.216   3.434  21.313  1.00 60.73 LIG-0.35  N 
ATOM     12  C   HIS X  -1      -0.738   4.352  21.323  1.00 60.09 LIG 0.25  C 
ATOM     13 O    HIS X  -1      -1.077   4.991  20.325  1.00 62.79 LIG-0.27  OA
ATOM     14 H    HIS X   0       0.266   2.782  21.870  1.00 60.73 LIG 0.16  HD
BRANCH 12 15
ATOM     15  CA  HIS X  -1      -1.430   4.542  22.667  1.00 59.53 LIG 0.28  C 
BRANCH 15 16
ATOM     16  N   HIS X  -1      -2.497   5.592  22.547  1.00 57.14 LIG-0.07  N 
ATOM     17 H3   HIS X  -1      -3.299   5.205  22.571  1.00 57.14 LIG 0.28  HD
ATOM     18 H2   HIS X  -1      -2.402   6.027  21.776  1.00 57.14 LIG 0.28  HD
ATOM     19 H1   HIS X  -1      -2.426   6.167  23.223  1.00 57.14 LIG 0.28  HD
ENDBRANCH 15 16
BRANCH 15 20
ATOM     20  CB  HIS X  -1      -2.023   3.228  23.176  1.00 57.27 LIG 0.10  C 
BRANCH 20 21
ATOM     21  CG  HIS X  -1      -3.024   2.619  22.249  1.00 54.13 LIG 0.06  A 
ATOM     22 ND1  HIS X  -1      -4.382   2.813  22.389  1.00 52.72 LIG-0.24  NA
ATOM     23  CE1 HIS X  -1      -5.019   2.142  21.445  1.00 54.35 LIG 0.23  A 
ATOM     24 NE2  HIS X  -1      -4.125   1.518  20.698  1.00 53.65 LIG-0.25  NA
ATOM     25  CD2 HIS X  -1      -2.868   1.802  21.180  1.00 55.23 LIG 0.14  A 
ENDBRANCH 20 21
ENDBRANCH 15 20
ENDBRANCH 12 15
ENDBRANCH 10 11
BRANCH 10 26
ATOM     26  CB  HIS X   0       2.686   3.430  20.977  1.00 64.99 LIG 0.10  C 
BRANCH 26 27
ATOM     27  CG  HIS X   0       3.183   4.767  21.449  1.00 69.41 LIG 0.06  A 
ATOM     28 ND1  HIS X   0       2.334   5.776  21.859  1.00 72.01 LIG-0.24  NA
ATOM     29  CE1 HIS X   0       3.046   6.828  22.225  1.00 72.69 LIG 0.23  A 
ATOM     30 NE2  HIS X   0       4.326   6.537  22.073  1.00 72.94 LIG-0.25  NA
ATOM     31  CD2 HIS X   0       4.440   5.253  21.593  1.00 71.12 LIG 0.14  A 
ENDBRANCH 26 27
ENDBRANCH 10 26
ENDBRANCH 8 10
ENDBRANCH 5 6
BRANCH 5 32
ATOM     32  CB  HIS X   1       3.176   1.963  16.211  1.00 48.25 LIG 0.10  C 
BRANCH 32 33
ATOM     33  CG  HIS X   1       3.059   3.395  15.788  1.00 50.36 LIG 0.06  A 
ATOM     34  CD2 HIS X   1       3.776   4.488  16.146  1.00 51.47 LIG 0.14  A 
ATOM     35 NE2  HIS X   1       3.258   5.556  15.452  1.00 50.72 LIG-0.25  NA
ATOM     36  CE1 HIS X   1       2.260   5.131  14.695  1.00 48.50 LIG 0.23  A 
ATOM     37 ND1  HIS X   1       2.117   3.832  14.879  1.00 47.89 LIG-0.24  NA
ENDBRANCH 32 33
ENDBRANCH 5 32
ENDBRANCH 1 5
BRANCH 3 38
ATOM     38  CA  HIS X   2       1.057  -2.080  17.705  1.00 26.25 LIG 0.18  C 
BRANCH 38 39
ATOM     39  C   HIS X   2       0.551  -2.913  16.530  1.00 23.72 LIG 0.24  C 
ATOM     40  N   HIS X   3       0.261  -4.165  16.842  1.00 22.33 LIG-0.35  N 
ATOM     41 H    HIS X   3       0.361  -4.497  17.630  1.00 22.33 LIG 0.16  HD
ATOM     42 O    HIS X   2       0.441  -2.449  15.386  1.00 19.88 LIG-0.27  OA
BRANCH 40 43
ATOM     43  CA  HIS X   3      -0.267  -5.115  15.850  1.00 22.38 LIG 0.18  C 
BRANCH 43 44
ATOM     44  CB  HIS X   3      -1.764  -4.861  15.486  1.00 22.51 LIG 0.10  C 
BRANCH 44 45
ATOM     45  CG  HIS X   3      -2.422  -3.726  16.217  1.00 18.10 LIG 0.06  A 
ATOM     46  CD2 HIS X   3      -2.727  -2.462  15.830  1.00 18.75 LIG 0.14  A 
ATOM     47 NE2  HIS X   3      -3.370  -1.857  16.885  1.00 20.06 LIG-0.25  NA
ATOM     48  CE1 HIS X   3      -3.470  -2.722  17.877  1.00 21.69 LIG 0.23  A 
ATOM     49 ND1  HIS X   3      -2.919  -3.861  17.491  1.00 17.48 LIG-0.24  NA
ENDBRANCH 44 45
ENDBRANCH 43 44
BRANCH 43 50
ATOM     50  C   HIS X   3       0.633  -5.186  14.617  1.00 21.59 LIG 0.24  C 
ATOM     51 O    HIS X   3       0.481  -4.441  13.656  1.00 25.47 LIG-0.27  OA
ATOM     52  N   HIS X   4       1.539  -6.141  14.641  1.00 25.63 LIG-0.35  N 
ATOM     53 H    HIS X   4       1.643  -6.694  15.292  1.00 25.63 LIG 0.16  HD
BRANCH 52 54
ATOM     54  CA  HIS X   4       2.463  -6.334  13.520  1.00 23.96 LIG 0.17  C 
BRANCH 54 55
ATOM     55  C   HIS X   4       2.265  -7.750  12.970  1.00 31.35 LIG 0.22  C 
ATOM     56 O    HIS X   4       2.090  -7.950  11.766  1.00 37.06 LIG-0.29  OA
ENDBRANCH 54 55
BRANCH 54 57
ATOM     57  CB  HIS X   4       3.920  -6.096  13.933  1.00 23.83 LIG 0.09  C 
BRANCH 57 58
ATOM     58  CG  HIS X   4       4.105  -4.949  14.891  1.00 22.57 LIG 0.06  A 
ATOM     59 ND1  HIS X   4       3.647  -4.972  16.195  1.00 22.63 LIG-0.24  NA
ATOM     60  CE1 HIS X   4       3.959  -3.833  16.790  1.00 19.94 LIG 0.23  A 
ATOM     61 NE2  HIS X   4       4.586  -3.066  15.918  1.00 20.25 LIG-0.25  NA
ATOM     62  CD2 HIS X   4       4.702  -3.746  14.729  1.00 21.52 LIG 0.14  A 
ENDBRANCH 57 58
ENDBRANCH 54 57
ENDBRANCH 52 54
ENDBRANCH 43 50
ENDBRANCH 40 43
ENDBRANCH 38 39
BRANCH 38 63
ATOM     63  CB  HIS X   2       0.155  -2.316  18.922  1.00 28.74 LIG 0.10  C 
BRANCH 63 64
ATOM     64  CG  HIS X   2       0.424  -1.388  20.059  1.00 28.63 LIG 0.06  A 
ATOM     65 ND1  HIS X   2       1.699  -1.052  20.446  1.00 31.27 LIG-0.24  NA
ATOM     66  CE1 HIS X   2       1.642  -0.207  21.459  1.00 28.11 LIG 0.23  A 
ATOM     67 NE2  HIS X   2       0.374   0.011  21.750  1.00 29.87 LIG-0.25  NA
ATOM     68  CD2 HIS X   2      -0.411  -0.711  20.882  1.00 31.84 LIG 0.14  A 
ENDBRANCH 63 64
ENDBRANCH 38 63
ENDBRANCH 3 38
TORSDOF 24
ENDMDL
MODEL 15
USER: ADFR SOLUTION from run 195
USER: SCORE 18.302196 LL:  -6.427 LR: -14.250 RR:   0.000 FEB:  -7.090
USER: RMSD 9.596542
USER: SEED 194
USER: STATUS searching
USER: GENES 26
USER: genes 0 Translation |==|  0.53875 0.55715 0.40341
USER: genes 1 Rotation |==|  0.30613 0.20209 0.84006 0.58955
USER: genes 2 Torsion [N]-C--CA-[N] |==|  0.65323
USER: genes 3 Torsion [C]-CA--N-[C] |==|  0.15550
USER: genes 4 Torsion [N]-C--CA-[N] |==|  0.52778
USER: genes 5 Torsion [C]-CA--N-[C] |==|  0.57566
USER: genes 6 Torsion [N]-C--CA-[N] |==|  0.95255
USER: genes 7 Torsion [C]-CA--N-[H2] |==|  0.31246
USER: genes 8 Torsion [C]-CA--CB-[CG] |==|  0.88375
USER: genes 9 Torsion [CA]-CB--CG-[ND1] |==|  0.85469
USER: genes 10 Torsion [C]-CA--CB-[CG] |==|  0.31480
USER: genes 11 Torsion [CA]-CB--CG-[CD2] |==|  0.95730
USER: genes 12 Torsion [C]-CA--CB-[CG] |==|  0.25988
USER: genes 13 Torsion [CA]-CB--CG-[CD2] |==|  0.56264
USER: genes 14 Torsion [C]-N--CA-[C] |==|  0.64702
USER: genes 15 Torsion [N]-CA--C-[N] |==|  0.92957
USER: genes 16 Torsion [C]-N--CA-[CB] |==|  0.83193
USER: genes 17 Torsion [N]-CA--CB-[CG] |==|  0.79211
USER: genes 18 Torsion [CA]-CB--CG-[ND1] |==|  0.75773
USER: genes 19 Torsion [N]-CA--C-[N] |==|  0.77356
USER: genes 20 Torsion [C]-N--CA-[C] |==|  0.17203
USER: genes 21 Torsion [N]-CA--C-[O] |==|  0.54540
USER: genes 22 Torsion [N]-CA--CB-[CG] |==|  0.83582
USER: genes 23 Torsion [CA]-CB--CG-[ND1] |==|  0.41851
USER: genes 24 Torsion [N]-CA--CB-[CG] |==|  0.92958
USER: genes 25 Torsion [CA]-CB--CG-[CD2] |==|  0.32949
ROOT
ATOM      1  C   HIS X   1       3.415   1.390  17.831  1.00 40.87 LIG 0.24  C 
ATOM      2 O    HIS X   1       4.089   0.440  18.241  1.00 40.80 LIG-0.27  OA
ATOM      3  N   HIS X   2       3.354   2.571  18.413  1.00 30.16 LIG-0.35  N 
ATOM      4 H    HIS X   2       2.864   3.216  18.123  1.00 30.16 LIG 0.16  HD
ENDROOT
BRANCH 1 5
ATOM      5  CA  HIS X   1       2.568   1.304  16.579  1.00 48.06 LIG 0.18  C 
BRANCH 5 6
ATOM      6  N   HIS X   1       1.638   0.178  16.693  1.00 54.11 LIG-0.35  N 
ATOM      7 H    HIS X   1       1.697  -0.390  16.050  1.00 54.11 LIG 0.16  HD
ATOM      8  C   HIS X   0       0.792   0.054  17.695  1.00 58.54 LIG 0.24  C 
ATOM      9 O    HIS X   0       0.533   0.959  18.491  1.00 63.37 LIG-0.27  OA
BRANCH 8 10
ATOM     10  CA  HIS X   0       0.148  -1.318  17.794  1.00 62.53 LIG 0.18  C 
BRANCH 10 11
ATOM     11  N   HIS X   0      -0.952  -1.350  18.765  1.00 60.73 LIG-0.35  N 
ATOM     12  C   HIS X  -1      -1.280  -2.471  19.388  1.00 60.09 LIG 0.25  C 
ATOM     13 O    HIS X  -1      -0.493  -3.401  19.575  1.00 62.79 LIG-0.27  OA
ATOM     14 H    HIS X   0      -1.348  -0.596  18.884  1.00 60.73 LIG 0.16  HD
BRANCH 12 15
ATOM     15  CA  HIS X  -1      -2.714  -2.521  19.903  1.00 59.53 LIG 0.28  C 
BRANCH 15 16
ATOM     16  N   HIS X  -1      -3.290  -1.135  19.948  1.00 57.14 LIG-0.07  N 
ATOM     17 H3   HIS X  -1      -3.623  -0.978  20.758  1.00 57.14 LIG 0.28  HD
ATOM     18 H2   HIS X  -1      -3.939  -1.063  19.342  1.00 57.14 LIG 0.28  HD
ATOM     19 H1   HIS X  -1      -2.650  -0.542  19.770  1.00 57.14 LIG 0.28  HD
ENDBRANCH 15 16
BRANCH 15 20
ATOM     20  CB  HIS X  -1      -3.581  -3.437  19.039  1.00 57.27 LIG 0.10  C 
BRANCH 20 21
ATOM     21  CG  HIS X  -1      -3.337  -3.291  17.572  1.00 54.13 LIG 0.06  A 
ATOM     22 ND1  HIS X  -1      -3.370  -2.072  16.930  1.00 52.72 LIG-0.24  NA
ATOM     23  CE1 HIS X  -1      -3.138  -2.250  15.640  1.00 54.35 LIG 0.23  A 
ATOM     24 NE2  HIS X  -1      -2.957  -3.542  15.422  1.00 53.65 LIG-0.25  NA
ATOM     25  CD2 HIS X  -1      -3.074  -4.215  16.616  1.00 55.23 LIG 0.14  A 
ENDBRANCH 20 21
ENDBRANCH 15 20
ENDBRANCH 12 15
ENDBRANCH 10 11
BRANCH 10 26
ATOM     26  CB  HIS X   0      -0.311  -1.788  16.396  1.00 64.99 LIG 0.10  C 
BRANCH 26 27
ATOM     27  CG  HIS X   0       0.441  -2.976  15.870  1.00 69.41 LIG 0.06  A 
ATOM     28 ND1  HIS X   0       0.003  -3.718  14.791  1.00 72.01 LIG-0.24  NA
ATOM     29  CE1 HIS X   0       0.864  -4.692  14.547  1.00 72.69 LIG 0.23  A 
ATOM     30 NE2  HIS X   0       1.847  -4.606  15.426  1.00 72.94 LIG-0.25  NA
ATOM     31  CD2 HIS X   0       1.610  -3.539  16.261  1.00 71.12 LIG 0.14  A 
ENDBRANCH 26 27
ENDBRANCH 10 26
ENDBRANCH 8 10
ENDBRANCH 5 6
BRANCH 5 32
ATOM     32  CB  HIS X   1       1.798   2.607  16.374  1.00 48.25 LIG 0.10  C 
BRANCH 32 33
ATOM     33  CG  HIS X   1       2.500   3.587  15.486  1.00 50.36 LIG 0.06  A 
ATOM     34  CD2 HIS X   1       2.381   4.933  15.378  1.00 51.47 LIG 0.14  A 
ATOM     35 NE2  HIS X   1       3.268   5.341  14.411  1.00 50.72 LIG-0.25  NA
ATOM     36  CE1 HIS X   1       3.908   4.283  13.943  1.00 48.50 LIG 0.23  A 
ATOM     37 ND1  HIS X   1       3.463   3.211  14.572  1.00 47.89 LIG-0.24  NA
ENDBRANCH 32 33
ENDBRANCH 5 32
ENDBRANCH 1 5
BRANCH 3 38
ATOM     38  CA  HIS X   2       4.128   2.909  19.629  1.00 26.25 LIG 0.18  C 
BRANCH 38 39
ATOM     39  C   HIS X   2       3.256   3.466  20.750  1.00 23.72 LIG 0.24  C 
ATOM     40  N   HIS X   3       2.140   4.039  20.331  1.00 22.33 LIG-0.35  N 
ATOM     41 H    HIS X   3       1.922   4.113  19.502  1.00 22.33 LIG 0.16  HD
ATOM     42 O    HIS X   2       3.582   3.395  21.944  1.00 19.88 LIG-0.27  OA
BRANCH 40 43
ATOM     43  CA  HIS X   3       1.156   4.610  21.265  1.00 22.38 LIG 0.18  C 
BRANCH 43 44
ATOM     44  CB  HIS X   3       0.564   3.560  22.258  1.00 22.51 LIG 0.10  C 
BRANCH 44 45
ATOM     45  CG  HIS X   3      -0.442   2.611  21.669  1.00 18.10 LIG 0.06  A 
ATOM     46  CD2 HIS X   3      -0.313   1.349  21.188  1.00 18.75 LIG 0.14  A 
ATOM     47 NE2  HIS X   3      -1.569   0.927  20.814  1.00 20.06 LIG-0.25  NA
ATOM     48  CE1 HIS X   3      -2.436   1.889  21.070  1.00 21.69 LIG 0.23  A 
ATOM     49 ND1  HIS X   3      -1.781   2.908  21.601  1.00 17.48 LIG-0.24  NA
ENDBRANCH 44 45
ENDBRANCH 43 44
BRANCH 43 50
ATOM     50  C   HIS X   3       1.718   5.840  21.978  1.00 21.59 LIG 0.24  C 
ATOM     51 O    HIS X   3       1.505   6.978  21.576  1.00 25.47 LIG-0.27  OA
ATOM     52  N   HIS X   4       2.492   5.581  23.011  1.00 25.63 LIG-0.35  N 
ATOM     53 H    HIS X   4       2.678   4.789  23.291  1.00 25.63 LIG 0.16  HD
BRANCH 52 54
ATOM     54  CA  HIS X   4       3.109   6.665  23.781  1.00 23.96 LIG 0.17  C 
BRANCH 54 55
ATOM     55  C   HIS X   4       1.994   7.515  24.398  1.00 31.35 LIG 0.22  C 
ATOM     56 O    HIS X   4       2.219   8.643  24.839  1.00 37.06 LIG-0.29  OA
ENDBRANCH 54 55
BRANCH 54 57
ATOM     57  CB  HIS X   4       4.046   7.518  22.916  1.00 23.83 LIG 0.09  C 
BRANCH 57 58
ATOM     58  CG  HIS X   4       5.174   6.743  22.288  1.00 22.57 LIG 0.06  A 
ATOM     59 ND1  HIS X   4       5.753   7.096  21.083  1.00 22.63 LIG-0.24  NA
ATOM     60  CE1 HIS X   4       6.716   6.237  20.792  1.00 19.94 LIG 0.23  A 
ATOM     61 NE2  HIS X   4       6.770   5.332  21.750  1.00 20.25 LIG-0.25  NA
ATOM     62  CD2 HIS X   4       5.827   5.634  22.704  1.00 21.52 LIG 0.14  A 
ENDBRANCH 57 58
ENDBRANCH 54 57
ENDBRANCH 52 54
ENDBRANCH 43 50
ENDBRANCH 40 43
ENDBRANCH 38 39
BRANCH 38 63
ATOM     63  CB  HIS X   2       5.243   3.911  19.307  1.00 28.74 LIG 0.10  C 
BRANCH 63 64
ATOM     64  CG  HIS X   2       5.698   3.867  17.886  1.00 28.63 LIG 0.06  A 
ATOM     65 ND1  HIS X   2       6.237   2.735  17.322  1.00 31.27 LIG-0.24  NA
ATOM     66  CE1 HIS X   2       6.533   2.973  16.058  1.00 28.11 LIG 0.23  A 
ATOM     67 NE2  HIS X   2       6.216   4.223  15.782  1.00 29.87 LIG-0.25  NA
ATOM     68  CD2 HIS X   2       5.682   4.804  16.908  1.00 31.84 LIG 0.14  A 
ENDBRANCH 63 64
ENDBRANCH 38 63
ENDBRANCH 3 38
TORSDOF 24
ENDMDL
MODEL 16
USER: ADFR SOLUTION from run 42
USER: SCORE 17.694375 LL:  -5.311 LR: -14.209 RR:   0.000 FEB:  -7.050
USER: RMSD 6.551287
USER: SEED 41
USER: STATUS no improvement in best in 22 clusters for 5 generations
USER: GENES 26
USER: genes 0 Translation |==|  0.51119 0.54433 0.35895
USER: genes 1 Rotation |==|  0.56328 0.02208 0.37806 0.55214
USER: genes 2 Torsion [N]-C--CA-[N] |==|  0.30569
USER: genes 3 Torsion [C]-CA--N-[C] |==|  0.77623
USER: genes 4 Torsion [N]-C--CA-[N] |==|  0.39297
USER: genes 5 Torsion [C]-CA--N-[C] |==|  0.67016
USER: genes 6 Torsion [N]-C--CA-[N] |==|  0.50871
USER: genes 7 Torsion [C]-CA--N-[H2] |==|  0.62713
USER: genes 8 Torsion [C]-CA--CB-[CG] |==|  0.81757
USER: genes 9 Torsion [CA]-CB--CG-[ND1] |==|  0.76771
USER: genes 10 Torsion [C]-CA--CB-[CG] |==|  0.45802
USER: genes 11 Torsion [CA]-CB--CG-[CD2] |==|  0.05280
USER: genes 12 Torsion [C]-CA--CB-[CG] |==|  0.84940
USER: genes 13 Torsion [CA]-CB--CG-[CD2] |==|  0.78580
USER: genes 14 Torsion [C]-N--CA-[C] |==|  0.63393
USER: genes 15 Torsion [N]-CA--C-[N] |==|  0.82634
USER: genes 16 Torsion [C]-N--CA-[CB] |==|  0.75949
USER: genes 17 Torsion [N]-CA--CB-[CG] |==|  0.81828
USER: genes 18 Torsion [CA]-CB--CG-[ND1] |==|  0.64010
USER: genes 19 Torsion [N]-CA--C-[N] |==|  0.72671
USER: genes 20 Torsion [C]-N--CA-[C] |==|  0.63137
USER: genes 21 Torsion [N]-CA--C-[O] |==|  0.02730
USER: genes 22 Torsion [N]-CA--CB-[CG] |==|  0.96195
USER: genes 23 Torsion [CA]-CB--CG-[ND1] |==|  0.74345
USER: genes 24 Torsion [N]-CA--CB-[CG] |==|  0.86551
USER: genes 25 Torsion [CA]-CB--CG-[CD2] |==|  0.35865
ROOT
ATOM      1  C   HIS X   1       2.857   1.082  17.031  1.00 40.87 LIG 0.24  C 
ATOM      2 O    HIS X   1       3.988   1.477  16.734  1.00 40.80 LIG-0.27  OA
ATOM      3  N   HIS X   2       2.560  -0.159  17.365  1.00 30.16 LIG-0.35  N 
ATOM      4 H    HIS X   2       1.762  -0.420  17.552  1.00 30.16 LIG 0.16  HD
ENDROOT
BRANCH 1 5
ATOM      5  CA  HIS X   1       1.655   2.002  17.055  1.00 48.06 LIG 0.18  C 
BRANCH 5 6
ATOM      6  N   HIS X   1       1.779   2.940  18.174  1.00 54.11 LIG-0.35  N 
ATOM      7 H    HIS X   1       2.069   3.717  17.948  1.00 54.11 LIG 0.16  HD
ATOM      8  C   HIS X   0       1.470   2.612  19.412  1.00 58.54 LIG 0.24  C 
ATOM      9 O    HIS X   0       1.277   1.454  19.788  1.00 63.37 LIG-0.27  OA
BRANCH 8 10
ATOM     10  CA  HIS X   0       1.368   3.797  20.358  1.00 62.53 LIG 0.18  C 
BRANCH 10 11
ATOM     11  N   HIS X   0       0.268   3.651  21.319  1.00 60.73 LIG-0.35  N 
ATOM     12  C   HIS X  -1      -0.730   4.520  21.350  1.00 60.09 LIG 0.25  C 
ATOM     13 O    HIS X  -1      -1.073   5.198  20.380  1.00 62.79 LIG-0.27  OA
ATOM     14 H    HIS X   0       0.335   2.971  21.840  1.00 60.73 LIG 0.16  HD
BRANCH 12 15
ATOM     15  CA  HIS X  -1      -1.468   4.600  22.682  1.00 59.53 LIG 0.28  C 
BRANCH 15 16
ATOM     16  N   HIS X  -1      -2.620   5.557  22.570  1.00 57.14 LIG-0.07  N 
ATOM     17 H3   HIS X  -1      -2.531   6.044  21.830  1.00 57.14 LIG 0.28  HD
ATOM     18 H2   HIS X  -1      -2.628   6.096  23.279  1.00 57.14 LIG 0.28  HD
ATOM     19 H1   HIS X  -1      -3.383   5.101  22.534  1.00 57.14 LIG 0.28  HD
ENDBRANCH 15 16
BRANCH 15 20
ATOM     20  CB  HIS X  -1      -1.955   3.221  23.128  1.00 57.27 LIG 0.10  C 
BRANCH 20 21
ATOM     21  CG  HIS X  -1      -2.998   2.631  22.234  1.00 54.13 LIG 0.06  A 
ATOM     22 ND1  HIS X  -1      -4.337   2.939  22.349  1.00 52.72 LIG-0.24  NA
ATOM     23  CE1 HIS X  -1      -5.021   2.258  21.445  1.00 54.35 LIG 0.23  A 
ATOM     24 NE2  HIS X  -1      -4.174   1.518  20.749  1.00 53.65 LIG-0.25  NA
ATOM     25  CD2 HIS X  -1      -2.901   1.735  21.222  1.00 55.23 LIG 0.14  A 
ENDBRANCH 20 21
ENDBRANCH 15 20
ENDBRANCH 12 15
ENDBRANCH 10 11
BRANCH 10 26
ATOM     26  CB  HIS X   0       2.720   4.023  21.069  1.00 64.99 LIG 0.10  C 
BRANCH 26 27
ATOM     27  CG  HIS X   0       2.845   5.359  21.743  1.00 69.41 LIG 0.06  A 
ATOM     28 ND1  HIS X   0       4.063   5.917  22.074  1.00 72.01 LIG-0.24  NA
ATOM     29  CE1 HIS X   0       3.868   7.093  22.646  1.00 72.69 LIG 0.23  A 
ATOM     30 NE2  HIS X   0       2.568   7.321  22.693  1.00 72.94 LIG-0.25  NA
ATOM     31  CD2 HIS X   0       1.905   6.254  22.131  1.00 71.12 LIG 0.14  A 
ENDBRANCH 26 27
ENDBRANCH 10 26
ENDBRANCH 8 10
ENDBRANCH 5 6
BRANCH 5 32
ATOM     32  CB  HIS X   1       1.548   2.764  15.736  1.00 48.25 LIG 0.10  C 
BRANCH 32 33
ATOM     33  CG  HIS X   1       2.795   3.506  15.367  1.00 50.36 LIG 0.06  A 
ATOM     34  CD2 HIS X   1       3.305   4.674  15.829  1.00 51.47 LIG 0.14  A 
ATOM     35 NE2  HIS X   1       4.482   4.896  15.156  1.00 50.72 LIG-0.25  NA
ATOM     36  CE1 HIS X   1       4.688   3.899  14.313  1.00 48.50 LIG 0.23  A 
ATOM     37 ND1  HIS X   1       3.685   3.046  14.418  1.00 47.89 LIG-0.24  NA
ENDBRANCH 32 33
ENDBRANCH 5 32
ENDBRANCH 1 5
BRANCH 3 38
ATOM     38  CA  HIS X   2       3.576  -1.232  17.453  1.00 26.25 LIG 0.18  C 
BRANCH 38 39
ATOM     39  C   HIS X   2       3.157  -2.505  16.725  1.00 23.72 LIG 0.24  C 
ATOM     40  N   HIS X   3       2.069  -3.075  17.218  1.00 22.33 LIG-0.35  N 
ATOM     41 H    HIS X   3       1.638  -2.773  17.898  1.00 22.33 LIG 0.16  HD
ATOM     42 O    HIS X   2       3.796  -2.965  15.767  1.00 19.88 LIG-0.27  OA
BRANCH 40 43
ATOM     43  CA  HIS X   3       1.493  -4.296  16.632  1.00 22.38 LIG 0.18  C 
BRANCH 43 44
ATOM     44  CB  HIS X   3       0.502  -4.012  15.459  1.00 22.51 LIG 0.10  C 
BRANCH 44 45
ATOM     45  CG  HIS X   3      -0.757  -3.285  15.839  1.00 18.10 LIG 0.06  A 
ATOM     46  CD2 HIS X   3      -0.956  -2.111  16.488  1.00 18.75 LIG 0.14  A 
ATOM     47 NE2  HIS X   3      -2.314  -1.893  16.527  1.00 20.06 LIG-0.25  NA
ATOM     48  CE1 HIS X   3      -2.924  -2.889  15.912  1.00 21.69 LIG 0.23  A 
ATOM     49 ND1  HIS X   3      -2.003  -3.733  15.475  1.00 17.48 LIG-0.24  NA
ENDBRANCH 44 45
ENDBRANCH 43 44
BRANCH 43 50
ATOM     50  C   HIS X   3       2.585  -5.295  16.249  1.00 21.59 LIG 0.24  C 
ATOM     51 O    HIS X   3       3.135  -6.007  17.081  1.00 25.47 LIG-0.27  OA
ATOM     52  N   HIS X   4       2.929  -5.287  14.979  1.00 25.63 LIG-0.35  N 
ATOM     53 H    HIS X   4       2.577  -4.773  14.385  1.00 25.63 LIG 0.16  HD
BRANCH 52 54
ATOM     54  CA  HIS X   4       3.972  -6.184  14.473  1.00 23.96 LIG 0.17  C 
BRANCH 54 55
ATOM     55  C   HIS X   4       4.933  -5.365  13.605  1.00 31.35 LIG 0.22  C 
ATOM     56 O    HIS X   4       4.873  -4.134  13.570  1.00 37.06 LIG-0.29  OA
ENDBRANCH 54 55
BRANCH 54 57
ATOM     57  CB  HIS X   4       3.381  -7.363  13.690  1.00 23.83 LIG 0.09  C 
BRANCH 57 58
ATOM     58  CG  HIS X   4       1.897  -7.538  13.875  1.00 22.57 LIG 0.06  A 
ATOM     59 ND1  HIS X   4       1.348  -8.361  14.842  1.00 22.63 LIG-0.24  NA
ATOM     60  CE1 HIS X   4       0.029  -8.306  14.766  1.00 19.94 LIG 0.23  A 
ATOM     61 NE2  HIS X   4      -0.298  -7.494  13.779  1.00 20.25 LIG-0.25  NA
ATOM     62  CD2 HIS X   4       0.851  -6.991  13.215  1.00 21.52 LIG 0.14  A 
ENDBRANCH 57 58
ENDBRANCH 54 57
ENDBRANCH 52 54
ENDBRANCH 43 50
ENDBRANCH 40 43
ENDBRANCH 38 39
BRANCH 38 63
ATOM     63  CB  HIS X   2       3.895  -1.563  18.916  1.00 28.74 LIG 0.10  C 
BRANCH 63 64
ATOM     64  CG  HIS X   2       4.169  -0.362  19.758  1.00 28.63 LIG 0.06  A 
ATOM     65 ND1  HIS X   2       5.058   0.615  19.378  1.00 31.27 LIG-0.24  NA
ATOM     66  CE1 HIS X   2       5.090   1.562  20.297  1.00 28.11 LIG 0.23  A 
ATOM     67 NE2  HIS X   2       4.260   1.231  21.267  1.00 29.87 LIG-0.25  NA
ATOM     68  CD2 HIS X   2       3.663   0.032  20.950  1.00 31.84 LIG 0.14  A 
ENDBRANCH 63 64
ENDBRANCH 38 63
ENDBRANCH 3 38
TORSDOF 24
ENDMDL
MODEL 17
USER: ADFR SOLUTION from run 65
USER: SCORE 18.752251 LL:  -5.795 LR: -14.210 RR:   0.000 FEB:  -7.051
USER: RMSD 8.148411
USER: SEED 64
USER: STATUS no improvement in best in 19 clusters for 5 generations
USER: GENES 26
USER: genes 0 Translation |==|  0.52728 0.53631 0.37537
USER: genes 1 Rotation |==|  0.44026 0.25081 0.80478 0.80239
USER: genes 2 Torsion [N]-C--CA-[N] |==|  0.95371
USER: genes 3 Torsion [C]-CA--N-[C] |==|  0.80311
USER: genes 4 Torsion [N]-C--CA-[N] |==|  0.35041
USER: genes 5 Torsion [C]-CA--N-[C] |==|  0.63119
USER: genes 6 Torsion [N]-C--CA-[N] |==|  0.50604
USER: genes 7 Torsion [C]-CA--N-[H2] |==|  0.22743
USER: genes 8 Torsion [C]-CA--CB-[CG] |==|  0.79827
USER: genes 9 Torsion [CA]-CB--CG-[ND1] |==|  0.78363
USER: genes 10 Torsion [C]-CA--CB-[CG] |==|  0.47088
USER: genes 11 Torsion [CA]-CB--CG-[CD2] |==|  0.94875
USER: genes 12 Torsion [C]-CA--CB-[CG] |==|  0.82159
USER: genes 13 Torsion [CA]-CB--CG-[CD2] |==|  0.72812
USER: genes 14 Torsion [C]-N--CA-[C] |==|  0.87050
USER: genes 15 Torsion [N]-CA--C-[N] |==|  0.32788
USER: genes 16 Torsion [C]-N--CA-[CB] |==|  0.19858
USER: genes 17 Torsion [N]-CA--CB-[CG] |==|  0.26045
USER: genes 18 Torsion [CA]-CB--CG-[ND1] |==|  0.76636
USER: genes 19 Torsion [N]-CA--C-[N] |==|  0.87031
USER: genes 20 Torsion [C]-N--CA-[C] |==|  0.65135
USER: genes 21 Torsion [N]-CA--C-[O] |==|  0.00366
USER: genes 22 Torsion [N]-CA--CB-[CG] |==|  0.25272
USER: genes 23 Torsion [CA]-CB--CG-[ND1] |==|  0.20166
USER: genes 24 Torsion [N]-CA--CB-[CG] |==|  0.82471
USER: genes 25 Torsion [CA]-CB--CG-[CD2] |==|  0.18092
ROOT
ATOM      1  C   HIS X   1       3.182   0.890  17.327  1.00 40.87 LIG 0.24  C 
ATOM      2 O    HIS X   1       3.393  -0.229  16.850  1.00 40.80 LIG-0.27  OA
ATOM      3  N   HIS X   2       4.096   1.640  17.909  1.00 30.16 LIG-0.35  N 
ATOM      4 H    HIS X   2       3.927   2.410  18.252  1.00 30.16 LIG 0.16  HD
ENDROOT
BRANCH 1 5
ATOM      5  CA  HIS X   1       1.818   1.546  17.287  1.00 48.06 LIG 0.18  C 
BRANCH 5 6
ATOM      6  N   HIS X   1       1.781   2.655  18.244  1.00 54.11 LIG-0.35  N 
ATOM      7 H    HIS X   1       1.767   3.433  17.877  1.00 54.11 LIG 0.16  HD
ATOM      8  C   HIS X   0       1.769   2.466  19.547  1.00 58.54 LIG 0.24  C 
ATOM      9 O    HIS X   0       2.020   1.388  20.088  1.00 63.37 LIG-0.27  OA
BRANCH 8 10
ATOM     10  CA  HIS X   0       1.416   3.709  20.348  1.00 62.53 LIG 0.18  C 
BRANCH 10 11
ATOM     11  N   HIS X   0       0.300   3.478  21.273  1.00 60.73 LIG-0.35  N 
ATOM     12  C   HIS X  -1      -0.710   4.330  21.350  1.00 60.09 LIG 0.25  C 
ATOM     13 O    HIS X  -1      -1.044   5.075  20.426  1.00 62.79 LIG-0.27  OA
ATOM     14 H    HIS X   0       0.366   2.761  21.743  1.00 60.73 LIG 0.16  HD
BRANCH 12 15
ATOM     15  CA  HIS X  -1      -1.474   4.301  22.668  1.00 59.53 LIG 0.28  C 
BRANCH 15 16
ATOM     16  N   HIS X  -1      -2.623   5.267  22.615  1.00 57.14 LIG-0.07  N 
ATOM     17 H3   HIS X  -1      -2.865   5.487  23.442  1.00 57.14 LIG 0.28  HD
ATOM     18 H2   HIS X  -1      -3.310   4.888  22.195  1.00 57.14 LIG 0.28  HD
ATOM     19 H1   HIS X  -1      -2.374   6.000  22.174  1.00 57.14 LIG 0.28  HD
ENDBRANCH 15 16
BRANCH 15 20
ATOM     20  CB  HIS X  -1      -1.971   2.891  22.989  1.00 57.27 LIG 0.10  C 
BRANCH 20 21
ATOM     21  CG  HIS X  -1      -3.111   2.443  22.131  1.00 54.13 LIG 0.06  A 
ATOM     22 ND1  HIS X  -1      -4.407   2.863  22.338  1.00 52.72 LIG-0.24  NA
ATOM     23  CE1 HIS X  -1      -5.199   2.294  21.445  1.00 54.35 LIG 0.23  A 
ATOM     24 NE2  HIS X  -1      -4.463   1.518  20.667  1.00 53.65 LIG-0.25  NA
ATOM     25  CD2 HIS X  -1      -3.151   1.596  21.075  1.00 55.23 LIG 0.14  A 
ENDBRANCH 20 21
ENDBRANCH 15 20
ENDBRANCH 12 15
ENDBRANCH 10 11
BRANCH 10 26
ATOM     26  CB  HIS X   0       2.667   4.237  21.083  1.00 64.99 LIG 0.10  C 
BRANCH 26 27
ATOM     27  CG  HIS X   0       2.490   5.594  21.700  1.00 69.41 LIG 0.06  A 
ATOM     28 ND1  HIS X   0       3.334   6.086  22.676  1.00 72.01 LIG-0.24  NA
ATOM     29  CE1 HIS X   0       2.944   7.300  23.024  1.00 72.69 LIG 0.23  A 
ATOM     30 NE2  HIS X   0       1.880   7.617  22.308  1.00 72.94 LIG-0.25  NA
ATOM     31  CD2 HIS X   0       1.577   6.569  21.469  1.00 71.12 LIG 0.14  A 
ENDBRANCH 26 27
ENDBRANCH 10 26
ENDBRANCH 8 10
ENDBRANCH 5 6
BRANCH 5 32
ATOM     32  CB  HIS X   1       1.518   2.052  15.878  1.00 48.25 LIG 0.10  C 
BRANCH 32 33
ATOM     33  CG  HIS X   1       2.444   3.136  15.418  1.00 50.36 LIG 0.06  A 
ATOM     34  CD2 HIS X   1       2.299   4.483  15.407  1.00 51.47 LIG 0.14  A 
ATOM     35 NE2  HIS X   1       3.458   5.011  14.889  1.00 50.72 LIG-0.25  NA
ATOM     36  CE1 HIS X   1       4.283   4.021  14.593  1.00 48.50 LIG 0.23  A 
ATOM     37 ND1  HIS X   1       3.697   2.879  14.900  1.00 47.89 LIG-0.24  NA
ENDBRANCH 32 33
ENDBRANCH 5 32
ENDBRANCH 1 5
BRANCH 3 38
ATOM     38  CA  HIS X   2       5.514   1.230  18.032  1.00 26.25 LIG 0.18  C 
BRANCH 38 39
ATOM     39  C   HIS X   2       5.675  -0.206  18.521  1.00 23.72 LIG 0.24  C 
ATOM     40  N   HIS X   3       6.284  -1.004  17.659  1.00 22.33 LIG-0.35  N 
ATOM     41 H    HIS X   3       6.554  -0.751  16.883  1.00 22.33 LIG 0.16  HD
ATOM     42 O    HIS X   2       5.254  -0.584  19.624  1.00 19.88 LIG-0.27  OA
BRANCH 40 43
ATOM     43  CA  HIS X   3       6.556  -2.418  17.962  1.00 22.38 LIG 0.18  C 
BRANCH 43 44
ATOM     44  CB  HIS X   3       5.273  -3.308  17.968  1.00 22.51 LIG 0.10  C 
BRANCH 44 45
ATOM     45  CG  HIS X   3       4.960  -3.997  16.669  1.00 18.10 LIG 0.06  A 
ATOM     46  CD2 HIS X   3       5.180  -5.268  16.251  1.00 18.75 LIG 0.14  A 
ATOM     47 NE2  HIS X   3       4.648  -5.377  14.986  1.00 20.06 LIG-0.25  NA
ATOM     48  CE1 HIS X   3       4.110  -4.220  14.648  1.00 21.69 LIG 0.23  A 
ATOM     49 ND1  HIS X   3       4.273  -3.377  15.654  1.00 17.48 LIG-0.24  NA
ENDBRANCH 44 45
ENDBRANCH 43 44
BRANCH 43 50
ATOM     50  C   HIS X   3       7.654  -2.977  17.058  1.00 21.59 LIG 0.24  C 
ATOM     51 O    HIS X   3       8.614  -3.594  17.505  1.00 25.47 LIG-0.27  OA
ATOM     52  N   HIS X   4       7.522  -2.693  15.779  1.00 25.63 LIG-0.35  N 
ATOM     53 H    HIS X   4       6.873  -2.236  15.449  1.00 25.63 LIG 0.16  HD
BRANCH 52 54
ATOM     54  CA  HIS X   4       8.509  -3.154  14.798  1.00 23.96 LIG 0.17  C 
BRANCH 54 55
ATOM     55  C   HIS X   4       9.014  -1.939  14.015  1.00 31.35 LIG 0.22  C 
ATOM     56 O    HIS X   4       8.611  -0.802  14.268  1.00 37.06 LIG-0.29  OA
ENDBRANCH 54 55
BRANCH 54 57
ATOM     57  CB  HIS X   4       7.928  -4.220  13.861  1.00 23.83 LIG 0.09  C 
BRANCH 57 58
ATOM     58  CG  HIS X   4       7.312  -3.659  12.605  1.00 22.57 LIG 0.06  A 
ATOM     59 ND1  HIS X   4       8.060  -3.138  11.566  1.00 22.63 LIG-0.24  NA
ATOM     60  CE1 HIS X   4       7.249  -2.731  10.604  1.00 19.94 LIG 0.23  A 
ATOM     61 NE2  HIS X   4       6.005  -2.952  10.986  1.00 20.25 LIG-0.25  NA
ATOM     62  CD2 HIS X   4       6.019  -3.544  12.227  1.00 21.52 LIG 0.14  A 
ENDBRANCH 57 58
ENDBRANCH 54 57
ENDBRANCH 52 54
ENDBRANCH 43 50
ENDBRANCH 40 43
ENDBRANCH 38 39
BRANCH 38 63
ATOM     63  CB  HIS X   2       6.277   2.175  18.968  1.00 28.74 LIG 0.10  C 
BRANCH 63 64
ATOM     64  CG  HIS X   2       6.346   3.582  18.475  1.00 28.63 LIG 0.06  A 
ATOM     65 ND1  HIS X   2       7.531   4.173  18.104  1.00 31.27 LIG-0.24  NA
ATOM     66  CE1 HIS X   2       7.298   5.406  17.695  1.00 28.11 LIG 0.23  A 
ATOM     67 NE2  HIS X   2       6.005   5.642  17.796  1.00 29.87 LIG-0.25  NA
ATOM     68  CD2 HIS X   2       5.383   4.512  18.274  1.00 31.84 LIG 0.14  A 
ENDBRANCH 63 64
ENDBRANCH 38 63
ENDBRANCH 3 38
TORSDOF 24
ENDMDL
MODEL 18
USER: ADFR SOLUTION from run 25
USER: SCORE 19.307370 LL:  -5.851 LR: -14.195 RR:   0.000 FEB:  -7.036
USER: RMSD 10.184611
USER: SEED 24
USER: STATUS searching
USER: GENES 26
USER: genes 0 Translation |==|  0.56130 0.58732 0.38235
USER: genes 1 Rotation |==|  0.58005 0.35077 0.89241 0.75949
USER: genes 2 Torsion [N]-C--CA-[N] |==|  0.95466
USER: genes 3 Torsion [C]-CA--N-[C] |==|  0.69595
USER: genes 4 Torsion [N]-C--CA-[N] |==|  0.32391
USER: genes 5 Torsion [C]-CA--N-[C] |==|  0.66708
USER: genes 6 Torsion [N]-C--CA-[N] |==|  0.48364
USER: genes 7 Torsion [C]-CA--N-[H2] |==|  0.31546
USER: genes 8 Torsion [C]-CA--CB-[CG] |==|  0.80520
USER: genes 9 Torsion [CA]-CB--CG-[ND1] |==|  0.73422
USER: genes 10 Torsion [C]-CA--CB-[CG] |==|  0.48175
USER: genes 11 Torsion [CA]-CB--CG-[CD2] |==|  0.64041
USER: genes 12 Torsion [C]-CA--CB-[CG] |==|  0.29205
USER: genes 13 Torsion [CA]-CB--CG-[CD2] |==|  0.13261
USER: genes 14 Torsion [C]-N--CA-[C] |==|  0.58468
USER: genes 15 Torsion [N]-CA--C-[N] |==|  0.41889
USER: genes 16 Torsion [C]-N--CA-[CB] |==|  0.17778
USER: genes 17 Torsion [N]-CA--CB-[CG] |==|  0.03461
USER: genes 18 Torsion [CA]-CB--CG-[ND1] |==|  0.68987
USER: genes 19 Torsion [N]-CA--C-[N] |==|  0.10677
USER: genes 20 Torsion [C]-N--CA-[C] |==|  0.67198
USER: genes 21 Torsion [N]-CA--C-[O] |==|  0.92574
USER: genes 22 Torsion [N]-CA--CB-[CG] |==|  0.07233
USER: genes 23 Torsion [CA]-CB--CG-[ND1] |==|  0.13743
USER: genes 24 Torsion [N]-CA--CB-[CG] |==|  0.01158
USER: genes 25 Torsion [CA]-CB--CG-[CD2] |==|  0.25150
ROOT
ATOM      1  C   HIS X   1       3.871   2.114  17.452  1.00 40.87 LIG 0.24  C 
ATOM      2 O    HIS X   1       4.391   1.154  16.875  1.00 40.80 LIG-0.27  OA
ATOM      3  N   HIS X   2       4.390   3.325  17.509  1.00 30.16 LIG-0.35  N 
ATOM      4 H    HIS X   2       4.021   3.977  17.932  1.00 30.16 LIG 0.16  HD
ENDROOT
BRANCH 1 5
ATOM      5  CA  HIS X   1       2.542   2.007  18.170  1.00 48.06 LIG 0.18  C 
BRANCH 5 6
ATOM      6  N   HIS X   1       2.371   3.161  19.057  1.00 54.11 LIG-0.35  N 
ATOM      7 H    HIS X   1       2.237   3.903  18.644  1.00 54.11 LIG 0.16  HD
ATOM      8  C   HIS X   0       2.421   3.059  20.370  1.00 58.54 LIG 0.24  C 
ATOM      9 O    HIS X   0       2.837   2.065  20.967  1.00 63.37 LIG-0.27  OA
BRANCH 8 10
ATOM     10  CA  HIS X   0       1.914   4.290  21.104  1.00 62.53 LIG 0.18  C 
BRANCH 10 11
ATOM     11  N   HIS X   0       0.723   4.006  21.912  1.00 60.73 LIG-0.35  N 
ATOM     12  C   HIS X  -1      -0.420   4.636  21.687  1.00 60.09 LIG 0.25  C 
ATOM     13 O    HIS X  -1      -0.726   5.121  20.596  1.00 62.79 LIG-0.27  OA
ATOM     14 H    HIS X   0       0.836   3.413  22.524  1.00 60.73 LIG 0.16  HD
BRANCH 12 15
ATOM     15  CA  HIS X  -1      -1.368   4.688  22.879  1.00 59.53 LIG 0.28  C 
BRANCH 15 16
ATOM     16  N   HIS X  -1      -2.557   5.544  22.548  1.00 57.14 LIG-0.07  N 
ATOM     17 H3   HIS X  -1      -2.655   6.171  23.172  1.00 57.14 LIG 0.28  HD
ATOM     18 H2   HIS X  -1      -3.289   5.038  22.520  1.00 57.14 LIG 0.28  HD
ATOM     19 H1   HIS X  -1      -2.434   5.931  21.756  1.00 57.14 LIG 0.28  HD
ENDBRANCH 15 16
BRANCH 15 20
ATOM     20  CB  HIS X  -1      -1.814   3.285  23.293  1.00 57.27 LIG 0.10  C 
BRANCH 20 21
ATOM     21  CG  HIS X  -1      -2.734   2.630  22.315  1.00 54.13 LIG 0.06  A 
ATOM     22 ND1  HIS X  -1      -4.106   2.662  22.447  1.00 52.72 LIG-0.24  NA
ATOM     23  CE1 HIS X  -1      -4.657   1.988  21.452  1.00 54.35 LIG 0.23  A 
ATOM     24 NE2  HIS X  -1      -3.693   1.518  20.680  1.00 53.65 LIG-0.25  NA
ATOM     25  CD2 HIS X  -1      -2.479   1.908  21.197  1.00 55.23 LIG 0.14  A 
ENDBRANCH 20 21
ENDBRANCH 15 20
ENDBRANCH 12 15
ENDBRANCH 10 11
BRANCH 10 26
ATOM     26  CB  HIS X   0       3.049   4.901  21.954  1.00 64.99 LIG 0.10  C 
BRANCH 26 27
ATOM     27  CG  HIS X   0       2.696   6.211  22.599  1.00 69.41 LIG 0.06  A 
ATOM     28 ND1  HIS X   0       1.554   6.388  23.354  1.00 72.01 LIG-0.24  NA
ATOM     29  CE1 HIS X   0       1.509   7.632  23.799  1.00 72.69 LIG 0.23  A 
ATOM     30 NE2  HIS X   0       2.583   8.268  23.365  1.00 72.94 LIG-0.25  NA
ATOM     31  CD2 HIS X   0       3.344   7.401  22.616  1.00 71.12 LIG 0.14  A 
ENDBRANCH 26 27
ENDBRANCH 10 26
ENDBRANCH 8 10
ENDBRANCH 5 6
BRANCH 5 32
ATOM     32  CB  HIS X   1       1.401   1.945  17.157  1.00 48.25 LIG 0.10  C 
BRANCH 32 33
ATOM     33  CG  HIS X   1       0.808   0.578  17.003  1.00 50.36 LIG 0.06  A 
ATOM     34  CD2 HIS X   1       0.401  -0.324  17.930  1.00 51.47 LIG 0.14  A 
ATOM     35 NE2  HIS X   1      -0.076  -1.417  17.248  1.00 50.72 LIG-0.25  NA
ATOM     36  CE1 HIS X   1       0.033  -1.193  15.949  1.00 48.50 LIG 0.23  A 
ATOM     37 ND1  HIS X   1       0.565   0.003  15.773  1.00 47.89 LIG-0.24  NA
ENDBRANCH 32 33
ENDBRANCH 5 32
ENDBRANCH 1 5
BRANCH 3 38
ATOM     38  CA  HIS X   2       5.664   3.685  16.848  1.00 26.25 LIG 0.18  C 
BRANCH 38 39
ATOM     39  C   HIS X   2       6.425   4.782  17.585  1.00 23.72 LIG 0.24  C 
ATOM     40  N   HIS X   3       7.738   4.720  17.438  1.00 22.33 LIG-0.35  N 
ATOM     41 H    HIS X   3       8.140   4.111  16.984  1.00 22.33 LIG 0.16  HD
ATOM     42 O    HIS X   2       5.853   5.642  18.271  1.00 19.88 LIG-0.27  OA
BRANCH 40 43
ATOM     43  CA  HIS X   3       8.640   5.709  18.051  1.00 22.38 LIG 0.18  C 
BRANCH 43 44
ATOM     44  CB  HIS X   3       8.608   5.692  19.612  1.00 22.51 LIG 0.10  C 
BRANCH 44 45
ATOM     45  CG  HIS X   3       7.914   4.511  20.230  1.00 18.10 LIG 0.06  A 
ATOM     46  CD2 HIS X   3       8.275   3.208  20.331  1.00 18.75 LIG 0.14  A 
ATOM     47 NE2  HIS X   3       7.285   2.566  21.040  1.00 20.06 LIG-0.25  NA
ATOM     48  CE1 HIS X   3       6.360   3.446  21.374  1.00 21.69 LIG 0.23  A 
ATOM     49 ND1  HIS X   3       6.726   4.630  20.910  1.00 17.48 LIG-0.24  NA
ENDBRANCH 44 45
ENDBRANCH 43 44
BRANCH 43 50
ATOM     50  C   HIS X   3      10.057   5.588  17.491  1.00 21.59 LIG 0.24  C 
ATOM     51 O    HIS X   3      11.049   5.777  18.186  1.00 25.47 LIG-0.27  OA
ATOM     52  N   HIS X   4      10.128   5.327  16.203  1.00 25.63 LIG-0.35  N 
ATOM     53 H    HIS X   4       9.444   5.221  15.692  1.00 25.63 LIG 0.16  HD
BRANCH 52 54
ATOM     54  CA  HIS X   4      11.423   5.196  15.530  1.00 23.96 LIG 0.17  C 
BRANCH 54 55
ATOM     55  C   HIS X   4      11.524   6.289  14.460  1.00 31.35 LIG 0.22  C 
ATOM     56 O    HIS X   4      10.516   6.763  13.934  1.00 37.06 LIG-0.29  OA
ENDBRANCH 54 55
BRANCH 54 57
ATOM     57  CB  HIS X   4      11.612   3.801  14.920  1.00 23.83 LIG 0.09  C 
BRANCH 57 58
ATOM     58  CG  HIS X   4      10.322   3.105  14.576  1.00 22.57 LIG 0.06  A 
ATOM     59 ND1  HIS X   4       9.310   3.705  13.849  1.00 22.63 LIG-0.24  NA
ATOM     60  CE1 HIS X   4       8.311   2.850  13.701  1.00 19.94 LIG 0.23  A 
ATOM     61 NE2  HIS X   4       8.628   1.728  14.317  1.00 20.25 LIG-0.25  NA
ATOM     62  CD2 HIS X   4       9.885   1.856  14.860  1.00 21.52 LIG 0.14  A 
ENDBRANCH 57 58
ENDBRANCH 54 57
ENDBRANCH 52 54
ENDBRANCH 43 50
ENDBRANCH 40 43
ENDBRANCH 38 39
BRANCH 38 63
ATOM     63  CB  HIS X   2       5.423   4.119  15.397  1.00 28.74 LIG 0.10  C 
BRANCH 63 64
ATOM     64  CG  HIS X   2       3.981   4.176  15.019  1.00 28.63 LIG 0.06  A 
ATOM     65 ND1  HIS X   2       3.309   3.085  14.520  1.00 31.27 LIG-0.24  NA
ATOM     66  CE1 HIS X   2       2.051   3.412  14.289  1.00 28.11 LIG 0.23  A 
ATOM     67 NE2  HIS X   2       1.883   4.680  14.610  1.00 29.87 LIG-0.25  NA
ATOM     68  CD2 HIS X   2       3.076   5.181  15.079  1.00 31.84 LIG 0.14  A 
ENDBRANCH 63 64
ENDBRANCH 38 63
ENDBRANCH 3 38
TORSDOF 24
ENDMDL
MODEL 19
USER: ADFR SOLUTION from run 7
USER: SCORE 18.085182 LL:  -6.407 LR: -14.196 RR:   0.000 FEB:  -7.037
USER: RMSD 9.164915
USER: SEED 604044
USER: STATUS no improvement in best in 6 clusters for 5 generations
USER: GENES 26
USER: genes 0 Translation |==|  0.52056 0.56769 0.39260
USER: genes 1 Rotation |==|  0.34047 0.21080 0.85721 0.61539
USER: genes 2 Torsion [N]-C--CA-[N] |==|  0.70732
USER: genes 3 Torsion [C]-CA--N-[C] |==|  0.72093
USER: genes 4 Torsion [N]-C--CA-[N] |==|  0.40521
USER: genes 5 Torsion [C]-CA--N-[C] |==|  0.52878
USER: genes 6 Torsion [N]-C--CA-[N] |==|  0.90200
USER: genes 7 Torsion [C]-CA--N-[H2] |==|  0.08338
USER: genes 8 Torsion [C]-CA--CB-[CG] |==|  0.07278
USER: genes 9 Torsion [CA]-CB--CG-[ND1] |==|  0.67123
USER: genes 10 Torsion [C]-CA--CB-[CG] |==|  0.11130
USER: genes 11 Torsion [CA]-CB--CG-[CD2] |==|  0.18787
USER: genes 12 Torsion [C]-CA--CB-[CG] |==|  0.19778
USER: genes 13 Torsion [CA]-CB--CG-[CD2] |==|  0.60221
USER: genes 14 Torsion [C]-N--CA-[C] |==|  0.63333
USER: genes 15 Torsion [N]-CA--C-[N] |==|  0.97573
USER: genes 16 Torsion [C]-N--CA-[CB] |==|  0.23466
USER: genes 17 Torsion [N]-CA--CB-[CG] |==|  0.65665
USER: genes 18 Torsion [CA]-CB--CG-[ND1] |==|  0.78420
USER: genes 19 Torsion [N]-CA--C-[N] |==|  0.44683
USER: genes 20 Torsion [C]-N--CA-[C] |==|  0.61036
USER: genes 21 Torsion [N]-CA--C-[O] |==|  0.94112
USER: genes 22 Torsion [N]-CA--CB-[CG] |==|  0.67347
USER: genes 23 Torsion [CA]-CB--CG-[ND1] |==|  0.86683
USER: genes 24 Torsion [N]-CA--CB-[CG] |==|  0.84668
USER: genes 25 Torsion [CA]-CB--CG-[CD2] |==|  0.89579
ROOT
ATOM      1  C   HIS X   1       3.046   1.643  17.637  1.00 40.87 LIG 0.24  C 
ATOM      2 O    HIS X   1       3.795   0.700  17.912  1.00 40.80 LIG-0.27  OA
ATOM      3  N   HIS X   2       3.083   2.824  18.220  1.00 30.16 LIG-0.35  N 
ATOM      4 H    HIS X   2       2.541   3.464  18.028  1.00 30.16 LIG 0.16  HD
ENDROOT
BRANCH 1 5
ATOM      5  CA  HIS X   1       1.981   1.548  16.565  1.00 48.06 LIG 0.18  C 
BRANCH 5 6
ATOM      6  N   HIS X   1       0.857   0.749  17.061  1.00 54.11 LIG-0.35  N 
ATOM      7 H    HIS X   1       0.323   1.181  17.579  1.00 54.11 LIG 0.16  HD
ATOM      8  C   HIS X   0       0.689  -0.517  16.737  1.00 58.54 LIG 0.24  C 
ATOM      9 O    HIS X   0       1.553  -1.208  16.195  1.00 63.37 LIG-0.27  OA
BRANCH 8 10
ATOM     10  CA  HIS X   0      -0.682  -1.068  17.092  1.00 62.53 LIG 0.18  C 
BRANCH 10 11
ATOM     11  N   HIS X   0      -1.153  -2.061  16.120  1.00 60.73 LIG-0.35  N 
ATOM     12  C   HIS X  -1      -2.401  -2.501  16.145  1.00 60.09 LIG 0.25  C 
ATOM     13 O    HIS X  -1      -3.341  -1.857  16.616  1.00 62.79 LIG-0.27  OA
ATOM     14 H    HIS X   0      -0.560  -2.319  15.554  1.00 60.73 LIG 0.16  HD
BRANCH 12 15
ATOM     15  CA  HIS X  -1      -2.611  -3.869  15.505  1.00 59.53 LIG 0.28  C 
BRANCH 15 16
ATOM     16  N   HIS X  -1      -1.698  -4.025  14.323  1.00 57.14 LIG-0.07  N 
ATOM     17 H3   HIS X  -1      -1.487  -4.884  14.222  1.00 57.14 LIG 0.28  HD
ATOM     18 H2   HIS X  -1      -0.955  -3.553  14.457  1.00 57.14 LIG 0.28  HD
ATOM     19 H1   HIS X  -1      -2.108  -3.732  13.589  1.00 57.14 LIG 0.28  HD
ENDBRANCH 15 16
BRANCH 15 20
ATOM     20  CB  HIS X  -1      -2.382  -4.993  16.515  1.00 57.27 LIG 0.10  C 
BRANCH 20 21
ATOM     21  CG  HIS X  -1      -2.622  -4.589  17.934  1.00 54.13 LIG 0.06  A 
ATOM     22 ND1  HIS X  -1      -1.633  -4.620  18.894  1.00 52.72 LIG-0.24  NA
ATOM     23  CE1 HIS X  -1      -2.136  -4.229  20.052  1.00 54.35 LIG 0.23  A 
ATOM     24 NE2  HIS X  -1      -3.417  -3.948  19.879  1.00 53.65 LIG-0.25  NA
ATOM     25  CD2 HIS X  -1      -3.745  -4.163  18.561  1.00 55.23 LIG 0.14  A 
ENDBRANCH 20 21
ENDBRANCH 15 20
ENDBRANCH 12 15
ENDBRANCH 10 11
BRANCH 10 26
ATOM     26  CB  HIS X   0      -0.666  -1.637  18.528  1.00 64.99 LIG 0.10  C 
BRANCH 26 27
ATOM     27  CG  HIS X   0       0.115  -0.811  19.509  1.00 69.41 LIG 0.06  A 
ATOM     28 ND1  HIS X   0       1.301  -1.241  20.069  1.00 72.01 LIG-0.24  NA
ATOM     29  CE1 HIS X   0       1.766  -0.310  20.884  1.00 72.69 LIG 0.23  A 
ATOM     30 NE2  HIS X   0       0.927   0.711  20.870  1.00 72.94 LIG-0.25  NA
ATOM     31  CD2 HIS X   0      -0.112   0.426  20.014  1.00 71.12 LIG 0.14  A 
ENDBRANCH 26 27
ENDBRANCH 10 26
ENDBRANCH 8 10
ENDBRANCH 5 6
BRANCH 5 32
ATOM     32  CB  HIS X   1       1.505   2.944  16.170  1.00 48.25 LIG 0.10  C 
BRANCH 32 33
ATOM     33  CG  HIS X   1       2.516   3.726  15.390  1.00 50.36 LIG 0.06  A 
ATOM     34  CD2 HIS X   1       2.823   5.046  15.404  1.00 51.47 LIG 0.14  A 
ATOM     35 NE2  HIS X   1       3.837   5.235  14.496  1.00 50.72 LIG-0.25  NA
ATOM     36  CE1 HIS X   1       4.141   4.073  13.946  1.00 48.50 LIG 0.23  A 
ATOM     37 ND1  HIS X   1       3.358   3.144  14.464  1.00 47.89 LIG-0.24  NA
ENDBRANCH 32 33
ENDBRANCH 5 32
ENDBRANCH 1 5
BRANCH 3 38
ATOM     38  CA  HIS X   2       4.067   3.171  19.271  1.00 26.25 LIG 0.18  C 
BRANCH 38 39
ATOM     39  C   HIS X   2       3.426   3.830  20.488  1.00 23.72 LIG 0.24  C 
ATOM     40  N   HIS X   3       2.151   4.142  20.324  1.00 22.33 LIG-0.35  N 
ATOM     41 H    HIS X   3       1.716   4.006  19.595  1.00 22.33 LIG 0.16  HD
ATOM     42 O    HIS X   2       4.059   4.062  21.529  1.00 19.88 LIG-0.27  OA
BRANCH 40 43
ATOM     43  CA  HIS X   3       1.354   4.759  21.396  1.00 22.38 LIG 0.18  C 
BRANCH 43 44
ATOM     44  CB  HIS X   3       1.505   6.311  21.464  1.00 22.51 LIG 0.10  C 
BRANCH 44 45
ATOM     45  CG  HIS X   3       1.962   6.858  22.787  1.00 18.10 LIG 0.06  A 
ATOM     46  CD2 HIS X   3       3.152   7.371  23.185  1.00 18.75 LIG 0.14  A 
ATOM     47 NE2  HIS X   3       3.006   7.768  24.495  1.00 20.06 LIG-0.25  NA
ATOM     48  CE1 HIS X   3       1.768   7.521  24.880  1.00 21.69 LIG 0.23  A 
ATOM     49 ND1  HIS X   3       1.115   6.987  23.861  1.00 17.48 LIG-0.24  NA
ENDBRANCH 44 45
ENDBRANCH 43 44
BRANCH 43 50
ATOM     50  C   HIS X   3      -0.107   4.314  21.326  1.00 21.59 LIG 0.24  C 
ATOM     51 O    HIS X   3      -0.607   3.885  20.293  1.00 25.47 LIG-0.27  OA
ATOM     52  N   HIS X   4      -0.796   4.484  22.435  1.00 25.63 LIG-0.35  N 
ATOM     53 H    HIS X   4      -0.472   4.811  23.161  1.00 25.63 LIG 0.16  HD
BRANCH 52 54
ATOM     54  CA  HIS X   4      -2.212   4.113  22.508  1.00 23.96 LIG 0.17  C 
BRANCH 54 55
ATOM     55  C   HIS X   4      -2.950   5.183  23.319  1.00 31.35 LIG 0.22  C 
ATOM     56 O    HIS X   4      -2.347   5.924  24.098  1.00 37.06 LIG-0.29  OA
ENDBRANCH 54 55
BRANCH 54 57
ATOM     57  CB  HIS X   4      -2.406   2.719  23.118  1.00 23.83 LIG 0.09  C 
BRANCH 57 58
ATOM     58  CG  HIS X   4      -3.041   1.724  22.182  1.00 22.57 LIG 0.06  A 
ATOM     59 ND1  HIS X   4      -4.176   2.002  21.442  1.00 22.63 LIG-0.24  NA
ATOM     60  CE1 HIS X   4      -4.492   0.944  20.713  1.00 19.94 LIG 0.23  A 
ATOM     61 NE2  HIS X   4      -3.618  -0.012  20.964  1.00 20.25 LIG-0.25  NA
ATOM     62  CD2 HIS X   4      -2.693   0.456  21.868  1.00 21.52 LIG 0.14  A 
ENDBRANCH 57 58
ENDBRANCH 54 57
ENDBRANCH 52 54
ENDBRANCH 43 50
ENDBRANCH 40 43
ENDBRANCH 38 39
BRANCH 38 63
ATOM     63  CB  HIS X   2       5.162   4.088  18.713  1.00 28.74 LIG 0.10  C 
BRANCH 63 64
ATOM     64  CG  HIS X   2       5.861   3.532  17.517  1.00 28.63 LIG 0.06  A 
ATOM     65 ND1  HIS X   2       6.275   4.325  16.473  1.00 31.27 LIG-0.24  NA
ATOM     66  CE1 HIS X   2       6.875   3.577  15.566  1.00 28.11 LIG 0.23  A 
ATOM     67 NE2  HIS X   2       6.857   2.324  15.977  1.00 29.87 LIG-0.25  NA
ATOM     68  CD2 HIS X   2       6.234   2.269  17.203  1.00 31.84 LIG 0.14  A 
ENDBRANCH 63 64
ENDBRANCH 38 63
ENDBRANCH 3 38
TORSDOF 24
ENDMDL
MODEL 20
USER: ADFR SOLUTION from run 24
USER: SCORE 18.908888 LL:  -5.187 LR: -14.190 RR:   0.000 FEB:  -7.031
USER: RMSD 10.580188
USER: SEED 23
USER: STATUS no improvement in best in 16 clusters for 5 generations
USER: GENES 26
USER: genes 0 Translation |==|  0.48134 0.60690 0.49766
USER: genes 1 Rotation |==|  0.55965 0.70623 0.84896 0.78660
USER: genes 2 Torsion [N]-C--CA-[N] |==|  0.31721
USER: genes 3 Torsion [C]-CA--N-[C] |==|  0.68630
USER: genes 4 Torsion [N]-C--CA-[N] |==|  0.36111
USER: genes 5 Torsion [C]-CA--N-[C] |==|  0.78920
USER: genes 6 Torsion [N]-C--CA-[N] |==|  0.65947
USER: genes 7 Torsion [C]-CA--N-[H2] |==|  0.88056
USER: genes 8 Torsion [C]-CA--CB-[CG] |==|  0.61631
USER: genes 9 Torsion [CA]-CB--CG-[ND1] |==|  0.85806
USER: genes 10 Torsion [C]-CA--CB-[CG] |==|  0.59443
USER: genes 11 Torsion [CA]-CB--CG-[CD2] |==|  0.83762
USER: genes 12 Torsion [C]-CA--CB-[CG] |==|  0.43051
USER: genes 13 Torsion [CA]-CB--CG-[CD2] |==|  0.01700
USER: genes 14 Torsion [C]-N--CA-[C] |==|  0.80116
USER: genes 15 Torsion [N]-CA--C-[N] |==|  0.95770
USER: genes 16 Torsion [C]-N--CA-[CB] |==|  0.82758
USER: genes 17 Torsion [N]-CA--CB-[CG] |==|  0.30067
USER: genes 18 Torsion [CA]-CB--CG-[ND1] |==|  0.21045
USER: genes 19 Torsion [N]-CA--C-[N] |==|  0.45723
USER: genes 20 Torsion [C]-N--CA-[C] |==|  0.85946
USER: genes 21 Torsion [N]-CA--C-[O] |==|  0.62057
USER: genes 22 Torsion [N]-CA--CB-[CG] |==|  0.65383
USER: genes 23 Torsion [CA]-CB--CG-[ND1] |==|  0.91295
USER: genes 24 Torsion [N]-CA--CB-[CG] |==|  0.20518
USER: genes 25 Torsion [CA]-CB--CG-[CD2] |==|  0.76998
ROOT
ATOM      1  C   HIS X   1       2.252   2.584  19.528  1.00 40.87 LIG 0.24  C 
ATOM      2 O    HIS X   1       2.743   1.540  19.969  1.00 40.80 LIG-0.27  OA
ATOM      3  N   HIS X   2       2.136   2.874  18.247  1.00 30.16 LIG-0.35  N 
ATOM      4 H    HIS X   2       1.808   3.615  17.959  1.00 30.16 LIG 0.16  HD
ENDROOT
BRANCH 1 5
ATOM      5  CA  HIS X   1       1.707   3.670  20.431  1.00 48.06 LIG 0.18  C 
BRANCH 5 6
ATOM      6  N   HIS X   1       0.538   3.164  21.154  1.00 54.11 LIG-0.35  N 
ATOM      7 H    HIS X   1       0.720   2.544  21.722  1.00 54.11 LIG 0.16  HD
ATOM      8  C   HIS X   0      -0.679   3.624  20.947  1.00 58.54 LIG 0.24  C 
ATOM      9 O    HIS X   0      -0.991   4.335  19.989  1.00 63.37 LIG-0.27  OA
BRANCH 8 10
ATOM     10  CA  HIS X   0      -1.688   3.200  22.002  1.00 62.53 LIG 0.18  C 
BRANCH 10 11
ATOM     11  N   HIS X   0      -2.457   4.335  22.526  1.00 60.73 LIG-0.35  N 
ATOM     12  C   HIS X  -1      -1.919   5.184  23.387  1.00 60.09 LIG 0.25  C 
ATOM     13 O    HIS X  -1      -0.706   5.389  23.473  1.00 62.79 LIG-0.27  OA
ATOM     14 H    HIS X   0      -3.262   4.391  22.229  1.00 60.73 LIG 0.16  HD
BRANCH 12 15
ATOM     15  CA  HIS X  -1      -2.920   5.936  24.256  1.00 59.53 LIG 0.28  C 
BRANCH 15 16
ATOM     16  N   HIS X  -1      -2.742   7.417  24.075  1.00 57.14 LIG-0.07  N 
ATOM     17 H3   HIS X  -1      -3.106   7.668  23.303  1.00 57.14 LIG 0.28  HD
ATOM     18 H2   HIS X  -1      -1.874   7.613  24.070  1.00 57.14 LIG 0.28  HD
ATOM     19 H1   HIS X  -1      -3.140   7.848  24.745  1.00 57.14 LIG 0.28  HD
ENDBRANCH 15 16
BRANCH 15 20
ATOM     20  CB  HIS X  -1      -4.356   5.523  23.929  1.00 57.27 LIG 0.10  C 
BRANCH 20 21
ATOM     21  CG  HIS X  -1      -5.317   6.666  23.880  1.00 54.13 LIG 0.06  A 
ATOM     22 ND1  HIS X  -1      -5.424   7.592  24.896  1.00 52.72 LIG-0.24  NA
ATOM     23  CE1 HIS X  -1      -6.363   8.472  24.588  1.00 54.35 LIG 0.23  A 
ATOM     24 NE2  HIS X  -1      -6.869   8.149  23.410  1.00 53.65 LIG-0.25  NA
ATOM     25  CD2 HIS X  -1      -6.230   7.023  22.945  1.00 55.23 LIG 0.14  A 
ENDBRANCH 20 21
ENDBRANCH 15 20
ENDBRANCH 12 15
ENDBRANCH 10 11
BRANCH 10 26
ATOM     26  CB  HIS X   0      -2.610   2.098  21.437  1.00 64.99 LIG 0.10  C 
BRANCH 26 27
ATOM     27  CG  HIS X   0      -4.020   2.153  21.952  1.00 69.41 LIG 0.06  A 
ATOM     28 ND1  HIS X   0      -5.114   2.268  21.118  1.00 72.01 LIG-0.24  NA
ATOM     29  CE1 HIS X   0      -6.220   2.284  21.844  1.00 72.69 LIG 0.23  A 
ATOM     30 NE2  HIS X   0      -5.884   2.178  23.117  1.00 72.94 LIG-0.25  NA
ATOM     31  CD2 HIS X   0      -4.514   2.090  23.212  1.00 71.12 LIG 0.14  A 
ENDBRANCH 26 27
ENDBRANCH 10 26
ENDBRANCH 8 10
ENDBRANCH 5 6
BRANCH 5 32
ATOM     32  CB  HIS X   1       2.782   4.126  21.415  1.00 48.25 LIG 0.10  C 
BRANCH 32 33
ATOM     33  CG  HIS X   1       2.582   5.522  21.919  1.00 50.36 LIG 0.06  A 
ATOM     34  CD2 HIS X   1       1.563   6.396  21.735  1.00 51.47 LIG 0.14  A 
ATOM     35 NE2  HIS X   1       1.880   7.539  22.428  1.00 50.72 LIG-0.25  NA
ATOM     36  CE1 HIS X   1       3.052   7.372  23.017  1.00 48.50 LIG 0.23  A 
ATOM     37 ND1  HIS X   1       3.500   6.164  22.725  1.00 47.89 LIG-0.24  NA
ENDBRANCH 32 33
ENDBRANCH 5 32
ENDBRANCH 1 5
BRANCH 3 38
ATOM     38  CA  HIS X   2       2.561   1.950  17.172  1.00 26.25 LIG 0.18  C 
BRANCH 38 39
ATOM     39  C   HIS X   2       4.078   1.828  17.060  1.00 23.72 LIG 0.24  C 
ATOM     40  N   HIS X   3       4.743   2.777  17.698  1.00 22.33 LIG-0.35  N 
ATOM     41 H    HIS X   3       4.365   3.421  18.126  1.00 22.33 LIG 0.16  HD
ATOM     42 O    HIS X   2       4.627   0.924  16.413  1.00 19.88 LIG-0.27  OA
BRANCH 40 43
ATOM     43  CA  HIS X   3       6.214   2.814  17.729  1.00 22.38 LIG 0.18  C 
BRANCH 43 44
ATOM     44  CB  HIS X   3       6.849   1.568  18.423  1.00 22.51 LIG 0.10  C 
BRANCH 44 45
ATOM     45  CG  HIS X   3       7.539   0.599  17.504  1.00 18.10 LIG 0.06  A 
ATOM     46  CD2 HIS X   3       7.138  -0.586  16.981  1.00 18.75 LIG 0.14  A 
ATOM     47 NE2  HIS X   3       8.149  -1.032  16.161  1.00 20.06 LIG-0.25  NA
ATOM     48  CE1 HIS X   3       9.128  -0.146  16.170  1.00 21.69 LIG 0.23  A 
ATOM     49 ND1  HIS X   3       8.775   0.854  16.961  1.00 17.48 LIG-0.24  NA
ENDBRANCH 44 45
ENDBRANCH 43 44
BRANCH 43 50
ATOM     50  C   HIS X   3       6.792   3.069  16.338  1.00 21.59 LIG 0.24  C 
ATOM     51 O    HIS X   3       6.135   2.893  15.318  1.00 25.47 LIG-0.27  OA
ATOM     52  N   HIS X   4       8.058   3.430  16.316  1.00 25.63 LIG-0.35  N 
ATOM     53 H    HIS X   4       8.545   3.530  17.018  1.00 25.63 LIG 0.16  HD
BRANCH 52 54
ATOM     54  CA  HIS X   4       8.745   3.696  15.050  1.00 23.96 LIG 0.17  C 
BRANCH 54 55
ATOM     55  C   HIS X   4       8.503   2.509  14.111  1.00 31.35 LIG 0.22  C 
ATOM     56 O    HIS X   4       9.416   2.033  13.433  1.00 37.06 LIG-0.29  OA
ENDBRANCH 54 55
BRANCH 54 57
ATOM     57  CB  HIS X   4      10.245   3.947  15.255  1.00 23.83 LIG 0.09  C 
BRANCH 57 58
ATOM     58  CG  HIS X   4      10.729   5.255  14.690  1.00 22.57 LIG 0.06  A 
ATOM     59 ND1  HIS X   4      10.173   5.847  13.570  1.00 22.63 LIG-0.24  NA
ATOM     60  CE1 HIS X   4      10.800   6.984  13.318  1.00 19.94 LIG 0.23  A 
ATOM     61 NE2  HIS X   4      11.750   7.144  14.219  1.00 20.25 LIG-0.25  NA
ATOM     62  CD2 HIS X   4      11.718   6.084  15.095  1.00 21.52 LIG 0.14  A 
ENDBRANCH 57 58
ENDBRANCH 54 57
ENDBRANCH 52 54
ENDBRANCH 43 50
ENDBRANCH 40 43
ENDBRANCH 38 39
BRANCH 38 63
ATOM     63  CB  HIS X   2       1.985   2.383  15.819  1.00 28.74 LIG 0.10  C 
BRANCH 63 64
ATOM     64  CG  HIS X   2       2.650   3.587  15.240  1.00 28.63 LIG 0.06  A 
ATOM     65 ND1  HIS X   2       3.634   3.495  14.285  1.00 31.27 LIG-0.24  NA
ATOM     66  CE1 HIS X   2       4.029   4.707  13.943  1.00 28.11 LIG 0.23  A 
ATOM     67 NE2  HIS X   2       3.344   5.585  14.649  1.00 29.87 LIG-0.25  NA
ATOM     68  CD2 HIS X   2       2.465   4.910  15.465  1.00 31.84 LIG 0.14  A 
ENDBRANCH 63 64
ENDBRANCH 38 63
ENDBRANCH 3 38
TORSDOF 24
ENDMDL
MODEL 21
USER: ADFR SOLUTION from run 13
USER: SCORE 18.083518 LL:  -6.149 LR: -14.177 RR:   0.000 FEB:  -7.018
USER: RMSD 11.289291
USER: SEED 970653
USER: STATUS searching
USER: GENES 26
USER: genes 0 Translation |==|  0.55057 0.56425 0.38022
USER: genes 1 Rotation |==|  0.47420 0.31064 0.86936 0.77758
USER: genes 2 Torsion [N]-C--CA-[N] |==|  0.92190
USER: genes 3 Torsion [C]-CA--N-[C] |==|  0.76449
USER: genes 4 Torsion [N]-C--CA-[N] |==|  0.34707
USER: genes 5 Torsion [C]-CA--N-[C] |==|  0.63392
USER: genes 6 Torsion [N]-C--CA-[N] |==|  0.49526
USER: genes 7 Torsion [C]-CA--N-[H2] |==|  0.22163
USER: genes 8 Torsion [C]-CA--CB-[CG] |==|  0.78492
USER: genes 9 Torsion [CA]-CB--CG-[ND1] |==|  0.80884
USER: genes 10 Torsion [C]-CA--CB-[CG] |==|  0.48813
USER: genes 11 Torsion [CA]-CB--CG-[CD2] |==|  0.74924
USER: genes 12 Torsion [C]-CA--CB-[CG] |==|  0.85201
USER: genes 13 Torsion [CA]-CB--CG-[CD2] |==|  0.36623
USER: genes 14 Torsion [C]-N--CA-[C] |==|  0.46667
USER: genes 15 Torsion [N]-CA--C-[N] |==|  0.45715
USER: genes 16 Torsion [C]-N--CA-[CB] |==|  0.20647
USER: genes 17 Torsion [N]-CA--CB-[CG] |==|  0.46138
USER: genes 18 Torsion [CA]-CB--CG-[ND1] |==|  0.18260
USER: genes 19 Torsion [N]-CA--C-[N] |==|  0.35936
USER: genes 20 Torsion [C]-N--CA-[C] |==|  0.61751
USER: genes 21 Torsion [N]-CA--C-[O] |==|  0.08486
USER: genes 22 Torsion [N]-CA--CB-[CG] |==|  0.17026
USER: genes 23 Torsion [CA]-CB--CG-[ND1] |==|  0.90403
USER: genes 24 Torsion [N]-CA--CB-[CG] |==|  0.28768
USER: genes 25 Torsion [CA]-CB--CG-[CD2] |==|  0.30070
ROOT
ATOM      1  C   HIS X   1       3.654   1.560  17.414  1.00 40.87 LIG 0.24  C 
ATOM      2 O    HIS X   1       4.073   0.441  17.103  1.00 40.80 LIG-0.27  OA
ATOM      3  N   HIS X   2       4.418   2.613  17.630  1.00 30.16 LIG-0.35  N 
ATOM      4 H    HIS X   2       4.109   3.380  17.864  1.00 30.16 LIG 0.16  HD
ENDROOT
BRANCH 1 5
ATOM      5  CA  HIS X   1       2.179   1.859  17.577  1.00 48.06 LIG 0.18  C 
BRANCH 5 6
ATOM      6  N   HIS X   1       2.004   2.956  18.532  1.00 54.11 LIG-0.35  N 
ATOM      7 H    HIS X   1       1.932   3.731  18.166  1.00 54.11 LIG 0.16  HD
ATOM      8  C   HIS X   0       1.963   2.763  19.835  1.00 58.54 LIG 0.24  C 
ATOM      9 O    HIS X   0       2.293   1.709  20.384  1.00 63.37 LIG-0.27  OA
BRANCH 8 10
ATOM     10  CA  HIS X   0       1.468   3.964  20.622  1.00 62.53 LIG 0.18  C 
BRANCH 10 11
ATOM     11  N   HIS X   0       0.328   3.634  21.485  1.00 60.73 LIG-0.35  N 
ATOM     12  C   HIS X  -1      -0.759   4.389  21.499  1.00 60.09 LIG 0.25  C 
ATOM     13 O    HIS X  -1      -1.107   5.098  20.552  1.00 62.79 LIG-0.27  OA
ATOM     14 H    HIS X   0       0.432   2.928  21.964  1.00 60.73 LIG 0.16  HD
BRANCH 12 15
ATOM     15  CA  HIS X  -1      -1.591   4.294  22.773  1.00 59.53 LIG 0.28  C 
BRANCH 15 16
ATOM     16  N   HIS X  -1      -2.768   5.223  22.685  1.00 57.14 LIG-0.07  N 
ATOM     17 H3   HIS X  -1      -3.080   5.384  23.503  1.00 57.14 LIG 0.28  HD
ATOM     18 H2   HIS X  -1      -3.407   4.846  22.193  1.00 57.14 LIG 0.28  HD
ATOM     19 H1   HIS X  -1      -2.515   5.988  22.308  1.00 57.14 LIG 0.28  HD
ENDBRANCH 15 16
BRANCH 15 20
ATOM     20  CB  HIS X  -1      -2.055   2.859  23.024  1.00 57.27 LIG 0.10  C 
BRANCH 20 21
ATOM     21  CG  HIS X  -1      -3.206   2.438  22.170  1.00 54.13 LIG 0.06  A 
ATOM     22 ND1  HIS X  -1      -4.473   2.962  22.319  1.00 52.72 LIG-0.24  NA
ATOM     23  CE1 HIS X  -1      -5.286   2.393  21.445  1.00 54.35 LIG 0.23  A 
ATOM     24 NE2  HIS X  -1      -4.594   1.518  20.736  1.00 53.65 LIG-0.25  NA
ATOM     25  CD2 HIS X  -1      -3.288   1.529  21.169  1.00 55.23 LIG 0.14  A 
ENDBRANCH 20 21
ENDBRANCH 15 20
ENDBRANCH 12 15
ENDBRANCH 10 11
BRANCH 10 26
ATOM     26  CB  HIS X   0       2.631   4.584  21.426  1.00 64.99 LIG 0.10  C 
BRANCH 26 27
ATOM     27  CG  HIS X   0       2.268   5.842  22.162  1.00 69.41 LIG 0.06  A 
ATOM     28 ND1  HIS X   0       1.797   5.838  23.460  1.00 72.01 LIG-0.24  NA
ATOM     29  CE1 HIS X   0       1.570   7.080  23.850  1.00 72.69 LIG 0.23  A 
ATOM     30 NE2  HIS X   0       1.880   7.892  22.854  1.00 72.94 LIG-0.25  NA
ATOM     31  CD2 HIS X   0       2.323   7.143  21.788  1.00 71.12 LIG 0.14  A 
ENDBRANCH 26 27
ENDBRANCH 10 26
ENDBRANCH 8 10
ENDBRANCH 5 6
BRANCH 5 32
ATOM     32  CB  HIS X   1       1.564   2.228  16.228  1.00 48.25 LIG 0.10  C 
BRANCH 32 33
ATOM     33  CG  HIS X   1       2.287   3.332  15.521  1.00 50.36 LIG 0.06  A 
ATOM     34  CD2 HIS X   1       2.718   3.434  14.239  1.00 51.47 LIG 0.14  A 
ATOM     35 NE2  HIS X   1       3.314   4.666  14.110  1.00 50.72 LIG-0.25  NA
ATOM     36  CE1 HIS X   1       3.250   5.296  15.270  1.00 48.50 LIG 0.23  A 
ATOM     37 ND1  HIS X   1       2.637   4.514  16.140  1.00 47.89 LIG-0.24  NA
ENDBRANCH 32 33
ENDBRANCH 5 32
ENDBRANCH 1 5
BRANCH 3 38
ATOM     38  CA  HIS X   2       5.892   2.578  17.491  1.00 26.25 LIG 0.18  C 
BRANCH 38 39
ATOM     39  C   HIS X   2       6.521   3.968  17.506  1.00 23.72 LIG 0.24  C 
ATOM     40  N   HIS X   3       7.828   3.966  17.708  1.00 22.33 LIG-0.35  N 
ATOM     41 H    HIS X   3       8.291   3.252  17.837  1.00 22.33 LIG 0.16  HD
ATOM     42 O    HIS X   2       5.852   5.001  17.358  1.00 19.88 LIG-0.27  OA
BRANCH 40 43
ATOM     43  CA  HIS X   3       8.617   5.208  17.728  1.00 22.38 LIG 0.18  C 
BRANCH 43 44
ATOM     44  CB  HIS X   3       8.418   6.047  19.029  1.00 22.51 LIG 0.10  C 
BRANCH 44 45
ATOM     45  CG  HIS X   3       9.425   7.140  19.254  1.00 18.10 LIG 0.06  A 
ATOM     46  CD2 HIS X   3      10.420   7.272  20.165  1.00 18.75 LIG 0.14  A 
ATOM     47 NE2  HIS X   3      11.071   8.453  19.887  1.00 20.06 LIG-0.25  NA
ATOM     48  CE1 HIS X   3      10.505   9.015  18.835  1.00 21.69 LIG 0.23  A 
ATOM     49 ND1  HIS X   3       9.520   8.233  18.426  1.00 17.48 LIG-0.24  NA
ENDBRANCH 44 45
ENDBRANCH 43 44
BRANCH 43 50
ATOM     50  C   HIS X   3      10.090   4.934  17.426  1.00 21.59 LIG 0.24  C 
ATOM     51 O    HIS X   3      10.741   4.109  18.057  1.00 25.47 LIG-0.27  OA
ATOM     52  N   HIS X   4      10.617   5.689  16.485  1.00 25.63 LIG-0.35  N 
ATOM     53 H    HIS X   4      10.186   6.294  16.051  1.00 25.63 LIG 0.16  HD
BRANCH 52 54
ATOM     54  CA  HIS X   4      12.024   5.543  16.100  1.00 23.96 LIG 0.17  C 
BRANCH 54 55
ATOM     55  C   HIS X   4      12.622   6.943  15.921  1.00 31.35 LIG 0.22  C 
ATOM     56 O    HIS X   4      12.213   7.902  16.578  1.00 37.06 LIG-0.29  OA
ENDBRANCH 54 55
BRANCH 54 57
ATOM     57  CB  HIS X   4      12.184   4.702  14.828  1.00 23.83 LIG 0.09  C 
BRANCH 57 58
ATOM     58  CG  HIS X   4      11.512   5.290  13.616  1.00 22.57 LIG 0.06  A 
ATOM     59 ND1  HIS X   4      10.325   5.998  13.680  1.00 22.63 LIG-0.24  NA
ATOM     60  CE1 HIS X   4       9.986   6.393  12.464  1.00 19.94 LIG 0.23  A 
ATOM     61 NE2  HIS X   4      10.895   5.955  11.614  1.00 20.25 LIG-0.25  NA
ATOM     62  CD2 HIS X   4      11.866   5.276  12.311  1.00 21.52 LIG 0.14  A 
ENDBRANCH 57 58
ENDBRANCH 54 57
ENDBRANCH 52 54
ENDBRANCH 43 50
ENDBRANCH 40 43
ENDBRANCH 38 39
BRANCH 38 63
ATOM     63  CB  HIS X   2       6.302   1.847  16.207  1.00 28.74 LIG 0.10  C 
BRANCH 63 64
ATOM     64  CG  HIS X   2       6.736   2.760  15.109  1.00 28.63 LIG 0.06  A 
ATOM     65 ND1  HIS X   2       5.852   3.566  14.432  1.00 31.27 LIG-0.24  NA
ATOM     66  CE1 HIS X   2       6.506   4.276  13.531  1.00 28.11 LIG 0.23  A 
ATOM     67 NE2  HIS X   2       7.784   3.952  13.591  1.00 29.87 LIG-0.25  NA
ATOM     68  CD2 HIS X   2       7.956   3.010  14.578  1.00 31.84 LIG 0.14  A 
ENDBRANCH 63 64
ENDBRANCH 38 63
ENDBRANCH 3 38
TORSDOF 24
ENDMDL
MODEL 22
USER: ADFR SOLUTION from run 70
USER: SCORE 19.219256 LL:  -5.771 LR: -14.137 RR:   0.000 FEB:  -6.977
USER: RMSD 6.656655
USER: SEED 69
USER: STATUS no improvement in best in 6 clusters for 5 generations
USER: GENES 26
USER: genes 0 Translation |==|  0.48729 0.51973 0.38149
USER: genes 1 Rotation |==|  0.44836 0.97763 0.63412 0.53478
USER: genes 2 Torsion [N]-C--CA-[N] |==|  0.35281
USER: genes 3 Torsion [C]-CA--N-[C] |==|  0.83242
USER: genes 4 Torsion [N]-C--CA-[N] |==|  0.37136
USER: genes 5 Torsion [C]-CA--N-[C] |==|  0.65509
USER: genes 6 Torsion [N]-C--CA-[N] |==|  0.51100
USER: genes 7 Torsion [C]-CA--N-[H2] |==|  0.30292
USER: genes 8 Torsion [C]-CA--CB-[CG] |==|  0.82816
USER: genes 9 Torsion [CA]-CB--CG-[ND1] |==|  0.76075
USER: genes 10 Torsion [C]-CA--CB-[CG] |==|  0.47338
USER: genes 11 Torsion [CA]-CB--CG-[CD2] |==|  0.00887
USER: genes 12 Torsion [C]-CA--CB-[CG] |==|  0.76224
USER: genes 13 Torsion [CA]-CB--CG-[CD2] |==|  0.72181
USER: genes 14 Torsion [C]-N--CA-[C] |==|  0.61667
USER: genes 15 Torsion [N]-CA--C-[N] |==|  0.00485
USER: genes 16 Torsion [C]-N--CA-[CB] |==|  0.85444
USER: genes 17 Torsion [N]-CA--CB-[CG] |==|  0.40076
USER: genes 18 Torsion [CA]-CB--CG-[ND1] |==|  0.27770
USER: genes 19 Torsion [N]-CA--C-[N] |==|  0.38613
USER: genes 20 Torsion [C]-N--CA-[C] |==|  0.60774
USER: genes 21 Torsion [N]-CA--C-[O] |==|  0.14194
USER: genes 22 Torsion [N]-CA--CB-[CG] |==|  0.98793
USER: genes 23 Torsion [CA]-CB--CG-[ND1] |==|  0.15356
USER: genes 24 Torsion [N]-CA--CB-[CG] |==|  0.17867
USER: genes 25 Torsion [CA]-CB--CG-[CD2] |==|  0.33889
ROOT
ATOM      1  C   HIS X   1       2.373   0.492  17.437  1.00 40.87 LIG 0.24  C 
ATOM      2 O    HIS X   1       3.578   0.736  17.541  1.00 40.80 LIG-0.27  OA
ATOM      3  N   HIS X   2       1.841  -0.711  17.532  1.00 30.16 LIG-0.35  N 
ATOM      4 H    HIS X   2       1.000  -0.864  17.438  1.00 30.16 LIG 0.16  HD
ENDROOT
BRANCH 1 5
ATOM      5  CA  HIS X   1       1.343   1.574  17.192  1.00 48.06 LIG 0.18  C 
BRANCH 5 6
ATOM      6  N   HIS X   1       1.497   2.633  18.193  1.00 54.11 LIG-0.35  N 
ATOM      7 H    HIS X   1       1.677   3.405  17.860  1.00 54.11 LIG 0.16  HD
ATOM      8  C   HIS X   0       1.370   2.411  19.485  1.00 58.54 LIG 0.24  C 
ATOM      9 O    HIS X   0       1.344   1.287  19.990  1.00 63.37 LIG-0.27  OA
BRANCH 8 10
ATOM     10  CA  HIS X   0       1.256   3.676  20.320  1.00 62.53 LIG 0.18  C 
BRANCH 10 11
ATOM     11  N   HIS X   0       0.170   3.599  21.304  1.00 60.73 LIG-0.35  N 
ATOM     12  C   HIS X  -1      -0.788   4.511  21.336  1.00 60.09 LIG 0.25  C 
ATOM     13 O    HIS X  -1      -1.120   5.184  20.357  1.00 62.79 LIG-0.27  OA
ATOM     14 H    HIS X   0       0.217   2.927  21.839  1.00 60.73 LIG 0.16  HD
BRANCH 12 15
ATOM     15  CA  HIS X  -1      -1.496   4.651  22.679  1.00 59.53 LIG 0.28  C 
BRANCH 15 16
ATOM     16  N   HIS X  -1      -2.619   5.642  22.563  1.00 57.14 LIG-0.07  N 
ATOM     17 H3   HIS X  -1      -2.568   6.228  23.231  1.00 57.14 LIG 0.28  HD
ATOM     18 H2   HIS X  -1      -3.398   5.213  22.604  1.00 57.14 LIG 0.28  HD
ATOM     19 H1   HIS X  -1      -2.557   6.072  21.786  1.00 57.14 LIG 0.28  HD
ENDBRANCH 15 16
BRANCH 15 20
ATOM     20  CB  HIS X  -1      -2.017   3.301  23.173  1.00 57.27 LIG 0.10  C 
BRANCH 20 21
ATOM     21  CG  HIS X  -1      -3.031   2.678  22.269  1.00 54.13 LIG 0.06  A 
ATOM     22 ND1  HIS X  -1      -4.376   2.967  22.350  1.00 52.72 LIG-0.24  NA
ATOM     23  CE1 HIS X  -1      -5.030   2.258  21.445  1.00 54.35 LIG 0.23  A 
ATOM     24 NE2  HIS X  -1      -4.158   1.518  20.782  1.00 53.65 LIG-0.25  NA
ATOM     25  CD2 HIS X  -1      -2.899   1.764  21.278  1.00 55.23 LIG 0.14  A 
ENDBRANCH 20 21
ENDBRANCH 15 20
ENDBRANCH 12 15
ENDBRANCH 10 11
BRANCH 10 26
ATOM     26  CB  HIS X   0       2.611   3.990  20.989  1.00 64.99 LIG 0.10  C 
BRANCH 26 27
ATOM     27  CG  HIS X   0       2.672   5.337  21.652  1.00 69.41 LIG 0.06  A 
ATOM     28 ND1  HIS X   0       3.824   5.833  22.229  1.00 72.01 LIG-0.24  NA
ATOM     29  CE1 HIS X   0       3.585   7.035  22.725  1.00 72.69 LIG 0.23  A 
ATOM     30 NE2  HIS X   0       2.322   7.340  22.486  1.00 72.94 LIG-0.25  NA
ATOM     31  CD2 HIS X   0       1.729   6.296  21.812  1.00 71.12 LIG 0.14  A 
ENDBRANCH 26 27
ENDBRANCH 10 26
ENDBRANCH 8 10
ENDBRANCH 5 6
BRANCH 5 32
ATOM     32  CB  HIS X   1       1.505   2.147  15.785  1.00 48.25 LIG 0.10  C 
BRANCH 32 33
ATOM     33  CG  HIS X   1       2.520   3.244  15.697  1.00 50.36 LIG 0.06  A 
ATOM     34  CD2 HIS X   1       2.372   4.591  15.662  1.00 51.47 LIG 0.14  A 
ATOM     35 NE2  HIS X   1       3.632   5.135  15.588  1.00 50.72 LIG-0.25  NA
ATOM     36  CE1 HIS X   1       4.521   4.156  15.579  1.00 48.50 LIG 0.23  A 
ATOM     37 ND1  HIS X   1       3.878   3.005  15.642  1.00 47.89 LIG-0.24  NA
ENDBRANCH 32 33
ENDBRANCH 5 32
ENDBRANCH 1 5
BRANCH 3 38
ATOM     38  CA  HIS X   2       2.642  -1.924  17.810  1.00 26.25 LIG 0.18  C 
BRANCH 38 39
ATOM     39  C   HIS X   2       2.222  -3.120  16.961  1.00 23.72 LIG 0.24  C 
ATOM     40  N   HIS X   3       1.248  -2.857  16.105  1.00 22.33 LIG-0.35  N 
ATOM     41 H    HIS X   3       0.866  -2.090  16.036  1.00 22.33 LIG 0.16  HD
ATOM     42 O    HIS X   2       2.744  -4.238  17.082  1.00 19.88 LIG-0.27  OA
BRANCH 40 43
ATOM     43  CA  HIS X   3       0.726  -3.876  15.179  1.00 22.38 LIG 0.18  C 
BRANCH 43 44
ATOM     44  CB  HIS X   3       1.839  -4.575  14.337  1.00 22.51 LIG 0.10  C 
BRANCH 44 45
ATOM     45  CG  HIS X   3       1.613  -6.034  14.054  1.00 18.10 LIG 0.06  A 
ATOM     46  CD2 HIS X   3       1.747  -7.133  14.837  1.00 18.75 LIG 0.14  A 
ATOM     47 NE2  HIS X   3       1.363  -8.218  14.083  1.00 20.06 LIG-0.25  NA
ATOM     48  CE1 HIS X   3       0.992  -7.798  12.888  1.00 21.69 LIG 0.23  A 
ATOM     49 ND1  HIS X   3       1.120  -6.482  12.852  1.00 17.48 LIG-0.24  NA
ENDBRANCH 44 45
ENDBRANCH 43 44
BRANCH 43 50
ATOM     50  C   HIS X   3      -0.175  -4.873  15.905  1.00 21.59 LIG 0.24  C 
ATOM     51 O    HIS X   3       0.126  -5.350  16.994  1.00 25.47 LIG-0.27  OA
ATOM     52  N   HIS X   4      -1.261  -5.225  15.250  1.00 25.63 LIG-0.35  N 
ATOM     53 H    HIS X   4      -1.476  -4.926  14.472  1.00 25.63 LIG 0.16  HD
BRANCH 52 54
ATOM     54  CA  HIS X   4      -2.211  -6.185  15.821  1.00 23.96 LIG 0.17  C 
BRANCH 54 55
ATOM     55  C   HIS X   4      -2.715  -7.093  14.694  1.00 31.35 LIG 0.22  C 
ATOM     56 O    HIS X   4      -1.932  -7.667  13.936  1.00 37.06 LIG-0.29  OA
ENDBRANCH 54 55
BRANCH 54 57
ATOM     57  CB  HIS X   4      -3.373  -5.483  16.534  1.00 23.83 LIG 0.09  C 
BRANCH 57 58
ATOM     58  CG  HIS X   4      -3.242  -3.984  16.587  1.00 22.57 LIG 0.06  A 
ATOM     59 ND1  HIS X   4      -3.069  -3.200  15.461  1.00 22.63 LIG-0.24  NA
ATOM     60  CE1 HIS X   4      -2.993  -1.929  15.819  1.00 19.94 LIG 0.23  A 
ATOM     61 NE2  HIS X   4      -3.092  -1.860  17.133  1.00 20.25 LIG-0.25  NA
ATOM     62  CD2 HIS X   4      -3.262  -3.129  17.635  1.00 21.52 LIG 0.14  A 
ENDBRANCH 57 58
ENDBRANCH 54 57
ENDBRANCH 52 54
ENDBRANCH 43 50
ENDBRANCH 40 43
ENDBRANCH 38 39
BRANCH 38 63
ATOM     63  CB  HIS X   2       2.564  -2.302  19.294  1.00 28.74 LIG 0.10  C 
BRANCH 63 64
ATOM     64  CG  HIS X   2       1.195  -2.689  19.744  1.00 28.63 LIG 0.06  A 
ATOM     65 ND1  HIS X   2       0.112  -1.853  19.608  1.00 31.27 LIG-0.24  NA
ATOM     66  CE1 HIS X   2      -0.968  -2.454  20.071  1.00 28.11 LIG 0.23  A 
ATOM     67 NE2  HIS X   2      -0.626  -3.648  20.513  1.00 29.87 LIG-0.25  NA
ATOM     68  CD2 HIS X   2       0.724  -3.825  20.312  1.00 31.84 LIG 0.14  A 
ENDBRANCH 63 64
ENDBRANCH 38 63
ENDBRANCH 3 38
TORSDOF 24
ENDMDL
MODEL 23
USER: ADFR SOLUTION from run 42
USER: SCORE 18.308551 LL:  -5.355 LR: -14.129 RR:   0.000 FEB:  -6.970
USER: RMSD 6.725825
USER: SEED 41
USER: STATUS no improvement in best in 22 clusters for 5 generations
USER: GENES 26
USER: genes 0 Translation |==|  0.50765 0.53415 0.37366
USER: genes 1 Rotation |==|  0.57456 0.03147 0.34312 0.48239
USER: genes 2 Torsion [N]-C--CA-[N] |==|  0.35745
USER: genes 3 Torsion [C]-CA--N-[C] |==|  0.80075
USER: genes 4 Torsion [N]-C--CA-[N] |==|  0.37826
USER: genes 5 Torsion [C]-CA--N-[C] |==|  0.65188
USER: genes 6 Torsion [N]-C--CA-[N] |==|  0.52283
USER: genes 7 Torsion [C]-CA--N-[H2] |==|  0.63772
USER: genes 8 Torsion [C]-CA--CB-[CG] |==|  0.82040
USER: genes 9 Torsion [CA]-CB--CG-[ND1] |==|  0.75584
USER: genes 10 Torsion [C]-CA--CB-[CG] |==|  0.46568
USER: genes 11 Torsion [CA]-CB--CG-[CD2] |==|  0.99292
USER: genes 12 Torsion [C]-CA--CB-[CG] |==|  0.82545
USER: genes 13 Torsion [CA]-CB--CG-[CD2] |==|  0.75045
USER: genes 14 Torsion [C]-N--CA-[C] |==|  0.61922
USER: genes 15 Torsion [N]-CA--C-[N] |==|  0.80145
USER: genes 16 Torsion [C]-N--CA-[CB] |==|  0.73333
USER: genes 17 Torsion [N]-CA--CB-[CG] |==|  0.84828
USER: genes 18 Torsion [CA]-CB--CG-[ND1] |==|  0.63704
USER: genes 19 Torsion [N]-CA--C-[N] |==|  0.18327
USER: genes 20 Torsion [C]-N--CA-[C] |==|  0.61741
USER: genes 21 Torsion [N]-CA--C-[O] |==|  0.89963
USER: genes 22 Torsion [N]-CA--CB-[CG] |==|  0.76649
USER: genes 23 Torsion [CA]-CB--CG-[ND1] |==|  0.92863
USER: genes 24 Torsion [N]-CA--CB-[CG] |==|  0.06788
USER: genes 25 Torsion [CA]-CB--CG-[CD2] |==|  0.61010
ROOT
ATOM      1  C   HIS X   1       2.785   0.838  17.296  1.00 40.87 LIG 0.24  C 
ATOM      2 O    HIS X   1       3.959   1.213  17.369  1.00 40.80 LIG-0.27  OA
ATOM      3  N   HIS X   2       2.399  -0.423  17.310  1.00 30.16 LIG-0.35  N 
ATOM      4 H    HIS X   2       1.577  -0.666  17.240  1.00 30.16 LIG 0.16  HD
ENDROOT
BRANCH 1 5
ATOM      5  CA  HIS X   1       1.627   1.807  17.189  1.00 48.06 LIG 0.18  C 
BRANCH 5 6
ATOM      6  N   HIS X   1       1.735   2.817  18.245  1.00 54.11 LIG-0.35  N 
ATOM      7 H    HIS X   1       1.958   3.597  17.961  1.00 54.11 LIG 0.16  HD
ATOM      8  C   HIS X   0       1.507   2.543  19.514  1.00 58.54 LIG 0.24  C 
ATOM      9 O    HIS X   0       1.416   1.400  19.964  1.00 63.37 LIG-0.27  OA
BRANCH 8 10
ATOM     10  CA  HIS X   0       1.365   3.773  20.395  1.00 62.53 LIG 0.18  C 
BRANCH 10 11
ATOM     11  N   HIS X   0       0.243   3.660  21.334  1.00 60.73 LIG-0.35  N 
ATOM     12  C   HIS X  -1      -0.703   4.585  21.383  1.00 60.09 LIG 0.25  C 
ATOM     13 O    HIS X  -1      -0.989   5.316  20.433  1.00 62.79 LIG-0.27  OA
ATOM     14 H    HIS X   0       0.260   2.958  21.831  1.00 60.73 LIG 0.16  HD
BRANCH 12 15
ATOM     15  CA  HIS X  -1      -1.456   4.662  22.705  1.00 59.53 LIG 0.28  C 
BRANCH 15 16
ATOM     16  N   HIS X  -1      -2.623   5.598  22.574  1.00 57.14 LIG-0.07  N 
ATOM     17 H3   HIS X  -1      -2.564   6.041  21.804  1.00 57.14 LIG 0.28  HD
ATOM     18 H2   HIS X  -1      -2.617   6.178  23.250  1.00 57.14 LIG 0.28  HD
ATOM     19 H1   HIS X  -1      -3.382   5.132  22.590  1.00 57.14 LIG 0.28  HD
ENDBRANCH 15 16
BRANCH 15 20
ATOM     20  CB  HIS X  -1      -1.924   3.278  23.157  1.00 57.27 LIG 0.10  C 
BRANCH 20 21
ATOM     21  CG  HIS X  -1      -2.929   2.653  22.244  1.00 54.13 LIG 0.06  A 
ATOM     22 ND1  HIS X  -1      -4.285   2.865  22.374  1.00 52.72 LIG-0.24  NA
ATOM     23  CE1 HIS X  -1      -4.926   2.173  21.446  1.00 54.35 LIG 0.23  A 
ATOM     24 NE2  HIS X  -1      -4.034   1.520  20.720  1.00 53.65 LIG-0.25  NA
ATOM     25  CD2 HIS X  -1      -2.776   1.805  21.199  1.00 55.23 LIG 0.14  A 
ENDBRANCH 20 21
ENDBRANCH 15 20
ENDBRANCH 12 15
ENDBRANCH 10 11
BRANCH 10 26
ATOM     26  CB  HIS X   0       2.695   4.056  21.126  1.00 64.99 LIG 0.10  C 
BRANCH 26 27
ATOM     27  CG  HIS X   0       2.758   5.401  21.790  1.00 69.41 LIG 0.06  A 
ATOM     28 ND1  HIS X   0       3.852   5.824  22.518  1.00 72.01 LIG-0.24  NA
ATOM     29  CE1 HIS X   0       3.631   7.045  22.976  1.00 72.69 LIG 0.23  A 
ATOM     30 NE2  HIS X   0       2.436   7.432  22.567  1.00 72.94 LIG-0.25  NA
ATOM     31  CD2 HIS X   0       1.870   6.425  21.820  1.00 71.12 LIG 0.14  A 
ENDBRANCH 26 27
ENDBRANCH 10 26
ENDBRANCH 8 10
ENDBRANCH 5 6
BRANCH 5 32
ATOM     32  CB  HIS X   1       1.625   2.476  15.816  1.00 48.25 LIG 0.10  C 
BRANCH 32 33
ATOM     33  CG  HIS X   1       2.842   3.306  15.550  1.00 50.36 LIG 0.06  A 
ATOM     34  CD2 HIS X   1       3.096   4.616  15.793  1.00 51.47 LIG 0.14  A 
ATOM     35 NE2  HIS X   1       4.376   4.867  15.361  1.00 50.72 LIG-0.25  NA
ATOM     36  CE1 HIS X   1       4.889   3.751  14.871  1.00 48.50 LIG 0.23  A 
ATOM     37 ND1  HIS X   1       3.985   2.794  14.970  1.00 47.89 LIG-0.24  NA
ENDBRANCH 32 33
ENDBRANCH 5 32
ENDBRANCH 1 5
BRANCH 3 38
ATOM     38  CA  HIS X   2       3.347  -1.552  17.449  1.00 26.25 LIG 0.18  C 
BRANCH 38 39
ATOM     39  C   HIS X   2       3.034  -2.707  16.503  1.00 23.72 LIG 0.24  C 
ATOM     40  N   HIS X   3       1.948  -3.390  16.826  1.00 22.33 LIG-0.35  N 
ATOM     41 H    HIS X   3       1.463  -3.218  17.515  1.00 22.33 LIG 0.16  HD
ATOM     42 O    HIS X   2       3.751  -2.982  15.529  1.00 19.88 LIG-0.27  OA
BRANCH 40 43
ATOM     43  CA  HIS X   3       1.469  -4.523  16.018  1.00 22.38 LIG 0.18  C 
BRANCH 43 44
ATOM     44  CB  HIS X   3       0.360  -4.126  14.993  1.00 22.51 LIG 0.10  C 
BRANCH 44 45
ATOM     45  CG  HIS X   3      -0.837  -3.430  15.574  1.00 18.10 LIG 0.06  A 
ATOM     46  CD2 HIS X   3      -0.944  -2.330  16.361  1.00 18.75 LIG 0.14  A 
ATOM     47 NE2  HIS X   3      -2.287  -2.103  16.561  1.00 20.06 LIG-0.25  NA
ATOM     48  CE1 HIS X   3      -2.977  -3.019  15.909  1.00 21.69 LIG 0.23  A 
ATOM     49 ND1  HIS X   3      -2.124  -3.821  15.293  1.00 17.48 LIG-0.24  NA
ENDBRANCH 44 45
ENDBRANCH 43 44
BRANCH 43 50
ATOM     50  C   HIS X   3       2.632  -5.269  15.365  1.00 21.59 LIG 0.24  C 
ATOM     51 O    HIS X   3       2.763  -5.334  14.148  1.00 25.47 LIG-0.27  OA
ATOM     52  N   HIS X   4       3.441  -5.884  16.202  1.00 25.63 LIG-0.35  N 
ATOM     53 H    HIS X   4       3.350  -5.877  17.058  1.00 25.63 LIG 0.16  HD
BRANCH 52 54
ATOM     54  CA  HIS X   4       4.592  -6.649  15.715  1.00 23.96 LIG 0.17  C 
BRANCH 54 55
ATOM     55  C   HIS X   4       4.679  -7.953  16.516  1.00 31.35 LIG 0.22  C 
ATOM     56 O    HIS X   4       4.390  -7.988  17.713  1.00 37.06 LIG-0.29  OA
ENDBRANCH 54 55
BRANCH 54 57
ATOM     57  CB  HIS X   4       5.895  -5.846  15.815  1.00 23.83 LIG 0.09  C 
BRANCH 57 58
ATOM     58  CG  HIS X   4       6.137  -4.924  14.649  1.00 22.57 LIG 0.06  A 
ATOM     59 ND1  HIS X   4       5.606  -5.143  13.391  1.00 22.63 LIG-0.24  NA
ATOM     60  CE1 HIS X   4       5.985  -4.168  12.581  1.00 19.94 LIG 0.23  A 
ATOM     61 NE2  HIS X   4       6.753  -3.337  13.260  1.00 20.25 LIG-0.25  NA
ATOM     62  CD2 HIS X   4       6.852  -3.780  14.558  1.00 21.52 LIG 0.14  A 
ENDBRANCH 57 58
ENDBRANCH 54 57
ENDBRANCH 52 54
ENDBRANCH 43 50
ENDBRANCH 40 43
ENDBRANCH 38 39
BRANCH 38 63
ATOM     63  CB  HIS X   2       3.373  -2.069  18.892  1.00 28.74 LIG 0.10  C 
BRANCH 63 64
ATOM     64  CG  HIS X   2       2.124  -1.780  19.657  1.00 28.63 LIG 0.06  A 
ATOM     65 ND1  HIS X   2       0.875  -1.895  19.094  1.00 31.27 LIG-0.24  NA
ATOM     66  CE1 HIS X   2      -0.041  -1.597  19.996  1.00 28.11 LIG 0.23  A 
ATOM     67 NE2  HIS X   2       0.567  -1.283  21.123  1.00 29.87 LIG-0.25  NA
ATOM     68  CD2 HIS X   2       1.926  -1.397  20.940  1.00 31.84 LIG 0.14  A 
ENDBRANCH 63 64
ENDBRANCH 38 63
ENDBRANCH 3 38
TORSDOF 24
ENDMDL
MODEL 24
USER: ADFR SOLUTION from run 42
USER: SCORE 18.649792 LL:  -6.094 LR: -14.134 RR:   0.000 FEB:  -6.974
USER: RMSD 6.846973
USER: SEED 41
USER: STATUS no improvement in best in 22 clusters for 5 generations
USER: GENES 26
USER: genes 0 Translation |==|  0.47436 0.51003 0.37360
USER: genes 1 Rotation |==|  0.49157 0.98854 0.60597 0.50577
USER: genes 2 Torsion [N]-C--CA-[N] |==|  0.31111
USER: genes 3 Torsion [C]-CA--N-[C] |==|  0.81527
USER: genes 4 Torsion [N]-C--CA-[N] |==|  0.39650
USER: genes 5 Torsion [C]-CA--N-[C] |==|  0.65254
USER: genes 6 Torsion [N]-C--CA-[N] |==|  0.52533
USER: genes 7 Torsion [C]-CA--N-[H2] |==|  0.62697
USER: genes 8 Torsion [C]-CA--CB-[CG] |==|  0.83219
USER: genes 9 Torsion [CA]-CB--CG-[ND1] |==|  0.75670
USER: genes 10 Torsion [C]-CA--CB-[CG] |==|  0.45962
USER: genes 11 Torsion [CA]-CB--CG-[CD2] |==|  0.10191
USER: genes 12 Torsion [C]-CA--CB-[CG] |==|  0.75070
USER: genes 13 Torsion [CA]-CB--CG-[CD2] |==|  0.57252
USER: genes 14 Torsion [C]-N--CA-[C] |==|  0.64617
USER: genes 15 Torsion [N]-CA--C-[N] |==|  0.14812
USER: genes 16 Torsion [C]-N--CA-[CB] |==|  0.79908
USER: genes 17 Torsion [N]-CA--CB-[CG] |==|  0.88036
USER: genes 18 Torsion [CA]-CB--CG-[ND1] |==|  0.70351
USER: genes 19 Torsion [N]-CA--C-[N] |==|  0.12593
USER: genes 20 Torsion [C]-N--CA-[C] |==|  0.55230
USER: genes 21 Torsion [N]-CA--C-[O] |==|  0.86224
USER: genes 22 Torsion [N]-CA--CB-[CG] |==|  0.20117
USER: genes 23 Torsion [CA]-CB--CG-[ND1] |==|  0.31980
USER: genes 24 Torsion [N]-CA--CB-[CG] |==|  0.84805
USER: genes 25 Torsion [CA]-CB--CG-[CD2] |==|  0.88745
ROOT
ATOM      1  C   HIS X   1       2.111   0.259  17.295  1.00 40.87 LIG 0.24  C 
ATOM      2 O    HIS X   1       3.340   0.324  17.198  1.00 40.80 LIG-0.27  OA
ATOM      3  N   HIS X   2       1.441  -0.830  17.617  1.00 30.16 LIG-0.35  N 
ATOM      4 H    HIS X   2       0.583  -0.861  17.662  1.00 30.16 LIG 0.16  HD
ENDROOT
BRANCH 1 5
ATOM      5  CA  HIS X   1       1.213   1.454  17.057  1.00 48.06 LIG 0.18  C 
BRANCH 5 6
ATOM      6  N   HIS X   1       1.425   2.444  18.116  1.00 54.11 LIG-0.35  N 
ATOM      7 H    HIS X   1       1.780   3.178  17.842  1.00 54.11 LIG 0.16  HD
ATOM      8  C   HIS X   0       1.099   2.221  19.372  1.00 58.54 LIG 0.24  C 
ATOM      9 O    HIS X   0       0.810   1.109  19.820  1.00 63.37 LIG-0.27  OA
BRANCH 8 10
ATOM     10  CA  HIS X   0       1.106   3.466  20.244  1.00 62.53 LIG 0.18  C 
BRANCH 10 11
ATOM     11  N   HIS X   0       0.023   3.461  21.234  1.00 60.73 LIG-0.35  N 
ATOM     12  C   HIS X  -1      -0.836   4.465  21.311  1.00 60.09 LIG 0.25  C 
ATOM     13 O    HIS X  -1      -1.101   5.207  20.363  1.00 62.79 LIG-0.27  OA
ATOM     14 H    HIS X   0       0.003   2.766  21.741  1.00 60.73 LIG 0.16  HD
BRANCH 12 15
ATOM     15  CA  HIS X  -1      -1.518   4.622  22.665  1.00 59.53 LIG 0.28  C 
BRANCH 15 16
ATOM     16  N   HIS X  -1      -2.620   5.638  22.566  1.00 57.14 LIG-0.07  N 
ATOM     17 H3   HIS X  -1      -2.532   6.099  21.810  1.00 57.14 LIG 0.28  HD
ATOM     18 H2   HIS X  -1      -2.573   6.195  23.259  1.00 57.14 LIG 0.28  HD
ATOM     19 H1   HIS X  -1      -3.408   5.224  22.570  1.00 57.14 LIG 0.28  HD
ENDBRANCH 15 16
BRANCH 15 20
ATOM     20  CB  HIS X  -1      -2.063   3.285  23.168  1.00 57.27 LIG 0.10  C 
BRANCH 20 21
ATOM     21  CG  HIS X  -1      -3.081   2.668  22.264  1.00 54.13 LIG 0.06  A 
ATOM     22 ND1  HIS X  -1      -4.426   2.957  22.352  1.00 52.72 LIG-0.24  NA
ATOM     23  CE1 HIS X  -1      -5.084   2.255  21.445  1.00 54.35 LIG 0.23  A 
ATOM     24 NE2  HIS X  -1      -4.214   1.520  20.772  1.00 53.65 LIG-0.25  NA
ATOM     25  CD2 HIS X  -1      -2.953   1.763  21.265  1.00 55.23 LIG 0.14  A 
ENDBRANCH 20 21
ENDBRANCH 15 20
ENDBRANCH 12 15
ENDBRANCH 10 11
BRANCH 10 26
ATOM     26  CB  HIS X   0       2.488   3.635  20.911  1.00 64.99 LIG 0.10  C 
BRANCH 26 27
ATOM     27  CG  HIS X   0       2.721   4.992  21.509  1.00 69.41 LIG 0.06  A 
ATOM     28 ND1  HIS X   0       3.944   5.630  21.460  1.00 72.01 LIG-0.24  NA
ATOM     29  CE1 HIS X   0       3.852   6.807  22.056  1.00 72.69 LIG 0.23  A 
ATOM     30 NE2  HIS X   0       2.611   6.958  22.486  1.00 72.94 LIG-0.25  NA
ATOM     31  CD2 HIS X   0       1.882   5.840  22.153  1.00 71.12 LIG 0.14  A 
ENDBRANCH 26 27
ENDBRANCH 10 26
ENDBRANCH 8 10
ENDBRANCH 5 6
BRANCH 5 32
ATOM     32  CB  HIS X   1       1.505   2.070  15.690  1.00 48.25 LIG 0.10  C 
BRANCH 32 33
ATOM     33  CG  HIS X   1       2.565   3.127  15.721  1.00 50.36 LIG 0.06  A 
ATOM     34  CD2 HIS X   1       2.786   4.188  14.907  1.00 51.47 LIG 0.14  A 
ATOM     35 NE2  HIS X   1       3.891   4.846  15.391  1.00 50.72 LIG-0.25  NA
ATOM     36  CE1 HIS X   1       4.330   4.212  16.465  1.00 48.50 LIG 0.23  A 
ATOM     37 ND1  HIS X   1       3.550   3.170  16.686  1.00 47.89 LIG-0.24  NA
ENDBRANCH 32 33
ENDBRANCH 5 32
ENDBRANCH 1 5
BRANCH 3 38
ATOM     38  CA  HIS X   2       2.103  -2.116  17.936  1.00 26.25 LIG 0.18  C 
BRANCH 38 39
ATOM     39  C   HIS X   2       1.560  -3.281  17.116  1.00 23.72 LIG 0.24  C 
ATOM     40  N   HIS X   3       1.574  -3.074  15.809  1.00 22.33 LIG-0.35  N 
ATOM     41 H    HIS X   3       1.846  -2.344  15.444  1.00 22.33 LIG 0.16  HD
ATOM     42 O    HIS X   2       1.132  -4.320  17.639  1.00 19.88 LIG-0.27  OA
BRANCH 40 43
ATOM     43  CA  HIS X   3       1.116  -4.093  14.852  1.00 22.38 LIG 0.18  C 
BRANCH 43 44
ATOM     44  CB  HIS X   3       2.100  -5.297  14.712  1.00 22.51 LIG 0.10  C 
BRANCH 44 45
ATOM     45  CG  HIS X   3       3.556  -4.935  14.635  1.00 18.10 LIG 0.06  A 
ATOM     46  CD2 HIS X   3       4.442  -4.560  15.592  1.00 18.75 LIG 0.14  A 
ATOM     47 NE2  HIS X   3       5.661  -4.393  14.975  1.00 20.06 LIG-0.25  NA
ATOM     48  CE1 HIS X   3       5.531  -4.670  13.691  1.00 21.69 LIG 0.23  A 
ATOM     49 ND1  HIS X   3       4.273  -5.014  13.465  1.00 17.48 LIG-0.24  NA
ENDBRANCH 44 45
ENDBRANCH 43 44
BRANCH 43 50
ATOM     50  C   HIS X   3      -0.314  -4.537  15.157  1.00 21.59 LIG 0.24  C 
ATOM     51 O    HIS X   3      -0.655  -5.713  15.110  1.00 25.47 LIG-0.27  OA
ATOM     52  N   HIS X   4      -1.160  -3.560  15.410  1.00 25.63 LIG-0.35  N 
ATOM     53 H    HIS X   4      -0.948  -2.726  15.418  1.00 25.63 LIG 0.16  HD
BRANCH 52 54
ATOM     54  CA  HIS X   4      -2.568  -3.838  15.707  1.00 23.96 LIG 0.17  C 
BRANCH 54 55
ATOM     55  C   HIS X   4      -3.370  -2.551  15.490  1.00 31.35 LIG 0.22  C 
ATOM     56 O    HIS X   4      -3.011  -1.482  15.988  1.00 37.06 LIG-0.29  OA
ENDBRANCH 54 55
BRANCH 54 57
ATOM     57  CB  HIS X   4      -2.755  -4.378  17.131  1.00 23.83 LIG 0.09  C 
BRANCH 57 58
ATOM     58  CG  HIS X   4      -2.569  -3.342  18.208  1.00 22.57 LIG 0.06  A 
ATOM     59 ND1  HIS X   4      -3.590  -2.930  19.044  1.00 22.63 LIG-0.24  NA
ATOM     60  CE1 HIS X   4      -3.126  -2.021  19.886  1.00 19.94 LIG 0.23  A 
ATOM     61 NE2  HIS X   4      -1.851  -1.816  19.617  1.00 20.25 LIG-0.25  NA
ATOM     62  CD2 HIS X   4      -1.475  -2.639  18.581  1.00 21.52 LIG 0.14  A 
ENDBRANCH 57 58
ENDBRANCH 54 57
ENDBRANCH 52 54
ENDBRANCH 43 50
ENDBRANCH 40 43
ENDBRANCH 38 39
BRANCH 38 63
ATOM     63  CB  HIS X   2       1.975  -2.440  19.429  1.00 28.74 LIG 0.10  C 
BRANCH 63 64
ATOM     64  CG  HIS X   2       2.475  -1.357  20.325  1.00 28.63 LIG 0.06  A 
ATOM     65 ND1  HIS X   2       1.833  -1.012  21.491  1.00 31.27 LIG-0.24  NA
ATOM     66  CE1 HIS X   2       2.499  -0.042  22.089  1.00 28.11 LIG 0.23  A 
ATOM     67 NE2  HIS X   2       3.547   0.264  21.349  1.00 29.87 LIG-0.25  NA
ATOM     68  CD2 HIS X   2       3.561  -0.552  20.241  1.00 31.84 LIG 0.14  A 
ENDBRANCH 63 64
ENDBRANCH 38 63
ENDBRANCH 3 38
TORSDOF 24
ENDMDL
MODEL 25
USER: ADFR SOLUTION from run 24
USER: SCORE 18.537165 LL:  -6.233 LR: -14.128 RR:   0.000 FEB:  -6.968
USER: RMSD 9.352422
USER: SEED 23
USER: STATUS no improvement in best in 16 clusters for 5 generations
USER: GENES 26
USER: genes 0 Translation |==|  0.52761 0.52773 0.40132
USER: genes 1 Rotation |==|  0.62653 0.10887 0.61228 0.76154
USER: genes 2 Torsion [N]-C--CA-[N] |==|  0.21456
USER: genes 3 Torsion [C]-CA--N-[C] |==|  0.76180
USER: genes 4 Torsion [N]-C--CA-[N] |==|  0.30214
USER: genes 5 Torsion [C]-CA--N-[C] |==|  0.62320
USER: genes 6 Torsion [N]-C--CA-[N] |==|  0.49185
USER: genes 7 Torsion [C]-CA--N-[H2] |==|  0.97391
USER: genes 8 Torsion [C]-CA--CB-[CG] |==|  0.82286
USER: genes 9 Torsion [CA]-CB--CG-[ND1] |==|  0.76049
USER: genes 10 Torsion [C]-CA--CB-[CG] |==|  0.52165
USER: genes 11 Torsion [CA]-CB--CG-[CD2] |==|  0.74935
USER: genes 12 Torsion [C]-CA--CB-[CG] |==|  0.25105
USER: genes 13 Torsion [CA]-CB--CG-[CD2] |==|  0.15259
USER: genes 14 Torsion [C]-N--CA-[C] |==|  0.10379
USER: genes 15 Torsion [N]-CA--C-[N] |==|  0.14563
USER: genes 16 Torsion [C]-N--CA-[CB] |==|  0.18124
USER: genes 17 Torsion [N]-CA--CB-[CG] |==|  0.20344
USER: genes 18 Torsion [CA]-CB--CG-[ND1] |==|  0.89517
USER: genes 19 Torsion [N]-CA--C-[N] |==|  0.22330
USER: genes 20 Torsion [C]-N--CA-[C] |==|  0.75865
USER: genes 21 Torsion [N]-CA--C-[O] |==|  0.40786
USER: genes 22 Torsion [N]-CA--CB-[CG] |==|  0.75339
USER: genes 23 Torsion [CA]-CB--CG-[ND1] |==|  0.29467
USER: genes 24 Torsion [N]-CA--CB-[CG] |==|  0.02974
USER: genes 25 Torsion [CA]-CB--CG-[CD2] |==|  0.76168
ROOT
ATOM      1  C   HIS X   1       3.189   0.683  17.794  1.00 40.87 LIG 0.24  C 
ATOM      2 O    HIS X   1       3.510   0.778  16.605  1.00 40.80 LIG-0.27  OA
ATOM      3  N   HIS X   2       4.022   0.396  18.775  1.00 30.16 LIG-0.35  N 
ATOM      4 H    HIS X   2       3.776   0.317  19.595  1.00 30.16 LIG 0.16  HD
ENDROOT
BRANCH 1 5
ATOM      5  CA  HIS X   1       1.769   0.902  18.271  1.00 48.06 LIG 0.18  C 
BRANCH 5 6
ATOM      6  N   HIS X   1       1.656   2.231  18.878  1.00 54.11 LIG-0.35  N 
ATOM      7 H    HIS X   1       1.384   2.841  18.336  1.00 54.11 LIG 0.16  HD
ATOM      8  C   HIS X   0       1.946   2.460  20.143  1.00 58.54 LIG 0.24  C 
ATOM      9 O    HIS X   0       2.549   1.664  20.865  1.00 63.37 LIG-0.27  OA
BRANCH 8 10
ATOM     10  CA  HIS X   0       1.470   3.811  20.650  1.00 62.53 LIG 0.18  C 
BRANCH 10 11
ATOM     11  N   HIS X   0       0.343   3.691  21.583  1.00 60.73 LIG-0.35  N 
ATOM     12  C   HIS X  -1      -0.707   4.491  21.491  1.00 60.09 LIG 0.25  C 
ATOM     13 O    HIS X  -1      -1.051   5.044  20.444  1.00 62.79 LIG-0.27  OA
ATOM     14 H    HIS X   0       0.430   3.072  22.174  1.00 60.73 LIG 0.16  HD
BRANCH 12 15
ATOM     15  CA  HIS X  -1      -1.502   4.656  22.781  1.00 59.53 LIG 0.28  C 
BRANCH 15 16
ATOM     16  N   HIS X  -1      -2.620   5.637  22.570  1.00 57.14 LIG-0.07  N 
ATOM     17 H3   HIS X  -1      -3.399   5.208  22.591  1.00 57.14 LIG 0.28  HD
ATOM     18 H2   HIS X  -1      -2.522   6.034  21.779  1.00 57.14 LIG 0.28  HD
ATOM     19 H1   HIS X  -1      -2.602   6.251  23.214  1.00 57.14 LIG 0.28  HD
ENDBRANCH 15 16
BRANCH 15 20
ATOM     20  CB  HIS X  -1      -2.048   3.315  23.270  1.00 57.27 LIG 0.10  C 
BRANCH 20 21
ATOM     21  CG  HIS X  -1      -3.032   2.687  22.337  1.00 54.13 LIG 0.06  A 
ATOM     22 ND1  HIS X  -1      -4.378   2.983  22.366  1.00 52.72 LIG-0.24  NA
ATOM     23  CE1 HIS X  -1      -5.003   2.268  21.445  1.00 54.35 LIG 0.23  A 
ATOM     24 NE2  HIS X  -1      -4.111   1.518  20.820  1.00 53.65 LIG-0.25  NA
ATOM     25  CD2 HIS X  -1      -2.869   1.763  21.359  1.00 55.23 LIG 0.14  A 
ENDBRANCH 20 21
ENDBRANCH 15 20
ENDBRANCH 12 15
ENDBRANCH 10 11
BRANCH 10 26
ATOM     26  CB  HIS X   0       2.650   4.585  21.277  1.00 64.99 LIG 0.10  C 
BRANCH 26 27
ATOM     27  CG  HIS X   0       2.252   5.854  21.975  1.00 69.41 LIG 0.06  A 
ATOM     28 ND1  HIS X   0       1.928   5.898  23.316  1.00 72.01 LIG-0.24  NA
ATOM     29  CE1 HIS X   0       1.628   7.140  23.656  1.00 72.69 LIG 0.23  A 
ATOM     30 NE2  HIS X   0       1.749   7.905  22.585  1.00 72.94 LIG-0.25  NA
ATOM     31  CD2 HIS X   0       2.142   7.126  21.521  1.00 71.12 LIG 0.14  A 
ENDBRANCH 26 27
ENDBRANCH 10 26
ENDBRANCH 8 10
ENDBRANCH 5 6
BRANCH 5 32
ATOM     32  CB  HIS X   1       0.794   0.769  17.103  1.00 48.25 LIG 0.10  C 
BRANCH 32 33
ATOM     33  CG  HIS X   1       0.282  -0.624  16.903  1.00 50.36 LIG 0.06  A 
ATOM     34  CD2 HIS X   1      -0.340  -1.474  17.757  1.00 51.47 LIG 0.14  A 
ATOM     35 NE2  HIS X   1      -0.605  -2.627  17.058  1.00 50.72 LIG-0.25  NA
ATOM     36  CE1 HIS X   1      -0.163  -2.489  15.820  1.00 48.50 LIG 0.23  A 
ATOM     37 ND1  HIS X   1       0.379  -1.291  15.699  1.00 47.89 LIG-0.24  NA
ENDBRANCH 32 33
ENDBRANCH 5 32
ENDBRANCH 1 5
BRANCH 3 38
ATOM     38  CA  HIS X   2       5.471   0.180  18.561  1.00 26.25 LIG 0.18  C 
BRANCH 38 39
ATOM     39  C   HIS X   2       6.059   1.111  17.505  1.00 23.72 LIG 0.24  C 
ATOM     40  N   HIS X   3       5.800   2.392  17.711  1.00 22.33 LIG-0.35  N 
ATOM     41 H    HIS X   3       5.329   2.685  18.368  1.00 22.33 LIG 0.16  HD
ATOM     42 O    HIS X   2       6.707   0.691  16.535  1.00 19.88 LIG-0.27  OA
BRANCH 40 43
ATOM     43  CA  HIS X   3       6.306   3.445  16.815  1.00 22.38 LIG 0.18  C 
BRANCH 43 44
ATOM     44  CB  HIS X   3       5.711   3.370  15.374  1.00 22.51 LIG 0.10  C 
BRANCH 44 45
ATOM     45  CG  HIS X   3       4.278   3.804  15.244  1.00 18.10 LIG 0.06  A 
ATOM     46  CD2 HIS X   3       3.616   4.432  14.242  1.00 18.75 LIG 0.14  A 
ATOM     47 NE2  HIS X   3       2.300   4.544  14.630  1.00 20.06 LIG-0.25  NA
ATOM     48  CE1 HIS X   3       2.159   3.991  15.820  1.00 21.69 LIG 0.23  A 
ATOM     49 ND1  HIS X   3       3.335   3.524  16.204  1.00 17.48 LIG-0.24  NA
ENDBRANCH 44 45
ENDBRANCH 43 44
BRANCH 43 50
ATOM     50  C   HIS X   3       6.150   4.829  17.444  1.00 21.59 LIG 0.24  C 
ATOM     51 O    HIS X   3       5.256   5.598  17.110  1.00 25.47 LIG-0.27  OA
ATOM     52  N   HIS X   4       7.078   5.152  18.320  1.00 25.63 LIG-0.35  N 
ATOM     53 H    HIS X   4       7.730   4.639  18.547  1.00 25.63 LIG 0.16  HD
BRANCH 52 54
ATOM     54  CA  HIS X   4       7.060   6.454  18.993  1.00 23.96 LIG 0.17  C 
BRANCH 54 55
ATOM     55  C   HIS X   4       7.800   7.463  18.109  1.00 31.35 LIG 0.22  C 
ATOM     56 O    HIS X   4       7.461   8.648  18.070  1.00 37.06 LIG-0.29  OA
ENDBRANCH 54 55
BRANCH 54 57
ATOM     57  CB  HIS X   4       7.679   6.382  20.394  1.00 23.83 LIG 0.09  C 
BRANCH 57 58
ATOM     58  CG  HIS X   4       6.696   6.033  21.480  1.00 22.57 LIG 0.06  A 
ATOM     59 ND1  HIS X   4       6.654   4.793  22.092  1.00 22.63 LIG-0.24  NA
ATOM     60  CE1 HIS X   4       5.696   4.787  23.004  1.00 19.94 LIG 0.23  A 
ATOM     61 NE2  HIS X   4       5.106   5.967  22.996  1.00 20.25 LIG-0.25  NA
ATOM     62  CD2 HIS X   4       5.721   6.768  22.063  1.00 21.52 LIG 0.14  A 
ENDBRANCH 57 58
ENDBRANCH 54 57
ENDBRANCH 52 54
ENDBRANCH 43 50
ENDBRANCH 40 43
ENDBRANCH 38 39
BRANCH 38 63
ATOM     63  CB  HIS X   2       5.755  -1.275  18.172  1.00 28.74 LIG 0.10  C 
BRANCH 63 64
ATOM     64  CG  HIS X   2       4.528  -2.062  17.851  1.00 28.63 LIG 0.06  A 
ATOM     65 ND1  HIS X   2       4.071  -2.219  16.564  1.00 31.27 LIG-0.24  NA
ATOM     66  CE1 HIS X   2       2.985  -2.970  16.572  1.00 28.11 LIG 0.23  A 
ATOM     67 NE2  HIS X   2       2.714  -3.300  17.820  1.00 29.87 LIG-0.25  NA
ATOM     68  CD2 HIS X   2       3.671  -2.750  18.642  1.00 31.84 LIG 0.14  A 
ENDBRANCH 63 64
ENDBRANCH 38 63
ENDBRANCH 3 38
TORSDOF 24
ENDMDL
MODEL 26
USER: ADFR SOLUTION from run 120
USER: SCORE 18.410883 LL:  -6.023 LR: -14.131 RR:   0.000 FEB:  -6.972
USER: RMSD 9.526763
USER: SEED 119
USER: STATUS no improvement in best in 11 clusters for 5 generations
USER: GENES 26
USER: genes 0 Translation |==|  0.34304 0.69855 0.60057
USER: genes 1 Rotation |==|  0.72265 0.13087 0.51357 0.75295
USER: genes 2 Torsion [N]-C--CA-[N] |==|  0.86324
USER: genes 3 Torsion [C]-CA--N-[C] |==|  0.87776
USER: genes 4 Torsion [N]-C--CA-[N] |==|  0.15000
USER: genes 5 Torsion [C]-CA--N-[C] |==|  0.13206
USER: genes 6 Torsion [N]-C--CA-[N] |==|  0.41857
USER: genes 7 Torsion [C]-CA--N-[H2] |==|  0.88031
USER: genes 8 Torsion [C]-CA--CB-[CG] |==|  0.16509
USER: genes 9 Torsion [CA]-CB--CG-[ND1] |==|  0.09765
USER: genes 10 Torsion [C]-CA--CB-[CG] |==|  0.56158
USER: genes 11 Torsion [CA]-CB--CG-[CD2] |==|  0.81465
USER: genes 12 Torsion [C]-CA--CB-[CG] |==|  0.83053
USER: genes 13 Torsion [CA]-CB--CG-[CD2] |==|  0.37168
USER: genes 14 Torsion [C]-N--CA-[C] |==|  0.70137
USER: genes 15 Torsion [N]-CA--C-[N] |==|  0.27401
USER: genes 16 Torsion [C]-N--CA-[CB] |==|  0.17419
USER: genes 17 Torsion [N]-CA--CB-[CG] |==|  0.36406
USER: genes 18 Torsion [CA]-CB--CG-[ND1] |==|  0.76099
USER: genes 19 Torsion [N]-CA--C-[N] |==|  0.93669
USER: genes 20 Torsion [C]-N--CA-[C] |==|  0.10410
USER: genes 21 Torsion [N]-CA--C-[O] |==|  0.23588
USER: genes 22 Torsion [N]-CA--CB-[CG] |==|  0.16961
USER: genes 23 Torsion [CA]-CB--CG-[ND1] |==|  0.75614
USER: genes 24 Torsion [N]-CA--CB-[CG] |==|  0.79995
USER: genes 25 Torsion [CA]-CB--CG-[CD2] |==|  0.46632
ROOT
ATOM      1  C   HIS X   1      -0.549   4.783  21.380  1.00 40.87 LIG 0.24  C 
ATOM      2 O    HIS X   1      -0.515   5.474  20.358  1.00 40.80 LIG-0.27  OA
ATOM      3  N   HIS X   2       0.504   4.218  21.938  1.00 30.16 LIG-0.35  N 
ATOM      4 H    HIS X   2       0.458   3.725  22.641  1.00 30.16 LIG 0.16  HD
ENDROOT
BRANCH 1 5
ATOM      5  CA  HIS X   1      -1.834   4.508  22.132  1.00 48.06 LIG 0.18  C 
BRANCH 5 6
ATOM      6  N   HIS X   1      -1.945   3.071  22.401  1.00 54.11 LIG-0.35  N 
ATOM      7 H    HIS X   1      -2.203   2.885  23.200  1.00 54.11 LIG 0.16  HD
ATOM      8  C   HIS X   0      -1.673   2.157  21.493  1.00 58.54 LIG 0.24  C 
ATOM      9 O    HIS X   0      -1.088   2.393  20.434  1.00 63.37 LIG-0.27  OA
BRANCH 8 10
ATOM     10  CA  HIS X   0      -2.146   0.761  21.862  1.00 62.53 LIG 0.18  C 
BRANCH 10 11
ATOM     11  N   HIS X   0      -3.574   0.725  22.197  1.00 60.73 LIG-0.35  N 
ATOM     12  C   HIS X  -1      -4.472   1.312  21.422  1.00 60.09 LIG 0.25  C 
ATOM     13 O    HIS X  -1      -4.301   1.518  20.218  1.00 62.79 LIG-0.27  OA
ATOM     14 H    HIS X   0      -3.763   0.301  22.921  1.00 60.73 LIG 0.16  HD
BRANCH 12 15
ATOM     15  CA  HIS X  -1      -5.773   1.691  22.121  1.00 59.53 LIG 0.28  C 
BRANCH 15 16
ATOM     16  N   HIS X  -1      -6.376   2.896  21.458  1.00 57.14 LIG-0.07  N 
ATOM     17 H3   HIS X  -1      -6.765   2.652  20.695  1.00 57.14 LIG 0.28  HD
ATOM     18 H2   HIS X  -1      -5.738   3.492  21.288  1.00 57.14 LIG 0.28  HD
ATOM     19 H1   HIS X  -1      -6.984   3.258  21.998  1.00 57.14 LIG 0.28  HD
ENDBRANCH 15 16
BRANCH 15 20
ATOM     20  CB  HIS X  -1      -6.761   0.524  22.119  1.00 57.27 LIG 0.10  C 
BRANCH 20 21
ATOM     21  CG  HIS X  -1      -6.248  -0.703  22.800  1.00 54.13 LIG 0.06  A 
ATOM     22 ND1  HIS X  -1      -5.434  -0.651  23.912  1.00 52.72 LIG-0.24  NA
ATOM     23  CE1 HIS X  -1      -5.124  -1.882  24.284  1.00 54.35 LIG 0.23  A 
ATOM     24 NE2  HIS X  -1      -5.707  -2.730  23.454  1.00 53.65 LIG-0.25  NA
ATOM     25  CD2 HIS X  -1      -6.418  -2.017  22.517  1.00 55.23 LIG 0.14  A 
ENDBRANCH 20 21
ENDBRANCH 15 20
ENDBRANCH 12 15
ENDBRANCH 10 11
BRANCH 10 26
ATOM     26  CB  HIS X   0      -1.801  -0.230  20.729  1.00 64.99 LIG 0.10  C 
BRANCH 26 27
ATOM     27  CG  HIS X   0      -2.644  -1.473  20.721  1.00 69.41 LIG 0.06  A 
ATOM     28 ND1  HIS X   0      -3.527  -1.770  19.702  1.00 72.01 LIG-0.24  NA
ATOM     29  CE1 HIS X   0      -4.121  -2.923  19.957  1.00 72.69 LIG 0.23  A 
ATOM     30 NE2  HIS X   0      -3.653  -3.388  21.102  1.00 72.94 LIG-0.25  NA
ATOM     31  CD2 HIS X   0      -2.725  -2.502  21.599  1.00 71.12 LIG 0.14  A 
ENDBRANCH 26 27
ENDBRANCH 10 26
ENDBRANCH 8 10
ENDBRANCH 5 6
BRANCH 5 32
ATOM     32  CB  HIS X   1      -1.857   5.295  23.441  1.00 48.25 LIG 0.10  C 
BRANCH 32 33
ATOM     33  CG  HIS X   1      -0.743   4.940  24.376  1.00 50.36 LIG 0.06  A 
ATOM     34  CD2 HIS X   1       0.099   5.723  25.094  1.00 51.47 LIG 0.14  A 
ATOM     35 NE2  HIS X   1       0.929   4.885  25.798  1.00 50.72 LIG-0.25  NA
ATOM     36  CE1 HIS X   1       0.608   3.633  25.523  1.00 48.50 LIG 0.23  A 
ATOM     37 ND1  HIS X   1      -0.397   3.636  24.666  1.00 47.89 LIG-0.24  NA
ENDBRANCH 32 33
ENDBRANCH 5 32
ENDBRANCH 1 5
BRANCH 3 38
ATOM     38  CA  HIS X   2       1.877   4.378  21.408  1.00 26.25 LIG 0.18  C 
BRANCH 38 39
ATOM     39  C   HIS X   2       2.403   3.114  20.735  1.00 23.72 LIG 0.24  C 
ATOM     40  N   HIS X   3       2.299   3.122  19.416  1.00 22.33 LIG-0.35  N 
ATOM     41 H    HIS X   3       1.952   3.769  18.968  1.00 22.33 LIG 0.16  HD
ATOM     42 O    HIS X   2       2.869   2.163  21.379  1.00 19.88 LIG-0.27  OA
BRANCH 40 43
ATOM     43  CA  HIS X   3       2.777   2.003  18.588  1.00 22.38 LIG 0.18  C 
BRANCH 43 44
ATOM     44  CB  HIS X   3       2.029   0.662  18.868  1.00 22.51 LIG 0.10  C 
BRANCH 44 45
ATOM     45  CG  HIS X   3       1.529  -0.065  17.651  1.00 18.10 LIG 0.06  A 
ATOM     46  CD2 HIS X   3       2.049  -1.099  16.944  1.00 18.75 LIG 0.14  A 
ATOM     47 NE2  HIS X   3       1.151  -1.401  15.947  1.00 20.06 LIG-0.25  NA
ATOM     48  CE1 HIS X   3       0.112  -0.593  16.048  1.00 21.69 LIG 0.23  A 
ATOM     49 ND1  HIS X   3       0.311   0.212  17.079  1.00 17.48 LIG-0.24  NA
ENDBRANCH 44 45
ENDBRANCH 43 44
BRANCH 43 50
ATOM     50  C   HIS X   3       2.782   2.374  17.106  1.00 21.59 LIG 0.24  C 
ATOM     51 O    HIS X   3       3.533   1.833  16.302  1.00 25.47 LIG-0.27  OA
ATOM     52  N   HIS X   4       1.969   3.354  16.773  1.00 25.63 LIG-0.35  N 
ATOM     53 H    HIS X   4       1.457   3.768  17.326  1.00 25.63 LIG 0.16  HD
BRANCH 52 54
ATOM     54  CA  HIS X   4       1.880   3.823  15.387  1.00 23.96 LIG 0.17  C 
BRANCH 54 55
ATOM     55  C   HIS X   4       1.997   2.610  14.459  1.00 31.35 LIG 0.22  C 
ATOM     56 O    HIS X   4       1.012   1.927  14.172  1.00 37.06 LIG-0.29  OA
ENDBRANCH 54 55
BRANCH 54 57
ATOM     57  CB  HIS X   4       2.952   4.873  15.069  1.00 23.83 LIG 0.09  C 
BRANCH 57 58
ATOM     58  CG  HIS X   4       4.364   4.371  15.221  1.00 22.57 LIG 0.06  A 
ATOM     59 ND1  HIS X   4       5.056   4.415  16.417  1.00 22.63 LIG-0.24  NA
ATOM     60  CE1 HIS X   4       6.263   3.902  16.244  1.00 19.94 LIG 0.23  A 
ATOM     61 NE2  HIS X   4       6.385   3.543  14.980  1.00 20.25 LIG-0.25  NA
ATOM     62  CD2 HIS X   4       5.207   3.813  14.323  1.00 21.52 LIG 0.14  A 
ENDBRANCH 57 58
ENDBRANCH 54 57
ENDBRANCH 52 54
ENDBRANCH 43 50
ENDBRANCH 40 43
ENDBRANCH 38 39
BRANCH 38 63
ATOM     63  CB  HIS X   2       2.845   4.803  22.519  1.00 28.74 LIG 0.10  C 
BRANCH 63 64
ATOM     64  CG  HIS X   2       2.661   6.215  22.968  1.00 28.63 LIG 0.06  A 
ATOM     65 ND1  HIS X   2       1.870   7.106  22.284  1.00 31.27 LIG-0.24  NA
ATOM     66  CE1 HIS X   2       1.874   8.268  22.910  1.00 28.11 LIG 0.23  A 
ATOM     67 NE2  HIS X   2       2.648   8.167  23.974  1.00 29.87 LIG-0.25  NA
ATOM     68  CD2 HIS X   2       3.147   6.887  24.038  1.00 31.84 LIG 0.14  A 
ENDBRANCH 63 64
ENDBRANCH 38 63
ENDBRANCH 3 38
TORSDOF 24
ENDMDL
MODEL 27
USER: ADFR SOLUTION from run 172
USER: SCORE 18.668313 LL:  -5.538 LR: -14.121 RR:   0.000 FEB:  -6.961
USER: RMSD 10.374765
USER: SEED 171
USER: STATUS searching
USER: GENES 26
USER: genes 0 Translation |==|  0.46414 0.42138 0.33332
USER: genes 1 Rotation |==|  0.55979 0.31775 0.96108 0.52473
USER: genes 2 Torsion [N]-C--CA-[N] |==|  0.91026
USER: genes 3 Torsion [C]-CA--N-[C] |==|  0.69933
USER: genes 4 Torsion [N]-C--CA-[N] |==|  0.83890
USER: genes 5 Torsion [C]-CA--N-[C] |==|  0.75721
USER: genes 6 Torsion [N]-C--CA-[N] |==|  0.76502
USER: genes 7 Torsion [C]-CA--N-[H2] |==|  0.36642
USER: genes 8 Torsion [C]-CA--CB-[CG] |==|  0.47651
USER: genes 9 Torsion [CA]-CB--CG-[ND1] |==|  0.10879
USER: genes 10 Torsion [C]-CA--CB-[CG] |==|  0.82769
USER: genes 11 Torsion [CA]-CB--CG-[CD2] |==|  0.35917
USER: genes 12 Torsion [C]-CA--CB-[CG] |==|  0.31739
USER: genes 13 Torsion [CA]-CB--CG-[CD2] |==|  0.01433
USER: genes 14 Torsion [C]-N--CA-[C] |==|  0.69828
USER: genes 15 Torsion [N]-CA--C-[N] |==|  0.95152
USER: genes 16 Torsion [C]-N--CA-[CB] |==|  0.80583
USER: genes 17 Torsion [N]-CA--CB-[CG] |==|  0.84519
USER: genes 18 Torsion [CA]-CB--CG-[ND1] |==|  0.64641
USER: genes 19 Torsion [N]-CA--C-[N] |==|  0.46090
USER: genes 20 Torsion [C]-N--CA-[C] |==|  0.18599
USER: genes 21 Torsion [N]-CA--C-[O] |==|  0.70882
USER: genes 22 Torsion [N]-CA--CB-[CG] |==|  0.66210
USER: genes 23 Torsion [CA]-CB--CG-[ND1] |==|  0.66123
USER: genes 24 Torsion [N]-CA--CB-[CG] |==|  0.54876
USER: genes 25 Torsion [CA]-CB--CG-[CD2] |==|  0.23848
ROOT
ATOM      1  C   HIS X   1       1.904  -1.869  16.570  1.00 40.87 LIG 0.24  C 
ATOM      2 O    HIS X   1       3.119  -1.946  16.367  1.00 40.80 LIG-0.27  OA
ATOM      3  N   HIS X   2       1.246  -0.743  16.764  1.00 30.16 LIG-0.35  N 
ATOM      4 H    HIS X   2       0.401  -0.710  16.921  1.00 30.16 LIG 0.16  HD
ENDROOT
BRANCH 1 5
ATOM      5  CA  HIS X   1       1.008  -3.089  16.610  1.00 48.06 LIG 0.18  C 
BRANCH 5 6
ATOM      6  N   HIS X   1      -0.092  -2.858  17.550  1.00 54.11 LIG-0.35  N 
ATOM      7 H    HIS X   1      -0.678  -2.294  17.270  1.00 54.11 LIG 0.16  HD
ATOM      8  C   HIS X   0      -0.168  -3.464  18.717  1.00 58.54 LIG 0.24  C 
ATOM      9 O    HIS X   0       0.764  -4.087  19.229  1.00 63.37 LIG-0.27  OA
BRANCH 8 10
ATOM     10  CA  HIS X   0      -1.521  -3.331  19.395  1.00 62.53 LIG 0.18  C 
BRANCH 10 11
ATOM     11  N   HIS X   0      -1.902  -1.931  19.612  1.00 60.73 LIG-0.35  N 
ATOM     12  C   HIS X  -1      -1.530  -1.284  20.705  1.00 60.09 LIG 0.25  C 
ATOM     13 O    HIS X  -1      -0.533  -1.582  21.366  1.00 62.79 LIG-0.27  OA
ATOM     14 H    HIS X   0      -2.374  -1.585  18.982  1.00 60.73 LIG 0.16  HD
BRANCH 12 15
ATOM     15  CA  HIS X  -1      -2.409  -0.097  21.078  1.00 59.53 LIG 0.28  C 
BRANCH 15 16
ATOM     16  N   HIS X  -1      -1.970   1.123  20.320  1.00 57.14 LIG-0.07  N 
ATOM     17 H3   HIS X  -1      -1.569   1.690  20.877  1.00 57.14 LIG 0.28  HD
ATOM     18 H2   HIS X  -1      -2.680   1.518  19.956  1.00 57.14 LIG 0.28  HD
ATOM     19 H1   HIS X  -1      -1.401   0.885  19.678  1.00 57.14 LIG 0.28  HD
ENDBRANCH 15 16
BRANCH 15 20
ATOM     20  CB  HIS X  -1      -3.885  -0.395  20.810  1.00 57.27 LIG 0.10  C 
BRANCH 20 21
ATOM     21  CG  HIS X  -1      -4.818   0.646  21.337  1.00 54.13 LIG 0.06  A 
ATOM     22 ND1  HIS X  -1      -4.538   1.994  21.277  1.00 52.72 LIG-0.24  NA
ATOM     23  CE1 HIS X  -1      -5.529   2.671  21.834  1.00 54.35 LIG 0.23  A 
ATOM     24 NE2  HIS X  -1      -6.440   1.810  22.254  1.00 53.65 LIG-0.25  NA
ATOM     25  CD2 HIS X  -1      -6.019   0.536  21.954  1.00 55.23 LIG 0.14  A 
ENDBRANCH 20 21
ENDBRANCH 15 20
ENDBRANCH 12 15
ENDBRANCH 10 11
BRANCH 10 26
ATOM     26  CB  HIS X   0      -2.593  -4.096  18.588  1.00 64.99 LIG 0.10  C 
BRANCH 26 27
ATOM     27  CG  HIS X   0      -2.799  -3.577  17.194  1.00 69.41 LIG 0.06  A 
ATOM     28 ND1  HIS X   0      -2.997  -2.239  16.917  1.00 72.01 LIG-0.24  NA
ATOM     29  CE1 HIS X   0      -3.140  -2.076  15.613  1.00 72.69 LIG 0.23  A 
ATOM     30 NE2  HIS X   0      -3.037  -3.258  15.032  1.00 72.94 LIG-0.25  NA
ATOM     31  CD2 HIS X   0      -2.819  -4.214  15.998  1.00 71.12 LIG 0.14  A 
ENDBRANCH 26 27
ENDBRANCH 10 26
ENDBRANCH 8 10
ENDBRANCH 5 6
BRANCH 5 32
ATOM     32  CB  HIS X   1       0.460  -3.387  15.216  1.00 48.25 LIG 0.10  C 
BRANCH 32 33
ATOM     33  CG  HIS X   1       0.951  -4.679  14.641  1.00 50.36 LIG 0.06  A 
ATOM     34  CD2 HIS X   1       1.716  -5.659  15.181  1.00 51.47 LIG 0.14  A 
ATOM     35 NE2  HIS X   1       1.862  -6.634  14.223  1.00 50.72 LIG-0.25  NA
ATOM     36  CE1 HIS X   1       1.208  -6.264  13.134  1.00 48.50 LIG 0.23  A 
ATOM     37 ND1  HIS X   1       0.651  -5.088  13.358  1.00 47.89 LIG-0.24  NA
ENDBRANCH 32 33
ENDBRANCH 5 32
ENDBRANCH 1 5
BRANCH 3 38
ATOM     38  CA  HIS X   2       1.899   0.585  16.728  1.00 26.25 LIG 0.18  C 
BRANCH 38 39
ATOM     39  C   HIS X   2       2.007   1.229  18.107  1.00 23.72 LIG 0.24  C 
ATOM     40  N   HIS X   3       1.206   0.697  19.015  1.00 22.33 LIG-0.35  N 
ATOM     41 H    HIS X   3       0.656   0.056  18.850  1.00 22.33 LIG 0.16  HD
ATOM     42 O    HIS X   2       2.772   2.177  18.341  1.00 19.88 LIG-0.27  OA
BRANCH 40 43
ATOM     43  CA  HIS X   3       1.186   1.164  20.410  1.00 22.38 LIG 0.18  C 
BRANCH 43 44
ATOM     44  CB  HIS X   3       2.478   0.794  21.205  1.00 22.51 LIG 0.10  C 
BRANCH 44 45
ATOM     45  CG  HIS X   3       2.824  -0.668  21.229  1.00 18.10 LIG 0.06  A 
ATOM     46  CD2 HIS X   3       3.042  -1.558  20.229  1.00 18.75 LIG 0.14  A 
ATOM     47 NE2  HIS X   3       3.372  -2.758  20.817  1.00 20.06 LIG-0.25  NA
ATOM     48  CE1 HIS X   3       3.371  -2.605  22.128  1.00 21.69 LIG 0.23  A 
ATOM     49 ND1  HIS X   3       3.059  -1.349  22.400  1.00 17.48 LIG-0.24  NA
ENDBRANCH 44 45
ENDBRANCH 43 44
BRANCH 43 50
ATOM     50  C   HIS X   3       0.854   2.654  20.491  1.00 21.59 LIG 0.24  C 
ATOM     51 O    HIS X   3       0.939   3.393  19.517  1.00 25.47 LIG-0.27  OA
ATOM     52  N   HIS X   4       0.532   3.090  21.691  1.00 25.63 LIG-0.35  N 
ATOM     53 H    HIS X   4       0.496   2.594  22.393  1.00 25.63 LIG 0.16  HD
BRANCH 52 54
ATOM     54  CA  HIS X   4       0.202   4.500  21.918  1.00 23.96 LIG 0.17  C 
BRANCH 54 55
ATOM     55  C   HIS X   4      -1.109   4.811  21.190  1.00 31.35 LIG 0.22  C 
ATOM     56 O    HIS X   4      -1.120   5.453  20.138  1.00 37.06 LIG-0.29  OA
ENDBRANCH 54 55
BRANCH 54 57
ATOM     57  CB  HIS X   4       1.330   5.432  21.457  1.00 23.83 LIG 0.09  C 
BRANCH 57 58
ATOM     58  CG  HIS X   4       1.875   6.318  22.547  1.00 22.57 LIG 0.06  A 
ATOM     59 ND1  HIS X   4       1.880   7.698  22.466  1.00 22.63 LIG-0.24  NA
ATOM     60  CE1 HIS X   4       2.412   8.199  23.568  1.00 19.94 LIG 0.23  A 
ATOM     61 NE2  HIS X   4       2.767   7.198  24.351  1.00 20.25 LIG-0.25  NA
ATOM     62  CD2 HIS X   4       2.429   6.013  23.742  1.00 21.52 LIG 0.14  A 
ENDBRANCH 57 58
ENDBRANCH 54 57
ENDBRANCH 52 54
ENDBRANCH 43 50
ENDBRANCH 40 43
ENDBRANCH 38 39
BRANCH 38 63
ATOM     63  CB  HIS X   2       1.156   1.534  15.780  1.00 28.74 LIG 0.10  C 
BRANCH 63 64
ATOM     64  CG  HIS X   2       1.959   2.724  15.371  1.00 28.63 LIG 0.06  A 
ATOM     65 ND1  HIS X   2       1.895   3.921  16.044  1.00 31.27 LIG-0.24  NA
ATOM     66  CE1 HIS X   2       2.716   4.787  15.480  1.00 28.11 LIG 0.23  A 
ATOM     67 NE2  HIS X   2       3.305   4.199  14.457  1.00 29.87 LIG-0.25  NA
ATOM     68  CD2 HIS X   2       2.854   2.902  14.371  1.00 31.84 LIG 0.14  A 
ENDBRANCH 63 64
ENDBRANCH 38 63
ENDBRANCH 3 38
TORSDOF 24
ENDMDL
MODEL 28
USER: ADFR SOLUTION from run 177
USER: SCORE 17.349023 LL:  -5.146 LR: -14.047 RR:   0.000 FEB:  -6.888
USER: RMSD 10.158082
USER: SEED 176
USER: STATUS searching
USER: GENES 26
USER: genes 0 Translation |==|  0.51326 0.56685 0.45182
USER: genes 1 Rotation |==|  0.16403 0.42237 0.83942 0.62607
USER: genes 2 Torsion [N]-C--CA-[N] |==|  0.52059
USER: genes 3 Torsion [C]-CA--N-[C] |==|  0.59158
USER: genes 4 Torsion [N]-C--CA-[N] |==|  0.48199
USER: genes 5 Torsion [C]-CA--N-[C] |==|  0.54315
USER: genes 6 Torsion [N]-C--CA-[N] |==|  0.94113
USER: genes 7 Torsion [C]-CA--N-[H2] |==|  0.70725
USER: genes 8 Torsion [C]-CA--CB-[CG] |==|  0.41934
USER: genes 9 Torsion [CA]-CB--CG-[ND1] |==|  0.13714
USER: genes 10 Torsion [C]-CA--CB-[CG] |==|  0.46408
USER: genes 11 Torsion [CA]-CB--CG-[CD2] |==|  0.78344
USER: genes 12 Torsion [C]-CA--CB-[CG] |==|  0.25471
USER: genes 13 Torsion [CA]-CB--CG-[CD2] |==|  0.57901
USER: genes 14 Torsion [C]-N--CA-[C] |==|  0.81248
USER: genes 15 Torsion [N]-CA--C-[N] |==|  0.94899
USER: genes 16 Torsion [C]-N--CA-[CB] |==|  0.26111
USER: genes 17 Torsion [N]-CA--CB-[CG] |==|  0.63396
USER: genes 18 Torsion [CA]-CB--CG-[ND1] |==|  0.75586
USER: genes 19 Torsion [N]-CA--C-[N] |==|  0.50752
USER: genes 20 Torsion [C]-N--CA-[C] |==|  0.50680
USER: genes 21 Torsion [N]-CA--C-[O] |==|  0.26826
USER: genes 22 Torsion [N]-CA--CB-[CG] |==|  0.59749
USER: genes 23 Torsion [CA]-CB--CG-[ND1] |==|  0.79939
USER: genes 24 Torsion [N]-CA--CB-[CG] |==|  0.42148
USER: genes 25 Torsion [CA]-CB--CG-[CD2] |==|  0.25651
ROOT
ATOM      1  C   HIS X   1       2.899   1.622  18.703  1.00 40.87 LIG 0.24  C 
ATOM      2 O    HIS X   1       2.732   0.986  19.747  1.00 40.80 LIG-0.27  OA
ATOM      3  N   HIS X   2       3.778   2.592  18.548  1.00 30.16 LIG-0.35  N 
ATOM      4 H    HIS X   2       3.868   3.037  17.817  1.00 30.16 LIG 0.16  HD
ENDROOT
BRANCH 1 5
ATOM      5  CA  HIS X   1       2.097   1.348  17.448  1.00 48.06 LIG 0.18  C 
BRANCH 5 6
ATOM      6  N   HIS X   1       1.030   0.390  17.749  1.00 54.11 LIG-0.35  N 
ATOM      7 H    HIS X   1       0.713   0.458  18.546  1.00 54.11 LIG 0.16  HD
ATOM      8  C   HIS X   0       0.601  -0.494  16.871  1.00 58.54 LIG 0.24  C 
ATOM      9 O    HIS X   0       1.190  -0.760  15.821  1.00 63.37 LIG-0.27  OA
BRANCH 8 10
ATOM     10  CA  HIS X   0      -0.701  -1.172  17.262  1.00 62.53 LIG 0.18  C 
BRANCH 10 11
ATOM     11  N   HIS X   0      -1.224  -2.033  16.195  1.00 60.73 LIG-0.35  N 
ATOM     12  C   HIS X  -1      -2.476  -2.462  16.217  1.00 60.09 LIG 0.25  C 
ATOM     13 O    HIS X  -1      -3.388  -1.873  16.801  1.00 62.79 LIG-0.27  OA
ATOM     14 H    HIS X   0      -0.658  -2.224  15.577  1.00 60.73 LIG 0.16  HD
BRANCH 12 15
ATOM     15  CA  HIS X  -1      -2.730  -3.738  15.423  1.00 59.53 LIG 0.28  C 
BRANCH 15 16
ATOM     16  N   HIS X  -1      -1.647  -3.927  14.400  1.00 57.14 LIG-0.07  N 
ATOM     17 H3   HIS X  -1      -0.964  -3.388  14.587  1.00 57.14 LIG 0.28  HD
ATOM     18 H2   HIS X  -1      -1.964  -3.732  13.591  1.00 57.14 LIG 0.28  HD
ATOM     19 H1   HIS X  -1      -1.370  -4.773  14.413  1.00 57.14 LIG 0.28  HD
ENDBRANCH 15 16
BRANCH 15 20
ATOM     20  CB  HIS X  -1      -2.819  -4.955  16.345  1.00 57.27 LIG 0.10  C 
BRANCH 20 21
ATOM     21  CG  HIS X  -1      -3.695  -6.047  15.821  1.00 54.13 LIG 0.06  A 
ATOM     22 ND1  HIS X  -1      -3.586  -6.536  14.537  1.00 52.72 LIG-0.24  NA
ATOM     23  CE1 HIS X  -1      -4.496  -7.477  14.350  1.00 54.35 LIG 0.23  A 
ATOM     24 NE2  HIS X  -1      -5.192  -7.615  15.466  1.00 53.65 LIG-0.25  NA
ATOM     25  CD2 HIS X  -1      -4.708  -6.731  16.403  1.00 55.23 LIG 0.14  A 
ENDBRANCH 20 21
ENDBRANCH 15 20
ENDBRANCH 12 15
ENDBRANCH 10 11
BRANCH 10 26
ATOM     26  CB  HIS X   0      -0.516  -1.949  18.583  1.00 64.99 LIG 0.10  C 
BRANCH 26 27
ATOM     27  CG  HIS X   0      -1.801  -2.398  19.218  1.00 69.41 LIG 0.06  A 
ATOM     28 ND1  HIS X   0      -2.249  -3.702  19.151  1.00 72.01 LIG-0.24  NA
ATOM     29  CE1 HIS X   0      -3.396  -3.807  19.801  1.00 72.69 LIG 0.23  A 
ATOM     30 NE2  HIS X   0      -3.705  -2.620  20.292  1.00 72.94 LIG-0.25  NA
ATOM     31  CD2 HIS X   0      -2.722  -1.722  19.945  1.00 71.12 LIG 0.14  A 
ENDBRANCH 26 27
ENDBRANCH 10 26
ENDBRANCH 8 10
ENDBRANCH 5 6
BRANCH 5 32
ATOM     32  CB  HIS X   1       1.504   2.647  16.907  1.00 48.25 LIG 0.10  C 
BRANCH 32 33
ATOM     33  CG  HIS X   1       2.377   3.334  15.903  1.00 50.36 LIG 0.06  A 
ATOM     34  CD2 HIS X   1       2.502   4.645  15.581  1.00 51.47 LIG 0.14  A 
ATOM     35 NE2  HIS X   1       3.456   4.731  14.596  1.00 50.72 LIG-0.25  NA
ATOM     36  CE1 HIS X   1       3.901   3.516  14.323  1.00 48.50 LIG 0.23  A 
ATOM     37 ND1  HIS X   1       3.266   2.654  15.096  1.00 47.89 LIG-0.24  NA
ENDBRANCH 32 33
ENDBRANCH 5 32
ENDBRANCH 1 5
BRANCH 3 38
ATOM     38  CA  HIS X   2       4.707   3.014  19.621  1.00 26.25 LIG 0.18  C 
BRANCH 38 39
ATOM     39  C   HIS X   2       3.992   3.673  20.797  1.00 23.72 LIG 0.24  C 
ATOM     40  N   HIS X   3       2.772   4.100  20.515  1.00 22.33 LIG-0.35  N 
ATOM     41 H    HIS X   3       2.410   4.033  19.738  1.00 22.33 LIG 0.16  HD
ATOM     42 O    HIS X   2       4.524   3.805  21.909  1.00 19.88 LIG-0.27  OA
BRANCH 40 43
ATOM     43  CA  HIS X   3       1.914   4.737  21.528  1.00 22.38 LIG 0.18  C 
BRANCH 43 44
ATOM     44  CB  HIS X   3       2.012   6.296  21.528  1.00 22.51 LIG 0.10  C 
BRANCH 44 45
ATOM     45  CG  HIS X   3       2.210   6.930  22.876  1.00 18.10 LIG 0.06  A 
ATOM     46  CD2 HIS X   3       3.331   7.343  23.519  1.00 18.75 LIG 0.14  A 
ATOM     47 NE2  HIS X   3       2.932   7.897  24.715  1.00 20.06 LIG-0.25  NA
ATOM     48  CE1 HIS X   3       1.616   7.838  24.794  1.00 21.69 LIG 0.23  A 
ATOM     49 ND1  HIS X   3       1.158   7.273  23.690  1.00 17.48 LIG-0.24  NA
ENDBRANCH 44 45
ENDBRANCH 43 44
BRANCH 43 50
ATOM     50  C   HIS X   3       0.473   4.239  21.426  1.00 21.59 LIG 0.24  C 
ATOM     51 O    HIS X   3       0.127   3.416  20.587  1.00 25.47 LIG-0.27  OA
ATOM     52  N   HIS X   4      -0.373   4.803  22.263  1.00 25.63 LIG-0.35  N 
ATOM     53 H    HIS X   4      -0.156   5.404  22.839  1.00 25.63 LIG 0.16  HD
BRANCH 52 54
ATOM     54  CA  HIS X   4      -1.790   4.431  22.268  1.00 23.96 LIG 0.17  C 
BRANCH 54 55
ATOM     55  C   HIS X   4      -2.514   5.301  23.301  1.00 31.35 LIG 0.22  C 
ATOM     56 O    HIS X   4      -3.111   6.326  22.969  1.00 37.06 LIG-0.29  OA
ENDBRANCH 54 55
BRANCH 54 57
ATOM     57  CB  HIS X   4      -1.988   2.938  22.560  1.00 23.83 LIG 0.09  C 
BRANCH 57 58
ATOM     58  CG  HIS X   4      -3.143   2.318  21.820  1.00 22.57 LIG 0.06  A 
ATOM     59 ND1  HIS X   4      -4.466   2.571  22.136  1.00 22.63 LIG-0.24  NA
ATOM     60  CE1 HIS X   4      -5.250   1.893  21.314  1.00 19.94 LIG 0.23  A 
ATOM     61 NE2  HIS X   4      -4.488   1.198  20.491  1.00 20.25 LIG-0.25  NA
ATOM     62  CD2 HIS X   4      -3.169   1.456  20.777  1.00 21.52 LIG 0.14  A 
ENDBRANCH 57 58
ENDBRANCH 54 57
ENDBRANCH 52 54
ENDBRANCH 43 50
ENDBRANCH 40 43
ENDBRANCH 38 39
BRANCH 38 63
ATOM     63  CB  HIS X   2       5.776   3.968  19.076  1.00 28.74 LIG 0.10  C 
BRANCH 63 64
ATOM     64  CG  HIS X   2       6.299   4.928  20.092  1.00 28.63 LIG 0.06  A 
ATOM     65 ND1  HIS X   2       5.690   6.134  20.346  1.00 31.27 LIG-0.24  NA
ATOM     66  CE1 HIS X   2       6.351   6.768  21.296  1.00 28.11 LIG 0.23  A 
ATOM     67 NE2  HIS X   2       7.375   6.022  21.662  1.00 29.87 LIG-0.25  NA
ATOM     68  CD2 HIS X   2       7.362   4.858  20.928  1.00 31.84 LIG 0.14  A 
ENDBRANCH 63 64
ENDBRANCH 38 63
ENDBRANCH 3 38
TORSDOF 24
ENDMDL
MODEL 29
USER: ADFR SOLUTION from run 74
USER: SCORE 18.093612 LL:  -6.306 LR: -14.053 RR:   0.000 FEB:  -6.894
USER: RMSD 6.273937
USER: SEED 73
USER: STATUS no improvement in best in 18 clusters for 5 generations
USER: GENES 26
USER: genes 0 Translation |==|  0.54670 0.58181 0.36818
USER: genes 1 Rotation |==|  0.82413 0.72558 0.77887 0.62760
USER: genes 2 Torsion [N]-C--CA-[N] |==|  0.07474
USER: genes 3 Torsion [C]-CA--N-[C] |==|  0.16158
USER: genes 4 Torsion [N]-C--CA-[N] |==|  0.46984
USER: genes 5 Torsion [C]-CA--N-[C] |==|  0.57777
USER: genes 6 Torsion [N]-C--CA-[N] |==|  0.45649
USER: genes 7 Torsion [C]-CA--N-[H2] |==|  0.61245
USER: genes 8 Torsion [C]-CA--CB-[CG] |==|  0.18546
USER: genes 9 Torsion [CA]-CB--CG-[ND1] |==|  0.74440
USER: genes 10 Torsion [C]-CA--CB-[CG] |==|  0.44954
USER: genes 11 Torsion [CA]-CB--CG-[CD2] |==|  0.79535
USER: genes 12 Torsion [C]-CA--CB-[CG] |==|  0.18992
USER: genes 13 Torsion [CA]-CB--CG-[CD2] |==|  0.08247
USER: genes 14 Torsion [C]-N--CA-[C] |==|  0.12222
USER: genes 15 Torsion [N]-CA--C-[N] |==|  0.11238
USER: genes 16 Torsion [C]-N--CA-[CB] |==|  0.93633
USER: genes 17 Torsion [N]-CA--CB-[CG] |==|  0.59671
USER: genes 18 Torsion [CA]-CB--CG-[ND1] |==|  0.02724
USER: genes 19 Torsion [N]-CA--C-[N] |==|  0.61902
USER: genes 20 Torsion [C]-N--CA-[C] |==|  0.81381
USER: genes 21 Torsion [N]-CA--C-[O] |==|  0.91566
USER: genes 22 Torsion [N]-CA--CB-[CG] |==|  0.10812
USER: genes 23 Torsion [CA]-CB--CG-[ND1] |==|  0.81326
USER: genes 24 Torsion [N]-CA--CB-[CG] |==|  0.98499
USER: genes 25 Torsion [CA]-CB--CG-[CD2] |==|  0.76364
ROOT
ATOM      1  C   HIS X   1       3.576   1.981  17.197  1.00 40.87 LIG 0.24  C 
ATOM      2 O    HIS X   1       3.731   0.950  16.537  1.00 40.80 LIG-0.27  OA
ATOM      3  N   HIS X   2       2.586   2.836  17.030  1.00 30.16 LIG-0.35  N 
ATOM      4 H    HIS X   2       2.504   3.559  17.488  1.00 30.16 LIG 0.16  HD
ENDROOT
BRANCH 1 5
ATOM      5  CA  HIS X   1       4.523   2.386  18.307  1.00 48.06 LIG 0.18  C 
BRANCH 5 6
ATOM      6  N   HIS X   1       3.805   3.203  19.289  1.00 54.11 LIG-0.35  N 
ATOM      7 H    HIS X   1       4.144   3.985  19.408  1.00 54.11 LIG 0.16  HD
ATOM      8  C   HIS X   0       2.738   2.770  19.928  1.00 58.54 LIG 0.24  C 
ATOM      9 O    HIS X   0       2.380   1.591  19.947  1.00 63.37 LIG-0.27  OA
BRANCH 8 10
ATOM     10  CA  HIS X   0       1.969   3.860  20.656  1.00 62.53 LIG 0.18  C 
BRANCH 10 11
ATOM     11  N   HIS X   0       0.663   3.395  21.138  1.00 60.73 LIG-0.35  N 
ATOM     12  C   HIS X  -1      -0.348   4.236  21.285  1.00 60.09 LIG 0.25  C 
ATOM     13 O    HIS X  -1      -0.455   5.289  20.654  1.00 62.79 LIG-0.27  OA
ATOM     14 H    HIS X   0       0.622   2.554  21.309  1.00 60.73 LIG 0.16  HD
BRANCH 12 15
ATOM     15  CA  HIS X  -1      -1.415   3.788  22.278  1.00 59.53 LIG 0.28  C 
BRANCH 15 16
ATOM     16  N   HIS X  -1      -2.289   4.952  22.648  1.00 57.14 LIG-0.07  N 
ATOM     17 H3   HIS X  -1      -1.868   5.712  22.457  1.00 57.14 LIG 0.28  HD
ATOM     18 H2   HIS X  -1      -2.468   4.924  23.520  1.00 57.14 LIG 0.28  HD
ATOM     19 H1   HIS X  -1      -3.050   4.910  22.187  1.00 57.14 LIG 0.28  HD
ENDBRANCH 15 16
BRANCH 15 20
ATOM     20  CB  HIS X  -1      -2.254   2.643  21.710  1.00 57.27 LIG 0.10  C 
BRANCH 20 21
ATOM     21  CG  HIS X  -1      -1.491   1.372  21.519  1.00 54.13 LIG 0.06  A 
ATOM     22 ND1  HIS X  -1      -0.866   1.051  20.333  1.00 52.72 LIG-0.24  NA
ATOM     23  CE1 HIS X  -1      -0.290  -0.134  20.450  1.00 54.35 LIG 0.23  A 
ATOM     24 NE2  HIS X  -1      -0.521  -0.594  21.668  1.00 53.65 LIG-0.25  NA
ATOM     25  CD2 HIS X  -1      -1.269   0.332  22.358  1.00 55.23 LIG 0.14  A 
ENDBRANCH 20 21
ENDBRANCH 15 20
ENDBRANCH 12 15
ENDBRANCH 10 11
BRANCH 10 26
ATOM     26  CB  HIS X   0       2.828   4.437  21.802  1.00 64.99 LIG 0.10  C 
BRANCH 26 27
ATOM     27  CG  HIS X   0       2.366   5.775  22.303  1.00 69.41 LIG 0.06  A 
ATOM     28 ND1  HIS X   0       1.743   5.941  23.524  1.00 72.01 LIG-0.24  NA
ATOM     29  CE1 HIS X   0       1.458   7.219  23.702  1.00 72.69 LIG 0.23  A 
ATOM     30 NE2  HIS X   0       1.877   7.891  22.644  1.00 72.94 LIG-0.25  NA
ATOM     31  CD2 HIS X   0       2.453   7.012  21.756  1.00 71.12 LIG 0.14  A 
ENDBRANCH 26 27
ENDBRANCH 10 26
ENDBRANCH 8 10
ENDBRANCH 5 6
BRANCH 5 32
ATOM     32  CB  HIS X   1       5.109   1.145  18.978  1.00 48.25 LIG 0.10  C 
BRANCH 32 33
ATOM     33  CG  HIS X   1       6.042   0.371  18.099  1.00 50.36 LIG 0.06  A 
ATOM     34  CD2 HIS X   1       6.856   0.775  17.093  1.00 51.47 LIG 0.14  A 
ATOM     35 NE2  HIS X   1       7.506  -0.342  16.625  1.00 50.72 LIG-0.25  NA
ATOM     36  CE1 HIS X   1       7.105  -1.393  17.320  1.00 48.50 LIG 0.23  A 
ATOM     37 ND1  HIS X   1       6.221  -0.992  18.215  1.00 47.89 LIG-0.24  NA
ENDBRANCH 32 33
ENDBRANCH 5 32
ENDBRANCH 1 5
BRANCH 3 38
ATOM     38  CA  HIS X   2       1.510   2.635  16.033  1.00 26.25 LIG 0.18  C 
BRANCH 38 39
ATOM     39  C   HIS X   2       0.982   1.205  16.012  1.00 23.72 LIG 0.24  C 
ATOM     40  N   HIS X   3       0.849   0.661  17.211  1.00 22.33 LIG-0.35  N 
ATOM     41 H    HIS X   3       1.056   1.063  17.943  1.00 22.33 LIG 0.16  HD
ATOM     42 O    HIS X   2       0.718   0.608  14.958  1.00 19.88 LIG-0.27  OA
BRANCH 40 43
ATOM     43  CA  HIS X   3       0.327  -0.702  17.397  1.00 22.38 LIG 0.18  C 
BRANCH 43 44
ATOM     44  CB  HIS X   3      -0.548  -1.198  16.204  1.00 22.51 LIG 0.10  C 
BRANCH 44 45
ATOM     45  CG  HIS X   3      -1.703  -2.086  16.575  1.00 18.10 LIG 0.06  A 
ATOM     46  CD2 HIS X   3      -2.504  -2.881  15.823  1.00 18.75 LIG 0.14  A 
ATOM     47 NE2  HIS X   3      -3.374  -3.511  16.683  1.00 20.06 LIG-0.25  NA
ATOM     48  CE1 HIS X   3      -3.106  -3.128  17.917  1.00 21.69 LIG 0.23  A 
ATOM     49 ND1  HIS X   3      -2.092  -2.280  17.878  1.00 17.48 LIG-0.24  NA
ENDBRANCH 44 45
ENDBRANCH 43 44
BRANCH 43 50
ATOM     50  C   HIS X   3       1.447  -1.680  17.750  1.00 21.59 LIG 0.24  C 
ATOM     51 O    HIS X   3       2.359  -1.378  18.511  1.00 25.47 LIG-0.27  OA
ATOM     52  N   HIS X   4       1.390  -2.841  17.132  1.00 25.63 LIG-0.35  N 
ATOM     53 H    HIS X   4       0.776  -3.062  16.571  1.00 25.63 LIG 0.16  HD
BRANCH 52 54
ATOM     54  CA  HIS X   4       2.406  -3.871  17.365  1.00 23.96 LIG 0.17  C 
BRANCH 54 55
ATOM     55  C   HIS X   4       3.740  -3.368  16.805  1.00 31.35 LIG 0.22  C 
ATOM     56 O    HIS X   4       3.781  -2.606  15.837  1.00 37.06 LIG-0.29  OA
ENDBRANCH 54 55
BRANCH 54 57
ATOM     57  CB  HIS X   4       2.011  -5.215  16.740  1.00 23.83 LIG 0.09  C 
BRANCH 57 58
ATOM     58  CG  HIS X   4       1.339  -5.092  15.398  1.00 22.57 LIG 0.06  A 
ATOM     59 ND1  HIS X   4       0.088  -4.527  15.228  1.00 22.63 LIG-0.24  NA
ATOM     60  CE1 HIS X   4      -0.233  -4.554  13.945  1.00 19.94 LIG 0.23  A 
ATOM     61 NE2  HIS X   4       0.751  -5.127  13.280  1.00 20.25 LIG-0.25  NA
ATOM     62  CD2 HIS X   4       1.752  -5.460  14.163  1.00 21.52 LIG 0.14  A 
ENDBRANCH 57 58
ENDBRANCH 54 57
ENDBRANCH 52 54
ENDBRANCH 43 50
ENDBRANCH 40 43
ENDBRANCH 38 39
BRANCH 38 63
ATOM     63  CB  HIS X   2       1.989   3.021  14.628  1.00 28.74 LIG 0.10  C 
BRANCH 63 64
ATOM     64  CG  HIS X   2       3.355   3.622  14.603  1.00 28.63 LIG 0.06  A 
ATOM     65 ND1  HIS X   2       4.480   2.876  14.340  1.00 31.27 LIG-0.24  NA
ATOM     66  CE1 HIS X   2       5.542   3.660  14.364  1.00 28.11 LIG 0.23  A 
ATOM     67 NE2  HIS X   2       5.149   4.888  14.643  1.00 29.87 LIG-0.25  NA
ATOM     68  CD2 HIS X   2       3.781   4.893  14.789  1.00 31.84 LIG 0.14  A 
ENDBRANCH 63 64
ENDBRANCH 38 63
ENDBRANCH 3 38
TORSDOF 24
ENDMDL
MODEL 30
USER: ADFR SOLUTION from run 67
USER: SCORE 16.732454 LL:  -5.852 LR: -14.039 RR:   0.000 FEB:  -6.880
USER: RMSD 6.600604
USER: SEED 66
USER: STATUS no improvement in best in 14 clusters for 5 generations
USER: GENES 26
USER: genes 0 Translation |==|  0.48744 0.62791 0.50665
USER: genes 1 Rotation |==|  0.54447 0.78968 0.87215 0.66003
USER: genes 2 Torsion [N]-C--CA-[N] |==|  0.20151
USER: genes 3 Torsion [C]-CA--N-[C] |==|  0.64816
USER: genes 4 Torsion [N]-C--CA-[N] |==|  0.77626
USER: genes 5 Torsion [C]-CA--N-[C] |==|  0.58456
USER: genes 6 Torsion [N]-C--CA-[N] |==|  0.68321
USER: genes 7 Torsion [C]-CA--N-[H2] |==|  0.55644
USER: genes 8 Torsion [C]-CA--CB-[CG] |==|  0.50455
USER: genes 9 Torsion [CA]-CB--CG-[ND1] |==|  0.22028
USER: genes 10 Torsion [C]-CA--CB-[CG] |==|  0.16774
USER: genes 11 Torsion [CA]-CB--CG-[CD2] |==|  0.12595
USER: genes 12 Torsion [C]-CA--CB-[CG] |==|  0.40379
USER: genes 13 Torsion [CA]-CB--CG-[CD2] |==|  0.95628
USER: genes 14 Torsion [C]-N--CA-[C] |==|  0.17320
USER: genes 15 Torsion [N]-CA--C-[N] |==|  0.30787
USER: genes 16 Torsion [C]-N--CA-[CB] |==|  0.18876
USER: genes 17 Torsion [N]-CA--CB-[CG] |==|  0.52322
USER: genes 18 Torsion [CA]-CB--CG-[ND1] |==|  0.55188
USER: genes 19 Torsion [N]-CA--C-[N] |==|  0.68564
USER: genes 20 Torsion [C]-N--CA-[C] |==|  0.61470
USER: genes 21 Torsion [N]-CA--C-[O] |==|  0.04575
USER: genes 22 Torsion [N]-CA--CB-[CG] |==|  0.75562
USER: genes 23 Torsion [CA]-CB--CG-[ND1] |==|  0.46787
USER: genes 24 Torsion [N]-CA--CB-[CG] |==|  0.74524
USER: genes 25 Torsion [CA]-CB--CG-[CD2] |==|  0.06195
ROOT
ATOM      1  C   HIS X   1       2.376   3.088  19.690  1.00 40.87 LIG 0.24  C 
ATOM      2 O    HIS X   1       3.409   2.488  19.999  1.00 40.80 LIG-0.27  OA
ATOM      3  N   HIS X   2       1.769   2.983  18.524  1.00 30.16 LIG-0.35  N 
ATOM      4 H    HIS X   2       1.058   3.422  18.320  1.00 30.16 LIG 0.16  HD
ENDROOT
BRANCH 1 5
ATOM      5  CA  HIS X   1       1.666   4.028  20.641  1.00 48.06 LIG 0.18  C 
BRANCH 5 6
ATOM      6  N   HIS X   1       0.434   3.399  21.123  1.00 54.11 LIG-0.35  N 
ATOM      7 H    HIS X   1       0.551   2.618  21.464  1.00 54.11 LIG 0.16  HD
ATOM      8  C   HIS X   0      -0.742   3.985  21.038  1.00 58.54 LIG 0.24  C 
ATOM      9 O    HIS X   0      -0.963   4.986  20.354  1.00 63.37 LIG-0.27  OA
BRANCH 8 10
ATOM     10  CA  HIS X   0      -1.828   3.316  21.865  1.00 62.53 LIG 0.18  C 
BRANCH 10 11
ATOM     11  N   HIS X   0      -2.392   2.138  21.197  1.00 60.73 LIG-0.35  N 
ATOM     12  C   HIS X  -1      -3.651   1.779  21.394  1.00 60.09 LIG 0.25  C 
ATOM     13 O    HIS X  -1      -4.537   2.566  21.735  1.00 62.79 LIG-0.27  OA
ATOM     14 H    HIS X   0      -1.844   1.718  20.684  1.00 60.73 LIG 0.16  HD
BRANCH 12 15
ATOM     15  CA  HIS X  -1      -3.948   0.308  21.128  1.00 59.53 LIG 0.28  C 
BRANCH 15 16
ATOM     16  N   HIS X  -1      -4.870   0.178  19.949  1.00 57.14 LIG-0.07  N 
ATOM     17 H3   HIS X  -1      -5.485   0.821  19.982  1.00 57.14 LIG 0.28  HD
ATOM     18 H2   HIS X  -1      -5.271  -0.616  19.972  1.00 57.14 LIG 0.28  HD
ATOM     19 H1   HIS X  -1      -4.402   0.254  19.196  1.00 57.14 LIG 0.28  HD
ENDBRANCH 15 16
BRANCH 15 20
ATOM     20  CB  HIS X  -1      -2.660  -0.482  20.893  1.00 57.27 LIG 0.10  C 
BRANCH 20 21
ATOM     21  CG  HIS X  -1      -2.886  -1.928  20.588  1.00 54.13 LIG 0.06  A 
ATOM     22 ND1  HIS X  -1      -3.264  -2.374  19.339  1.00 52.72 LIG-0.24  NA
ATOM     23  CE1 HIS X  -1      -3.407  -3.688  19.369  1.00 54.35 LIG 0.23  A 
ATOM     24 NE2  HIS X  -1      -3.136  -4.111  20.593  1.00 53.65 LIG-0.25  NA
ATOM     25  CD2 HIS X  -1      -2.805  -3.028  21.374  1.00 55.23 LIG 0.14  A 
ENDBRANCH 20 21
ENDBRANCH 15 20
ENDBRANCH 12 15
ENDBRANCH 10 11
BRANCH 10 26
ATOM     26  CB  HIS X   0      -1.284   2.970  23.268  1.00 64.99 LIG 0.10  C 
BRANCH 26 27
ATOM     27  CG  HIS X   0      -0.819   4.160  24.058  1.00 69.41 LIG 0.06  A 
ATOM     28 ND1  HIS X   0       0.382   4.181  24.738  1.00 72.01 LIG-0.24  NA
ATOM     29  CE1 HIS X   0       0.531   5.353  25.333  1.00 72.69 LIG 0.23  A 
ATOM     30 NE2  HIS X   0      -0.527   6.095  25.059  1.00 72.94 LIG-0.25  NA
ATOM     31  CD2 HIS X   0      -1.385   5.375  24.259  1.00 71.12 LIG 0.14  A 
ENDBRANCH 26 27
ENDBRANCH 10 26
ENDBRANCH 8 10
ENDBRANCH 5 6
BRANCH 5 32
ATOM     32  CB  HIS X   1       2.578   4.376  21.816  1.00 48.25 LIG 0.10  C 
BRANCH 32 33
ATOM     33  CG  HIS X   1       2.404   5.776  22.318  1.00 50.36 LIG 0.06  A 
ATOM     34  CD2 HIS X   1       1.803   6.854  21.756  1.00 51.47 LIG 0.14  A 
ATOM     35 NE2  HIS X   1       1.919   7.892  22.649  1.00 50.72 LIG-0.25  NA
ATOM     36  CE1 HIS X   1       2.566   7.466  23.720  1.00 48.50 LIG 0.23  A 
ATOM     37 ND1  HIS X   1       2.873   6.193  23.547  1.00 47.89 LIG-0.24  NA
ENDBRANCH 32 33
ENDBRANCH 5 32
ENDBRANCH 1 5
BRANCH 3 38
ATOM     38  CA  HIS X   2       2.251   2.091  17.445  1.00 26.25 LIG 0.18  C 
BRANCH 38 39
ATOM     39  C   HIS X   2       2.236   0.618  17.842  1.00 23.72 LIG 0.24  C 
ATOM     40  N   HIS X   3       1.330  -0.103  17.203  1.00 22.33 LIG-0.35  N 
ATOM     41 H    HIS X   3       0.781   0.221  16.626  1.00 22.33 LIG 0.16  HD
ATOM     42 O    HIS X   2       2.999   0.154  18.701  1.00 19.88 LIG-0.27  OA
BRANCH 40 43
ATOM     43  CA  HIS X   3       1.181  -1.550  17.430  1.00 22.38 LIG 0.18  C 
BRANCH 43 44
ATOM     44  CB  HIS X   3       0.643  -1.901  18.853  1.00 22.51 LIG 0.10  C 
BRANCH 44 45
ATOM     45  CG  HIS X   3       0.658  -3.361  19.207  1.00 18.10 LIG 0.06  A 
ATOM     46  CD2 HIS X   3       1.389  -4.396  18.724  1.00 18.75 LIG 0.14  A 
ATOM     47 NE2  HIS X   3       1.032  -5.515  19.441  1.00 20.06 LIG-0.25  NA
ATOM     48  CE1 HIS X   3       0.128  -5.176  20.340  1.00 21.69 LIG 0.23  A 
ATOM     49 ND1  HIS X   3      -0.102  -3.878  20.228  1.00 17.48 LIG-0.24  NA
ENDBRANCH 44 45
ENDBRANCH 43 44
BRANCH 43 50
ATOM     50  C   HIS X   3       0.365  -2.204  16.317  1.00 21.59 LIG 0.24  C 
ATOM     51 O    HIS X   3       0.755  -2.233  15.155  1.00 25.47 LIG-0.27  OA
ATOM     52  N   HIS X   4      -0.807  -2.677  16.687  1.00 25.63 LIG-0.35  N 
ATOM     53 H    HIS X   4      -1.112  -2.640  17.490  1.00 25.63 LIG 0.16  HD
BRANCH 52 54
ATOM     54  CA  HIS X   4      -1.701  -3.320  15.720  1.00 23.96 LIG 0.17  C 
BRANCH 54 55
ATOM     55  C   HIS X   4      -3.132  -2.851  16.000  1.00 31.35 LIG 0.22  C 
ATOM     56 O    HIS X   4      -3.355  -1.857  16.694  1.00 37.06 LIG-0.29  OA
ENDBRANCH 54 55
BRANCH 54 57
ATOM     57  CB  HIS X   4      -1.595  -4.849  15.773  1.00 23.83 LIG 0.09  C 
BRANCH 57 58
ATOM     58  CG  HIS X   4      -0.522  -5.419  14.883  1.00 22.57 LIG 0.06  A 
ATOM     59 ND1  HIS X   4      -0.105  -6.736  14.952  1.00 22.63 LIG-0.24  NA
ATOM     60  CE1 HIS X   4       0.839  -6.943  14.049  1.00 19.94 LIG 0.23  A 
ATOM     61 NE2  HIS X   4       1.062  -5.810  13.410  1.00 20.25 LIG-0.25  NA
ATOM     62  CD2 HIS X   4       0.214  -4.847  13.903  1.00 21.52 LIG 0.14  A 
ENDBRANCH 57 58
ENDBRANCH 54 57
ENDBRANCH 52 54
ENDBRANCH 43 50
ENDBRANCH 40 43
ENDBRANCH 38 39
BRANCH 38 63
ATOM     63  CB  HIS X   2       3.665   2.485  17.002  1.00 28.74 LIG 0.10  C 
BRANCH 63 64
ATOM     64  CG  HIS X   2       3.692   3.454  15.868  1.00 28.63 LIG 0.06  A 
ATOM     65 ND1  HIS X   2       4.777   3.577  15.032  1.00 31.27 LIG-0.24  NA
ATOM     66  CE1 HIS X   2       4.522   4.490  14.114  1.00 28.11 LIG 0.23  A 
ATOM     67 NE2  HIS X   2       3.314   4.973  14.328  1.00 29.87 LIG-0.25  NA
ATOM     68  CD2 HIS X   2       2.768   4.335  15.417  1.00 31.84 LIG 0.14  A 
ENDBRANCH 63 64
ENDBRANCH 38 63
ENDBRANCH 3 38
TORSDOF 24
ENDMDL
MODEL 31
USER: ADFR SOLUTION from run 173
USER: SCORE 18.752439 LL:  -6.040 LR: -14.012 RR:   0.000 FEB:  -6.852
USER: RMSD 10.486781
USER: SEED 172
USER: STATUS no improvement in best in 23 clusters for 5 generations
USER: GENES 26
USER: genes 0 Translation |==|  0.41402 0.46030 0.34750
USER: genes 1 Rotation |==|  0.60896 0.34195 0.92822 0.67257
USER: genes 2 Torsion [N]-C--CA-[N] |==|  0.39660
USER: genes 3 Torsion [C]-CA--N-[C] |==|  0.60107
USER: genes 4 Torsion [N]-C--CA-[N] |==|  0.01056
USER: genes 5 Torsion [C]-CA--N-[C] |==|  0.75987
USER: genes 6 Torsion [N]-C--CA-[N] |==|  0.48229
USER: genes 7 Torsion [C]-CA--N-[H2] |==|  0.00303
USER: genes 8 Torsion [C]-CA--CB-[CG] |==|  0.79300
USER: genes 9 Torsion [CA]-CB--CG-[ND1] |==|  0.78283
USER: genes 10 Torsion [C]-CA--CB-[CG] |==|  0.46101
USER: genes 11 Torsion [CA]-CB--CG-[CD2] |==|  0.03745
USER: genes 12 Torsion [C]-CA--CB-[CG] |==|  0.13665
USER: genes 13 Torsion [CA]-CB--CG-[CD2] |==|  0.19248
USER: genes 14 Torsion [C]-N--CA-[C] |==|  0.62733
USER: genes 15 Torsion [N]-CA--C-[N] |==|  0.23076
USER: genes 16 Torsion [C]-N--CA-[CB] |==|  0.84233
USER: genes 17 Torsion [N]-CA--CB-[CG] |==|  0.88958
USER: genes 18 Torsion [CA]-CB--CG-[ND1] |==|  0.94867
USER: genes 19 Torsion [N]-CA--C-[N] |==|  0.82222
USER: genes 20 Torsion [C]-N--CA-[C] |==|  0.68989
USER: genes 21 Torsion [N]-CA--C-[O] |==|  0.65002
USER: genes 22 Torsion [N]-CA--CB-[CG] |==|  0.79322
USER: genes 23 Torsion [CA]-CB--CG-[ND1] |==|  0.55757
USER: genes 24 Torsion [N]-CA--CB-[CG] |==|  0.45713
USER: genes 25 Torsion [CA]-CB--CG-[CD2] |==|  0.20289
ROOT
ATOM      1  C   HIS X   1       0.889  -0.935  16.825  1.00 40.87 LIG 0.24  C 
ATOM      2 O    HIS X   1       1.748  -1.569  16.204  1.00 40.80 LIG-0.27  OA
ATOM      3  N   HIS X   2       0.918   0.368  17.026  1.00 30.16 LIG-0.35  N 
ATOM      4 H    HIS X   2       0.320   0.790  17.477  1.00 30.16 LIG 0.16  HD
ENDROOT
BRANCH 1 5
ATOM      5  CA  HIS X   1      -0.329  -1.598  17.432  1.00 48.06 LIG 0.18  C 
BRANCH 5 6
ATOM      6  N   HIS X   1      -0.796  -2.669  16.548  1.00 54.11 LIG-0.35  N 
ATOM      7 H    HIS X   1      -0.163  -3.098  16.154  1.00 54.11 LIG 0.16  HD
ATOM      8  C   HIS X   0      -2.073  -2.942  16.378  1.00 58.54 LIG 0.24  C 
ATOM      9 O    HIS X   0      -2.989  -2.203  16.744  1.00 63.37 LIG-0.27  OA
BRANCH 8 10
ATOM     10  CA  HIS X   0      -2.333  -4.267  15.681  1.00 62.53 LIG 0.18  C 
BRANCH 10 11
ATOM     11  N   HIS X   0      -1.096  -5.013  15.420  1.00 60.73 LIG-0.35  N 
ATOM     12  C   HIS X  -1      -0.389  -4.798  14.322  1.00 60.09 LIG 0.25  C 
ATOM     13 O    HIS X  -1      -0.410  -3.736  13.696  1.00 62.79 LIG-0.27  OA
ATOM     14 H    HIS X   0      -0.885  -5.583  16.028  1.00 60.73 LIG 0.16  HD
BRANCH 12 15
ATOM     15  CA  HIS X  -1       0.502  -5.959  13.896  1.00 59.53 LIG 0.28  C 
BRANCH 15 16
ATOM     16  N   HIS X  -1       1.131  -5.659  12.566  1.00 57.14 LIG-0.07  N 
ATOM     17 H3   HIS X  -1       2.017  -5.675  12.646  1.00 57.14 LIG 0.28  HD
ATOM     18 H2   HIS X  -1       0.873  -4.853  12.290  1.00 57.14 LIG 0.28  HD
ATOM     19 H1   HIS X  -1       0.876  -6.271  11.972  1.00 57.14 LIG 0.28  HD
ENDBRANCH 15 16
BRANCH 15 20
ATOM     20  CB  HIS X  -1       1.576  -6.246  14.946  1.00 57.27 LIG 0.10  C 
BRANCH 20 21
ATOM     21  CG  HIS X  -1       2.684  -5.244  14.967  1.00 54.13 LIG 0.06  A 
ATOM     22 ND1  HIS X  -1       3.706  -5.246  14.042  1.00 52.72 LIG-0.24  NA
ATOM     23  CE1 HIS X  -1       4.547  -4.263  14.318  1.00 54.35 LIG 0.23  A 
ATOM     24 NE2  HIS X  -1       4.107  -3.624  15.389  1.00 53.65 LIG-0.25  NA
ATOM     25  CD2 HIS X  -1       2.941  -4.218  15.814  1.00 55.23 LIG 0.14  A 
ENDBRANCH 20 21
ENDBRANCH 15 20
ENDBRANCH 12 15
ENDBRANCH 10 11
BRANCH 10 26
ATOM     26  CB  HIS X   0      -3.342  -5.104  16.497  1.00 64.99 LIG 0.10  C 
BRANCH 26 27
ATOM     27  CG  HIS X   0      -3.921  -6.270  15.749  1.00 69.41 LIG 0.06  A 
ATOM     28 ND1  HIS X   0      -5.037  -6.957  16.185  1.00 72.01 LIG-0.24  NA
ATOM     29  CE1 HIS X   0      -5.322  -7.923  15.329  1.00 72.69 LIG 0.23  A 
ATOM     30 NE2  HIS X   0      -4.435  -7.886  14.350  1.00 72.94 LIG-0.25  NA
ATOM     31  CD2 HIS X   0      -3.550  -6.859  14.586  1.00 71.12 LIG 0.14  A 
ENDBRANCH 26 27
ENDBRANCH 10 26
ENDBRANCH 8 10
ENDBRANCH 5 6
BRANCH 5 32
ATOM     32  CB  HIS X   1       0.009  -2.160  18.812  1.00 48.25 LIG 0.10  C 
BRANCH 32 33
ATOM     33  CG  HIS X   1       0.710  -1.182  19.704  1.00 50.36 LIG 0.06  A 
ATOM     34  CD2 HIS X   1       0.267  -0.049  20.302  1.00 51.47 LIG 0.14  A 
ATOM     35 NE2  HIS X   1       1.319   0.466  21.022  1.00 50.72 LIG-0.25  NA
ATOM     36  CE1 HIS X   1       2.368  -0.324  20.870  1.00 48.50 LIG 0.23  A 
ATOM     37 ND1  HIS X   1       2.030  -1.325  20.078  1.00 47.89 LIG-0.24  NA
ENDBRANCH 32 33
ENDBRANCH 5 32
ENDBRANCH 1 5
BRANCH 3 38
ATOM     38  CA  HIS X   2       1.990   1.239  16.492  1.00 26.25 LIG 0.18  C 
BRANCH 38 39
ATOM     39  C   HIS X   2       2.522   2.225  17.528  1.00 23.72 LIG 0.24  C 
ATOM     40  N   HIS X   3       3.439   1.718  18.334  1.00 22.33 LIG-0.35  N 
ATOM     41 H    HIS X   3       3.708   0.902  18.299  1.00 22.33 LIG 0.16  HD
ATOM     42 O    HIS X   2       2.111   3.392  17.607  1.00 19.88 LIG-0.27  OA
BRANCH 40 43
ATOM     43  CA  HIS X   3       4.091   2.523  19.380  1.00 22.38 LIG 0.18  C 
BRANCH 43 44
ATOM     44  CB  HIS X   3       4.797   3.801  18.827  1.00 22.51 LIG 0.10  C 
BRANCH 44 45
ATOM     45  CG  HIS X   3       5.522   3.625  17.522  1.00 18.10 LIG 0.06  A 
ATOM     46  CD2 HIS X   3       6.010   4.528  16.636  1.00 18.75 LIG 0.14  A 
ATOM     47 NE2  HIS X   3       6.626   3.818  15.631  1.00 20.06 LIG-0.25  NA
ATOM     48  CE1 HIS X   3       6.533   2.530  15.899  1.00 21.69 LIG 0.23  A 
ATOM     49 ND1  HIS X   3       5.884   2.389  17.043  1.00 17.48 LIG-0.24  NA
ENDBRANCH 44 45
ENDBRANCH 43 44
BRANCH 43 50
ATOM     50  C   HIS X   3       3.125   2.833  20.522  1.00 21.59 LIG 0.24  C 
ATOM     51 O    HIS X   3       3.278   2.372  21.647  1.00 25.47 LIG-0.27  OA
ATOM     52  N   HIS X   4       2.091   3.579  20.193  1.00 25.63 LIG-0.35  N 
ATOM     53 H    HIS X   4       1.949   3.888  19.402  1.00 25.63 LIG 0.16  HD
BRANCH 52 54
ATOM     54  CA  HIS X   4       1.077   3.945  21.186  1.00 23.96 LIG 0.17  C 
BRANCH 54 55
ATOM     55  C   HIS X   4      -0.228   3.226  20.829  1.00 31.35 LIG 0.22  C 
ATOM     56 O    HIS X   4      -1.282   3.849  20.688  1.00 37.06 LIG-0.29  OA
ENDBRANCH 54 55
BRANCH 54 57
ATOM     57  CB  HIS X   4       0.875   5.463  21.262  1.00 23.83 LIG 0.09  C 
BRANCH 57 58
ATOM     58  CG  HIS X   4       1.990   6.194  21.962  1.00 22.57 LIG 0.06  A 
ATOM     59 ND1  HIS X   4       1.840   7.457  22.506  1.00 22.63 LIG-0.24  NA
ATOM     60  CE1 HIS X   4       2.983   7.835  23.056  1.00 19.94 LIG 0.23  A 
ATOM     61 NE2  HIS X   4       3.870   6.875  22.874  1.00 20.25 LIG-0.25  NA
ATOM     62  CD2 HIS X   4       3.271   5.834  22.206  1.00 21.52 LIG 0.14  A 
ENDBRANCH 57 58
ENDBRANCH 54 57
ENDBRANCH 52 54
ENDBRANCH 43 50
ENDBRANCH 40 43
ENDBRANCH 38 39
BRANCH 38 63
ATOM     63  CB  HIS X   2       1.504   2.009  15.259  1.00 28.74 LIG 0.10  C 
BRANCH 63 64
ATOM     64  CG  HIS X   2       2.379   3.159  14.885  1.00 28.63 LIG 0.06  A 
ATOM     65 ND1  HIS X   2       2.012   4.465  15.111  1.00 31.27 LIG-0.24  NA
ATOM     66  CE1 HIS X   2       2.976   5.268  14.701  1.00 28.11 LIG 0.23  A 
ATOM     67 NE2  HIS X   2       3.952   4.533  14.207  1.00 29.87 LIG-0.25  NA
ATOM     68  CD2 HIS X   2       3.607   3.205  14.317  1.00 31.84 LIG 0.14  A 
ENDBRANCH 63 64
ENDBRANCH 38 63
ENDBRANCH 3 38
TORSDOF 24
ENDMDL
MODEL 32
USER: ADFR SOLUTION from run 23
USER: SCORE 17.290823 LL:  -5.086 LR: -14.009 RR:   0.000 FEB:  -6.850
USER: RMSD 7.262963
USER: SEED 22
USER: STATUS searching
USER: GENES 26
USER: genes 0 Translation |==|  0.43438 0.52868 0.37657
USER: genes 1 Rotation |==|  0.36315 0.63364 0.57653 0.95558
USER: genes 2 Torsion [N]-C--CA-[N] |==|  0.58353
USER: genes 3 Torsion [C]-CA--N-[C] |==|  0.13160
USER: genes 4 Torsion [N]-C--CA-[N] |==|  0.27963
USER: genes 5 Torsion [C]-CA--N-[C] |==|  0.64364
USER: genes 6 Torsion [N]-C--CA-[N] |==|  0.43500
USER: genes 7 Torsion [C]-CA--N-[H2] |==|  0.27093
USER: genes 8 Torsion [C]-CA--CB-[CG] |==|  0.16022
USER: genes 9 Torsion [CA]-CB--CG-[ND1] |==|  0.10133
USER: genes 10 Torsion [C]-CA--CB-[CG] |==|  0.42190
USER: genes 11 Torsion [CA]-CB--CG-[CD2] |==|  0.03105
USER: genes 12 Torsion [C]-CA--CB-[CG] |==|  0.43754
USER: genes 13 Torsion [CA]-CB--CG-[CD2] |==|  0.98748
USER: genes 14 Torsion [C]-N--CA-[C] |==|  0.58450
USER: genes 15 Torsion [N]-CA--C-[N] |==|  0.48871
USER: genes 16 Torsion [C]-N--CA-[CB] |==|  0.52906
USER: genes 17 Torsion [N]-CA--CB-[CG] |==|  0.29631
USER: genes 18 Torsion [CA]-CB--CG-[ND1] |==|  0.23127
USER: genes 19 Torsion [N]-CA--C-[N] |==|  0.40578
USER: genes 20 Torsion [C]-N--CA-[C] |==|  0.53404
USER: genes 21 Torsion [N]-CA--C-[O] |==|  0.30155
USER: genes 22 Torsion [N]-CA--CB-[CG] |==|  0.63070
USER: genes 23 Torsion [CA]-CB--CG-[ND1] |==|  0.55655
USER: genes 24 Torsion [N]-CA--CB-[CG] |==|  0.70990
USER: genes 25 Torsion [CA]-CB--CG-[CD2] |==|  0.39542
ROOT
ATOM      1  C   HIS X   1       1.301   0.706  17.348  1.00 40.87 LIG 0.24  C 
ATOM      2 O    HIS X   1       0.373   0.600  18.155  1.00 40.80 LIG-0.27  OA
ATOM      3  N   HIS X   2       1.910  -0.309  16.767  1.00 30.16 LIG-0.35  N 
ATOM      4 H    HIS X   2       2.567  -0.216  16.221  1.00 30.16 LIG 0.16  HD
ENDROOT
BRANCH 1 5
ATOM      5  CA  HIS X   1       1.853   2.049  16.918  1.00 48.06 LIG 0.18  C 
BRANCH 5 6
ATOM      6  N   HIS X   1       1.707   3.012  18.013  1.00 54.11 LIG-0.35  N 
ATOM      7 H    HIS X   1       1.376   3.768  17.771  1.00 54.11 LIG 0.16  HD
ATOM      8  C   HIS X   0       2.054   2.735  19.253  1.00 58.54 LIG 0.24  C 
ATOM      9 O    HIS X   0       2.735   1.759  19.574  1.00 63.37 LIG-0.27  OA
BRANCH 8 10
ATOM     10  CA  HIS X   0       1.539   3.733  20.276  1.00 62.53 LIG 0.18  C 
BRANCH 10 11
ATOM     11  N   HIS X   0       0.350   3.243  20.985  1.00 60.73 LIG-0.35  N 
ATOM     12  C   HIS X  -1      -0.747   3.978  21.065  1.00 60.09 LIG 0.25  C 
ATOM     13 O    HIS X  -1      -1.044   4.850  20.246  1.00 62.79 LIG-0.27  OA
ATOM     14 H    HIS X   0       0.435   2.460  21.329  1.00 60.73 LIG 0.16  HD
BRANCH 12 15
ATOM     15  CA  HIS X  -1      -1.658   3.643  22.240  1.00 59.53 LIG 0.28  C 
BRANCH 15 16
ATOM     16  N   HIS X  -1      -2.516   4.829  22.576  1.00 57.14 LIG-0.07  N 
ATOM     17 H3   HIS X  -1      -2.614   4.884  23.459  1.00 57.14 LIG 0.28  HD
ATOM     18 H2   HIS X  -1      -3.315   4.736  22.195  1.00 57.14 LIG 0.28  HD
ATOM     19 H1   HIS X  -1      -2.128   5.572  22.274  1.00 57.14 LIG 0.28  HD
ENDBRANCH 15 16
BRANCH 15 20
ATOM     20  CB  HIS X  -1      -2.525   2.420  21.937  1.00 57.27 LIG 0.10  C 
BRANCH 20 21
ATOM     21  CG  HIS X  -1      -1.742   1.195  21.594  1.00 54.13 LIG 0.06  A 
ATOM     22 ND1  HIS X  -1      -0.542   0.886  22.199  1.00 52.72 LIG-0.24  NA
ATOM     23  CE1 HIS X  -1      -0.072  -0.239  21.686  1.00 54.35 LIG 0.23  A 
ATOM     24 NE2  HIS X  -1      -0.922  -0.670  20.770  1.00 53.65 LIG-0.25  NA
ATOM     25  CD2 HIS X  -1      -1.978   0.209  20.695  1.00 55.23 LIG 0.14  A 
ENDBRANCH 20 21
ENDBRANCH 15 20
ENDBRANCH 12 15
ENDBRANCH 10 11
BRANCH 10 26
ATOM     26  CB  HIS X   0       2.669   4.115  21.256  1.00 64.99 LIG 0.10  C 
BRANCH 26 27
ATOM     27  CG  HIS X   0       2.533   5.490  21.845  1.00 69.41 LIG 0.06  A 
ATOM     28 ND1  HIS X   0       3.553   6.107  22.541  1.00 72.01 LIG-0.24  NA
ATOM     29  CE1 HIS X   0       3.156   7.306  22.934  1.00 72.69 LIG 0.23  A 
ATOM     30 NE2  HIS X   0       1.916   7.490  22.514  1.00 72.94 LIG-0.25  NA
ATOM     31  CD2 HIS X   0       1.505   6.372  21.827  1.00 71.12 LIG 0.14  A 
ENDBRANCH 26 27
ENDBRANCH 10 26
ENDBRANCH 8 10
ENDBRANCH 5 6
BRANCH 5 32
ATOM     32  CB  HIS X   1       3.323   1.913  16.526  1.00 48.25 LIG 0.10  C 
BRANCH 32 33
ATOM     33  CG  HIS X   1       3.805   2.997  15.613  1.00 50.36 LIG 0.06  A 
ATOM     34  CD2 HIS X   1       3.141   4.020  15.020  1.00 51.47 LIG 0.14  A 
ATOM     35 NE2  HIS X   1       4.063   4.731  14.289  1.00 50.72 LIG-0.25  NA
ATOM     36  CE1 HIS X   1       5.249   4.164  14.429  1.00 48.50 LIG 0.23  A 
ATOM     37 ND1  HIS X   1       5.123   3.115  15.221  1.00 47.89 LIG-0.24  NA
ENDBRANCH 32 33
ENDBRANCH 5 32
ENDBRANCH 1 5
BRANCH 3 38
ATOM     38  CA  HIS X   2       1.519  -1.718  16.998  1.00 26.25 LIG 0.18  C 
BRANCH 38 39
ATOM     39  C   HIS X   2       2.692  -2.685  16.876  1.00 23.72 LIG 0.24  C 
ATOM     40  N   HIS X   3       2.388  -3.941  17.161  1.00 22.33 LIG-0.35  N 
ATOM     41 H    HIS X   3       1.606  -4.198  17.410  1.00 22.33 LIG 0.16  HD
ATOM     42 O    HIS X   2       3.830  -2.313  16.554  1.00 19.88 LIG-0.27  OA
BRANCH 40 43
ATOM     43  CA  HIS X   3       3.380  -5.024  17.073  1.00 22.38 LIG 0.18  C 
BRANCH 43 44
ATOM     44  CB  HIS X   3       2.754  -6.449  17.198  1.00 22.51 LIG 0.10  C 
BRANCH 44 45
ATOM     45  CG  HIS X   3       2.688  -7.239  15.922  1.00 18.10 LIG 0.06  A 
ATOM     46  CD2 HIS X   3       1.711  -7.363  14.990  1.00 18.75 LIG 0.14  A 
ATOM     47 NE2  HIS X   3       2.199  -8.179  13.995  1.00 20.06 LIG-0.25  NA
ATOM     48  CE1 HIS X   3       3.435  -8.530  14.298  1.00 21.69 LIG 0.23  A 
ATOM     49 ND1  HIS X   3       3.757  -7.962  15.448  1.00 17.48 LIG-0.24  NA
ENDBRANCH 44 45
ENDBRANCH 43 44
BRANCH 43 50
ATOM     50  C   HIS X   3       4.256  -4.875  15.830  1.00 21.59 LIG 0.24  C 
ATOM     51 O    HIS X   3       3.808  -4.468  14.764  1.00 25.47 LIG-0.27  OA
ATOM     52  N   HIS X   4       5.503  -5.272  15.973  1.00 25.63 LIG-0.35  N 
ATOM     53 H    HIS X   4       5.829  -5.589  16.704  1.00 25.63 LIG 0.16  HD
BRANCH 52 54
ATOM     54  CA  HIS X   4       6.452  -5.197  14.859  1.00 23.96 LIG 0.17  C 
BRANCH 54 55
ATOM     55  C   HIS X   4       7.701  -6.001  15.235  1.00 31.35 LIG 0.22  C 
ATOM     56 O    HIS X   4       7.954  -7.079  14.695  1.00 37.06 LIG-0.29  OA
ENDBRANCH 54 55
BRANCH 54 57
ATOM     57  CB  HIS X   4       6.807  -3.747  14.507  1.00 23.83 LIG 0.09  C 
BRANCH 57 58
ATOM     58  CG  HIS X   4       6.748  -3.443  13.033  1.00 22.57 LIG 0.06  A 
ATOM     59 ND1  HIS X   4       7.400  -2.369  12.457  1.00 22.63 LIG-0.24  NA
ATOM     60  CE1 HIS X   4       7.169  -2.364  11.155  1.00 19.94 LIG 0.23  A 
ATOM     61 NE2  HIS X   4       6.380  -3.381  10.867  1.00 20.25 LIG-0.25  NA
ATOM     62  CD2 HIS X   4       6.114  -4.080  12.022  1.00 21.52 LIG 0.14  A 
ENDBRANCH 57 58
ENDBRANCH 54 57
ENDBRANCH 52 54
ENDBRANCH 43 50
ENDBRANCH 40 43
ENDBRANCH 38 39
BRANCH 38 63
ATOM     63  CB  HIS X   2       0.408  -2.142  16.030  1.00 28.74 LIG 0.10  C 
BRANCH 63 64
ATOM     64  CG  HIS X   2      -0.942  -2.224  16.663  1.00 28.63 LIG 0.06  A 
ATOM     65 ND1  HIS X   2      -1.123  -2.671  17.950  1.00 31.27 LIG-0.24  NA
ATOM     66  CE1 HIS X   2      -2.407  -2.622  18.254  1.00 28.11 LIG 0.23  A 
ATOM     67 NE2  HIS X   2      -3.068  -2.168  17.208  1.00 29.87 LIG-0.25  NA
ATOM     68  CD2 HIS X   2      -2.172  -1.902  16.198  1.00 31.84 LIG 0.14  A 
ENDBRANCH 63 64
ENDBRANCH 38 63
ENDBRANCH 3 38
TORSDOF 24
ENDMDL
MODEL 33
USER: ADFR SOLUTION from run 120
USER: SCORE 18.519526 LL:  -6.793 LR: -13.946 RR:   0.000 FEB:  -6.787
USER: RMSD 8.217464
USER: SEED 119
USER: STATUS no improvement in best in 11 clusters for 5 generations
USER: GENES 26
USER: genes 0 Translation |==|  0.35271 0.69377 0.59269
USER: genes 1 Rotation |==|  0.76011 0.13876 0.46643 0.72521
USER: genes 2 Torsion [N]-C--CA-[N] |==|  0.95102
USER: genes 3 Torsion [C]-CA--N-[C] |==|  0.77673
USER: genes 4 Torsion [N]-C--CA-[N] |==|  0.35330
USER: genes 5 Torsion [C]-CA--N-[C] |==|  0.18451
USER: genes 6 Torsion [N]-C--CA-[N] |==|  0.26957
USER: genes 7 Torsion [C]-CA--N-[H2] |==|  0.98158
USER: genes 8 Torsion [C]-CA--CB-[CG] |==|  0.81368
USER: genes 9 Torsion [CA]-CB--CG-[ND1] |==|  0.80430
USER: genes 10 Torsion [C]-CA--CB-[CG] |==|  0.18244
USER: genes 11 Torsion [CA]-CB--CG-[CD2] |==|  0.05046
USER: genes 12 Torsion [C]-CA--CB-[CG] |==|  0.84234
USER: genes 13 Torsion [CA]-CB--CG-[CD2] |==|  0.43475
USER: genes 14 Torsion [C]-N--CA-[C] |==|  0.66321
USER: genes 15 Torsion [N]-CA--C-[N] |==|  0.22222
USER: genes 16 Torsion [C]-N--CA-[CB] |==|  0.21755
USER: genes 17 Torsion [N]-CA--CB-[CG] |==|  0.32974
USER: genes 18 Torsion [CA]-CB--CG-[ND1] |==|  0.82028
USER: genes 19 Torsion [N]-CA--C-[N] |==|  0.96381
USER: genes 20 Torsion [C]-N--CA-[C] |==|  0.10319
USER: genes 21 Torsion [N]-CA--C-[O] |==|  0.18510
USER: genes 22 Torsion [N]-CA--CB-[CG] |==|  0.13431
USER: genes 23 Torsion [CA]-CB--CG-[ND1] |==|  0.76704
USER: genes 24 Torsion [N]-CA--CB-[CG] |==|  0.78225
USER: genes 25 Torsion [CA]-CB--CG-[CD2] |==|  0.48384
ROOT
ATOM      1  C   HIS X   1      -0.353   4.668  21.238  1.00 40.87 LIG 0.24  C 
ATOM      2 O    HIS X   1      -0.365   5.603  20.432  1.00 40.80 LIG-0.27  OA
ATOM      3  N   HIS X   2       0.730   4.014  21.610  1.00 30.16 LIG-0.35  N 
ATOM      4 H    HIS X   2       0.717   3.354  22.161  1.00 30.16 LIG 0.16  HD
ENDROOT
BRANCH 1 5
ATOM      5  CA  HIS X   1      -1.609   4.162  21.915  1.00 48.06 LIG 0.18  C 
BRANCH 5 6
ATOM      6  N   HIS X   1      -1.361   2.830  22.473  1.00 54.11 LIG-0.35  N 
ATOM      7 H    HIS X   1      -1.197   2.830  23.317  1.00 54.11 LIG 0.16  HD
ATOM      8  C   HIS X   0      -1.390   1.736  21.739  1.00 58.54 LIG 0.24  C 
ATOM      9 O    HIS X   0      -1.392   1.736  20.507  1.00 63.37 LIG-0.27  OA
BRANCH 8 10
ATOM     10  CA  HIS X   0      -1.420   0.450  22.548  1.00 62.53 LIG 0.18  C 
BRANCH 10 11
ATOM     11  N   HIS X   0      -2.524  -0.432  22.154  1.00 60.73 LIG-0.35  N 
ATOM     12  C   HIS X  -1      -2.553  -0.995  20.956  1.00 60.09 LIG 0.25  C 
ATOM     13 O    HIS X  -1      -1.543  -1.216  20.284  1.00 62.79 LIG-0.27  OA
ATOM     14 H    HIS X   0      -3.129  -0.542  22.755  1.00 60.73 LIG 0.16  HD
BRANCH 12 15
ATOM     15  CA  HIS X  -1      -3.940  -1.398  20.470  1.00 59.53 LIG 0.28  C 
BRANCH 15 16
ATOM     16  N   HIS X  -1      -4.495  -0.331  19.570  1.00 57.14 LIG-0.07  N 
ATOM     17 H3   HIS X  -1      -4.567  -0.649  18.742  1.00 57.14 LIG 0.28  HD
ATOM     18 H2   HIS X  -1      -3.949   0.372  19.571  1.00 57.14 LIG 0.28  HD
ATOM     19 H1   HIS X  -1      -5.299  -0.083  19.863  1.00 57.14 LIG 0.28  HD
ENDBRANCH 15 16
BRANCH 15 20
ATOM     20  CB  HIS X  -1      -3.904  -2.745  19.749  1.00 57.27 LIG 0.10  C 
BRANCH 20 21
ATOM     21  CG  HIS X  -1      -3.154  -2.719  18.457  1.00 54.13 LIG 0.06  A 
ATOM     22 ND1  HIS X  -1      -3.625  -2.070  17.336  1.00 52.72 LIG-0.24  NA
ATOM     23  CE1 HIS X  -1      -2.766  -2.232  16.344  1.00 54.35 LIG 0.23  A 
ATOM     24 NE2  HIS X  -1      -1.754  -2.963  16.781  1.00 53.65 LIG-0.25  NA
ATOM     25  CD2 HIS X  -1      -1.973  -3.280  18.102  1.00 55.23 LIG 0.14  A 
ENDBRANCH 20 21
ENDBRANCH 15 20
ENDBRANCH 12 15
ENDBRANCH 10 11
BRANCH 10 26
ATOM     26  CB  HIS X   0      -0.055  -0.266  22.452  1.00 64.99 LIG 0.10  C 
BRANCH 26 27
ATOM     27  CG  HIS X   0       1.079   0.485  23.087  1.00 69.41 LIG 0.06  A 
ATOM     28 ND1  HIS X   0       2.403   0.231  22.788  1.00 72.01 LIG-0.24  NA
ATOM     29  CE1 HIS X   0       3.177   1.044  23.487  1.00 72.69 LIG 0.23  A 
ATOM     30 NE2  HIS X   0       2.403   1.821  24.225  1.00 72.94 LIG-0.25  NA
ATOM     31  CD2 HIS X   0       1.087   1.495  23.991  1.00 71.12 LIG 0.14  A 
ENDBRANCH 26 27
ENDBRANCH 10 26
ENDBRANCH 8 10
ENDBRANCH 5 6
BRANCH 5 32
ATOM     32  CB  HIS X   1      -2.039   5.127  23.017  1.00 48.25 LIG 0.10  C 
BRANCH 32 33
ATOM     33  CG  HIS X   1      -0.982   5.371  24.049  1.00 50.36 LIG 0.06  A 
ATOM     34  CD2 HIS X   1      -0.793   6.410  24.899  1.00 51.47 LIG 0.14  A 
ATOM     35 NE2  HIS X   1       0.327   6.125  25.643  1.00 50.72 LIG-0.25  NA
ATOM     36  CE1 HIS X   1       0.806   4.952  25.263  1.00 48.50 LIG 0.23  A 
ATOM     37 ND1  HIS X   1       0.037   4.476  24.302  1.00 47.89 LIG-0.24  NA
ENDBRANCH 32 33
ENDBRANCH 5 32
ENDBRANCH 1 5
BRANCH 3 38
ATOM     38  CA  HIS X   2       2.084   4.355  21.117  1.00 26.25 LIG 0.18  C 
BRANCH 38 39
ATOM     39  C   HIS X   2       2.763   3.191  20.402  1.00 23.72 LIG 0.24  C 
ATOM     40  N   HIS X   3       2.367   3.020  19.152  1.00 22.33 LIG-0.35  N 
ATOM     41 H    HIS X   3       1.768   3.505  18.770  1.00 22.33 LIG 0.16  HD
ATOM     42 O    HIS X   2       3.600   2.465  20.960  1.00 19.88 LIG-0.27  OA
BRANCH 40 43
ATOM     43  CA  HIS X   3       2.929   1.966  18.291  1.00 22.38 LIG 0.18  C 
BRANCH 43 44
ATOM     44  CB  HIS X   3       2.341   0.550  18.583  1.00 22.51 LIG 0.10  C 
BRANCH 44 45
ATOM     45  CG  HIS X   3       1.613  -0.095  17.438  1.00 18.10 LIG 0.06  A 
ATOM     46  CD2 HIS X   3       1.842  -1.249  16.763  1.00 18.75 LIG 0.14  A 
ATOM     47 NE2  HIS X   3       0.836  -1.383  15.833  1.00 20.06 LIG-0.25  NA
ATOM     48  CE1 HIS X   3       0.013  -0.357  15.944  1.00 21.69 LIG 0.23  A 
ATOM     49 ND1  HIS X   3       0.453   0.425  16.916  1.00 17.48 LIG-0.24  NA
ENDBRANCH 44 45
ENDBRANCH 43 44
BRANCH 43 50
ATOM     50  C   HIS X   3       2.834   2.348  16.814  1.00 21.59 LIG 0.24  C 
ATOM     51 O    HIS X   3       3.484   1.771  15.950  1.00 25.47 LIG-0.27  OA
ATOM     52  N   HIS X   4       2.055   3.376  16.552  1.00 25.63 LIG-0.35  N 
ATOM     53 H    HIS X   4       1.614   3.814  17.147  1.00 25.63 LIG 0.16  HD
BRANCH 52 54
ATOM     54  CA  HIS X   4       1.880   3.861  15.180  1.00 23.96 LIG 0.17  C 
BRANCH 54 55
ATOM     55  C   HIS X   4       1.859   2.650  14.241  1.00 31.35 LIG 0.22  C 
ATOM     56 O    HIS X   4       0.940   1.829  14.276  1.00 37.06 LIG-0.29  OA
ENDBRANCH 54 55
BRANCH 54 57
ATOM     57  CB  HIS X   4       2.977   4.856  14.781  1.00 23.83 LIG 0.09  C 
BRANCH 57 58
ATOM     58  CG  HIS X   4       4.372   4.389  15.102  1.00 22.57 LIG 0.06  A 
ATOM     59 ND1  HIS X   4       4.953   4.546  16.347  1.00 22.63 LIG-0.24  NA
ATOM     60  CE1 HIS X   4       6.174   4.037  16.328  1.00 19.94 LIG 0.23  A 
ATOM     61 NE2  HIS X   4       6.412   3.572  15.116  1.00 20.25 LIG-0.25  NA
ATOM     62  CD2 HIS X   4       5.297   3.768  14.335  1.00 21.52 LIG 0.14  A 
ENDBRANCH 57 58
ENDBRANCH 54 57
ENDBRANCH 52 54
ENDBRANCH 43 50
ENDBRANCH 40 43
ENDBRANCH 38 39
BRANCH 38 63
ATOM     63  CB  HIS X   2       2.978   4.840  22.264  1.00 28.74 LIG 0.10  C 
BRANCH 63 64
ATOM     64  CG  HIS X   2       2.723   6.254  22.668  1.00 28.63 LIG 0.06  A 
ATOM     65 ND1  HIS X   2       1.840   7.063  21.992  1.00 31.27 LIG-0.24  NA
ATOM     66  CE1 HIS X   2       1.799   8.248  22.573  1.00 28.11 LIG 0.23  A 
ATOM     67 NE2  HIS X   2       2.632   8.242  23.596  1.00 29.87 LIG-0.25  NA
ATOM     68  CD2 HIS X   2       3.218   7.000  23.683  1.00 31.84 LIG 0.14  A 
ENDBRANCH 63 64
ENDBRANCH 38 63
ENDBRANCH 3 38
TORSDOF 24
ENDMDL
MODEL 34
USER: ADFR SOLUTION from run 112
USER: SCORE 17.920127 LL:  -5.157 LR: -13.937 RR:   0.000 FEB:  -6.778
USER: RMSD 6.870098
USER: SEED 111
USER: STATUS no improvement in best in 13 clusters for 5 generations
USER: GENES 26
USER: genes 0 Translation |==|  0.44400 0.50922 0.42060
USER: genes 1 Rotation |==|  0.59384 0.97204 0.56392 0.61952
USER: genes 2 Torsion [N]-C--CA-[N] |==|  0.27962
USER: genes 3 Torsion [C]-CA--N-[C] |==|  0.89444
USER: genes 4 Torsion [N]-C--CA-[N] |==|  0.43019
USER: genes 5 Torsion [C]-CA--N-[C] |==|  0.63629
USER: genes 6 Torsion [N]-C--CA-[N] |==|  0.53896
USER: genes 7 Torsion [C]-CA--N-[H2] |==|  0.23459
USER: genes 8 Torsion [C]-CA--CB-[CG] |==|  0.84410
USER: genes 9 Torsion [CA]-CB--CG-[ND1] |==|  0.76946
USER: genes 10 Torsion [C]-CA--CB-[CG] |==|  0.45358
USER: genes 11 Torsion [CA]-CB--CG-[CD2] |==|  0.47011
USER: genes 12 Torsion [C]-CA--CB-[CG] |==|  0.48156
USER: genes 13 Torsion [CA]-CB--CG-[CD2] |==|  0.75401
USER: genes 14 Torsion [C]-N--CA-[C] |==|  0.81418
USER: genes 15 Torsion [N]-CA--C-[N] |==|  0.91364
USER: genes 16 Torsion [C]-N--CA-[CB] |==|  0.82572
USER: genes 17 Torsion [N]-CA--CB-[CG] |==|  0.50319
USER: genes 18 Torsion [CA]-CB--CG-[ND1] |==|  0.84478
USER: genes 19 Torsion [N]-CA--C-[N] |==|  0.34877
USER: genes 20 Torsion [C]-N--CA-[C] |==|  0.15191
USER: genes 21 Torsion [N]-CA--C-[O] |==|  0.34525
USER: genes 22 Torsion [N]-CA--CB-[CG] |==|  0.75504
USER: genes 23 Torsion [CA]-CB--CG-[ND1] |==|  0.50694
USER: genes 24 Torsion [N]-CA--CB-[CG] |==|  0.24474
USER: genes 25 Torsion [CA]-CB--CG-[CD2] |==|  0.27164
ROOT
ATOM      1  C   HIS X   1       1.496   0.239  18.141  1.00 40.87 LIG 0.24  C 
ATOM      2 O    HIS X   1       2.555  -0.274  18.513  1.00 40.80 LIG-0.27  OA
ATOM      3  N   HIS X   2       0.313  -0.335  18.231  1.00 30.16 LIG-0.35  N 
ATOM      4 H    HIS X   2      -0.413   0.032  17.950  1.00 30.16 LIG 0.16  HD
ENDROOT
BRANCH 1 5
ATOM      5  CA  HIS X   1       1.434   1.624  17.533  1.00 48.06 LIG 0.18  C 
BRANCH 5 6
ATOM      6  N   HIS X   1       1.503   2.630  18.597  1.00 54.11 LIG-0.35  N 
ATOM      7 H    HIS X   1       1.964   3.326  18.391  1.00 54.11 LIG 0.16  HD
ATOM      8  C   HIS X   0       0.906   2.472  19.761  1.00 58.54 LIG 0.24  C 
ATOM      9 O    HIS X   0       0.443   1.400  20.156  1.00 63.37 LIG-0.27  OA
BRANCH 8 10
ATOM     10  CA  HIS X   0       0.834   3.740  20.595  1.00 62.53 LIG 0.18  C 
BRANCH 10 11
ATOM     11  N   HIS X   0      -0.282   3.719  21.547  1.00 60.73 LIG-0.35  N 
ATOM     12  C   HIS X  -1      -1.116   4.742  21.644  1.00 60.09 LIG 0.25  C 
ATOM     13 O    HIS X  -1      -1.329   5.536  20.725  1.00 62.79 LIG-0.27  OA
ATOM     14 H    HIS X   0      -0.338   3.003  22.019  1.00 60.73 LIG 0.16  HD
BRANCH 12 15
ATOM     15  CA  HIS X  -1      -1.840   4.855  22.981  1.00 59.53 LIG 0.28  C 
BRANCH 15 16
ATOM     16  N   HIS X  -1      -2.987   5.818  22.861  1.00 57.14 LIG-0.07  N 
ATOM     17 H3   HIS X  -1      -3.179   6.152  23.663  1.00 57.14 LIG 0.28  HD
ATOM     18 H2   HIS X  -1      -3.699   5.393  22.539  1.00 57.14 LIG 0.28  HD
ATOM     19 H1   HIS X  -1      -2.762   6.480  22.310  1.00 57.14 LIG 0.28  HD
ENDBRANCH 15 16
BRANCH 15 20
ATOM     20  CB  HIS X  -1      -2.332   3.489  23.460  1.00 57.27 LIG 0.10  C 
BRANCH 20 21
ATOM     21  CG  HIS X  -1      -3.215   2.787  22.480  1.00 54.13 LIG 0.06  A 
ATOM     22 ND1  HIS X  -1      -4.566   3.046  22.377  1.00 52.72 LIG-0.24  NA
ATOM     23  CE1 HIS X  -1      -5.090   2.268  21.445  1.00 54.35 LIG 0.23  A 
ATOM     24 NE2  HIS X  -1      -4.129   1.513  20.940  1.00 53.65 LIG-0.25  NA
ATOM     25  CD2 HIS X  -1      -2.945   1.820  21.570  1.00 55.23 LIG 0.14  A 
ENDBRANCH 20 21
ENDBRANCH 15 20
ENDBRANCH 12 15
ENDBRANCH 10 11
BRANCH 10 26
ATOM     26  CB  HIS X   0       2.184   3.984  21.303  1.00 64.99 LIG 0.10  C 
BRANCH 26 27
ATOM     27  CG  HIS X   0       2.362   5.382  21.823  1.00 69.41 LIG 0.06  A 
ATOM     28 ND1  HIS X   0       1.494   6.409  21.513  1.00 72.01 LIG-0.24  NA
ATOM     29  CE1 HIS X   0       1.892   7.518  22.114  1.00 72.69 LIG 0.23  A 
ATOM     30 NE2  HIS X   0       2.983   7.246  22.807  1.00 72.94 LIG-0.25  NA
ATOM     31  CD2 HIS X   0       3.297   5.916  22.646  1.00 71.12 LIG 0.14  A 
ENDBRANCH 26 27
ENDBRANCH 10 26
ENDBRANCH 8 10
ENDBRANCH 5 6
BRANCH 5 32
ATOM     32  CB  HIS X   1       2.584   1.819  16.547  1.00 48.25 LIG 0.10  C 
BRANCH 32 33
ATOM     33  CG  HIS X   1       2.510   3.104  15.782  1.00 50.36 LIG 0.06  A 
ATOM     34  CD2 HIS X   1       1.898   3.407  14.611  1.00 51.47 LIG 0.14  A 
ATOM     35 NE2  HIS X   1       2.135   4.738  14.363  1.00 50.72 LIG-0.25  NA
ATOM     36  CE1 HIS X   1       2.867   5.232  15.347  1.00 48.50 LIG 0.23  A 
ATOM     37 ND1  HIS X   1       3.109   4.268  16.216  1.00 47.89 LIG-0.24  NA
ENDBRANCH 32 33
ENDBRANCH 5 32
ENDBRANCH 1 5
BRANCH 3 38
ATOM     38  CA  HIS X   2       0.113  -1.674  18.829  1.00 26.25 LIG 0.18  C 
BRANCH 38 39
ATOM     39  C   HIS X   2       0.750  -2.791  18.007  1.00 23.72 LIG 0.24  C 
ATOM     40  N   HIS X   3       0.779  -2.553  16.706  1.00 22.33 LIG-0.35  N 
ATOM     41 H    HIS X   3       0.455  -1.845  16.342  1.00 22.33 LIG 0.16  HD
ATOM     42 O    HIS X   2       1.185  -3.831  18.523  1.00 19.88 LIG-0.27  OA
BRANCH 40 43
ATOM     43  CA  HIS X   3       1.379  -3.500  15.753  1.00 22.38 LIG 0.18  C 
BRANCH 43 44
ATOM     44  CB  HIS X   3       2.908  -3.720  15.978  1.00 22.51 LIG 0.10  C 
BRANCH 44 45
ATOM     45  CG  HIS X   3       3.575  -4.658  15.012  1.00 18.10 LIG 0.06  A 
ATOM     46  CD2 HIS X   3       4.680  -4.517  14.240  1.00 18.75 LIG 0.14  A 
ATOM     47 NE2  HIS X   3       4.869  -5.710  13.579  1.00 20.06 LIG-0.25  NA
ATOM     48  CE1 HIS X   3       3.924  -6.555  13.945  1.00 21.69 LIG 0.23  A 
ATOM     49 ND1  HIS X   3       3.140  -5.948  14.821  1.00 17.48 LIG-0.24  NA
ENDBRANCH 44 45
ENDBRANCH 43 44
BRANCH 43 50
ATOM     50  C   HIS X   3       0.598  -4.813  15.709  1.00 21.59 LIG 0.24  C 
ATOM     51 O    HIS X   3       0.414  -5.494  16.711  1.00 25.47 LIG-0.27  OA
ATOM     52  N   HIS X   4       0.193  -5.183  14.512  1.00 25.63 LIG-0.35  N 
ATOM     53 H    HIS X   4       0.337  -4.735  13.792  1.00 25.63 LIG 0.16  HD
BRANCH 52 54
ATOM     54  CA  HIS X   4      -0.557  -6.427  14.320  1.00 23.96 LIG 0.17  C 
BRANCH 54 55
ATOM     55  C   HIS X   4      -1.778  -6.402  15.244  1.00 31.35 LIG 0.22  C 
ATOM     56 O    HIS X   4      -2.919  -6.547  14.801  1.00 37.06 LIG-0.29  OA
ENDBRANCH 54 55
BRANCH 54 57
ATOM     57  CB  HIS X   4       0.313  -7.664  14.580  1.00 23.83 LIG 0.09  C 
BRANCH 57 58
ATOM     58  CG  HIS X   4       1.063  -8.150  13.368  1.00 22.57 LIG 0.06  A 
ATOM     59 ND1  HIS X   4       1.862  -9.278  13.376  1.00 22.63 LIG-0.24  NA
ATOM     60  CE1 HIS X   4       2.383  -9.455  12.173  1.00 19.94 LIG 0.23  A 
ATOM     61 NE2  HIS X   4       1.967  -8.477  11.391  1.00 20.25 LIG-0.25  NA
ATOM     62  CD2 HIS X   4       1.130  -7.656  12.110  1.00 21.52 LIG 0.14  A 
ENDBRANCH 57 58
ENDBRANCH 54 57
ENDBRANCH 52 54
ENDBRANCH 43 50
ENDBRANCH 40 43
ENDBRANCH 38 39
BRANCH 38 63
ATOM     63  CB  HIS X   2      -1.379  -1.971  19.020  1.00 28.74 LIG 0.10  C 
BRANCH 63 64
ATOM     64  CG  HIS X   2      -2.025  -2.596  17.828  1.00 28.63 LIG 0.06  A 
ATOM     65 ND1  HIS X   2      -2.448  -1.857  16.749  1.00 31.27 LIG-0.24  NA
ATOM     66  CE1 HIS X   2      -2.962  -2.663  15.839  1.00 28.11 LIG 0.23  A 
ATOM     67 NE2  HIS X   2      -2.898  -3.900  16.292  1.00 29.87 LIG-0.25  NA
ATOM     68  CD2 HIS X   2      -2.307  -3.888  17.535  1.00 31.84 LIG 0.14  A 
ENDBRANCH 63 64
ENDBRANCH 38 63
ENDBRANCH 3 38
TORSDOF 24
ENDMDL
MODEL 35
USER: ADFR SOLUTION from run 27
USER: SCORE 18.193018 LL:  -5.440 LR: -13.923 RR:   0.000 FEB:  -6.763
USER: RMSD 6.350716
USER: SEED 26
USER: STATUS searching
USER: GENES 26
USER: genes 0 Translation |==|  0.47337 0.50559 0.41981
USER: genes 1 Rotation |==|  0.52901 0.95376 0.59395 0.68556
USER: genes 2 Torsion [N]-C--CA-[N] |==|  0.34276
USER: genes 3 Torsion [C]-CA--N-[C] |==|  0.87628
USER: genes 4 Torsion [N]-C--CA-[N] |==|  0.44069
USER: genes 5 Torsion [C]-CA--N-[C] |==|  0.65730
USER: genes 6 Torsion [N]-C--CA-[N] |==|  0.51521
USER: genes 7 Torsion [C]-CA--N-[H2] |==|  0.63500
USER: genes 8 Torsion [C]-CA--CB-[CG] |==|  0.83863
USER: genes 9 Torsion [CA]-CB--CG-[ND1] |==|  0.75186
USER: genes 10 Torsion [C]-CA--CB-[CG] |==|  0.47500
USER: genes 11 Torsion [CA]-CB--CG-[CD2] |==|  0.51188
USER: genes 12 Torsion [C]-CA--CB-[CG] |==|  0.52776
USER: genes 13 Torsion [CA]-CB--CG-[CD2] |==|  0.30884
USER: genes 14 Torsion [C]-N--CA-[C] |==|  0.68010
USER: genes 15 Torsion [N]-CA--C-[N] |==|  0.50745
USER: genes 16 Torsion [C]-N--CA-[CB] |==|  0.86613
USER: genes 17 Torsion [N]-CA--CB-[CG] |==|  0.80448
USER: genes 18 Torsion [CA]-CB--CG-[ND1] |==|  0.90466
USER: genes 19 Torsion [N]-CA--C-[N] |==|  0.85000
USER: genes 20 Torsion [C]-N--CA-[C] |==|  0.58327
USER: genes 21 Torsion [N]-CA--C-[O] |==|  0.00754
USER: genes 22 Torsion [N]-CA--CB-[CG] |==|  0.92409
USER: genes 23 Torsion [CA]-CB--CG-[ND1] |==|  0.22966
USER: genes 24 Torsion [N]-CA--CB-[CG] |==|  0.19486
USER: genes 25 Torsion [CA]-CB--CG-[CD2] |==|  0.96017
ROOT
ATOM      1  C   HIS X   1       2.091   0.152  18.127  1.00 40.87 LIG 0.24  C 
ATOM      2 O    HIS X   1       3.066  -0.133  18.828  1.00 40.80 LIG-0.27  OA
ATOM      3  N   HIS X   2       1.099  -0.672  17.851  1.00 30.16 LIG-0.35  N 
ATOM      4 H    HIS X   2       0.436  -0.461  17.345  1.00 30.16 LIG 0.16  HD
ENDROOT
BRANCH 1 5
ATOM      5  CA  HIS X   1       1.916   1.517  17.495  1.00 48.06 LIG 0.18  C 
BRANCH 5 6
ATOM      6  N   HIS X   1       1.955   2.547  18.537  1.00 54.11 LIG-0.35  N 
ATOM      7 H    HIS X   1       2.437   3.230  18.335  1.00 54.11 LIG 0.16  HD
ATOM      8  C   HIS X   0       1.308   2.427  19.678  1.00 58.54 LIG 0.24  C 
ATOM      9 O    HIS X   0       0.810   1.373  20.078  1.00 63.37 LIG-0.27  OA
BRANCH 8 10
ATOM     10  CA  HIS X   0       1.221   3.717  20.477  1.00 62.53 LIG 0.18  C 
BRANCH 10 11
ATOM     11  N   HIS X   0       0.117   3.701  21.444  1.00 60.73 LIG-0.35  N 
ATOM     12  C   HIS X  -1      -0.820   4.635  21.426  1.00 60.09 LIG 0.25  C 
ATOM     13 O    HIS X  -1      -1.120   5.278  20.418  1.00 62.79 LIG-0.27  OA
ATOM     14 H    HIS X   0       0.139   3.048  22.004  1.00 60.73 LIG 0.16  HD
BRANCH 12 15
ATOM     15  CA  HIS X  -1      -1.546   4.841  22.750  1.00 59.53 LIG 0.28  C 
BRANCH 15 16
ATOM     16  N   HIS X  -1      -2.668   5.823  22.570  1.00 57.14 LIG-0.07  N 
ATOM     17 H3   HIS X  -1      -2.592   6.219  21.776  1.00 57.14 LIG 0.28  HD
ATOM     18 H2   HIS X  -1      -2.630   6.438  23.212  1.00 57.14 LIG 0.28  HD
ATOM     19 H1   HIS X  -1      -3.448   5.395  22.614  1.00 57.14 LIG 0.28  HD
ENDBRANCH 15 16
BRANCH 15 20
ATOM     20  CB  HIS X  -1      -2.074   3.516  23.303  1.00 57.27 LIG 0.10  C 
BRANCH 20 21
ATOM     21  CG  HIS X  -1      -3.007   2.805  22.378  1.00 54.13 LIG 0.06  A 
ATOM     22 ND1  HIS X  -1      -4.369   3.018  22.386  1.00 52.72 LIG-0.24  NA
ATOM     23  CE1 HIS X  -1      -4.939   2.242  21.480  1.00 54.35 LIG 0.23  A 
ATOM     24 NE2  HIS X  -1      -3.996   1.531  20.885  1.00 53.65 LIG-0.25  NA
ATOM     25  CD2 HIS X  -1      -2.777   1.867  21.428  1.00 55.23 LIG 0.14  A 
ENDBRANCH 20 21
ENDBRANCH 15 20
ENDBRANCH 12 15
ENDBRANCH 10 11
BRANCH 10 26
ATOM     26  CB  HIS X   0       2.575   4.006  21.161  1.00 64.99 LIG 0.10  C 
BRANCH 26 27
ATOM     27  CG  HIS X   0       2.663   5.362  21.801  1.00 69.41 LIG 0.06  A 
ATOM     28 ND1  HIS X   0       1.588   6.226  21.870  1.00 72.01 LIG-0.24  NA
ATOM     29  CE1 HIS X   0       1.954   7.334  22.490  1.00 72.69 LIG 0.23  A 
ATOM     30 NE2  HIS X   0       3.226   7.220  22.831  1.00 72.94 LIG-0.25  NA
ATOM     31  CD2 HIS X   0       3.692   5.994  22.415  1.00 71.12 LIG 0.14  A 
ENDBRANCH 26 27
ENDBRANCH 10 26
ENDBRANCH 8 10
ENDBRANCH 5 6
BRANCH 5 32
ATOM     32  CB  HIS X   1       3.015   1.765  16.464  1.00 48.25 LIG 0.10  C 
BRANCH 32 33
ATOM     33  CG  HIS X   1       3.061   3.175  15.962  1.00 50.36 LIG 0.06  A 
ATOM     34  CD2 HIS X   1       3.980   4.155  16.147  1.00 51.47 LIG 0.14  A 
ATOM     35 NE2  HIS X   1       3.540   5.258  15.456  1.00 50.72 LIG-0.25  NA
ATOM     36  CE1 HIS X   1       2.393   4.965  14.868  1.00 48.50 LIG 0.23  A 
ATOM     37 ND1  HIS X   1       2.079   3.716  15.158  1.00 47.89 LIG-0.24  NA
ENDBRANCH 32 33
ENDBRANCH 5 32
ENDBRANCH 1 5
BRANCH 3 38
ATOM     38  CA  HIS X   2       1.026  -2.049  18.389  1.00 26.25 LIG 0.18  C 
BRANCH 38 39
ATOM     39  C   HIS X   2       1.118  -3.115  17.301  1.00 23.72 LIG 0.24  C 
ATOM     40  N   HIS X   3       0.999  -4.354  17.749  1.00 22.33 LIG-0.35  N 
ATOM     41 H    HIS X   3       0.896  -4.554  18.579  1.00 22.33 LIG 0.16  HD
ATOM     42 O    HIS X   2       1.305  -2.833  16.108  1.00 19.88 LIG-0.27  OA
BRANCH 40 43
ATOM     43  CA  HIS X   3       1.034  -5.517  16.847  1.00 22.38 LIG 0.18  C 
BRANCH 43 44
ATOM     44  CB  HIS X   3       0.104  -5.363  15.603  1.00 22.51 LIG 0.10  C 
BRANCH 44 45
ATOM     45  CG  HIS X   3      -1.370  -5.422  15.887  1.00 18.10 LIG 0.06  A 
ATOM     46  CD2 HIS X   3      -2.429  -4.837  15.274  1.00 18.75 LIG 0.14  A 
ATOM     47 NE2  HIS X   3      -3.564  -5.272  15.919  1.00 20.06 LIG-0.25  NA
ATOM     48  CE1 HIS X   3      -3.215  -6.104  16.882  1.00 21.69 LIG 0.23  A 
ATOM     49 ND1  HIS X   3      -1.898  -6.222  16.872  1.00 17.48 LIG-0.24  NA
ENDBRANCH 44 45
ENDBRANCH 43 44
BRANCH 43 50
ATOM     50  C   HIS X   3       2.469  -5.880  16.467  1.00 21.59 LIG 0.24  C 
ATOM     51 O    HIS X   3       2.935  -6.994  16.675  1.00 25.47 LIG-0.27  OA
ATOM     52  N   HIS X   4       3.178  -4.894  15.959  1.00 25.63 LIG-0.35  N 
ATOM     53 H    HIS X   4       2.880  -4.097  15.832  1.00 25.63 LIG 0.16  HD
BRANCH 52 54
ATOM     54  CA  HIS X   4       4.574  -5.096  15.560  1.00 23.96 LIG 0.17  C 
BRANCH 54 55
ATOM     55  C   HIS X   4       5.322  -3.770  15.735  1.00 31.35 LIG 0.22  C 
ATOM     56 O    HIS X   4       4.760  -2.775  16.196  1.00 37.06 LIG-0.29  OA
ENDBRANCH 54 55
BRANCH 54 57
ATOM     57  CB  HIS X   4       4.688  -5.614  14.121  1.00 23.83 LIG 0.09  C 
BRANCH 57 58
ATOM     58  CG  HIS X   4       3.490  -6.400  13.657  1.00 22.57 LIG 0.06  A 
ATOM     59 ND1  HIS X   4       2.341  -5.807  13.169  1.00 22.63 LIG-0.24  NA
ATOM     60  CE1 HIS X   4       1.470  -6.746  12.837  1.00 19.94 LIG 0.23  A 
ATOM     61 NE2  HIS X   4       2.004  -7.922  13.107  1.00 20.25 LIG-0.25  NA
ATOM     62  CD2 HIS X   4       3.270  -7.734  13.607  1.00 21.52 LIG 0.14  A 
ENDBRANCH 57 58
ENDBRANCH 54 57
ENDBRANCH 52 54
ENDBRANCH 43 50
ENDBRANCH 40 43
ENDBRANCH 38 39
BRANCH 38 63
ATOM     63  CB  HIS X   2      -0.263  -2.254  19.193  1.00 28.74 LIG 0.10  C 
BRANCH 63 64
ATOM     64  CG  HIS X   2      -1.498  -2.280  18.355  1.00 28.63 LIG 0.06  A 
ATOM     65 ND1  HIS X   2      -2.707  -2.715  18.841  1.00 31.27 LIG-0.24  NA
ATOM     66  CE1 HIS X   2      -3.623  -2.614  17.896  1.00 28.11 LIG 0.23  A 
ATOM     67 NE2  HIS X   2      -3.050  -2.137  16.808  1.00 29.87 LIG-0.25  NA
ATOM     68  CD2 HIS X   2      -1.719  -1.911  17.071  1.00 31.84 LIG 0.14  A 
ENDBRANCH 63 64
ENDBRANCH 38 63
ENDBRANCH 3 38
TORSDOF 24
ENDMDL
MODEL 36
USER: ADFR SOLUTION from run 126
USER: SCORE 17.579996 LL:  -6.163 LR: -13.916 RR:   0.000 FEB:  -6.757
USER: RMSD 9.544296
USER: SEED 125
USER: STATUS no improvement in best in 14 clusters for 5 generations
USER: GENES 26
USER: genes 0 Translation |==|  0.48973 0.59229 0.37777
USER: genes 1 Rotation |==|  0.09048 0.77950 0.52004 0.56141
USER: genes 2 Torsion [N]-C--CA-[N] |==|  0.26678
USER: genes 3 Torsion [C]-CA--N-[C] |==|  0.73852
USER: genes 4 Torsion [N]-C--CA-[N] |==|  0.27224
USER: genes 5 Torsion [C]-CA--N-[C] |==|  0.57510
USER: genes 6 Torsion [N]-C--CA-[N] |==|  0.72845
USER: genes 7 Torsion [C]-CA--N-[H2] |==|  0.89579
USER: genes 8 Torsion [C]-CA--CB-[CG] |==|  0.74775
USER: genes 9 Torsion [CA]-CB--CG-[ND1] |==|  0.81123
USER: genes 10 Torsion [C]-CA--CB-[CG] |==|  0.50092
USER: genes 11 Torsion [CA]-CB--CG-[CD2] |==|  0.80475
USER: genes 12 Torsion [C]-CA--CB-[CG] |==|  0.09508
USER: genes 13 Torsion [CA]-CB--CG-[CD2] |==|  0.69211
USER: genes 14 Torsion [C]-N--CA-[C] |==|  0.19575
USER: genes 15 Torsion [N]-CA--C-[N] |==|  0.83184
USER: genes 16 Torsion [C]-N--CA-[CB] |==|  0.83817
USER: genes 17 Torsion [N]-CA--CB-[CG] |==|  0.67999
USER: genes 18 Torsion [CA]-CB--CG-[ND1] |==|  0.32893
USER: genes 19 Torsion [N]-CA--C-[N] |==|  0.06891
USER: genes 20 Torsion [C]-N--CA-[C] |==|  0.82470
USER: genes 21 Torsion [N]-CA--C-[O] |==|  0.84605
USER: genes 22 Torsion [N]-CA--CB-[CG] |==|  0.85205
USER: genes 23 Torsion [CA]-CB--CG-[ND1] |==|  0.44356
USER: genes 24 Torsion [N]-CA--CB-[CG] |==|  0.83304
USER: genes 25 Torsion [CA]-CB--CG-[CD2] |==|  0.50777
ROOT
ATOM      1  C   HIS X   1       2.422   2.233  17.370  1.00 40.87 LIG 0.24  C 
ATOM      2 O    HIS X   1       2.000   3.387  17.494  1.00 40.80 LIG-0.27  OA
ATOM      3  N   HIS X   2       3.395   1.709  18.090  1.00 30.16 LIG-0.35  N 
ATOM      4 H    HIS X   2       3.687   0.908  17.977  1.00 30.16 LIG 0.16  HD
ENDROOT
BRANCH 1 5
ATOM      5  CA  HIS X   1       1.849   1.263  16.358  1.00 48.06 LIG 0.18  C 
BRANCH 5 6
ATOM      6  N   HIS X   1       0.653   0.625  16.915  1.00 54.11 LIG-0.35  N 
ATOM      7 H    HIS X   1      -0.070   1.075  16.798  1.00 54.11 LIG 0.16  HD
ATOM      8  C   HIS X   0       0.693  -0.535  17.538  1.00 58.54 LIG 0.24  C 
ATOM      9 O    HIS X   0       1.734  -1.077  17.915  1.00 63.37 LIG-0.27  OA
BRANCH 8 10
ATOM     10  CA  HIS X   0      -0.672  -1.165  17.758  1.00 62.53 LIG 0.18  C 
BRANCH 10 11
ATOM     11  N   HIS X   0      -0.991  -2.175  16.742  1.00 60.73 LIG-0.35  N 
ATOM     12  C   HIS X  -1      -2.246  -2.448  16.421  1.00 60.09 LIG 0.25  C 
ATOM     13 O    HIS X  -1      -3.173  -1.647  16.561  1.00 62.79 LIG-0.27  OA
ATOM     14 H    HIS X   0      -0.307  -2.558  16.389  1.00 60.73 LIG 0.16  HD
BRANCH 12 15
ATOM     15  CA  HIS X  -1      -2.468  -3.830  15.818  1.00 59.53 LIG 0.28  C 
BRANCH 15 16
ATOM     16  N   HIS X  -1      -2.515  -3.732  14.320  1.00 57.14 LIG-0.07  N 
ATOM     17 H3   HIS X  -1      -1.686  -3.721  13.997  1.00 57.14 LIG 0.28  HD
ATOM     18 H2   HIS X  -1      -2.934  -2.983  14.084  1.00 57.14 LIG 0.28  HD
ATOM     19 H1   HIS X  -1      -2.953  -4.434  13.990  1.00 57.14 LIG 0.28  HD
ENDBRANCH 15 16
BRANCH 15 20
ATOM     20  CB  HIS X  -1      -1.379  -4.807  16.260  1.00 57.27 LIG 0.10  C 
BRANCH 20 21
ATOM     21  CG  HIS X  -1      -0.202  -4.856  15.340  1.00 54.13 LIG 0.06  A 
ATOM     22 ND1  HIS X  -1      -0.278  -5.366  14.061  1.00 52.72 LIG-0.24  NA
ATOM     23  CE1 HIS X  -1       0.914  -5.298  13.492  1.00 54.35 LIG 0.23  A 
ATOM     24 NE2  HIS X  -1       1.761  -4.764  14.356  1.00 53.65 LIG-0.25  NA
ATOM     25  CD2 HIS X  -1       1.086  -4.477  15.520  1.00 55.23 LIG 0.14  A 
ENDBRANCH 20 21
ENDBRANCH 15 20
ENDBRANCH 12 15
ENDBRANCH 10 11
BRANCH 10 26
ATOM     26  CB  HIS X   0      -0.762  -1.745  19.186  1.00 64.99 LIG 0.10  C 
BRANCH 26 27
ATOM     27  CG  HIS X   0      -2.076  -2.400  19.502  1.00 69.41 LIG 0.06  A 
ATOM     28 ND1  HIS X   0      -2.207  -3.763  19.677  1.00 72.01 LIG-0.24  NA
ATOM     29  CE1 HIS X   0      -3.467  -4.053  19.952  1.00 72.69 LIG 0.23  A 
ATOM     30 NE2  HIS X   0      -4.158  -2.927  19.967  1.00 72.94 LIG-0.25  NA
ATOM     31  CD2 HIS X   0      -3.311  -1.878  19.693  1.00 71.12 LIG 0.14  A 
ENDBRANCH 26 27
ENDBRANCH 10 26
ENDBRANCH 8 10
ENDBRANCH 5 6
BRANCH 5 32
ATOM     32  CB  HIS X   1       1.504   1.995  15.063  1.00 48.25 LIG 0.10  C 
BRANCH 32 33
ATOM     33  CG  HIS X   1       2.441   3.117  14.739  1.00 50.36 LIG 0.06  A 
ATOM     34  CD2 HIS X   1       2.252   4.459  14.734  1.00 51.47 LIG 0.14  A 
ATOM     35 NE2  HIS X   1       3.446   5.034  14.369  1.00 50.72 LIG-0.25  NA
ATOM     36  CE1 HIS X   1       4.335   4.078  14.159  1.00 48.50 LIG 0.23  A 
ATOM     37 ND1  HIS X   1       3.756   2.911  14.373  1.00 47.89 LIG-0.24  NA
ENDBRANCH 32 33
ENDBRANCH 5 32
ENDBRANCH 1 5
BRANCH 3 38
ATOM     38  CA  HIS X   2       4.083   2.451  19.170  1.00 26.25 LIG 0.18  C 
BRANCH 38 39
ATOM     39  C   HIS X   2       3.198   2.673  20.393  1.00 23.72 LIG 0.24  C 
ATOM     40  N   HIS X   3       2.104   3.373  20.146  1.00 22.33 LIG-0.35  N 
ATOM     41 H    HIS X   3       1.906   3.695  19.374  1.00 22.33 LIG 0.16  HD
ATOM     42 O    HIS X   2       3.497   2.243  21.517  1.00 19.88 LIG-0.27  OA
BRANCH 40 43
ATOM     43  CA  HIS X   3       1.112   3.667  21.193  1.00 22.38 LIG 0.18  C 
BRANCH 43 44
ATOM     44  CB  HIS X   3       0.517   2.387  21.859  1.00 22.51 LIG 0.10  C 
BRANCH 44 45
ATOM     45  CG  HIS X   3      -0.952   2.165  21.635  1.00 18.10 LIG 0.06  A 
ATOM     46  CD2 HIS X   3      -2.031   2.938  21.914  1.00 18.75 LIG 0.14  A 
ATOM     47 NE2  HIS X   3      -3.141   2.268  21.452  1.00 20.06 LIG-0.25  NA
ATOM     48  CE1 HIS X   3      -2.755   1.134  20.898  1.00 21.69 LIG 0.23  A 
ATOM     49 ND1  HIS X   3      -1.438   1.058  20.982  1.00 17.48 LIG-0.24  NA
ENDBRANCH 44 45
ENDBRANCH 43 44
BRANCH 43 50
ATOM     50  C   HIS X   3       1.664   4.659  22.217  1.00 21.59 LIG 0.24  C 
ATOM     51 O    HIS X   3       1.202   4.751  23.348  1.00 25.47 LIG-0.27  OA
ATOM     52  N   HIS X   4       2.624   5.442  21.773  1.00 25.63 LIG-0.35  N 
ATOM     53 H    HIS X   4       2.942   5.415  20.974  1.00 25.63 LIG 0.16  HD
BRANCH 52 54
ATOM     54  CA  HIS X   4       3.239   6.450  22.642  1.00 23.96 LIG 0.17  C 
BRANCH 54 55
ATOM     55  C   HIS X   4       2.162   7.465  23.040  1.00 31.35 LIG 0.22  C 
ATOM     56 O    HIS X   4       1.505   8.067  22.189  1.00 37.06 LIG-0.29  OA
ENDBRANCH 54 55
BRANCH 54 57
ATOM     57  CB  HIS X   4       4.430   7.139  21.965  1.00 23.83 LIG 0.09  C 
BRANCH 57 58
ATOM     58  CG  HIS X   4       5.467   6.185  21.434  1.00 22.57 LIG 0.06  A 
ATOM     59 ND1  HIS X   4       6.386   6.533  20.461  1.00 22.63 LIG-0.24  NA
ATOM     60  CE1 HIS X   4       7.166   5.496  20.204  1.00 19.94 LIG 0.23  A 
ATOM     61 NE2  HIS X   4       6.779   4.486  20.960  1.00 20.25 LIG-0.25  NA
ATOM     62  CD2 HIS X   4       5.728   4.895  21.747  1.00 21.52 LIG 0.14  A 
ENDBRANCH 57 58
ENDBRANCH 54 57
ENDBRANCH 52 54
ENDBRANCH 43 50
ENDBRANCH 40 43
ENDBRANCH 38 39
BRANCH 38 63
ATOM     63  CB  HIS X   2       4.599   3.802  18.663  1.00 28.74 LIG 0.10  C 
BRANCH 63 64
ATOM     64  CG  HIS X   2       5.575   3.690  17.540  1.00 28.63 LIG 0.06  A 
ATOM     65 ND1  HIS X   2       5.907   2.482  16.973  1.00 31.27 LIG-0.24  NA
ATOM     66  CE1 HIS X   2       6.773   2.679  15.996  1.00 28.11 LIG 0.23  A 
ATOM     67 NE2  HIS X   2       7.025   3.971  15.915  1.00 29.87 LIG-0.25  NA
ATOM     68  CD2 HIS X   2       6.280   4.629  16.866  1.00 31.84 LIG 0.14  A 
ENDBRANCH 63 64
ENDBRANCH 38 63
ENDBRANCH 3 38
TORSDOF 24
ENDMDL
MODEL 37
USER: ADFR SOLUTION from run 77
USER: SCORE 19.087794 LL:  -6.359 LR: -13.911 RR:   0.000 FEB:  -6.752
USER: RMSD 10.559233
USER: SEED 76
USER: STATUS searching
USER: GENES 26
USER: genes 0 Translation |==|  0.42428 0.52086 0.40962
USER: genes 1 Rotation |==|  0.85560 0.32031 0.25265 0.67344
USER: genes 2 Torsion [N]-C--CA-[N] |==|  0.50713
USER: genes 3 Torsion [C]-CA--N-[C] |==|  0.63298
USER: genes 4 Torsion [N]-C--CA-[N] |==|  0.88059
USER: genes 5 Torsion [C]-CA--N-[C] |==|  0.63412
USER: genes 6 Torsion [N]-C--CA-[N] |==|  0.21534
USER: genes 7 Torsion [C]-CA--N-[H2] |==|  0.15363
USER: genes 8 Torsion [C]-CA--CB-[CG] |==|  0.20524
USER: genes 9 Torsion [CA]-CB--CG-[ND1] |==|  0.83477
USER: genes 10 Torsion [C]-CA--CB-[CG] |==|  0.42673
USER: genes 11 Torsion [CA]-CB--CG-[CD2] |==|  0.09312
USER: genes 12 Torsion [C]-CA--CB-[CG] |==|  0.59769
USER: genes 13 Torsion [CA]-CB--CG-[CD2] |==|  0.77104
USER: genes 14 Torsion [C]-N--CA-[C] |==|  0.13353
USER: genes 15 Torsion [N]-CA--C-[N] |==|  0.13443
USER: genes 16 Torsion [C]-N--CA-[CB] |==|  0.86109
USER: genes 17 Torsion [N]-CA--CB-[CG] |==|  0.44076
USER: genes 18 Torsion [CA]-CB--CG-[ND1] |==|  0.62440
USER: genes 19 Torsion [N]-CA--C-[N] |==|  0.86555
USER: genes 20 Torsion [C]-N--CA-[C] |==|  0.67377
USER: genes 21 Torsion [N]-CA--C-[O] |==|  0.58161
USER: genes 22 Torsion [N]-CA--CB-[CG] |==|  0.76868
USER: genes 23 Torsion [CA]-CB--CG-[ND1] |==|  0.44225
USER: genes 24 Torsion [N]-CA--CB-[CG] |==|  0.53805
USER: genes 25 Torsion [CA]-CB--CG-[CD2] |==|  0.59957
ROOT
ATOM      1  C   HIS X   1       1.097   0.519  17.943  1.00 40.87 LIG 0.24  C 
ATOM      2 O    HIS X   1       0.664   1.562  18.441  1.00 40.80 LIG-0.27  OA
ATOM      3  N   HIS X   2       2.130   0.450  17.127  1.00 30.16 LIG-0.35  N 
ATOM      4 H    HIS X   2       2.406  -0.284  16.775  1.00 30.16 LIG 0.16  HD
ENDROOT
BRANCH 1 5
ATOM      5  CA  HIS X   1       0.479  -0.834  18.228  1.00 48.06 LIG 0.18  C 
BRANCH 5 6
ATOM      6  N   HIS X   1      -0.694  -0.666  19.089  1.00 54.11 LIG-0.35  N 
ATOM      7 H    HIS X   1      -1.234  -0.049  18.827  1.00 54.11 LIG 0.16  HD
ATOM      8  C   HIS X   0      -0.896  -1.398  20.165  1.00 58.54 LIG 0.24  C 
ATOM      9 O    HIS X   0      -0.035  -2.115  20.679  1.00 63.37 LIG-0.27  OA
BRANCH 8 10
ATOM     10  CA  HIS X   0      -2.300  -1.287  20.734  1.00 62.53 LIG 0.18  C 
BRANCH 10 11
ATOM     11  N   HIS X   0      -2.787   0.098  20.752  1.00 60.73 LIG-0.35  N 
ATOM     12  C   HIS X  -1      -3.343   0.611  21.838  1.00 60.09 LIG 0.25  C 
ATOM     13 O    HIS X  -1      -3.110   0.205  22.979  1.00 62.79 LIG-0.27  OA
ATOM     14 H    HIS X   0      -2.680   0.526  20.014  1.00 60.73 LIG 0.16  HD
BRANCH 12 15
ATOM     15  CA  HIS X  -1      -4.278   1.787  21.584  1.00 59.53 LIG 0.28  C 
BRANCH 15 16
ATOM     16  N   HIS X  -1      -5.598   1.288  21.070  1.00 57.14 LIG-0.07  N 
ATOM     17 H3   HIS X  -1      -6.163   1.971  20.989  1.00 57.14 LIG 0.28  HD
ATOM     18 H2   HIS X  -1      -5.934   0.693  21.641  1.00 57.14 LIG 0.28  HD
ATOM     19 H1   HIS X  -1      -5.482   0.904  20.275  1.00 57.14 LIG 0.28  HD
ENDBRANCH 15 16
BRANCH 15 20
ATOM     20  CB  HIS X  -1      -4.475   2.621  22.851  1.00 57.27 LIG 0.10  C 
BRANCH 20 21
ATOM     21  CG  HIS X  -1      -3.293   3.463  23.209  1.00 54.13 LIG 0.06  A 
ATOM     22 ND1  HIS X  -1      -2.049   2.928  23.466  1.00 52.72 LIG-0.24  NA
ATOM     23  CE1 HIS X  -1      -1.209   3.902  23.772  1.00 54.35 LIG 0.23  A 
ATOM     24 NE2  HIS X  -1      -1.864   5.050  23.725  1.00 53.65 LIG-0.25  NA
ATOM     25  CD2 HIS X  -1      -3.170   4.802  23.372  1.00 55.23 LIG 0.14  A 
ENDBRANCH 20 21
ENDBRANCH 15 20
ENDBRANCH 12 15
ENDBRANCH 10 11
BRANCH 10 26
ATOM     26  CB  HIS X   0      -3.258  -2.218  19.960  1.00 64.99 LIG 0.10  C 
BRANCH 26 27
ATOM     27  CG  HIS X   0      -4.448  -2.675  20.755  1.00 69.41 LIG 0.06  A 
ATOM     28 ND1  HIS X   0      -5.009  -3.928  20.606  1.00 72.01 LIG-0.24  NA
ATOM     29  CE1 HIS X   0      -6.031  -4.054  21.435  1.00 72.69 LIG 0.23  A 
ATOM     30 NE2  HIS X   0      -6.151  -2.930  22.121  1.00 72.94 LIG-0.25  NA
ATOM     31  CD2 HIS X   0      -5.170  -2.053  21.718  1.00 71.12 LIG 0.14  A 
ENDBRANCH 26 27
ENDBRANCH 10 26
ENDBRANCH 8 10
ENDBRANCH 5 6
BRANCH 5 32
ATOM     32  CB  HIS X   1       0.083  -1.518  16.921  1.00 48.25 LIG 0.10  C 
BRANCH 32 33
ATOM     33  CG  HIS X   1      -1.167  -2.335  17.024  1.00 50.36 LIG 0.06  A 
ATOM     34  CD2 HIS X   1      -1.369  -3.598  17.473  1.00 51.47 LIG 0.14  A 
ATOM     35 NE2  HIS X   1      -2.713  -3.858  17.359  1.00 50.72 LIG-0.25  NA
ATOM     36  CE1 HIS X   1      -3.315  -2.792  16.859  1.00 48.50 LIG 0.23  A 
ATOM     37 ND1  HIS X   1      -2.405  -1.859  16.646  1.00 47.89 LIG-0.24  NA
ENDBRANCH 32 33
ENDBRANCH 5 32
ENDBRANCH 1 5
BRANCH 3 38
ATOM     38  CA  HIS X   2       2.923   1.637  16.733  1.00 26.25 LIG 0.18  C 
BRANCH 38 39
ATOM     39  C   HIS X   2       3.323   2.503  17.924  1.00 23.72 LIG 0.24  C 
ATOM     40  N   HIS X   3       3.849   1.825  18.931  1.00 22.33 LIG-0.35  N 
ATOM     41 H    HIS X   3       3.945   0.970  18.933  1.00 22.33 LIG 0.16  HD
ATOM     42 O    HIS X   2       3.153   3.731  17.940  1.00 19.88 LIG-0.27  OA
BRANCH 40 43
ATOM     43  CA  HIS X   3       4.322   2.489  20.157  1.00 22.38 LIG 0.18  C 
BRANCH 43 44
ATOM     44  CB  HIS X   3       5.273   3.695  19.879  1.00 22.51 LIG 0.10  C 
BRANCH 44 45
ATOM     45  CG  HIS X   3       5.387   4.697  20.994  1.00 18.10 LIG 0.06  A 
ATOM     46  CD2 HIS X   3       5.613   4.542  22.322  1.00 18.75 LIG 0.14  A 
ATOM     47 NE2  HIS X   3       5.669   5.802  22.874  1.00 20.06 LIG-0.25  NA
ATOM     48  CE1 HIS X   3       5.499   6.695  21.917  1.00 21.69 LIG 0.23  A 
ATOM     49 ND1  HIS X   3       5.342   6.052  20.772  1.00 17.48 LIG-0.24  NA
ENDBRANCH 44 45
ENDBRANCH 43 44
BRANCH 43 50
ATOM     50  C   HIS X   3       3.156   2.859  21.072  1.00 21.59 LIG 0.24  C 
ATOM     51 O    HIS X   3       3.135   2.548  22.257  1.00 25.47 LIG-0.27  OA
ATOM     52  N   HIS X   4       2.156   3.478  20.480  1.00 25.63 LIG-0.35  N 
ATOM     53 H    HIS X   4       2.137   3.678  19.643  1.00 25.63 LIG 0.16  HD
BRANCH 52 54
ATOM     54  CA  HIS X   4       0.965   3.881  21.233  1.00 23.96 LIG 0.17  C 
BRANCH 54 55
ATOM     55  C   HIS X   4      -0.244   3.133  20.662  1.00 31.35 LIG 0.22  C 
ATOM     56 O    HIS X   4      -1.375   3.621  20.701  1.00 37.06 LIG-0.29  OA
ENDBRANCH 54 55
BRANCH 54 57
ATOM     57  CB  HIS X   4       0.751   5.399  21.193  1.00 23.83 LIG 0.09  C 
BRANCH 57 58
ATOM     58  CG  HIS X   4       1.557   6.159  22.213  1.00 22.57 LIG 0.06  A 
ATOM     59 ND1  HIS X   4       1.846   7.506  22.096  1.00 22.63 LIG-0.24  NA
ATOM     60  CE1 HIS X   4       2.560   7.893  23.140  1.00 19.94 LIG 0.23  A 
ATOM     61 NE2  HIS X   4       2.761   6.846  23.918  1.00 20.25 LIG-0.25  NA
ATOM     62  CD2 HIS X   4       2.132   5.754  23.368  1.00 21.52 LIG 0.14  A 
ENDBRANCH 57 58
ENDBRANCH 54 57
ENDBRANCH 52 54
ENDBRANCH 43 50
ENDBRANCH 40 43
ENDBRANCH 38 39
BRANCH 38 63
ATOM     63  CB  HIS X   2       2.158   2.492  15.716  1.00 28.74 LIG 0.10  C 
BRANCH 63 64
ATOM     64  CG  HIS X   2       3.004   3.515  15.034  1.00 28.63 LIG 0.06  A 
ATOM     65 ND1  HIS X   2       4.312   3.272  14.685  1.00 31.27 LIG-0.24  NA
ATOM     66  CE1 HIS X   2       4.810   4.336  14.084  1.00 28.11 LIG 0.23  A 
ATOM     67 NE2  HIS X   2       3.877   5.267  14.038  1.00 29.87 LIG-0.25  NA
ATOM     68  CD2 HIS X   2       2.731   4.775  14.620  1.00 31.84 LIG 0.14  A 
ENDBRANCH 63 64
ENDBRANCH 38 63
ENDBRANCH 3 38
TORSDOF 24
ENDMDL
MODEL 38
USER: ADFR SOLUTION from run 57
USER: SCORE 18.601722 LL:  -5.940 LR: -13.902 RR:   0.000 FEB:  -6.743
USER: RMSD 7.886030
USER: SEED 56
USER: STATUS searching
USER: GENES 26
USER: genes 0 Translation |==|  0.57331 0.63825 0.45717
USER: genes 1 Rotation |==|  0.51400 0.69591 0.31063 0.91900
USER: genes 2 Torsion [N]-C--CA-[N] |==|  0.18778
USER: genes 3 Torsion [C]-CA--N-[C] |==|  0.74917
USER: genes 4 Torsion [N]-C--CA-[N] |==|  0.40650
USER: genes 5 Torsion [C]-CA--N-[C] |==|  0.72943
USER: genes 6 Torsion [N]-C--CA-[N] |==|  0.05960
USER: genes 7 Torsion [C]-CA--N-[H2] |==|  0.70833
USER: genes 8 Torsion [C]-CA--CB-[CG] |==|  0.89993
USER: genes 9 Torsion [CA]-CB--CG-[ND1] |==|  0.30759
USER: genes 10 Torsion [C]-CA--CB-[CG] |==|  0.95951
USER: genes 11 Torsion [CA]-CB--CG-[CD2] |==|  0.77207
USER: genes 12 Torsion [C]-CA--CB-[CG] |==|  0.68783
USER: genes 13 Torsion [CA]-CB--CG-[CD2] |==|  0.72850
USER: genes 14 Torsion [C]-N--CA-[C] |==|  0.90000
USER: genes 15 Torsion [N]-CA--C-[N] |==|  0.37350
USER: genes 16 Torsion [C]-N--CA-[CB] |==|  0.86366
USER: genes 17 Torsion [N]-CA--CB-[CG] |==|  0.77019
USER: genes 18 Torsion [CA]-CB--CG-[ND1] |==|  0.85474
USER: genes 19 Torsion [N]-CA--C-[N] |==|  0.91522
USER: genes 20 Torsion [C]-N--CA-[C] |==|  0.76932
USER: genes 21 Torsion [N]-CA--C-[O] |==|  0.19642
USER: genes 22 Torsion [N]-CA--CB-[CG] |==|  0.46898
USER: genes 23 Torsion [CA]-CB--CG-[ND1] |==|  0.20935
USER: genes 24 Torsion [N]-CA--CB-[CG] |==|  0.10103
USER: genes 25 Torsion [CA]-CB--CG-[CD2] |==|  0.29697
ROOT
ATOM      1  C   HIS X   1       4.114   3.336  18.799  1.00 40.87 LIG 0.24  C 
ATOM      2 O    HIS X   1       3.684   4.023  19.730  1.00 40.80 LIG-0.27  OA
ATOM      3  N   HIS X   2       3.369   2.581  18.017  1.00 30.16 LIG-0.35  N 
ATOM      4 H    HIS X   2       3.689   2.095  17.384  1.00 30.16 LIG 0.16  HD
ENDROOT
BRANCH 1 5
ATOM      5  CA  HIS X   1       5.584   3.290  18.436  1.00 48.06 LIG 0.18  C 
BRANCH 5 6
ATOM      6  N   HIS X   1       5.785   3.927  17.131  1.00 54.11 LIG-0.35  N 
ATOM      7 H    HIS X   1       5.939   4.772  17.175  1.00 54.11 LIG 0.16  HD
ATOM      8  C   HIS X   0       5.734   3.257  15.999  1.00 58.54 LIG 0.24  C 
ATOM      9 O    HIS X   0       5.292   2.110  15.898  1.00 63.37 LIG-0.27  OA
BRANCH 8 10
ATOM     10  CA  HIS X   0       6.273   4.023  14.802  1.00 62.53 LIG 0.18  C 
BRANCH 10 11
ATOM     11  N   HIS X   0       6.932   3.145  13.828  1.00 60.73 LIG-0.35  N 
ATOM     12  C   HIS X  -1       8.247   2.996  13.824  1.00 60.09 LIG 0.25  C 
ATOM     13 O    HIS X  -1       8.955   3.169  14.818  1.00 62.79 LIG-0.27  OA
ATOM     14 H    HIS X   0       6.398   2.752  13.280  1.00 60.73 LIG 0.16  HD
BRANCH 12 15
ATOM     15  CA  HIS X  -1       8.837   2.549  12.491  1.00 59.53 LIG 0.28  C 
BRANCH 15 16
ATOM     16  N   HIS X  -1       7.886   2.879  11.376  1.00 57.14 LIG-0.07  N 
ATOM     17 H3   HIS X  -1       7.273   3.454  11.668  1.00 57.14 LIG 0.28  HD
ATOM     18 H2   HIS X  -1       7.485   2.134  11.098  1.00 57.14 LIG 0.28  HD
ATOM     19 H1   HIS X  -1       8.336   3.243  10.699  1.00 57.14 LIG 0.28  HD
ENDBRANCH 15 16
BRANCH 15 20
ATOM     20  CB  HIS X  -1      10.200   3.197  12.245  1.00 57.27 LIG 0.10  C 
BRANCH 20 21
ATOM     21  CG  HIS X  -1      10.302   4.600  12.749  1.00 54.13 LIG 0.06  A 
ATOM     22 ND1  HIS X  -1      11.090   4.948  13.826  1.00 52.72 LIG-0.24  NA
ATOM     23  CE1 HIS X  -1      10.969   6.245  14.054  1.00 54.35 LIG 0.23  A 
ATOM     24 NE2  HIS X  -1      10.131   6.750  13.166  1.00 53.65 LIG-0.25  NA
ATOM     25  CD2 HIS X  -1       9.700   5.741  12.336  1.00 55.23 LIG 0.14  A 
ENDBRANCH 20 21
ENDBRANCH 15 20
ENDBRANCH 12 15
ENDBRANCH 10 11
BRANCH 10 26
ATOM     26  CB  HIS X   0       5.143   4.850  14.153  1.00 64.99 LIG 0.10  C 
BRANCH 26 27
ATOM     27  CG  HIS X   0       3.762   4.460  14.597  1.00 69.41 LIG 0.06  A 
ATOM     28 ND1  HIS X   0       3.067   5.153  15.568  1.00 72.01 LIG-0.24  NA
ATOM     29  CE1 HIS X   0       1.883   4.592  15.747  1.00 72.69 LIG 0.23  A 
ATOM     30 NE2  HIS X   0       1.782   3.564  14.923  1.00 72.94 LIG-0.25  NA
ATOM     31  CD2 HIS X   0       2.942   3.462  14.189  1.00 71.12 LIG 0.14  A 
ENDBRANCH 26 27
ENDBRANCH 10 26
ENDBRANCH 8 10
ENDBRANCH 5 6
BRANCH 5 32
ATOM     32  CB  HIS X   1       6.413   3.998  19.505  1.00 48.25 LIG 0.10  C 
BRANCH 32 33
ATOM     33  CG  HIS X   1       7.053   5.265  19.028  1.00 50.36 LIG 0.06  A 
ATOM     34  CD2 HIS X   1       8.309   5.512  18.580  1.00 51.47 LIG 0.14  A 
ATOM     35 NE2  HIS X   1       8.368   6.848  18.260  1.00 50.72 LIG-0.25  NA
ATOM     36  CE1 HIS X   1       7.191   7.399  18.502  1.00 48.50 LIG 0.23  A 
ATOM     37 ND1  HIS X   1       6.379   6.467  18.968  1.00 47.89 LIG-0.24  NA
ENDBRANCH 32 33
ENDBRANCH 5 32
ENDBRANCH 1 5
BRANCH 3 38
ATOM     38  CA  HIS X   2       1.897   2.493  18.151  1.00 26.25 LIG 0.18  C 
BRANCH 38 39
ATOM     39  C   HIS X   2       1.429   2.561  19.601  1.00 23.72 LIG 0.24  C 
ATOM     40  N   HIS X   3       0.404   3.373  19.800  1.00 22.33 LIG-0.35  N 
ATOM     41 H    HIS X   3       0.037   3.840  19.178  1.00 22.33 LIG 0.16  HD
ATOM     42 O    HIS X   2       1.979   1.918  20.508  1.00 19.88 LIG-0.27  OA
BRANCH 40 43
ATOM     43  CA  HIS X   3      -0.206   3.550  21.128  1.00 22.38 LIG 0.18  C 
BRANCH 43 44
ATOM     44  CB  HIS X   3      -0.533   2.202  21.843  1.00 22.51 LIG 0.10  C 
BRANCH 44 45
ATOM     45  CG  HIS X   3      -1.830   1.556  21.442  1.00 18.10 LIG 0.06  A 
ATOM     46  CD2 HIS X   3      -2.126   0.283  21.080  1.00 18.75 LIG 0.14  A 
ATOM     47 NE2  HIS X   3      -3.484   0.229  20.860  1.00 20.06 LIG-0.25  NA
ATOM     48  CE1 HIS X   3      -4.002   1.420  21.094  1.00 21.69 LIG 0.23  A 
ATOM     49 ND1  HIS X   3      -3.025   2.233  21.462  1.00 17.48 LIG-0.24  NA
ENDBRANCH 44 45
ENDBRANCH 43 44
BRANCH 43 50
ATOM     50  C   HIS X   3       0.626   4.490  21.999  1.00 21.59 LIG 0.24  C 
ATOM     51 O    HIS X   3       0.112   5.242  22.819  1.00 25.47 LIG-0.27  OA
ATOM     52  N   HIS X   4       1.920   4.474  21.760  1.00 25.63 LIG-0.35  N 
ATOM     53 H    HIS X   4       2.297   3.976  21.168  1.00 25.63 LIG 0.16  HD
BRANCH 52 54
ATOM     54  CA  HIS X   4       2.838   5.334  22.512  1.00 23.96 LIG 0.17  C 
BRANCH 54 55
ATOM     55  C   HIS X   4       2.835   6.724  21.867  1.00 31.35 LIG 0.22  C 
ATOM     56 O    HIS X   4       1.857   7.469  21.957  1.00 37.06 LIG-0.29  OA
ENDBRANCH 54 55
BRANCH 54 57
ATOM     57  CB  HIS X   4       4.254   4.749  22.567  1.00 23.83 LIG 0.09  C 
BRANCH 57 58
ATOM     58  CG  HIS X   4       5.292   5.705  23.092  1.00 22.57 LIG 0.06  A 
ATOM     59 ND1  HIS X   4       5.415   6.025  24.431  1.00 22.63 LIG-0.24  NA
ATOM     60  CE1 HIS X   4       6.412   6.880  24.587  1.00 19.94 LIG 0.23  A 
ATOM     61 NE2  HIS X   4       6.928   7.140  23.401  1.00 20.25 LIG-0.25  NA
ATOM     62  CD2 HIS X   4       6.255   6.408  22.451  1.00 21.52 LIG 0.14  A 
ENDBRANCH 57 58
ENDBRANCH 54 57
ENDBRANCH 52 54
ENDBRANCH 43 50
ENDBRANCH 40 43
ENDBRANCH 38 39
BRANCH 38 63
ATOM     63  CB  HIS X   2       1.364   1.210  17.503  1.00 28.74 LIG 0.10  C 
BRANCH 63 64
ATOM     64  CG  HIS X   2       2.267   0.033  17.670  1.00 28.63 LIG 0.06  A 
ATOM     65 ND1  HIS X   2       3.457  -0.082  16.991  1.00 31.27 LIG-0.24  NA
ATOM     66  CE1 HIS X   2       4.056  -1.205  17.341  1.00 28.11 LIG 0.23  A 
ATOM     67 NE2  HIS X   2       3.293  -1.831  18.216  1.00 29.87 LIG-0.25  NA
ATOM     68  CD2 HIS X   2       2.169  -1.072  18.447  1.00 31.84 LIG 0.14  A 
ENDBRANCH 63 64
ENDBRANCH 38 63
ENDBRANCH 3 38
TORSDOF 24
ENDMDL
MODEL 39
USER: ADFR SOLUTION from run 112
USER: SCORE 18.244165 LL:  -5.108 LR: -13.899 RR:   0.000 FEB:  -6.740
USER: RMSD 6.840145
USER: SEED 111
USER: STATUS no improvement in best in 13 clusters for 5 generations
USER: GENES 26
USER: genes 0 Translation |==|  0.46198 0.49319 0.41380
USER: genes 1 Rotation |==|  0.53733 0.95274 0.59263 0.68721
USER: genes 2 Torsion [N]-C--CA-[N] |==|  0.34445
USER: genes 3 Torsion [C]-CA--N-[C] |==|  0.86429
USER: genes 4 Torsion [N]-C--CA-[N] |==|  0.45367
USER: genes 5 Torsion [C]-CA--N-[C] |==|  0.65455
USER: genes 6 Torsion [N]-C--CA-[N] |==|  0.51858
USER: genes 7 Torsion [C]-CA--N-[H2] |==|  0.30350
USER: genes 8 Torsion [C]-CA--CB-[CG] |==|  0.84123
USER: genes 9 Torsion [CA]-CB--CG-[ND1] |==|  0.75222
USER: genes 10 Torsion [C]-CA--CB-[CG] |==|  0.45071
USER: genes 11 Torsion [CA]-CB--CG-[CD2] |==|  0.53559
USER: genes 12 Torsion [C]-CA--CB-[CG] |==|  0.50934
USER: genes 13 Torsion [CA]-CB--CG-[CD2] |==|  0.98839
USER: genes 14 Torsion [C]-N--CA-[C] |==|  0.67001
USER: genes 15 Torsion [N]-CA--C-[N] |==|  0.87104
USER: genes 16 Torsion [C]-N--CA-[CB] |==|  0.82748
USER: genes 17 Torsion [N]-CA--CB-[CG] |==|  0.36261
USER: genes 18 Torsion [CA]-CB--CG-[ND1] |==|  0.21667
USER: genes 19 Torsion [N]-CA--C-[N] |==|  0.35222
USER: genes 20 Torsion [C]-N--CA-[C] |==|  0.79275
USER: genes 21 Torsion [N]-CA--C-[O] |==|  0.69707
USER: genes 22 Torsion [N]-CA--CB-[CG] |==|  0.64782
USER: genes 23 Torsion [CA]-CB--CG-[ND1] |==|  0.06073
USER: genes 24 Torsion [N]-CA--CB-[CG] |==|  0.26194
USER: genes 25 Torsion [CA]-CB--CG-[CD2] |==|  0.31328
ROOT
ATOM      1  C   HIS X   1       1.860  -0.145  18.018  1.00 40.87 LIG 0.24  C 
ATOM      2 O    HIS X   1       2.824  -0.469  18.719  1.00 40.80 LIG-0.27  OA
ATOM      3  N   HIS X   2       0.841  -0.933  17.735  1.00 30.16 LIG-0.35  N 
ATOM      4 H    HIS X   2       0.187  -0.696  17.231  1.00 30.16 LIG 0.16  HD
ENDROOT
BRANCH 1 5
ATOM      5  CA  HIS X   1       1.732   1.230  17.398  1.00 48.06 LIG 0.18  C 
BRANCH 5 6
ATOM      6  N   HIS X   1       1.819   2.250  18.446  1.00 54.11 LIG-0.35  N 
ATOM      7 H    HIS X   1       2.370   2.887  18.269  1.00 54.11 LIG 0.16  HD
ATOM      8  C   HIS X   0       1.114   2.188  19.557  1.00 58.54 LIG 0.24  C 
ATOM      9 O    HIS X   0       0.504   1.183  19.928  1.00 63.37 LIG-0.27  OA
BRANCH 8 10
ATOM     10  CA  HIS X   0       1.110   3.479  20.359  1.00 62.53 LIG 0.18  C 
BRANCH 10 11
ATOM     11  N   HIS X   0       0.032   3.515  21.354  1.00 60.73 LIG-0.35  N 
ATOM     12  C   HIS X  -1      -0.847   4.504  21.371  1.00 60.09 LIG 0.25  C 
ATOM     13 O    HIS X  -1      -1.133   5.179  20.380  1.00 62.79 LIG-0.27  OA
ATOM     14 H    HIS X   0       0.028   2.854  21.904  1.00 60.73 LIG 0.16  HD
BRANCH 12 15
ATOM     15  CA  HIS X  -1      -1.527   4.733  22.716  1.00 59.53 LIG 0.28  C 
BRANCH 15 16
ATOM     16  N   HIS X  -1      -2.611   5.763  22.572  1.00 57.14 LIG-0.07  N 
ATOM     17 H3   HIS X  -1      -2.524   6.377  23.209  1.00 57.14 LIG 0.28  HD
ATOM     18 H2   HIS X  -1      -3.406   5.369  22.646  1.00 57.14 LIG 0.28  HD
ATOM     19 H1   HIS X  -1      -2.546   6.152  21.774  1.00 57.14 LIG 0.28  HD
ENDBRANCH 15 16
BRANCH 15 20
ATOM     20  CB  HIS X  -1      -2.094   3.430  23.279  1.00 57.27 LIG 0.10  C 
BRANCH 20 21
ATOM     21  CG  HIS X  -1      -3.065   2.751  22.369  1.00 54.13 LIG 0.06  A 
ATOM     22 ND1  HIS X  -1      -4.418   3.015  22.394  1.00 52.72 LIG-0.24  NA
ATOM     23  CE1 HIS X  -1      -5.028   2.258  21.497  1.00 54.35 LIG 0.23  A 
ATOM     24 NE2  HIS X  -1      -4.120   1.511  20.892  1.00 53.65 LIG-0.25  NA
ATOM     25  CD2 HIS X  -1      -2.882   1.802  21.419  1.00 55.23 LIG 0.14  A 
ENDBRANCH 20 21
ENDBRANCH 15 20
ENDBRANCH 12 15
ENDBRANCH 10 11
BRANCH 10 26
ATOM     26  CB  HIS X   0       2.493   3.700  21.008  1.00 64.99 LIG 0.10  C 
BRANCH 26 27
ATOM     27  CG  HIS X   0       2.741   5.110  21.462  1.00 69.41 LIG 0.06  A 
ATOM     28 ND1  HIS X   0       1.732   6.048  21.569  1.00 72.01 LIG-0.24  NA
ATOM     29  CE1 HIS X   0       2.239   7.192  21.997  1.00 72.69 LIG 0.23  A 
ATOM     30 NE2  HIS X   0       3.538   7.030  22.176  1.00 72.94 LIG-0.25  NA
ATOM     31  CD2 HIS X   0       3.877   5.737  21.853  1.00 71.12 LIG 0.14  A 
ENDBRANCH 26 27
ENDBRANCH 10 26
ENDBRANCH 8 10
ENDBRANCH 5 6
BRANCH 5 32
ATOM     32  CB  HIS X   1       2.830   1.443  16.358  1.00 48.25 LIG 0.10  C 
BRANCH 32 33
ATOM     33  CG  HIS X   1       2.826   2.812  15.751  1.00 50.36 LIG 0.06  A 
ATOM     34  CD2 HIS X   1       1.974   3.854  15.914  1.00 51.47 LIG 0.14  A 
ATOM     35 NE2  HIS X   1       2.437   4.881  15.127  1.00 50.72 LIG-0.25  NA
ATOM     36  CE1 HIS X   1       3.533   4.484  14.505  1.00 48.50 LIG 0.23  A 
ATOM     37 ND1  HIS X   1       3.790   3.238  14.861  1.00 47.89 LIG-0.24  NA
ENDBRANCH 32 33
ENDBRANCH 5 32
ENDBRANCH 1 5
BRANCH 3 38
ATOM     38  CA  HIS X   2       0.721  -2.312  18.262  1.00 26.25 LIG 0.18  C 
BRANCH 38 39
ATOM     39  C   HIS X   2       0.690  -3.366  17.160  1.00 23.72 LIG 0.24  C 
ATOM     40  N   HIS X   3      -0.126  -3.077  16.160  1.00 22.33 LIG-0.35  N 
ATOM     41 H    HIS X   3      -0.615  -2.370  16.131  1.00 22.33 LIG 0.16  HD
ATOM     42 O    HIS X   2       1.364  -4.405  17.215  1.00 19.88 LIG-0.27  OA
BRANCH 40 43
ATOM     43  CA  HIS X   3      -0.272  -3.959  14.990  1.00 22.38 LIG 0.18  C 
BRANCH 43 44
ATOM     44  CB  HIS X   3       1.050  -4.131  14.178  1.00 22.51 LIG 0.10  C 
BRANCH 44 45
ATOM     45  CG  HIS X   3       1.431  -5.550  13.859  1.00 18.10 LIG 0.06  A 
ATOM     46  CD2 HIS X   3       2.296  -6.405  14.458  1.00 18.75 LIG 0.14  A 
ATOM     47 NE2  HIS X   3       2.222  -7.600  13.779  1.00 20.06 LIG-0.25  NA
ATOM     48  CE1 HIS X   3       1.334  -7.486  12.809  1.00 21.69 LIG 0.23  A 
ATOM     49 ND1  HIS X   3       0.832  -6.262  12.848  1.00 17.48 LIG-0.24  NA
ENDBRANCH 44 45
ENDBRANCH 43 44
BRANCH 43 50
ATOM     50  C   HIS X   3      -0.901  -5.296  15.380  1.00 21.59 LIG 0.24  C 
ATOM     51 O    HIS X   3      -0.415  -6.016  16.244  1.00 25.47 LIG-0.27  OA
ATOM     52  N   HIS X   4      -1.960  -5.640  14.678  1.00 25.63 LIG-0.35  N 
ATOM     53 H    HIS X   4      -2.299  -5.163  14.047  1.00 25.63 LIG 0.16  HD
BRANCH 52 54
ATOM     54  CA  HIS X   4      -2.658  -6.903  14.935  1.00 23.96 LIG 0.17  C 
BRANCH 54 55
ATOM     55  C   HIS X   4      -1.809  -8.046  14.368  1.00 31.35 LIG 0.22  C 
ATOM     56 O    HIS X   4      -2.162  -8.668  13.364  1.00 37.06 LIG-0.29  OA
ENDBRANCH 54 55
BRANCH 54 57
ATOM     57  CB  HIS X   4      -4.070  -6.908  14.336  1.00 23.83 LIG 0.09  C 
BRANCH 57 58
ATOM     58  CG  HIS X   4      -5.151  -7.262  15.322  1.00 22.57 LIG 0.06  A 
ATOM     59 ND1  HIS X   4      -4.998  -7.131  16.690  1.00 22.63 LIG-0.24  NA
ATOM     60  CE1 HIS X   4      -6.112  -7.511  17.293  1.00 19.94 LIG 0.23  A 
ATOM     61 NE2  HIS X   4      -6.974  -7.899  16.372  1.00 20.25 LIG-0.25  NA
ATOM     62  CD2 HIS X   4      -6.402  -7.739  15.131  1.00 21.52 LIG 0.14  A 
ENDBRANCH 57 58
ENDBRANCH 54 57
ENDBRANCH 52 54
ENDBRANCH 43 50
ENDBRANCH 40 43
ENDBRANCH 38 39
BRANCH 38 63
ATOM     63  CB  HIS X   2      -0.529  -2.455  19.138  1.00 28.74 LIG 0.10  C 
BRANCH 63 64
ATOM     64  CG  HIS X   2      -1.723  -2.964  18.403  1.00 28.63 LIG 0.06  A 
ATOM     65 ND1  HIS X   2      -2.340  -2.239  17.411  1.00 31.27 LIG-0.24  NA
ATOM     66  CE1 HIS X   2      -3.352  -2.932  16.924  1.00 28.11 LIG 0.23  A 
ATOM     67 NE2  HIS X   2      -3.422  -4.080  17.571  1.00 29.87 LIG-0.25  NA
ATOM     68  CD2 HIS X   2      -2.407  -4.129  18.499  1.00 31.84 LIG 0.14  A 
ENDBRANCH 63 64
ENDBRANCH 38 63
ENDBRANCH 3 38
TORSDOF 24
ENDMDL
MODEL 40
USER: ADFR SOLUTION from run 27
USER: SCORE 18.804935 LL:  -5.832 LR: -13.878 RR:   0.000 FEB:  -6.719
USER: RMSD 6.802810
USER: SEED 26
USER: STATUS searching
USER: GENES 26
USER: genes 0 Translation |==|  0.44972 0.49479 0.41496
USER: genes 1 Rotation |==|  0.57043 0.96241 0.57833 0.65837
USER: genes 2 Torsion [N]-C--CA-[N] |==|  0.31667
USER: genes 3 Torsion [C]-CA--N-[C] |==|  0.86591
USER: genes 4 Torsion [N]-C--CA-[N] |==|  0.45078
USER: genes 5 Torsion [C]-CA--N-[C] |==|  0.65134
USER: genes 6 Torsion [N]-C--CA-[N] |==|  0.53189
USER: genes 7 Torsion [C]-CA--N-[H2] |==|  0.63371
USER: genes 8 Torsion [C]-CA--CB-[CG] |==|  0.85033
USER: genes 9 Torsion [CA]-CB--CG-[ND1] |==|  0.74643
USER: genes 10 Torsion [C]-CA--CB-[CG] |==|  0.45149
USER: genes 11 Torsion [CA]-CB--CG-[CD2] |==|  0.54057
USER: genes 12 Torsion [C]-CA--CB-[CG] |==|  0.52839
USER: genes 13 Torsion [CA]-CB--CG-[CD2] |==|  0.26236
USER: genes 14 Torsion [C]-N--CA-[C] |==|  0.74784
USER: genes 15 Torsion [N]-CA--C-[N] |==|  0.94820
USER: genes 16 Torsion [C]-N--CA-[CB] |==|  0.85532
USER: genes 17 Torsion [N]-CA--CB-[CG] |==|  0.93935
USER: genes 18 Torsion [CA]-CB--CG-[ND1] |==|  0.84006
USER: genes 19 Torsion [N]-CA--C-[N] |==|  0.85745
USER: genes 20 Torsion [C]-N--CA-[C] |==|  0.14642
USER: genes 21 Torsion [N]-CA--C-[O] |==|  0.07630
USER: genes 22 Torsion [N]-CA--CB-[CG] |==|  0.92515
USER: genes 23 Torsion [CA]-CB--CG-[ND1] |==|  0.29676
USER: genes 24 Torsion [N]-CA--CB-[CG] |==|  0.76872
USER: genes 25 Torsion [CA]-CB--CG-[CD2] |==|  0.98633
ROOT
ATOM      1  C   HIS X   1       1.612  -0.107  18.039  1.00 40.87 LIG 0.24  C 
ATOM      2 O    HIS X   1       2.624  -0.546  18.593  1.00 40.80 LIG-0.27  OA
ATOM      3  N   HIS X   2       0.478  -0.768  17.917  1.00 30.16 LIG-0.35  N 
ATOM      4 H    HIS X   2      -0.212  -0.452  17.511  1.00 30.16 LIG 0.16  HD
ENDROOT
BRANCH 1 5
ATOM      5  CA  HIS X   1       1.555   1.278  17.432  1.00 48.06 LIG 0.18  C 
BRANCH 5 6
ATOM      6  N   HIS X   1       1.678   2.283  18.491  1.00 54.11 LIG-0.35  N 
ATOM      7 H    HIS X   1       2.253   2.900  18.323  1.00 54.11 LIG 0.16  HD
ATOM      8  C   HIS X   0       0.965   2.237  19.598  1.00 58.54 LIG 0.24  C 
ATOM      9 O    HIS X   0       0.315   1.253  19.956  1.00 63.37 LIG-0.27  OA
BRANCH 8 10
ATOM     10  CA  HIS X   0       1.008   3.519  20.414  1.00 62.53 LIG 0.18  C 
BRANCH 10 11
ATOM     11  N   HIS X   0      -0.086   3.598  21.388  1.00 60.73 LIG-0.35  N 
ATOM     12  C   HIS X  -1      -0.903   4.639  21.414  1.00 60.09 LIG 0.25  C 
ATOM     13 O    HIS X  -1      -1.125   5.355  20.435  1.00 62.79 LIG-0.27  OA
ATOM     14 H    HIS X   0      -0.143   2.925  21.920  1.00 60.73 LIG 0.16  HD
BRANCH 12 15
ATOM     15  CA  HIS X  -1      -1.595   4.877  22.751  1.00 59.53 LIG 0.28  C 
BRANCH 15 16
ATOM     16  N   HIS X  -1      -2.690   5.892  22.585  1.00 57.14 LIG-0.07  N 
ATOM     17 H3   HIS X  -1      -2.613   6.284  21.790  1.00 57.14 LIG 0.28  HD
ATOM     18 H2   HIS X  -1      -2.624   6.508  23.226  1.00 57.14 LIG 0.28  HD
ATOM     19 H1   HIS X  -1      -3.481   5.488  22.642  1.00 57.14 LIG 0.28  HD
ENDBRANCH 15 16
BRANCH 15 20
ATOM     20  CB  HIS X  -1      -2.152   3.574  23.326  1.00 57.27 LIG 0.10  C 
BRANCH 20 21
ATOM     21  CG  HIS X  -1      -3.048   2.834  22.386  1.00 54.13 LIG 0.06  A 
ATOM     22 ND1  HIS X  -1      -4.413   3.023  22.356  1.00 52.72 LIG-0.24  NA
ATOM     23  CE1 HIS X  -1      -4.945   2.225  21.445  1.00 54.35 LIG 0.23  A 
ATOM     24 NE2  HIS X  -1      -3.974   1.524  20.885  1.00 53.65 LIG-0.25  NA
ATOM     25  CD2 HIS X  -1      -2.776   1.888  21.455  1.00 55.23 LIG 0.14  A 
ENDBRANCH 20 21
ENDBRANCH 15 20
ENDBRANCH 12 15
ENDBRANCH 10 11
BRANCH 10 26
ATOM     26  CB  HIS X   0       2.388   3.666  21.092  1.00 64.99 LIG 0.10  C 
BRANCH 26 27
ATOM     27  CG  HIS X   0       2.692   5.056  21.572  1.00 69.41 LIG 0.06  A 
ATOM     28 ND1  HIS X   0       1.720   6.027  21.709  1.00 72.01 LIG-0.24  NA
ATOM     29  CE1 HIS X   0       2.272   7.143  22.154  1.00 72.69 LIG 0.23  A 
ATOM     30 NE2  HIS X   0       3.566   6.930  22.316  1.00 72.94 LIG-0.25  NA
ATOM     31  CD2 HIS X   0       3.854   5.632  21.964  1.00 71.12 LIG 0.14  A 
ENDBRANCH 26 27
ENDBRANCH 10 26
ENDBRANCH 8 10
ENDBRANCH 5 6
BRANCH 5 32
ATOM     32  CB  HIS X   1       2.674   1.451  16.407  1.00 48.25 LIG 0.10  C 
BRANCH 32 33
ATOM     33  CG  HIS X   1       2.844   2.861  15.934  1.00 50.36 LIG 0.06  A 
ATOM     34  CD2 HIS X   1       3.670   3.848  16.360  1.00 51.47 LIG 0.14  A 
ATOM     35 NE2  HIS X   1       3.427   4.948  15.573  1.00 50.72 LIG-0.25  NA
ATOM     36  CE1 HIS X   1       2.486   4.645  14.694  1.00 48.50 LIG 0.23  A 
ATOM     37 ND1  HIS X   1       2.115   3.393  14.890  1.00 47.89 LIG-0.24  NA
ENDBRANCH 32 33
ENDBRANCH 5 32
ENDBRANCH 1 5
BRANCH 3 38
ATOM     38  CA  HIS X   2       0.277  -2.128  18.468  1.00 26.25 LIG 0.18  C 
BRANCH 38 39
ATOM     39  C   HIS X   2       0.634  -3.228  17.474  1.00 23.72 LIG 0.24  C 
ATOM     40  N   HIS X   3       0.679  -2.825  16.215  1.00 22.33 LIG-0.35  N 
ATOM     41 H    HIS X   3       0.507  -2.020  15.965  1.00 22.33 LIG 0.16  HD
ATOM     42 O    HIS X   2       0.846  -4.398  17.826  1.00 19.88 LIG-0.27  OA
BRANCH 40 43
ATOM     43  CA  HIS X   3       1.033  -3.736  15.115  1.00 22.38 LIG 0.18  C 
BRANCH 43 44
ATOM     44  CB  HIS X   3       2.370  -4.505  15.355  1.00 22.51 LIG 0.10  C 
BRANCH 44 45
ATOM     45  CG  HIS X   3       3.313  -3.869  16.338  1.00 18.10 LIG 0.06  A 
ATOM     46  CD2 HIS X   3       3.919  -4.358  17.449  1.00 18.75 LIG 0.14  A 
ATOM     47 NE2  HIS X   3       4.720  -3.357  17.949  1.00 20.06 LIG-0.25  NA
ATOM     48  CE1 HIS X   3       4.621  -2.299  17.165  1.00 21.69 LIG 0.23  A 
ATOM     49 ND1  HIS X   3       3.790  -2.590  16.178  1.00 17.48 LIG-0.24  NA
ENDBRANCH 44 45
ENDBRANCH 43 44
BRANCH 43 50
ATOM     50  C   HIS X   3      -0.127  -4.669  14.773  1.00 21.59 LIG 0.24  C 
ATOM     51 O    HIS X   3      -0.573  -4.763  13.635  1.00 25.47 LIG-0.27  OA
ATOM     52  N   HIS X   4      -0.647  -5.313  15.797  1.00 25.63 LIG-0.35  N 
ATOM     53 H    HIS X   4      -0.369  -5.239  16.608  1.00 25.63 LIG 0.16  HD
BRANCH 52 54
ATOM     54  CA  HIS X   4      -1.774  -6.233  15.618  1.00 23.96 LIG 0.17  C 
BRANCH 54 55
ATOM     55  C   HIS X   4      -1.407  -7.237  14.521  1.00 31.35 LIG 0.22  C 
ATOM     56 O    HIS X   4      -0.233  -7.539  14.297  1.00 37.06 LIG-0.29  OA
ENDBRANCH 54 55
BRANCH 54 57
ATOM     57  CB  HIS X   4      -3.071  -5.487  15.279  1.00 23.83 LIG 0.09  C 
BRANCH 57 58
ATOM     58  CG  HIS X   4      -3.121  -4.077  15.805  1.00 22.57 LIG 0.06  A 
ATOM     59 ND1  HIS X   4      -2.995  -2.964  14.994  1.00 22.63 LIG-0.24  NA
ATOM     60  CE1 HIS X   4      -3.084  -1.871  15.734  1.00 19.94 LIG 0.23  A 
ATOM     61 NE2  HIS X   4      -3.246  -2.232  16.993  1.00 20.25 LIG-0.25  NA
ATOM     62  CD2 HIS X   4      -3.286  -3.605  17.062  1.00 21.52 LIG 0.14  A 
ENDBRANCH 57 58
ENDBRANCH 54 57
ENDBRANCH 52 54
ENDBRANCH 43 50
ENDBRANCH 40 43
ENDBRANCH 38 39
BRANCH 38 63
ATOM     63  CB  HIS X   2      -1.170  -2.317  18.940  1.00 28.74 LIG 0.10  C 
BRANCH 63 64
ATOM     64  CG  HIS X   2      -1.428  -1.792  20.313  1.00 28.63 LIG 0.06  A 
ATOM     65 ND1  HIS X   2      -2.682  -1.798  20.877  1.00 31.27 LIG-0.24  NA
ATOM     66  CE1 HIS X   2      -2.616  -1.294  22.096  1.00 28.11 LIG 0.23  A 
ATOM     67 NE2  HIS X   2      -1.366  -0.952  22.340  1.00 29.87 LIG-0.25  NA
ATOM     68  CD2 HIS X   2      -0.598  -1.261  21.241  1.00 31.84 LIG 0.14  A 
ENDBRANCH 63 64
ENDBRANCH 38 63
ENDBRANCH 3 38
TORSDOF 24
ENDMDL
MODEL 41
USER: ADFR SOLUTION from run 172
USER: SCORE 18.585892 LL:  -5.757 LR: -13.880 RR:   0.000 FEB:  -6.721
USER: RMSD 10.636852
USER: SEED 171
USER: STATUS searching
USER: GENES 26
USER: genes 0 Translation |==|  0.46303 0.41797 0.33368
USER: genes 1 Rotation |==|  0.56763 0.31173 0.95734 0.52860
USER: genes 2 Torsion [N]-C--CA-[N] |==|  0.91483
USER: genes 3 Torsion [C]-CA--N-[C] |==|  0.66712
USER: genes 4 Torsion [N]-C--CA-[N] |==|  0.86159
USER: genes 5 Torsion [C]-CA--N-[C] |==|  0.73639
USER: genes 6 Torsion [N]-C--CA-[N] |==|  0.78675
USER: genes 7 Torsion [C]-CA--N-[H2] |==|  0.37411
USER: genes 8 Torsion [C]-CA--CB-[CG] |==|  0.47060
USER: genes 9 Torsion [CA]-CB--CG-[ND1] |==|  0.11775
USER: genes 10 Torsion [C]-CA--CB-[CG] |==|  0.82950
USER: genes 11 Torsion [CA]-CB--CG-[CD2] |==|  0.36187
USER: genes 12 Torsion [C]-CA--CB-[CG] |==|  0.29131
USER: genes 13 Torsion [CA]-CB--CG-[CD2] |==|  0.92857
USER: genes 14 Torsion [C]-N--CA-[C] |==|  0.70068
USER: genes 15 Torsion [N]-CA--C-[N] |==|  0.41813
USER: genes 16 Torsion [C]-N--CA-[CB] |==|  0.53337
USER: genes 17 Torsion [N]-CA--CB-[CG] |==|  0.98540
USER: genes 18 Torsion [CA]-CB--CG-[ND1] |==|  0.88805
USER: genes 19 Torsion [N]-CA--C-[N] |==|  0.43135
USER: genes 20 Torsion [C]-N--CA-[C] |==|  0.16364
USER: genes 21 Torsion [N]-CA--C-[O] |==|  0.05985
USER: genes 22 Torsion [N]-CA--CB-[CG] |==|  0.80853
USER: genes 23 Torsion [CA]-CB--CG-[ND1] |==|  0.65683
USER: genes 24 Torsion [N]-CA--CB-[CG] |==|  0.55876
USER: genes 25 Torsion [CA]-CB--CG-[CD2] |==|  0.24046
ROOT
ATOM      1  C   HIS X   1       1.881  -1.951  16.576  1.00 40.87 LIG 0.24  C 
ATOM      2 O    HIS X   1       3.088  -2.029  16.329  1.00 40.80 LIG-0.27  OA
ATOM      3  N   HIS X   2       1.239  -0.826  16.824  1.00 30.16 LIG-0.35  N 
ATOM      4 H    HIS X   2       0.400  -0.793  17.012  1.00 30.16 LIG 0.16  HD
ENDROOT
BRANCH 1 5
ATOM      5  CA  HIS X   1       0.979  -3.166  16.615  1.00 48.06 LIG 0.18  C 
BRANCH 5 6
ATOM      6  N   HIS X   1      -0.108  -2.938  17.570  1.00 54.11 LIG-0.35  N 
ATOM      7 H    HIS X   1      -0.605  -2.262  17.380  1.00 54.11 LIG 0.16  HD
ATOM      8  C   HIS X   0      -0.300  -3.706  18.623  1.00 58.54 LIG 0.24  C 
ATOM      9 O    HIS X   0       0.524  -4.524  19.036  1.00 63.37 LIG-0.27  OA
BRANCH 8 10
ATOM     10  CA  HIS X   0      -1.644  -3.498  19.302  1.00 62.53 LIG 0.18  C 
BRANCH 10 11
ATOM     11  N   HIS X   0      -1.923  -2.082  19.567  1.00 60.73 LIG-0.35  N 
ATOM     12  C   HIS X  -1      -1.641  -1.539  20.740  1.00 60.09 LIG 0.25  C 
ATOM     13 O    HIS X  -1      -0.770  -1.972  21.499  1.00 62.79 LIG-0.27  OA
ATOM     14 H    HIS X   0      -2.275  -1.656  18.908  1.00 60.73 LIG 0.16  HD
BRANCH 12 15
ATOM     15  CA  HIS X  -1      -2.452  -0.295  21.082  1.00 59.53 LIG 0.28  C 
BRANCH 15 16
ATOM     16  N   HIS X  -1      -1.922   0.886  20.320  1.00 57.14 LIG-0.07  N 
ATOM     17 H3   HIS X  -1      -1.463   1.413  20.871  1.00 57.14 LIG 0.28  HD
ATOM     18 H2   HIS X  -1      -2.601   1.343  19.970  1.00 57.14 LIG 0.28  HD
ATOM     19 H1   HIS X  -1      -1.387   0.602  19.667  1.00 57.14 LIG 0.28  HD
ENDBRANCH 15 16
BRANCH 15 20
ATOM     20  CB  HIS X  -1      -3.937  -0.504  20.786  1.00 57.27 LIG 0.10  C 
BRANCH 20 21
ATOM     21  CG  HIS X  -1      -4.819   0.574  21.327  1.00 54.13 LIG 0.06  A 
ATOM     22 ND1  HIS X  -1      -4.494   1.911  21.246  1.00 52.72 LIG-0.24  NA
ATOM     23  CE1 HIS X  -1      -5.445   2.628  21.820  1.00 54.35 LIG 0.23  A 
ATOM     24 NE2  HIS X  -1      -6.375   1.805  22.273  1.00 53.65 LIG-0.25  NA
ATOM     25  CD2 HIS X  -1      -6.007   0.513  21.975  1.00 55.23 LIG 0.14  A 
ENDBRANCH 20 21
ENDBRANCH 15 20
ENDBRANCH 12 15
ENDBRANCH 10 11
BRANCH 10 26
ATOM     26  CB  HIS X   0      -2.764  -4.154  18.466  1.00 64.99 LIG 0.10  C 
BRANCH 26 27
ATOM     27  CG  HIS X   0      -2.914  -3.584  17.085  1.00 69.41 LIG 0.06  A 
ATOM     28 ND1  HIS X   0      -2.984  -2.227  16.841  1.00 72.01 LIG-0.24  NA
ATOM     29  CE1 HIS X   0      -3.106  -2.019  15.541  1.00 72.69 LIG 0.23  A 
ATOM     30 NE2  HIS X   0      -3.113  -3.191  14.932  1.00 72.94 LIG-0.25  NA
ATOM     31  CD2 HIS X   0      -2.990  -4.187  15.874  1.00 71.12 LIG 0.14  A 
ENDBRANCH 26 27
ENDBRANCH 10 26
ENDBRANCH 8 10
ENDBRANCH 5 6
BRANCH 5 32
ATOM     32  CB  HIS X   1       0.413  -3.446  15.225  1.00 48.25 LIG 0.10  C 
BRANCH 32 33
ATOM     33  CG  HIS X   1       1.053  -4.613  14.539  1.00 50.36 LIG 0.06  A 
ATOM     34  CD2 HIS X   1       2.283  -5.165  14.685  1.00 51.47 LIG 0.14  A 
ATOM     35 NE2  HIS X   1       2.355  -6.227  13.815  1.00 50.72 LIG-0.25  NA
ATOM     36  CE1 HIS X   1       1.210  -6.323  13.161  1.00 48.50 LIG 0.23  A 
ATOM     37 ND1  HIS X   1       0.407  -5.361  13.576  1.00 47.89 LIG-0.24  NA
ENDBRANCH 32 33
ENDBRANCH 5 32
ENDBRANCH 1 5
BRANCH 3 38
ATOM     38  CA  HIS X   2       1.900   0.498  16.802  1.00 26.25 LIG 0.18  C 
BRANCH 38 39
ATOM     39  C   HIS X   2       2.079   1.094  18.195  1.00 23.72 LIG 0.24  C 
ATOM     40  N   HIS X   3       3.131   1.888  18.310  1.00 22.33 LIG-0.35  N 
ATOM     41 H    HIS X   3       3.681   2.049  17.669  1.00 22.33 LIG 0.16  HD
ATOM     42 O    HIS X   2       1.310   0.836  19.132  1.00 19.88 LIG-0.27  OA
BRANCH 40 43
ATOM     43  CA  HIS X   3       3.454   2.578  19.569  1.00 22.38 LIG 0.18  C 
BRANCH 43 44
ATOM     44  CB  HIS X   3       4.545   3.683  19.407  1.00 22.51 LIG 0.10  C 
BRANCH 44 45
ATOM     45  CG  HIS X   3       5.169   3.779  18.043  1.00 18.10 LIG 0.06  A 
ATOM     46  CD2 HIS X   3       5.590   4.846  17.320  1.00 18.75 LIG 0.14  A 
ATOM     47 NE2  HIS X   3       6.128   4.358  16.151  1.00 20.06 LIG-0.25  NA
ATOM     48  CE1 HIS X   3       6.054   3.040  16.165  1.00 21.69 LIG 0.23  A 
ATOM     49 ND1  HIS X   3       5.493   2.667  17.303  1.00 17.48 LIG-0.24  NA
ENDBRANCH 44 45
ENDBRANCH 43 44
BRANCH 43 50
ATOM     50  C   HIS X   3       2.191   3.096  20.257  1.00 21.59 LIG 0.24  C 
ATOM     51 O    HIS X   3       1.183   3.393  19.627  1.00 25.47 LIG-0.27  OA
ATOM     52  N   HIS X   4       2.291   3.257  21.560  1.00 25.63 LIG-0.35  N 
ATOM     53 H    HIS X   4       2.999   3.084  22.017  1.00 25.63 LIG 0.16  HD
BRANCH 52 54
ATOM     54  CA  HIS X   4       1.161   3.759  22.347  1.00 23.96 LIG 0.17  C 
BRANCH 54 55
ATOM     55  C   HIS X   4      -0.022   2.805  22.155  1.00 31.35 LIG 0.22  C 
ATOM     56 O    HIS X   4       0.147   1.642  21.783  1.00 37.06 LIG-0.29  OA
ENDBRANCH 54 55
BRANCH 54 57
ATOM     57  CB  HIS X   4       0.788   5.195  21.958  1.00 23.83 LIG 0.09  C 
BRANCH 57 58
ATOM     58  CG  HIS X   4       1.817   6.222  22.350  1.00 22.57 LIG 0.06  A 
ATOM     59 ND1  HIS X   4       1.528   7.315  23.146  1.00 22.63 LIG-0.24  NA
ATOM     60  CE1 HIS X   4       2.627   8.031  23.322  1.00 19.94 LIG 0.23  A 
ATOM     61 NE2  HIS X   4       3.610   7.455  22.657  1.00 20.25 LIG-0.25  NA
ATOM     62  CD2 HIS X   4       3.133   6.315  22.053  1.00 21.52 LIG 0.14  A 
ENDBRANCH 57 58
ENDBRANCH 54 57
ENDBRANCH 52 54
ENDBRANCH 43 50
ENDBRANCH 40 43
ENDBRANCH 38 39
BRANCH 38 63
ATOM     63  CB  HIS X   2       1.119   1.484  15.924  1.00 28.74 LIG 0.10  C 
BRANCH 63 64
ATOM     64  CG  HIS X   2       1.934   2.639  15.446  1.00 28.63 LIG 0.06  A 
ATOM     65 ND1  HIS X   2       1.994   3.829  16.131  1.00 31.27 LIG-0.24  NA
ATOM     66  CE1 HIS X   2       2.797   4.662  15.495  1.00 28.11 LIG 0.23  A 
ATOM     67 NE2  HIS X   2       3.254   4.059  14.415  1.00 29.87 LIG-0.25  NA
ATOM     68  CD2 HIS X   2       2.735   2.786  14.364  1.00 31.84 LIG 0.14  A 
ENDBRANCH 63 64
ENDBRANCH 38 63
ENDBRANCH 3 38
TORSDOF 24
ENDMDL
MODEL 42
USER: ADFR SOLUTION from run 3
USER: SCORE 18.654109 LL:  -6.109 LR: -13.850 RR:   0.000 FEB:  -6.691
USER: RMSD 10.212728
USER: SEED 454871
USER: STATUS no improvement in best in 5 clusters for 5 generations
USER: GENES 26
USER: genes 0 Translation |==|  0.54080 0.56098 0.37911
USER: genes 1 Rotation |==|  0.42230 0.31076 0.92122 0.67528
USER: genes 2 Torsion [N]-C--CA-[N] |==|  0.50400
USER: genes 3 Torsion [C]-CA--N-[C] |==|  0.58393
USER: genes 4 Torsion [N]-C--CA-[N] |==|  0.47022
USER: genes 5 Torsion [C]-CA--N-[C] |==|  0.72878
USER: genes 6 Torsion [N]-C--CA-[N] |==|  0.86664
USER: genes 7 Torsion [C]-CA--N-[H2] |==|  0.83071
USER: genes 8 Torsion [C]-CA--CB-[CG] |==|  0.48500
USER: genes 9 Torsion [CA]-CB--CG-[ND1] |==|  0.22978
USER: genes 10 Torsion [C]-CA--CB-[CG] |==|  0.18563
USER: genes 11 Torsion [CA]-CB--CG-[CD2] |==|  0.14909
USER: genes 12 Torsion [C]-CA--CB-[CG] |==|  0.80347
USER: genes 13 Torsion [CA]-CB--CG-[CD2] |==|  0.71915
USER: genes 14 Torsion [C]-N--CA-[C] |==|  0.70000
USER: genes 15 Torsion [N]-CA--C-[N] |==|  0.96513
USER: genes 16 Torsion [C]-N--CA-[CB] |==|  0.20170
USER: genes 17 Torsion [N]-CA--CB-[CG] |==|  0.65734
USER: genes 18 Torsion [CA]-CB--CG-[ND1] |==|  0.24791
USER: genes 19 Torsion [N]-CA--C-[N] |==|  0.85314
USER: genes 20 Torsion [C]-N--CA-[C] |==|  0.55565
USER: genes 21 Torsion [N]-CA--C-[O] |==|  0.77295
USER: genes 22 Torsion [N]-CA--CB-[CG] |==|  0.00311
USER: genes 23 Torsion [CA]-CB--CG-[ND1] |==|  0.17913
USER: genes 24 Torsion [N]-CA--CB-[CG] |==|  0.97533
USER: genes 25 Torsion [CA]-CB--CG-[CD2] |==|  0.70591
ROOT
ATOM      1  C   HIS X   1       3.456   1.482  17.394  1.00 40.87 LIG 0.24  C 
ATOM      2 O    HIS X   1       4.265   0.554  17.499  1.00 40.80 LIG-0.27  OA
ATOM      3  N   HIS X   2       3.761   2.759  17.515  1.00 30.16 LIG-0.35  N 
ATOM      4 H    HIS X   2       3.180   3.390  17.457  1.00 30.16 LIG 0.16  HD
ENDROOT
BRANCH 1 5
ATOM      5  CA  HIS X   1       1.989   1.251  17.098  1.00 48.06 LIG 0.18  C 
BRANCH 5 6
ATOM      6  N   HIS X   1       1.728  -0.188  17.012  1.00 54.11 LIG-0.35  N 
ATOM      7 H    HIS X   1       2.243  -0.667  17.506  1.00 54.11 LIG 0.16  HD
ATOM      8  C   HIS X   0       0.785  -0.693  16.243  1.00 58.54 LIG 0.24  C 
ATOM      9 O    HIS X   0       0.200  -0.056  15.365  1.00 63.37 LIG-0.27  OA
BRANCH 8 10
ATOM     10  CA  HIS X   0       0.469  -2.152  16.530  1.00 62.53 LIG 0.18  C 
BRANCH 10 11
ATOM     11  N   HIS X   0      -0.743  -2.607  15.840  1.00 60.73 LIG-0.35  N 
ATOM     12  C   HIS X  -1      -1.909  -2.648  16.464  1.00 60.09 LIG 0.25  C 
ATOM     13 O    HIS X  -1      -2.188  -1.938  17.433  1.00 62.79 LIG-0.27  OA
ATOM     14 H    HIS X   0      -0.625  -2.837  15.020  1.00 60.73 LIG 0.16  HD
BRANCH 12 15
ATOM     15  CA  HIS X  -1      -2.921  -3.621  15.871  1.00 59.53 LIG 0.28  C 
BRANCH 15 16
ATOM     16  N   HIS X  -1      -2.995  -3.437  14.382  1.00 57.14 LIG-0.07  N 
ATOM     17 H3   HIS X  -1      -2.191  -3.575  14.025  1.00 57.14 LIG 0.28  HD
ATOM     18 H2   HIS X  -1      -3.261  -2.607  14.199  1.00 57.14 LIG 0.28  HD
ATOM     19 H1   HIS X  -1      -3.576  -4.017  14.039  1.00 57.14 LIG 0.28  HD
ENDBRANCH 15 16
BRANCH 15 20
ATOM     20  CB  HIS X  -1      -2.565  -5.068  16.217  1.00 57.27 LIG 0.10  C 
BRANCH 20 21
ATOM     21  CG  HIS X  -1      -3.586  -6.064  15.773  1.00 54.13 LIG 0.06  A 
ATOM     22 ND1  HIS X  -1      -3.633  -6.558  14.487  1.00 52.72 LIG-0.24  NA
ATOM     23  CE1 HIS X  -1      -4.646  -7.402  14.380  1.00 54.35 LIG 0.23  A 
ATOM     24 NE2  HIS X  -1      -5.259  -7.472  15.550  1.00 53.65 LIG-0.25  NA
ATOM     25  CD2 HIS X  -1      -4.613  -6.644  16.439  1.00 55.23 LIG 0.14  A 
ENDBRANCH 20 21
ENDBRANCH 15 20
ENDBRANCH 12 15
ENDBRANCH 10 11
BRANCH 10 26
ATOM     26  CB  HIS X   0       1.688  -3.034  16.184  1.00 64.99 LIG 0.10  C 
BRANCH 26 27
ATOM     27  CG  HIS X   0       2.881  -2.809  17.068  1.00 69.41 LIG 0.06  A 
ATOM     28 ND1  HIS X   0       4.130  -2.494  16.570  1.00 72.01 LIG-0.24  NA
ATOM     29  CE1 HIS X   0       4.979  -2.346  17.573  1.00 72.69 LIG 0.23  A 
ATOM     30 NE2  HIS X   0       4.326  -2.549  18.704  1.00 72.94 LIG-0.25  NA
ATOM     31  CD2 HIS X   0       3.011  -2.836  18.416  1.00 71.12 LIG 0.14  A 
ENDBRANCH 26 27
ENDBRANCH 10 26
ENDBRANCH 8 10
ENDBRANCH 5 6
BRANCH 5 32
ATOM     32  CB  HIS X   1       1.126   1.882  18.188  1.00 48.25 LIG 0.10  C 
BRANCH 32 33
ATOM     33  CG  HIS X   1       1.197   1.166  19.501  1.00 50.36 LIG 0.06  A 
ATOM     34  CD2 HIS X   1       0.342   0.291  20.083  1.00 51.47 LIG 0.14  A 
ATOM     35 NE2  HIS X   1       0.894  -0.073  21.288  1.00 50.72 LIG-0.25  NA
ATOM     36  CE1 HIS X   1       2.047   0.556  21.438  1.00 48.50 LIG 0.23  A 
ATOM     37 ND1  HIS X   1       2.254   1.312  20.376  1.00 47.89 LIG-0.24  NA
ENDBRANCH 32 33
ENDBRANCH 5 32
ENDBRANCH 1 5
BRANCH 3 38
ATOM     38  CA  HIS X   2       5.140   3.235  17.765  1.00 26.25 LIG 0.18  C 
BRANCH 38 39
ATOM     39  C   HIS X   2       5.336   3.762  19.183  1.00 23.72 LIG 0.24  C 
ATOM     40  N   HIS X   3       4.209   3.948  19.851  1.00 22.33 LIG-0.35  N 
ATOM     41 H    HIS X   3       3.429   3.805  19.519  1.00 22.33 LIG 0.16  HD
ATOM     42 O    HIS X   2       6.458   4.005  19.653  1.00 19.88 LIG-0.27  OA
BRANCH 40 43
ATOM     43  CA  HIS X   3       4.196   4.425  21.243  1.00 22.38 LIG 0.18  C 
BRANCH 43 44
ATOM     44  CB  HIS X   3       4.569   5.934  21.384  1.00 22.51 LIG 0.10  C 
BRANCH 44 45
ATOM     45  CG  HIS X   3       5.732   6.230  22.289  1.00 18.10 LIG 0.06  A 
ATOM     46  CD2 HIS X   3       5.800   6.435  23.628  1.00 18.75 LIG 0.14  A 
ATOM     47 NE2  HIS X   3       7.127   6.618  23.944  1.00 20.06 LIG-0.25  NA
ATOM     48  CE1 HIS X   3       7.846   6.514  22.842  1.00 21.69 LIG 0.23  A 
ATOM     49 ND1  HIS X   3       7.028   6.264  21.834  1.00 17.48 LIG-0.24  NA
ENDBRANCH 44 45
ENDBRANCH 43 44
BRANCH 43 50
ATOM     50  C   HIS X   3       2.877   4.080  21.934  1.00 21.59 LIG 0.24  C 
ATOM     51 O    HIS X   3       2.837   3.438  22.977  1.00 25.47 LIG-0.27  OA
ATOM     52  N   HIS X   4       1.794   4.468  21.295  1.00 25.63 LIG-0.35  N 
ATOM     53 H    HIS X   4       1.798   4.893  20.547  1.00 25.63 LIG 0.16  HD
BRANCH 52 54
ATOM     54  CA  HIS X   4       0.459   4.193  21.835  1.00 23.96 LIG 0.17  C 
BRANCH 54 55
ATOM     55  C   HIS X   4      -0.555   4.294  20.691  1.00 31.35 LIG 0.22  C 
ATOM     56 O    HIS X   4      -0.993   5.384  20.319  1.00 37.06 LIG-0.29  OA
ENDBRANCH 54 55
BRANCH 54 57
ATOM     57  CB  HIS X   4       0.100   5.145  22.983  1.00 23.83 LIG 0.09  C 
BRANCH 57 58
ATOM     58  CG  HIS X   4       1.167   6.163  23.290  1.00 22.57 LIG 0.06  A 
ATOM     59 ND1  HIS X   4       1.552   7.145  22.397  1.00 22.63 LIG-0.24  NA
ATOM     60  CE1 HIS X   4       2.499   7.889  22.946  1.00 19.94 LIG 0.23  A 
ATOM     61 NE2  HIS X   4       2.753   7.416  24.151  1.00 20.25 LIG-0.25  NA
ATOM     62  CD2 HIS X   4       1.924   6.347  24.395  1.00 21.52 LIG 0.14  A 
ENDBRANCH 57 58
ENDBRANCH 54 57
ENDBRANCH 52 54
ENDBRANCH 43 50
ENDBRANCH 40 43
ENDBRANCH 38 39
BRANCH 38 63
ATOM     63  CB  HIS X   2       5.532   4.324  16.759  1.00 28.74 LIG 0.10  C 
BRANCH 63 64
ATOM     64  CG  HIS X   2       4.547   4.502  15.652  1.00 28.63 LIG 0.06  A 
ATOM     65 ND1  HIS X   2       3.342   5.138  15.837  1.00 31.27 LIG-0.24  NA
ATOM     66  CE1 HIS X   2       2.682   5.169  14.694  1.00 28.11 LIG 0.23  A 
ATOM     67 NE2  HIS X   2       3.411   4.567  13.774  1.00 29.87 LIG-0.25  NA
ATOM     68  CD2 HIS X   2       4.589   4.147  14.347  1.00 31.84 LIG 0.14  A 
ENDBRANCH 63 64
ENDBRANCH 38 63
ENDBRANCH 3 38
TORSDOF 24
ENDMDL
MODEL 43
USER: ADFR SOLUTION from run 199
USER: SCORE 18.316142 LL:  -6.466 LR: -13.830 RR:   0.000 FEB:  -6.670
USER: RMSD 10.262236
USER: SEED 198
USER: STATUS no improvement in best in 25 clusters for 5 generations
USER: GENES 26
USER: genes 0 Translation |==|  0.47572 0.45092 0.35568
USER: genes 1 Rotation |==|  0.57276 0.35801 0.96866 0.56998
USER: genes 2 Torsion [N]-C--CA-[N] |==|  0.94270
USER: genes 3 Torsion [C]-CA--N-[C] |==|  0.66430
USER: genes 4 Torsion [N]-C--CA-[N] |==|  0.35592
USER: genes 5 Torsion [C]-CA--N-[C] |==|  0.64546
USER: genes 6 Torsion [N]-C--CA-[N] |==|  0.37323
USER: genes 7 Torsion [C]-CA--N-[H2] |==|  0.58753
USER: genes 8 Torsion [C]-CA--CB-[CG] |==|  0.05428
USER: genes 9 Torsion [CA]-CB--CG-[ND1] |==|  0.17222
USER: genes 10 Torsion [C]-CA--CB-[CG] |==|  0.44352
USER: genes 11 Torsion [CA]-CB--CG-[CD2] |==|  0.55947
USER: genes 12 Torsion [C]-CA--CB-[CG] |==|  0.63633
USER: genes 13 Torsion [CA]-CB--CG-[CD2] |==|  0.65101
USER: genes 14 Torsion [C]-N--CA-[C] |==|  0.67547
USER: genes 15 Torsion [N]-CA--C-[N] |==|  0.15981
USER: genes 16 Torsion [C]-N--CA-[CB] |==|  0.86246
USER: genes 17 Torsion [N]-CA--CB-[CG] |==|  0.89045
USER: genes 18 Torsion [CA]-CB--CG-[ND1] |==|  0.34590
USER: genes 19 Torsion [N]-CA--C-[N] |==|  0.77778
USER: genes 20 Torsion [C]-N--CA-[C] |==|  0.57764
USER: genes 21 Torsion [N]-CA--C-[O] |==|  0.72413
USER: genes 22 Torsion [N]-CA--CB-[CG] |==|  0.04663
USER: genes 23 Torsion [CA]-CB--CG-[ND1] |==|  0.24935
USER: genes 24 Torsion [N]-CA--CB-[CG] |==|  0.51372
USER: genes 25 Torsion [CA]-CB--CG-[CD2] |==|  0.64466
ROOT
ATOM      1  C   HIS X   1       2.138  -1.160  16.972  1.00 40.87 LIG 0.24  C 
ATOM      2 O    HIS X   1       3.300  -1.436  16.660  1.00 40.80 LIG-0.27  OA
ATOM      3  N   HIS X   2       1.646   0.062  17.023  1.00 30.16 LIG-0.35  N 
ATOM      4 H    HIS X   2       0.838   0.236  17.260  1.00 30.16 LIG 0.16  HD
ENDROOT
BRANCH 1 5
ATOM      5  CA  HIS X   1       1.120  -2.221  17.332  1.00 48.06 LIG 0.18  C 
BRANCH 5 6
ATOM      6  N   HIS X   1       0.030  -1.614  18.100  1.00 54.11 LIG-0.35  N 
ATOM      7 H    HIS X   1      -0.382  -0.984  17.683  1.00 54.11 LIG 0.16  HD
ATOM      8  C   HIS X   0      -0.282  -2.004  19.318  1.00 58.54 LIG 0.24  C 
ATOM      9 O    HIS X   0       0.431  -2.732  20.011  1.00 63.37 LIG-0.27  OA
BRANCH 8 10
ATOM     10  CA  HIS X   0      -1.619  -1.476  19.812  1.00 62.53 LIG 0.18  C 
BRANCH 10 11
ATOM     11  N   HIS X   0      -2.488  -2.544  20.320  1.00 60.73 LIG-0.35  N 
ATOM     12  C   HIS X  -1      -3.729  -2.681  19.879  1.00 60.09 LIG 0.25  C 
ATOM     13 O    HIS X  -1      -4.106  -2.287  18.774  1.00 62.79 LIG-0.27  OA
ATOM     14 H    HIS X   0      -2.125  -3.052  20.910  1.00 60.73 LIG 0.16  HD
BRANCH 12 15
ATOM     15  CA  HIS X  -1      -4.670  -3.409  20.832  1.00 59.53 LIG 0.28  C 
BRANCH 15 16
ATOM     16  N   HIS X  -1      -5.972  -2.667  20.929  1.00 57.14 LIG-0.07  N 
ATOM     17 H3   HIS X  -1      -5.832  -1.800  20.782  1.00 57.14 LIG 0.28  HD
ATOM     18 H2   HIS X  -1      -6.317  -2.777  21.742  1.00 57.14 LIG 0.28  HD
ATOM     19 H1   HIS X  -1      -6.540  -2.982  20.320  1.00 57.14 LIG 0.28  HD
ENDBRANCH 15 16
BRANCH 15 20
ATOM     20  CB  HIS X  -1      -4.905  -4.851  20.383  1.00 57.27 LIG 0.10  C 
BRANCH 20 21
ATOM     21  CG  HIS X  -1      -3.863  -5.369  19.445  1.00 54.13 LIG 0.06  A 
ATOM     22 ND1  HIS X  -1      -2.536  -5.486  19.799  1.00 52.72 LIG-0.24  NA
ATOM     23  CE1 HIS X  -1      -1.849  -5.951  18.770  1.00 54.35 LIG 0.23  A 
ATOM     24 NE2  HIS X  -1      -2.682  -6.139  17.760  1.00 53.65 LIG-0.25  NA
ATOM     25  CD2 HIS X  -1      -3.950  -5.784  18.158  1.00 55.23 LIG 0.14  A 
ENDBRANCH 20 21
ENDBRANCH 15 20
ENDBRANCH 12 15
ENDBRANCH 10 11
BRANCH 10 26
ATOM     26  CB  HIS X   0      -1.393  -0.373  20.869  1.00 64.99 LIG 0.10  C 
BRANCH 26 27
ATOM     27  CG  HIS X   0      -2.571   0.537  21.071  1.00 69.41 LIG 0.06  A 
ATOM     28 ND1  HIS X   0      -3.861   0.170  20.745  1.00 72.01 LIG-0.24  NA
ATOM     29  CE1 HIS X   0      -4.687   1.160  21.036  1.00 72.69 LIG 0.23  A 
ATOM     30 NE2  HIS X   0      -3.981   2.155  21.544  1.00 72.94 LIG-0.25  NA
ATOM     31  CD2 HIS X   0      -2.655   1.789  21.581  1.00 71.12 LIG 0.14  A 
ENDBRANCH 26 27
ENDBRANCH 10 26
ENDBRANCH 8 10
ENDBRANCH 5 6
BRANCH 5 32
ATOM     32  CB  HIS X   1       0.574  -2.878  16.066  1.00 48.25 LIG 0.10  C 
BRANCH 32 33
ATOM     33  CG  HIS X   1      -0.921  -2.956  16.026  1.00 50.36 LIG 0.06  A 
ATOM     34  CD2 HIS X   1      -1.751  -4.012  15.843  1.00 51.47 LIG 0.14  A 
ATOM     35 NE2  HIS X   1      -3.037  -3.531  15.906  1.00 50.72 LIG-0.25  NA
ATOM     36  CE1 HIS X   1      -2.996  -2.228  16.121  1.00 48.50 LIG 0.23  A 
ATOM     37 ND1  HIS X   1      -1.732  -1.853  16.196  1.00 47.89 LIG-0.24  NA
ENDBRANCH 32 33
ENDBRANCH 5 32
ENDBRANCH 1 5
BRANCH 3 38
ATOM     38  CA  HIS X   2       2.438   1.263  16.674  1.00 26.25 LIG 0.18  C 
BRANCH 38 39
ATOM     39  C   HIS X   2       2.626   2.212  17.854  1.00 23.72 LIG 0.24  C 
ATOM     40  N   HIS X   3       3.206   1.656  18.905  1.00 22.33 LIG-0.35  N 
ATOM     41 H    HIS X   3       3.444   0.830  18.939  1.00 22.33 LIG 0.16  HD
ATOM     42 O    HIS X   2       2.251   3.393  17.824  1.00 19.88 LIG-0.27  OA
BRANCH 40 43
ATOM     43  CA  HIS X   3       3.498   2.419  20.130  1.00 22.38 LIG 0.18  C 
BRANCH 43 44
ATOM     44  CB  HIS X   3       4.234   3.768  19.858  1.00 22.51 LIG 0.10  C 
BRANCH 44 45
ATOM     45  CG  HIS X   3       5.286   3.725  18.785  1.00 18.10 LIG 0.06  A 
ATOM     46  CD2 HIS X   3       6.343   2.896  18.595  1.00 18.75 LIG 0.14  A 
ATOM     47 NE2  HIS X   3       6.953   3.279  17.421  1.00 20.06 LIG-0.25  NA
ATOM     48  CE1 HIS X   3       6.285   4.293  16.904  1.00 21.69 LIG 0.23  A 
ATOM     49 ND1  HIS X   3       5.267   4.569  17.701  1.00 17.48 LIG-0.24  NA
ENDBRANCH 44 45
ENDBRANCH 43 44
BRANCH 43 50
ATOM     50  C   HIS X   3       2.243   2.597  20.984  1.00 21.59 LIG 0.24  C 
ATOM     51 O    HIS X   3       1.990   1.859  21.929  1.00 25.47 LIG-0.27  OA
ATOM     52  N   HIS X   4       1.432   3.556  20.591  1.00 25.63 LIG-0.35  N 
ATOM     53 H    HIS X   4       1.576   4.065  19.913  1.00 25.63 LIG 0.16  HD
BRANCH 52 54
ATOM     54  CA  HIS X   4       0.184   3.831  21.310  1.00 23.96 LIG 0.17  C 
BRANCH 54 55
ATOM     55  C   HIS X   4      -0.821   4.427  20.319  1.00 31.35 LIG 0.22  C 
ATOM     56 O    HIS X   4      -1.015   5.642  20.258  1.00 37.06 LIG-0.29  OA
ENDBRANCH 54 55
BRANCH 54 57
ATOM     57  CB  HIS X   4       0.408   4.764  22.506  1.00 23.83 LIG 0.09  C 
BRANCH 57 58
ATOM     58  CG  HIS X   4       1.717   5.507  22.466  1.00 22.57 LIG 0.06  A 
ATOM     59 ND1  HIS X   4       1.867   6.742  21.862  1.00 22.63 LIG-0.24  NA
ATOM     60  CE1 HIS X   4       3.121   7.144  21.992  1.00 19.94 LIG 0.23  A 
ATOM     61 NE2  HIS X   4       3.792   6.211  22.640  1.00 20.25 LIG-0.25  NA
ATOM     62  CD2 HIS X   4       2.935   5.185  22.960  1.00 21.52 LIG 0.14  A 
ENDBRANCH 57 58
ENDBRANCH 54 57
ENDBRANCH 52 54
ENDBRANCH 43 50
ENDBRANCH 40 43
ENDBRANCH 38 39
BRANCH 38 63
ATOM     63  CB  HIS X   2       1.794   2.022  15.508  1.00 28.74 LIG 0.10  C 
BRANCH 63 64
ATOM     64  CG  HIS X   2       2.603   3.181  15.026  1.00 28.63 LIG 0.06  A 
ATOM     65 ND1  HIS X   2       3.924   3.056  14.668  1.00 31.27 LIG-0.24  NA
ATOM     66  CE1 HIS X   2       4.382   4.227  14.266  1.00 28.11 LIG 0.23  A 
ATOM     67 NE2  HIS X   2       3.408   5.112  14.360  1.00 29.87 LIG-0.25  NA
ATOM     68  CD2 HIS X   2       2.279   4.480  14.826  1.00 31.84 LIG 0.14  A 
ENDBRANCH 63 64
ENDBRANCH 38 63
ENDBRANCH 3 38
TORSDOF 24
ENDMDL
MODEL 44
USER: ADFR SOLUTION from run 27
USER: SCORE 19.129118 LL:  -6.030 LR: -13.832 RR:   0.000 FEB:  -6.672
USER: RMSD 7.738088
USER: SEED 26
USER: STATUS searching
USER: GENES 26
USER: genes 0 Translation |==|  0.47779 0.51265 0.38881
USER: genes 1 Rotation |==|  0.48667 0.88273 0.65951 0.77911
USER: genes 2 Torsion [N]-C--CA-[N] |==|  0.42698
USER: genes 3 Torsion [C]-CA--N-[C] |==|  0.83599
USER: genes 4 Torsion [N]-C--CA-[N] |==|  0.47727
USER: genes 5 Torsion [C]-CA--N-[C] |==|  0.67796
USER: genes 6 Torsion [N]-C--CA-[N] |==|  0.51378
USER: genes 7 Torsion [C]-CA--N-[H2] |==|  0.63527
USER: genes 8 Torsion [C]-CA--CB-[CG] |==|  0.82895
USER: genes 9 Torsion [CA]-CB--CG-[ND1] |==|  0.75715
USER: genes 10 Torsion [C]-CA--CB-[CG] |==|  0.43847
USER: genes 11 Torsion [CA]-CB--CG-[CD2] |==|  0.55695
USER: genes 12 Torsion [C]-CA--CB-[CG] |==|  0.49598
USER: genes 13 Torsion [CA]-CB--CG-[CD2] |==|  0.40973
USER: genes 14 Torsion [C]-N--CA-[C] |==|  0.82031
USER: genes 15 Torsion [N]-CA--C-[N] |==|  0.31040
USER: genes 16 Torsion [C]-N--CA-[CB] |==|  0.85000
USER: genes 17 Torsion [N]-CA--CB-[CG] |==|  0.29840
USER: genes 18 Torsion [CA]-CB--CG-[ND1] |==|  0.71982
USER: genes 19 Torsion [N]-CA--C-[N] |==|  0.92607
USER: genes 20 Torsion [C]-N--CA-[C] |==|  0.14153
USER: genes 21 Torsion [N]-CA--C-[O] |==|  0.22453
USER: genes 22 Torsion [N]-CA--CB-[CG] |==|  0.69422
USER: genes 23 Torsion [CA]-CB--CG-[ND1] |==|  0.79661
USER: genes 24 Torsion [N]-CA--CB-[CG] |==|  0.77485
USER: genes 25 Torsion [CA]-CB--CG-[CD2] |==|  0.04451
ROOT
ATOM      1  C   HIS X   1       2.180   0.322  17.569  1.00 40.87 LIG 0.24  C 
ATOM      2 O    HIS X   1       2.764  -0.017  18.602  1.00 40.80 LIG-0.27  OA
ATOM      3  N   HIS X   2       1.619  -0.514  16.717  1.00 30.16 LIG-0.35  N 
ATOM      4 H    HIS X   2       1.232  -0.260  15.992  1.00 30.16 LIG 0.16  HD
ENDROOT
BRANCH 1 5
ATOM      5  CA  HIS X   1       2.032   1.771  17.158  1.00 48.06 LIG 0.18  C 
BRANCH 5 6
ATOM      6  N   HIS X   1       2.082   2.625  18.348  1.00 54.11 LIG-0.35  N 
ATOM      7 H    HIS X   1       2.716   3.206  18.334  1.00 54.11 LIG 0.16  HD
ATOM      8  C   HIS X   0       1.228   2.505  19.343  1.00 58.54 LIG 0.24  C 
ATOM      9 O    HIS X   0       0.470   1.544  19.487  1.00 63.37 LIG-0.27  OA
BRANCH 8 10
ATOM     10  CA  HIS X   0       1.251   3.669  20.320  1.00 62.53 LIG 0.18  C 
BRANCH 10 11
ATOM     11  N   HIS X   0       0.162   3.596  21.302  1.00 60.73 LIG-0.35  N 
ATOM     12  C   HIS X  -1      -0.784   4.520  21.341  1.00 60.09 LIG 0.25  C 
ATOM     13 O    HIS X  -1      -1.106   5.206  20.368  1.00 62.79 LIG-0.27  OA
ATOM     14 H    HIS X   0       0.200   2.918  21.829  1.00 60.73 LIG 0.16  HD
BRANCH 12 15
ATOM     15  CA  HIS X  -1      -1.493   4.655  22.683  1.00 59.53 LIG 0.28  C 
BRANCH 15 16
ATOM     16  N   HIS X  -1      -2.619   5.642  22.569  1.00 57.14 LIG-0.07  N 
ATOM     17 H3   HIS X  -1      -2.555   6.078  21.795  1.00 57.14 LIG 0.28  HD
ATOM     18 H2   HIS X  -1      -2.573   6.225  23.241  1.00 57.14 LIG 0.28  HD
ATOM     19 H1   HIS X  -1      -3.397   5.211  22.603  1.00 57.14 LIG 0.28  HD
ENDBRANCH 15 16
BRANCH 15 20
ATOM     20  CB  HIS X  -1      -2.010   3.303  23.175  1.00 57.27 LIG 0.10  C 
BRANCH 20 21
ATOM     21  CG  HIS X  -1      -3.017   2.675  22.267  1.00 54.13 LIG 0.06  A 
ATOM     22 ND1  HIS X  -1      -4.367   2.938  22.357  1.00 52.72 LIG-0.24  NA
ATOM     23  CE1 HIS X  -1      -5.012   2.232  21.445  1.00 54.35 LIG 0.23  A 
ATOM     24 NE2  HIS X  -1      -4.130   1.518  20.766  1.00 53.65 LIG-0.25  NA
ATOM     25  CD2 HIS X  -1      -2.873   1.779  21.260  1.00 55.23 LIG 0.14  A 
ENDBRANCH 20 21
ENDBRANCH 15 20
ENDBRANCH 12 15
ENDBRANCH 10 11
BRANCH 10 26
ATOM     26  CB  HIS X   0       2.632   3.755  21.006  1.00 64.99 LIG 0.10  C 
BRANCH 26 27
ATOM     27  CG  HIS X   0       2.957   5.110  21.566  1.00 69.41 LIG 0.06  A 
ATOM     28 ND1  HIS X   0       1.986   6.044  21.871  1.00 72.01 LIG-0.24  NA
ATOM     29  CE1 HIS X   0       2.560   7.134  22.352  1.00 72.69 LIG 0.23  A 
ATOM     30 NE2  HIS X   0       3.867   6.940  22.375  1.00 72.94 LIG-0.25  NA
ATOM     31  CD2 HIS X   0       4.141   5.681  21.893  1.00 71.12 LIG 0.14  A 
ENDBRANCH 26 27
ENDBRANCH 10 26
ENDBRANCH 8 10
ENDBRANCH 5 6
BRANCH 5 32
ATOM     32  CB  HIS X   1       3.140   2.158  16.181  1.00 48.25 LIG 0.10  C 
BRANCH 32 33
ATOM     33  CG  HIS X   1       3.048   3.572  15.696  1.00 50.36 LIG 0.06  A 
ATOM     34  CD2 HIS X   1       4.014   4.457  15.349  1.00 51.47 LIG 0.14  A 
ATOM     35 NE2  HIS X   1       3.381   5.615  14.964  1.00 50.72 LIG-0.25  NA
ATOM     36  CE1 HIS X   1       2.074   5.445  15.071  1.00 48.50 LIG 0.23  A 
ATOM     37 ND1  HIS X   1       1.845   4.222  15.512  1.00 47.89 LIG-0.24  NA
ENDBRANCH 32 33
ENDBRANCH 5 32
ENDBRANCH 1 5
BRANCH 3 38
ATOM     38  CA  HIS X   2       1.598  -1.979  16.924  1.00 26.25 LIG 0.18  C 
BRANCH 38 39
ATOM     39  C   HIS X   2       2.991  -2.601  16.900  1.00 23.72 LIG 0.24  C 
ATOM     40  N   HIS X   3       3.393  -3.069  18.070  1.00 22.33 LIG-0.35  N 
ATOM     41 H    HIS X   3       2.927  -3.018  18.791  1.00 22.33 LIG 0.16  HD
ATOM     42 O    HIS X   2       3.682  -2.643  15.871  1.00 19.88 LIG-0.27  OA
BRANCH 40 43
ATOM     43  CA  HIS X   3       4.697  -3.730  18.240  1.00 22.38 LIG 0.18  C 
BRANCH 43 44
ATOM     44  CB  HIS X   3       4.924  -4.916  17.252  1.00 22.51 LIG 0.10  C 
BRANCH 44 45
ATOM     45  CG  HIS X   3       5.909  -4.658  16.147  1.00 18.10 LIG 0.06  A 
ATOM     46  CD2 HIS X   3       7.263  -4.734  16.113  1.00 18.75 LIG 0.14  A 
ATOM     47 NE2  HIS X   3       7.655  -4.436  14.829  1.00 20.06 LIG-0.25  NA
ATOM     48  CE1 HIS X   3       6.581  -4.200  14.098  1.00 21.69 LIG 0.23  A 
ATOM     49 ND1  HIS X   3       5.515  -4.343  14.869  1.00 17.48 LIG-0.24  NA
ENDBRANCH 44 45
ENDBRANCH 43 44
BRANCH 43 50
ATOM     50  C   HIS X   3       5.840  -2.716  18.212  1.00 21.59 LIG 0.24  C 
ATOM     51 O    HIS X   3       6.885  -2.895  18.827  1.00 25.47 LIG-0.27  OA
ATOM     52  N   HIS X   4       5.593  -1.616  17.531  1.00 25.63 LIG-0.35  N 
ATOM     53 H    HIS X   4       4.856  -1.457  17.118  1.00 25.63 LIG 0.16  HD
BRANCH 52 54
ATOM     54  CA  HIS X   4       6.595  -0.551  17.430  1.00 23.96 LIG 0.17  C 
BRANCH 54 55
ATOM     55  C   HIS X   4       7.919  -1.176  16.978  1.00 31.35 LIG 0.22  C 
ATOM     56 O    HIS X   4       8.134  -1.433  15.792  1.00 37.06 LIG-0.29  OA
ENDBRANCH 54 55
BRANCH 54 57
ATOM     57  CB  HIS X   4       6.759   0.208  18.753  1.00 23.83 LIG 0.09  C 
BRANCH 57 58
ATOM     58  CG  HIS X   4       6.232   1.618  18.719  1.00 22.57 LIG 0.06  A 
ATOM     59 ND1  HIS X   4       6.869   2.647  18.052  1.00 22.63 LIG-0.24  NA
ATOM     60  CE1 HIS X   4       6.171   3.761  18.195  1.00 19.94 LIG 0.23  A 
ATOM     61 NE2  HIS X   4       5.116   3.498  18.943  1.00 20.25 LIG-0.25  NA
ATOM     62  CD2 HIS X   4       5.124   2.163  19.271  1.00 21.52 LIG 0.14  A 
ENDBRANCH 57 58
ENDBRANCH 54 57
ENDBRANCH 52 54
ENDBRANCH 43 50
ENDBRANCH 40 43
ENDBRANCH 38 39
BRANCH 38 63
ATOM     63  CB  HIS X   2       0.716  -2.667  15.875  1.00 28.74 LIG 0.10  C 
BRANCH 63 64
ATOM     64  CG  HIS X   2      -0.742  -2.617  16.190  1.00 28.63 LIG 0.06  A 
ATOM     65 ND1  HIS X   2      -1.654  -3.446  15.581  1.00 31.27 LIG-0.24  NA
ATOM     66  CE1 HIS X   2      -2.860  -3.199  16.059  1.00 28.11 LIG 0.23  A 
ATOM     67 NE2  HIS X   2      -2.766  -2.232  16.951  1.00 29.87 LIG-0.25  NA
ATOM     68  CD2 HIS X   2      -1.447  -1.854  17.059  1.00 31.84 LIG 0.14  A 
ENDBRANCH 63 64
ENDBRANCH 38 63
ENDBRANCH 3 38
TORSDOF 24
ENDMDL
MODEL 45
USER: ADFR SOLUTION from run 150
USER: SCORE 18.961389 LL:  -5.596 LR: -13.805 RR:   0.000 FEB:  -6.645
USER: RMSD 7.801181
USER: SEED 149
USER: STATUS no improvement in best in 4 clusters for 5 generations
USER: GENES 26
USER: genes 0 Translation |==|  0.42354 0.60106 0.49419
USER: genes 1 Rotation |==|  0.60481 0.65256 0.71868 0.90978
USER: genes 2 Torsion [N]-C--CA-[N] |==|  0.40356
USER: genes 3 Torsion [C]-CA--N-[C] |==|  0.71793
USER: genes 4 Torsion [N]-C--CA-[N] |==|  0.48728
USER: genes 5 Torsion [C]-CA--N-[C] |==|  0.56209
USER: genes 6 Torsion [N]-C--CA-[N] |==|  0.16665
USER: genes 7 Torsion [C]-CA--N-[H2] |==|  0.28164
USER: genes 8 Torsion [C]-CA--CB-[CG] |==|  0.21208
USER: genes 9 Torsion [CA]-CB--CG-[ND1] |==|  0.20948
USER: genes 10 Torsion [C]-CA--CB-[CG] |==|  0.82101
USER: genes 11 Torsion [CA]-CB--CG-[CD2] |==|  0.26536
USER: genes 12 Torsion [C]-CA--CB-[CG] |==|  0.45778
USER: genes 13 Torsion [CA]-CB--CG-[CD2] |==|  0.56085
USER: genes 14 Torsion [C]-N--CA-[C] |==|  0.83547
USER: genes 15 Torsion [N]-CA--C-[N] |==|  0.37082
USER: genes 16 Torsion [C]-N--CA-[CB] |==|  0.17546
USER: genes 17 Torsion [N]-CA--CB-[CG] |==|  0.10448
USER: genes 18 Torsion [CA]-CB--CG-[ND1] |==|  0.61470
USER: genes 19 Torsion [N]-CA--C-[N] |==|  0.08858
USER: genes 20 Torsion [C]-N--CA-[C] |==|  0.67800
USER: genes 21 Torsion [N]-CA--C-[O] |==|  0.16484
USER: genes 22 Torsion [N]-CA--CB-[CG] |==|  0.81953
USER: genes 23 Torsion [CA]-CB--CG-[ND1] |==|  0.35864
USER: genes 24 Torsion [N]-CA--CB-[CG] |==|  0.06397
USER: genes 25 Torsion [CA]-CB--CG-[CD2] |==|  0.64930
ROOT
ATOM      1  C   HIS X   1       1.082   2.443  19.465  1.00 40.87 LIG 0.24  C 
ATOM      2 O    HIS X   1       0.660   1.382  19.935  1.00 40.80 LIG-0.27  OA
ATOM      3  N   HIS X   2       1.353   2.644  18.191  1.00 30.16 LIG-0.35  N 
ATOM      4 H    HIS X   2       1.664   3.385  17.885  1.00 30.16 LIG 0.16  HD
ENDROOT
BRANCH 1 5
ATOM      5  CA  HIS X   1       1.332   3.667  20.321  1.00 48.06 LIG 0.18  C 
BRANCH 5 6
ATOM      6  N   HIS X   1       0.339   3.724  21.397  1.00 54.11 LIG-0.35  N 
ATOM      7 H    HIS X   1       0.504   3.193  22.053  1.00 54.11 LIG 0.16  HD
ATOM      8  C   HIS X   0      -0.709   4.520  21.354  1.00 58.54 LIG 0.24  C 
ATOM      9 O    HIS X   0      -1.084   5.109  20.338  1.00 63.37 LIG-0.27  OA
BRANCH 8 10
ATOM     10  CA  HIS X   0      -1.434   4.659  22.682  1.00 62.53 LIG 0.18  C 
BRANCH 10 11
ATOM     11  N   HIS X   0      -2.529   5.635  22.621  1.00 60.73 LIG-0.35  N 
ATOM     12  C   HIS X  -1      -2.984   6.219  23.718  1.00 60.09 LIG 0.25  C 
ATOM     13 O    HIS X  -1      -2.310   6.368  24.740  1.00 62.79 LIG-0.27  OA
ATOM     14 H    HIS X   0      -2.834   5.784  21.831  1.00 60.73 LIG 0.16  HD
BRANCH 12 15
ATOM     15  CA  HIS X  -1      -4.413   6.741  23.620  1.00 59.53 LIG 0.28  C 
BRANCH 15 16
ATOM     16  N   HIS X  -1      -5.351   5.607  23.320  1.00 57.14 LIG-0.07  N 
ATOM     17 H3   HIS X  -1      -5.954   5.872  22.720  1.00 57.14 LIG 0.28  HD
ATOM     18 H2   HIS X  -1      -5.767   5.360  24.067  1.00 57.14 LIG 0.28  HD
ATOM     19 H1   HIS X  -1      -4.891   4.919  22.994  1.00 57.14 LIG 0.28  HD
ENDBRANCH 15 16
BRANCH 15 20
ATOM     20  CB  HIS X  -1      -4.829   7.458  24.905  1.00 57.27 LIG 0.10  C 
BRANCH 20 21
ATOM     21  CG  HIS X  -1      -4.250   8.829  25.046  1.00 54.13 LIG 0.06  A 
ATOM     22 ND1  HIS X  -1      -4.717   9.911  24.331  1.00 52.72 LIG-0.24  NA
ATOM     23  CE1 HIS X  -1      -4.007  10.981  24.645  1.00 54.35 LIG 0.23  A 
ATOM     24 NE2  HIS X  -1      -3.096  10.633  25.538  1.00 53.65 LIG-0.25  NA
ATOM     25  CD2 HIS X  -1      -3.228   9.290  25.807  1.00 55.23 LIG 0.14  A 
ENDBRANCH 20 21
ENDBRANCH 15 20
ENDBRANCH 12 15
ENDBRANCH 10 11
BRANCH 10 26
ATOM     26  CB  HIS X   0      -1.928   3.277  23.161  1.00 64.99 LIG 0.10  C 
BRANCH 26 27
ATOM     27  CG  HIS X   0      -2.960   2.650  22.268  1.00 69.41 LIG 0.06  A 
ATOM     28 ND1  HIS X   0      -4.304   2.953  22.353  1.00 72.01 LIG-0.24  NA
ATOM     29  CE1 HIS X   0      -4.970   2.261  21.445  1.00 72.69 LIG 0.23  A 
ATOM     30 NE2  HIS X   0      -4.107   1.523  20.770  1.00 72.94 LIG-0.25  NA
ATOM     31  CD2 HIS X   0      -2.842   1.750  21.262  1.00 71.12 LIG 0.14  A 
ENDBRANCH 26 27
ENDBRANCH 10 26
ENDBRANCH 8 10
ENDBRANCH 5 6
BRANCH 5 32
ATOM     32  CB  HIS X   1       2.743   3.623  20.904  1.00 48.25 LIG 0.10  C 
BRANCH 32 33
ATOM     33  CG  HIS X   1       3.206   4.936  21.456  1.00 50.36 LIG 0.06  A 
ATOM     34  CD2 HIS X   1       4.454   5.413  21.685  1.00 51.47 LIG 0.14  A 
ATOM     35 NE2  HIS X   1       4.315   6.682  22.194  1.00 50.72 LIG-0.25  NA
ATOM     36  CE1 HIS X   1       3.028   6.973  22.272  1.00 48.50 LIG 0.23  A 
ATOM     37 ND1  HIS X   1       2.336   5.937  21.836  1.00 47.89 LIG-0.24  NA
ENDBRANCH 32 33
ENDBRANCH 5 32
ENDBRANCH 1 5
BRANCH 3 38
ATOM     38  CA  HIS X   2       1.149   1.607  17.153  1.00 26.25 LIG 0.18  C 
BRANCH 38 39
ATOM     39  C   HIS X   2       1.954   0.338  17.418  1.00 23.72 LIG 0.24  C 
ATOM     40  N   HIS X   3       1.259  -0.779  17.279  1.00 22.33 LIG-0.35  N 
ATOM     41 H    HIS X   3       0.424  -0.800  17.074  1.00 22.33 LIG 0.16  HD
ATOM     42 O    HIS X   2       3.148   0.365  17.749  1.00 19.88 LIG-0.27  OA
BRANCH 40 43
ATOM     43  CA  HIS X   3       1.869  -2.106  17.465  1.00 22.38 LIG 0.18  C 
BRANCH 43 44
ATOM     44  CB  HIS X   3       2.389  -2.350  18.916  1.00 22.51 LIG 0.10  C 
BRANCH 44 45
ATOM     45  CG  HIS X   3       1.536  -1.777  20.013  1.00 18.10 LIG 0.06  A 
ATOM     46  CD2 HIS X   3       0.194  -1.796  20.212  1.00 18.75 LIG 0.14  A 
ATOM     47 NE2  HIS X   3      -0.049  -1.158  21.406  1.00 20.06 LIG-0.25  NA
ATOM     48  CE1 HIS X   3       1.102  -0.775  21.928  1.00 21.69 LIG 0.23  A 
ATOM     49 ND1  HIS X   3       2.073  -1.151  21.112  1.00 17.48 LIG-0.24  NA
ENDBRANCH 44 45
ENDBRANCH 43 44
BRANCH 43 50
ATOM     50  C   HIS X   3       0.937  -3.216  16.981  1.00 21.59 LIG 0.24  C 
ATOM     51 O    HIS X   3       0.957  -4.340  17.469  1.00 25.47 LIG-0.27  OA
ATOM     52  N   HIS X   4       0.162  -2.892  15.967  1.00 25.63 LIG-0.35  N 
ATOM     53 H    HIS X   4       0.154  -2.119  15.591  1.00 25.63 LIG 0.16  HD
BRANCH 52 54
ATOM     54  CA  HIS X   4      -0.773  -3.863  15.392  1.00 23.96 LIG 0.17  C 
BRANCH 54 55
ATOM     55  C   HIS X   4      -0.349  -4.144  13.947  1.00 31.35 LIG 0.22  C 
ATOM     56 O    HIS X   4       0.767  -4.598  13.685  1.00 37.06 LIG-0.29  OA
ENDBRANCH 54 55
BRANCH 54 57
ATOM     57  CB  HIS X   4      -2.224  -3.369  15.461  1.00 23.83 LIG 0.09  C 
BRANCH 57 58
ATOM     58  CG  HIS X   4      -2.753  -3.218  16.862  1.00 22.57 LIG 0.06  A 
ATOM     59 ND1  HIS X   4      -3.370  -2.067  17.316  1.00 22.63 LIG-0.24  NA
ATOM     60  CE1 HIS X   4      -3.731  -2.232  18.578  1.00 19.94 LIG 0.23  A 
ATOM     61 NE2  HIS X   4      -3.358  -3.437  18.964  1.00 20.25 LIG-0.25  NA
ATOM     62  CD2 HIS X   4      -2.757  -4.078  17.906  1.00 21.52 LIG 0.14  A 
ENDBRANCH 57 58
ENDBRANCH 54 57
ENDBRANCH 52 54
ENDBRANCH 43 50
ENDBRANCH 40 43
ENDBRANCH 38 39
BRANCH 38 63
ATOM     63  CB  HIS X   2       1.498   2.150  15.763  1.00 28.74 LIG 0.10  C 
BRANCH 63 64
ATOM     64  CG  HIS X   2       2.434   3.312  15.789  1.00 28.63 LIG 0.06  A 
ATOM     65 ND1  HIS X   2       3.651   3.261  16.425  1.00 31.27 LIG-0.24  NA
ATOM     66  CE1 HIS X   2       4.275   4.415  16.275  1.00 28.11 LIG 0.23  A 
ATOM     67 NE2  HIS X   2       3.502   5.219  15.571  1.00 29.87 LIG-0.25  NA
ATOM     68  CD2 HIS X   2       2.345   4.550  15.246  1.00 31.84 LIG 0.14  A 
ENDBRANCH 63 64
ENDBRANCH 38 63
ENDBRANCH 3 38
TORSDOF 24
ENDMDL
MODEL 46
USER: ADFR SOLUTION from run 40
USER: SCORE 18.566458 LL:  -6.265 LR: -13.731 RR:   0.000 FEB:  -6.572
USER: RMSD 10.894923
USER: SEED 39
USER: STATUS no improvement in best in 4 clusters for 5 generations
USER: GENES 26
USER: genes 0 Translation |==|  0.41417 0.46218 0.34751
USER: genes 1 Rotation |==|  0.58680 0.33650 0.93384 0.66588
USER: genes 2 Torsion [N]-C--CA-[N] |==|  0.38967
USER: genes 3 Torsion [C]-CA--N-[C] |==|  0.58619
USER: genes 4 Torsion [N]-C--CA-[N] |==|  0.03285
USER: genes 5 Torsion [C]-CA--N-[C] |==|  0.75201
USER: genes 6 Torsion [N]-C--CA-[N] |==|  0.46492
USER: genes 7 Torsion [C]-CA--N-[H2] |==|  0.00200
USER: genes 8 Torsion [C]-CA--CB-[CG] |==|  0.80131
USER: genes 9 Torsion [CA]-CB--CG-[ND1] |==|  0.77556
USER: genes 10 Torsion [C]-CA--CB-[CG] |==|  0.49082
USER: genes 11 Torsion [CA]-CB--CG-[CD2] |==|  0.52858
USER: genes 12 Torsion [C]-CA--CB-[CG] |==|  0.71524
USER: genes 13 Torsion [CA]-CB--CG-[CD2] |==|  0.75069
USER: genes 14 Torsion [C]-N--CA-[C] |==|  0.70982
USER: genes 15 Torsion [N]-CA--C-[N] |==|  0.87747
USER: genes 16 Torsion [C]-N--CA-[CB] |==|  0.16111
USER: genes 17 Torsion [N]-CA--CB-[CG] |==|  0.46506
USER: genes 18 Torsion [CA]-CB--CG-[ND1] |==|  0.58510
USER: genes 19 Torsion [N]-CA--C-[N] |==|  0.86189
USER: genes 20 Torsion [C]-N--CA-[C] |==|  0.48951
USER: genes 21 Torsion [N]-CA--C-[O] |==|  0.03791
USER: genes 22 Torsion [N]-CA--CB-[CG] |==|  0.18118
USER: genes 23 Torsion [CA]-CB--CG-[ND1] |==|  0.95437
USER: genes 24 Torsion [N]-CA--CB-[CG] |==|  0.51121
USER: genes 25 Torsion [CA]-CB--CG-[CD2] |==|  0.59730
ROOT
ATOM      1  C   HIS X   1       0.892  -0.890  16.825  1.00 40.87 LIG 0.24  C 
ATOM      2 O    HIS X   1       1.805  -1.533  16.299  1.00 40.80 LIG-0.27  OA
ATOM      3  N   HIS X   2       0.905   0.416  17.011  1.00 30.16 LIG-0.35  N 
ATOM      4 H    HIS X   2       0.267   0.844  17.396  1.00 30.16 LIG 0.16  HD
ENDROOT
BRANCH 1 5
ATOM      5  CA  HIS X   1      -0.381  -1.543  17.321  1.00 48.06 LIG 0.18  C 
BRANCH 5 6
ATOM      6  N   HIS X   1      -0.795  -2.585  16.378  1.00 54.11 LIG-0.35  N 
ATOM      7 H    HIS X   1      -0.142  -2.968  15.970  1.00 54.11 LIG 0.16  HD
ATOM      8  C   HIS X   0      -2.059  -2.901  16.179  1.00 58.54 LIG 0.24  C 
ATOM      9 O    HIS X   0      -3.007  -2.218  16.572  1.00 63.37 LIG-0.27  OA
BRANCH 8 10
ATOM     10  CA  HIS X   0      -2.258  -4.198  15.413  1.00 62.53 LIG 0.18  C 
BRANCH 10 11
ATOM     11  N   HIS X   0      -1.017  -4.972  15.293  1.00 60.73 LIG-0.35  N 
ATOM     12  C   HIS X  -1      -0.193  -4.786  14.274  1.00 60.09 LIG 0.25  C 
ATOM     13 O    HIS X  -1      -0.126  -3.732  13.637  1.00 62.79 LIG-0.27  OA
ATOM     14 H    HIS X   0      -0.884  -5.537  15.926  1.00 60.73 LIG 0.16  HD
BRANCH 12 15
ATOM     15  CA  HIS X  -1       0.713  -5.970  13.958  1.00 59.53 LIG 0.28  C 
BRANCH 15 16
ATOM     16  N   HIS X  -1       1.369  -5.768  12.622  1.00 57.14 LIG-0.07  N 
ATOM     17 H3   HIS X  -1       2.253  -5.766  12.723  1.00 57.14 LIG 0.28  HD
ATOM     18 H2   HIS X  -1       1.109  -4.989  12.277  1.00 57.14 LIG 0.28  HD
ATOM     19 H1   HIS X  -1       1.134  -6.429  12.073  1.00 57.14 LIG 0.28  HD
ENDBRANCH 15 16
BRANCH 15 20
ATOM     20  CB  HIS X  -1       1.765  -6.168  15.050  1.00 57.27 LIG 0.10  C 
BRANCH 20 21
ATOM     21  CG  HIS X  -1       2.828  -5.119  15.062  1.00 54.13 LIG 0.06  A 
ATOM     22 ND1  HIS X  -1       3.906  -5.143  14.202  1.00 52.72 LIG-0.24  NA
ATOM     23  CE1 HIS X  -1       4.688  -4.106  14.453  1.00 54.35 LIG 0.23  A 
ATOM     24 NE2  HIS X  -1       4.157  -3.411  15.445  1.00 53.65 LIG-0.25  NA
ATOM     25  CD2 HIS X  -1       2.991  -4.024  15.842  1.00 55.23 LIG 0.14  A 
ENDBRANCH 20 21
ENDBRANCH 15 20
ENDBRANCH 12 15
ENDBRANCH 10 11
BRANCH 10 26
ATOM     26  CB  HIS X   0      -3.387  -5.027  16.064  1.00 64.99 LIG 0.10  C 
BRANCH 26 27
ATOM     27  CG  HIS X   0      -3.717  -6.297  15.334  1.00 69.41 LIG 0.06  A 
ATOM     28 ND1  HIS X   0      -2.926  -6.801  14.320  1.00 72.01 LIG-0.24  NA
ATOM     29  CE1 HIS X   0      -3.454  -7.927  13.870  1.00 72.69 LIG 0.23  A 
ATOM     30 NE2  HIS X   0      -4.555  -8.174  14.557  1.00 72.94 LIG-0.25  NA
ATOM     31  CD2 HIS X   0      -4.740  -7.172  15.482  1.00 71.12 LIG 0.14  A 
ENDBRANCH 26 27
ENDBRANCH 10 26
ENDBRANCH 8 10
ENDBRANCH 5 6
BRANCH 5 32
ATOM     32  CB  HIS X   1      -0.161  -2.141  18.708  1.00 48.25 LIG 0.10  C 
BRANCH 32 33
ATOM     33  CG  HIS X   1       0.020  -3.627  18.701  1.00 50.36 LIG 0.06  A 
ATOM     34  CD2 HIS X   1      -0.883  -4.633  18.799  1.00 51.47 LIG 0.14  A 
ATOM     35 NE2  HIS X   1      -0.183  -5.814  18.726  1.00 50.72 LIG-0.25  NA
ATOM     36  CE1 HIS X   1       1.103  -5.541  18.588  1.00 48.50 LIG 0.23  A 
ATOM     37 ND1  HIS X   1       1.255  -4.230  18.571  1.00 47.89 LIG-0.24  NA
ENDBRANCH 32 33
ENDBRANCH 5 32
ENDBRANCH 1 5
BRANCH 3 38
ATOM     38  CA  HIS X   2       2.026   1.278  16.572  1.00 26.25 LIG 0.18  C 
BRANCH 38 39
ATOM     39  C   HIS X   2       2.915   1.727  17.727  1.00 23.72 LIG 0.24  C 
ATOM     40  N   HIS X   3       2.248   2.125  18.798  1.00 22.33 LIG-0.35  N 
ATOM     41 H    HIS X   3       1.390   2.150  18.845  1.00 22.33 LIG 0.16  HD
ATOM     42 O    HIS X   2       4.153   1.729  17.652  1.00 19.88 LIG-0.27  OA
BRANCH 40 43
ATOM     43  CA  HIS X   3       2.932   2.569  20.024  1.00 22.38 LIG 0.18  C 
BRANCH 43 44
ATOM     44  CB  HIS X   3       3.902   3.769  19.792  1.00 22.51 LIG 0.10  C 
BRANCH 44 45
ATOM     45  CG  HIS X   3       4.397   4.449  21.037  1.00 18.10 LIG 0.06  A 
ATOM     46  CD2 HIS X   3       4.699   3.965  22.267  1.00 18.75 LIG 0.14  A 
ATOM     47 NE2  HIS X   3       5.154   5.022  23.021  1.00 20.06 LIG-0.25  NA
ATOM     48  CE1 HIS X   3       5.147   6.112  22.275  1.00 21.69 LIG 0.23  A 
ATOM     49 ND1  HIS X   3       4.708   5.787  21.070  1.00 17.48 LIG-0.24  NA
ENDBRANCH 44 45
ENDBRANCH 43 44
BRANCH 43 50
ATOM     50  C   HIS X   3       1.933   2.830  21.151  1.00 21.59 LIG 0.24  C 
ATOM     51 O    HIS X   3       2.052   2.317  22.258  1.00 25.47 LIG-0.27  OA
ATOM     52  N   HIS X   4       0.911   3.593  20.826  1.00 25.63 LIG-0.35  N 
ATOM     53 H    HIS X   4       0.792   3.938  20.047  1.00 25.63 LIG 0.16  HD
BRANCH 52 54
ATOM     54  CA  HIS X   4      -0.131   3.916  21.804  1.00 23.96 LIG 0.17  C 
BRANCH 54 55
ATOM     55  C   HIS X   4      -1.120   4.889  21.153  1.00 31.35 LIG 0.22  C 
ATOM     56 O    HIS X   4      -1.120   5.080  19.935  1.00 37.06 LIG-0.29  OA
ENDBRANCH 54 55
BRANCH 54 57
ATOM     57  CB  HIS X   4       0.458   4.502  23.094  1.00 23.83 LIG 0.09  C 
BRANCH 57 58
ATOM     58  CG  HIS X   4       1.131   5.836  22.908  1.00 22.57 LIG 0.06  A 
ATOM     59 ND1  HIS X   4       1.505   6.328  21.671  1.00 22.63 LIG-0.24  NA
ATOM     60  CE1 HIS X   4       2.064   7.517  21.823  1.00 19.94 LIG 0.23  A 
ATOM     61 NE2  HIS X   4       2.081   7.807  23.110  1.00 20.25 LIG-0.25  NA
ATOM     62  CD2 HIS X   4       1.492   6.780  23.808  1.00 21.52 LIG 0.14  A 
ENDBRANCH 57 58
ENDBRANCH 54 57
ENDBRANCH 52 54
ENDBRANCH 43 50
ENDBRANCH 40 43
ENDBRANCH 38 39
BRANCH 38 63
ATOM     63  CB  HIS X   2       1.505   2.510  15.822  1.00 28.74 LIG 0.10  C 
BRANCH 63 64
ATOM     64  CG  HIS X   2       2.586   3.377  15.267  1.00 28.63 LIG 0.06  A 
ATOM     65 ND1  HIS X   2       3.756   2.860  14.762  1.00 31.27 LIG-0.24  NA
ATOM     66  CE1 HIS X   2       4.519   3.845  14.326  1.00 28.11 LIG 0.23  A 
ATOM     67 NE2  HIS X   2       3.892   4.985  14.538  1.00 29.87 LIG-0.25  NA
ATOM     68  CD2 HIS X   2       2.673   4.720  15.120  1.00 31.84 LIG 0.14  A 
ENDBRANCH 63 64
ENDBRANCH 38 63
ENDBRANCH 3 38
TORSDOF 24
ENDMDL
MODEL 47
USER: ADFR SOLUTION from run 128
USER: SCORE 18.548160 LL:  -6.177 LR: -13.721 RR:   0.000 FEB:  -6.562
USER: RMSD 6.948599
USER: SEED 127
USER: STATUS no improvement in best in 7 clusters for 5 generations
USER: GENES 26
USER: genes 0 Translation |==|  0.46445 0.52292 0.33428
USER: genes 1 Rotation |==|  0.50056 0.96337 0.67731 0.56204
USER: genes 2 Torsion [N]-C--CA-[N] |==|  0.35108
USER: genes 3 Torsion [C]-CA--N-[C] |==|  0.82048
USER: genes 4 Torsion [N]-C--CA-[N] |==|  0.39696
USER: genes 5 Torsion [C]-CA--N-[C] |==|  0.67736
USER: genes 6 Torsion [N]-C--CA-[N] |==|  0.51691
USER: genes 7 Torsion [C]-CA--N-[H2] |==|  0.20977
USER: genes 8 Torsion [C]-CA--CB-[CG] |==|  0.81260
USER: genes 9 Torsion [CA]-CB--CG-[ND1] |==|  0.77924
USER: genes 10 Torsion [C]-CA--CB-[CG] |==|  0.04756
USER: genes 11 Torsion [CA]-CB--CG-[CD2] |==|  0.73331
USER: genes 12 Torsion [C]-CA--CB-[CG] |==|  0.78376
USER: genes 13 Torsion [CA]-CB--CG-[CD2] |==|  0.74066
USER: genes 14 Torsion [C]-N--CA-[C] |==|  0.53415
USER: genes 15 Torsion [N]-CA--C-[N] |==|  0.35183
USER: genes 16 Torsion [C]-N--CA-[CB] |==|  0.51967
USER: genes 17 Torsion [N]-CA--CB-[CG] |==|  0.10285
USER: genes 18 Torsion [CA]-CB--CG-[ND1] |==|  0.83255
USER: genes 19 Torsion [N]-CA--C-[N] |==|  0.35100
USER: genes 20 Torsion [C]-N--CA-[C] |==|  0.66768
USER: genes 21 Torsion [N]-CA--C-[O] |==|  0.01295
USER: genes 22 Torsion [N]-CA--CB-[CG] |==|  0.96865
USER: genes 23 Torsion [CA]-CB--CG-[ND1] |==|  0.15805
USER: genes 24 Torsion [N]-CA--CB-[CG] |==|  0.70822
USER: genes 25 Torsion [CA]-CB--CG-[CD2] |==|  0.46294
ROOT
ATOM      1  C   HIS X   1       1.910   0.568  16.587  1.00 40.87 LIG 0.24  C 
ATOM      2 O    HIS X   1       3.133   0.525  16.754  1.00 40.80 LIG-0.27  OA
ATOM      3  N   HIS X   2       1.139  -0.488  16.424  1.00 30.16 LIG-0.35  N 
ATOM      4 H    HIS X   2       0.291  -0.438  16.291  1.00 30.16 LIG 0.16  HD
ENDROOT
BRANCH 1 5
ATOM      5  CA  HIS X   1       1.139   1.871  16.559  1.00 48.06 LIG 0.18  C 
BRANCH 5 6
ATOM      6  N   HIS X   1       1.440   2.644  17.767  1.00 54.11 LIG-0.35  N 
ATOM      7 H    HIS X   1       1.847   3.386  17.615  1.00 54.11 LIG 0.16  HD
ATOM      8  C   HIS X   0       1.113   2.230  18.974  1.00 58.54 LIG 0.24  C 
ATOM      9 O    HIS X   0       0.744   1.082  19.230  1.00 63.37 LIG-0.27  OA
BRANCH 8 10
ATOM     10  CA  HIS X   0       1.227   3.301  20.046  1.00 62.53 LIG 0.18  C 
BRANCH 10 11
ATOM     11  N   HIS X   0       0.161   3.202  21.050  1.00 60.73 LIG-0.35  N 
ATOM     12  C   HIS X  -1      -0.728   4.171  21.200  1.00 60.09 LIG 0.25  C 
ATOM     13 O    HIS X  -1      -1.032   4.960  20.302  1.00 62.79 LIG-0.27  OA
ATOM     14 H    HIS X   0       0.171   2.478  21.514  1.00 60.73 LIG 0.16  HD
BRANCH 12 15
ATOM     15  CA  HIS X  -1      -1.393   4.225  22.570  1.00 59.53 LIG 0.28  C 
BRANCH 15 16
ATOM     16  N   HIS X  -1      -2.479   5.262  22.570  1.00 57.14 LIG-0.07  N 
ATOM     17 H3   HIS X  -1      -2.710   5.451  23.409  1.00 57.14 LIG 0.28  HD
ATOM     18 H2   HIS X  -1      -3.188   4.950  22.131  1.00 57.14 LIG 0.28  HD
ATOM     19 H1   HIS X  -1      -2.184   6.001  22.171  1.00 57.14 LIG 0.28  HD
ENDBRANCH 15 16
BRANCH 15 20
ATOM     20  CB  HIS X  -1      -1.953   2.859  22.968  1.00 57.27 LIG 0.10  C 
BRANCH 20 21
ATOM     21  CG  HIS X  -1      -3.104   2.410  22.127  1.00 54.13 LIG 0.06  A 
ATOM     22 ND1  HIS X  -1      -4.388   2.873  22.317  1.00 52.72 LIG-0.24  NA
ATOM     23  CE1 HIS X  -1      -5.195   2.291  21.445  1.00 54.35 LIG 0.23  A 
ATOM     24 NE2  HIS X  -1      -4.481   1.467  20.698  1.00 53.65 LIG-0.25  NA
ATOM     25  CD2 HIS X  -1      -3.168   1.525  21.103  1.00 55.23 LIG 0.14  A 
ENDBRANCH 20 21
ENDBRANCH 15 20
ENDBRANCH 12 15
ENDBRANCH 10 11
BRANCH 10 26
ATOM     26  CB  HIS X   0       2.627   3.252  20.695  1.00 64.99 LIG 0.10  C 
BRANCH 26 27
ATOM     27  CG  HIS X   0       3.649   2.496  19.894  1.00 69.41 LIG 0.06  A 
ATOM     28 ND1  HIS X   0       4.377   3.077  18.875  1.00 72.01 LIG-0.24  NA
ATOM     29  CE1 HIS X   0       5.200   2.182  18.357  1.00 72.69 LIG 0.23  A 
ATOM     30 NE2  HIS X   0       5.038   1.043  19.006  1.00 72.94 LIG-0.25  NA
ATOM     31  CD2 HIS X   0       4.077   1.213  19.975  1.00 71.12 LIG 0.14  A 
ENDBRANCH 26 27
ENDBRANCH 10 26
ENDBRANCH 8 10
ENDBRANCH 5 6
BRANCH 5 32
ATOM     32  CB  HIS X   1       1.505   2.673  15.312  1.00 48.25 LIG 0.10  C 
BRANCH 32 33
ATOM     33  CG  HIS X   1       2.821   3.380  15.417  1.00 50.36 LIG 0.06  A 
ATOM     34  CD2 HIS X   1       3.123   4.641  15.813  1.00 51.47 LIG 0.14  A 
ATOM     35 NE2  HIS X   1       4.489   4.775  15.729  1.00 50.72 LIG-0.25  NA
ATOM     36  CE1 HIS X   1       5.004   3.636  15.298  1.00 48.50 LIG 0.23  A 
ATOM     37 ND1  HIS X   1       4.021   2.777  15.100  1.00 47.89 LIG-0.24  NA
ENDBRANCH 32 33
ENDBRANCH 5 32
ENDBRANCH 1 5
BRANCH 3 38
ATOM     38  CA  HIS X   2       1.658  -1.875  16.454  1.00 26.25 LIG 0.18  C 
BRANCH 38 39
ATOM     39  C   HIS X   2       0.644  -2.898  15.950  1.00 23.72 LIG 0.24  C 
ATOM     40  N   HIS X   3       1.102  -3.681  14.988  1.00 22.33 LIG-0.35  N 
ATOM     41 H    HIS X   3       1.893  -3.617  14.655  1.00 22.33 LIG 0.16  HD
ATOM     42 O    HIS X   2      -0.509  -2.969  16.400  1.00 19.88 LIG-0.27  OA
BRANCH 40 43
ATOM     43  CA  HIS X   3       0.282  -4.748  14.392  1.00 22.38 LIG 0.18  C 
BRANCH 43 44
ATOM     44  CB  HIS X   3       1.074  -5.658  13.402  1.00 22.51 LIG 0.10  C 
BRANCH 44 45
ATOM     45  CG  HIS X   3       2.497  -5.949  13.790  1.00 18.10 LIG 0.06  A 
ATOM     46  CD2 HIS X   3       3.155  -7.119  13.983  1.00 18.75 LIG 0.14  A 
ATOM     47 NE2  HIS X   3       4.461  -6.807  14.281  1.00 20.06 LIG-0.25  NA
ATOM     48  CE1 HIS X   3       4.602  -5.494  14.258  1.00 21.69 LIG 0.23  A 
ATOM     49 ND1  HIS X   3       3.434  -4.957  13.949  1.00 17.48 LIG-0.24  NA
ENDBRANCH 44 45
ENDBRANCH 43 44
BRANCH 43 50
ATOM     50  C   HIS X   3      -0.450  -5.549  15.468  1.00 21.59 LIG 0.24  C 
ATOM     51 O    HIS X   3       0.145  -6.107  16.382  1.00 25.47 LIG-0.27  OA
ATOM     52  N   HIS X   4      -1.753  -5.643  15.304  1.00 25.63 LIG-0.35  N 
ATOM     53 H    HIS X   4      -2.187  -5.285  14.653  1.00 25.63 LIG 0.16  HD
BRANCH 52 54
ATOM     54  CA  HIS X   4      -2.581  -6.393  16.253  1.00 23.96 LIG 0.17  C 
BRANCH 54 55
ATOM     55  C   HIS X   4      -3.277  -7.528  15.495  1.00 31.35 LIG 0.22  C 
ATOM     56 O    HIS X   4      -3.035  -7.745  14.306  1.00 37.06 LIG-0.29  OA
ENDBRANCH 54 55
BRANCH 54 57
ATOM     57  CB  HIS X   4      -3.599  -5.489  16.961  1.00 23.83 LIG 0.09  C 
BRANCH 57 58
ATOM     58  CG  HIS X   4      -3.364  -4.017  16.746  1.00 22.57 LIG 0.06  A 
ATOM     59 ND1  HIS X   4      -3.310  -3.436  15.492  1.00 22.63 LIG-0.24  NA
ATOM     60  CE1 HIS X   4      -3.098  -2.137  15.621  1.00 19.94 LIG 0.23  A 
ATOM     61 NE2  HIS X   4      -2.994  -1.857  16.906  1.00 20.25 LIG-0.25  NA
ATOM     62  CD2 HIS X   4      -3.171  -3.012  17.630  1.00 21.52 LIG 0.14  A 
ENDBRANCH 57 58
ENDBRANCH 54 57
ENDBRANCH 52 54
ENDBRANCH 43 50
ENDBRANCH 40 43
ENDBRANCH 38 39
BRANCH 38 63
ATOM     63  CB  HIS X   2       2.108  -2.258  17.869  1.00 28.74 LIG 0.10  C 
BRANCH 63 64
ATOM     64  CG  HIS X   2       3.590  -2.282  18.043  1.00 28.63 LIG 0.06  A 
ATOM     65 ND1  HIS X   2       4.455  -2.232  16.976  1.00 31.27 LIG-0.24  NA
ATOM     66  CE1 HIS X   2       5.699  -2.250  17.418  1.00 28.11 LIG 0.23  A 
ATOM     67 NE2  HIS X   2       5.673  -2.321  18.735  1.00 29.87 LIG-0.25  NA
ATOM     68  CD2 HIS X   2       4.363  -2.334  19.153  1.00 31.84 LIG 0.14  A 
ENDBRANCH 63 64
ENDBRANCH 38 63
ENDBRANCH 3 38
TORSDOF 24
ENDMDL
MODEL 48
USER: ADFR SOLUTION from run 172
USER: SCORE 17.954822 LL:  -6.112 LR: -13.720 RR:   0.000 FEB:  -6.561
USER: RMSD 10.275217
USER: SEED 171
USER: STATUS searching
USER: GENES 26
USER: genes 0 Translation |==|  0.46960 0.44551 0.35392
USER: genes 1 Rotation |==|  0.56706 0.29284 0.94771 0.54628
USER: genes 2 Torsion [N]-C--CA-[N] |==|  0.90500
USER: genes 3 Torsion [C]-CA--N-[C] |==|  0.66836
USER: genes 4 Torsion [N]-C--CA-[N] |==|  0.88885
USER: genes 5 Torsion [C]-CA--N-[C] |==|  0.75348
USER: genes 6 Torsion [N]-C--CA-[N] |==|  0.84557
USER: genes 7 Torsion [C]-CA--N-[H2] |==|  0.63651
USER: genes 8 Torsion [C]-CA--CB-[CG] |==|  0.53631
USER: genes 9 Torsion [CA]-CB--CG-[ND1] |==|  0.20442
USER: genes 10 Torsion [C]-CA--CB-[CG] |==|  0.86285
USER: genes 11 Torsion [CA]-CB--CG-[CD2] |==|  0.32555
USER: genes 12 Torsion [C]-CA--CB-[CG] |==|  0.32833
USER: genes 13 Torsion [CA]-CB--CG-[CD2] |==|  0.41462
USER: genes 14 Torsion [C]-N--CA-[C] |==|  0.71173
USER: genes 15 Torsion [N]-CA--C-[N] |==|  0.44461
USER: genes 16 Torsion [C]-N--CA-[CB] |==|  0.51775
USER: genes 17 Torsion [N]-CA--CB-[CG] |==|  0.96037
USER: genes 18 Torsion [CA]-CB--CG-[ND1] |==|  0.87946
USER: genes 19 Torsion [N]-CA--C-[N] |==|  0.87646
USER: genes 20 Torsion [C]-N--CA-[C] |==|  0.17761
USER: genes 21 Torsion [N]-CA--C-[O] |==|  0.20803
USER: genes 22 Torsion [N]-CA--CB-[CG] |==|  0.46942
USER: genes 23 Torsion [CA]-CB--CG-[ND1] |==|  0.12610
USER: genes 24 Torsion [N]-CA--CB-[CG] |==|  0.61668
USER: genes 25 Torsion [CA]-CB--CG-[CD2] |==|  0.26443
ROOT
ATOM      1  C   HIS X   1       2.014  -1.290  16.940  1.00 40.87 LIG 0.24  C 
ATOM      2 O    HIS X   1       3.206  -1.442  16.654  1.00 40.80 LIG-0.27  OA
ATOM      3  N   HIS X   2       1.468  -0.141  17.287  1.00 30.16 LIG-0.35  N 
ATOM      4 H    HIS X   2       0.639  -0.058  17.501  1.00 30.16 LIG 0.16  HD
ENDROOT
BRANCH 1 5
ATOM      5  CA  HIS X   1       1.021  -2.432  16.916  1.00 48.06 LIG 0.18  C 
BRANCH 5 6
ATOM      6  N   HIS X   1       0.024  -2.236  17.972  1.00 54.11 LIG-0.35  N 
ATOM      7 H    HIS X   1      -0.432  -1.510  17.892  1.00 54.11 LIG 0.16  HD
ATOM      8  C   HIS X   0      -0.152  -3.099  18.951  1.00 58.54 LIG 0.24  C 
ATOM      9 O    HIS X   0       0.634  -4.012  19.211  1.00 63.37 LIG-0.27  OA
BRANCH 8 10
ATOM     10  CA  HIS X   0      -1.424  -2.876  19.751  1.00 62.53 LIG 0.18  C 
BRANCH 10 11
ATOM     11  N   HIS X   0      -1.693  -1.452  19.986  1.00 60.73 LIG-0.35  N 
ATOM     12  C   HIS X  -1      -1.201  -0.830  21.045  1.00 60.09 LIG 0.25  C 
ATOM     13 O    HIS X  -1      -0.182  -1.194  21.635  1.00 62.79 LIG-0.27  OA
ATOM     14 H    HIS X   0      -2.185  -1.077  19.389  1.00 60.73 LIG 0.16  HD
BRANCH 12 15
ATOM     15  CA  HIS X  -1      -1.970   0.415  21.472  1.00 59.53 LIG 0.28  C 
BRANCH 15 16
ATOM     16  N   HIS X  -1      -2.072   1.373  20.320  1.00 57.14 LIG-0.07  N 
ATOM     17 H3   HIS X  -1      -1.534   1.106  19.663  1.00 57.14 LIG 0.28  HD
ATOM     18 H2   HIS X  -1      -1.829   2.187  20.588  1.00 57.14 LIG 0.28  HD
ATOM     19 H1   HIS X  -1      -2.911   1.395  20.025  1.00 57.14 LIG 0.28  HD
ENDBRANCH 15 16
BRANCH 15 20
ATOM     20  CB  HIS X  -1      -3.360   0.053  21.996  1.00 57.27 LIG 0.10  C 
BRANCH 20 21
ATOM     21  CG  HIS X  -1      -4.275   1.226  22.141  1.00 54.13 LIG 0.06  A 
ATOM     22 ND1  HIS X  -1      -4.848   1.860  21.059  1.00 52.72 LIG-0.24  NA
ATOM     23  CE1 HIS X  -1      -5.589   2.868  21.486  1.00 54.35 LIG 0.23  A 
ATOM     24 NE2  HIS X  -1      -5.517   2.913  22.806  1.00 53.65 LIG-0.25  NA
ATOM     25  CD2 HIS X  -1      -4.701   1.893  23.240  1.00 55.23 LIG 0.14  A 
ENDBRANCH 20 21
ENDBRANCH 15 20
ENDBRANCH 12 15
ENDBRANCH 10 11
BRANCH 10 26
ATOM     26  CB  HIS X   0      -2.613  -3.575  19.058  1.00 64.99 LIG 0.10  C 
BRANCH 26 27
ATOM     27  CG  HIS X   0      -2.732  -3.274  17.591  1.00 69.41 LIG 0.06  A 
ATOM     28 ND1  HIS X   0      -2.944  -1.999  17.105  1.00 72.01 LIG-0.24  NA
ATOM     29  CE1 HIS X   0      -2.998  -2.035  15.784  1.00 72.69 LIG 0.23  A 
ATOM     30 NE2  HIS X   0      -2.824  -3.286  15.395  1.00 72.94 LIG-0.25  NA
ATOM     31  CD2 HIS X   0      -2.652  -4.080  16.505  1.00 71.12 LIG 0.14  A 
ENDBRANCH 26 27
ENDBRANCH 10 26
ENDBRANCH 8 10
ENDBRANCH 5 6
BRANCH 5 32
ATOM     32  CB  HIS X   1       0.339  -2.508  15.552  1.00 48.25 LIG 0.10  C 
BRANCH 32 33
ATOM     33  CG  HIS X   1       0.590  -3.792  14.825  1.00 50.36 LIG 0.06  A 
ATOM     34  CD2 HIS X   1      -0.178  -4.481  13.946  1.00 51.47 LIG 0.14  A 
ATOM     35 NE2  HIS X   1       0.535  -5.594  13.571  1.00 50.72 LIG-0.25  NA
ATOM     36  CE1 HIS X   1       1.699  -5.587  14.197  1.00 48.50 LIG 0.23  A 
ATOM     37 ND1  HIS X   1       1.759  -4.513  14.961  1.00 47.89 LIG-0.24  NA
ENDBRANCH 32 33
ENDBRANCH 5 32
ENDBRANCH 1 5
BRANCH 3 38
ATOM     38  CA  HIS X   2       2.230   1.127  17.343  1.00 26.25 LIG 0.18  C 
BRANCH 38 39
ATOM     39  C   HIS X   2       2.571   1.550  18.768  1.00 23.72 LIG 0.24  C 
ATOM     40  N   HIS X   3       3.573   2.411  18.850  1.00 22.33 LIG-0.35  N 
ATOM     41 H    HIS X   3       4.011   2.700  18.169  1.00 22.33 LIG 0.16  HD
ATOM     42 O    HIS X   2       1.967   1.108  19.756  1.00 19.88 LIG-0.27  OA
BRANCH 40 43
ATOM     43  CA  HIS X   3       4.029   2.958  20.138  1.00 22.38 LIG 0.18  C 
BRANCH 43 44
ATOM     44  CB  HIS X   3       5.114   4.071  19.988  1.00 22.51 LIG 0.10  C 
BRANCH 44 45
ATOM     45  CG  HIS X   3       5.752   4.172  18.631  1.00 18.10 LIG 0.06  A 
ATOM     46  CD2 HIS X   3       6.123   5.245  17.890  1.00 18.75 LIG 0.14  A 
ATOM     47 NE2  HIS X   3       6.705   4.763  16.740  1.00 20.06 LIG-0.25  NA
ATOM     48  CE1 HIS X   3       6.705   3.443  16.782  1.00 21.69 LIG 0.23  A 
ATOM     49 ND1  HIS X   3       6.149   3.065  17.921  1.00 17.48 LIG-0.24  NA
ENDBRANCH 44 45
ENDBRANCH 43 44
BRANCH 43 50
ATOM     50  C   HIS X   3       2.849   3.400  21.002  1.00 21.59 LIG 0.24  C 
ATOM     51 O    HIS X   3       2.756   3.091  22.184  1.00 25.47 LIG-0.27  OA
ATOM     52  N   HIS X   4       1.918   4.082  20.368  1.00 25.63 LIG-0.35  N 
ATOM     53 H    HIS X   4       1.949   4.284  19.532  1.00 25.63 LIG 0.16  HD
BRANCH 52 54
ATOM     54  CA  HIS X   4       0.723   4.560  21.069  1.00 23.96 LIG 0.17  C 
BRANCH 54 55
ATOM     55  C   HIS X   4       1.161   5.570  22.135  1.00 31.35 LIG 0.22  C 
ATOM     56 O    HIS X   4       1.510   6.712  21.829  1.00 37.06 LIG-0.29  OA
ENDBRANCH 54 55
BRANCH 54 57
ATOM     57  CB  HIS X   4      -0.074   3.406  21.690  1.00 23.83 LIG 0.09  C 
BRANCH 57 58
ATOM     58  CG  HIS X   4      -1.158   3.851  22.636  1.00 22.57 LIG 0.06  A 
ATOM     59 ND1  HIS X   4      -2.034   4.882  22.351  1.00 22.63 LIG-0.24  NA
ATOM     60  CE1 HIS X   4      -2.872   5.038  23.362  1.00 19.94 LIG 0.23  A 
ATOM     61 NE2  HIS X   4      -2.563   4.160  24.298  1.00 20.25 LIG-0.25  NA
ATOM     62  CD2 HIS X   4      -1.505   3.397  23.863  1.00 21.52 LIG 0.14  A 
ENDBRANCH 57 58
ENDBRANCH 54 57
ENDBRANCH 52 54
ENDBRANCH 43 50
ENDBRANCH 40 43
ENDBRANCH 38 39
BRANCH 38 63
ATOM     63  CB  HIS X   2       1.463   2.257  16.646  1.00 28.74 LIG 0.10  C 
BRANCH 63 64
ATOM     64  CG  HIS X   2       2.324   3.134  15.799  1.00 28.63 LIG 0.06  A 
ATOM     65 ND1  HIS X   2       3.037   4.187  16.320  1.00 31.27 LIG-0.24  NA
ATOM     66  CE1 HIS X   2       3.719   4.776  15.356  1.00 28.11 LIG 0.23  A 
ATOM     67 NE2  HIS X   2       3.468   4.149  14.223  1.00 29.87 LIG-0.25  NA
ATOM     68  CD2 HIS X   2       2.602   3.110  14.474  1.00 31.84 LIG 0.14  A 
ENDBRANCH 63 64
ENDBRANCH 38 63
ENDBRANCH 3 38
TORSDOF 24
ENDMDL
MODEL 49
USER: ADFR SOLUTION from run 77
USER: SCORE 19.508980 LL:  -6.488 LR: -13.711 RR:   0.000 FEB:  -6.552
USER: RMSD 10.661818
USER: SEED 76
USER: STATUS searching
USER: GENES 26
USER: genes 0 Translation |==|  0.41745 0.51042 0.39485
USER: genes 1 Rotation |==|  0.86716 0.34249 0.24874 0.66509
USER: genes 2 Torsion [N]-C--CA-[N] |==|  0.49185
USER: genes 3 Torsion [C]-CA--N-[C] |==|  0.58736
USER: genes 4 Torsion [N]-C--CA-[N] |==|  0.94709
USER: genes 5 Torsion [C]-CA--N-[C] |==|  0.67481
USER: genes 6 Torsion [N]-C--CA-[N] |==|  0.02040
USER: genes 7 Torsion [C]-CA--N-[H2] |==|  0.89886
USER: genes 8 Torsion [C]-CA--CB-[CG] |==|  0.86790
USER: genes 9 Torsion [CA]-CB--CG-[ND1] |==|  0.80493
USER: genes 10 Torsion [C]-CA--CB-[CG] |==|  0.90590
USER: genes 11 Torsion [CA]-CB--CG-[CD2] |==|  0.32622
USER: genes 12 Torsion [C]-CA--CB-[CG] |==|  0.36017
USER: genes 13 Torsion [CA]-CB--CG-[CD2] |==|  0.07847
USER: genes 14 Torsion [C]-N--CA-[C] |==|  0.14447
USER: genes 15 Torsion [N]-CA--C-[N] |==|  0.11404
USER: genes 16 Torsion [C]-N--CA-[CB] |==|  0.85957
USER: genes 17 Torsion [N]-CA--CB-[CG] |==|  0.41558
USER: genes 18 Torsion [CA]-CB--CG-[ND1] |==|  0.64838
USER: genes 19 Torsion [N]-CA--C-[N] |==|  0.88505
USER: genes 20 Torsion [C]-N--CA-[C] |==|  0.68445
USER: genes 21 Torsion [N]-CA--C-[O] |==|  0.57487
USER: genes 22 Torsion [N]-CA--CB-[CG] |==|  0.76401
USER: genes 23 Torsion [CA]-CB--CG-[ND1] |==|  0.43759
USER: genes 24 Torsion [N]-CA--CB-[CG] |==|  0.53443
USER: genes 25 Torsion [CA]-CB--CG-[CD2] |==|  0.62619
ROOT
ATOM      1  C   HIS X   1       0.958   0.268  17.677  1.00 40.87 LIG 0.24  C 
ATOM      2 O    HIS X   1       0.471   1.236  18.269  1.00 40.80 LIG-0.27  OA
ATOM      3  N   HIS X   2       1.986   0.332  16.854  1.00 30.16 LIG-0.35  N 
ATOM      4 H    HIS X   2       2.301  -0.351  16.437  1.00 30.16 LIG 0.16  HD
ENDROOT
BRANCH 1 5
ATOM      5  CA  HIS X   1       0.423  -1.138  17.842  1.00 48.06 LIG 0.18  C 
BRANCH 5 6
ATOM      6  N   HIS X   1      -0.668  -1.135  18.822  1.00 54.11 LIG-0.35  N 
ATOM      7 H    HIS X   1      -1.123  -0.405  18.835  1.00 54.11 LIG 0.16  HD
ATOM      8  C   HIS X   0      -0.920  -2.163  19.606  1.00 58.54 LIG 0.24  C 
ATOM      9 O    HIS X   0      -0.149  -3.112  19.764  1.00 63.37 LIG-0.27  OA
BRANCH 8 10
ATOM     10  CA  HIS X   0      -2.261  -2.084  20.315  1.00 62.53 LIG 0.18  C 
BRANCH 10 11
ATOM     11  N   HIS X   0      -2.798  -0.719  20.344  1.00 60.73 LIG-0.35  N 
ATOM     12  C   HIS X  -1      -2.990  -0.085  21.491  1.00 60.09 LIG 0.25  C 
ATOM     13 O    HIS X  -1      -2.366  -0.342  22.522  1.00 62.79 LIG-0.27  OA
ATOM     14 H    HIS X   0      -2.970  -0.383  19.571  1.00 60.73 LIG 0.16  HD
BRANCH 12 15
ATOM     15  CA  HIS X  -1      -4.027   1.031  21.441  1.00 59.53 LIG 0.28  C 
BRANCH 15 16
ATOM     16  N   HIS X  -1      -4.722   1.023  20.109  1.00 57.14 LIG-0.07  N 
ATOM     17 H3   HIS X  -1      -5.382   0.426  20.122  1.00 57.14 LIG 0.28  HD
ATOM     18 H2   HIS X  -1      -4.140   0.806  19.471  1.00 57.14 LIG 0.28  HD
ATOM     19 H1   HIS X  -1      -5.056   1.832  19.944  1.00 57.14 LIG 0.28  HD
ENDBRANCH 15 16
BRANCH 15 20
ATOM     20  CB  HIS X  -1      -5.040   0.895  22.578  1.00 57.27 LIG 0.10  C 
BRANCH 20 21
ATOM     21  CG  HIS X  -1      -5.591  -0.485  22.735  1.00 54.13 LIG 0.06  A 
ATOM     22 ND1  HIS X  -1      -6.453  -1.051  21.820  1.00 52.72 LIG-0.24  NA
ATOM     23  CE1 HIS X  -1      -6.787  -2.264  22.226  1.00 54.35 LIG 0.23  A 
ATOM     24 NE2  HIS X  -1      -6.174  -2.506  23.373  1.00 53.65 LIG-0.25  NA
ATOM     25  CD2 HIS X  -1      -5.417  -1.408  23.712  1.00 55.23 LIG 0.14  A 
ENDBRANCH 20 21
ENDBRANCH 15 20
ENDBRANCH 12 15
ENDBRANCH 10 11
BRANCH 10 26
ATOM     26  CB  HIS X   0      -3.257  -3.075  19.672  1.00 64.99 LIG 0.10  C 
BRANCH 26 27
ATOM     27  CG  HIS X   0      -3.076  -3.254  18.192  1.00 69.41 LIG 0.06  A 
ATOM     28 ND1  HIS X   0      -3.218  -2.217  17.292  1.00 72.01 LIG-0.24  NA
ATOM     29  CE1 HIS X   0      -2.995  -2.663  16.068  1.00 72.69 LIG 0.23  A 
ATOM     30 NE2  HIS X   0      -2.709  -3.951  16.140  1.00 72.94 LIG-0.25  NA
ATOM     31  CD2 HIS X   0      -2.749  -4.345  17.458  1.00 71.12 LIG 0.14  A 
ENDBRANCH 26 27
ENDBRANCH 10 26
ENDBRANCH 8 10
ENDBRANCH 5 6
BRANCH 5 32
ATOM     32  CB  HIS X   1      -0.073  -1.674  16.501  1.00 48.25 LIG 0.10  C 
BRANCH 32 33
ATOM     33  CG  HIS X   1       0.467  -3.028  16.158  1.00 50.36 LIG 0.06  A 
ATOM     34  CD2 HIS X   1       0.872  -4.050  16.950  1.00 51.47 LIG 0.14  A 
ATOM     35 NE2  HIS X   1       1.270  -5.072  16.121  1.00 50.72 LIG-0.25  NA
ATOM     36  CE1 HIS X   1       1.114  -4.689  14.865  1.00 48.50 LIG 0.23  A 
ATOM     37 ND1  HIS X   1       0.633  -3.460  14.858  1.00 47.89 LIG-0.24  NA
ENDBRANCH 32 33
ENDBRANCH 5 32
ENDBRANCH 1 5
BRANCH 3 38
ATOM     38  CA  HIS X   2       2.706   1.593  16.564  1.00 26.25 LIG 0.18  C 
BRANCH 38 39
ATOM     39  C   HIS X   2       3.152   2.324  17.827  1.00 23.72 LIG 0.24  C 
ATOM     40  N   HIS X   3       3.628   1.529  18.771  1.00 22.33 LIG-0.35  N 
ATOM     41 H    HIS X   3       3.672   0.673  18.697  1.00 22.33 LIG 0.16  HD
ATOM     42 O    HIS X   2       3.056   3.554  17.952  1.00 19.88 LIG-0.27  OA
BRANCH 40 43
ATOM     43  CA  HIS X   3       4.134   2.051  20.050  1.00 22.38 LIG 0.18  C 
BRANCH 43 44
ATOM     44  CB  HIS X   3       5.168   3.208  19.881  1.00 22.51 LIG 0.10  C 
BRANCH 44 45
ATOM     45  CG  HIS X   3       5.189   4.223  20.989  1.00 18.10 LIG 0.06  A 
ATOM     46  CD2 HIS X   3       5.390   4.093  22.324  1.00 18.75 LIG 0.14  A 
ATOM     47 NE2  HIS X   3       5.349   5.357  22.866  1.00 20.06 LIG-0.25  NA
ATOM     48  CE1 HIS X   3       5.147   6.231  21.898  1.00 21.69 LIG 0.23  A 
ATOM     49 ND1  HIS X   3       5.063   5.571  20.754  1.00 17.48 LIG-0.24  NA
ENDBRANCH 44 45
ENDBRANCH 43 44
BRANCH 43 50
ATOM     50  C   HIS X   3       2.987   2.422  20.989  1.00 21.59 LIG 0.24  C 
ATOM     51 O    HIS X   3       2.994   2.119  22.177  1.00 25.47 LIG-0.27  OA
ATOM     52  N   HIS X   4       1.971   3.032  20.416  1.00 25.63 LIG-0.35  N 
ATOM     53 H    HIS X   4       1.932   3.226  19.578  1.00 25.63 LIG 0.16  HD
BRANCH 52 54
ATOM     54  CA  HIS X   4       0.796   3.435  21.193  1.00 23.96 LIG 0.17  C 
BRANCH 54 55
ATOM     55  C   HIS X   4      -0.403   2.607  20.720  1.00 31.35 LIG 0.22  C 
ATOM     56 O    HIS X   4      -1.555   3.035  20.817  1.00 37.06 LIG-0.29  OA
ENDBRANCH 54 55
BRANCH 54 57
ATOM     57  CB  HIS X   4       0.517   4.938  21.070  1.00 23.83 LIG 0.09  C 
BRANCH 57 58
ATOM     58  CG  HIS X   4       1.303   5.787  22.035  1.00 22.57 LIG 0.06  A 
ATOM     59 ND1  HIS X   4       1.562   7.128  21.823  1.00 22.63 LIG-0.24  NA
ATOM     60  CE1 HIS X   4       2.264   7.605  22.838  1.00 19.94 LIG 0.23  A 
ATOM     61 NE2  HIS X   4       2.484   6.621  23.690  1.00 20.25 LIG-0.25  NA
ATOM     62  CD2 HIS X   4       1.882   5.479  23.218  1.00 21.52 LIG 0.14  A 
ENDBRANCH 57 58
ENDBRANCH 54 57
ENDBRANCH 52 54
ENDBRANCH 43 50
ENDBRANCH 40 43
ENDBRANCH 38 39
BRANCH 38 63
ATOM     63  CB  HIS X   2       1.844   2.531  15.711  1.00 28.74 LIG 0.10  C 
BRANCH 63 64
ATOM     64  CG  HIS X   2       2.597   3.684  15.137  1.00 28.63 LIG 0.06  A 
ATOM     65 ND1  HIS X   2       3.818   3.532  14.523  1.00 31.27 LIG-0.24  NA
ATOM     66  CE1 HIS X   2       4.244   4.706  14.096  1.00 28.11 LIG 0.23  A 
ATOM     67 NE2  HIS X   2       3.349   5.619  14.419  1.00 29.87 LIG-0.25  NA
ATOM     68  CD2 HIS X   2       2.302   5.004  15.066  1.00 31.84 LIG 0.14  A 
ENDBRANCH 63 64
ENDBRANCH 38 63
ENDBRANCH 3 38
TORSDOF 24
ENDMDL
MODEL 50
USER: ADFR SOLUTION from run 57
USER: SCORE 18.741997 LL:  -5.920 LR: -13.680 RR:   0.000 FEB:  -6.520
USER: RMSD 7.351225
USER: SEED 56
USER: STATUS searching
USER: GENES 26
USER: genes 0 Translation |==|  0.56401 0.62495 0.43811
USER: genes 1 Rotation |==|  0.41777 0.62032 0.38007 0.96301
USER: genes 2 Torsion [N]-C--CA-[N] |==|  0.21996
USER: genes 3 Torsion [C]-CA--N-[C] |==|  0.75668
USER: genes 4 Torsion [N]-C--CA-[N] |==|  0.46932
USER: genes 5 Torsion [C]-CA--N-[C] |==|  0.75216
USER: genes 6 Torsion [N]-C--CA-[N] |==|  0.04999
USER: genes 7 Torsion [C]-CA--N-[H2] |==|  0.70514
USER: genes 8 Torsion [C]-CA--CB-[CG] |==|  0.90611
USER: genes 9 Torsion [CA]-CB--CG-[ND1] |==|  0.29646
USER: genes 10 Torsion [C]-CA--CB-[CG] |==|  0.95382
USER: genes 11 Torsion [CA]-CB--CG-[CD2] |==|  0.78495
USER: genes 12 Torsion [C]-CA--CB-[CG] |==|  0.56180
USER: genes 13 Torsion [CA]-CB--CG-[CD2] |==|  0.84944
USER: genes 14 Torsion [C]-N--CA-[C] |==|  0.85000
USER: genes 15 Torsion [N]-CA--C-[N] |==|  0.43153
USER: genes 16 Torsion [C]-N--CA-[CB] |==|  0.85798
USER: genes 17 Torsion [N]-CA--CB-[CG] |==|  0.85882
USER: genes 18 Torsion [CA]-CB--CG-[ND1] |==|  0.78558
USER: genes 19 Torsion [N]-CA--C-[N] |==|  0.92647
USER: genes 20 Torsion [C]-N--CA-[C] |==|  0.82861
USER: genes 21 Torsion [N]-CA--C-[O] |==|  0.85510
USER: genes 22 Torsion [N]-CA--CB-[CG] |==|  0.56908
USER: genes 23 Torsion [CA]-CB--CG-[ND1] |==|  0.71858
USER: genes 24 Torsion [N]-CA--CB-[CG] |==|  0.54278
USER: genes 25 Torsion [CA]-CB--CG-[CD2] |==|  0.09194
ROOT
ATOM      1  C   HIS X   1       3.926   3.017  18.456  1.00 40.87 LIG 0.24  C 
ATOM      2 O    HIS X   1       3.043   3.662  19.029  1.00 40.80 LIG-0.27  OA
ATOM      3  N   HIS X   2       3.757   1.822  17.926  1.00 30.16 LIG-0.35  N 
ATOM      4 H    HIS X   2       4.390   1.380  17.546  1.00 30.16 LIG 0.16  HD
ENDROOT
BRANCH 1 5
ATOM      5  CA  HIS X   1       5.336   3.543  18.286  1.00 48.06 LIG 0.18  C 
BRANCH 5 6
ATOM      6  N   HIS X   1       5.502   4.069  16.929  1.00 54.11 LIG-0.35  N 
ATOM      7 H    HIS X   1       5.338   4.910  16.857  1.00 54.11 LIG 0.16  HD
ATOM      8  C   HIS X   0       5.869   3.312  15.915  1.00 58.54 LIG 0.24  C 
ATOM      9 O    HIS X   0       5.883   2.080  15.946  1.00 63.37 LIG-0.27  OA
BRANCH 8 10
ATOM     10  CA  HIS X   0       6.284   4.094  14.679  1.00 62.53 LIG 0.18  C 
BRANCH 10 11
ATOM     11  N   HIS X   0       6.927   3.244  13.671  1.00 60.73 LIG-0.35  N 
ATOM     12  C   HIS X  -1       8.235   3.043  13.681  1.00 60.09 LIG 0.25  C 
ATOM     13 O    HIS X  -1       8.930   3.135  14.696  1.00 62.79 LIG-0.27  OA
ATOM     14 H    HIS X   0       6.390   2.902  13.094  1.00 60.73 LIG 0.16  HD
BRANCH 12 15
ATOM     15  CA  HIS X  -1       8.834   2.645  12.337  1.00 59.53 LIG 0.28  C 
BRANCH 15 16
ATOM     16  N   HIS X  -1       7.880   2.994  11.230  1.00 57.14 LIG-0.07  N 
ATOM     17 H3   HIS X  -1       7.249   3.539  11.543  1.00 57.14 LIG 0.28  HD
ATOM     18 H2   HIS X  -1       7.502   2.251  10.918  1.00 57.14 LIG 0.28  HD
ATOM     19 H1   HIS X  -1       8.323   3.400  10.573  1.00 57.14 LIG 0.28  HD
ENDBRANCH 15 16
BRANCH 15 20
ATOM     20  CB  HIS X  -1      10.188   3.318  12.113  1.00 57.27 LIG 0.10  C 
BRANCH 20 21
ATOM     21  CG  HIS X  -1      10.287   4.687  12.705  1.00 54.13 LIG 0.06  A 
ATOM     22 ND1  HIS X  -1      11.025   4.955  13.838  1.00 52.72 LIG-0.24  NA
ATOM     23  CE1 HIS X  -1      10.915   6.238  14.137  1.00 54.35 LIG 0.23  A 
ATOM     24 NE2  HIS X  -1      10.130   6.812  13.241  1.00 53.65 LIG-0.25  NA
ATOM     25  CD2 HIS X  -1       9.726   5.862  12.332  1.00 55.23 LIG 0.14  A 
ENDBRANCH 20 21
ENDBRANCH 15 20
ENDBRANCH 12 15
ENDBRANCH 10 11
BRANCH 10 26
ATOM     26  CB  HIS X   0       5.068   4.848  14.099  1.00 64.99 LIG 0.10  C 
BRANCH 26 27
ATOM     27  CG  HIS X   0       3.741   4.352  14.599  1.00 69.41 LIG 0.06  A 
ATOM     28 ND1  HIS X   0       3.003   5.029  15.549  1.00 72.01 LIG-0.24  NA
ATOM     29  CE1 HIS X   0       1.883   4.368  15.789  1.00 72.69 LIG 0.23  A 
ATOM     30 NE2  HIS X   0       1.866   3.289  15.026  1.00 72.94 LIG-0.25  NA
ATOM     31  CD2 HIS X   0       3.014   3.258  14.269  1.00 71.12 LIG 0.14  A 
ENDBRANCH 26 27
ENDBRANCH 10 26
ENDBRANCH 8 10
ENDBRANCH 5 6
BRANCH 5 32
ATOM     32  CB  HIS X   1       5.618   4.636  19.315  1.00 48.25 LIG 0.10  C 
BRANCH 32 33
ATOM     33  CG  HIS X   1       6.728   5.560  18.922  1.00 50.36 LIG 0.06  A 
ATOM     34  CD2 HIS X   1       8.008   5.307  18.556  1.00 51.47 LIG 0.14  A 
ATOM     35 NE2  HIS X   1       8.599   6.519  18.288  1.00 50.72 LIG-0.25  NA
ATOM     36  CE1 HIS X   1       7.713   7.480  18.481  1.00 48.50 LIG 0.23  A 
ATOM     37 ND1  HIS X   1       6.575   6.931  18.866  1.00 47.89 LIG-0.24  NA
ENDBRANCH 32 33
ENDBRANCH 5 32
ENDBRANCH 1 5
BRANCH 3 38
ATOM     38  CA  HIS X   2       2.455   1.118  17.930  1.00 26.25 LIG 0.18  C 
BRANCH 38 39
ATOM     39  C   HIS X   2       1.853   0.995  19.326  1.00 23.72 LIG 0.24  C 
ATOM     40  N   HIS X   3       0.536   0.862  19.336  1.00 22.33 LIG-0.35  N 
ATOM     41 H    HIS X   3       0.051   0.861  18.626  1.00 22.33 LIG 0.16  HD
ATOM     42 O    HIS X   2       2.544   1.033  20.354  1.00 19.88 LIG-0.27  OA
BRANCH 40 43
ATOM     43  CA  HIS X   3      -0.223   0.701  20.586  1.00 22.38 LIG 0.18  C 
BRANCH 43 44
ATOM     44  CB  HIS X   3       0.334  -0.429  21.508  1.00 22.51 LIG 0.10  C 
BRANCH 44 45
ATOM     45  CG  HIS X   3       0.548  -1.759  20.841  1.00 18.10 LIG 0.06  A 
ATOM     46  CD2 HIS X   3       1.679  -2.405  20.466  1.00 18.75 LIG 0.14  A 
ATOM     47 NE2  HIS X   3       1.299  -3.619  19.941  1.00 20.06 LIG-0.25  NA
ATOM     48  CE1 HIS X   3      -0.016  -3.719  20.006  1.00 21.69 LIG 0.23  A 
ATOM     49 ND1  HIS X   3      -0.489  -2.615  20.560  1.00 17.48 LIG-0.24  NA
ENDBRANCH 44 45
ENDBRANCH 43 44
BRANCH 43 50
ATOM     50  C   HIS X   3      -0.374   2.034  21.318  1.00 21.59 LIG 0.24  C 
ATOM     51 O    HIS X   3      -1.339   2.279  22.033  1.00 25.47 LIG-0.27  OA
ATOM     52  N   HIS X   4       0.574   2.915  21.074  1.00 25.63 LIG-0.35  N 
ATOM     53 H    HIS X   4       1.243   2.775  20.552  1.00 25.63 LIG 0.16  HD
BRANCH 52 54
ATOM     54  CA  HIS X   4       0.550   4.241  21.698  1.00 23.96 LIG 0.17  C 
BRANCH 54 55
ATOM     55  C   HIS X   4      -0.719   4.967  21.240  1.00 31.35 LIG 0.22  C 
ATOM     56 O    HIS X   4      -1.002   5.069  20.045  1.00 37.06 LIG-0.29  OA
ENDBRANCH 54 55
BRANCH 54 57
ATOM     57  CB  HIS X   4       1.808   5.053  21.362  1.00 23.83 LIG 0.09  C 
BRANCH 57 58
ATOM     58  CG  HIS X   4       2.141   6.113  22.379  1.00 22.57 LIG 0.06  A 
ATOM     59 ND1  HIS X   4       1.854   7.453  22.194  1.00 22.63 LIG-0.24  NA
ATOM     60  CE1 HIS X   4       2.256   8.137  23.252  1.00 19.94 LIG 0.23  A 
ATOM     61 NE2  HIS X   4       2.807   7.296  24.107  1.00 20.25 LIG-0.25  NA
ATOM     62  CD2 HIS X   4       2.734   6.024  23.591  1.00 21.52 LIG 0.14  A 
ENDBRANCH 57 58
ENDBRANCH 54 57
ENDBRANCH 52 54
ENDBRANCH 43 50
ENDBRANCH 40 43
ENDBRANCH 38 39
BRANCH 38 63
ATOM     63  CB  HIS X   2       2.585  -0.277  17.307  1.00 28.74 LIG 0.10  C 
BRANCH 63 64
ATOM     64  CG  HIS X   2       1.278  -0.898  16.944  1.00 28.63 LIG 0.06  A 
ATOM     65 ND1  HIS X   2       1.058  -2.253  17.033  1.00 31.27 LIG-0.24  NA
ATOM     66  CE1 HIS X   2      -0.182  -2.521  16.669  1.00 28.11 LIG 0.23  A 
ATOM     67 NE2  HIS X   2      -0.774  -1.390  16.337  1.00 29.87 LIG-0.25  NA
ATOM     68  CD2 HIS X   2       0.116  -0.356  16.508  1.00 31.84 LIG 0.14  A 
ENDBRANCH 63 64
ENDBRANCH 38 63
ENDBRANCH 3 38
TORSDOF 24
ENDMDL
MODEL 51
USER: ADFR SOLUTION from run 8
USER: SCORE 17.962632 LL:  -5.432 LR: -13.684 RR:   0.000 FEB:  -6.524
USER: RMSD 5.647763
USER: SEED 195990
USER: STATUS no improvement in best in 7 clusters for 5 generations
USER: GENES 26
USER: genes 0 Translation |==|  0.43602 0.56000 0.28734
USER: genes 1 Rotation |==|  0.29218 0.22883 0.44039 0.86017
USER: genes 2 Torsion [N]-C--CA-[N] |==|  0.08270
USER: genes 3 Torsion [C]-CA--N-[C] |==|  0.73203
USER: genes 4 Torsion [N]-C--CA-[N] |==|  0.06546
USER: genes 5 Torsion [C]-CA--N-[C] |==|  0.65619
USER: genes 6 Torsion [N]-C--CA-[N] |==|  0.96667
USER: genes 7 Torsion [C]-CA--N-[H2] |==|  0.09801
USER: genes 8 Torsion [C]-CA--CB-[CG] |==|  0.55054
USER: genes 9 Torsion [CA]-CB--CG-[ND1] |==|  0.35972
USER: genes 10 Torsion [C]-CA--CB-[CG] |==|  0.56984
USER: genes 11 Torsion [CA]-CB--CG-[CD2] |==|  0.32439
USER: genes 12 Torsion [C]-CA--CB-[CG] |==|  0.70103
USER: genes 13 Torsion [CA]-CB--CG-[CD2] |==|  0.63278
USER: genes 14 Torsion [C]-N--CA-[C] |==|  0.75256
USER: genes 15 Torsion [N]-CA--C-[N] |==|  0.34197
USER: genes 16 Torsion [C]-N--CA-[CB] |==|  0.52385
USER: genes 17 Torsion [N]-CA--CB-[CG] |==|  0.17685
USER: genes 18 Torsion [CA]-CB--CG-[ND1] |==|  0.31635
USER: genes 19 Torsion [N]-CA--C-[N] |==|  0.38049
USER: genes 20 Torsion [C]-N--CA-[C] |==|  0.78485
USER: genes 21 Torsion [N]-CA--C-[O] |==|  0.05677
USER: genes 22 Torsion [N]-CA--CB-[CG] |==|  0.86171
USER: genes 23 Torsion [CA]-CB--CG-[ND1] |==|  0.86394
USER: genes 24 Torsion [N]-CA--CB-[CG] |==|  0.62853
USER: genes 25 Torsion [CA]-CB--CG-[CD2] |==|  0.79648
ROOT
ATOM      1  C   HIS X   1       1.334   1.458  15.742  1.00 40.87 LIG 0.24  C 
ATOM      2 O    HIS X   1       0.756   1.196  14.683  1.00 40.80 LIG-0.27  OA
ATOM      3  N   HIS X   2       1.596   0.580  16.690  1.00 30.16 LIG-0.35  N 
ATOM      4 H    HIS X   2       1.984   0.785  17.430  1.00 30.16 LIG 0.16  HD
ENDROOT
BRANCH 1 5
ATOM      5  CA  HIS X   1       1.829   2.850  16.075  1.00 48.06 LIG 0.18  C 
BRANCH 5 6
ATOM      6  N   HIS X   1       3.014   2.756  16.932  1.00 54.11 LIG-0.35  N 
ATOM      7 H    HIS X   1       3.748   2.635  16.501  1.00 54.11 LIG 0.16  HD
ATOM      8  C   HIS X   0       2.949   2.851  18.244  1.00 58.54 LIG 0.24  C 
ATOM      9 O    HIS X   0       1.899   2.793  18.887  1.00 63.37 LIG-0.27  OA
BRANCH 8 10
ATOM     10  CA  HIS X   0       4.298   3.043  18.917  1.00 62.53 LIG 0.18  C 
BRANCH 10 11
ATOM     11  N   HIS X   0       5.297   3.622  18.011  1.00 60.73 LIG-0.35  N 
ATOM     12  C   HIS X  -1       6.447   3.009  17.781  1.00 60.09 LIG 0.25  C 
ATOM     13 O    HIS X  -1       6.605   1.792  17.899  1.00 62.79 LIG-0.27  OA
ATOM     14 H    HIS X   0       5.069   4.372  17.657  1.00 60.73 LIG 0.16  HD
BRANCH 12 15
ATOM     15  CA  HIS X  -1       7.576   3.920  17.313  1.00 59.53 LIG 0.28  C 
BRANCH 15 16
ATOM     16  N   HIS X  -1       7.026   5.268  16.945  1.00 57.14 LIG-0.07  N 
ATOM     17 H3   HIS X  -1       7.667   5.881  17.022  1.00 57.14 LIG 0.28  HD
ATOM     18 H2   HIS X  -1       6.353   5.473  17.491  1.00 57.14 LIG 0.28  HD
ATOM     19 H1   HIS X  -1       6.732   5.250  16.105  1.00 57.14 LIG 0.28  HD
ENDBRANCH 15 16
BRANCH 15 20
ATOM     20  CB  HIS X  -1       8.658   4.054  18.385  1.00 57.27 LIG 0.10  C 
BRANCH 20 21
ATOM     21  CG  HIS X  -1       9.557   5.232  18.191  1.00 54.13 LIG 0.06  A 
ATOM     22 ND1  HIS X  -1       9.827   6.135  19.198  1.00 52.72 LIG-0.24  NA
ATOM     23  CE1 HIS X  -1      10.633   7.076  18.735  1.00 54.35 LIG 0.23  A 
ATOM     24 NE2  HIS X  -1      10.894   6.818  17.465  1.00 53.65 LIG-0.25  NA
ATOM     25  CD2 HIS X  -1      10.233   5.667  17.101  1.00 55.23 LIG 0.14  A 
ENDBRANCH 20 21
ENDBRANCH 15 20
ENDBRANCH 12 15
ENDBRANCH 10 11
BRANCH 10 26
ATOM     26  CB  HIS X   0       4.134   3.886  20.199  1.00 64.99 LIG 0.10  C 
BRANCH 26 27
ATOM     27  CG  HIS X   0       5.373   4.628  20.611  1.00 69.41 LIG 0.06  A 
ATOM     28 ND1  HIS X   0       6.547   3.987  20.955  1.00 72.01 LIG-0.24  NA
ATOM     29  CE1 HIS X   0       7.466   4.886  21.263  1.00 72.69 LIG 0.23  A 
ATOM     30 NE2  HIS X   0       6.934   6.088  21.126  1.00 72.94 LIG-0.25  NA
ATOM     31  CD2 HIS X   0       5.627   5.955  20.715  1.00 71.12 LIG 0.14  A 
ENDBRANCH 26 27
ENDBRANCH 10 26
ENDBRANCH 8 10
ENDBRANCH 5 6
BRANCH 5 32
ATOM     32  CB  HIS X   1       2.161   3.611  14.793  1.00 48.25 LIG 0.10  C 
BRANCH 32 33
ATOM     33  CG  HIS X   1       3.630   3.793  14.566  1.00 50.36 LIG 0.06  A 
ATOM     34  CD2 HIS X   1       4.348   4.893  14.230  1.00 51.47 LIG 0.14  A 
ATOM     35 NE2  HIS X   1       5.666   4.509  14.158  1.00 50.72 LIG-0.25  NA
ATOM     36  CE1 HIS X   1       5.752   3.221  14.441  1.00 48.50 LIG 0.23  A 
ATOM     37 ND1  HIS X   1       4.539   2.763  14.689  1.00 47.89 LIG-0.24  NA
ENDBRANCH 32 33
ENDBRANCH 5 32
ENDBRANCH 1 5
BRANCH 3 38
ATOM     38  CA  HIS X   2       1.246  -0.854  16.576  1.00 26.25 LIG 0.18  C 
BRANCH 38 39
ATOM     39  C   HIS X   2      -0.154  -1.165  17.095  1.00 23.72 LIG 0.24  C 
ATOM     40  N   HIS X   3      -0.943  -1.746  16.205  1.00 22.33 LIG-0.35  N 
ATOM     41 H    HIS X   3      -0.704  -1.922  15.398  1.00 22.33 LIG 0.16  HD
ATOM     42 O    HIS X   2      -0.516  -0.880  18.246  1.00 19.88 LIG-0.27  OA
BRANCH 40 43
ATOM     43  CA  HIS X   3      -2.321  -2.148  16.527  1.00 22.38 LIG 0.18  C 
BRANCH 43 44
ATOM     44  CB  HIS X   3      -2.995  -3.000  15.407  1.00 22.51 LIG 0.10  C 
BRANCH 44 45
ATOM     45  CG  HIS X   3      -2.354  -4.332  15.134  1.00 18.10 LIG 0.06  A 
ATOM     46  CD2 HIS X   3      -1.113  -4.660  14.696  1.00 18.75 LIG 0.14  A 
ATOM     47 NE2  HIS X   3      -1.041  -6.034  14.669  1.00 20.06 LIG-0.25  NA
ATOM     48  CE1 HIS X   3      -2.189  -6.530  15.090  1.00 21.69 LIG 0.23  A 
ATOM     49 ND1  HIS X   3      -2.991  -5.522  15.392  1.00 17.48 LIG-0.24  NA
ENDBRANCH 44 45
ENDBRANCH 43 44
BRANCH 43 50
ATOM     50  C   HIS X   3      -2.397  -2.817  17.899  1.00 21.59 LIG 0.24  C 
ATOM     51 O    HIS X   3      -1.598  -3.678  18.248  1.00 25.47 LIG-0.27  OA
ATOM     52  N   HIS X   4      -3.414  -2.444  18.647  1.00 25.63 LIG-0.35  N 
ATOM     53 H    HIS X   4      -4.003  -1.863  18.409  1.00 25.63 LIG 0.16  HD
BRANCH 52 54
ATOM     54  CA  HIS X   4      -3.618  -3.013  19.982  1.00 23.96 LIG 0.17  C 
BRANCH 54 55
ATOM     55  C   HIS X   4      -4.219  -4.413  19.823  1.00 31.35 LIG 0.22  C 
ATOM     56 O    HIS X   4      -4.116  -5.037  18.765  1.00 37.06 LIG-0.29  OA
ENDBRANCH 54 55
BRANCH 54 57
ATOM     57  CB  HIS X   4      -4.509  -2.119  20.854  1.00 23.83 LIG 0.09  C 
BRANCH 57 58
ATOM     58  CG  HIS X   4      -4.088  -0.674  20.879  1.00 22.57 LIG 0.06  A 
ATOM     59 ND1  HIS X   4      -2.787  -0.270  21.114  1.00 22.63 LIG-0.24  NA
ATOM     60  CE1 HIS X   4      -2.723   1.050  21.070  1.00 19.94 LIG 0.23  A 
ATOM     61 NE2  HIS X   4      -3.933   1.518  20.833  1.00 20.25 LIG-0.25  NA
ATOM     62  CD2 HIS X   4      -4.802   0.461  20.696  1.00 21.52 LIG 0.14  A 
ENDBRANCH 57 58
ENDBRANCH 54 57
ENDBRANCH 52 54
ENDBRANCH 43 50
ENDBRANCH 40 43
ENDBRANCH 38 39
BRANCH 38 63
ATOM     63  CB  HIS X   2       2.268  -1.726  17.315  1.00 28.74 LIG 0.10  C 
BRANCH 63 64
ATOM     64  CG  HIS X   2       2.729  -2.908  16.529  1.00 28.63 LIG 0.06  A 
ATOM     65 ND1  HIS X   2       3.989  -2.982  15.984  1.00 31.27 LIG-0.24  NA
ATOM     66  CE1 HIS X   2       4.131  -4.137  15.361  1.00 28.11 LIG 0.23  A 
ATOM     67 NE2  HIS X   2       3.005  -4.814  15.473  1.00 29.87 LIG-0.25  NA
ATOM     68  CD2 HIS X   2       2.111  -4.070  16.208  1.00 31.84 LIG 0.14  A 
ENDBRANCH 63 64
ENDBRANCH 38 63
ENDBRANCH 3 38
TORSDOF 24
ENDMDL
MODEL 52
USER: ADFR SOLUTION from run 30
USER: SCORE 17.064328 LL:  -5.171 LR: -13.677 RR:   0.000 FEB:  -6.518
USER: RMSD 6.422964
USER: SEED 29
USER: STATUS no improvement in best in 14 clusters for 5 generations
USER: GENES 26
USER: genes 0 Translation |==|  0.48655 0.53407 0.40992
USER: genes 1 Rotation |==|  0.61662 0.96144 0.56803 0.63727
USER: genes 2 Torsion [N]-C--CA-[N] |==|  0.22741
USER: genes 3 Torsion [C]-CA--N-[C] |==|  0.14961
USER: genes 4 Torsion [N]-C--CA-[N] |==|  0.19879
USER: genes 5 Torsion [C]-CA--N-[C] |==|  0.63234
USER: genes 6 Torsion [N]-C--CA-[N] |==|  0.43975
USER: genes 7 Torsion [C]-CA--N-[H2] |==|  0.63393
USER: genes 8 Torsion [C]-CA--CB-[CG] |==|  0.55241
USER: genes 9 Torsion [CA]-CB--CG-[ND1] |==|  0.34447
USER: genes 10 Torsion [C]-CA--CB-[CG] |==|  0.38948
USER: genes 11 Torsion [CA]-CB--CG-[CD2] |==|  0.56603
USER: genes 12 Torsion [C]-CA--CB-[CG] |==|  0.41426
USER: genes 13 Torsion [CA]-CB--CG-[CD2] |==|  0.03440
USER: genes 14 Torsion [C]-N--CA-[C] |==|  0.73273
USER: genes 15 Torsion [N]-CA--C-[N] |==|  0.45867
USER: genes 16 Torsion [C]-N--CA-[CB] |==|  0.79794
USER: genes 17 Torsion [N]-CA--CB-[CG] |==|  0.99668
USER: genes 18 Torsion [CA]-CB--CG-[ND1] |==|  0.78769
USER: genes 19 Torsion [N]-CA--C-[N] |==|  0.28889
USER: genes 20 Torsion [C]-N--CA-[C] |==|  0.16584
USER: genes 21 Torsion [N]-CA--C-[O] |==|  0.00729
USER: genes 22 Torsion [N]-CA--CB-[CG] |==|  0.89719
USER: genes 23 Torsion [CA]-CB--CG-[ND1] |==|  0.19797
USER: genes 24 Torsion [N]-CA--CB-[CG] |==|  0.76468
USER: genes 25 Torsion [CA]-CB--CG-[CD2] |==|  0.55731
ROOT
ATOM      1  C   HIS X   1       2.358   0.836  17.948  1.00 40.87 LIG 0.24  C 
ATOM      2 O    HIS X   1       3.333   0.209  18.373  1.00 40.80 LIG-0.27  OA
ATOM      3  N   HIS X   2       1.120   0.381  17.940  1.00 30.16 LIG-0.35  N 
ATOM      4 H    HIS X   2       0.456   0.825  17.624  1.00 30.16 LIG 0.16  HD
ENDROOT
BRANCH 1 5
ATOM      5  CA  HIS X   1       2.475   2.235  17.383  1.00 48.06 LIG 0.18  C 
BRANCH 5 6
ATOM      6  N   HIS X   1       2.120   3.212  18.417  1.00 54.11 LIG-0.35  N 
ATOM      7 H    HIS X   1       1.507   3.766  18.179  1.00 54.11 LIG 0.16  HD
ATOM      8  C   HIS X   0       2.695   3.231  19.602  1.00 58.54 LIG 0.24  C 
ATOM      9 O    HIS X   0       3.722   2.607  19.877  1.00 63.37 LIG-0.27  OA
BRANCH 8 10
ATOM     10  CA  HIS X   0       1.980   4.101  20.622  1.00 62.53 LIG 0.18  C 
BRANCH 10 11
ATOM     11  N   HIS X   0       0.710   3.512  21.064  1.00 60.73 LIG-0.35  N 
ATOM     12  C   HIS X  -1      -0.398   4.235  21.110  1.00 60.09 LIG 0.25  C 
ATOM     13 O    HIS X  -1      -0.588   5.234  20.413  1.00 62.79 LIG-0.27  OA
ATOM     14 H    HIS X   0       0.756   2.682  21.283  1.00 60.73 LIG 0.16  HD
BRANCH 12 15
ATOM     15  CA  HIS X  -1      -1.461   3.719  22.073  1.00 59.53 LIG 0.28  C 
BRANCH 15 16
ATOM     16  N   HIS X  -1      -2.398   4.832  22.443  1.00 57.14 LIG-0.07  N 
ATOM     17 H3   HIS X  -1      -2.059   5.609  22.171  1.00 57.14 LIG 0.28  HD
ATOM     18 H2   HIS X  -1      -2.505   4.849  23.327  1.00 57.14 LIG 0.28  HD
ATOM     19 H1   HIS X  -1      -3.186   4.700  22.051  1.00 57.14 LIG 0.28  HD
ENDBRANCH 15 16
BRANCH 15 20
ATOM     20  CB  HIS X  -1      -2.232   2.545  21.468  1.00 57.27 LIG 0.10  C 
BRANCH 20 21
ATOM     21  CG  HIS X  -1      -3.544   2.279  22.131  1.00 54.13 LIG 0.06  A 
ATOM     22 ND1  HIS X  -1      -4.736   2.253  21.438  1.00 52.72 LIG-0.24  NA
ATOM     23  CE1 HIS X  -1      -5.726   2.014  22.281  1.00 54.35 LIG 0.23  A 
ATOM     24 NE2  HIS X  -1      -5.220   1.886  23.496  1.00 53.65 LIG-0.25  NA
ATOM     25  CD2 HIS X  -1      -3.856   2.045  23.428  1.00 55.23 LIG 0.14  A 
ENDBRANCH 20 21
ENDBRANCH 15 20
ENDBRANCH 12 15
ENDBRANCH 10 11
BRANCH 10 26
ATOM     26  CB  HIS X   0       2.917   4.397  21.813  1.00 64.99 LIG 0.10  C 
BRANCH 26 27
ATOM     27  CG  HIS X   0       2.821   5.802  22.336  1.00 69.41 LIG 0.06  A 
ATOM     28 ND1  HIS X   0       1.693   6.581  22.178  1.00 72.01 LIG-0.24  NA
ATOM     29  CE1 HIS X   0       1.890   7.761  22.742  1.00 72.69 LIG 0.23  A 
ATOM     30 NE2  HIS X   0       3.104   7.773  23.264  1.00 72.94 LIG-0.25  NA
ATOM     31  CD2 HIS X   0       3.706   6.559  23.028  1.00 71.12 LIG 0.14  A 
ENDBRANCH 26 27
ENDBRANCH 10 26
ENDBRANCH 8 10
ENDBRANCH 5 6
BRANCH 5 32
ATOM     32  CB  HIS X   1       3.896   2.485  16.885  1.00 48.25 LIG 0.10  C 
BRANCH 32 33
ATOM     33  CG  HIS X   1       3.970   3.430  15.726  1.00 50.36 LIG 0.06  A 
ATOM     34  CD2 HIS X   1       3.038   4.259  15.194  1.00 51.47 LIG 0.14  A 
ATOM     35 NE2  HIS X   1       3.632   4.915  14.143  1.00 50.72 LIG-0.25  NA
ATOM     36  CE1 HIS X   1       4.884   4.503  14.034  1.00 48.50 LIG 0.23  A 
ATOM     37 ND1  HIS X   1       5.114   3.607  14.976  1.00 47.89 LIG-0.24  NA
ENDBRANCH 32 33
ENDBRANCH 5 32
ENDBRANCH 1 5
BRANCH 3 38
ATOM     38  CA  HIS X   2       0.749  -0.947  18.479  1.00 26.25 LIG 0.18  C 
BRANCH 38 39
ATOM     39  C   HIS X   2       0.673  -2.024  17.401  1.00 23.72 LIG 0.24  C 
ATOM     40  N   HIS X   3       0.653  -3.259  17.874  1.00 22.33 LIG-0.35  N 
ATOM     41 H    HIS X   3       0.696  -3.452  18.711  1.00 22.33 LIG 0.16  HD
ATOM     42 O    HIS X   2       0.649  -1.753  16.192  1.00 19.88 LIG-0.27  OA
BRANCH 40 43
ATOM     43  CA  HIS X   3       0.554  -4.432  16.989  1.00 22.38 LIG 0.18  C 
BRANCH 43 44
ATOM     44  CB  HIS X   3      -0.863  -4.615  16.361  1.00 22.51 LIG 0.10  C 
BRANCH 44 45
ATOM     45  CG  HIS X   3      -1.889  -3.598  16.775  1.00 18.10 LIG 0.06  A 
ATOM     46  CD2 HIS X   3      -2.454  -2.564  16.102  1.00 18.75 LIG 0.14  A 
ATOM     47 NE2  HIS X   3      -3.372  -1.983  16.946  1.00 20.06 LIG-0.25  NA
ATOM     48  CE1 HIS X   3      -3.382  -2.645  18.088  1.00 21.69 LIG 0.23  A 
ATOM     49 ND1  HIS X   3      -2.506  -3.633  18.002  1.00 17.48 LIG-0.24  NA
ENDBRANCH 44 45
ENDBRANCH 43 44
BRANCH 43 50
ATOM     50  C   HIS X   3       1.665  -4.431  15.941  1.00 21.59 LIG 0.24  C 
ATOM     51 O    HIS X   3       1.610  -3.731  14.936  1.00 25.47 LIG-0.27  OA
ATOM     52  N   HIS X   4       2.648  -5.276  16.168  1.00 25.63 LIG-0.35  N 
ATOM     53 H    HIS X   4       2.691  -5.798  16.851  1.00 25.63 LIG 0.16  HD
BRANCH 52 54
ATOM     54  CA  HIS X   4       3.776  -5.391  15.238  1.00 23.96 LIG 0.17  C 
BRANCH 54 55
ATOM     55  C   HIS X   4       4.463  -4.025  15.144  1.00 31.35 LIG 0.22  C 
ATOM     56 O    HIS X   4       4.083  -3.069  15.823  1.00 37.06 LIG-0.29  OA
ENDBRANCH 54 55
BRANCH 54 57
ATOM     57  CB  HIS X   4       3.329  -5.886  13.857  1.00 23.83 LIG 0.09  C 
BRANCH 57 58
ATOM     58  CG  HIS X   4       2.232  -6.917  13.902  1.00 22.57 LIG 0.06  A 
ATOM     59 ND1  HIS X   4       0.929  -6.618  14.253  1.00 22.63 LIG-0.24  NA
ATOM     60  CE1 HIS X   4       0.196  -7.718  14.197  1.00 19.94 LIG 0.23  A 
ATOM     61 NE2  HIS X   4       0.977  -8.720  13.840  1.00 20.25 LIG-0.25  NA
ATOM     62  CD2 HIS X   4       2.251  -8.243  13.637  1.00 21.52 LIG 0.14  A 
ENDBRANCH 57 58
ENDBRANCH 54 57
ENDBRANCH 52 54
ENDBRANCH 43 50
ENDBRANCH 40 43
ENDBRANCH 38 39
BRANCH 38 63
ATOM     63  CB  HIS X   2      -0.589  -0.879  19.226  1.00 28.74 LIG 0.10  C 
BRANCH 63 64
ATOM     64  CG  HIS X   2      -0.462  -0.445  20.648  1.00 28.63 LIG 0.06  A 
ATOM     65 ND1  HIS X   2       0.625   0.262  21.106  1.00 31.27 LIG-0.24  NA
ATOM     66  CE1 HIS X   2       0.466   0.527  22.390  1.00 28.11 LIG 0.23  A 
ATOM     67 NE2  HIS X   2      -0.680   0.008  22.786  1.00 29.87 LIG-0.25  NA
ATOM     68  CD2 HIS X   2      -1.286  -0.600  21.711  1.00 31.84 LIG 0.14  A 
ENDBRANCH 63 64
ENDBRANCH 38 63
ENDBRANCH 3 38
TORSDOF 24
ENDMDL
MODEL 53
USER: ADFR SOLUTION from run 8
USER: SCORE 18.085430 LL:  -5.914 LR: -13.666 RR:   0.000 FEB:  -6.507
USER: RMSD 5.481463
USER: SEED 195990
USER: STATUS no improvement in best in 7 clusters for 5 generations
USER: GENES 26
USER: genes 0 Translation |==|  0.43737 0.55639 0.31900
USER: genes 1 Rotation |==|  0.31733 0.24394 0.40483 0.87684
USER: genes 2 Torsion [N]-C--CA-[N] |==|  0.13251
USER: genes 3 Torsion [C]-CA--N-[C] |==|  0.60588
USER: genes 4 Torsion [N]-C--CA-[N] |==|  0.14772
USER: genes 5 Torsion [C]-CA--N-[C] |==|  0.71944
USER: genes 6 Torsion [N]-C--CA-[N] |==|  0.97764
USER: genes 7 Torsion [C]-CA--N-[H2] |==|  0.12616
USER: genes 8 Torsion [C]-CA--CB-[CG] |==|  0.16431
USER: genes 9 Torsion [CA]-CB--CG-[ND1] |==|  0.23857
USER: genes 10 Torsion [C]-CA--CB-[CG] |==|  0.73114
USER: genes 11 Torsion [CA]-CB--CG-[CD2] |==|  0.35356
USER: genes 12 Torsion [C]-CA--CB-[CG] |==|  0.70433
USER: genes 13 Torsion [CA]-CB--CG-[CD2] |==|  0.73075
USER: genes 14 Torsion [C]-N--CA-[C] |==|  0.74992
USER: genes 15 Torsion [N]-CA--C-[N] |==|  0.35431
USER: genes 16 Torsion [C]-N--CA-[CB] |==|  0.54246
USER: genes 17 Torsion [N]-CA--CB-[CG] |==|  0.17284
USER: genes 18 Torsion [CA]-CB--CG-[ND1] |==|  0.34257
USER: genes 19 Torsion [N]-CA--C-[N] |==|  0.37279
USER: genes 20 Torsion [C]-N--CA-[C] |==|  0.78535
USER: genes 21 Torsion [N]-CA--C-[O] |==|  0.05673
USER: genes 22 Torsion [N]-CA--CB-[CG] |==|  0.86483
USER: genes 23 Torsion [CA]-CB--CG-[ND1] |==|  0.86338
USER: genes 24 Torsion [N]-CA--CB-[CG] |==|  0.97291
USER: genes 25 Torsion [CA]-CB--CG-[CD2] |==|  0.23443
ROOT
ATOM      1  C   HIS X   1       1.362   1.371  16.312  1.00 40.87 LIG 0.24  C 
ATOM      2 O    HIS X   1       0.765   1.346  15.232  1.00 40.80 LIG-0.27  OA
ATOM      3  N   HIS X   2       1.567   0.319  17.079  1.00 30.16 LIG-0.35  N 
ATOM      4 H    HIS X   2       1.970   0.359  17.838  1.00 30.16 LIG 0.16  HD
ENDROOT
BRANCH 1 5
ATOM      5  CA  HIS X   1       1.947   2.644  16.887  1.00 48.06 LIG 0.18  C 
BRANCH 5 6
ATOM      6  N   HIS X   1       3.325   2.396  17.322  1.00 54.11 LIG-0.35  N 
ATOM      7 H    HIS X   1       3.767   1.873  16.801  1.00 54.11 LIG 0.16  HD
ATOM      8  C   HIS X   0       3.831   2.930  18.414  1.00 58.54 LIG 0.24  C 
ATOM      9 O    HIS X   0       3.157   3.485  19.284  1.00 63.37 LIG-0.27  OA
BRANCH 8 10
ATOM     10  CA  HIS X   0       5.342   2.807  18.518  1.00 62.53 LIG 0.18  C 
BRANCH 10 11
ATOM     11  N   HIS X   0       6.028   3.320  17.326  1.00 60.73 LIG-0.35  N 
ATOM     12  C   HIS X  -1       6.487   2.498  16.397  1.00 60.09 LIG 0.25  C 
ATOM     13 O    HIS X  -1       6.027   1.371  16.197  1.00 62.79 LIG-0.27  OA
ATOM     14 H    HIS X   0       6.099   4.176  17.293  1.00 60.73 LIG 0.16  HD
BRANCH 12 15
ATOM     15  CA  HIS X  -1       7.620   3.061  15.546  1.00 59.53 LIG 0.28  C 
BRANCH 15 16
ATOM     16  N   HIS X  -1       7.814   4.518  15.854  1.00 57.14 LIG-0.07  N 
ATOM     17 H3   HIS X  -1       8.595   4.789  15.524  1.00 57.14 LIG 0.28  HD
ATOM     18 H2   HIS X  -1       7.806   4.639  16.736  1.00 57.14 LIG 0.28  HD
ATOM     19 H1   HIS X  -1       7.156   4.990  15.483  1.00 57.14 LIG 0.28  HD
ENDBRANCH 15 16
BRANCH 15 20
ATOM     20  CB  HIS X  -1       8.919   2.286  15.772  1.00 57.27 LIG 0.10  C 
BRANCH 20 21
ATOM     21  CG  HIS X  -1       8.816   0.829  15.451  1.00 54.13 LIG 0.06  A 
ATOM     22 ND1  HIS X  -1       9.005   0.333  14.179  1.00 52.72 LIG-0.24  NA
ATOM     23  CE1 HIS X  -1       8.835  -0.979  14.193  1.00 54.35 LIG 0.23  A 
ATOM     24 NE2  HIS X  -1       8.542  -1.351  15.427  1.00 53.65 LIG-0.25  NA
ATOM     25  CD2 HIS X  -1       8.526  -0.237  16.235  1.00 55.23 LIG 0.14  A 
ENDBRANCH 20 21
ENDBRANCH 15 20
ENDBRANCH 12 15
ENDBRANCH 10 11
BRANCH 10 26
ATOM     26  CB  HIS X   0       5.840   3.500  19.805  1.00 64.99 LIG 0.10  C 
BRANCH 26 27
ATOM     27  CG  HIS X   0       6.333   4.903  19.597  1.00 69.41 LIG 0.06  A 
ATOM     28 ND1  HIS X   0       7.270   5.230  18.637  1.00 72.01 LIG-0.24  NA
ATOM     29  CE1 HIS X   0       7.506   6.530  18.677  1.00 72.69 LIG 0.23  A 
ATOM     30 NE2  HIS X   0       6.753   7.060  19.625  1.00 72.94 LIG-0.25  NA
ATOM     31  CD2 HIS X   0       6.007   6.065  20.213  1.00 71.12 LIG 0.14  A 
ENDBRANCH 26 27
ENDBRANCH 10 26
ENDBRANCH 8 10
ENDBRANCH 5 6
BRANCH 5 32
ATOM     32  CB  HIS X   1       1.914   3.758  15.843  1.00 48.25 LIG 0.10  C 
BRANCH 32 33
ATOM     33  CG  HIS X   1       3.257   4.081  15.266  1.00 50.36 LIG 0.06  A 
ATOM     34  CD2 HIS X   1       4.151   5.049  15.583  1.00 51.47 LIG 0.14  A 
ATOM     35 NE2  HIS X   1       5.230   4.893  14.746  1.00 50.72 LIG-0.25  NA
ATOM     36  CE1 HIS X   1       5.005   3.865  13.945  1.00 48.50 LIG 0.23  A 
ATOM     37 ND1  HIS X   1       3.821   3.358  14.235  1.00 47.89 LIG-0.24  NA
ENDBRANCH 32 33
ENDBRANCH 5 32
ENDBRANCH 1 5
BRANCH 3 38
ATOM     38  CA  HIS X   2       1.124  -1.044  16.709  1.00 26.25 LIG 0.18  C 
BRANCH 38 39
ATOM     39  C   HIS X   2      -0.284  -1.363  17.202  1.00 23.72 LIG 0.24  C 
ATOM     40  N   HIS X   3      -1.098  -1.806  16.259  1.00 22.33 LIG-0.35  N 
ATOM     41 H    HIS X   3      -0.871  -1.895  15.434  1.00 22.33 LIG 0.16  HD
ATOM     42 O    HIS X   2      -0.627  -1.203  18.383  1.00 19.88 LIG-0.27  OA
BRANCH 40 43
ATOM     43  CA  HIS X   3      -2.489  -2.193  16.546  1.00 22.38 LIG 0.18  C 
BRANCH 43 44
ATOM     44  CB  HIS X   3      -3.147  -3.029  15.403  1.00 22.51 LIG 0.10  C 
BRANCH 44 45
ATOM     45  CG  HIS X   3      -2.496  -4.351  15.112  1.00 18.10 LIG 0.06  A 
ATOM     46  CD2 HIS X   3      -1.208  -4.679  14.841  1.00 18.75 LIG 0.14  A 
ATOM     47 NE2  HIS X   3      -1.157  -6.047  14.700  1.00 20.06 LIG-0.25  NA
ATOM     48  CE1 HIS X   3      -2.366  -6.541  14.894  1.00 21.69 LIG 0.23  A 
ATOM     49 ND1  HIS X   3      -3.187  -5.538  15.160  1.00 17.48 LIG-0.24  NA
ENDBRANCH 44 45
ENDBRANCH 43 44
BRANCH 43 50
ATOM     50  C   HIS X   3      -2.604  -2.872  17.910  1.00 21.59 LIG 0.24  C 
ATOM     51 O    HIS X   3      -1.855  -3.780  18.251  1.00 25.47 LIG-0.27  OA
ATOM     52  N   HIS X   4      -3.601  -2.451  18.661  1.00 25.63 LIG-0.35  N 
ATOM     53 H    HIS X   4      -4.156  -1.836  18.429  1.00 25.63 LIG 0.16  HD
BRANCH 52 54
ATOM     54  CA  HIS X   4      -3.839  -3.022  19.990  1.00 23.96 LIG 0.17  C 
BRANCH 54 55
ATOM     55  C   HIS X   4      -4.513  -4.387  19.814  1.00 31.35 LIG 0.22  C 
ATOM     56 O    HIS X   4      -4.440  -5.004  18.750  1.00 37.06 LIG-0.29  OA
ENDBRANCH 54 55
BRANCH 54 57
ATOM     57  CB  HIS X   4      -4.685  -2.092  20.868  1.00 23.83 LIG 0.09  C 
BRANCH 57 58
ATOM     58  CG  HIS X   4      -4.203  -0.665  20.889  1.00 22.57 LIG 0.06  A 
ATOM     59 ND1  HIS X   4      -2.885  -0.316  21.116  1.00 22.63 LIG-0.24  NA
ATOM     60  CE1 HIS X   4      -2.766   1.000  21.069  1.00 19.94 LIG 0.23  A 
ATOM     61 NE2  HIS X   4      -3.957   1.518  20.838  1.00 20.25 LIG-0.25  NA
ATOM     62  CD2 HIS X   4      -4.870   0.498  20.707  1.00 21.52 LIG 0.14  A 
ENDBRANCH 57 58
ENDBRANCH 54 57
ENDBRANCH 52 54
ENDBRANCH 43 50
ENDBRANCH 40 43
ENDBRANCH 38 39
BRANCH 38 63
ATOM     63  CB  HIS X   2       2.101  -2.100  17.240  1.00 28.74 LIG 0.10  C 
BRANCH 63 64
ATOM     64  CG  HIS X   2       3.364  -1.526  17.791  1.00 28.63 LIG 0.06  A 
ATOM     65 ND1  HIS X   2       4.506  -1.405  17.035  1.00 31.27 LIG-0.24  NA
ATOM     66  CE1 HIS X   2       5.459  -0.854  17.764  1.00 28.11 LIG 0.23  A 
ATOM     67 NE2  HIS X   2       4.980  -0.621  18.970  1.00 29.87 LIG-0.25  NA
ATOM     68  CD2 HIS X   2       3.666  -1.026  19.012  1.00 31.84 LIG 0.14  A 
ENDBRANCH 63 64
ENDBRANCH 38 63
ENDBRANCH 3 38
TORSDOF 24
ENDMDL
MODEL 54
USER: ADFR SOLUTION from run 30
USER: SCORE 17.939238 LL:  -5.810 LR: -13.666 RR:   0.000 FEB:  -6.507
USER: RMSD 6.538838
USER: SEED 29
USER: STATUS no improvement in best in 14 clusters for 5 generations
USER: GENES 26
USER: genes 0 Translation |==|  0.46768 0.52478 0.39836
USER: genes 1 Rotation |==|  0.69723 0.95865 0.52099 0.51743
USER: genes 2 Torsion [N]-C--CA-[N] |==|  0.13816
USER: genes 3 Torsion [C]-CA--N-[C] |==|  0.13574
USER: genes 4 Torsion [N]-C--CA-[N] |==|  0.22987
USER: genes 5 Torsion [C]-CA--N-[C] |==|  0.62089
USER: genes 6 Torsion [N]-C--CA-[N] |==|  0.44876
USER: genes 7 Torsion [C]-CA--N-[H2] |==|  0.61505
USER: genes 8 Torsion [C]-CA--CB-[CG] |==|  0.59368
USER: genes 9 Torsion [CA]-CB--CG-[ND1] |==|  0.35981
USER: genes 10 Torsion [C]-CA--CB-[CG] |==|  0.42382
USER: genes 11 Torsion [CA]-CB--CG-[CD2] |==|  0.02945
USER: genes 12 Torsion [C]-CA--CB-[CG] |==|  0.44843
USER: genes 13 Torsion [CA]-CB--CG-[CD2] |==|  0.01104
USER: genes 14 Torsion [C]-N--CA-[C] |==|  0.69131
USER: genes 15 Torsion [N]-CA--C-[N] |==|  0.53523
USER: genes 16 Torsion [C]-N--CA-[CB] |==|  0.69946
USER: genes 17 Torsion [N]-CA--CB-[CG] |==|  0.96524
USER: genes 18 Torsion [CA]-CB--CG-[ND1] |==|  0.84854
USER: genes 19 Torsion [N]-CA--C-[N] |==|  0.25752
USER: genes 20 Torsion [C]-N--CA-[C] |==|  0.67877
USER: genes 21 Torsion [N]-CA--C-[O] |==|  0.01428
USER: genes 22 Torsion [N]-CA--CB-[CG] |==|  0.97065
USER: genes 23 Torsion [CA]-CB--CG-[ND1] |==|  0.26111
USER: genes 24 Torsion [N]-CA--CB-[CG] |==|  0.82478
USER: genes 25 Torsion [CA]-CB--CG-[CD2] |==|  0.91260
ROOT
ATOM      1  C   HIS X   1       1.976   0.613  17.740  1.00 40.87 LIG 0.24  C 
ATOM      2 O    HIS X   1       2.811  -0.291  17.642  1.00 40.80 LIG-0.27  OA
ATOM      3  N   HIS X   2       0.829   0.507  18.383  1.00 30.16 LIG-0.35  N 
ATOM      4 H    HIS X   2       0.251   1.142  18.425  1.00 30.16 LIG 0.16  HD
ENDROOT
BRANCH 1 5
ATOM      5  CA  HIS X   1       2.183   1.981  17.127  1.00 48.06 LIG 0.18  C 
BRANCH 5 6
ATOM      6  N   HIS X   1       1.925   3.014  18.134  1.00 54.11 LIG-0.35  N 
ATOM      7 H    HIS X   1       1.401   3.641  17.866  1.00 54.11 LIG 0.16  HD
ATOM      8  C   HIS X   0       2.453   2.975  19.340  1.00 58.54 LIG 0.24  C 
ATOM      9 O    HIS X   0       3.375   2.224  19.663  1.00 63.37 LIG-0.27  OA
BRANCH 8 10
ATOM     10  CA  HIS X   0       1.824   3.950  20.321  1.00 62.53 LIG 0.18  C 
BRANCH 10 11
ATOM     11  N   HIS X   0       0.593   3.422  20.921  1.00 60.73 LIG-0.35  N 
ATOM     12  C   HIS X  -1      -0.482   4.184  21.055  1.00 60.09 LIG 0.25  C 
ATOM     13 O    HIS X  -1      -0.716   5.161  20.342  1.00 62.79 LIG-0.27  OA
ATOM     14 H    HIS X   0       0.637   2.600  21.167  1.00 60.73 LIG 0.16  HD
BRANCH 12 15
ATOM     15  CA  HIS X  -1      -1.449   3.740  22.147  1.00 59.53 LIG 0.28  C 
BRANCH 15 16
ATOM     16  N   HIS X  -1      -2.360   4.877  22.513  1.00 57.14 LIG-0.07  N 
ATOM     17 H3   HIS X  -1      -2.003   5.644  22.238  1.00 57.14 LIG 0.28  HD
ATOM     18 H2   HIS X  -1      -2.465   4.900  23.397  1.00 57.14 LIG 0.28  HD
ATOM     19 H1   HIS X  -1      -3.152   4.761  22.123  1.00 57.14 LIG 0.28  HD
ENDBRANCH 15 16
BRANCH 15 20
ATOM     20  CB  HIS X  -1      -2.259   2.521  21.706  1.00 57.27 LIG 0.10  C 
BRANCH 20 21
ATOM     21  CG  HIS X  -1      -3.652   2.495  22.245  1.00 54.13 LIG 0.06  A 
ATOM     22 ND1  HIS X  -1      -4.756   2.294  21.445  1.00 52.72 LIG-0.24  NA
ATOM     23  CE1 HIS X  -1      -5.849   2.339  22.188  1.00 54.35 LIG 0.23  A 
ATOM     24 NE2  HIS X  -1      -5.494   2.564  23.442  1.00 53.65 LIG-0.25  NA
ATOM     25  CD2 HIS X  -1      -4.124   2.663  23.504  1.00 55.23 LIG 0.14  A 
ENDBRANCH 20 21
ENDBRANCH 15 20
ENDBRANCH 12 15
ENDBRANCH 10 11
BRANCH 10 26
ATOM     26  CB  HIS X   0       2.854   4.355  21.398  1.00 64.99 LIG 0.10  C 
BRANCH 26 27
ATOM     27  CG  HIS X   0       2.620   5.714  21.993  1.00 69.41 LIG 0.06  A 
ATOM     28 ND1  HIS X   0       3.551   6.350  22.790  1.00 72.01 LIG-0.24  NA
ATOM     29  CE1 HIS X   0       3.080   7.528  23.163  1.00 72.69 LIG 0.23  A 
ATOM     30 NE2  HIS X   0       1.880   7.682  22.632  1.00 72.94 LIG-0.25  NA
ATOM     31  CD2 HIS X   0       1.570   6.564  21.893  1.00 71.12 LIG 0.14  A 
ENDBRANCH 26 27
ENDBRANCH 10 26
ENDBRANCH 8 10
ENDBRANCH 5 6
BRANCH 5 32
ATOM     32  CB  HIS X   1       3.607   2.108  16.591  1.00 48.25 LIG 0.10  C 
BRANCH 32 33
ATOM     33  CG  HIS X   1       3.780   3.217  15.599  1.00 50.36 LIG 0.06  A 
ATOM     34  CD2 HIS X   1       2.910   4.158  15.158  1.00 51.47 LIG 0.14  A 
ATOM     35 NE2  HIS X   1       3.587   4.941  14.253  1.00 50.72 LIG-0.25  NA
ATOM     36  CE1 HIS X   1       4.827   4.495  14.144  1.00 48.50 LIG 0.23  A 
ATOM     37 ND1  HIS X   1       4.971   3.455  14.944  1.00 47.89 LIG-0.24  NA
ENDBRANCH 32 33
ENDBRANCH 5 32
ENDBRANCH 1 5
BRANCH 3 38
ATOM     38  CA  HIS X   2       0.421  -0.723  19.099  1.00 26.25 LIG 0.18  C 
BRANCH 38 39
ATOM     39  C   HIS X   2      -0.748  -1.439  18.429  1.00 23.72 LIG 0.24  C 
ATOM     40  N   HIS X   3      -1.304  -2.379  19.175  1.00 22.33 LIG-0.35  N 
ATOM     41 H    HIS X   3      -1.029  -2.589  19.962  1.00 22.33 LIG 0.16  HD
ATOM     42 O    HIS X   2      -1.124  -1.165  17.280  1.00 19.88 LIG-0.27  OA
BRANCH 40 43
ATOM     43  CA  HIS X   3      -2.462  -3.160  18.712  1.00 22.38 LIG 0.18  C 
BRANCH 43 44
ATOM     44  CB  HIS X   3      -3.791  -2.790  19.443  1.00 22.51 LIG 0.10  C 
BRANCH 44 45
ATOM     45  CG  HIS X   3      -3.636  -1.939  20.672  1.00 18.10 LIG 0.06  A 
ATOM     46  CD2 HIS X   3      -4.244  -0.788  21.051  1.00 18.75 LIG 0.14  A 
ATOM     47 NE2  HIS X   3      -3.758  -0.463  22.297  1.00 20.06 LIG-0.25  NA
ATOM     48  CE1 HIS X   3      -2.896  -1.388  22.674  1.00 21.69 LIG 0.23  A 
ATOM     49 ND1  HIS X   3      -2.817  -2.297  21.716  1.00 17.48 LIG-0.24  NA
ENDBRANCH 44 45
ENDBRANCH 43 44
BRANCH 43 50
ATOM     50  C   HIS X   3      -2.594  -3.105  17.190  1.00 21.59 LIG 0.24  C 
ATOM     51 O    HIS X   3      -3.256  -2.242  16.625  1.00 25.47 LIG-0.27  OA
ATOM     52  N   HIS X   4      -1.999  -4.084  16.542  1.00 25.63 LIG-0.35  N 
ATOM     53 H    HIS X   4      -1.555  -4.717  16.921  1.00 25.63 LIG 0.16  HD
BRANCH 52 54
ATOM     54  CA  HIS X   4      -2.054  -4.165  15.080  1.00 23.96 LIG 0.17  C 
BRANCH 54 55
ATOM     55  C   HIS X   4      -2.819  -5.436  14.695  1.00 31.35 LIG 0.22  C 
ATOM     56 O    HIS X   4      -3.351  -6.145  15.551  1.00 37.06 LIG-0.29  OA
ENDBRANCH 54 55
BRANCH 54 57
ATOM     57  CB  HIS X   4      -0.654  -4.147  14.454  1.00 23.83 LIG 0.09  C 
BRANCH 57 58
ATOM     58  CG  HIS X   4       0.446  -3.801  15.423  1.00 22.57 LIG 0.06  A 
ATOM     59 ND1  HIS X   4       1.180  -4.755  16.104  1.00 22.63 LIG-0.24  NA
ATOM     60  CE1 HIS X   4       2.072  -4.154  16.873  1.00 19.94 LIG 0.23  A 
ATOM     61 NE2  HIS X   4       1.933  -2.849  16.731  1.00 20.25 LIG-0.25  NA
ATOM     62  CD2 HIS X   4       0.933  -2.603  15.820  1.00 21.52 LIG 0.14  A 
ENDBRANCH 57 58
ENDBRANCH 54 57
ENDBRANCH 52 54
ENDBRANCH 43 50
ENDBRANCH 40 43
ENDBRANCH 38 39
BRANCH 38 63
ATOM     63  CB  HIS X   2       0.058  -0.411  20.556  1.00 28.74 LIG 0.10  C 
BRANCH 63 64
ATOM     64  CG  HIS X   2       1.200   0.116  21.360  1.00 28.63 LIG 0.06  A 
ATOM     65 ND1  HIS X   2       1.020   0.994  22.403  1.00 31.27 LIG-0.24  NA
ATOM     66  CE1 HIS X   2       2.191   1.278  22.944  1.00 28.11 LIG 0.23  A 
ATOM     67 NE2  HIS X   2       3.127   0.625  22.282  1.00 29.87 LIG-0.25  NA
ATOM     68  CD2 HIS X   2       2.532  -0.118  21.289  1.00 31.84 LIG 0.14  A 
ENDBRANCH 63 64
ENDBRANCH 38 63
ENDBRANCH 3 38
TORSDOF 24
ENDMDL
MODEL 55
USER: ADFR SOLUTION from run 57
USER: SCORE 17.982214 LL:  -6.106 LR: -13.661 RR:   0.000 FEB:  -6.502
USER: RMSD 5.935507
USER: SEED 56
USER: STATUS searching
USER: GENES 26
USER: genes 0 Translation |==|  0.57706 0.62043 0.44471
USER: genes 1 Rotation |==|  0.43499 0.64475 0.39973 0.96343
USER: genes 2 Torsion [N]-C--CA-[N] |==|  0.20363
USER: genes 3 Torsion [C]-CA--N-[C] |==|  0.76924
USER: genes 4 Torsion [N]-C--CA-[N] |==|  0.45478
USER: genes 5 Torsion [C]-CA--N-[C] |==|  0.75964
USER: genes 6 Torsion [N]-C--CA-[N] |==|  0.05849
USER: genes 7 Torsion [C]-CA--N-[H2] |==|  0.69039
USER: genes 8 Torsion [C]-CA--CB-[CG] |==|  0.89597
USER: genes 9 Torsion [CA]-CB--CG-[ND1] |==|  0.30091
USER: genes 10 Torsion [C]-CA--CB-[CG] |==|  0.95054
USER: genes 11 Torsion [CA]-CB--CG-[CD2] |==|  0.77528
USER: genes 12 Torsion [C]-CA--CB-[CG] |==|  0.55237
USER: genes 13 Torsion [CA]-CB--CG-[CD2] |==|  0.83223
USER: genes 14 Torsion [C]-N--CA-[C] |==|  0.85905
USER: genes 15 Torsion [N]-CA--C-[N] |==|  0.38305
USER: genes 16 Torsion [C]-N--CA-[CB] |==|  0.37684
USER: genes 17 Torsion [N]-CA--CB-[CG] |==|  0.84790
USER: genes 18 Torsion [CA]-CB--CG-[ND1] |==|  0.88361
USER: genes 19 Torsion [N]-CA--C-[N] |==|  0.83428
USER: genes 20 Torsion [C]-N--CA-[C] |==|  0.79742
USER: genes 21 Torsion [N]-CA--C-[O] |==|  0.93151
USER: genes 22 Torsion [N]-CA--CB-[CG] |==|  0.33115
USER: genes 23 Torsion [CA]-CB--CG-[ND1] |==|  0.19260
USER: genes 24 Torsion [N]-CA--CB-[CG] |==|  0.57198
USER: genes 25 Torsion [CA]-CB--CG-[CD2] |==|  0.02180
ROOT
ATOM      1  C   HIS X   1       4.190   2.908  18.575  1.00 40.87 LIG 0.24  C 
ATOM      2 O    HIS X   1       3.339   3.450  19.286  1.00 40.80 LIG-0.27  OA
ATOM      3  N   HIS X   2       4.018   1.769  17.935  1.00 30.16 LIG-0.35  N 
ATOM      4 H    HIS X   2       4.630   1.398  17.458  1.00 30.16 LIG 0.16  HD
ENDROOT
BRANCH 1 5
ATOM      5  CA  HIS X   1       5.560   3.512  18.345  1.00 48.06 LIG 0.18  C 
BRANCH 5 6
ATOM      6  N   HIS X   1       5.631   4.061  16.988  1.00 54.11 LIG-0.35  N 
ATOM      7 H    HIS X   1       5.479   4.907  16.945  1.00 54.11 LIG 0.16  HD
ATOM      8  C   HIS X   0       5.905   3.318  15.936  1.00 58.54 LIG 0.24  C 
ATOM      9 O    HIS X   0       5.896   2.085  15.944  1.00 63.37 LIG-0.27  OA
BRANCH 8 10
ATOM     10  CA  HIS X   0       6.238   4.116  14.686  1.00 62.53 LIG 0.18  C 
BRANCH 10 11
ATOM     11  N   HIS X   0       6.898   3.298  13.661  1.00 60.73 LIG-0.35  N 
ATOM     12  C   HIS X  -1       8.210   3.128  13.664  1.00 60.09 LIG 0.25  C 
ATOM     13 O    HIS X  -1       8.906   3.218  14.678  1.00 62.79 LIG-0.27  OA
ATOM     14 H    HIS X   0       6.366   2.953  13.080  1.00 60.73 LIG 0.16  HD
BRANCH 12 15
ATOM     15  CA  HIS X  -1       8.813   2.767  12.312  1.00 59.53 LIG 0.28  C 
BRANCH 15 16
ATOM     16  N   HIS X  -1       7.880   3.180  11.210  1.00 57.14 LIG-0.07  N 
ATOM     17 H3   HIS X  -1       7.215   3.665  11.550  1.00 57.14 LIG 0.28  HD
ATOM     18 H2   HIS X  -1       7.546   2.455  10.815  1.00 57.14 LIG 0.28  HD
ATOM     19 H1   HIS X  -1       8.325   3.666  10.611  1.00 57.14 LIG 0.28  HD
ENDBRANCH 15 16
BRANCH 15 20
ATOM     20  CB  HIS X  -1      10.185   3.415  12.127  1.00 57.27 LIG 0.10  C 
BRANCH 20 21
ATOM     21  CG  HIS X  -1      10.284   4.793  12.697  1.00 54.13 LIG 0.06  A 
ATOM     22 ND1  HIS X  -1      11.010   5.077  13.834  1.00 52.72 LIG-0.24  NA
ATOM     23  CE1 HIS X  -1      10.901   6.366  14.111  1.00 54.35 LIG 0.23  A 
ATOM     24 NE2  HIS X  -1      10.130   6.927  13.195  1.00 53.65 LIG-0.25  NA
ATOM     25  CD2 HIS X  -1       9.732   5.964  12.297  1.00 55.23 LIG 0.14  A 
ENDBRANCH 20 21
ENDBRANCH 15 20
ENDBRANCH 12 15
ENDBRANCH 10 11
BRANCH 10 26
ATOM     26  CB  HIS X   0       4.965   4.798  14.140  1.00 64.99 LIG 0.10  C 
BRANCH 26 27
ATOM     27  CG  HIS X   0       3.683   4.213  14.660  1.00 69.41 LIG 0.06  A 
ATOM     28 ND1  HIS X   0       2.959   4.794  15.682  1.00 72.01 LIG-0.24  NA
ATOM     29  CE1 HIS X   0       1.879   4.070  15.922  1.00 72.69 LIG 0.23  A 
ATOM     30 NE2  HIS X   0       1.873   3.043  15.090  1.00 72.94 LIG-0.25  NA
ATOM     31  CD2 HIS X   0       2.988   3.112  14.287  1.00 71.12 LIG 0.14  A 
ENDBRANCH 26 27
ENDBRANCH 10 26
ENDBRANCH 8 10
ENDBRANCH 5 6
BRANCH 5 32
ATOM     32  CB  HIS X   1       5.832   4.607  19.374  1.00 48.25 LIG 0.10  C 
BRANCH 32 33
ATOM     33  CG  HIS X   1       6.926   5.548  18.975  1.00 50.36 LIG 0.06  A 
ATOM     34  CD2 HIS X   1       8.236   5.326  18.708  1.00 51.47 LIG 0.14  A 
ATOM     35 NE2  HIS X   1       8.794   6.539  18.380  1.00 50.72 LIG-0.25  NA
ATOM     36  CE1 HIS X   1       7.858   7.471  18.444  1.00 48.50 LIG 0.23  A 
ATOM     37 ND1  HIS X   1       6.722   6.902  18.802  1.00 47.89 LIG-0.24  NA
ENDBRANCH 32 33
ENDBRANCH 5 32
ENDBRANCH 1 5
BRANCH 3 38
ATOM     38  CA  HIS X   2       2.747   1.010  17.972  1.00 26.25 LIG 0.18  C 
BRANCH 38 39
ATOM     39  C   HIS X   2       2.235   0.784  19.391  1.00 23.72 LIG 0.24  C 
ATOM     40  N   HIS X   3       0.930   0.956  19.527  1.00 22.33 LIG-0.35  N 
ATOM     41 H    HIS X   3       0.409   1.191  18.884  1.00 22.33 LIG 0.16  HD
ATOM     42 O    HIS X   2       2.987   0.481  20.329  1.00 19.88 LIG-0.27  OA
BRANCH 40 43
ATOM     43  CA  HIS X   3       0.246   0.755  20.815  1.00 22.38 LIG 0.18  C 
BRANCH 43 44
ATOM     44  CB  HIS X   3      -0.785   1.878  21.149  1.00 22.51 LIG 0.10  C 
BRANCH 44 45
ATOM     45  CG  HIS X   3      -0.243   3.280  21.127  1.00 18.10 LIG 0.06  A 
ATOM     46  CD2 HIS X   3      -0.787   4.448  20.704  1.00 18.75 LIG 0.14  A 
ATOM     47 NE2  HIS X   3       0.132   5.440  20.958  1.00 20.06 LIG-0.25  NA
ATOM     48  CE1 HIS X   3       1.193   4.902  21.530  1.00 21.69 LIG 0.23  A 
ATOM     49 ND1  HIS X   3       0.983   3.603  21.656  1.00 17.48 LIG-0.24  NA
ENDBRANCH 44 45
ENDBRANCH 43 44
BRANCH 43 50
ATOM     50  C   HIS X   3      -0.360  -0.645  20.907  1.00 21.59 LIG 0.24  C 
ATOM     51 O    HIS X   3       0.002  -1.456  21.751  1.00 25.47 LIG-0.27  OA
ATOM     52  N   HIS X   4      -1.250  -0.930  19.980  1.00 25.63 LIG-0.35  N 
ATOM     53 H    HIS X   4      -1.496  -0.386  19.360  1.00 25.63 LIG 0.16  HD
BRANCH 52 54
ATOM     54  CA  HIS X   4      -1.904  -2.242  19.939  1.00 23.96 LIG 0.17  C 
BRANCH 54 55
ATOM     55  C   HIS X   4      -0.885  -3.274  19.447  1.00 31.35 LIG 0.22  C 
ATOM     56 O    HIS X   4       0.078  -2.941  18.752  1.00 37.06 LIG-0.29  OA
ENDBRANCH 54 55
BRANCH 54 57
ATOM     57  CB  HIS X   4      -3.156  -2.228  19.054  1.00 23.83 LIG 0.09  C 
BRANCH 57 58
ATOM     58  CG  HIS X   4      -3.089  -3.177  17.886  1.00 22.57 LIG 0.06  A 
ATOM     59 ND1  HIS X   4      -3.122  -4.552  18.027  1.00 22.63 LIG-0.24  NA
ATOM     60  CE1 HIS X   4      -3.053  -5.117  16.833  1.00 19.94 LIG 0.23  A 
ATOM     61 NE2  HIS X   4      -2.960  -4.163  15.926  1.00 20.25 LIG-0.25  NA
ATOM     62  CD2 HIS X   4      -2.994  -2.942  16.557  1.00 21.52 LIG 0.14  A 
ENDBRANCH 57 58
ENDBRANCH 54 57
ENDBRANCH 52 54
ENDBRANCH 43 50
ENDBRANCH 40 43
ENDBRANCH 38 39
BRANCH 38 63
ATOM     63  CB  HIS X   2       2.896  -0.341  17.263  1.00 28.74 LIG 0.10  C 
BRANCH 63 64
ATOM     64  CG  HIS X   2       1.614  -0.879  16.720  1.00 28.63 LIG 0.06  A 
ATOM     65 ND1  HIS X   2       1.509  -2.151  16.210  1.00 31.27 LIG-0.24  NA
ATOM     66  CE1 HIS X   2       0.267  -2.366  15.819  1.00 28.11 LIG 0.23  A 
ATOM     67 NE2  HIS X   2      -0.439  -1.276  16.048  1.00 29.87 LIG-0.25  NA
ATOM     68  CD2 HIS X   2       0.380  -0.330  16.621  1.00 31.84 LIG 0.14  A 
ENDBRANCH 63 64
ENDBRANCH 38 63
ENDBRANCH 3 38
TORSDOF 24
ENDMDL
MODEL 56
USER: ADFR SOLUTION from run 37
USER: SCORE 18.930160 LL:  -6.354 LR: -13.663 RR:   0.000 FEB:  -6.504
USER: RMSD 10.208356
USER: SEED 36
USER: STATUS no improvement in best in 7 clusters for 5 generations
USER: GENES 26
USER: genes 0 Translation |==|  0.41074 0.46219 0.36640
USER: genes 1 Rotation |==|  0.47733 0.43086 0.97774 0.62835
USER: genes 2 Torsion [N]-C--CA-[N] |==|  0.30793
USER: genes 3 Torsion [C]-CA--N-[C] |==|  0.61192
USER: genes 4 Torsion [N]-C--CA-[N] |==|  0.98263
USER: genes 5 Torsion [C]-CA--N-[C] |==|  0.75000
USER: genes 6 Torsion [N]-C--CA-[N] |==|  0.47564
USER: genes 7 Torsion [C]-CA--N-[H2] |==|  0.32453
USER: genes 8 Torsion [C]-CA--CB-[CG] |==|  0.79710
USER: genes 9 Torsion [CA]-CB--CG-[ND1] |==|  0.77385
USER: genes 10 Torsion [C]-CA--CB-[CG] |==|  0.84342
USER: genes 11 Torsion [CA]-CB--CG-[CD2] |==|  0.41793
USER: genes 12 Torsion [C]-CA--CB-[CG] |==|  0.40828
USER: genes 13 Torsion [CA]-CB--CG-[CD2] |==|  0.63470
USER: genes 14 Torsion [C]-N--CA-[C] |==|  0.81053
USER: genes 15 Torsion [N]-CA--C-[N] |==|  0.87366
USER: genes 16 Torsion [C]-N--CA-[CB] |==|  0.18943
USER: genes 17 Torsion [N]-CA--CB-[CG] |==|  0.47480
USER: genes 18 Torsion [CA]-CB--CG-[ND1] |==|  0.56127
USER: genes 19 Torsion [N]-CA--C-[N] |==|  0.84944
USER: genes 20 Torsion [C]-N--CA-[C] |==|  0.51480
USER: genes 21 Torsion [N]-CA--C-[O] |==|  0.96763
USER: genes 22 Torsion [N]-CA--CB-[CG] |==|  0.17844
USER: genes 23 Torsion [CA]-CB--CG-[ND1] |==|  0.44830
USER: genes 24 Torsion [N]-CA--CB-[CG] |==|  0.47767
USER: genes 25 Torsion [CA]-CB--CG-[CD2] |==|  0.60566
ROOT
ATOM      1  C   HIS X   1       0.823  -0.889  17.165  1.00 40.87 LIG 0.24  C 
ATOM      2 O    HIS X   1       1.875  -1.517  17.320  1.00 40.80 LIG-0.27  OA
ATOM      3  N   HIS X   2       0.743   0.330  16.671  1.00 30.16 LIG-0.35  N 
ATOM      4 H    HIS X   2       0.002   0.758  16.586  1.00 30.16 LIG 0.16  HD
ENDROOT
BRANCH 1 5
ATOM      5  CA  HIS X   1      -0.529  -1.469  17.526  1.00 48.06 LIG 0.18  C 
BRANCH 5 6
ATOM      6  N   HIS X   1      -0.856  -2.560  16.604  1.00 54.11 LIG-0.35  N 
ATOM      7 H    HIS X   1      -0.188  -3.066  16.411  1.00 54.11 LIG 0.16  HD
ATOM      8  C   HIS X   0      -2.067  -2.739  16.119  1.00 58.54 LIG 0.24  C 
ATOM      9 O    HIS X   0      -2.970  -1.903  16.196  1.00 63.37 LIG-0.27  OA
BRANCH 8 10
ATOM     10  CA  HIS X   0      -2.269  -4.086  15.444  1.00 62.53 LIG 0.18  C 
BRANCH 10 11
ATOM     11  N   HIS X   0      -1.021  -4.853  15.344  1.00 60.73 LIG-0.35  N 
ATOM     12  C   HIS X  -1      -0.231  -4.735  14.289  1.00 60.09 LIG 0.25  C 
ATOM     13 O    HIS X  -1      -0.197  -3.732  13.573  1.00 62.79 LIG-0.27  OA
ATOM     14 H    HIS X   0      -0.861  -5.367  16.014  1.00 60.73 LIG 0.16  HD
BRANCH 12 15
ATOM     15  CA  HIS X  -1       0.681  -5.929  14.035  1.00 59.53 LIG 0.28  C 
BRANCH 15 16
ATOM     16  N   HIS X  -1       1.367  -5.775  12.708  1.00 57.14 LIG-0.07  N 
ATOM     17 H3   HIS X  -1       1.189  -6.483  12.198  1.00 57.14 LIG 0.28  HD
ATOM     18 H2   HIS X  -1       2.246  -5.713  12.832  1.00 57.14 LIG 0.28  HD
ATOM     19 H1   HIS X  -1       1.072  -5.038  12.304  1.00 57.14 LIG 0.28  HD
ENDBRANCH 15 16
BRANCH 15 20
ATOM     20  CB  HIS X  -1       1.709  -6.088  15.156  1.00 57.27 LIG 0.10  C 
BRANCH 20 21
ATOM     21  CG  HIS X  -1       2.793  -5.060  15.133  1.00 54.13 LIG 0.06  A 
ATOM     22 ND1  HIS X  -1       3.892  -5.156  14.306  1.00 52.72 LIG-0.24  NA
ATOM     23  CE1 HIS X  -1       4.687  -4.120  14.514  1.00 54.35 LIG 0.23  A 
ATOM     24 NE2  HIS X  -1       4.144  -3.356  15.447  1.00 53.65 LIG-0.25  NA
ATOM     25  CD2 HIS X  -1       2.957  -3.922  15.849  1.00 55.23 LIG 0.14  A 
ENDBRANCH 20 21
ENDBRANCH 15 20
ENDBRANCH 12 15
ENDBRANCH 10 11
BRANCH 10 26
ATOM     26  CB  HIS X   0      -3.371  -4.883  16.175  1.00 64.99 LIG 0.10  C 
BRANCH 26 27
ATOM     27  CG  HIS X   0      -3.113  -5.088  17.640  1.00 69.41 LIG 0.06  A 
ATOM     28 ND1  HIS X   0      -1.840  -5.148  18.172  1.00 72.01 LIG-0.24  NA
ATOM     29  CE1 HIS X   0      -1.918  -5.327  19.480  1.00 72.69 LIG 0.23  A 
ATOM     30 NE2  HIS X   0      -3.194  -5.380  19.817  1.00 72.94 LIG-0.25  NA
ATOM     31  CD2 HIS X   0      -3.963  -5.229  18.686  1.00 71.12 LIG 0.14  A 
ENDBRANCH 26 27
ENDBRANCH 10 26
ENDBRANCH 8 10
ENDBRANCH 5 6
BRANCH 5 32
ATOM     32  CB  HIS X   1      -0.517  -1.978  18.966  1.00 48.25 LIG 0.10  C 
BRANCH 32 33
ATOM     33  CG  HIS X   1      -1.833  -1.835  19.665  1.00 50.36 LIG 0.06  A 
ATOM     34  CD2 HIS X   1      -2.141  -1.328  20.885  1.00 51.47 LIG 0.14  A 
ATOM     35 NE2  HIS X   1      -3.504  -1.428  21.031  1.00 50.72 LIG-0.25  NA
ATOM     36  CE1 HIS X   1      -4.013  -1.974  19.940  1.00 48.50 LIG 0.23  A 
ATOM     37 ND1  HIS X   1      -3.027  -2.232  19.100  1.00 47.89 LIG-0.24  NA
ENDBRANCH 32 33
ENDBRANCH 5 32
ENDBRANCH 1 5
BRANCH 3 38
ATOM     38  CA  HIS X   2       1.928   1.088  16.207  1.00 26.25 LIG 0.18  C 
BRANCH 38 39
ATOM     39  C   HIS X   2       2.860   1.485  17.348  1.00 23.72 LIG 0.24  C 
ATOM     40  N   HIS X   3       2.238   1.985  18.403  1.00 22.33 LIG-0.35  N 
ATOM     41 H    HIS X   3       1.387   2.097  18.447  1.00 22.33 LIG 0.16  HD
ATOM     42 O    HIS X   2       4.091   1.359  17.274  1.00 19.88 LIG-0.27  OA
BRANCH 40 43
ATOM     43  CA  HIS X   3       2.966   2.399  19.614  1.00 22.38 LIG 0.18  C 
BRANCH 43 44
ATOM     44  CB  HIS X   3       3.867   3.655  19.395  1.00 22.51 LIG 0.10  C 
BRANCH 44 45
ATOM     45  CG  HIS X   3       4.463   4.246  20.641  1.00 18.10 LIG 0.06  A 
ATOM     46  CD2 HIS X   3       4.765   3.695  21.843  1.00 18.75 LIG 0.14  A 
ATOM     47 NE2  HIS X   3       5.338   4.683  22.611  1.00 20.06 LIG-0.25  NA
ATOM     48  CE1 HIS X   3       5.399   5.794  21.901  1.00 21.69 LIG 0.23  A 
ATOM     49 ND1  HIS X   3       4.891   5.551  20.704  1.00 17.48 LIG-0.24  NA
ENDBRANCH 44 45
ENDBRANCH 43 44
BRANCH 43 50
ATOM     50  C   HIS X   3       2.018   2.557  20.802  1.00 21.59 LIG 0.24  C 
ATOM     51 O    HIS X   3       2.174   1.934  21.846  1.00 25.47 LIG-0.27  OA
ATOM     52  N   HIS X   4       0.995   3.359  20.598  1.00 25.63 LIG-0.35  N 
ATOM     53 H    HIS X   4       0.850   3.782  19.863  1.00 25.63 LIG 0.16  HD
BRANCH 52 54
ATOM     54  CA  HIS X   4      -0.002   3.594  21.647  1.00 23.96 LIG 0.17  C 
BRANCH 54 55
ATOM     55  C   HIS X   4      -1.124   4.458  21.062  1.00 31.35 LIG 0.22  C 
ATOM     56 O    HIS X   4      -1.000   5.013  19.968  1.00 37.06 LIG-0.29  OA
ENDBRANCH 54 55
BRANCH 54 57
ATOM     57  CB  HIS X   4       0.618   4.251  22.887  1.00 23.83 LIG 0.09  C 
BRANCH 57 58
ATOM     58  CG  HIS X   4       1.164   5.633  22.639  1.00 22.57 LIG 0.06  A 
ATOM     59 ND1  HIS X   4       1.417   6.538  23.653  1.00 22.63 LIG-0.24  NA
ATOM     60  CE1 HIS X   4       1.894   7.656  23.132  1.00 19.94 LIG 0.23  A 
ATOM     61 NE2  HIS X   4       1.943   7.518  21.821  1.00 20.25 LIG-0.25  NA
ATOM     62  CD2 HIS X   4       1.505   6.258  21.489  1.00 21.52 LIG 0.14  A 
ENDBRANCH 57 58
ENDBRANCH 54 57
ENDBRANCH 52 54
ENDBRANCH 43 50
ENDBRANCH 40 43
ENDBRANCH 38 39
BRANCH 38 63
ATOM     63  CB  HIS X   2       1.505   2.343  15.435  1.00 28.74 LIG 0.10  C 
BRANCH 63 64
ATOM     64  CG  HIS X   2       2.639   3.254  15.102  1.00 28.63 LIG 0.06  A 
ATOM     65 ND1  HIS X   2       3.871   2.782  14.715  1.00 31.27 LIG-0.24  NA
ATOM     66  CE1 HIS X   2       4.674   3.801  14.467  1.00 28.11 LIG 0.23  A 
ATOM     67 NE2  HIS X   2       4.010   4.919  14.689  1.00 29.87 LIG-0.25  NA
ATOM     68  CD2 HIS X   2       2.729   4.605  15.080  1.00 31.84 LIG 0.14  A 
ENDBRANCH 63 64
ENDBRANCH 38 63
ENDBRANCH 3 38
TORSDOF 24
ENDMDL
MODEL 57
USER: ADFR SOLUTION from run 188
USER: SCORE 18.309625 LL:  -5.551 LR: -13.640 RR:   0.000 FEB:  -6.481
USER: RMSD 6.637617
USER: SEED 187
USER: STATUS no improvement in best in 11 clusters for 5 generations
USER: GENES 26
USER: genes 0 Translation |==|  0.54041 0.52646 0.43597
USER: genes 1 Rotation |==|  0.58365 0.98618 0.56733 0.54582
USER: genes 2 Torsion [N]-C--CA-[N] |==|  0.21667
USER: genes 3 Torsion [C]-CA--N-[C] |==|  0.77496
USER: genes 4 Torsion [N]-C--CA-[N] |==|  0.54440
USER: genes 5 Torsion [C]-CA--N-[C] |==|  0.71236
USER: genes 6 Torsion [N]-C--CA-[N] |==|  0.46473
USER: genes 7 Torsion [C]-CA--N-[H2] |==|  0.64858
USER: genes 8 Torsion [C]-CA--CB-[CG] |==|  0.82370
USER: genes 9 Torsion [CA]-CB--CG-[ND1] |==|  0.75715
USER: genes 10 Torsion [C]-CA--CB-[CG] |==|  0.46446
USER: genes 11 Torsion [CA]-CB--CG-[CD2] |==|  0.49968
USER: genes 12 Torsion [C]-CA--CB-[CG] |==|  0.41404
USER: genes 13 Torsion [CA]-CB--CG-[CD2] |==|  0.02344
USER: genes 14 Torsion [C]-N--CA-[C] |==|  0.68348
USER: genes 15 Torsion [N]-CA--C-[N] |==|  0.03795
USER: genes 16 Torsion [C]-N--CA-[CB] |==|  0.82532
USER: genes 17 Torsion [N]-CA--CB-[CG] |==|  0.96606
USER: genes 18 Torsion [CA]-CB--CG-[ND1] |==|  0.85078
USER: genes 19 Torsion [N]-CA--C-[N] |==|  0.39985
USER: genes 20 Torsion [C]-N--CA-[C] |==|  0.17506
USER: genes 21 Torsion [N]-CA--C-[O] |==|  0.11297
USER: genes 22 Torsion [N]-CA--CB-[CG] |==|  0.73387
USER: genes 23 Torsion [CA]-CB--CG-[ND1] |==|  0.24269
USER: genes 24 Torsion [N]-CA--CB-[CG] |==|  0.89930
USER: genes 25 Torsion [CA]-CB--CG-[CD2] |==|  0.33578
ROOT
ATOM      1  C   HIS X   1       3.448   0.653  18.417  1.00 40.87 LIG 0.24  C 
ATOM      2 O    HIS X   1       4.608   0.230  18.446  1.00 40.80 LIG-0.27  OA
ATOM      3  N   HIS X   2       2.390  -0.035  18.797  1.00 30.16 LIG-0.35  N 
ATOM      4 H    HIS X   2       1.587   0.270  18.753  1.00 30.16 LIG 0.16  HD
ENDROOT
BRANCH 1 5
ATOM      5  CA  HIS X   1       3.104   2.048  17.940  1.00 48.06 LIG 0.18  C 
BRANCH 5 6
ATOM      6  N   HIS X   1       2.862   2.915  19.096  1.00 54.11 LIG-0.35  N 
ATOM      7 H    HIS X   1       3.535   3.407  19.310  1.00 54.11 LIG 0.16  HD
ATOM      8  C   HIS X   0       1.715   2.933  19.742  1.00 58.54 LIG 0.24  C 
ATOM      9 O    HIS X   0       0.833   2.084  19.599  1.00 63.37 LIG-0.27  OA
BRANCH 8 10
ATOM     10  CA  HIS X   0       1.560   4.106  20.695  1.00 62.53 LIG 0.18  C 
BRANCH 10 11
ATOM     11  N   HIS X   0       0.470   3.905  21.656  1.00 60.73 LIG-0.35  N 
ATOM     12  C   HIS X  -1      -0.690   4.525  21.511  1.00 60.09 LIG 0.25  C 
ATOM     13 O    HIS X  -1      -1.120   4.920  20.425  1.00 62.79 LIG-0.27  OA
ATOM     14 H    HIS X   0       0.653   3.365  22.299  1.00 60.73 LIG 0.16  HD
BRANCH 12 15
ATOM     15  CA  HIS X  -1      -1.495   4.688  22.795  1.00 59.53 LIG 0.28  C 
BRANCH 15 16
ATOM     16  N   HIS X  -1      -2.620   5.659  22.573  1.00 57.14 LIG-0.07  N 
ATOM     17 H3   HIS X  -1      -2.543   6.023  21.764  1.00 57.14 LIG 0.28  HD
ATOM     18 H2   HIS X  -1      -2.586   6.299  23.190  1.00 57.14 LIG 0.28  HD
ATOM     19 H1   HIS X  -1      -3.398   5.230  22.632  1.00 57.14 LIG 0.28  HD
ENDBRANCH 15 16
BRANCH 15 20
ATOM     20  CB  HIS X  -1      -2.033   3.344  23.285  1.00 57.27 LIG 0.10  C 
BRANCH 20 21
ATOM     21  CG  HIS X  -1      -3.000   2.701  22.344  1.00 54.13 LIG 0.06  A 
ATOM     22 ND1  HIS X  -1      -4.353   2.965  22.373  1.00 52.72 LIG-0.24  NA
ATOM     23  CE1 HIS X  -1      -4.959   2.243  21.445  1.00 54.35 LIG 0.23  A 
ATOM     24 NE2  HIS X  -1      -4.048   1.520  20.816  1.00 53.65 LIG-0.25  NA
ATOM     25  CD2 HIS X  -1      -2.813   1.790  21.360  1.00 55.23 LIG 0.14  A 
ENDBRANCH 20 21
ENDBRANCH 15 20
ENDBRANCH 12 15
ENDBRANCH 10 11
BRANCH 10 26
ATOM     26  CB  HIS X   0       2.902   4.389  21.405  1.00 64.99 LIG 0.10  C 
BRANCH 26 27
ATOM     27  CG  HIS X   0       2.947   5.701  22.134  1.00 69.41 LIG 0.06  A 
ATOM     28 ND1  HIS X   0       1.873   6.567  22.179  1.00 72.01 LIG-0.24  NA
ATOM     29  CE1 HIS X   0       2.196   7.632  22.893  1.00 72.69 LIG 0.23  A 
ATOM     30 NE2  HIS X   0       3.439   7.487  23.318  1.00 72.94 LIG-0.25  NA
ATOM     31  CD2 HIS X   0       3.930   6.285  22.861  1.00 71.12 LIG 0.14  A 
ENDBRANCH 26 27
ENDBRANCH 10 26
ENDBRANCH 8 10
ENDBRANCH 5 6
BRANCH 5 32
ATOM     32  CB  HIS X   1       4.240   2.608  17.086  1.00 48.25 LIG 0.10  C 
BRANCH 32 33
ATOM     33  CG  HIS X   1       3.781   3.552  16.019  1.00 50.36 LIG 0.06  A 
ATOM     34  CD2 HIS X   1       2.565   4.103  15.782  1.00 51.47 LIG 0.14  A 
ATOM     35 NE2  HIS X   1       2.694   4.909  14.676  1.00 50.72 LIG-0.25  NA
ATOM     36  CE1 HIS X   1       3.944   4.855  14.251  1.00 48.50 LIG 0.23  A 
ATOM     37 ND1  HIS X   1       4.622   4.042  15.041  1.00 47.89 LIG-0.24  NA
ENDBRANCH 32 33
ENDBRANCH 5 32
ENDBRANCH 1 5
BRANCH 3 38
ATOM     38  CA  HIS X   2       2.478  -1.410  19.341  1.00 26.25 LIG 0.18  C 
BRANCH 38 39
ATOM     39  C   HIS X   2       1.830  -2.449  18.431  1.00 23.72 LIG 0.24  C 
ATOM     40  N   HIS X   3       1.564  -2.008  17.212  1.00 22.33 LIG-0.35  N 
ATOM     41 H    HIS X   3       1.722  -1.205  16.950  1.00 22.33 LIG 0.16  HD
ATOM     42 O    HIS X   2       1.566  -3.598  18.816  1.00 19.88 LIG-0.27  OA
BRANCH 40 43
ATOM     43  CA  HIS X   3       0.965  -2.872  16.183  1.00 22.38 LIG 0.18  C 
BRANCH 43 44
ATOM     44  CB  HIS X   3       1.866  -4.086  15.792  1.00 22.51 LIG 0.10  C 
BRANCH 44 45
ATOM     45  CG  HIS X   3       3.281  -4.026  16.293  1.00 18.10 LIG 0.06  A 
ATOM     46  CD2 HIS X   3       4.040  -4.935  16.955  1.00 18.75 LIG 0.14  A 
ATOM     47 NE2  HIS X   3       5.286  -4.376  17.127  1.00 20.06 LIG-0.25  NA
ATOM     48  CE1 HIS X   3       5.295  -3.175  16.578  1.00 21.69 LIG 0.23  A 
ATOM     49 ND1  HIS X   3       4.101  -2.949  16.055  1.00 17.48 LIG-0.24  NA
ENDBRANCH 44 45
ENDBRANCH 43 44
BRANCH 43 50
ATOM     50  C   HIS X   3      -0.452  -3.294  16.570  1.00 21.59 LIG 0.24  C 
ATOM     51 O    HIS X   3      -0.754  -3.579  17.723  1.00 25.47 LIG-0.27  OA
ATOM     52  N   HIS X   4      -1.301  -3.386  15.568  1.00 25.63 LIG-0.35  N 
ATOM     53 H    HIS X   4      -1.102  -3.220  14.748  1.00 25.63 LIG 0.16  HD
BRANCH 52 54
ATOM     54  CA  HIS X   4      -2.691  -3.792  15.791  1.00 23.96 LIG 0.17  C 
BRANCH 54 55
ATOM     55  C   HIS X   4      -3.364  -2.741  16.681  1.00 31.35 LIG 0.22  C 
ATOM     56 O    HIS X   4      -3.154  -1.538  16.520  1.00 37.06 LIG-0.29  OA
ENDBRANCH 54 55
BRANCH 54 57
ATOM     57  CB  HIS X   4      -2.785  -5.191  16.413  1.00 23.83 LIG 0.09  C 
BRANCH 57 58
ATOM     58  CG  HIS X   4      -3.001  -6.293  15.410  1.00 22.57 LIG 0.06  A 
ATOM     59 ND1  HIS X   4      -1.963  -6.935  14.758  1.00 22.63 LIG-0.24  NA
ATOM     60  CE1 HIS X   4      -2.458  -7.855  13.947  1.00 19.94 LIG 0.23  A 
ATOM     61 NE2  HIS X   4      -3.774  -7.822  14.034  1.00 20.25 LIG-0.25  NA
ATOM     62  CD2 HIS X   4      -4.138  -6.865  14.951  1.00 21.52 LIG 0.14  A 
ENDBRANCH 57 58
ENDBRANCH 54 57
ENDBRANCH 52 54
ENDBRANCH 43 50
ENDBRANCH 40 43
ENDBRANCH 38 39
BRANCH 38 63
ATOM     63  CB  HIS X   2       1.844  -1.487  20.735  1.00 28.74 LIG 0.10  C 
BRANCH 63 64
ATOM     64  CG  HIS X   2       2.065  -0.266  21.564  1.00 28.63 LIG 0.06  A 
ATOM     65 ND1  HIS X   2       3.323   0.195  21.871  1.00 31.27 LIG-0.24  NA
ATOM     66  CE1 HIS X   2       3.223   1.293  22.597  1.00 28.11 LIG 0.23  A 
ATOM     67 NE2  HIS X   2       1.944   1.556  22.783  1.00 29.87 LIG-0.25  NA
ATOM     68  CD2 HIS X   2       1.195   0.598  22.139  1.00 31.84 LIG 0.14  A 
ENDBRANCH 63 64
ENDBRANCH 38 63
ENDBRANCH 3 38
TORSDOF 24
ENDMDL
MODEL 58
USER: ADFR SOLUTION from run 173
USER: SCORE 18.170900 LL:  -6.053 LR: -13.616 RR:   0.000 FEB:  -6.457
USER: RMSD 10.165394
USER: SEED 172
USER: STATUS no improvement in best in 23 clusters for 5 generations
USER: GENES 26
USER: genes 0 Translation |==|  0.41835 0.46296 0.35504
USER: genes 1 Rotation |==|  0.62972 0.32293 0.91337 0.67591
USER: genes 2 Torsion [N]-C--CA-[N] |==|  0.41453
USER: genes 3 Torsion [C]-CA--N-[C] |==|  0.65819
USER: genes 4 Torsion [N]-C--CA-[N] |==|  0.97222
USER: genes 5 Torsion [C]-CA--N-[C] |==|  0.79218
USER: genes 6 Torsion [N]-C--CA-[N] |==|  0.43968
USER: genes 7 Torsion [C]-CA--N-[H2] |==|  0.31316
USER: genes 8 Torsion [C]-CA--CB-[CG] |==|  0.81196
USER: genes 9 Torsion [CA]-CB--CG-[ND1] |==|  0.75762
USER: genes 10 Torsion [C]-CA--CB-[CG] |==|  0.50179
USER: genes 11 Torsion [CA]-CB--CG-[CD2] |==|  0.99364
USER: genes 12 Torsion [C]-CA--CB-[CG] |==|  0.09415
USER: genes 13 Torsion [CA]-CB--CG-[CD2] |==|  0.23376
USER: genes 14 Torsion [C]-N--CA-[C] |==|  0.70308
USER: genes 15 Torsion [N]-CA--C-[N] |==|  0.79149
USER: genes 16 Torsion [C]-N--CA-[CB] |==|  0.19610
USER: genes 17 Torsion [N]-CA--CB-[CG] |==|  0.44482
USER: genes 18 Torsion [CA]-CB--CG-[ND1] |==|  0.79801
USER: genes 19 Torsion [N]-CA--C-[N] |==|  0.89695
USER: genes 20 Torsion [C]-N--CA-[C] |==|  0.18548
USER: genes 21 Torsion [N]-CA--C-[O] |==|  0.22670
USER: genes 22 Torsion [N]-CA--CB-[CG] |==|  0.77985
USER: genes 23 Torsion [CA]-CB--CG-[ND1] |==|  0.20170
USER: genes 24 Torsion [N]-CA--CB-[CG] |==|  0.51942
USER: genes 25 Torsion [CA]-CB--CG-[CD2] |==|  0.58166
ROOT
ATOM      1  C   HIS X   1       0.977  -0.871  16.961  1.00 40.87 LIG 0.24  C 
ATOM      2 O    HIS X   1       1.780  -1.449  16.222  1.00 40.80 LIG-0.27  OA
ATOM      3  N   HIS X   2       1.051   0.401  17.300  1.00 30.16 LIG-0.35  N 
ATOM      4 H    HIS X   2       0.492   0.782  17.831  1.00 30.16 LIG 0.16  HD
ENDROOT
BRANCH 1 5
ATOM      5  CA  HIS X   1      -0.219  -1.574  17.568  1.00 48.06 LIG 0.18  C 
BRANCH 5 6
ATOM      6  N   HIS X   1      -0.671  -2.638  16.668  1.00 54.11 LIG-0.35  N 
ATOM      7 H    HIS X   1      -0.064  -3.216  16.478  1.00 54.11 LIG 0.16  HD
ATOM      8  C   HIS X   0      -1.900  -2.694  16.196  1.00 58.54 LIG 0.24  C 
ATOM      9 O    HIS X   0      -2.706  -1.764  16.267  1.00 63.37 LIG-0.27  OA
BRANCH 8 10
ATOM     10  CA  HIS X   0      -2.252  -4.021  15.546  1.00 62.53 LIG 0.18  C 
BRANCH 10 11
ATOM     11  N   HIS X   0      -1.078  -4.885  15.368  1.00 60.73 LIG-0.35  N 
ATOM     12  C   HIS X  -1      -0.188  -4.639  14.421  1.00 60.09 LIG 0.25  C 
ATOM     13 O    HIS X  -1       0.005  -3.519  13.942  1.00 62.79 LIG-0.27  OA
ATOM     14 H    HIS X   0      -1.029  -5.541  15.921  1.00 60.73 LIG 0.16  HD
BRANCH 12 15
ATOM     15  CA  HIS X  -1       0.627  -5.849  13.978  1.00 59.53 LIG 0.28  C 
BRANCH 15 16
ATOM     16  N   HIS X  -1       1.189  -5.611  12.605  1.00 57.14 LIG-0.07  N 
ATOM     17 H3   HIS X  -1       0.973  -6.292  12.074  1.00 57.14 LIG 0.28  HD
ATOM     18 H2   HIS X  -1       2.075  -5.544  12.655  1.00 57.14 LIG 0.28  HD
ATOM     19 H1   HIS X  -1       0.852  -4.857  12.273  1.00 57.14 LIG 0.28  HD
ENDBRANCH 15 16
BRANCH 15 20
ATOM     20  CB  HIS X  -1       1.746  -6.156  14.973  1.00 57.27 LIG 0.10  C 
BRANCH 20 21
ATOM     21  CG  HIS X  -1       2.818  -5.115  15.016  1.00 54.13 LIG 0.06  A 
ATOM     22 ND1  HIS X  -1       3.906  -5.133  14.170  1.00 52.72 LIG-0.24  NA
ATOM     23  CE1 HIS X  -1       4.693  -4.107  14.448  1.00 54.35 LIG 0.23  A 
ATOM     24 NE2  HIS X  -1       4.155  -3.425  15.445  1.00 53.65 LIG-0.25  NA
ATOM     25  CD2 HIS X  -1       2.980  -4.035  15.817  1.00 55.23 LIG 0.14  A 
ENDBRANCH 20 21
ENDBRANCH 15 20
ENDBRANCH 12 15
ENDBRANCH 10 11
BRANCH 10 26
ATOM     26  CB  HIS X   0      -3.362  -4.727  16.355  1.00 64.99 LIG 0.10  C 
BRANCH 26 27
ATOM     27  CG  HIS X   0      -3.773  -6.061  15.801  1.00 69.41 LIG 0.06  A 
ATOM     28 ND1  HIS X   0      -4.732  -6.854  16.399  1.00 72.01 LIG-0.24  NA
ATOM     29  CE1 HIS X   0      -4.893  -7.959  15.691  1.00 72.69 LIG 0.23  A 
ATOM     30 NE2  HIS X   0      -4.077  -7.910  14.653  1.00 72.94 LIG-0.25  NA
ATOM     31  CD2 HIS X   0      -3.368  -6.732  14.695  1.00 71.12 LIG 0.14  A 
ENDBRANCH 26 27
ENDBRANCH 10 26
ENDBRANCH 8 10
ENDBRANCH 5 6
BRANCH 5 32
ATOM     32  CB  HIS X   1       0.148  -2.155  18.932  1.00 48.25 LIG 0.10  C 
BRANCH 32 33
ATOM     33  CG  HIS X   1       1.137  -1.327  19.692  1.00 50.36 LIG 0.06  A 
ATOM     34  CD2 HIS X   1       0.964  -0.246  20.492  1.00 51.47 LIG 0.14  A 
ATOM     35 NE2  HIS X   1       2.207   0.123  20.948  1.00 50.72 LIG-0.25  NA
ATOM     36  CE1 HIS X   1       3.110  -0.702  20.446  1.00 48.50 LIG 0.23  A 
ATOM     37 ND1  HIS X   1       2.493  -1.586  19.683  1.00 47.89 LIG-0.24  NA
ENDBRANCH 32 33
ENDBRANCH 5 32
ENDBRANCH 1 5
BRANCH 3 38
ATOM     38  CA  HIS X   2       2.111   1.305  16.798  1.00 26.25 LIG 0.18  C 
BRANCH 38 39
ATOM     39  C   HIS X   2       3.149   1.649  17.861  1.00 23.72 LIG 0.24  C 
ATOM     40  N   HIS X   3       2.727   2.518  18.765  1.00 22.33 LIG-0.35  N 
ATOM     41 H    HIS X   3       1.946   2.877  18.755  1.00 22.33 LIG 0.16  HD
ATOM     42 O    HIS X   2       4.289   1.163  17.859  1.00 19.88 LIG-0.27  OA
BRANCH 40 43
ATOM     43  CA  HIS X   3       3.576   2.952  19.887  1.00 22.38 LIG 0.18  C 
BRANCH 43 44
ATOM     44  CB  HIS X   3       4.760   3.870  19.447  1.00 22.51 LIG 0.10  C 
BRANCH 44 45
ATOM     45  CG  HIS X   3       5.367   4.707  20.538  1.00 18.10 LIG 0.06  A 
ATOM     46  CD2 HIS X   3       6.579   4.655  21.143  1.00 18.75 LIG 0.14  A 
ATOM     47 NE2  HIS X   3       6.629   5.693  22.045  1.00 20.06 LIG-0.25  NA
ATOM     48  CE1 HIS X   3       5.495   6.366  21.984  1.00 21.69 LIG 0.23  A 
ATOM     49 ND1  HIS X   3       4.725   5.799  21.070  1.00 17.48 LIG-0.24  NA
ENDBRANCH 44 45
ENDBRANCH 43 44
BRANCH 43 50
ATOM     50  C   HIS X   3       2.740   3.569  21.007  1.00 21.59 LIG 0.24  C 
ATOM     51 O    HIS X   3       2.979   3.356  22.190  1.00 25.47 LIG-0.27  OA
ATOM     52  N   HIS X   4       1.714   4.291  20.607  1.00 25.63 LIG-0.35  N 
ATOM     53 H    HIS X   4       1.511   4.428  19.782  1.00 25.63 LIG 0.16  HD
BRANCH 52 54
ATOM     54  CA  HIS X   4       0.819   4.932  21.574  1.00 23.96 LIG 0.17  C 
BRANCH 54 55
ATOM     55  C   HIS X   4       1.606   6.018  22.314  1.00 31.35 LIG 0.22  C 
ATOM     56 O    HIS X   4       1.778   7.133  21.818  1.00 37.06 LIG-0.29  OA
ENDBRANCH 54 55
BRANCH 54 57
ATOM     57  CB  HIS X   4       0.214   3.917  22.552  1.00 23.83 LIG 0.09  C 
BRANCH 57 58
ATOM     58  CG  HIS X   4      -0.941   3.134  21.986  1.00 22.57 LIG 0.06  A 
ATOM     59 ND1  HIS X   4      -0.786   2.141  21.037  1.00 22.63 LIG-0.24  NA
ATOM     60  CE1 HIS X   4      -1.970   1.632  20.739  1.00 19.94 LIG 0.23  A 
ATOM     61 NE2  HIS X   4      -2.886   2.268  21.445  1.00 20.25 LIG-0.25  NA
ATOM     62  CD2 HIS X   4      -2.267   3.202  22.242  1.00 21.52 LIG 0.14  A 
ENDBRANCH 57 58
ENDBRANCH 54 57
ENDBRANCH 52 54
ENDBRANCH 43 50
ENDBRANCH 40 43
ENDBRANCH 38 39
BRANCH 38 63
ATOM     63  CB  HIS X   2       1.505   2.599  16.240  1.00 28.74 LIG 0.10  C 
BRANCH 63 64
ATOM     64  CG  HIS X   2       2.499   3.486  15.567  1.00 28.63 LIG 0.06  A 
ATOM     65 ND1  HIS X   2       3.609   2.991  14.924  1.00 31.27 LIG-0.24  NA
ATOM     66  CE1 HIS X   2       4.299   3.991  14.408  1.00 28.11 LIG 0.23  A 
ATOM     67 NE2  HIS X   2       3.682   5.120  14.700  1.00 29.87 LIG-0.25  NA
ATOM     68  CD2 HIS X   2       2.546   4.832  15.419  1.00 31.84 LIG 0.14  A 
ENDBRANCH 63 64
ENDBRANCH 38 63
ENDBRANCH 3 38
TORSDOF 24
ENDMDL
MODEL 59
USER: ADFR SOLUTION from run 34
USER: SCORE 18.484606 LL:  -5.306 LR: -13.624 RR:   0.000 FEB:  -6.464
USER: RMSD 7.037702
USER: SEED 33
USER: STATUS no improvement in best in 7 clusters for 5 generations
USER: GENES 26
USER: genes 0 Translation |==|  0.46944 0.51675 0.38748
USER: genes 1 Rotation |==|  0.52780 0.89535 0.64553 0.76785
USER: genes 2 Torsion [N]-C--CA-[N] |==|  0.39962
USER: genes 3 Torsion [C]-CA--N-[C] |==|  0.84977
USER: genes 4 Torsion [N]-C--CA-[N] |==|  0.47506
USER: genes 5 Torsion [C]-CA--N-[C] |==|  0.69131
USER: genes 6 Torsion [N]-C--CA-[N] |==|  0.51030
USER: genes 7 Torsion [C]-CA--N-[H2] |==|  0.30697
USER: genes 8 Torsion [C]-CA--CB-[CG] |==|  0.82750
USER: genes 9 Torsion [CA]-CB--CG-[ND1] |==|  0.75985
USER: genes 10 Torsion [C]-CA--CB-[CG] |==|  0.44186
USER: genes 11 Torsion [CA]-CB--CG-[CD2] |==|  0.51795
USER: genes 12 Torsion [C]-CA--CB-[CG] |==|  0.45513
USER: genes 13 Torsion [CA]-CB--CG-[CD2] |==|  0.51462
USER: genes 14 Torsion [C]-N--CA-[C] |==|  0.84334
USER: genes 15 Torsion [N]-CA--C-[N] |==|  0.39647
USER: genes 16 Torsion [C]-N--CA-[CB] |==|  0.86073
USER: genes 17 Torsion [N]-CA--CB-[CG] |==|  0.88770
USER: genes 18 Torsion [CA]-CB--CG-[ND1] |==|  0.42620
USER: genes 19 Torsion [N]-CA--C-[N] |==|  0.91085
USER: genes 20 Torsion [C]-N--CA-[C] |==|  0.76874
USER: genes 21 Torsion [N]-CA--C-[O] |==|  0.80341
USER: genes 22 Torsion [N]-CA--CB-[CG] |==|  0.78606
USER: genes 23 Torsion [CA]-CB--CG-[ND1] |==|  0.99381
USER: genes 24 Torsion [N]-CA--CB-[CG] |==|  0.68521
USER: genes 25 Torsion [CA]-CB--CG-[CD2] |==|  0.70631
ROOT
ATOM      1  C   HIS X   1       2.011   0.420  17.545  1.00 40.87 LIG 0.24  C 
ATOM      2 O    HIS X   1       2.650  -0.039  18.496  1.00 40.80 LIG-0.27  OA
ATOM      3  N   HIS X   2       1.244  -0.293  16.744  1.00 30.16 LIG-0.35  N 
ATOM      4 H    HIS X   2       0.820   0.042  16.075  1.00 30.16 LIG 0.16  HD
ENDROOT
BRANCH 1 5
ATOM      5  CA  HIS X   1       2.030   1.891  17.188  1.00 48.06 LIG 0.18  C 
BRANCH 5 6
ATOM      6  N   HIS X   1       2.101   2.691  18.413  1.00 54.11 LIG-0.35  N 
ATOM      7 H    HIS X   1       2.752   3.254  18.427  1.00 54.11 LIG 0.16  HD
ATOM      8  C   HIS X   0       1.239   2.554  19.400  1.00 58.54 LIG 0.24  C 
ATOM      9 O    HIS X   0       0.453   1.610  19.500  1.00 63.37 LIG-0.27  OA
BRANCH 8 10
ATOM     10  CA  HIS X   0       1.293   3.674  20.426  1.00 62.53 LIG 0.18  C 
BRANCH 10 11
ATOM     11  N   HIS X   0       0.187   3.602  21.389  1.00 60.73 LIG-0.35  N 
ATOM     12  C   HIS X  -1      -0.775   4.510  21.392  1.00 60.09 LIG 0.25  C 
ATOM     13 O    HIS X  -1      -1.090   5.171  20.401  1.00 62.79 LIG-0.27  OA
ATOM     14 H    HIS X   0       0.226   2.936  21.931  1.00 60.73 LIG 0.16  HD
BRANCH 12 15
ATOM     15  CA  HIS X  -1      -1.510   4.660  22.719  1.00 59.53 LIG 0.28  C 
BRANCH 15 16
ATOM     16  N   HIS X  -1      -2.632   5.649  22.572  1.00 57.14 LIG-0.07  N 
ATOM     17 H3   HIS X  -1      -2.582   6.253  23.225  1.00 57.14 LIG 0.28  HD
ATOM     18 H2   HIS X  -1      -3.412   5.223  22.622  1.00 57.14 LIG 0.28  HD
ATOM     19 H1   HIS X  -1      -2.566   6.058  21.784  1.00 57.14 LIG 0.28  HD
ENDBRANCH 15 16
BRANCH 15 20
ATOM     20  CB  HIS X  -1      -2.040   3.314  23.213  1.00 57.27 LIG 0.10  C 
BRANCH 20 21
ATOM     21  CG  HIS X  -1      -3.040   2.685  22.297  1.00 54.13 LIG 0.06  A 
ATOM     22 ND1  HIS X  -1      -4.387   2.971  22.357  1.00 52.72 LIG-0.24  NA
ATOM     23  CE1 HIS X  -1      -5.026   2.257  21.445  1.00 54.35 LIG 0.23  A 
ATOM     24 NE2  HIS X  -1      -4.142   1.518  20.797  1.00 53.65 LIG-0.25  NA
ATOM     25  CD2 HIS X  -1      -2.890   1.769  21.310  1.00 55.23 LIG 0.14  A 
ENDBRANCH 20 21
ENDBRANCH 15 20
ENDBRANCH 12 15
ENDBRANCH 10 11
BRANCH 10 26
ATOM     26  CB  HIS X   0       2.666   3.678  21.133  1.00 64.99 LIG 0.10  C 
BRANCH 26 27
ATOM     27  CG  HIS X   0       3.021   4.986  21.780  1.00 69.41 LIG 0.06  A 
ATOM     28 ND1  HIS X   0       2.131   6.037  21.874  1.00 72.01 LIG-0.24  NA
ATOM     29  CE1 HIS X   0       2.711   7.050  22.495  1.00 72.69 LIG 0.23  A 
ATOM     30 NE2  HIS X   0       3.944   6.693  22.811  1.00 72.94 LIG-0.25  NA
ATOM     31  CD2 HIS X   0       4.161   5.405  22.379  1.00 71.12 LIG 0.14  A 
ENDBRANCH 26 27
ENDBRANCH 10 26
ENDBRANCH 8 10
ENDBRANCH 5 6
BRANCH 5 32
ATOM     32  CB  HIS X   1       3.223   2.199  16.285  1.00 48.25 LIG 0.10  C 
BRANCH 32 33
ATOM     33  CG  HIS X   1       3.119   3.514  15.578  1.00 50.36 LIG 0.06  A 
ATOM     34  CD2 HIS X   1       3.913   4.085  14.639  1.00 51.47 LIG 0.14  A 
ATOM     35 NE2  HIS X   1       3.354   5.299  14.320  1.00 50.72 LIG-0.25  NA
ATOM     36  CE1 HIS X   1       2.256   5.466  15.036  1.00 48.50 LIG 0.23  A 
ATOM     37 ND1  HIS X   1       2.090   4.406  15.805  1.00 47.89 LIG-0.24  NA
ENDBRANCH 32 33
ENDBRANCH 5 32
ENDBRANCH 1 5
BRANCH 3 38
ATOM     38  CA  HIS X   2       1.033  -1.748  16.918  1.00 26.25 LIG 0.18  C 
BRANCH 38 39
ATOM     39  C   HIS X   2       2.337  -2.539  16.919  1.00 23.72 LIG 0.24  C 
ATOM     40  N   HIS X   3       2.352  -3.554  17.767  1.00 22.33 LIG-0.35  N 
ATOM     41 H    HIS X   3       1.697  -3.750  18.289  1.00 22.33 LIG 0.16  HD
ATOM     42 O    HIS X   2       3.298  -2.238  16.195  1.00 19.88 LIG-0.27  OA
BRANCH 40 43
ATOM     43  CA  HIS X   3       3.512  -4.451  17.891  1.00 22.38 LIG 0.18  C 
BRANCH 43 44
ATOM     44  CB  HIS X   3       4.018  -5.002  16.521  1.00 22.51 LIG 0.10  C 
BRANCH 44 45
ATOM     45  CG  HIS X   3       2.944  -5.391  15.545  1.00 18.10 LIG 0.06  A 
ATOM     46  CD2 HIS X   3       1.645  -5.735  15.727  1.00 18.75 LIG 0.14  A 
ATOM     47 NE2  HIS X   3       1.102  -5.950  14.481  1.00 20.06 LIG-0.25  NA
ATOM     48  CE1 HIS X   3       2.030  -5.731  13.568  1.00 21.69 LIG 0.23  A 
ATOM     49 ND1  HIS X   3       3.145  -5.377  14.186  1.00 17.48 LIG-0.24  NA
ENDBRANCH 44 45
ENDBRANCH 43 44
BRANCH 43 50
ATOM     50  C   HIS X   3       4.627  -3.804  18.712  1.00 21.59 LIG 0.24  C 
ATOM     51 O    HIS X   3       5.347  -4.456  19.460  1.00 25.47 LIG-0.27  OA
ATOM     52  N   HIS X   4       4.714  -2.495  18.602  1.00 25.63 LIG-0.35  N 
ATOM     53 H    HIS X   4       4.199  -2.015  18.107  1.00 25.63 LIG 0.16  HD
BRANCH 52 54
ATOM     54  CA  HIS X   4       5.729  -1.741  19.342  1.00 23.96 LIG 0.17  C 
BRANCH 54 55
ATOM     55  C   HIS X   4       5.202  -1.484  20.758  1.00 31.35 LIG 0.22  C 
ATOM     56 O    HIS X   4       4.280  -0.693  20.963  1.00 37.06 LIG-0.29  OA
ENDBRANCH 54 55
BRANCH 54 57
ATOM     57  CB  HIS X   4       6.093  -0.429  18.637  1.00 23.83 LIG 0.09  C 
BRANCH 57 58
ATOM     58  CG  HIS X   4       7.004  -0.604  17.450  1.00 22.57 LIG 0.06  A 
ATOM     59 ND1  HIS X   4       7.506  -1.831  17.059  1.00 22.63 LIG-0.24  NA
ATOM     60  CE1 HIS X   4       8.266  -1.672  15.988  1.00 19.94 LIG 0.23  A 
ATOM     61 NE2  HIS X   4       8.289  -0.389  15.680  1.00 20.25 LIG-0.25  NA
ATOM     62  CD2 HIS X   4       7.496   0.297  16.571  1.00 21.52 LIG 0.14  A 
ENDBRANCH 57 58
ENDBRANCH 54 57
ENDBRANCH 52 54
ENDBRANCH 43 50
ENDBRANCH 40 43
ENDBRANCH 38 39
BRANCH 38 63
ATOM     63  CB  HIS X   2       0.104  -2.299  15.830  1.00 28.74 LIG 0.10  C 
BRANCH 63 64
ATOM     64  CG  HIS X   2      -1.211  -2.779  16.348  1.00 28.63 LIG 0.06  A 
ATOM     65 ND1  HIS X   2      -2.209  -1.915  16.729  1.00 31.27 LIG-0.24  NA
ATOM     66  CE1 HIS X   2      -3.260  -2.607  17.128  1.00 28.11 LIG 0.23  A 
ATOM     67 NE2  HIS X   2      -2.977  -3.891  17.030  1.00 29.87 LIG-0.25  NA
ATOM     68  CD2 HIS X   2      -1.700  -4.027  16.535  1.00 31.84 LIG 0.14  A 
ENDBRANCH 63 64
ENDBRANCH 38 63
ENDBRANCH 3 38
TORSDOF 24
ENDMDL
MODEL 60
USER: ADFR SOLUTION from run 121
USER: SCORE 18.249375 LL:  -6.375 LR: -13.616 RR:   0.000 FEB:  -6.456
USER: RMSD 9.706643
USER: SEED 120
USER: STATUS no improvement in best in 18 clusters for 5 generations
USER: GENES 26
USER: genes 0 Translation |==|  0.53649 0.55738 0.42486
USER: genes 1 Rotation |==|  0.30213 0.19056 0.82790 0.58702
USER: genes 2 Torsion [N]-C--CA-[N] |==|  0.66111
USER: genes 3 Torsion [C]-CA--N-[C] |==|  0.13901
USER: genes 4 Torsion [N]-C--CA-[N] |==|  0.54221
USER: genes 5 Torsion [C]-CA--N-[C] |==|  0.58834
USER: genes 6 Torsion [N]-C--CA-[N] |==|  0.95323
USER: genes 7 Torsion [C]-CA--N-[H2] |==|  0.94912
USER: genes 8 Torsion [C]-CA--CB-[CG] |==|  0.88230
USER: genes 9 Torsion [CA]-CB--CG-[ND1] |==|  0.85739
USER: genes 10 Torsion [C]-CA--CB-[CG] |==|  0.32689
USER: genes 11 Torsion [CA]-CB--CG-[CD2] |==|  0.98537
USER: genes 12 Torsion [C]-CA--CB-[CG] |==|  0.28569
USER: genes 13 Torsion [CA]-CB--CG-[CD2] |==|  0.55520
USER: genes 14 Torsion [C]-N--CA-[C] |==|  0.61719
USER: genes 15 Torsion [N]-CA--C-[N] |==|  0.90773
USER: genes 16 Torsion [C]-N--CA-[CB] |==|  0.85816
USER: genes 17 Torsion [N]-CA--CB-[CG] |==|  0.85386
USER: genes 18 Torsion [CA]-CB--CG-[ND1] |==|  0.33395
USER: genes 19 Torsion [N]-CA--C-[N] |==|  0.88558
USER: genes 20 Torsion [C]-N--CA-[C] |==|  0.60402
USER: genes 21 Torsion [N]-CA--C-[O] |==|  0.05043
USER: genes 22 Torsion [N]-CA--CB-[CG] |==|  0.84794
USER: genes 23 Torsion [CA]-CB--CG-[ND1] |==|  0.21701
USER: genes 24 Torsion [N]-CA--CB-[CG] |==|  0.95859
USER: genes 25 Torsion [CA]-CB--CG-[CD2] |==|  0.80039
ROOT
ATOM      1  C   HIS X   1       3.369   1.395  18.218  1.00 40.87 LIG 0.24  C 
ATOM      2 O    HIS X   1       4.032   0.428  18.605  1.00 40.80 LIG-0.27  OA
ATOM      3  N   HIS X   2       3.274   2.544  18.858  1.00 30.16 LIG-0.35  N 
ATOM      4 H    HIS X   2       2.792   3.200  18.581  1.00 30.16 LIG 0.16  HD
ENDROOT
BRANCH 1 5
ATOM      5  CA  HIS X   1       2.578   1.373  16.926  1.00 48.06 LIG 0.18  C 
BRANCH 5 6
ATOM      6  N   HIS X   1       1.606   0.277  16.967  1.00 54.11 LIG-0.35  N 
ATOM      7 H    HIS X   1       1.621  -0.229  16.272  1.00 54.11 LIG 0.16  HD
ATOM      8  C   HIS X   0       0.787   0.093  17.981  1.00 58.54 LIG 0.24  C 
ATOM      9 O    HIS X   0       0.591   0.928  18.867  1.00 63.37 LIG-0.27  OA
BRANCH 8 10
ATOM     10  CA  HIS X   0       0.089  -1.257  17.974  1.00 62.53 LIG 0.18  C 
BRANCH 10 11
ATOM     11  N   HIS X   0      -1.058  -1.298  18.889  1.00 60.73 LIG-0.35  N 
ATOM     12  C   HIS X  -1      -1.402  -2.418  19.503  1.00 60.09 LIG 0.25  C 
ATOM     13 O    HIS X  -1      -0.613  -3.336  19.737  1.00 62.79 LIG-0.27  OA
ATOM     14 H    HIS X   0      -1.469  -0.548  18.982  1.00 60.73 LIG 0.16  HD
BRANCH 12 15
ATOM     15  CA  HIS X  -1      -2.859  -2.485  19.946  1.00 59.53 LIG 0.28  C 
BRANCH 15 16
ATOM     16  N   HIS X  -1      -3.457  -1.107  19.945  1.00 57.14 LIG-0.07  N 
ATOM     17 H3   HIS X  -1      -3.956  -1.000  19.216  1.00 57.14 LIG 0.28  HD
ATOM     18 H2   HIS X  -1      -2.805  -0.500  19.949  1.00 57.14 LIG 0.28  HD
ATOM     19 H1   HIS X  -1      -3.964  -1.003  20.669  1.00 57.14 LIG 0.28  HD
ENDBRANCH 15 16
BRANCH 15 20
ATOM     20  CB  HIS X  -1      -3.668  -3.423  19.049  1.00 57.27 LIG 0.10  C 
BRANCH 20 21
ATOM     21  CG  HIS X  -1      -3.360  -3.281  17.593  1.00 54.13 LIG 0.06  A 
ATOM     22 ND1  HIS X  -1      -3.370  -2.063  16.947  1.00 52.72 LIG-0.24  NA
ATOM     23  CE1 HIS X  -1      -3.081  -2.245  15.669  1.00 54.35 LIG 0.23  A 
ATOM     24 NE2  HIS X  -1      -2.887  -3.536  15.463  1.00 53.65 LIG-0.25  NA
ATOM     25  CD2 HIS X  -1      -3.053  -4.206  16.653  1.00 55.23 LIG 0.14  A 
ENDBRANCH 20 21
ENDBRANCH 15 20
ENDBRANCH 12 15
ENDBRANCH 10 11
BRANCH 10 26
ATOM     26  CB  HIS X   0      -0.317  -1.634  16.533  1.00 64.99 LIG 0.10  C 
BRANCH 26 27
ATOM     27  CG  HIS X   0       0.341  -2.881  16.015  1.00 69.41 LIG 0.06  A 
ATOM     28 ND1  HIS X   0       0.041  -3.426  14.783  1.00 72.01 LIG-0.24  NA
ATOM     29  CE1 HIS X   0       0.774  -4.510  14.590  1.00 72.69 LIG 0.23  A 
ATOM     30 NE2  HIS X   0       1.542  -4.685  15.651  1.00 72.94 LIG-0.25  NA
ATOM     31  CD2 HIS X   0       1.294  -3.678  16.555  1.00 71.12 LIG 0.14  A 
ENDBRANCH 26 27
ENDBRANCH 10 26
ENDBRANCH 8 10
ENDBRANCH 5 6
BRANCH 5 32
ATOM     32  CB  HIS X   1       1.864   2.707  16.723  1.00 48.25 LIG 0.10  C 
BRANCH 32 33
ATOM     33  CG  HIS X   1       2.530   3.599  15.721  1.00 50.36 LIG 0.06  A 
ATOM     34  CD2 HIS X   1       2.438   4.936  15.522  1.00 51.47 LIG 0.14  A 
ATOM     35 NE2  HIS X   1       3.269   5.247  14.472  1.00 50.72 LIG-0.25  NA
ATOM     36  CE1 HIS X   1       3.850   4.139  14.044  1.00 48.50 LIG 0.23  A 
ATOM     37 ND1  HIS X   1       3.421   3.129  14.778  1.00 47.89 LIG-0.24  NA
ENDBRANCH 32 33
ENDBRANCH 5 32
ENDBRANCH 1 5
BRANCH 3 38
ATOM     38  CA  HIS X   2       3.991   2.820  20.123  1.00 26.25 LIG 0.18  C 
BRANCH 38 39
ATOM     39  C   HIS X   2       3.127   3.551  21.146  1.00 23.72 LIG 0.24  C 
ATOM     40  N   HIS X   3       2.254   4.390  20.613  1.00 22.33 LIG-0.35  N 
ATOM     41 H    HIS X   3       2.182   4.532  19.767  1.00 22.33 LIG 0.16  HD
ATOM     42 O    HIS X   2       3.252   3.378  22.367  1.00 19.88 LIG-0.27  OA
BRANCH 40 43
ATOM     43  CA  HIS X   3       1.313   5.167  21.436  1.00 22.38 LIG 0.18  C 
BRANCH 43 44
ATOM     44  CB  HIS X   3       0.512   4.292  22.452  1.00 22.51 LIG 0.10  C 
BRANCH 44 45
ATOM     45  CG  HIS X   3      -0.199   3.107  21.862  1.00 18.10 LIG 0.06  A 
ATOM     46  CD2 HIS X   3      -1.111   3.011  20.863  1.00 18.75 LIG 0.14  A 
ATOM     47 NE2  HIS X   3      -1.397   1.675  20.700  1.00 20.06 LIG-0.25  NA
ATOM     48  CE1 HIS X   3      -0.676   0.977  21.557  1.00 21.69 LIG 0.23  A 
ATOM     49 ND1  HIS X   3       0.066   1.818  22.258  1.00 17.48 LIG-0.24  NA
ENDBRANCH 44 45
ENDBRANCH 43 44
BRANCH 43 50
ATOM     50  C   HIS X   3       2.010   6.352  22.104  1.00 21.59 LIG 0.24  C 
ATOM     51 O    HIS X   3       1.506   7.468  22.138  1.00 25.47 LIG-0.27  OA
ATOM     52  N   HIS X   4       3.210   6.097  22.582  1.00 25.63 LIG-0.35  N 
ATOM     53 H    HIS X   4       3.595   5.329  22.542  1.00 25.63 LIG 0.16  HD
BRANCH 52 54
ATOM     54  CA  HIS X   4       3.999   7.144  23.238  1.00 23.96 LIG 0.17  C 
BRANCH 54 55
ATOM     55  C   HIS X   4       5.470   6.952  22.853  1.00 31.35 LIG 0.22  C 
ATOM     56 O    HIS X   4       5.792   6.272  21.877  1.00 37.06 LIG-0.29  OA
ENDBRANCH 54 55
BRANCH 54 57
ATOM     57  CB  HIS X   4       3.815   7.129  24.760  1.00 23.83 LIG 0.09  C 
BRANCH 57 58
ATOM     58  CG  HIS X   4       2.379   7.220  25.204  1.00 22.57 LIG 0.06  A 
ATOM     59 ND1  HIS X   4       1.510   6.145  25.178  1.00 22.63 LIG-0.24  NA
ATOM     60  CE1 HIS X   4       0.327   6.526  25.629  1.00 19.94 LIG 0.23  A 
ATOM     61 NE2  HIS X   4       0.390   7.809  25.930  1.00 20.25 LIG-0.25  NA
ATOM     62  CD2 HIS X   4       1.665   8.263  25.686  1.00 21.52 LIG 0.14  A 
ENDBRANCH 57 58
ENDBRANCH 54 57
ENDBRANCH 52 54
ENDBRANCH 43 50
ENDBRANCH 40 43
ENDBRANCH 38 39
BRANCH 38 63
ATOM     63  CB  HIS X   2       5.267   3.629  19.863  1.00 28.74 LIG 0.10  C 
BRANCH 63 64
ATOM     64  CG  HIS X   2       5.683   3.650  18.430  1.00 28.63 LIG 0.06  A 
ATOM     65 ND1  HIS X   2       5.582   4.779  17.652  1.00 31.27 LIG-0.24  NA
ATOM     66  CE1 HIS X   2       6.035   4.518  16.440  1.00 28.11 LIG 0.23  A 
ATOM     67 NE2  HIS X   2       6.418   3.257  16.398  1.00 29.87 LIG-0.25  NA
ATOM     68  CD2 HIS X   2       6.217   2.691  17.636  1.00 31.84 LIG 0.14  A 
ENDBRANCH 63 64
ENDBRANCH 38 63
ENDBRANCH 3 38
TORSDOF 24
ENDMDL
MODEL 61
USER: ADFR SOLUTION from run 42
USER: SCORE 18.695390 LL:  -6.739 LR: -13.625 RR:   0.000 FEB:  -6.466
USER: RMSD 9.175128
USER: SEED 41
USER: STATUS no improvement in best in 22 clusters for 5 generations
USER: GENES 26
USER: genes 0 Translation |==|  0.54540 0.55444 0.39291
USER: genes 1 Rotation |==|  0.58561 0.07569 0.61347 0.72306
USER: genes 2 Torsion [N]-C--CA-[N] |==|  0.16917
USER: genes 3 Torsion [C]-CA--N-[C] |==|  0.75646
USER: genes 4 Torsion [N]-C--CA-[N] |==|  0.35991
USER: genes 5 Torsion [C]-CA--N-[C] |==|  0.64966
USER: genes 6 Torsion [N]-C--CA-[N] |==|  0.49176
USER: genes 7 Torsion [C]-CA--N-[H2] |==|  0.63643
USER: genes 8 Torsion [C]-CA--CB-[CG] |==|  0.81435
USER: genes 9 Torsion [CA]-CB--CG-[ND1] |==|  0.76684
USER: genes 10 Torsion [C]-CA--CB-[CG] |==|  0.50473
USER: genes 11 Torsion [CA]-CB--CG-[CD2] |==|  0.81881
USER: genes 12 Torsion [C]-CA--CB-[CG] |==|  0.83632
USER: genes 13 Torsion [CA]-CB--CG-[CD2] |==|  0.44129
USER: genes 14 Torsion [C]-N--CA-[C] |==|  0.20859
USER: genes 15 Torsion [N]-CA--C-[N] |==|  0.02517
USER: genes 16 Torsion [C]-N--CA-[CB] |==|  0.80933
USER: genes 17 Torsion [N]-CA--CB-[CG] |==|  0.72205
USER: genes 18 Torsion [CA]-CB--CG-[ND1] |==|  0.48916
USER: genes 19 Torsion [N]-CA--C-[N] |==|  0.09462
USER: genes 20 Torsion [C]-N--CA-[C] |==|  0.51989
USER: genes 21 Torsion [N]-CA--C-[O] |==|  0.00689
USER: genes 22 Torsion [N]-CA--CB-[CG] |==|  0.21706
USER: genes 23 Torsion [CA]-CB--CG-[ND1] |==|  0.31777
USER: genes 24 Torsion [N]-CA--CB-[CG] |==|  0.85563
USER: genes 25 Torsion [CA]-CB--CG-[CD2] |==|  0.79753
ROOT
ATOM      1  C   HIS X   1       3.549   1.325  17.642  1.00 40.87 LIG 0.24  C 
ATOM      2 O    HIS X   1       4.138   1.338  16.557  1.00 40.80 LIG-0.27  OA
ATOM      3  N   HIS X   2       4.098   0.972  18.789  1.00 30.16 LIG-0.35  N 
ATOM      4 H    HIS X   2       3.666   0.952  19.532  1.00 30.16 LIG 0.16  HD
ENDROOT
BRANCH 1 5
ATOM      5  CA  HIS X   1       2.097   1.730  17.784  1.00 48.06 LIG 0.18  C 
BRANCH 5 6
ATOM      6  N   HIS X   1       1.997   2.885  18.679  1.00 54.11 LIG-0.35  N 
ATOM      7 H    HIS X   1       2.016   3.644  18.275  1.00 54.11 LIG 0.16  HD
ATOM      8  C   HIS X   0       1.887   2.762  19.986  1.00 58.54 LIG 0.24  C 
ATOM      9 O    HIS X   0       2.088   1.711  20.597  1.00 63.37 LIG-0.27  OA
BRANCH 8 10
ATOM     10  CA  HIS X   0       1.484   4.044  20.696  1.00 62.53 LIG 0.18  C 
BRANCH 10 11
ATOM     11  N   HIS X   0       0.350   3.846  21.606  1.00 60.73 LIG-0.35  N 
ATOM     12  C   HIS X  -1      -0.737   4.595  21.516  1.00 60.09 LIG 0.25  C 
ATOM     13 O    HIS X  -1      -1.093   5.155  20.477  1.00 62.79 LIG-0.27  OA
ATOM     14 H    HIS X   0       0.459   3.218  22.183  1.00 60.73 LIG 0.16  HD
BRANCH 12 15
ATOM     15  CA  HIS X  -1      -1.560   4.689  22.795  1.00 59.53 LIG 0.28  C 
BRANCH 15 16
ATOM     16  N   HIS X  -1      -2.721   5.618  22.589  1.00 57.14 LIG-0.07  N 
ATOM     17 H3   HIS X  -1      -2.619   6.055  21.820  1.00 57.14 LIG 0.28  HD
ATOM     18 H2   HIS X  -1      -2.756   6.203  23.259  1.00 57.14 LIG 0.28  HD
ATOM     19 H1   HIS X  -1      -3.477   5.148  22.565  1.00 57.14 LIG 0.28  HD
ENDBRANCH 15 16
BRANCH 15 20
ATOM     20  CB  HIS X  -1      -2.046   3.310  23.243  1.00 57.27 LIG 0.10  C 
BRANCH 20 21
ATOM     21  CG  HIS X  -1      -3.039   2.689  22.314  1.00 54.13 LIG 0.06  A 
ATOM     22 ND1  HIS X  -1      -4.387   2.973  22.368  1.00 52.72 LIG-0.24  NA
ATOM     23  CE1 HIS X  -1      -5.019   2.268  21.445  1.00 54.35 LIG 0.23  A 
ATOM     24 NE2  HIS X  -1      -4.130   1.535  20.795  1.00 53.65 LIG-0.25  NA
ATOM     25  CD2 HIS X  -1      -2.882   1.783  21.319  1.00 55.23 LIG 0.14  A 
ENDBRANCH 20 21
ENDBRANCH 15 20
ENDBRANCH 12 15
ENDBRANCH 10 11
BRANCH 10 26
ATOM     26  CB  HIS X   0       2.703   4.649  21.425  1.00 64.99 LIG 0.10  C 
BRANCH 26 27
ATOM     27  CG  HIS X   0       2.399   5.903  22.194  1.00 69.41 LIG 0.06  A 
ATOM     28 ND1  HIS X   0       2.509   5.981  23.568  1.00 72.01 LIG-0.24  NA
ATOM     29  CE1 HIS X   0       2.189   7.200  23.967  1.00 72.69 LIG 0.23  A 
ATOM     30 NE2  HIS X   0       1.879   7.918  22.902  1.00 72.94 LIG-0.25  NA
ATOM     31  CD2 HIS X   0       2.007   7.132  21.780  1.00 71.12 LIG 0.14  A 
ENDBRANCH 26 27
ENDBRANCH 10 26
ENDBRANCH 8 10
ENDBRANCH 5 6
BRANCH 5 32
ATOM     32  CB  HIS X   1       1.509   2.068  16.415  1.00 48.25 LIG 0.10  C 
BRANCH 32 33
ATOM     33  CG  HIS X   1       2.227   3.177  15.710  1.00 50.36 LIG 0.06  A 
ATOM     34  CD2 HIS X   1       2.276   3.510  14.397  1.00 51.47 LIG 0.14  A 
ATOM     35 NE2  HIS X   1       3.075   4.623  14.291  1.00 50.72 LIG-0.25  NA
ATOM     36  CE1 HIS X   1       3.499   4.961  15.497  1.00 48.50 LIG 0.23  A 
ATOM     37 ND1  HIS X   1       3.005   4.105  16.372  1.00 47.89 LIG-0.24  NA
ENDBRANCH 32 33
ENDBRANCH 5 32
ENDBRANCH 1 5
BRANCH 3 38
ATOM     38  CA  HIS X   2       5.519   0.575  18.911  1.00 26.25 LIG 0.18  C 
BRANCH 38 39
ATOM     39  C   HIS X   2       6.474   1.763  18.839  1.00 23.72 LIG 0.24  C 
ATOM     40  N   HIS X   3       5.873   2.941  18.872  1.00 22.33 LIG-0.35  N 
ATOM     41 H    HIS X   3       5.019   3.041  18.913  1.00 22.33 LIG 0.16  HD
ATOM     42 O    HIS X   2       7.702   1.624  18.743  1.00 19.88 LIG-0.27  OA
BRANCH 40 43
ATOM     43  CA  HIS X   3       6.628   4.204  18.841  1.00 22.38 LIG 0.18  C 
BRANCH 43 44
ATOM     44  CB  HIS X   3       7.455   4.462  20.140  1.00 22.51 LIG 0.10  C 
BRANCH 44 45
ATOM     45  CG  HIS X   3       6.832   5.410  21.125  1.00 18.10 LIG 0.06  A 
ATOM     46  CD2 HIS X   3       5.662   6.096  21.097  1.00 18.75 LIG 0.14  A 
ATOM     47 NE2  HIS X   3       5.565   6.783  22.285  1.00 20.06 LIG-0.25  NA
ATOM     48  CE1 HIS X   3       6.628   6.516  23.021  1.00 21.69 LIG 0.23  A 
ATOM     49 ND1  HIS X   3       7.399   5.678  22.348  1.00 17.48 LIG-0.24  NA
ENDBRANCH 44 45
ENDBRANCH 43 44
BRANCH 43 50
ATOM     50  C   HIS X   3       7.474   4.312  17.574  1.00 21.59 LIG 0.24  C 
ATOM     51 O    HIS X   3       8.542   4.915  17.554  1.00 25.47 LIG-0.27  OA
ATOM     52  N   HIS X   4       6.944   3.766  16.500  1.00 25.63 LIG-0.35  N 
ATOM     53 H    HIS X   4       6.183   3.366  16.485  1.00 25.63 LIG 0.16  HD
BRANCH 52 54
ATOM     54  CA  HIS X   4       7.641   3.806  15.211  1.00 23.96 LIG 0.17  C 
BRANCH 54 55
ATOM     55  C   HIS X   4       6.699   3.254  14.136  1.00 31.35 LIG 0.22  C 
ATOM     56 O    HIS X   4       5.548   2.910  14.411  1.00 37.06 LIG-0.29  OA
ENDBRANCH 54 55
BRANCH 54 57
ATOM     57  CB  HIS X   4       8.960   3.025  15.250  1.00 23.83 LIG 0.09  C 
BRANCH 57 58
ATOM     58  CG  HIS X   4       8.790   1.532  15.151  1.00 22.57 LIG 0.06  A 
ATOM     59 ND1  HIS X   4       9.247   0.789  14.077  1.00 22.63 LIG-0.24  NA
ATOM     60  CE1 HIS X   4       8.959  -0.487  14.274  1.00 19.94 LIG 0.23  A 
ATOM     61 NE2  HIS X   4       8.319  -0.598  15.423  1.00 20.25 LIG-0.25  NA
ATOM     62  CD2 HIS X   4       8.214   0.647  15.996  1.00 21.52 LIG 0.14  A 
ENDBRANCH 57 58
ENDBRANCH 54 57
ENDBRANCH 52 54
ENDBRANCH 43 50
ENDBRANCH 40 43
ENDBRANCH 38 39
BRANCH 38 63
ATOM     63  CB  HIS X   2       5.895  -0.447  17.832  1.00 28.74 LIG 0.10  C 
BRANCH 63 64
ATOM     64  CG  HIS X   2       4.976  -1.621  17.769  1.00 28.63 LIG 0.06  A 
ATOM     65 ND1  HIS X   2       4.083  -1.801  16.740  1.00 31.27 LIG-0.24  NA
ATOM     66  CE1 HIS X   2       3.415  -2.923  16.930  1.00 28.11 LIG 0.23  A 
ATOM     67 NE2  HIS X   2       3.834  -3.475  18.052  1.00 29.87 LIG-0.25  NA
ATOM     68  CD2 HIS X   2       4.820  -2.683  18.595  1.00 31.84 LIG 0.14  A 
ENDBRANCH 63 64
ENDBRANCH 38 63
ENDBRANCH 3 38
TORSDOF 24
ENDMDL
MODEL 62
USER: ADFR SOLUTION from run 24
USER: SCORE 18.136741 LL:  -5.862 LR: -13.600 RR:   0.000 FEB:  -6.441
USER: RMSD 9.933212
USER: SEED 23
USER: STATUS no improvement in best in 16 clusters for 5 generations
USER: GENES 26
USER: genes 0 Translation |==|  0.54527 0.55394 0.39500
USER: genes 1 Rotation |==|  0.58552 0.06296 0.58546 0.71066
USER: genes 2 Torsion [N]-C--CA-[N] |==|  0.18568
USER: genes 3 Torsion [C]-CA--N-[C] |==|  0.75503
USER: genes 4 Torsion [N]-C--CA-[N] |==|  0.37101
USER: genes 5 Torsion [C]-CA--N-[C] |==|  0.65340
USER: genes 6 Torsion [N]-C--CA-[N] |==|  0.49236
USER: genes 7 Torsion [C]-CA--N-[H2] |==|  0.23360
USER: genes 8 Torsion [C]-CA--CB-[CG] |==|  0.82586
USER: genes 9 Torsion [CA]-CB--CG-[ND1] |==|  0.24227
USER: genes 10 Torsion [C]-CA--CB-[CG] |==|  0.52015
USER: genes 11 Torsion [CA]-CB--CG-[CD2] |==|  0.31241
USER: genes 12 Torsion [C]-CA--CB-[CG] |==|  0.81348
USER: genes 13 Torsion [CA]-CB--CG-[CD2] |==|  0.99038
USER: genes 14 Torsion [C]-N--CA-[C] |==|  0.15527
USER: genes 15 Torsion [N]-CA--C-[N] |==|  0.11994
USER: genes 16 Torsion [C]-N--CA-[CB] |==|  0.86478
USER: genes 17 Torsion [N]-CA--CB-[CG] |==|  0.44061
USER: genes 18 Torsion [CA]-CB--CG-[ND1] |==|  0.14652
USER: genes 19 Torsion [N]-CA--C-[N] |==|  0.79118
USER: genes 20 Torsion [C]-N--CA-[C] |==|  0.76960
USER: genes 21 Torsion [N]-CA--C-[O] |==|  0.44289
USER: genes 22 Torsion [N]-CA--CB-[CG] |==|  0.61164
USER: genes 23 Torsion [CA]-CB--CG-[ND1] |==|  0.22323
USER: genes 24 Torsion [N]-CA--CB-[CG] |==|  0.92520
USER: genes 25 Torsion [CA]-CB--CG-[CD2] |==|  0.81668
ROOT
ATOM      1  C   HIS X   1       3.547   1.313  17.680  1.00 40.87 LIG 0.24  C 
ATOM      2 O    HIS X   1       4.188   1.420  16.630  1.00 40.80 LIG-0.27  OA
ATOM      3  N   HIS X   2       4.023   0.805  18.800  1.00 30.16 LIG-0.35  N 
ATOM      4 H    HIS X   2       3.555   0.722  19.517  1.00 30.16 LIG 0.16  HD
ENDROOT
BRANCH 1 5
ATOM      5  CA  HIS X   1       2.109   1.772  17.805  1.00 48.06 LIG 0.18  C 
BRANCH 5 6
ATOM      6  N   HIS X   1       2.039   2.916  18.718  1.00 54.11 LIG-0.35  N 
ATOM      7 H    HIS X   1       2.101   3.679  18.326  1.00 54.11 LIG 0.16  HD
ATOM      8  C   HIS X   0       1.893   2.777  20.019  1.00 58.54 LIG 0.24  C 
ATOM      9 O    HIS X   0       2.033   1.708  20.616  1.00 63.37 LIG-0.27  OA
BRANCH 8 10
ATOM     10  CA  HIS X   0       1.530   4.064  20.741  1.00 62.53 LIG 0.18  C 
BRANCH 10 11
ATOM     11  N   HIS X   0       0.427   3.879  21.692  1.00 60.73 LIG-0.35  N 
ATOM     12  C   HIS X  -1      -0.665   4.623  21.623  1.00 60.09 LIG 0.25  C 
ATOM     13 O    HIS X  -1      -1.057   5.163  20.585  1.00 62.79 LIG-0.27  OA
ATOM     14 H    HIS X   0       0.557   3.263  22.277  1.00 60.73 LIG 0.16  HD
BRANCH 12 15
ATOM     15  CA  HIS X  -1      -1.446   4.739  22.927  1.00 59.53 LIG 0.28  C 
BRANCH 15 16
ATOM     16  N   HIS X  -1      -2.620   5.656  22.739  1.00 57.14 LIG-0.07  N 
ATOM     17 H3   HIS X  -1      -2.859   5.997  23.526  1.00 57.14 LIG 0.28  HD
ATOM     18 H2   HIS X  -1      -3.302   5.199  22.395  1.00 57.14 LIG 0.28  HD
ATOM     19 H1   HIS X  -1      -2.396   6.317  22.187  1.00 57.14 LIG 0.28  HD
ENDBRANCH 15 16
BRANCH 15 20
ATOM     20  CB  HIS X  -1      -1.908   3.367  23.418  1.00 57.27 LIG 0.10  C 
BRANCH 20 21
ATOM     21  CG  HIS X  -1      -2.851   2.677  22.487  1.00 54.13 LIG 0.06  A 
ATOM     22 ND1  HIS X  -1      -2.421   1.882  21.446  1.00 52.72 LIG-0.24  NA
ATOM     23  CE1 HIS X  -1      -3.470   1.423  20.785  1.00 54.35 LIG 0.23  A 
ATOM     24 NE2  HIS X  -1      -4.565   1.893  21.358  1.00 53.65 LIG-0.25  NA
ATOM     25  CD2 HIS X  -1      -4.205   2.680  22.427  1.00 55.23 LIG 0.14  A 
ENDBRANCH 20 21
ENDBRANCH 15 20
ENDBRANCH 12 15
ENDBRANCH 10 11
BRANCH 10 26
ATOM     26  CB  HIS X   0       2.781   4.656  21.426  1.00 64.99 LIG 0.10  C 
BRANCH 26 27
ATOM     27  CG  HIS X   0       2.498   5.837  22.309  1.00 69.41 LIG 0.06  A 
ATOM     28 ND1  HIS X   0       2.051   7.046  21.817  1.00 72.01 LIG-0.24  NA
ATOM     29  CE1 HIS X   0       1.880   7.893  22.818  1.00 72.69 LIG 0.23  A 
ATOM     30 NE2  HIS X   0       2.195   7.275  23.943  1.00 72.94 LIG-0.25  NA
ATOM     31  CD2 HIS X   0       2.581   5.987  23.653  1.00 71.12 LIG 0.14  A 
ENDBRANCH 26 27
ENDBRANCH 10 26
ENDBRANCH 8 10
ENDBRANCH 5 6
BRANCH 5 32
ATOM     32  CB  HIS X   1       1.557   2.154  16.433  1.00 48.25 LIG 0.10  C 
BRANCH 32 33
ATOM     33  CG  HIS X   1       2.203   3.369  15.843  1.00 50.36 LIG 0.06  A 
ATOM     34  CD2 HIS X   1       3.139   4.211  16.344  1.00 51.47 LIG 0.14  A 
ATOM     35 NE2  HIS X   1       3.387   5.160  15.382  1.00 50.72 LIG-0.25  NA
ATOM     36  CE1 HIS X   1       2.630   4.909  14.327  1.00 48.50 LIG 0.23  A 
ATOM     37 ND1  HIS X   1       1.904   3.835  14.578  1.00 47.89 LIG-0.24  NA
ENDBRANCH 32 33
ENDBRANCH 5 32
ENDBRANCH 1 5
BRANCH 3 38
ATOM     38  CA  HIS X   2       5.417   0.326  18.936  1.00 26.25 LIG 0.18  C 
BRANCH 38 39
ATOM     39  C   HIS X   2       6.447   1.393  18.581  1.00 23.72 LIG 0.24  C 
ATOM     40  N   HIS X   3       6.172   2.592  19.067  1.00 22.33 LIG-0.35  N 
ATOM     41 H    HIS X   3       5.469   2.770  19.530  1.00 22.33 LIG 0.16  HD
ATOM     42 O    HIS X   2       7.443   1.150  17.883  1.00 19.88 LIG-0.27  OA
BRANCH 40 43
ATOM     43  CA  HIS X   3       7.062   3.745  18.855  1.00 22.38 LIG 0.18  C 
BRANCH 43 44
ATOM     44  CB  HIS X   3       8.560   3.437  19.172  1.00 22.51 LIG 0.10  C 
BRANCH 44 45
ATOM     45  CG  HIS X   3       9.559   4.354  18.525  1.00 18.10 LIG 0.06  A 
ATOM     46  CD2 HIS X   3      10.609   4.104  17.704  1.00 18.75 LIG 0.14  A 
ATOM     47 NE2  HIS X   3      11.160   5.320  17.368  1.00 20.06 LIG-0.25  NA
ATOM     48  CE1 HIS X   3      10.464   6.279  17.948  1.00 21.69 LIG 0.23  A 
ATOM     49 ND1  HIS X   3       9.483   5.721  18.639  1.00 17.48 LIG-0.24  NA
ENDBRANCH 44 45
ENDBRANCH 43 44
BRANCH 43 50
ATOM     50  C   HIS X   3       6.869   4.345  17.463  1.00 21.59 LIG 0.24  C 
ATOM     51 O    HIS X   3       6.219   5.368  17.280  1.00 25.47 LIG-0.27  OA
ATOM     52  N   HIS X   4       7.397   3.650  16.477  1.00 25.63 LIG-0.35  N 
ATOM     53 H    HIS X   4       7.830   2.914  16.581  1.00 25.63 LIG 0.16  HD
BRANCH 52 54
ATOM     54  CA  HIS X   4       7.277   4.101  15.087  1.00 23.96 LIG 0.17  C 
BRANCH 54 55
ATOM     55  C   HIS X   4       5.916   3.649  14.549  1.00 31.35 LIG 0.22  C 
ATOM     56 O    HIS X   4       5.403   4.194  13.570  1.00 37.06 LIG-0.29  OA
ENDBRANCH 54 55
BRANCH 54 57
ATOM     57  CB  HIS X   4       8.424   3.574  14.215  1.00 23.83 LIG 0.09  C 
BRANCH 57 58
ATOM     58  CG  HIS X   4       8.953   4.580  13.227  1.00 22.57 LIG 0.06  A 
ATOM     59 ND1  HIS X   4       9.845   5.578  13.570  1.00 22.63 LIG-0.24  NA
ATOM     60  CE1 HIS X   4      10.130   6.298  12.497  1.00 19.94 LIG 0.23  A 
ATOM     61 NE2  HIS X   4       9.444   5.816  11.478  1.00 20.25 LIG-0.25  NA
ATOM     62  CD2 HIS X   4       8.712   4.734  11.905  1.00 21.52 LIG 0.14  A 
ENDBRANCH 57 58
ENDBRANCH 54 57
ENDBRANCH 52 54
ENDBRANCH 43 50
ENDBRANCH 40 43
ENDBRANCH 38 39
BRANCH 38 63
ATOM     63  CB  HIS X   2       5.654  -0.918  18.072  1.00 28.74 LIG 0.10  C 
BRANCH 63 64
ATOM     64  CG  HIS X   2       4.420  -1.722  17.825  1.00 28.63 LIG 0.06  A 
ATOM     65 ND1  HIS X   2       3.880  -1.870  16.570  1.00 31.27 LIG-0.24  NA
ATOM     66  CE1 HIS X   2       2.810  -2.640  16.640  1.00 28.11 LIG 0.23  A 
ATOM     67 NE2  HIS X   2       2.629  -2.989  17.899  1.00 29.87 LIG-0.25  NA
ATOM     68  CD2 HIS X   2       3.630  -2.434  18.662  1.00 31.84 LIG 0.14  A 
ENDBRANCH 63 64
ENDBRANCH 38 63
ENDBRANCH 3 38
TORSDOF 24
ENDMDL
MODEL 63
USER: ADFR SOLUTION from run 187
USER: SCORE 16.930415 LL:  -5.624 LR: -13.600 RR:   0.000 FEB:  -6.441
USER: RMSD 6.454111
USER: SEED 186
USER: STATUS no improvement in best in 24 clusters for 5 generations
USER: GENES 26
USER: genes 0 Translation |==|  0.42963 0.52774 0.38174
USER: genes 1 Rotation |==|  0.39948 0.71045 0.60222 0.93030
USER: genes 2 Torsion [N]-C--CA-[N] |==|  0.53889
USER: genes 3 Torsion [C]-CA--N-[C] |==|  0.14740
USER: genes 4 Torsion [N]-C--CA-[N] |==|  0.22695
USER: genes 5 Torsion [C]-CA--N-[C] |==|  0.63269
USER: genes 6 Torsion [N]-C--CA-[N] |==|  0.47089
USER: genes 7 Torsion [C]-CA--N-[H2] |==|  0.25142
USER: genes 8 Torsion [C]-CA--CB-[CG] |==|  0.60172
USER: genes 9 Torsion [CA]-CB--CG-[ND1] |==|  0.34165
USER: genes 10 Torsion [C]-CA--CB-[CG] |==|  0.38188
USER: genes 11 Torsion [CA]-CB--CG-[CD2] |==|  0.63624
USER: genes 12 Torsion [C]-CA--CB-[CG] |==|  0.45153
USER: genes 13 Torsion [CA]-CB--CG-[CD2] |==|  0.98944
USER: genes 14 Torsion [C]-N--CA-[C] |==|  0.12992
USER: genes 15 Torsion [N]-CA--C-[N] |==|  0.63906
USER: genes 16 Torsion [C]-N--CA-[CB] |==|  0.76790
USER: genes 17 Torsion [N]-CA--CB-[CG] |==|  0.87636
USER: genes 18 Torsion [CA]-CB--CG-[ND1] |==|  0.33121
USER: genes 19 Torsion [N]-CA--C-[N] |==|  0.18995
USER: genes 20 Torsion [C]-N--CA-[C] |==|  0.62051
USER: genes 21 Torsion [N]-CA--C-[O] |==|  0.85485
USER: genes 22 Torsion [N]-CA--CB-[CG] |==|  0.09914
USER: genes 23 Torsion [CA]-CB--CG-[ND1] |==|  0.71455
USER: genes 24 Torsion [N]-CA--CB-[CG] |==|  0.71706
USER: genes 25 Torsion [CA]-CB--CG-[CD2] |==|  0.61575
ROOT
ATOM      1  C   HIS X   1       1.205   0.684  17.441  1.00 40.87 LIG 0.24  C 
ATOM      2 O    HIS X   1       0.615   0.507  18.511  1.00 40.80 LIG-0.27  OA
ATOM      3  N   HIS X   2       1.541  -0.277  16.603  1.00 30.16 LIG-0.35  N 
ATOM      4 H    HIS X   2       1.968  -0.135  15.870  1.00 30.16 LIG 0.16  HD
ENDROOT
BRANCH 1 5
ATOM      5  CA  HIS X   1       1.610   2.059  16.955  1.00 48.06 LIG 0.18  C 
BRANCH 5 6
ATOM      6  N   HIS X   1       1.512   3.017  18.060  1.00 54.11 LIG-0.35  N 
ATOM      7 H    HIS X   1       1.038   3.712  17.879  1.00 54.11 LIG 0.16  HD
ATOM      8  C   HIS X   0       2.102   2.823  19.221  1.00 58.54 LIG 0.24  C 
ATOM      9 O    HIS X   0       2.963   1.964  19.419  1.00 63.37 LIG-0.27  OA
BRANCH 8 10
ATOM     10  CA  HIS X   0       1.628   3.761  20.319  1.00 62.53 LIG 0.18  C 
BRANCH 10 11
ATOM     11  N   HIS X   0       0.375   3.310  20.935  1.00 60.73 LIG-0.35  N 
ATOM     12  C   HIS X  -1      -0.634   4.147  21.120  1.00 60.09 LIG 0.25  C 
ATOM     13 O    HIS X  -1      -0.809   5.162  20.442  1.00 62.79 LIG-0.27  OA
ATOM     14 H    HIS X   0       0.361   2.480  21.156  1.00 60.73 LIG 0.16  HD
BRANCH 12 15
ATOM     15  CA  HIS X  -1      -1.606   3.746  22.223  1.00 59.53 LIG 0.28  C 
BRANCH 15 16
ATOM     16  N   HIS X  -1      -2.548   4.880  22.511  1.00 57.14 LIG-0.07  N 
ATOM     17 H3   HIS X  -1      -2.790   4.854  23.367  1.00 57.14 LIG 0.28  HD
ATOM     18 H2   HIS X  -1      -3.270   4.805  21.997  1.00 57.14 LIG 0.28  HD
ATOM     19 H1   HIS X  -1      -2.141   5.654  22.342  1.00 57.14 LIG 0.28  HD
ENDBRANCH 15 16
BRANCH 15 20
ATOM     20  CB  HIS X  -1      -2.383   2.485  21.844  1.00 57.27 LIG 0.10  C 
BRANCH 20 21
ATOM     21  CG  HIS X  -1      -3.803   2.487  22.308  1.00 54.13 LIG 0.06  A 
ATOM     22 ND1  HIS X  -1      -4.868   2.337  21.445  1.00 52.72 LIG-0.24  NA
ATOM     23  CE1 HIS X  -1      -5.997   2.398  22.130  1.00 54.35 LIG 0.23  A 
ATOM     24 NE2  HIS X  -1      -5.704   2.585  23.406  1.00 53.65 LIG-0.25  NA
ATOM     25  CD2 HIS X  -1      -4.336   2.642  23.544  1.00 55.23 LIG 0.14  A 
ENDBRANCH 20 21
ENDBRANCH 15 20
ENDBRANCH 12 15
ENDBRANCH 10 11
BRANCH 10 26
ATOM     26  CB  HIS X   0       2.744   3.950  21.369  1.00 64.99 LIG 0.10  C 
BRANCH 26 27
ATOM     27  CG  HIS X   0       2.914   5.367  21.837  1.00 69.41 LIG 0.06  A 
ATOM     28 ND1  HIS X   0       1.857   6.142  22.270  1.00 72.01 LIG-0.24  NA
ATOM     29  CE1 HIS X   0       2.302   7.335  22.626  1.00 72.69 LIG 0.23  A 
ATOM     30 NE2  HIS X   0       3.610   7.361  22.445  1.00 72.94 LIG-0.25  NA
ATOM     31  CD2 HIS X   0       4.019   6.142  21.956  1.00 71.12 LIG 0.14  A 
ENDBRANCH 26 27
ENDBRANCH 10 26
ENDBRANCH 8 10
ENDBRANCH 5 6
BRANCH 5 32
ATOM     32  CB  HIS X   1       3.035   2.026  16.407  1.00 48.25 LIG 0.10  C 
BRANCH 32 33
ATOM     33  CG  HIS X   1       3.374   3.201  15.542  1.00 50.36 LIG 0.06  A 
ATOM     34  CD2 HIS X   1       2.614   4.239  15.116  1.00 51.47 LIG 0.14  A 
ATOM     35 NE2  HIS X   1       3.424   5.045  14.351  1.00 50.72 LIG-0.25  NA
ATOM     36  CE1 HIS X   1       4.636   4.519  14.311  1.00 48.50 LIG 0.23  A 
ATOM     37 ND1  HIS X   1       4.635   3.405  15.019  1.00 47.89 LIG-0.24  NA
ENDBRANCH 32 33
ENDBRANCH 5 32
ENDBRANCH 1 5
BRANCH 3 38
ATOM     38  CA  HIS X   2       1.216  -1.701  16.841  1.00 26.25 LIG 0.18  C 
BRANCH 38 39
ATOM     39  C   HIS X   2      -0.233  -1.914  17.270  1.00 23.72 LIG 0.24  C 
ATOM     40  N   HIS X   3      -0.370  -2.662  18.352  1.00 22.33 LIG-0.35  N 
ATOM     41 H    HIS X   3       0.289  -3.017  18.775  1.00 22.33 LIG 0.16  HD
ATOM     42 O    HIS X   2      -1.189  -1.435  16.642  1.00 19.88 LIG-0.27  OA
BRANCH 40 43
ATOM     43  CA  HIS X   3      -1.689  -2.956  18.935  1.00 22.38 LIG 0.18  C 
BRANCH 43 44
ATOM     44  CB  HIS X   3      -2.212  -1.830  19.882  1.00 22.51 LIG 0.10  C 
BRANCH 44 45
ATOM     45  CG  HIS X   3      -1.201  -1.278  20.848  1.00 18.10 LIG 0.06  A 
ATOM     46  CD2 HIS X   3      -0.439  -1.880  21.795  1.00 18.75 LIG 0.14  A 
ATOM     47 NE2  HIS X   3       0.350  -0.906  22.361  1.00 20.06 LIG-0.25  NA
ATOM     48  CE1 HIS X   3       0.093   0.247  21.773  1.00 21.69 LIG 0.23  A 
ATOM     49 ND1  HIS X   3      -0.829   0.044  20.846  1.00 17.48 LIG-0.24  NA
ENDBRANCH 44 45
ENDBRANCH 43 44
BRANCH 43 50
ATOM     50  C   HIS X   3      -2.702  -3.332  17.855  1.00 21.59 LIG 0.24  C 
ATOM     51 O    HIS X   3      -3.679  -2.634  17.608  1.00 25.47 LIG-0.27  OA
ATOM     52  N   HIS X   4      -2.479  -4.483  17.256  1.00 25.63 LIG-0.35  N 
ATOM     53 H    HIS X   4      -1.816  -5.002  17.435  1.00 25.63 LIG 0.16  HD
BRANCH 52 54
ATOM     54  CA  HIS X   4      -3.377  -4.975  16.207  1.00 23.96 LIG 0.17  C 
BRANCH 54 55
ATOM     55  C   HIS X   4      -3.626  -6.468  16.446  1.00 31.35 LIG 0.22  C 
ATOM     56 O    HIS X   4      -2.690  -7.257  16.590  1.00 37.06 LIG-0.29  OA
ENDBRANCH 54 55
BRANCH 54 57
ATOM     57  CB  HIS X   4      -2.810  -4.722  14.805  1.00 23.83 LIG 0.09  C 
BRANCH 57 58
ATOM     58  CG  HIS X   4      -1.312  -4.857  14.717  1.00 22.57 LIG 0.06  A 
ATOM     59 ND1  HIS X   4      -0.458  -3.771  14.667  1.00 22.63 LIG-0.24  NA
ATOM     60  CE1 HIS X   4       0.791  -4.200  14.599  1.00 19.94 LIG 0.23  A 
ATOM     61 NE2  HIS X   4       0.779  -5.519  14.586  1.00 20.25 LIG-0.25  NA
ATOM     62  CD2 HIS X   4      -0.522  -5.954  14.673  1.00 21.52 LIG 0.14  A 
ENDBRANCH 57 58
ENDBRANCH 54 57
ENDBRANCH 52 54
ENDBRANCH 43 50
ENDBRANCH 40 43
ENDBRANCH 38 39
BRANCH 38 63
ATOM     63  CB  HIS X   2       2.153  -2.307  17.892  1.00 28.74 LIG 0.10  C 
BRANCH 63 64
ATOM     64  CG  HIS X   2       3.242  -3.148  17.314  1.00 28.63 LIG 0.06  A 
ATOM     65 ND1  HIS X   2       3.945  -2.771  16.194  1.00 31.27 LIG-0.24  NA
ATOM     66  CE1 HIS X   2       4.854  -3.687  15.917  1.00 28.11 LIG 0.23  A 
ATOM     67 NE2  HIS X   2       4.760  -4.653  16.810  1.00 29.87 LIG-0.25  NA
ATOM     68  CD2 HIS X   2       3.762  -4.336  17.703  1.00 31.84 LIG 0.14  A 
ENDBRANCH 63 64
ENDBRANCH 38 63
ENDBRANCH 3 38
TORSDOF 24
ENDMDL
MODEL 64
USER: ADFR SOLUTION from run 196
USER: SCORE 17.254727 LL:  -5.337 LR: -13.587 RR:   0.000 FEB:  -6.428
USER: RMSD 7.347323
USER: SEED 195
USER: STATUS no improvement in best in 10 clusters for 5 generations
USER: GENES 26
USER: genes 0 Translation |==|  0.47523 0.62625 0.50178
USER: genes 1 Rotation |==|  0.57892 0.79112 0.87065 0.64710
USER: genes 2 Torsion [N]-C--CA-[N] |==|  0.20220
USER: genes 3 Torsion [C]-CA--N-[C] |==|  0.67918
USER: genes 4 Torsion [N]-C--CA-[N] |==|  0.41826
USER: genes 5 Torsion [C]-CA--N-[C] |==|  0.72937
USER: genes 6 Torsion [N]-C--CA-[N] |==|  0.81937
USER: genes 7 Torsion [C]-CA--N-[H2] |==|  0.25571
USER: genes 8 Torsion [C]-CA--CB-[CG] |==|  0.79008
USER: genes 9 Torsion [CA]-CB--CG-[ND1] |==|  0.79441
USER: genes 10 Torsion [C]-CA--CB-[CG] |==|  0.18928
USER: genes 11 Torsion [CA]-CB--CG-[CD2] |==|  0.55517
USER: genes 12 Torsion [C]-CA--CB-[CG] |==|  0.39389
USER: genes 13 Torsion [CA]-CB--CG-[CD2] |==|  0.56545
USER: genes 14 Torsion [C]-N--CA-[C] |==|  0.21337
USER: genes 15 Torsion [N]-CA--C-[N] |==|  0.48006
USER: genes 16 Torsion [C]-N--CA-[CB] |==|  0.85437
USER: genes 17 Torsion [N]-CA--CB-[CG] |==|  0.88879
USER: genes 18 Torsion [CA]-CB--CG-[ND1] |==|  0.81362
USER: genes 19 Torsion [N]-CA--C-[N] |==|  0.38889
USER: genes 20 Torsion [C]-N--CA-[C] |==|  0.84422
USER: genes 21 Torsion [N]-CA--C-[O] |==|  0.26345
USER: genes 22 Torsion [N]-CA--CB-[CG] |==|  0.05917
USER: genes 23 Torsion [CA]-CB--CG-[ND1] |==|  0.79190
USER: genes 24 Torsion [N]-CA--CB-[CG] |==|  0.75706
USER: genes 25 Torsion [CA]-CB--CG-[CD2] |==|  0.48501
ROOT
ATOM      1  C   HIS X   1       2.128   3.048  19.602  1.00 40.87 LIG 0.24  C 
ATOM      2 O    HIS X   1       3.166   2.395  19.746  1.00 40.80 LIG-0.27  OA
ATOM      3  N   HIS X   2       1.367   3.018  18.526  1.00 30.16 LIG-0.35  N 
ATOM      4 H    HIS X   2       0.657   3.494  18.437  1.00 30.16 LIG 0.16  HD
ENDROOT
BRANCH 1 5
ATOM      5  CA  HIS X   1       1.596   3.973  20.675  1.00 48.06 LIG 0.18  C 
BRANCH 5 6
ATOM      6  N   HIS X   1       0.415   3.370  21.300  1.00 54.11 LIG-0.35  N 
ATOM      7 H    HIS X   1       0.579   2.641  21.725  1.00 54.11 LIG 0.16  HD
ATOM      8  C   HIS X   0      -0.785   3.906  21.212  1.00 58.54 LIG 0.24  C 
ATOM      9 O    HIS X   0      -1.079   4.809  20.427  1.00 63.37 LIG-0.27  OA
BRANCH 8 10
ATOM     10  CA  HIS X   0      -1.799   3.310  22.175  1.00 62.53 LIG 0.18  C 
BRANCH 10 11
ATOM     11  N   HIS X   0      -2.830   4.277  22.568  1.00 60.73 LIG-0.35  N 
ATOM     12  C   HIS X  -1      -2.738   4.949  23.705  1.00 60.09 LIG 0.25  C 
ATOM     13 O    HIS X  -1      -1.669   5.182  24.273  1.00 62.79 LIG-0.27  OA
ATOM     14 H    HIS X   0      -3.477   4.360  22.007  1.00 60.73 LIG 0.16  HD
BRANCH 12 15
ATOM     15  CA  HIS X  -1      -4.064   5.460  24.256  1.00 59.53 LIG 0.28  C 
BRANCH 15 16
ATOM     16  N   HIS X  -1      -4.647   6.480  23.320  1.00 57.14 LIG-0.07  N 
ATOM     17 H3   HIS X  -1      -5.106   7.084  23.787  1.00 57.14 LIG 0.28  HD
ATOM     18 H2   HIS X  -1      -5.192   6.077  22.743  1.00 57.14 LIG 0.28  HD
ATOM     19 H1   HIS X  -1      -3.991   6.885  22.876  1.00 57.14 LIG 0.28  HD
ENDBRANCH 15 16
BRANCH 15 20
ATOM     20  CB  HIS X  -1      -5.049   4.313  24.482  1.00 57.27 LIG 0.10  C 
BRANCH 20 21
ATOM     21  CG  HIS X  -1      -5.661   3.785  23.226  1.00 54.13 LIG 0.06  A 
ATOM     22 ND1  HIS X  -1      -6.633   4.470  22.527  1.00 52.72 LIG-0.24  NA
ATOM     23  CE1 HIS X  -1      -6.998   3.758  21.475  1.00 54.35 LIG 0.23  A 
ATOM     24 NE2  HIS X  -1      -6.300   2.635  21.465  1.00 53.65 LIG-0.25  NA
ATOM     25  CD2 HIS X  -1      -5.454   2.629  22.550  1.00 55.23 LIG 0.14  A 
ENDBRANCH 20 21
ENDBRANCH 15 20
ENDBRANCH 12 15
ENDBRANCH 10 11
BRANCH 10 26
ATOM     26  CB  HIS X   0      -2.416   2.032  21.567  1.00 64.99 LIG 0.10  C 
BRANCH 26 27
ATOM     27  CG  HIS X   0      -1.456   0.884  21.443  1.00 69.41 LIG 0.06  A 
ATOM     28 ND1  HIS X   0      -0.297   0.797  22.189  1.00 72.01 LIG-0.24  NA
ATOM     29  CE1 HIS X   0       0.344  -0.317  21.877  1.00 72.69 LIG 0.23  A 
ATOM     30 NE2  HIS X   0      -0.359  -0.958  20.961  1.00 72.94 LIG-0.25  NA
ATOM     31  CD2 HIS X   0      -1.491  -0.231  20.674  1.00 71.12 LIG 0.14  A 
ENDBRANCH 26 27
ENDBRANCH 10 26
ENDBRANCH 8 10
ENDBRANCH 5 6
BRANCH 5 32
ATOM     32  CB  HIS X   1       2.673   4.238  21.725  1.00 48.25 LIG 0.10  C 
BRANCH 32 33
ATOM     33  CG  HIS X   1       2.683   5.646  22.235  1.00 50.36 LIG 0.06  A 
ATOM     34  CD2 HIS X   1       3.671   6.378  22.806  1.00 51.47 LIG 0.14  A 
ATOM     35 NE2  HIS X   1       3.148   7.619  23.080  1.00 50.72 LIG-0.25  NA
ATOM     36  CE1 HIS X   1       1.885   7.647  22.690  1.00 48.50 LIG 0.23  A 
ATOM     37 ND1  HIS X   1       1.577   6.469  22.178  1.00 47.89 LIG-0.24  NA
ENDBRANCH 32 33
ENDBRANCH 5 32
ENDBRANCH 1 5
BRANCH 3 38
ATOM     38  CA  HIS X   2       1.660   2.156  17.358  1.00 26.25 LIG 0.18  C 
BRANCH 38 39
ATOM     39  C   HIS X   2       1.293   0.694  17.595  1.00 23.72 LIG 0.24  C 
ATOM     40  N   HIS X   3       1.404  -0.070  16.521  1.00 22.33 LIG-0.35  N 
ATOM     41 H    HIS X   3       1.643   0.223  15.748  1.00 22.33 LIG 0.16  HD
ATOM     42 O    HIS X   2       0.912   0.274  18.697  1.00 19.88 LIG-0.27  OA
BRANCH 40 43
ATOM     43  CA  HIS X   3       1.121  -1.514  16.557  1.00 22.38 LIG 0.18  C 
BRANCH 43 44
ATOM     44  CB  HIS X   3       1.898  -2.268  17.681  1.00 22.51 LIG 0.10  C 
BRANCH 44 45
ATOM     45  CG  HIS X   3       3.320  -1.830  17.889  1.00 18.10 LIG 0.06  A 
ATOM     46  CD2 HIS X   3       3.940  -1.262  18.953  1.00 18.75 LIG 0.14  A 
ATOM     47 NE2  HIS X   3       5.267  -1.111  18.618  1.00 20.06 LIG-0.25  NA
ATOM     48  CE1 HIS X   3       5.456  -1.583  17.400  1.00 21.69 LIG 0.23  A 
ATOM     49 ND1  HIS X   3       4.299  -2.037  16.946  1.00 17.48 LIG-0.24  NA
ENDBRANCH 44 45
ENDBRANCH 43 44
BRANCH 43 50
ATOM     50  C   HIS X   3      -0.383  -1.783  16.601  1.00 21.59 LIG 0.24  C 
ATOM     51 O    HIS X   3      -1.139  -1.135  17.315  1.00 25.47 LIG-0.27  OA
ATOM     52  N   HIS X   4      -0.790  -2.796  15.865  1.00 25.63 LIG-0.35  N 
ATOM     53 H    HIS X   4      -0.272  -3.282  15.380  1.00 25.63 LIG 0.16  HD
BRANCH 52 54
ATOM     54  CA  HIS X   4      -2.205  -3.176  15.821  1.00 23.96 LIG 0.17  C 
BRANCH 54 55
ATOM     55  C   HIS X   4      -2.677  -3.445  17.253  1.00 31.35 LIG 0.22  C 
ATOM     56 O    HIS X   4      -3.229  -2.569  17.921  1.00 37.06 LIG-0.29  OA
ENDBRANCH 54 55
BRANCH 54 57
ATOM     57  CB  HIS X   4      -2.442  -4.392  14.917  1.00 23.83 LIG 0.09  C 
BRANCH 57 58
ATOM     58  CG  HIS X   4      -1.213  -5.232  14.687  1.00 22.57 LIG 0.06  A 
ATOM     59 ND1  HIS X   4      -0.184  -4.848  13.847  1.00 22.63 LIG-0.24  NA
ATOM     60  CE1 HIS X   4       0.755  -5.780  13.851  1.00 19.94 LIG 0.23  A 
ATOM     61 NE2  HIS X   4       0.367  -6.759  14.647  1.00 20.25 LIG-0.25  NA
ATOM     62  CD2 HIS X   4      -0.853  -6.434  15.192  1.00 21.52 LIG 0.14  A 
ENDBRANCH 57 58
ENDBRANCH 54 57
ENDBRANCH 52 54
ENDBRANCH 43 50
ENDBRANCH 40 43
ENDBRANCH 38 39
BRANCH 38 63
ATOM     63  CB  HIS X   2       3.138   2.253  16.965  1.00 28.74 LIG 0.10  C 
BRANCH 63 64
ATOM     64  CG  HIS X   2       3.436   3.367  16.017  1.00 28.63 LIG 0.06  A 
ATOM     65 ND1  HIS X   2       2.449   4.161  15.483  1.00 31.27 LIG-0.24  NA
ATOM     66  CE1 HIS X   2       2.994   5.070  14.697  1.00 28.11 LIG 0.23  A 
ATOM     67 NE2  HIS X   2       4.301   4.891  14.693  1.00 29.87 LIG-0.25  NA
ATOM     68  CD2 HIS X   2       4.606   3.834  15.520  1.00 31.84 LIG 0.14  A 
ENDBRANCH 63 64
ENDBRANCH 38 63
ENDBRANCH 3 38
TORSDOF 24
ENDMDL
MODEL 65
USER: ADFR SOLUTION from run 34
USER: SCORE 18.290195 LL:  -5.481 LR: -13.589 RR:   0.000 FEB:  -6.430
USER: RMSD 6.902498
USER: SEED 33
USER: STATUS no improvement in best in 7 clusters for 5 generations
USER: GENES 26
USER: genes 0 Translation |==|  0.46220 0.51300 0.39553
USER: genes 1 Rotation |==|  0.54370 0.90943 0.62171 0.75622
USER: genes 2 Torsion [N]-C--CA-[N] |==|  0.37778
USER: genes 3 Torsion [C]-CA--N-[C] |==|  0.86099
USER: genes 4 Torsion [N]-C--CA-[N] |==|  0.47780
USER: genes 5 Torsion [C]-CA--N-[C] |==|  0.67850
USER: genes 6 Torsion [N]-C--CA-[N] |==|  0.51774
USER: genes 7 Torsion [C]-CA--N-[H2] |==|  0.30136
USER: genes 8 Torsion [C]-CA--CB-[CG] |==|  0.83632
USER: genes 9 Torsion [CA]-CB--CG-[ND1] |==|  0.75479
USER: genes 10 Torsion [C]-CA--CB-[CG] |==|  0.45357
USER: genes 11 Torsion [CA]-CB--CG-[CD2] |==|  0.52042
USER: genes 12 Torsion [C]-CA--CB-[CG] |==|  0.45245
USER: genes 13 Torsion [CA]-CB--CG-[CD2] |==|  0.57852
USER: genes 14 Torsion [C]-N--CA-[C] |==|  0.84371
USER: genes 15 Torsion [N]-CA--C-[N] |==|  0.91444
USER: genes 16 Torsion [C]-N--CA-[CB] |==|  0.86050
USER: genes 17 Torsion [N]-CA--CB-[CG] |==|  0.84904
USER: genes 18 Torsion [CA]-CB--CG-[ND1] |==|  0.87113
USER: genes 19 Torsion [N]-CA--C-[N] |==|  0.83889
USER: genes 20 Torsion [C]-N--CA-[C] |==|  0.13791
USER: genes 21 Torsion [N]-CA--C-[O] |==|  0.24399
USER: genes 22 Torsion [N]-CA--CB-[CG] |==|  0.80605
USER: genes 23 Torsion [CA]-CB--CG-[ND1] |==|  0.80424
USER: genes 24 Torsion [N]-CA--CB-[CG] |==|  0.65381
USER: genes 25 Torsion [CA]-CB--CG-[CD2] |==|  0.79190
ROOT
ATOM      1  C   HIS X   1       1.865   0.330  17.689  1.00 40.87 LIG 0.24  C 
ATOM      2 O    HIS X   1       2.549  -0.134  18.606  1.00 40.80 LIG-0.27  OA
ATOM      3  N   HIS X   2       0.970  -0.353  17.003  1.00 30.16 LIG-0.35  N 
ATOM      4 H    HIS X   2       0.515  -0.018  16.355  1.00 30.16 LIG 0.16  HD
ENDROOT
BRANCH 1 5
ATOM      5  CA  HIS X   1       1.971   1.774  17.246  1.00 48.06 LIG 0.18  C 
BRANCH 5 6
ATOM      6  N   HIS X   1       2.032   2.644  18.424  1.00 54.11 LIG-0.35  N 
ATOM      7 H    HIS X   1       2.678   3.212  18.405  1.00 54.11 LIG 0.16  HD
ATOM      8  C   HIS X   0       1.170   2.556  19.416  1.00 58.54 LIG 0.24  C 
ATOM      9 O    HIS X   0       0.393   1.612  19.570  1.00 63.37 LIG-0.27  OA
BRANCH 8 10
ATOM     10  CA  HIS X   0       1.212   3.733  20.376  1.00 62.53 LIG 0.18  C 
BRANCH 10 11
ATOM     11  N   HIS X   0       0.119   3.694  21.355  1.00 60.73 LIG-0.35  N 
ATOM     12  C   HIS X  -1      -0.813   4.633  21.375  1.00 60.09 LIG 0.25  C 
ATOM     13 O    HIS X  -1      -1.121   5.308  20.390  1.00 62.79 LIG-0.27  OA
ATOM     14 H    HIS X   0       0.144   3.025  21.895  1.00 60.73 LIG 0.16  HD
BRANCH 12 15
ATOM     15  CA  HIS X  -1      -1.523   4.803  22.713  1.00 59.53 LIG 0.28  C 
BRANCH 15 16
ATOM     16  N   HIS X  -1      -2.656   5.779  22.570  1.00 57.14 LIG-0.07  N 
ATOM     17 H3   HIS X  -1      -2.615   6.379  23.227  1.00 57.14 LIG 0.28  HD
ATOM     18 H2   HIS X  -1      -3.431   5.344  22.614  1.00 57.14 LIG 0.28  HD
ATOM     19 H1   HIS X  -1      -2.592   6.195  21.785  1.00 57.14 LIG 0.28  HD
ENDBRANCH 15 16
BRANCH 15 20
ATOM     20  CB  HIS X  -1      -2.032   3.462  23.243  1.00 57.27 LIG 0.10  C 
BRANCH 20 21
ATOM     21  CG  HIS X  -1      -2.987   2.772  22.324  1.00 54.13 LIG 0.06  A 
ATOM     22 ND1  HIS X  -1      -4.347   2.996  22.359  1.00 52.72 LIG-0.24  NA
ATOM     23  CE1 HIS X  -1      -4.938   2.239  21.450  1.00 54.35 LIG 0.23  A 
ATOM     24 NE2  HIS X  -1      -4.011   1.530  20.828  1.00 53.65 LIG-0.25  NA
ATOM     25  CD2 HIS X  -1      -2.781   1.848  21.355  1.00 55.23 LIG 0.14  A 
ENDBRANCH 20 21
ENDBRANCH 15 20
ENDBRANCH 12 15
ENDBRANCH 10 11
BRANCH 10 26
ATOM     26  CB  HIS X   0       2.592   3.805  21.064  1.00 64.99 LIG 0.10  C 
BRANCH 26 27
ATOM     27  CG  HIS X   0       2.885   5.125  21.718  1.00 69.41 LIG 0.06  A 
ATOM     28 ND1  HIS X   0       1.937   6.120  21.849  1.00 72.01 LIG-0.24  NA
ATOM     29  CE1 HIS X   0       2.472   7.159  22.467  1.00 72.69 LIG 0.23  A 
ATOM     30 NE2  HIS X   0       3.731   6.874  22.745  1.00 72.94 LIG-0.25  NA
ATOM     31  CD2 HIS X   0       4.015   5.606  22.291  1.00 71.12 LIG 0.14  A 
ENDBRANCH 26 27
ENDBRANCH 10 26
ENDBRANCH 8 10
ENDBRANCH 5 6
BRANCH 5 32
ATOM     32  CB  HIS X   1       3.213   1.968  16.379  1.00 48.25 LIG 0.10  C 
BRANCH 32 33
ATOM     33  CG  HIS X   1       3.191   3.230  15.573  1.00 50.36 LIG 0.06  A 
ATOM     34  CD2 HIS X   1       3.768   3.536  14.385  1.00 51.47 LIG 0.14  A 
ATOM     35 NE2  HIS X   1       3.422   4.832  14.089  1.00 50.72 LIG-0.25  NA
ATOM     36  CE1 HIS X   1       2.660   5.304  15.060  1.00 48.50 LIG 0.23  A 
ATOM     37 ND1  HIS X   1       2.506   4.360  15.970  1.00 47.89 LIG-0.24  NA
ENDBRANCH 32 33
ENDBRANCH 5 32
ENDBRANCH 1 5
BRANCH 3 38
ATOM     38  CA  HIS X   2       0.658  -1.774  17.280  1.00 26.25 LIG 0.18  C 
BRANCH 38 39
ATOM     39  C   HIS X   2       1.888  -2.674  17.215  1.00 23.72 LIG 0.24  C 
ATOM     40  N   HIS X   3       2.811  -2.265  16.361  1.00 22.33 LIG-0.35  N 
ATOM     41 H    HIS X   3       2.729  -1.565  15.867  1.00 22.33 LIG 0.16  HD
ATOM     42 O    HIS X   2       1.995  -3.704  17.897  1.00 19.88 LIG-0.27  OA
BRANCH 40 43
ATOM     43  CA  HIS X   3       4.081  -2.986  16.178  1.00 22.38 LIG 0.18  C 
BRANCH 43 44
ATOM     44  CB  HIS X   3       4.817  -3.293  17.521  1.00 22.51 LIG 0.10  C 
BRANCH 44 45
ATOM     45  CG  HIS X   3       5.074  -2.104  18.403  1.00 18.10 LIG 0.06  A 
ATOM     46  CD2 HIS X   3       4.953  -1.935  19.743  1.00 18.75 LIG 0.14  A 
ATOM     47 NE2  HIS X   3       5.367  -0.654  20.031  1.00 20.06 LIG-0.25  NA
ATOM     48  CE1 HIS X   3       5.741  -0.065  18.910  1.00 21.69 LIG 0.23  A 
ATOM     49 ND1  HIS X   3       5.588  -0.925  17.917  1.00 17.48 LIG-0.24  NA
ENDBRANCH 44 45
ENDBRANCH 43 44
BRANCH 43 50
ATOM     50  C   HIS X   3       3.891  -4.232  15.315  1.00 21.59 LIG 0.24  C 
ATOM     51 O    HIS X   3       4.473  -4.378  14.246  1.00 25.47 LIG-0.27  OA
ATOM     52  N   HIS X   4       3.016  -5.102  15.774  1.00 25.63 LIG-0.35  N 
ATOM     53 H    HIS X   4       2.574  -5.004  16.506  1.00 25.63 LIG 0.16  HD
BRANCH 52 54
ATOM     54  CA  HIS X   4       2.724  -6.337  15.042  1.00 23.96 LIG 0.17  C 
BRANCH 54 55
ATOM     55  C   HIS X   4       4.052  -7.015  14.690  1.00 31.35 LIG 0.22  C 
ATOM     56 O    HIS X   4       4.596  -7.800  15.470  1.00 37.06 LIG-0.29  OA
ENDBRANCH 54 55
BRANCH 54 57
ATOM     57  CB  HIS X   4       1.884  -6.072  13.786  1.00 23.83 LIG 0.09  C 
BRANCH 57 58
ATOM     58  CG  HIS X   4       0.466  -5.656  14.075  1.00 22.57 LIG 0.06  A 
ATOM     59 ND1  HIS X   4      -0.485  -6.520  14.586  1.00 22.63 LIG-0.24  NA
ATOM     60  CE1 HIS X   4      -1.628  -5.872  14.738  1.00 19.94 LIG 0.23  A 
ATOM     61 NE2  HIS X   4      -1.460  -4.628  14.330  1.00 20.25 LIG-0.25  NA
ATOM     62  CD2 HIS X   4      -0.156  -4.465  13.924  1.00 21.52 LIG 0.14  A 
ENDBRANCH 57 58
ENDBRANCH 54 57
ENDBRANCH 52 54
ENDBRANCH 43 50
ENDBRANCH 40 43
ENDBRANCH 38 39
BRANCH 38 63
ATOM     63  CB  HIS X   2      -0.408  -2.298  16.310  1.00 28.74 LIG 0.10  C 
BRANCH 63 64
ATOM     64  CG  HIS X   2      -1.602  -2.883  16.988  1.00 28.63 LIG 0.06  A 
ATOM     65 ND1  HIS X   2      -2.812  -2.232  17.035  1.00 31.27 LIG-0.24  NA
ATOM     66  CE1 HIS X   2      -3.689  -2.981  17.677  1.00 28.11 LIG 0.23  A 
ATOM     67 NE2  HIS X   2      -3.089  -4.092  18.059  1.00 29.87 LIG-0.25  NA
ATOM     68  CD2 HIS X   2      -1.782  -4.060  17.632  1.00 31.84 LIG 0.14  A 
ENDBRANCH 63 64
ENDBRANCH 38 63
ENDBRANCH 3 38
TORSDOF 24
ENDMDL
MODEL 66
USER: ADFR SOLUTION from run 77
USER: SCORE 19.431744 LL:  -7.083 LR: -13.556 RR:   0.000 FEB:  -6.396
USER: RMSD 10.372382
USER: SEED 76
USER: STATUS searching
USER: GENES 26
USER: genes 0 Translation |==|  0.43144 0.52568 0.39172
USER: genes 1 Rotation |==|  0.86388 0.30086 0.28280 0.67536
USER: genes 2 Torsion [N]-C--CA-[N] |==|  0.44302
USER: genes 3 Torsion [C]-CA--N-[C] |==|  0.78451
USER: genes 4 Torsion [N]-C--CA-[N] |==|  0.87287
USER: genes 5 Torsion [C]-CA--N-[C] |==|  0.57778
USER: genes 6 Torsion [N]-C--CA-[N] |==|  0.95472
USER: genes 7 Torsion [C]-CA--N-[H2] |==|  0.54223
USER: genes 8 Torsion [C]-CA--CB-[CG] |==|  0.85157
USER: genes 9 Torsion [CA]-CB--CG-[ND1] |==|  0.87412
USER: genes 10 Torsion [C]-CA--CB-[CG] |==|  0.37975
USER: genes 11 Torsion [CA]-CB--CG-[CD2] |==|  0.00445
USER: genes 12 Torsion [C]-CA--CB-[CG] |==|  0.56963
USER: genes 13 Torsion [CA]-CB--CG-[CD2] |==|  0.82030
USER: genes 14 Torsion [C]-N--CA-[C] |==|  0.15166
USER: genes 15 Torsion [N]-CA--C-[N] |==|  0.13887
USER: genes 16 Torsion [C]-N--CA-[CB] |==|  0.87188
USER: genes 17 Torsion [N]-CA--CB-[CG] |==|  0.44160
USER: genes 18 Torsion [CA]-CB--CG-[ND1] |==|  0.62408
USER: genes 19 Torsion [N]-CA--C-[N] |==|  0.86792
USER: genes 20 Torsion [C]-N--CA-[C] |==|  0.67659
USER: genes 21 Torsion [N]-CA--C-[O] |==|  0.58164
USER: genes 22 Torsion [N]-CA--CB-[CG] |==|  0.77007
USER: genes 23 Torsion [CA]-CB--CG-[ND1] |==|  0.44171
USER: genes 24 Torsion [N]-CA--CB-[CG] |==|  0.53728
USER: genes 25 Torsion [CA]-CB--CG-[CD2] |==|  0.59942
ROOT
ATOM      1  C   HIS X   1       1.242   0.634  17.621  1.00 40.87 LIG 0.24  C 
ATOM      2 O    HIS X   1       0.752   1.709  17.980  1.00 40.80 LIG-0.27  OA
ATOM      3  N   HIS X   2       2.370   0.512  16.949  1.00 30.16 LIG-0.35  N 
ATOM      4 H    HIS X   2       2.686  -0.245  16.692  1.00 30.16 LIG 0.16  HD
ENDROOT
BRANCH 1 5
ATOM      5  CA  HIS X   1       0.590  -0.698  17.927  1.00 48.06 LIG 0.18  C 
BRANCH 5 6
ATOM      6  N   HIS X   1      -0.341  -0.541  19.048  1.00 54.11 LIG-0.35  N 
ATOM      7 H    HIS X   1      -1.168  -0.504  18.812  1.00 54.11 LIG 0.16  HD
ATOM      8  C   HIS X   0       0.062  -0.464  20.299  1.00 58.54 LIG 0.24  C 
ATOM      9 O    HIS X   0       1.234  -0.283  20.634  1.00 63.37 LIG-0.27  OA
BRANCH 8 10
ATOM     10  CA  HIS X   0      -1.055  -0.619  21.318  1.00 62.53 LIG 0.18  C 
BRANCH 10 11
ATOM     11  N   HIS X   0      -2.237   0.181  20.978  1.00 60.73 LIG-0.35  N 
ATOM     12  C   HIS X  -1      -3.053   0.627  21.919  1.00 60.09 LIG 0.25  C 
ATOM     13 O    HIS X  -1      -2.706   0.819  23.087  1.00 62.79 LIG-0.27  OA
ATOM     14 H    HIS X   0      -2.342   0.327  20.137  1.00 60.73 LIG 0.16  HD
BRANCH 12 15
ATOM     15  CA  HIS X  -1      -4.470   0.932  21.447  1.00 59.53 LIG 0.28  C 
BRANCH 15 16
ATOM     16  N   HIS X  -1      -4.500   1.028  19.949  1.00 57.14 LIG-0.07  N 
ATOM     17 H3   HIS X  -1      -3.809   1.515  19.669  1.00 57.14 LIG 0.28  HD
ATOM     18 H2   HIS X  -1      -5.258   1.416  19.691  1.00 57.14 LIG 0.28  HD
ATOM     19 H1   HIS X  -1      -4.449   0.212  19.597  1.00 57.14 LIG 0.28  HD
ENDBRANCH 15 16
BRANCH 15 20
ATOM     20  CB  HIS X  -1      -5.456  -0.129  21.938  1.00 57.27 LIG 0.10  C 
BRANCH 20 21
ATOM     21  CG  HIS X  -1      -5.061  -1.528  21.592  1.00 54.13 LIG 0.06  A 
ATOM     22 ND1  HIS X  -1      -4.608  -1.885  20.340  1.00 52.72 LIG-0.24  NA
ATOM     23  CE1 HIS X  -1      -4.353  -3.182  20.322  1.00 54.35 LIG 0.23  A 
ATOM     24 NE2  HIS X  -1      -4.624  -3.680  21.516  1.00 53.65 LIG-0.25  NA
ATOM     25  CD2 HIS X  -1      -5.067  -2.664  22.331  1.00 55.23 LIG 0.14  A 
ENDBRANCH 20 21
ENDBRANCH 15 20
ENDBRANCH 12 15
ENDBRANCH 10 11
BRANCH 10 26
ATOM     26  CB  HIS X   0      -1.408  -2.113  21.491  1.00 64.99 LIG 0.10  C 
BRANCH 26 27
ATOM     27  CG  HIS X   0      -1.609  -2.536  22.917  1.00 69.41 LIG 0.06  A 
ATOM     28 ND1  HIS X   0      -1.878  -3.842  23.277  1.00 72.01 LIG-0.24  NA
ATOM     29  CE1 HIS X   0      -1.997  -3.920  24.592  1.00 72.69 LIG 0.23  A 
ATOM     30 NE2  HIS X   0      -1.811  -2.715  25.099  1.00 72.94 LIG-0.25  NA
ATOM     31  CD2 HIS X   0      -1.561  -1.831  24.073  1.00 71.12 LIG 0.14  A 
ENDBRANCH 26 27
ENDBRANCH 10 26
ENDBRANCH 8 10
ENDBRANCH 5 6
BRANCH 5 32
ATOM     32  CB  HIS X   1      -0.147  -1.219  16.695  1.00 48.25 LIG 0.10  C 
BRANCH 32 33
ATOM     33  CG  HIS X   1      -1.268  -2.157  17.018  1.00 50.36 LIG 0.06  A 
ATOM     34  CD2 HIS X   1      -1.262  -3.387  17.588  1.00 51.47 LIG 0.14  A 
ATOM     35 NE2  HIS X   1      -2.569  -3.805  17.662  1.00 50.72 LIG-0.25  NA
ATOM     36  CE1 HIS X   1      -3.349  -2.865  17.155  1.00 48.50 LIG 0.23  A 
ATOM     37 ND1  HIS X   1      -2.590  -1.860  16.757  1.00 47.89 LIG-0.24  NA
ENDBRANCH 32 33
ENDBRANCH 5 32
ENDBRANCH 1 5
BRANCH 3 38
ATOM     38  CA  HIS X   2       3.209   1.671  16.570  1.00 26.25 LIG 0.18  C 
BRANCH 38 39
ATOM     39  C   HIS X   2       3.590   2.541  17.763  1.00 23.72 LIG 0.24  C 
ATOM     40  N   HIS X   3       4.091   1.867  18.785  1.00 22.33 LIG-0.35  N 
ATOM     41 H    HIS X   3       4.182   1.012  18.794  1.00 22.33 LIG 0.16  HD
ATOM     42 O    HIS X   2       3.426   3.770  17.769  1.00 19.88 LIG-0.27  OA
BRANCH 40 43
ATOM     43  CA  HIS X   3       4.543   2.535  20.016  1.00 22.38 LIG 0.18  C 
BRANCH 43 44
ATOM     44  CB  HIS X   3       5.428   3.793  19.748  1.00 22.51 LIG 0.10  C 
BRANCH 44 45
ATOM     45  CG  HIS X   3       5.509   4.778  20.879  1.00 18.10 LIG 0.06  A 
ATOM     46  CD2 HIS X   3       5.760   4.611  22.201  1.00 18.75 LIG 0.14  A 
ATOM     47 NE2  HIS X   3       5.763   5.861  22.776  1.00 20.06 LIG-0.25  NA
ATOM     48  CE1 HIS X   3       5.537   6.762  21.839  1.00 21.69 LIG 0.23  A 
ATOM     49 ND1  HIS X   3       5.396   6.133  20.684  1.00 17.48 LIG-0.24  NA
ENDBRANCH 44 45
ENDBRANCH 43 44
BRANCH 43 50
ATOM     50  C   HIS X   3       3.369   2.831  20.948  1.00 21.59 LIG 0.24  C 
ATOM     51 O    HIS X   3       3.383   2.516  22.132  1.00 25.47 LIG-0.27  OA
ATOM     52  N   HIS X   4       2.326   3.392  20.372  1.00 25.63 LIG-0.35  N 
ATOM     53 H    HIS X   4       2.284   3.593  19.537  1.00 25.63 LIG 0.16  HD
BRANCH 52 54
ATOM     54  CA  HIS X   4       1.124   3.720  21.144  1.00 23.96 LIG 0.17  C 
BRANCH 54 55
ATOM     55  C   HIS X   4      -0.040   2.884  20.602  1.00 31.35 LIG 0.22  C 
ATOM     56 O    HIS X   4      -1.201   3.294  20.656  1.00 37.06 LIG-0.29  OA
ENDBRANCH 54 55
BRANCH 54 57
ATOM     57  CB  HIS X   4       0.804   5.219  21.092  1.00 23.83 LIG 0.09  C 
BRANCH 57 58
ATOM     58  CG  HIS X   4       1.583   6.046  22.081  1.00 22.57 LIG 0.06  A 
ATOM     59 ND1  HIS X   4       1.778   7.407  21.940  1.00 22.63 LIG-0.24  NA
ATOM     60  CE1 HIS X   4       2.491   7.855  22.961  1.00 19.94 LIG 0.23  A 
ATOM     61 NE2  HIS X   4       2.779   6.836  23.747  1.00 20.25 LIG-0.25  NA
ATOM     62  CD2 HIS X   4       2.212   5.696  23.227  1.00 21.52 LIG 0.14  A 
ENDBRANCH 57 58
ENDBRANCH 54 57
ENDBRANCH 52 54
ENDBRANCH 43 50
ENDBRANCH 40 43
ENDBRANCH 38 39
BRANCH 38 63
ATOM     63  CB  HIS X   2       2.505   2.533  15.515  1.00 28.74 LIG 0.10  C 
BRANCH 63 64
ATOM     64  CG  HIS X   2       3.402   3.527  14.855  1.00 28.63 LIG 0.06  A 
ATOM     65 ND1  HIS X   2       4.716   3.249  14.561  1.00 31.27 LIG-0.24  NA
ATOM     66  CE1 HIS X   2       5.264   4.294  13.969  1.00 28.11 LIG 0.23  A 
ATOM     67 NE2  HIS X   2       4.355   5.246  13.876  1.00 29.87 LIG-0.25  NA
ATOM     68  CD2 HIS X   2       3.176   4.788  14.417  1.00 31.84 LIG 0.14  A 
ENDBRANCH 63 64
ENDBRANCH 38 63
ENDBRANCH 3 38
TORSDOF 24
ENDMDL
MODEL 67
USER: ADFR SOLUTION from run 65
USER: SCORE 19.036815 LL:  -6.633 LR: -13.553 RR:   0.000 FEB:  -6.394
USER: RMSD 10.554700
USER: SEED 64
USER: STATUS no improvement in best in 19 clusters for 5 generations
USER: GENES 26
USER: genes 0 Translation |==|  0.58184 0.59770 0.39227
USER: genes 1 Rotation |==|  0.54887 0.34732 0.90306 0.74868
USER: genes 2 Torsion [N]-C--CA-[N] |==|  0.93147
USER: genes 3 Torsion [C]-CA--N-[C] |==|  0.73024
USER: genes 4 Torsion [N]-C--CA-[N] |==|  0.30248
USER: genes 5 Torsion [C]-CA--N-[C] |==|  0.66488
USER: genes 6 Torsion [N]-C--CA-[N] |==|  0.48332
USER: genes 7 Torsion [C]-CA--N-[H2] |==|  0.35175
USER: genes 8 Torsion [C]-CA--CB-[CG] |==|  0.73496
USER: genes 9 Torsion [CA]-CB--CG-[ND1] |==|  0.81066
USER: genes 10 Torsion [C]-CA--CB-[CG] |==|  0.44613
USER: genes 11 Torsion [CA]-CB--CG-[CD2] |==|  0.49626
USER: genes 12 Torsion [C]-CA--CB-[CG] |==|  0.90228
USER: genes 13 Torsion [CA]-CB--CG-[CD2] |==|  0.78321
USER: genes 14 Torsion [C]-N--CA-[C] |==|  0.56947
USER: genes 15 Torsion [N]-CA--C-[N] |==|  0.42528
USER: genes 16 Torsion [C]-N--CA-[CB] |==|  0.21411
USER: genes 17 Torsion [N]-CA--CB-[CG] |==|  0.99207
USER: genes 18 Torsion [CA]-CB--CG-[ND1] |==|  0.69482
USER: genes 19 Torsion [N]-CA--C-[N] |==|  0.07081
USER: genes 20 Torsion [C]-N--CA-[C] |==|  0.62015
USER: genes 21 Torsion [N]-CA--C-[O] |==|  0.95638
USER: genes 22 Torsion [N]-CA--CB-[CG] |==|  0.97598
USER: genes 23 Torsion [CA]-CB--CG-[ND1] |==|  0.24560
USER: genes 24 Torsion [N]-CA--CB-[CG] |==|  0.63661
USER: genes 25 Torsion [CA]-CB--CG-[CD2] |==|  0.08035
ROOT
ATOM      1  C   HIS X   1       4.287   2.363  17.631  1.00 40.87 LIG 0.24  C 
ATOM      2 O    HIS X   1       4.887   1.382  17.182  1.00 40.80 LIG-0.27  OA
ATOM      3  N   HIS X   2       4.779   3.585  17.678  1.00 30.16 LIG-0.35  N 
ATOM      4 H    HIS X   2       4.352   4.253  18.011  1.00 30.16 LIG 0.16  HD
ENDROOT
BRANCH 1 5
ATOM      5  CA  HIS X   1       2.880   2.272  18.183  1.00 48.06 LIG 0.18  C 
BRANCH 5 6
ATOM      6  N   HIS X   1       2.654   3.368  19.129  1.00 54.11 LIG-0.35  N 
ATOM      7 H    HIS X   1       2.432   4.110  18.756  1.00 54.11 LIG 0.16  HD
ATOM      8  C   HIS X   0       2.780   3.218  20.431  1.00 58.54 LIG 0.24  C 
ATOM      9 O    HIS X   0       3.314   2.242  20.962  1.00 63.37 LIG-0.27  OA
BRANCH 8 10
ATOM     10  CA  HIS X   0       2.205   4.366  21.244  1.00 62.53 LIG 0.18  C 
BRANCH 10 11
ATOM     11  N   HIS X   0       0.978   3.987  21.955  1.00 60.73 LIG-0.35  N 
ATOM     12  C   HIS X  -1      -0.162   4.623  21.735  1.00 60.09 LIG 0.25  C 
ATOM     13 O    HIS X  -1      -0.420   5.214  20.684  1.00 62.79 LIG-0.27  OA
ATOM     14 H    HIS X   0       1.070   3.336  22.508  1.00 60.73 LIG 0.16  HD
BRANCH 12 15
ATOM     15  CA  HIS X  -1      -1.171   4.541  22.874  1.00 59.53 LIG 0.28  C 
BRANCH 15 16
ATOM     16  N   HIS X  -1      -2.355   5.415  22.571  1.00 57.14 LIG-0.07  N 
ATOM     17 H3   HIS X  -1      -2.382   6.090  23.151  1.00 57.14 LIG 0.28  HD
ATOM     18 H2   HIS X  -1      -3.102   4.936  22.640  1.00 57.14 LIG 0.28  HD
ATOM     19 H1   HIS X  -1      -2.283   5.736  21.744  1.00 57.14 LIG 0.28  HD
ENDBRANCH 15 16
BRANCH 15 20
ATOM     20  CB  HIS X  -1      -1.615   3.098  23.118  1.00 57.27 LIG 0.10  C 
BRANCH 20 21
ATOM     21  CG  HIS X  -1      -2.884   2.731  22.420  1.00 54.13 LIG 0.06  A 
ATOM     22 ND1  HIS X  -1      -4.106   3.266  22.768  1.00 52.72 LIG-0.24  NA
ATOM     23  CE1 HIS X  -1      -5.047   2.747  21.997  1.00 54.35 LIG 0.23  A 
ATOM     24 NE2  HIS X  -1      -4.479   1.893  21.162  1.00 53.65 LIG-0.25  NA
ATOM     25  CD2 HIS X  -1      -3.125   1.867  21.405  1.00 55.23 LIG 0.14  A 
ENDBRANCH 20 21
ENDBRANCH 15 20
ENDBRANCH 12 15
ENDBRANCH 10 11
BRANCH 10 26
ATOM     26  CB  HIS X   0       3.276   4.919  22.209  1.00 64.99 LIG 0.10  C 
BRANCH 26 27
ATOM     27  CG  HIS X   0       2.992   6.304  22.715  1.00 69.41 LIG 0.06  A 
ATOM     28 ND1  HIS X   0       1.872   7.019  22.342  1.00 72.01 LIG-0.24  NA
ATOM     29  CE1 HIS X   0       1.880   8.196  22.945  1.00 72.69 LIG 0.23  A 
ATOM     30 NE2  HIS X   0       2.962   8.268  23.701  1.00 72.94 LIG-0.25  NA
ATOM     31  CD2 HIS X   0       3.672   7.096  23.578  1.00 71.12 LIG 0.14  A 
ENDBRANCH 26 27
ENDBRANCH 10 26
ENDBRANCH 8 10
ENDBRANCH 5 6
BRANCH 5 32
ATOM     32  CB  HIS X   1       1.863   2.335  17.046  1.00 48.25 LIG 0.10  C 
BRANCH 32 33
ATOM     33  CG  HIS X   1       2.272   3.235  15.922  1.00 50.36 LIG 0.06  A 
ATOM     34  CD2 HIS X   1       2.239   4.586  15.808  1.00 51.47 LIG 0.14  A 
ATOM     35 NE2  HIS X   1       2.742   4.899  14.568  1.00 50.72 LIG-0.25  NA
ATOM     36  CE1 HIS X   1       3.073   3.781  13.945  1.00 48.50 LIG 0.23  A 
ATOM     37 ND1  HIS X   1       2.798   2.762  14.738  1.00 47.89 LIG-0.24  NA
ENDBRANCH 32 33
ENDBRANCH 5 32
ENDBRANCH 1 5
BRANCH 3 38
ATOM     38  CA  HIS X   2       6.121   3.932  17.159  1.00 26.25 LIG 0.18  C 
BRANCH 38 39
ATOM     39  C   HIS X   2       6.714   5.168  17.827  1.00 23.72 LIG 0.24  C 
ATOM     40  N   HIS X   3       8.036   5.195  17.837  1.00 22.33 LIG-0.35  N 
ATOM     41 H    HIS X   3       8.529   4.569  17.514  1.00 22.33 LIG 0.16  HD
ATOM     42 O    HIS X   2       6.007   6.056  18.328  1.00 19.88 LIG-0.27  OA
BRANCH 40 43
ATOM     43  CA  HIS X   3       8.791   6.320  18.413  1.00 22.38 LIG 0.18  C 
BRANCH 43 44
ATOM     44  CB  HIS X   3       8.836   6.301  19.973  1.00 22.51 LIG 0.10  C 
BRANCH 44 45
ATOM     45  CG  HIS X   3       8.059   5.194  20.628  1.00 18.10 LIG 0.06  A 
ATOM     46  CD2 HIS X   3       8.306   3.865  20.739  1.00 18.75 LIG 0.14  A 
ATOM     47 NE2  HIS X   3       7.284   3.323  21.484  1.00 20.06 LIG-0.25  NA
ATOM     48  CE1 HIS X   3       6.450   4.285  21.829  1.00 21.69 LIG 0.23  A 
ATOM     49 ND1  HIS X   3       6.905   5.426  21.337  1.00 17.48 LIG-0.24  NA
ENDBRANCH 44 45
ENDBRANCH 43 44
BRANCH 43 50
ATOM     50  C   HIS X   3      10.180   6.434  17.786  1.00 21.59 LIG 0.24  C 
ATOM     51 O    HIS X   3      11.106   7.000  18.355  1.00 25.47 LIG-0.27  OA
ATOM     52  N   HIS X   4      10.287   5.935  16.572  1.00 25.63 LIG-0.35  N 
ATOM     53 H    HIS X   4       9.642   5.561  16.143  1.00 25.63 LIG 0.16  HD
BRANCH 52 54
ATOM     54  CA  HIS X   4      11.559   5.986  15.845  1.00 23.96 LIG 0.17  C 
BRANCH 54 55
ATOM     55  C   HIS X   4      11.271   6.395  14.397  1.00 31.35 LIG 0.22  C 
ATOM     56 O    HIS X   4      10.130   6.344  13.933  1.00 37.06 LIG-0.29  OA
ENDBRANCH 54 55
BRANCH 54 57
ATOM     57  CB  HIS X   4      12.307   4.648  15.908  1.00 23.83 LIG 0.09  C 
BRANCH 57 58
ATOM     58  CG  HIS X   4      11.695   3.649  16.855  1.00 22.57 LIG 0.06  A 
ATOM     59 ND1  HIS X   4      10.705   2.760  16.479  1.00 22.63 LIG-0.24  NA
ATOM     60  CE1 HIS X   4      10.374   2.010  17.516  1.00 19.94 LIG 0.23  A 
ATOM     61 NE2  HIS X   4      11.097   2.389  18.553  1.00 20.25 LIG-0.25  NA
ATOM     62  CD2 HIS X   4      11.940   3.402  18.162  1.00 21.52 LIG 0.14  A 
ENDBRANCH 57 58
ENDBRANCH 54 57
ENDBRANCH 52 54
ENDBRANCH 43 50
ENDBRANCH 40 43
ENDBRANCH 38 39
BRANCH 38 63
ATOM     63  CB  HIS X   2       6.082   4.143  15.641  1.00 28.74 LIG 0.10  C 
BRANCH 63 64
ATOM     64  CG  HIS X   2       7.145   3.399  14.903  1.00 28.63 LIG 0.06  A 
ATOM     65 ND1  HIS X   2       7.679   3.860  13.723  1.00 31.27 LIG-0.24  NA
ATOM     66  CE1 HIS X   2       8.605   3.018  13.302  1.00 28.11 LIG 0.23  A 
ATOM     67 NE2  HIS X   2       8.686   2.021  14.162  1.00 29.87 LIG-0.25  NA
ATOM     68  CD2 HIS X   2       7.786   2.240  15.180  1.00 31.84 LIG 0.14  A 
ENDBRANCH 63 64
ENDBRANCH 38 63
ENDBRANCH 3 38
TORSDOF 24
ENDMDL
MODEL 68
USER: ADFR SOLUTION from run 8
USER: SCORE 18.142004 LL:  -5.491 LR: -13.542 RR:   0.000 FEB:  -6.383
USER: RMSD 6.233645
USER: SEED 195990
USER: STATUS no improvement in best in 7 clusters for 5 generations
USER: GENES 26
USER: genes 0 Translation |==|  0.45208 0.54645 0.33763
USER: genes 1 Rotation |==|  0.32809 0.28264 0.39703 0.90323
USER: genes 2 Torsion [N]-C--CA-[N] |==|  0.91357
USER: genes 3 Torsion [C]-CA--N-[C] |==|  0.82272
USER: genes 4 Torsion [N]-C--CA-[N] |==|  0.15092
USER: genes 5 Torsion [C]-CA--N-[C] |==|  0.74678
USER: genes 6 Torsion [N]-C--CA-[N] |==|  0.45669
USER: genes 7 Torsion [C]-CA--N-[H2] |==|  0.13294
USER: genes 8 Torsion [C]-CA--CB-[CG] |==|  0.26860
USER: genes 9 Torsion [CA]-CB--CG-[ND1] |==|  0.26507
USER: genes 10 Torsion [C]-CA--CB-[CG] |==|  0.80314
USER: genes 11 Torsion [CA]-CB--CG-[CD2] |==|  0.55353
USER: genes 12 Torsion [C]-CA--CB-[CG] |==|  0.28115
USER: genes 13 Torsion [CA]-CB--CG-[CD2] |==|  0.03761
USER: genes 14 Torsion [C]-N--CA-[C] |==|  0.77908
USER: genes 15 Torsion [N]-CA--C-[N] |==|  0.36787
USER: genes 16 Torsion [C]-N--CA-[CB] |==|  0.53517
USER: genes 17 Torsion [N]-CA--CB-[CG] |==|  0.17961
USER: genes 18 Torsion [CA]-CB--CG-[ND1] |==|  0.31289
USER: genes 19 Torsion [N]-CA--C-[N] |==|  0.37222
USER: genes 20 Torsion [C]-N--CA-[C] |==|  0.79338
USER: genes 21 Torsion [N]-CA--C-[O] |==|  0.05521
USER: genes 22 Torsion [N]-CA--CB-[CG] |==|  0.86714
USER: genes 23 Torsion [CA]-CB--CG-[ND1] |==|  0.86575
USER: genes 24 Torsion [N]-CA--CB-[CG] |==|  0.64821
USER: genes 25 Torsion [CA]-CB--CG-[CD2] |==|  0.79046
ROOT
ATOM      1  C   HIS X   1       1.660   1.133  16.647  1.00 40.87 LIG 0.24  C 
ATOM      2 O    HIS X   1       0.908   1.254  15.675  1.00 40.80 LIG-0.27  OA
ATOM      3  N   HIS X   2       1.928  -0.009  17.250  1.00 30.16 LIG-0.35  N 
ATOM      4 H    HIS X   2       2.440  -0.071  17.938  1.00 30.16 LIG 0.16  HD
ENDROOT
BRANCH 1 5
ATOM      5  CA  HIS X   1       2.383   2.310  17.266  1.00 48.06 LIG 0.18  C 
BRANCH 5 6
ATOM      6  N   HIS X   1       2.566   2.073  18.701  1.00 54.11 LIG-0.35  N 
ATOM      7 H    HIS X   1       3.389   2.011  18.942  1.00 54.11 LIG 0.16  HD
ATOM      8  C   HIS X   0       1.554   1.966  19.537  1.00 58.54 LIG 0.24  C 
ATOM      9 O    HIS X   0       0.383   1.821  19.183  1.00 63.37 LIG-0.27  OA
BRANCH 8 10
ATOM     10  CA  HIS X   0       1.953   2.036  21.002  1.00 62.53 LIG 0.18  C 
BRANCH 10 11
ATOM     11  N   HIS X   0       2.728   3.244  21.312  1.00 60.73 LIG-0.35  N 
ATOM     12  C   HIS X  -1       4.049   3.243  21.243  1.00 60.09 LIG 0.25  C 
ATOM     13 O    HIS X  -1       4.693   2.472  20.529  1.00 62.79 LIG-0.27  OA
ATOM     14 H    HIS X   0       2.255   3.926  21.535  1.00 60.73 LIG 0.16  HD
BRANCH 12 15
ATOM     15  CA  HIS X  -1       4.736   4.307  22.092  1.00 59.53 LIG 0.28  C 
BRANCH 15 16
ATOM     16  N   HIS X  -1       6.194   3.980  22.239  1.00 57.14 LIG-0.07  N 
ATOM     17 H3   HIS X  -1       6.623   4.682  22.579  1.00 57.14 LIG 0.28  HD
ATOM     18 H2   HIS X  -1       6.536   3.782  21.441  1.00 57.14 LIG 0.28  HD
ATOM     19 H1   HIS X  -1       6.289   3.282  22.784  1.00 57.14 LIG 0.28  HD
ENDBRANCH 15 16
BRANCH 15 20
ATOM     20  CB  HIS X  -1       4.554   5.699  21.487  1.00 57.27 LIG 0.10  C 
BRANCH 20 21
ATOM     21  CG  HIS X  -1       3.427   6.475  22.086  1.00 54.13 LIG 0.06  A 
ATOM     22 ND1  HIS X  -1       3.608   7.383  23.108  1.00 52.72 LIG-0.24  NA
ATOM     23  CE1 HIS X  -1       2.439   7.900  23.446  1.00 54.35 LIG 0.23  A 
ATOM     24 NE2  HIS X  -1       1.505   7.360  22.681  1.00 53.65 LIG-0.25  NA
ATOM     25  CD2 HIS X  -1       2.098   6.466  21.820  1.00 55.23 LIG 0.14  A 
ENDBRANCH 20 21
ENDBRANCH 15 20
ENDBRANCH 12 15
ENDBRANCH 10 11
BRANCH 10 26
ATOM     26  CB  HIS X   0       0.701   1.916  21.896  1.00 64.99 LIG 0.10  C 
BRANCH 26 27
ATOM     27  CG  HIS X   0      -0.196   3.120  21.863  1.00 69.41 LIG 0.06  A 
ATOM     28 ND1  HIS X   0      -0.170   4.042  20.836  1.00 72.01 LIG-0.24  NA
ATOM     29  CE1 HIS X   0      -1.067   4.985  21.067  1.00 72.69 LIG 0.23  A 
ATOM     30 NE2  HIS X   0      -1.679   4.706  22.205  1.00 72.94 LIG-0.25  NA
ATOM     31  CD2 HIS X   0      -1.157   3.542  22.721  1.00 71.12 LIG 0.14  A 
ENDBRANCH 26 27
ENDBRANCH 10 26
ENDBRANCH 8 10
ENDBRANCH 5 6
BRANCH 5 32
ATOM     32  CB  HIS X   1       3.735   2.515  16.586  1.00 48.25 LIG 0.10  C 
BRANCH 32 33
ATOM     33  CG  HIS X   1       3.741   3.627  15.583  1.00 50.36 LIG 0.06  A 
ATOM     34  CD2 HIS X   1       2.848   4.620  15.352  1.00 51.47 LIG 0.14  A 
ATOM     35 NE2  HIS X   1       3.345   5.379  14.319  1.00 50.72 LIG-0.25  NA
ATOM     36  CE1 HIS X   1       4.502   4.869  13.932  1.00 48.50 LIG 0.23  A 
ATOM     37 ND1  HIS X   1       4.765   3.811  14.677  1.00 47.89 LIG-0.24  NA
ENDBRANCH 32 33
ENDBRANCH 5 32
ENDBRANCH 1 5
BRANCH 3 38
ATOM     38  CA  HIS X   2       1.371  -1.305  16.800  1.00 26.25 LIG 0.18  C 
BRANCH 38 39
ATOM     39  C   HIS X   2      -0.067  -1.523  17.260  1.00 23.72 LIG 0.24  C 
ATOM     40  N   HIS X   3      -0.881  -1.939  16.304  1.00 22.33 LIG-0.35  N 
ATOM     41 H    HIS X   3      -0.637  -2.062  15.488  1.00 22.33 LIG 0.16  HD
ATOM     42 O    HIS X   2      -0.432  -1.311  18.425  1.00 19.88 LIG-0.27  OA
BRANCH 40 43
ATOM     43  CA  HIS X   3      -2.301  -2.232  16.559  1.00 22.38 LIG 0.18  C 
BRANCH 43 44
ATOM     44  CB  HIS X   3      -2.995  -2.997  15.389  1.00 22.51 LIG 0.10  C 
BRANCH 44 45
ATOM     45  CG  HIS X   3      -2.471  -4.380  15.121  1.00 18.10 LIG 0.06  A 
ATOM     46  CD2 HIS X   3      -1.253  -4.816  14.716  1.00 18.75 LIG 0.14  A 
ATOM     47 NE2  HIS X   3      -1.306  -6.191  14.675  1.00 20.06 LIG-0.25  NA
ATOM     48  CE1 HIS X   3      -2.508  -6.583  15.056  1.00 21.69 LIG 0.23  A 
ATOM     49 ND1  HIS X   3      -3.223  -5.508  15.345  1.00 17.48 LIG-0.24  NA
ENDBRANCH 44 45
ENDBRANCH 43 44
BRANCH 43 50
ATOM     50  C   HIS X   3      -2.489  -2.925  17.908  1.00 21.59 LIG 0.24  C 
ATOM     51 O    HIS X   3      -1.815  -3.893  18.242  1.00 25.47 LIG-0.27  OA
ATOM     52  N   HIS X   4      -3.464  -2.445  18.651  1.00 25.63 LIG-0.35  N 
ATOM     53 H    HIS X   4      -3.969  -1.787  18.423  1.00 25.63 LIG 0.16  HD
BRANCH 52 54
ATOM     54  CA  HIS X   4      -3.766  -3.022  19.964  1.00 23.96 LIG 0.17  C 
BRANCH 54 55
ATOM     55  C   HIS X   4      -4.472  -4.365  19.750  1.00 31.35 LIG 0.22  C 
ATOM     56 O    HIS X   4      -4.386  -4.970  18.679  1.00 37.06 LIG-0.29  OA
ENDBRANCH 54 55
BRANCH 54 57
ATOM     57  CB  HIS X   4      -4.617  -2.077  20.822  1.00 23.83 LIG 0.09  C 
BRANCH 57 58
ATOM     58  CG  HIS X   4      -4.107  -0.660  20.858  1.00 22.57 LIG 0.06  A 
ATOM     59 ND1  HIS X   4      -2.785  -0.339  21.106  1.00 22.63 LIG-0.24  NA
ATOM     60  CE1 HIS X   4      -2.639   0.975  21.069  1.00 19.94 LIG 0.23  A 
ATOM     61 NE2  HIS X   4      -3.817   1.518  20.826  1.00 20.25 LIG-0.25  NA
ATOM     62  CD2 HIS X   4      -4.748   0.517  20.676  1.00 21.52 LIG 0.14  A 
ENDBRANCH 57 58
ENDBRANCH 54 57
ENDBRANCH 52 54
ENDBRANCH 43 50
ENDBRANCH 40 43
ENDBRANCH 38 39
BRANCH 38 63
ATOM     63  CB  HIS X   2       2.243  -2.470  17.283  1.00 28.74 LIG 0.10  C 
BRANCH 63 64
ATOM     64  CG  HIS X   2       2.674  -3.391  16.191  1.00 28.63 LIG 0.06  A 
ATOM     65 ND1  HIS X   2       3.958  -3.398  15.700  1.00 31.27 LIG-0.24  NA
ATOM     66  CE1 HIS X   2       4.063  -4.317  14.758  1.00 28.11 LIG 0.23  A 
ATOM     67 NE2  HIS X   2       2.890  -4.902  14.612  1.00 29.87 LIG-0.25  NA
ATOM     68  CD2 HIS X   2       2.003  -4.346  15.504  1.00 31.84 LIG 0.14  A 
ENDBRANCH 63 64
ENDBRANCH 38 63
ENDBRANCH 3 38
TORSDOF 24
ENDMDL
MODEL 69
USER: ADFR SOLUTION from run 77
USER: SCORE 18.688847 LL:  -6.130 LR: -13.508 RR:   0.000 FEB:  -6.349
USER: RMSD 10.259495
USER: SEED 76
USER: STATUS searching
USER: GENES 26
USER: genes 0 Translation |==|  0.44304 0.53344 0.39864
USER: genes 1 Rotation |==|  0.85042 0.28735 0.26745 0.66705
USER: genes 2 Torsion [N]-C--CA-[N] |==|  0.46296
USER: genes 3 Torsion [C]-CA--N-[C] |==|  0.80418
USER: genes 4 Torsion [N]-C--CA-[N] |==|  0.91355
USER: genes 5 Torsion [C]-CA--N-[C] |==|  0.67372
USER: genes 6 Torsion [N]-C--CA-[N] |==|  0.98183
USER: genes 7 Torsion [C]-CA--N-[H2] |==|  0.37338
USER: genes 8 Torsion [C]-CA--CB-[CG] |==|  0.32261
USER: genes 9 Torsion [CA]-CB--CG-[ND1] |==|  0.10334
USER: genes 10 Torsion [C]-CA--CB-[CG] |==|  0.01817
USER: genes 11 Torsion [CA]-CB--CG-[CD2] |==|  0.21199
USER: genes 12 Torsion [C]-CA--CB-[CG] |==|  0.54692
USER: genes 13 Torsion [CA]-CB--CG-[CD2] |==|  0.85522
USER: genes 14 Torsion [C]-N--CA-[C] |==|  0.13375
USER: genes 15 Torsion [N]-CA--C-[N] |==|  0.12763
USER: genes 16 Torsion [C]-N--CA-[CB] |==|  0.88781
USER: genes 17 Torsion [N]-CA--CB-[CG] |==|  0.45426
USER: genes 18 Torsion [CA]-CB--CG-[ND1] |==|  0.62746
USER: genes 19 Torsion [N]-CA--C-[N] |==|  0.86437
USER: genes 20 Torsion [C]-N--CA-[C] |==|  0.65379
USER: genes 21 Torsion [N]-CA--C-[O] |==|  0.64763
USER: genes 22 Torsion [N]-CA--CB-[CG] |==|  0.77126
USER: genes 23 Torsion [CA]-CB--CG-[ND1] |==|  0.50273
USER: genes 24 Torsion [N]-CA--CB-[CG] |==|  0.54218
USER: genes 25 Torsion [CA]-CB--CG-[CD2] |==|  0.57977
ROOT
ATOM      1  C   HIS X   1       1.477   0.821  17.746  1.00 40.87 LIG 0.24  C 
ATOM      2 O    HIS X   1       1.106   1.935  18.127  1.00 40.80 LIG-0.27  OA
ATOM      3  N   HIS X   2       2.563   0.595  17.033  1.00 30.16 LIG-0.35  N 
ATOM      4 H    HIS X   2       2.795  -0.187  16.761  1.00 30.16 LIG 0.16  HD
ENDROOT
BRANCH 1 5
ATOM      5  CA  HIS X   1       0.710  -0.445  18.069  1.00 48.06 LIG 0.18  C 
BRANCH 5 6
ATOM      6  N   HIS X   1      -0.283  -0.163  19.109  1.00 54.11 LIG-0.35  N 
ATOM      7 H    HIS X   1      -1.096  -0.178  18.829  1.00 54.11 LIG 0.16  HD
ATOM      8  C   HIS X   0       0.050   0.089  20.358  1.00 58.54 LIG 0.24  C 
ATOM      9 O    HIS X   0       1.199   0.341  20.725  1.00 63.37 LIG-0.27  OA
BRANCH 8 10
ATOM     10  CA  HIS X   0      -1.118   0.043  21.330  1.00 62.53 LIG 0.18  C 
BRANCH 10 11
ATOM     11  N   HIS X   0      -2.381   0.451  20.704  1.00 60.73 LIG-0.35  N 
ATOM     12  C   HIS X  -1      -3.038   1.519  21.127  1.00 60.09 LIG 0.25  C 
ATOM     13 O    HIS X  -1      -2.498   2.467  21.701  1.00 62.79 LIG-0.27  OA
ATOM     14 H    HIS X   0      -2.642  -0.054  20.059  1.00 60.73 LIG 0.16  HD
BRANCH 12 15
ATOM     15  CA  HIS X  -1      -4.530   1.518  20.816  1.00 59.53 LIG 0.28  C 
BRANCH 15 16
ATOM     16  N   HIS X  -1      -4.870   0.342  19.945  1.00 57.14 LIG-0.07  N 
ATOM     17 H3   HIS X  -1      -5.017   0.622  19.113  1.00 57.14 LIG 0.28  HD
ATOM     18 H2   HIS X  -1      -5.602  -0.057  20.257  1.00 57.14 LIG 0.28  HD
ATOM     19 H1   HIS X  -1      -4.192  -0.235  19.948  1.00 57.14 LIG 0.28  HD
ENDBRANCH 15 16
BRANCH 15 20
ATOM     20  CB  HIS X  -1      -5.362   1.496  22.099  1.00 57.27 LIG 0.10  C 
BRANCH 20 21
ATOM     21  CG  HIS X  -1      -6.201   2.717  22.296  1.00 54.13 LIG 0.06  A 
ATOM     22 ND1  HIS X  -1      -6.825   3.367  21.253  1.00 52.72 LIG-0.24  NA
ATOM     23  CE1 HIS X  -1      -7.477   4.418  21.721  1.00 54.35 LIG 0.23  A 
ATOM     24 NE2  HIS X  -1      -7.297   4.474  23.029  1.00 53.65 LIG-0.25  NA
ATOM     25  CD2 HIS X  -1      -6.503   3.419  23.415  1.00 55.23 LIG 0.14  A 
ENDBRANCH 20 21
ENDBRANCH 15 20
ENDBRANCH 12 15
ENDBRANCH 10 11
BRANCH 10 26
ATOM     26  CB  HIS X   0      -1.222  -1.361  21.963  1.00 64.99 LIG 0.10  C 
BRANCH 26 27
ATOM     27  CG  HIS X   0      -0.090  -2.282  21.609  1.00 69.41 LIG 0.06  A 
ATOM     28 ND1  HIS X   0      -0.212  -3.287  20.670  1.00 72.01 LIG-0.24  NA
ATOM     29  CE1 HIS X   0       0.940  -3.928  20.559  1.00 72.69 LIG 0.23  A 
ATOM     30 NE2  HIS X   0       1.806  -3.371  21.387  1.00 72.94 LIG-0.25  NA
ATOM     31  CD2 HIS X   0       1.189  -2.337  22.052  1.00 71.12 LIG 0.14  A 
ENDBRANCH 26 27
ENDBRANCH 10 26
ENDBRANCH 8 10
ENDBRANCH 5 6
BRANCH 5 32
ATOM     32  CB  HIS X   1       0.025  -0.981  16.814  1.00 48.25 LIG 0.10  C 
BRANCH 32 33
ATOM     33  CG  HIS X   1      -1.059  -1.974  17.098  1.00 50.36 LIG 0.06  A 
ATOM     34  CD2 HIS X   1      -1.055  -3.105  17.845  1.00 51.47 LIG 0.14  A 
ATOM     35 NE2  HIS X   1      -2.320  -3.639  17.777  1.00 50.72 LIG-0.25  NA
ATOM     36  CE1 HIS X   1      -3.072  -2.862  17.017  1.00 48.50 LIG 0.23  A 
ATOM     37 ND1  HIS X   1      -2.337  -1.851  16.592  1.00 47.89 LIG-0.24  NA
ENDBRANCH 32 33
ENDBRANCH 5 32
ENDBRANCH 1 5
BRANCH 3 38
ATOM     38  CA  HIS X   2       3.496   1.671  16.629  1.00 26.25 LIG 0.18  C 
BRANCH 38 39
ATOM     39  C   HIS X   2       3.880   2.588  17.786  1.00 23.72 LIG 0.24  C 
ATOM     40  N   HIS X   3       4.203   1.947  18.897  1.00 22.33 LIG-0.35  N 
ATOM     41 H    HIS X   3       4.186   1.091  18.977  1.00 22.33 LIG 0.16  HD
ATOM     42 O    HIS X   2       3.870   3.824  17.686  1.00 19.88 LIG-0.27  OA
BRANCH 40 43
ATOM     43  CA  HIS X   3       4.628   2.659  20.113  1.00 22.38 LIG 0.18  C 
BRANCH 43 44
ATOM     44  CB  HIS X   3       5.573   3.868  19.825  1.00 22.51 LIG 0.10  C 
BRANCH 44 45
ATOM     45  CG  HIS X   3       5.727   4.850  20.952  1.00 18.10 LIG 0.06  A 
ATOM     46  CD2 HIS X   3       6.016   4.673  22.265  1.00 18.75 LIG 0.14  A 
ATOM     47 NE2  HIS X   3       6.083   5.923  22.838  1.00 20.06 LIG-0.25  NA
ATOM     48  CE1 HIS X   3       5.859   6.832  21.907  1.00 21.69 LIG 0.23  A 
ATOM     49 ND1  HIS X   3       5.657   6.208  20.758  1.00 17.48 LIG-0.24  NA
ENDBRANCH 44 45
ENDBRANCH 43 44
BRANCH 43 50
ATOM     50  C   HIS X   3       3.428   3.044  20.977  1.00 21.59 LIG 0.24  C 
ATOM     51 O    HIS X   3       3.369   2.768  22.170  1.00 25.47 LIG-0.27  OA
ATOM     52  N   HIS X   4       2.445   3.637  20.334  1.00 25.63 LIG-0.35  N 
ATOM     53 H    HIS X   4       2.453   3.813  19.492  1.00 25.63 LIG 0.16  HD
BRANCH 52 54
ATOM     54  CA  HIS X   4       1.226   4.052  21.034  1.00 23.96 LIG 0.17  C 
BRANCH 54 55
ATOM     55  C   HIS X   4       0.024   3.416  20.328  1.00 31.35 LIG 0.22  C 
ATOM     56 O    HIS X   4      -0.928   4.099  19.945  1.00 37.06 LIG-0.29  OA
ENDBRANCH 54 55
BRANCH 54 57
ATOM     57  CB  HIS X   4       1.092   5.578  21.095  1.00 23.83 LIG 0.09  C 
BRANCH 57 58
ATOM     58  CG  HIS X   4       1.880   6.217  22.208  1.00 22.57 LIG 0.06  A 
ATOM     59 ND1  HIS X   4       1.880   7.579  22.448  1.00 22.63 LIG-0.24  NA
ATOM     60  CE1 HIS X   4       2.655   7.840  23.488  1.00 19.94 LIG 0.23  A 
ATOM     61 NE2  HIS X   4       3.170   6.705  23.920  1.00 20.25 LIG-0.25  NA
ATOM     62  CD2 HIS X   4       2.690   5.675  23.146  1.00 21.52 LIG 0.14  A 
ENDBRANCH 57 58
ENDBRANCH 54 57
ENDBRANCH 52 54
ENDBRANCH 43 50
ENDBRANCH 40 43
ENDBRANCH 38 39
BRANCH 38 63
ATOM     63  CB  HIS X   2       2.903   2.509  15.490  1.00 28.74 LIG 0.10  C 
BRANCH 63 64
ATOM     64  CG  HIS X   2       3.905   3.368  14.792  1.00 28.63 LIG 0.06  A 
ATOM     65 ND1  HIS X   2       5.230   3.017  14.690  1.00 31.27 LIG-0.24  NA
ATOM     66  CE1 HIS X   2       5.879   3.946  14.012  1.00 28.11 LIG 0.23  A 
ATOM     67 NE2  HIS X   2       5.025   4.893  13.678  1.00 29.87 LIG-0.25  NA
ATOM     68  CD2 HIS X   2       3.778   4.552  14.147  1.00 31.84 LIG 0.14  A 
ENDBRANCH 63 64
ENDBRANCH 38 63
ENDBRANCH 3 38
TORSDOF 24
ENDMDL
MODEL 70
USER: ADFR SOLUTION from run 37
USER: SCORE 18.490728 LL:  -6.490 LR: -13.488 RR:   0.000 FEB:  -6.329
USER: RMSD 9.788219
USER: SEED 36
USER: STATUS no improvement in best in 7 clusters for 5 generations
USER: GENES 26
USER: genes 0 Translation |==|  0.40494 0.46631 0.35982
USER: genes 1 Rotation |==|  0.61252 0.29242 0.90471 0.67453
USER: genes 2 Torsion [N]-C--CA-[N] |==|  0.44191
USER: genes 3 Torsion [C]-CA--N-[C] |==|  0.62635
USER: genes 4 Torsion [N]-C--CA-[N] |==|  0.98304
USER: genes 5 Torsion [C]-CA--N-[C] |==|  0.75562
USER: genes 6 Torsion [N]-C--CA-[N] |==|  0.47005
USER: genes 7 Torsion [C]-CA--N-[H2] |==|  0.32377
USER: genes 8 Torsion [C]-CA--CB-[CG] |==|  0.79221
USER: genes 9 Torsion [CA]-CB--CG-[ND1] |==|  0.77929
USER: genes 10 Torsion [C]-CA--CB-[CG] |==|  0.84137
USER: genes 11 Torsion [CA]-CB--CG-[CD2] |==|  0.40509
USER: genes 12 Torsion [C]-CA--CB-[CG] |==|  0.41021
USER: genes 13 Torsion [CA]-CB--CG-[CD2] |==|  0.60091
USER: genes 14 Torsion [C]-N--CA-[C] |==|  0.70605
USER: genes 15 Torsion [N]-CA--C-[N] |==|  0.71984
USER: genes 16 Torsion [C]-N--CA-[CB] |==|  0.23089
USER: genes 17 Torsion [N]-CA--CB-[CG] |==|  0.99002
USER: genes 18 Torsion [CA]-CB--CG-[ND1] |==|  0.77026
USER: genes 19 Torsion [N]-CA--C-[N] |==|  0.95008
USER: genes 20 Torsion [C]-N--CA-[C] |==|  0.15444
USER: genes 21 Torsion [N]-CA--C-[O] |==|  0.29872
USER: genes 22 Torsion [N]-CA--CB-[CG] |==|  0.82318
USER: genes 23 Torsion [CA]-CB--CG-[ND1] |==|  0.16625
USER: genes 24 Torsion [N]-CA--CB-[CG] |==|  0.60219
USER: genes 25 Torsion [CA]-CB--CG-[CD2] |==|  0.07656
ROOT
ATOM      1  C   HIS X   1       0.705  -0.791  17.047  1.00 40.87 LIG 0.24  C 
ATOM      2 O    HIS X   1       1.539  -1.355  16.332  1.00 40.80 LIG-0.27  OA
ATOM      3  N   HIS X   2       0.822   0.439  17.508  1.00 30.16 LIG-0.35  N 
ATOM      4 H    HIS X   2       0.239   0.809  18.020  1.00 30.16 LIG 0.16  HD
ENDROOT
BRANCH 1 5
ATOM      5  CA  HIS X   1      -0.583  -1.461  17.476  1.00 48.06 LIG 0.18  C 
BRANCH 5 6
ATOM      6  N   HIS X   1      -0.885  -2.570  16.567  1.00 54.11 LIG-0.35  N 
ATOM      7 H    HIS X   1      -0.209  -3.072  16.391  1.00 54.11 LIG 0.16  HD
ATOM      8  C   HIS X   0      -2.087  -2.771  16.068  1.00 58.54 LIG 0.24  C 
ATOM      9 O    HIS X   0      -2.999  -1.944  16.120  1.00 63.37 LIG-0.27  OA
BRANCH 8 10
ATOM     10  CA  HIS X   0      -2.264  -4.130  15.411  1.00 62.53 LIG 0.18  C 
BRANCH 10 11
ATOM     11  N   HIS X   0      -1.007  -4.885  15.343  1.00 60.73 LIG-0.35  N 
ATOM     12  C   HIS X  -1      -0.182  -4.745  14.318  1.00 60.09 LIG 0.25  C 
ATOM     13 O    HIS X  -1      -0.132  -3.732  13.618  1.00 62.79 LIG-0.27  OA
ATOM     14 H    HIS X   0      -0.866  -5.407  16.011  1.00 60.73 LIG 0.16  HD
BRANCH 12 15
ATOM     15  CA  HIS X  -1       0.748  -5.929  14.079  1.00 59.53 LIG 0.28  C 
BRANCH 15 16
ATOM     16  N   HIS X  -1       1.441  -5.774  12.755  1.00 57.14 LIG-0.07  N 
ATOM     17 H3   HIS X  -1       1.280  -6.489  12.251  1.00 57.14 LIG 0.28  HD
ATOM     18 H2   HIS X  -1       2.318  -5.695  12.886  1.00 57.14 LIG 0.28  HD
ATOM     19 H1   HIS X  -1       1.136  -5.046  12.343  1.00 57.14 LIG 0.28  HD
ENDBRANCH 15 16
BRANCH 15 20
ATOM     20  CB  HIS X  -1       1.770  -6.066  15.208  1.00 57.27 LIG 0.10  C 
BRANCH 20 21
ATOM     21  CG  HIS X  -1       2.863  -5.048  15.161  1.00 54.13 LIG 0.06  A 
ATOM     22 ND1  HIS X  -1       3.945  -5.157  14.314  1.00 52.72 LIG-0.24  NA
ATOM     23  CE1 HIS X  -1       4.754  -4.128  14.504  1.00 54.35 LIG 0.23  A 
ATOM     24 NE2  HIS X  -1       4.237  -3.357  15.445  1.00 53.65 LIG-0.25  NA
ATOM     25  CD2 HIS X  -1       3.052  -3.910  15.872  1.00 55.23 LIG 0.14  A 
ENDBRANCH 20 21
ENDBRANCH 15 20
ENDBRANCH 12 15
ENDBRANCH 10 11
BRANCH 10 26
ATOM     26  CB  HIS X   0      -3.370  -4.926  16.137  1.00 64.99 LIG 0.10  C 
BRANCH 26 27
ATOM     27  CG  HIS X   0      -3.125  -5.121  17.605  1.00 69.41 LIG 0.06  A 
ATOM     28 ND1  HIS X   0      -1.859  -5.266  18.138  1.00 72.01 LIG-0.24  NA
ATOM     29  CE1 HIS X   0      -1.947  -5.412  19.449  1.00 72.69 LIG 0.23  A 
ATOM     30 NE2  HIS X   0      -3.223  -5.363  19.788  1.00 72.94 LIG-0.25  NA
ATOM     31  CD2 HIS X   0      -3.981  -5.178  18.654  1.00 71.12 LIG 0.14  A 
ENDBRANCH 26 27
ENDBRANCH 10 26
ENDBRANCH 8 10
ENDBRANCH 5 6
BRANCH 5 32
ATOM     32  CB  HIS X   1      -0.458  -1.972  18.910  1.00 48.25 LIG 0.10  C 
BRANCH 32 33
ATOM     33  CG  HIS X   1      -1.744  -1.935  19.676  1.00 50.36 LIG 0.06  A 
ATOM     34  CD2 HIS X   1      -1.996  -1.661  20.979  1.00 51.47 LIG 0.14  A 
ATOM     35 NE2  HIS X   1      -3.355  -1.758  21.158  1.00 50.72 LIG-0.25  NA
ATOM     36  CE1 HIS X   1      -3.917  -2.078  20.005  1.00 48.50 LIG 0.23  A 
ATOM     37 ND1  HIS X   1      -2.969  -2.193  19.093  1.00 47.89 LIG-0.24  NA
ENDBRANCH 32 33
ENDBRANCH 5 32
ENDBRANCH 1 5
BRANCH 3 38
ATOM     38  CA  HIS X   2       1.976   1.310  17.189  1.00 26.25 LIG 0.18  C 
BRANCH 38 39
ATOM     39  C   HIS X   2       2.941   1.468  18.361  1.00 23.72 LIG 0.24  C 
ATOM     40  N   HIS X   3       2.803   2.605  19.023  1.00 22.33 LIG-0.35  N 
ATOM     41 H    HIS X   3       2.236   3.215  18.811  1.00 22.33 LIG 0.16  HD
ATOM     42 O    HIS X   2       3.785   0.606  18.648  1.00 19.88 LIG-0.27  OA
BRANCH 40 43
ATOM     43  CA  HIS X   3       3.624   2.927  20.201  1.00 22.38 LIG 0.18  C 
BRANCH 43 44
ATOM     44  CB  HIS X   3       5.022   3.520  19.838  1.00 22.51 LIG 0.10  C 
BRANCH 44 45
ATOM     45  CG  HIS X   3       5.333   3.587  18.369  1.00 18.10 LIG 0.06  A 
ATOM     46  CD2 HIS X   3       5.297   4.617  17.488  1.00 18.75 LIG 0.14  A 
ATOM     47 NE2  HIS X   3       5.727   4.130  16.275  1.00 20.06 LIG-0.25  NA
ATOM     48  CE1 HIS X   3       6.029   2.852  16.411  1.00 21.69 LIG 0.23  A 
ATOM     49 ND1  HIS X   3       5.814   2.506  17.670  1.00 17.48 LIG-0.24  NA
ENDBRANCH 44 45
ENDBRANCH 43 44
BRANCH 43 50
ATOM     50  C   HIS X   3       2.855   3.801  21.191  1.00 21.59 LIG 0.24  C 
ATOM     51 O    HIS X   3       3.172   3.880  22.372  1.00 25.47 LIG-0.27  OA
ATOM     52  N   HIS X   4       1.797   4.408  20.694  1.00 25.63 LIG-0.35  N 
ATOM     53 H    HIS X   4       1.540   4.341  19.876  1.00 25.63 LIG 0.16  HD
BRANCH 52 54
ATOM     54  CA  HIS X   4       0.958   5.268  21.533  1.00 23.96 LIG 0.17  C 
BRANCH 54 55
ATOM     55  C   HIS X   4       1.848   6.345  22.162  1.00 31.35 LIG 0.22  C 
ATOM     56 O    HIS X   4       1.797   7.517  21.786  1.00 37.06 LIG-0.29  OA
ENDBRANCH 54 55
BRANCH 54 57
ATOM     57  CB  HIS X   4       0.210   4.467  22.606  1.00 23.83 LIG 0.09  C 
BRANCH 57 58
ATOM     58  CG  HIS X   4      -0.774   3.471  22.050  1.00 22.57 LIG 0.06  A 
ATOM     59 ND1  HIS X   4      -0.407   2.435  21.210  1.00 22.63 LIG-0.24  NA
ATOM     60  CE1 HIS X   4      -1.480   1.728  20.894  1.00 19.94 LIG 0.23  A 
ATOM     61 NE2  HIS X   4      -2.527   2.274  21.481  1.00 20.25 LIG-0.25  NA
ATOM     62  CD2 HIS X   4      -2.111   3.356  22.221  1.00 21.52 LIG 0.14  A 
ENDBRANCH 57 58
ENDBRANCH 54 57
ENDBRANCH 52 54
ENDBRANCH 43 50
ENDBRANCH 40 43
ENDBRANCH 38 39
BRANCH 38 63
ATOM     63  CB  HIS X   2       1.505   2.694  16.728  1.00 28.74 LIG 0.10  C 
BRANCH 63 64
ATOM     64  CG  HIS X   2       2.346   3.285  15.646  1.00 28.63 LIG 0.06  A 
ATOM     65 ND1  HIS X   2       2.488   4.643  15.485  1.00 31.27 LIG-0.24  NA
ATOM     66  CE1 HIS X   2       3.296   4.883  14.469  1.00 28.11 LIG 0.23  A 
ATOM     67 NE2  HIS X   2       3.677   3.729  13.956  1.00 29.87 LIG-0.25  NA
ATOM     68  CD2 HIS X   2       3.102   2.710  14.681  1.00 31.84 LIG 0.14  A 
ENDBRANCH 63 64
ENDBRANCH 38 63
ENDBRANCH 3 38
TORSDOF 24
ENDMDL
MODEL 71
USER: ADFR SOLUTION from run 129
USER: SCORE 16.803571 LL:  -5.512 LR: -13.488 RR:   0.000 FEB:  -6.329
USER: RMSD 10.586496
USER: SEED 128
USER: STATUS no improvement in best in 20 clusters for 5 generations
USER: GENES 26
USER: genes 0 Translation |==|  0.51390 0.58913 0.38804
USER: genes 1 Rotation |==|  0.16868 0.86426 0.48180 0.58496
USER: genes 2 Torsion [N]-C--CA-[N] |==|  0.16195
USER: genes 3 Torsion [C]-CA--N-[C] |==|  0.66182
USER: genes 4 Torsion [N]-C--CA-[N] |==|  0.37256
USER: genes 5 Torsion [C]-CA--N-[C] |==|  0.52336
USER: genes 6 Torsion [N]-C--CA-[N] |==|  0.95996
USER: genes 7 Torsion [C]-CA--N-[H2] |==|  0.36460
USER: genes 8 Torsion [C]-CA--CB-[CG] |==|  0.43474
USER: genes 9 Torsion [CA]-CB--CG-[ND1] |==|  0.67440
USER: genes 10 Torsion [C]-CA--CB-[CG] |==|  0.36559
USER: genes 11 Torsion [CA]-CB--CG-[CD2] |==|  0.74544
USER: genes 12 Torsion [C]-CA--CB-[CG] |==|  0.15554
USER: genes 13 Torsion [CA]-CB--CG-[CD2] |==|  0.63824
USER: genes 14 Torsion [C]-N--CA-[C] |==|  0.08146
USER: genes 15 Torsion [N]-CA--C-[N] |==|  0.65322
USER: genes 16 Torsion [C]-N--CA-[CB] |==|  0.16194
USER: genes 17 Torsion [N]-CA--CB-[CG] |==|  0.59717
USER: genes 18 Torsion [CA]-CB--CG-[ND1] |==|  0.62650
USER: genes 19 Torsion [N]-CA--C-[N] |==|  0.09603
USER: genes 20 Torsion [C]-N--CA-[C] |==|  0.71421
USER: genes 21 Torsion [N]-CA--C-[O] |==|  0.16697
USER: genes 22 Torsion [N]-CA--CB-[CG] |==|  0.91601
USER: genes 23 Torsion [CA]-CB--CG-[ND1] |==|  0.38430
USER: genes 24 Torsion [N]-CA--CB-[CG] |==|  0.11662
USER: genes 25 Torsion [CA]-CB--CG-[CD2] |==|  0.72788
ROOT
ATOM      1  C   HIS X   1       2.911   2.157  17.555  1.00 40.87 LIG 0.24  C 
ATOM      2 O    HIS X   1       3.055   3.377  17.681  1.00 40.80 LIG-0.27  OA
ATOM      3  N   HIS X   2       3.437   1.253  18.358  1.00 30.16 LIG-0.35  N 
ATOM      4 H    HIS X   2       3.340   0.406  18.244  1.00 30.16 LIG 0.16  HD
ENDROOT
BRANCH 1 5
ATOM      5  CA  HIS X   1       2.087   1.547  16.441  1.00 48.06 LIG 0.18  C 
BRANCH 5 6
ATOM      6  N   HIS X   1       1.011   0.736  17.016  1.00 54.11 LIG-0.35  N 
ATOM      7 H    HIS X   1       0.484   1.173  17.537  1.00 54.11 LIG 0.16  HD
ATOM      8  C   HIS X   0       0.871  -0.547  16.751  1.00 58.54 LIG 0.24  C 
ATOM      9 O    HIS X   0       1.735  -1.233  16.201  1.00 63.37 LIG-0.27  OA
BRANCH 8 10
ATOM     10  CA  HIS X   0      -0.466  -1.125  17.186  1.00 62.53 LIG 0.18  C 
BRANCH 10 11
ATOM     11  N   HIS X   0      -1.075  -1.964  16.147  1.00 60.73 LIG-0.35  N 
ATOM     12  C   HIS X  -1      -2.311  -2.418  16.276  1.00 60.09 LIG 0.25  C 
ATOM     13 O    HIS X  -1      -3.172  -1.865  16.964  1.00 62.79 LIG-0.27  OA
ATOM     14 H    HIS X   0      -0.568  -2.124  15.472  1.00 60.73 LIG 0.16  HD
BRANCH 12 15
ATOM     15  CA  HIS X  -1      -2.620  -3.674  15.469  1.00 59.53 LIG 0.28  C 
BRANCH 15 16
ATOM     16  N   HIS X  -1      -1.544  -3.901  14.445  1.00 57.14 LIG-0.07  N 
ATOM     17 H3   HIS X  -1      -1.867  -3.731  13.633  1.00 57.14 LIG 0.28  HD
ATOM     18 H2   HIS X  -1      -1.270  -4.747  14.484  1.00 57.14 LIG 0.28  HD
ATOM     19 H1   HIS X  -1      -0.858  -3.358  14.611  1.00 57.14 LIG 0.28  HD
ENDBRANCH 15 16
BRANCH 15 20
ATOM     20  CB  HIS X  -1      -2.762  -4.895  16.379  1.00 57.27 LIG 0.10  C 
BRANCH 20 21
ATOM     21  CG  HIS X  -1      -3.579  -5.998  15.787  1.00 54.13 LIG 0.06  A 
ATOM     22 ND1  HIS X  -1      -4.763  -6.428  16.345  1.00 52.72 LIG-0.24  NA
ATOM     23  CE1 HIS X  -1      -5.252  -7.421  15.622  1.00 54.35 LIG 0.23  A 
ATOM     24 NE2  HIS X  -1      -4.426  -7.652  14.615  1.00 53.65 LIG-0.25  NA
ATOM     25  CD2 HIS X  -1      -3.371  -6.772  14.695  1.00 55.23 LIG 0.14  A 
ENDBRANCH 20 21
ENDBRANCH 15 20
ENDBRANCH 12 15
ENDBRANCH 10 11
BRANCH 10 26
ATOM     26  CB  HIS X   0      -0.301  -1.892  18.515  1.00 64.99 LIG 0.10  C 
BRANCH 26 27
ATOM     27  CG  HIS X   0      -1.325  -1.543  19.557  1.00 69.41 LIG 0.06  A 
ATOM     28 ND1  HIS X   0      -2.533  -2.203  19.667  1.00 72.01 LIG-0.24  NA
ATOM     29  CE1 HIS X   0      -3.224  -1.691  20.672  1.00 72.69 LIG 0.23  A 
ATOM     30 NE2  HIS X   0      -2.507  -0.727  21.221  1.00 72.94 LIG-0.25  NA
ATOM     31  CD2 HIS X   0      -1.313  -0.617  20.546  1.00 71.12 LIG 0.14  A 
ENDBRANCH 26 27
ENDBRANCH 10 26
ENDBRANCH 8 10
ENDBRANCH 5 6
BRANCH 5 32
ATOM     32  CB  HIS X   1       1.505   2.646  15.554  1.00 48.25 LIG 0.10  C 
BRANCH 32 33
ATOM     33  CG  HIS X   1       2.538   3.567  14.982  1.00 50.36 LIG 0.06  A 
ATOM     34  CD2 HIS X   1       2.606   4.921  14.957  1.00 51.47 LIG 0.14  A 
ATOM     35 NE2  HIS X   1       3.774   5.255  14.315  1.00 50.72 LIG-0.25  NA
ATOM     36  CE1 HIS X   1       4.400   4.146  13.959  1.00 48.50 LIG 0.23  A 
ATOM     37 ND1  HIS X   1       3.676   3.113  14.347  1.00 47.89 LIG-0.24  NA
ENDBRANCH 32 33
ENDBRANCH 5 32
ENDBRANCH 1 5
BRANCH 3 38
ATOM     38  CA  HIS X   2       4.249   1.608  19.544  1.00 26.25 LIG 0.18  C 
BRANCH 38 39
ATOM     39  C   HIS X   2       3.857   2.952  20.150  1.00 23.72 LIG 0.24  C 
ATOM     40  N   HIS X   3       4.861   3.806  20.262  1.00 22.33 LIG-0.35  N 
ATOM     41 H    HIS X   3       5.670   3.625  20.033  1.00 22.33 LIG 0.16  HD
ATOM     42 O    HIS X   2       2.700   3.204  20.516  1.00 19.88 LIG-0.27  OA
BRANCH 40 43
ATOM     43  CA  HIS X   3       4.675   5.164  20.798  1.00 22.38 LIG 0.18  C 
BRANCH 43 44
ATOM     44  CB  HIS X   3       4.088   5.183  22.245  1.00 22.51 LIG 0.10  C 
BRANCH 44 45
ATOM     45  CG  HIS X   3       3.152   6.319  22.546  1.00 18.10 LIG 0.06  A 
ATOM     46  CD2 HIS X   3       2.074   6.799  21.877  1.00 18.75 LIG 0.14  A 
ATOM     47 NE2  HIS X   3       1.554   7.828  22.628  1.00 20.06 LIG-0.25  NA
ATOM     48  CE1 HIS X   3       2.277   7.964  23.724  1.00 21.69 LIG 0.23  A 
ATOM     49 ND1  HIS X   3       3.237   7.054  23.704  1.00 17.48 LIG-0.24  NA
ENDBRANCH 44 45
ENDBRANCH 43 44
BRANCH 43 50
ATOM     50  C   HIS X   3       5.955   5.989  20.673  1.00 21.59 LIG 0.24  C 
ATOM     51 O    HIS X   3       6.251   6.858  21.485  1.00 25.47 LIG-0.27  OA
ATOM     52  N   HIS X   4       6.679   5.738  19.602  1.00 25.63 LIG-0.35  N 
ATOM     53 H    HIS X   4       6.474   5.154  19.004  1.00 25.63 LIG 0.16  HD
BRANCH 52 54
ATOM     54  CA  HIS X   4       7.926   6.464  19.347  1.00 23.96 LIG 0.17  C 
BRANCH 54 55
ATOM     55  C   HIS X   4       7.657   7.522  18.271  1.00 31.35 LIG 0.22  C 
ATOM     56 O    HIS X   4       6.825   8.414  18.445  1.00 37.06 LIG-0.29  OA
ENDBRANCH 54 55
BRANCH 54 57
ATOM     57  CB  HIS X   4       9.061   5.521  18.929  1.00 23.83 LIG 0.09  C 
BRANCH 57 58
ATOM     58  CG  HIS X   4       8.957   4.140  19.520  1.00 22.57 LIG 0.06  A 
ATOM     59 ND1  HIS X   4       9.218   2.988  18.800  1.00 22.63 LIG-0.24  NA
ATOM     60  CE1 HIS X   4       9.050   1.935  19.582  1.00 19.94 LIG 0.23  A 
ATOM     61 NE2  HIS X   4       8.674   2.357  20.774  1.00 20.25 LIG-0.25  NA
ATOM     62  CD2 HIS X   4       8.622   3.731  20.765  1.00 21.52 LIG 0.14  A 
ENDBRANCH 57 58
ENDBRANCH 54 57
ENDBRANCH 52 54
ENDBRANCH 43 50
ENDBRANCH 40 43
ENDBRANCH 38 39
BRANCH 38 63
ATOM     63  CB  HIS X   2       5.743   1.621  19.199  1.00 28.74 LIG 0.10  C 
BRANCH 63 64
ATOM     64  CG  HIS X   2       6.050   2.253  17.882  1.00 28.63 LIG 0.06  A 
ATOM     65 ND1  HIS X   2       6.173   3.614  17.732  1.00 31.27 LIG-0.24  NA
ATOM     66  CE1 HIS X   2       6.462   3.893  16.474  1.00 28.11 LIG 0.23  A 
ATOM     67 NE2  HIS X   2       6.521   2.762  15.798  1.00 29.87 LIG-0.25  NA
ATOM     68  CD2 HIS X   2       6.275   1.717  16.659  1.00 31.84 LIG 0.14  A 
ENDBRANCH 63 64
ENDBRANCH 38 63
ENDBRANCH 3 38
TORSDOF 24
ENDMDL
MODEL 72
USER: ADFR SOLUTION from run 24
USER: SCORE 18.398823 LL:  -5.681 LR: -13.478 RR:   0.000 FEB:  -6.319
USER: RMSD 7.522452
USER: SEED 23
USER: STATUS no improvement in best in 16 clusters for 5 generations
USER: GENES 26
USER: genes 0 Translation |==|  0.48967 0.61234 0.49111
USER: genes 1 Rotation |==|  0.56369 0.70325 0.85339 0.78240
USER: genes 2 Torsion [N]-C--CA-[N] |==|  0.32116
USER: genes 3 Torsion [C]-CA--N-[C] |==|  0.69111
USER: genes 4 Torsion [N]-C--CA-[N] |==|  0.36226
USER: genes 5 Torsion [C]-CA--N-[C] |==|  0.78833
USER: genes 6 Torsion [N]-C--CA-[N] |==|  0.65269
USER: genes 7 Torsion [C]-CA--N-[H2] |==|  0.88259
USER: genes 8 Torsion [C]-CA--CB-[CG] |==|  0.61748
USER: genes 9 Torsion [CA]-CB--CG-[ND1] |==|  0.18273
USER: genes 10 Torsion [C]-CA--CB-[CG] |==|  0.59797
USER: genes 11 Torsion [CA]-CB--CG-[CD2] |==|  0.82174
USER: genes 12 Torsion [C]-CA--CB-[CG] |==|  0.44122
USER: genes 13 Torsion [CA]-CB--CG-[CD2] |==|  0.00782
USER: genes 14 Torsion [C]-N--CA-[C] |==|  0.15693
USER: genes 15 Torsion [N]-CA--C-[N] |==|  0.09830
USER: genes 16 Torsion [C]-N--CA-[CB] |==|  0.86217
USER: genes 17 Torsion [N]-CA--CB-[CG] |==|  0.55008
USER: genes 18 Torsion [CA]-CB--CG-[ND1] |==|  0.11012
USER: genes 19 Torsion [N]-CA--C-[N] |==|  0.31682
USER: genes 20 Torsion [C]-N--CA-[C] |==|  0.80067
USER: genes 21 Torsion [N]-CA--C-[O] |==|  0.65937
USER: genes 22 Torsion [N]-CA--CB-[CG] |==|  0.12118
USER: genes 23 Torsion [CA]-CB--CG-[ND1] |==|  0.82606
USER: genes 24 Torsion [N]-CA--CB-[CG] |==|  0.71282
USER: genes 25 Torsion [CA]-CB--CG-[CD2] |==|  0.03206
ROOT
ATOM      1  C   HIS X   1       2.421   2.714  19.410  1.00 40.87 LIG 0.24  C 
ATOM      2 O    HIS X   1       2.930   1.666  19.818  1.00 40.80 LIG-0.27  OA
ATOM      3  N   HIS X   2       2.289   3.037  18.139  1.00 30.16 LIG-0.35  N 
ATOM      4 H    HIS X   2       1.948   3.781  17.873  1.00 30.16 LIG 0.16  HD
ENDROOT
BRANCH 1 5
ATOM      5  CA  HIS X   1       1.869   3.768  20.347  1.00 48.06 LIG 0.18  C 
BRANCH 5 6
ATOM      6  N   HIS X   1       0.735   3.215  21.092  1.00 54.11 LIG-0.35  N 
ATOM      7 H    HIS X   1       0.953   2.608  21.660  1.00 54.11 LIG 0.16  HD
ATOM      8  C   HIS X   0      -0.504   3.620  20.901  1.00 58.54 LIG 0.24  C 
ATOM      9 O    HIS X   0      -0.862   4.311  19.945  1.00 63.37 LIG-0.27  OA
BRANCH 8 10
ATOM     10  CA  HIS X   0      -1.476   3.159  21.974  1.00 62.53 LIG 0.18  C 
BRANCH 10 11
ATOM     11  N   HIS X   0      -2.293   4.261  22.498  1.00 60.73 LIG-0.35  N 
ATOM     12  C   HIS X  -1      -1.788   5.141  23.347  1.00 60.09 LIG 0.25  C 
ATOM     13 O    HIS X  -1      -0.585   5.404  23.420  1.00 62.79 LIG-0.27  OA
ATOM     14 H    HIS X   0      -3.103   4.276  22.208  1.00 60.73 LIG 0.16  HD
BRANCH 12 15
ATOM     15  CA  HIS X  -1      -2.815   5.852  24.220  1.00 59.53 LIG 0.28  C 
BRANCH 15 16
ATOM     16  N   HIS X  -1      -2.669   7.340  24.072  1.00 57.14 LIG-0.07  N 
ATOM     17 H3   HIS X  -1      -3.040   7.600  23.306  1.00 57.14 LIG 0.28  HD
ATOM     18 H2   HIS X  -1      -1.805   7.555  24.070  1.00 57.14 LIG 0.28  HD
ATOM     19 H1   HIS X  -1      -3.075   7.747  24.751  1.00 57.14 LIG 0.28  HD
ENDBRANCH 15 16
BRANCH 15 20
ATOM     20  CB  HIS X  -1      -4.237   5.414  23.869  1.00 57.27 LIG 0.10  C 
BRANCH 20 21
ATOM     21  CG  HIS X  -1      -5.222   6.537  23.823  1.00 54.13 LIG 0.06  A 
ATOM     22 ND1  HIS X  -1      -5.156   7.545  22.885  1.00 52.72 LIG-0.24  NA
ATOM     23  CE1 HIS X  -1      -6.139   8.404  23.098  1.00 54.35 LIG 0.23  A 
ATOM     24 NE2  HIS X  -1      -6.838   7.991  24.141  1.00 53.65 LIG-0.25  NA
ATOM     25  CD2 HIS X  -1      -6.285   6.822  24.612  1.00 55.23 LIG 0.14  A 
ENDBRANCH 20 21
ENDBRANCH 15 20
ENDBRANCH 12 15
ENDBRANCH 10 11
BRANCH 10 26
ATOM     26  CB  HIS X   0      -2.351   2.007  21.434  1.00 64.99 LIG 0.10  C 
BRANCH 26 27
ATOM     27  CG  HIS X   0      -3.763   2.016  21.945  1.00 69.41 LIG 0.06  A 
ATOM     28 ND1  HIS X   0      -4.855   2.182  21.116  1.00 72.01 LIG-0.24  NA
ATOM     29  CE1 HIS X   0      -5.964   2.139  21.835  1.00 72.69 LIG 0.23  A 
ATOM     30 NE2  HIS X   0      -5.632   1.947  23.099  1.00 72.94 LIG-0.25  NA
ATOM     31  CD2 HIS X   0      -4.262   1.862  23.195  1.00 71.12 LIG 0.14  A 
ENDBRANCH 26 27
ENDBRANCH 10 26
ENDBRANCH 8 10
ENDBRANCH 5 6
BRANCH 5 32
ATOM     32  CB  HIS X   1       2.957   4.238  21.310  1.00 48.25 LIG 0.10  C 
BRANCH 32 33
ATOM     33  CG  HIS X   1       2.685   5.581  21.915  1.00 50.36 LIG 0.06  A 
ATOM     34  CD2 HIS X   1       1.623   6.414  21.789  1.00 51.47 LIG 0.14  A 
ATOM     35 NE2  HIS X   1       1.880   7.517  22.568  1.00 50.72 LIG-0.25  NA
ATOM     36  CE1 HIS X   1       3.057   7.364  23.151  1.00 48.50 LIG 0.23  A 
ATOM     37 ND1  HIS X   1       3.566   6.206  22.774  1.00 47.89 LIG-0.24  NA
ENDBRANCH 32 33
ENDBRANCH 5 32
ENDBRANCH 1 5
BRANCH 3 38
ATOM     38  CA  HIS X   2       2.716   2.148  17.035  1.00 26.25 LIG 0.18  C 
BRANCH 38 39
ATOM     39  C   HIS X   2       2.061   0.772  17.096  1.00 23.72 LIG 0.24  C 
ATOM     40  N   HIS X   3       0.814   0.788  17.537  1.00 22.33 LIG-0.35  N 
ATOM     41 H    HIS X   3       0.404   1.501  17.786  1.00 22.33 LIG 0.16  HD
ATOM     42 O    HIS X   2       2.660  -0.265  16.773  1.00 19.88 LIG-0.27  OA
BRANCH 40 43
ATOM     43  CA  HIS X   3       0.006  -0.439  17.640  1.00 22.38 LIG 0.18  C 
BRANCH 43 44
ATOM     44  CB  HIS X   3       0.022  -1.301  16.338  1.00 22.51 LIG 0.10  C 
BRANCH 44 45
ATOM     45  CG  HIS X   3      -1.084  -2.311  16.220  1.00 18.10 LIG 0.06  A 
ATOM     46  CD2 HIS X   3      -1.079  -3.607  15.818  1.00 18.75 LIG 0.14  A 
ATOM     47 NE2  HIS X   3      -2.366  -4.078  15.951  1.00 20.06 LIG-0.25  NA
ATOM     48  CE1 HIS X   3      -3.127  -3.113  16.431  1.00 21.69 LIG 0.23  A 
ATOM     49 ND1  HIS X   3      -2.372  -2.042  16.616  1.00 17.48 LIG-0.24  NA
ENDBRANCH 44 45
ENDBRANCH 43 44
BRANCH 43 50
ATOM     50  C   HIS X   3       0.380  -1.245  18.883  1.00 21.59 LIG 0.24  C 
ATOM     51 O    HIS X   3       1.461  -1.813  18.989  1.00 25.47 LIG-0.27  OA
ATOM     52  N   HIS X   4      -0.564  -1.333  19.796  1.00 25.63 LIG-0.35  N 
ATOM     53 H    HIS X   4      -1.340  -0.968  19.728  1.00 25.63 LIG 0.16  HD
BRANCH 52 54
ATOM     54  CA  HIS X   4      -0.349  -2.087  21.034  1.00 23.96 LIG 0.17  C 
BRANCH 54 55
ATOM     55  C   HIS X   4      -0.340  -3.581  20.695  1.00 31.35 LIG 0.22  C 
ATOM     56 O    HIS X   4      -1.126  -4.363  21.232  1.00 37.06 LIG-0.29  OA
ENDBRANCH 54 55
BRANCH 54 57
ATOM     57  CB  HIS X   4      -1.410  -1.762  22.093  1.00 23.83 LIG 0.09  C 
BRANCH 57 58
ATOM     58  CG  HIS X   4      -2.814  -1.698  21.552  1.00 22.57 LIG 0.06  A 
ATOM     59 ND1  HIS X   4      -3.217  -0.776  20.604  1.00 22.63 LIG-0.24  NA
ATOM     60  CE1 HIS X   4      -4.495  -0.967  20.322  1.00 19.94 LIG 0.23  A 
ATOM     61 NE2  HIS X   4      -4.940  -1.965  21.062  1.00 20.25 LIG-0.25  NA
ATOM     62  CD2 HIS X   4      -3.905  -2.448  21.828  1.00 21.52 LIG 0.14  A 
ENDBRANCH 57 58
ENDBRANCH 54 57
ENDBRANCH 52 54
ENDBRANCH 43 50
ENDBRANCH 40 43
ENDBRANCH 38 39
BRANCH 38 63
ATOM     63  CB  HIS X   2       4.241   1.986  17.023  1.00 28.74 LIG 0.10  C 
BRANCH 63 64
ATOM     64  CG  HIS X   2       4.922   2.783  15.961  1.00 28.63 LIG 0.06  A 
ATOM     65 ND1  HIS X   2       6.241   2.584  15.626  1.00 31.27 LIG-0.24  NA
ATOM     66  CE1 HIS X   2       6.574   3.409  14.651  1.00 28.11 LIG 0.23  A 
ATOM     67 NE2  HIS X   2       5.523   4.144  14.347  1.00 29.87 LIG-0.25  NA
ATOM     68  CD2 HIS X   2       4.470   3.766  15.148  1.00 31.84 LIG 0.14  A 
ENDBRANCH 63 64
ENDBRANCH 38 63
ENDBRANCH 3 38
TORSDOF 24
ENDMDL
MODEL 73
USER: ADFR SOLUTION from run 187
USER: SCORE 17.173457 LL:  -5.137 LR: -13.472 RR:   0.000 FEB:  -6.313
USER: RMSD 6.620680
USER: SEED 186
USER: STATUS no improvement in best in 24 clusters for 5 generations
USER: GENES 26
USER: genes 0 Translation |==|  0.44956 0.52047 0.39614
USER: genes 1 Rotation |==|  0.32466 0.63948 0.64959 0.92122
USER: genes 2 Torsion [N]-C--CA-[N] |==|  0.60857
USER: genes 3 Torsion [C]-CA--N-[C] |==|  0.12714
USER: genes 4 Torsion [N]-C--CA-[N] |==|  0.20659
USER: genes 5 Torsion [C]-CA--N-[C] |==|  0.62903
USER: genes 6 Torsion [N]-C--CA-[N] |==|  0.46729
USER: genes 7 Torsion [C]-CA--N-[H2] |==|  0.26933
USER: genes 8 Torsion [C]-CA--CB-[CG] |==|  0.60196
USER: genes 9 Torsion [CA]-CB--CG-[ND1] |==|  0.35783
USER: genes 10 Torsion [C]-CA--CB-[CG] |==|  0.38706
USER: genes 11 Torsion [CA]-CB--CG-[CD2] |==|  0.59195
USER: genes 12 Torsion [C]-CA--CB-[CG] |==|  0.48958
USER: genes 13 Torsion [CA]-CB--CG-[CD2] |==|  0.52206
USER: genes 14 Torsion [C]-N--CA-[C] |==|  0.15885
USER: genes 15 Torsion [N]-CA--C-[N] |==|  0.08333
USER: genes 16 Torsion [C]-N--CA-[CB] |==|  0.85910
USER: genes 17 Torsion [N]-CA--CB-[CG] |==|  0.86619
USER: genes 18 Torsion [CA]-CB--CG-[ND1] |==|  0.69171
USER: genes 19 Torsion [N]-CA--C-[N] |==|  0.88132
USER: genes 20 Torsion [C]-N--CA-[C] |==|  0.53694
USER: genes 21 Torsion [N]-CA--C-[O] |==|  0.03487
USER: genes 22 Torsion [N]-CA--CB-[CG] |==|  0.53106
USER: genes 23 Torsion [CA]-CB--CG-[ND1] |==|  0.04520
USER: genes 24 Torsion [N]-CA--CB-[CG] |==|  0.57507
USER: genes 25 Torsion [CA]-CB--CG-[CD2] |==|  0.49643
ROOT
ATOM      1  C   HIS X   1       1.609   0.509  17.701  1.00 40.87 LIG 0.24  C 
ATOM      2 O    HIS X   1       0.846   0.217  18.626  1.00 40.80 LIG-0.27  OA
ATOM      3  N   HIS X   2       2.453  -0.328  17.132  1.00 30.16 LIG-0.35  N 
ATOM      4 H    HIS X   2       2.990  -0.102  16.500  1.00 30.16 LIG 0.16  HD
ENDROOT
BRANCH 1 5
ATOM      5  CA  HIS X   1       1.654   1.895  17.092  1.00 48.06 LIG 0.18  C 
BRANCH 5 6
ATOM      6  N   HIS X   1       1.523   2.899  18.152  1.00 54.11 LIG-0.35  N 
ATOM      7 H    HIS X   1       0.967   3.529  17.969  1.00 54.11 LIG 0.16  HD
ATOM      8  C   HIS X   0       2.202   2.833  19.279  1.00 58.54 LIG 0.24  C 
ATOM      9 O    HIS X   0       3.160   2.080  19.461  1.00 63.37 LIG-0.27  OA
BRANCH 8 10
ATOM     10  CA  HIS X   0       1.699   3.778  20.358  1.00 62.53 LIG 0.18  C 
BRANCH 10 11
ATOM     11  N   HIS X   0       0.443   3.318  20.962  1.00 60.73 LIG-0.35  N 
ATOM     12  C   HIS X  -1      -0.570   4.149  21.146  1.00 60.09 LIG 0.25  C 
ATOM     13 O    HIS X  -1      -0.745   5.168  20.474  1.00 62.79 LIG-0.27  OA
ATOM     14 H    HIS X   0       0.432   2.485  21.177  1.00 60.73 LIG 0.16  HD
BRANCH 12 15
ATOM     15  CA  HIS X  -1      -1.548   3.736  22.239  1.00 59.53 LIG 0.28  C 
BRANCH 15 16
ATOM     16  N   HIS X  -1      -2.477   4.875  22.551  1.00 57.14 LIG-0.07  N 
ATOM     17 H3   HIS X  -1      -2.646   4.888  23.425  1.00 57.14 LIG 0.28  HD
ATOM     18 H2   HIS X  -1      -3.238   4.768  22.103  1.00 57.14 LIG 0.28  HD
ATOM     19 H1   HIS X  -1      -2.096   5.643  22.311  1.00 57.14 LIG 0.28  HD
ENDBRANCH 15 16
BRANCH 15 20
ATOM     20  CB  HIS X  -1      -2.340   2.493  21.832  1.00 57.27 LIG 0.10  C 
BRANCH 20 21
ATOM     21  CG  HIS X  -1      -3.761   2.503  22.293  1.00 54.13 LIG 0.06  A 
ATOM     22 ND1  HIS X  -1      -4.821   2.268  21.443  1.00 52.72 LIG-0.24  NA
ATOM     23  CE1 HIS X  -1      -5.953   2.360  22.120  1.00 54.35 LIG 0.23  A 
ATOM     24 NE2  HIS X  -1      -5.666   2.647  23.378  1.00 53.65 LIG-0.25  NA
ATOM     25  CD2 HIS X  -1      -4.300   2.741  23.513  1.00 55.23 LIG 0.14  A 
ENDBRANCH 20 21
ENDBRANCH 15 20
ENDBRANCH 12 15
ENDBRANCH 10 11
BRANCH 10 26
ATOM     26  CB  HIS X   0       2.797   3.996  21.422  1.00 64.99 LIG 0.10  C 
BRANCH 26 27
ATOM     27  CG  HIS X   0       2.911   5.412  21.906  1.00 69.41 LIG 0.06  A 
ATOM     28 ND1  HIS X   0       1.820   6.248  22.032  1.00 72.01 LIG-0.24  NA
ATOM     29  CE1 HIS X   0       2.217   7.425  22.485  1.00 72.69 LIG 0.23  A 
ATOM     30 NE2  HIS X   0       3.525   7.383  22.663  1.00 72.94 LIG-0.25  NA
ATOM     31  CD2 HIS X   0       3.984   6.134  22.313  1.00 71.12 LIG 0.14  A 
ENDBRANCH 26 27
ENDBRANCH 10 26
ENDBRANCH 8 10
ENDBRANCH 5 6
BRANCH 5 32
ATOM     32  CB  HIS X   1       2.963   2.094  16.333  1.00 48.25 LIG 0.10  C 
BRANCH 32 33
ATOM     33  CG  HIS X   1       3.053   3.410  15.623  1.00 50.36 LIG 0.06  A 
ATOM     34  CD2 HIS X   1       3.971   3.887  14.747  1.00 51.47 LIG 0.14  A 
ATOM     35 NE2  HIS X   1       3.571   5.153  14.391  1.00 50.72 LIG-0.25  NA
ATOM     36  CE1 HIS X   1       2.448   5.441  15.027  1.00 48.50 LIG 0.23  A 
ATOM     37 ND1  HIS X   1       2.113   4.409  15.778  1.00 47.89 LIG-0.24  NA
ENDBRANCH 32 33
ENDBRANCH 5 32
ENDBRANCH 1 5
BRANCH 3 38
ATOM     38  CA  HIS X   2       2.562  -1.751  17.528  1.00 26.25 LIG 0.18  C 
BRANCH 38 39
ATOM     39  C   HIS X   2       1.240  -2.502  17.408  1.00 23.72 LIG 0.24  C 
ATOM     40  N   HIS X   3       0.443  -2.042  16.458  1.00 22.33 LIG-0.35  N 
ATOM     41 H    HIS X   3       0.634  -1.369  15.958  1.00 22.33 LIG 0.16  HD
ATOM     42 O    HIS X   2       0.943  -3.449  18.151  1.00 19.88 LIG-0.27  OA
BRANCH 40 43
ATOM     43  CA  HIS X   3      -0.865  -2.653  16.172  1.00 22.38 LIG 0.18  C 
BRANCH 43 44
ATOM     44  CB  HIS X   3      -0.794  -4.201  15.976  1.00 22.51 LIG 0.10  C 
BRANCH 44 45
ATOM     45  CG  HIS X   3       0.283  -4.686  15.048  1.00 18.10 LIG 0.06  A 
ATOM     46  CD2 HIS X   3       1.629  -4.762  15.195  1.00 18.75 LIG 0.14  A 
ATOM     47 NE2  HIS X   3       2.132  -5.331  14.047  1.00 20.06 LIG-0.25  NA
ATOM     48  CE1 HIS X   3       1.130  -5.607  13.234  1.00 21.69 LIG 0.23  A 
ATOM     49 ND1  HIS X   3       0.004  -5.241  13.823  1.00 17.48 LIG-0.24  NA
ENDBRANCH 44 45
ENDBRANCH 43 44
BRANCH 43 50
ATOM     50  C   HIS X   3      -1.909  -2.240  17.208  1.00 21.59 LIG 0.24  C 
ATOM     51 O    HIS X   3      -3.035  -1.877  16.888  1.00 25.47 LIG-0.27  OA
ATOM     52  N   HIS X   4      -1.490  -2.244  18.456  1.00 25.63 LIG-0.35  N 
ATOM     53 H    HIS X   4      -0.695  -2.465  18.699  1.00 25.63 LIG 0.16  HD
BRANCH 52 54
ATOM     54  CA  HIS X   4      -2.381  -1.857  19.553  1.00 23.96 LIG 0.17  C 
BRANCH 54 55
ATOM     55  C   HIS X   4      -1.533  -1.641  20.810  1.00 31.35 LIG 0.22  C 
ATOM     56 O    HIS X   4      -0.304  -1.569  20.748  1.00 37.06 LIG-0.29  OA
ENDBRANCH 54 55
BRANCH 54 57
ATOM     57  CB  HIS X   4      -3.478  -2.902  19.793  1.00 23.83 LIG 0.09  C 
BRANCH 57 58
ATOM     58  CG  HIS X   4      -4.571  -2.439  20.720  1.00 22.57 LIG 0.06  A 
ATOM     59 ND1  HIS X   4      -4.774  -1.110  21.044  1.00 22.63 LIG-0.24  NA
ATOM     60  CE1 HIS X   4      -5.805  -1.013  21.868  1.00 19.94 LIG 0.23  A 
ATOM     61 NE2  HIS X   4      -6.266  -2.227  22.103  1.00 20.25 LIG-0.25  NA
ATOM     62  CD2 HIS X   4      -5.521  -3.134  21.387  1.00 21.52 LIG 0.14  A 
ENDBRANCH 57 58
ENDBRANCH 54 57
ENDBRANCH 52 54
ENDBRANCH 43 50
ENDBRANCH 40 43
ENDBRANCH 38 39
BRANCH 38 63
ATOM     63  CB  HIS X   2       3.094  -1.881  18.960  1.00 28.74 LIG 0.10  C 
BRANCH 63 64
ATOM     64  CG  HIS X   2       3.818  -3.159  19.219  1.00 28.63 LIG 0.06  A 
ATOM     65 ND1  HIS X   2       3.978  -4.122  18.251  1.00 31.27 LIG-0.24  NA
ATOM     66  CE1 HIS X   2       4.668  -5.133  18.747  1.00 28.11 LIG 0.23  A 
ATOM     67 NE2  HIS X   2       4.955  -4.866  20.006  1.00 29.87 LIG-0.25  NA
ATOM     68  CD2 HIS X   2       4.441  -3.630  20.326  1.00 31.84 LIG 0.14  A 
ENDBRANCH 63 64
ENDBRANCH 38 63
ENDBRANCH 3 38
TORSDOF 24
ENDMDL
MODEL 74
USER: ADFR SOLUTION from run 183
USER: SCORE 18.234182 LL:  -5.527 LR: -13.474 RR:   0.000 FEB:  -6.314
USER: RMSD 6.559898
USER: SEED 182
USER: STATUS no improvement in best in 14 clusters for 5 generations
USER: GENES 26
USER: genes 0 Translation |==|  0.45189 0.52452 0.41891
USER: genes 1 Rotation |==|  0.29839 0.04261 0.48800 0.50257
USER: genes 2 Torsion [N]-C--CA-[N] |==|  0.13110
USER: genes 3 Torsion [C]-CA--N-[C] |==|  0.14529
USER: genes 4 Torsion [N]-C--CA-[N] |==|  0.20213
USER: genes 5 Torsion [C]-CA--N-[C] |==|  0.63624
USER: genes 6 Torsion [N]-C--CA-[N] |==|  0.45386
USER: genes 7 Torsion [C]-CA--N-[H2] |==|  0.63218
USER: genes 8 Torsion [C]-CA--CB-[CG] |==|  0.59351
USER: genes 9 Torsion [CA]-CB--CG-[ND1] |==|  0.33812
USER: genes 10 Torsion [C]-CA--CB-[CG] |==|  0.39576
USER: genes 11 Torsion [CA]-CB--CG-[CD2] |==|  0.58289
USER: genes 12 Torsion [C]-CA--CB-[CG] |==|  0.45413
USER: genes 13 Torsion [CA]-CB--CG-[CD2] |==|  0.53894
USER: genes 14 Torsion [C]-N--CA-[C] |==|  0.83330
USER: genes 15 Torsion [N]-CA--C-[N] |==|  0.93402
USER: genes 16 Torsion [C]-N--CA-[CB] |==|  0.86599
USER: genes 17 Torsion [N]-CA--CB-[CG] |==|  0.55992
USER: genes 18 Torsion [CA]-CB--CG-[ND1] |==|  0.50767
USER: genes 19 Torsion [N]-CA--C-[N] |==|  0.87443
USER: genes 20 Torsion [C]-N--CA-[C] |==|  0.59274
USER: genes 21 Torsion [N]-CA--C-[O] |==|  0.66464
USER: genes 22 Torsion [N]-CA--CB-[CG] |==|  0.78529
USER: genes 23 Torsion [CA]-CB--CG-[ND1] |==|  0.74409
USER: genes 24 Torsion [N]-CA--CB-[CG] |==|  0.74514
USER: genes 25 Torsion [CA]-CB--CG-[CD2] |==|  0.57312
ROOT
ATOM      1  C   HIS X   1       1.656   0.607  18.110  1.00 40.87 LIG 0.24  C 
ATOM      2 O    HIS X   1       2.465  -0.310  17.940  1.00 40.80 LIG-0.27  OA
ATOM      3  N   HIS X   2       0.569   0.519  18.851  1.00 30.16 LIG-0.35  N 
ATOM      4 H    HIS X   2       0.007   1.163  18.944  1.00 30.16 LIG 0.16  HD
ENDROOT
BRANCH 1 5
ATOM      5  CA  HIS X   1       1.830   1.972  17.479  1.00 48.06 LIG 0.18  C 
BRANCH 5 6
ATOM      6  N   HIS X   1       1.618   3.010  18.491  1.00 54.11 LIG-0.35  N 
ATOM      7 H    HIS X   1       1.045   3.609  18.263  1.00 54.11 LIG 0.16  HD
ATOM      8  C   HIS X   0       2.254   3.016  19.645  1.00 58.54 LIG 0.24  C 
ATOM      9 O    HIS X   0       3.234   2.310  19.893  1.00 63.37 LIG-0.27  OA
BRANCH 8 10
ATOM     10  CA  HIS X   0       1.673   3.980  20.665  1.00 62.53 LIG 0.18  C 
BRANCH 10 11
ATOM     11  N   HIS X   0       0.394   3.511  21.212  1.00 60.73 LIG-0.35  N 
ATOM     12  C   HIS X  -1      -0.659   4.310  21.267  1.00 60.09 LIG 0.25  C 
ATOM     13 O    HIS X  -1      -0.822   5.273  20.515  1.00 62.79 LIG-0.27  OA
ATOM     14 H    HIS X   0       0.398   2.695  21.483  1.00 60.73 LIG 0.16  HD
BRANCH 12 15
ATOM     15  CA  HIS X  -1      -1.697   3.932  22.316  1.00 59.53 LIG 0.28  C 
BRANCH 15 16
ATOM     16  N   HIS X  -1      -2.615   5.093  22.569  1.00 57.14 LIG-0.07  N 
ATOM     17 H3   HIS X  -1      -2.273   5.827  22.199  1.00 57.14 LIG 0.28  HD
ATOM     18 H2   HIS X  -1      -2.703   5.217  23.446  1.00 57.14 LIG 0.28  HD
ATOM     19 H1   HIS X  -1      -3.413   4.925  22.211  1.00 57.14 LIG 0.28  HD
ENDBRANCH 15 16
BRANCH 15 20
ATOM     20  CB  HIS X  -1      -2.494   2.699  21.887  1.00 57.27 LIG 0.10  C 
BRANCH 20 21
ATOM     21  CG  HIS X  -1      -3.918   2.712  22.340  1.00 54.13 LIG 0.06  A 
ATOM     22 ND1  HIS X  -1      -4.978   2.638  21.463  1.00 52.72 LIG-0.24  NA
ATOM     23  CE1 HIS X  -1      -6.112   2.690  22.142  1.00 54.35 LIG 0.23  A 
ATOM     24 NE2  HIS X  -1      -5.825   2.796  23.429  1.00 53.65 LIG-0.25  NA
ATOM     25  CD2 HIS X  -1      -4.457   2.810  23.579  1.00 55.23 LIG 0.14  A 
ENDBRANCH 20 21
ENDBRANCH 15 20
ENDBRANCH 12 15
ENDBRANCH 10 11
BRANCH 10 26
ATOM     26  CB  HIS X   0       2.705   4.252  21.781  1.00 64.99 LIG 0.10  C 
BRANCH 26 27
ATOM     27  CG  HIS X   0       2.712   5.669  22.280  1.00 69.41 LIG 0.06  A 
ATOM     28 ND1  HIS X   0       1.579   6.459  22.298  1.00 72.01 LIG-0.24  NA
ATOM     29  CE1 HIS X   0       1.880   7.647  22.793  1.00 72.69 LIG 0.23  A 
ATOM     30 NE2  HIS X   0       3.165   7.656  23.102  1.00 72.94 LIG-0.25  NA
ATOM     31  CD2 HIS X   0       3.707   6.430  22.795  1.00 71.12 LIG 0.14  A 
ENDBRANCH 26 27
ENDBRANCH 10 26
ENDBRANCH 8 10
ENDBRANCH 5 6
BRANCH 5 32
ATOM     32  CB  HIS X   1       3.227   2.098  16.874  1.00 48.25 LIG 0.10  C 
BRANCH 32 33
ATOM     33  CG  HIS X   1       3.362   3.231  15.905  1.00 50.36 LIG 0.06  A 
ATOM     34  CD2 HIS X   1       4.328   3.514  14.997  1.00 51.47 LIG 0.14  A 
ATOM     35 NE2  HIS X   1       3.955   4.672  14.357  1.00 50.72 LIG-0.25  NA
ATOM     36  CE1 HIS X   1       2.802   5.084  14.855  1.00 48.50 LIG 0.23  A 
ATOM     37 ND1  HIS X   1       2.421   4.235  15.792  1.00 47.89 LIG-0.24  NA
ENDBRANCH 32 33
ENDBRANCH 5 32
ENDBRANCH 1 5
BRANCH 3 38
ATOM     38  CA  HIS X   2       0.205  -0.704  19.603  1.00 26.25 LIG 0.18  C 
BRANCH 38 39
ATOM     39  C   HIS X   2       0.015  -1.919  18.700  1.00 23.72 LIG 0.24  C 
ATOM     40  N   HIS X   3      -0.288  -1.619  17.448  1.00 22.33 LIG-0.35  N 
ATOM     41 H    HIS X   3      -0.388  -0.814  17.160  1.00 22.33 LIG 0.16  HD
ATOM     42 O    HIS X   2       0.121  -3.081  19.118  1.00 19.88 LIG-0.27  OA
BRANCH 40 43
ATOM     43  CA  HIS X   3      -0.482  -2.655  16.421  1.00 22.38 LIG 0.18  C 
BRANCH 43 44
ATOM     44  CB  HIS X   3       0.655  -3.724  16.397  1.00 22.51 LIG 0.10  C 
BRANCH 44 45
ATOM     45  CG  HIS X   3       0.801  -4.483  15.109  1.00 18.10 LIG 0.06  A 
ATOM     46  CD2 HIS X   3       0.197  -4.334  13.904  1.00 18.75 LIG 0.14  A 
ATOM     47 NE2  HIS X   3       0.739  -5.274  13.058  1.00 20.06 LIG-0.25  NA
ATOM     48  CE1 HIS X   3       1.653  -5.964  13.715  1.00 21.69 LIG 0.23  A 
ATOM     49 ND1  HIS X   3       1.718  -5.494  14.950  1.00 17.48 LIG-0.24  NA
ENDBRANCH 44 45
ENDBRANCH 43 44
BRANCH 43 50
ATOM     50  C   HIS X   3      -1.873  -3.280  16.521  1.00 21.59 LIG 0.24  C 
ATOM     51 O    HIS X   3      -2.594  -3.424  15.541  1.00 25.47 LIG-0.27  OA
ATOM     52  N   HIS X   4      -2.259  -3.592  17.741  1.00 25.63 LIG-0.35  N 
ATOM     53 H    HIS X   4      -1.781  -3.470  18.446  1.00 25.63 LIG 0.16  HD
BRANCH 52 54
ATOM     54  CA  HIS X   4      -3.575  -4.187  17.988  1.00 23.96 LIG 0.17  C 
BRANCH 54 55
ATOM     55  C   HIS X   4      -4.082  -3.691  19.346  1.00 31.35 LIG 0.22  C 
ATOM     56 O    HIS X   4      -4.348  -4.479  20.256  1.00 37.06 LIG-0.29  OA
ENDBRANCH 54 55
BRANCH 54 57
ATOM     57  CB  HIS X   4      -3.527  -5.719  17.937  1.00 23.83 LIG 0.09  C 
BRANCH 57 58
ATOM     58  CG  HIS X   4      -3.475  -6.283  16.541  1.00 22.57 LIG 0.06  A 
ATOM     59 ND1  HIS X   4      -4.604  -6.641  15.828  1.00 22.63 LIG-0.24  NA
ATOM     60  CE1 HIS X   4      -4.245  -7.096  14.639  1.00 19.94 LIG 0.23  A 
ATOM     61 NE2  HIS X   4      -2.928  -7.064  14.561  1.00 20.25 LIG-0.25  NA
ATOM     62  CD2 HIS X   4      -2.424  -6.547  15.731  1.00 21.52 LIG 0.14  A 
ENDBRANCH 57 58
ENDBRANCH 54 57
ENDBRANCH 52 54
ENDBRANCH 43 50
ENDBRANCH 40 43
ENDBRANCH 38 39
BRANCH 38 63
ATOM     63  CB  HIS X   2      -1.066  -0.480  20.429  1.00 28.74 LIG 0.10  C 
BRANCH 63 64
ATOM     64  CG  HIS X   2      -0.803  -0.009  21.821  1.00 28.63 LIG 0.06  A 
ATOM     65 ND1  HIS X   2       0.323   0.706  22.154  1.00 31.27 LIG-0.24  NA
ATOM     66  CE1 HIS X   2       0.289   1.004  23.440  1.00 28.11 LIG 0.23  A 
ATOM     67 NE2  HIS X   2      -0.814   0.501  23.957  1.00 29.87 LIG-0.25  NA
ATOM     68  CD2 HIS X   2      -1.522  -0.133  22.962  1.00 31.84 LIG 0.14  A 
ENDBRANCH 63 64
ENDBRANCH 38 63
ENDBRANCH 3 38
TORSDOF 24
ENDMDL
MODEL 75
USER: ADFR SOLUTION from run 13
USER: SCORE 18.176819 LL:  -5.705 LR: -13.463 RR:   0.000 FEB:  -6.303
USER: RMSD 10.364745
USER: SEED 970653
USER: STATUS searching
USER: GENES 26
USER: genes 0 Translation |==|  0.56365 0.58010 0.38725
USER: genes 1 Rotation |==|  0.57152 0.34613 0.90242 0.74345
USER: genes 2 Torsion [N]-C--CA-[N] |==|  0.96365
USER: genes 3 Torsion [C]-CA--N-[C] |==|  0.74357
USER: genes 4 Torsion [N]-C--CA-[N] |==|  0.27685
USER: genes 5 Torsion [C]-CA--N-[C] |==|  0.62783
USER: genes 6 Torsion [N]-C--CA-[N] |==|  0.49128
USER: genes 7 Torsion [C]-CA--N-[H2] |==|  0.24823
USER: genes 8 Torsion [C]-CA--CB-[CG] |==|  0.75992
USER: genes 9 Torsion [CA]-CB--CG-[ND1] |==|  0.81980
USER: genes 10 Torsion [C]-CA--CB-[CG] |==|  0.46323
USER: genes 11 Torsion [CA]-CB--CG-[CD2] |==|  0.84980
USER: genes 12 Torsion [C]-CA--CB-[CG] |==|  0.30167
USER: genes 13 Torsion [CA]-CB--CG-[CD2] |==|  0.04608
USER: genes 14 Torsion [C]-N--CA-[C] |==|  0.56111
USER: genes 15 Torsion [N]-CA--C-[N] |==|  0.30050
USER: genes 16 Torsion [C]-N--CA-[CB] |==|  0.85656
USER: genes 17 Torsion [N]-CA--CB-[CG] |==|  0.63414
USER: genes 18 Torsion [CA]-CB--CG-[ND1] |==|  0.18741
USER: genes 19 Torsion [N]-CA--C-[N] |==|  0.35581
USER: genes 20 Torsion [C]-N--CA-[C] |==|  0.53513
USER: genes 21 Torsion [N]-CA--C-[O] |==|  0.05303
USER: genes 22 Torsion [N]-CA--CB-[CG] |==|  0.07104
USER: genes 23 Torsion [CA]-CB--CG-[ND1] |==|  0.11986
USER: genes 24 Torsion [N]-CA--CB-[CG] |==|  0.06121
USER: genes 25 Torsion [CA]-CB--CG-[CD2] |==|  0.70658
ROOT
ATOM      1  C   HIS X   1       3.919   1.940  17.541  1.00 40.87 LIG 0.24  C 
ATOM      2 O    HIS X   1       4.528   1.011  17.003  1.00 40.80 LIG-0.27  OA
ATOM      3  N   HIS X   2       4.362   3.180  17.621  1.00 30.16 LIG-0.35  N 
ATOM      4 H    HIS X   2       3.931   3.811  18.016  1.00 30.16 LIG 0.16  HD
ENDROOT
BRANCH 1 5
ATOM      5  CA  HIS X   1       2.556   1.759  18.175  1.00 48.06 LIG 0.18  C 
BRANCH 5 6
ATOM      6  N   HIS X   1       2.231   2.939  18.982  1.00 54.11 LIG-0.35  N 
ATOM      7 H    HIS X   1       1.845   3.568  18.540  1.00 54.11 LIG 0.16  HD
ATOM      8  C   HIS X   0       2.509   3.018  20.267  1.00 58.54 LIG 0.24  C 
ATOM      9 O    HIS X   0       3.258   2.237  20.857  1.00 63.37 LIG-0.27  OA
BRANCH 8 10
ATOM     10  CA  HIS X   0       1.820   4.171  20.978  1.00 62.53 LIG 0.18  C 
BRANCH 10 11
ATOM     11  N   HIS X   0       0.623   3.740  21.709  1.00 60.73 LIG-0.35  N 
ATOM     12  C   HIS X  -1      -0.510   4.418  21.622  1.00 60.09 LIG 0.25  C 
ATOM     13 O    HIS X  -1      -0.807   5.127  20.658  1.00 62.79 LIG-0.27  OA
ATOM     14 H    HIS X   0       0.727   3.030  22.182  1.00 60.73 LIG 0.16  HD
BRANCH 12 15
ATOM     15  CA  HIS X  -1      -1.461   4.232  22.799  1.00 59.53 LIG 0.28  C 
BRANCH 15 16
ATOM     16  N   HIS X  -1      -2.670   5.106  22.623  1.00 57.14 LIG-0.07  N 
ATOM     17 H3   HIS X  -1      -2.991   5.332  23.422  1.00 57.14 LIG 0.28  HD
ATOM     18 H2   HIS X  -1      -3.293   4.662  22.168  1.00 57.14 LIG 0.28  HD
ATOM     19 H1   HIS X  -1      -2.442   5.841  22.175  1.00 57.14 LIG 0.28  HD
ENDBRANCH 15 16
BRANCH 15 20
ATOM     20  CB  HIS X  -1      -1.873   2.767  22.950  1.00 57.27 LIG 0.10  C 
BRANCH 20 21
ATOM     21  CG  HIS X  -1      -3.053   2.383  22.116  1.00 54.13 LIG 0.06  A 
ATOM     22 ND1  HIS X  -1      -4.309   2.914  22.316  1.00 52.72 LIG-0.24  NA
ATOM     23  CE1 HIS X  -1      -5.152   2.378  21.449  1.00 54.35 LIG 0.23  A 
ATOM     24 NE2  HIS X  -1      -4.489   1.518  20.695  1.00 53.65 LIG-0.25  NA
ATOM     25  CD2 HIS X  -1      -3.171   1.504  21.092  1.00 55.23 LIG 0.14  A 
ENDBRANCH 20 21
ENDBRANCH 15 20
ENDBRANCH 12 15
ENDBRANCH 10 11
BRANCH 10 26
ATOM     26  CB  HIS X   0       2.823   4.896  21.901  1.00 64.99 LIG 0.10  C 
BRANCH 26 27
ATOM     27  CG  HIS X   0       2.342   6.225  22.408  1.00 69.41 LIG 0.06  A 
ATOM     28 ND1  HIS X   0       2.322   6.550  23.749  1.00 72.01 LIG-0.24  NA
ATOM     29  CE1 HIS X   0       1.860   7.780  23.898  1.00 72.69 LIG 0.23  A 
ATOM     30 NE2  HIS X   0       1.584   8.268  22.701  1.00 72.94 LIG-0.25  NA
ATOM     31  CD2 HIS X   0       1.880   7.317  21.751  1.00 71.12 LIG 0.14  A 
ENDBRANCH 26 27
ENDBRANCH 10 26
ENDBRANCH 8 10
ENDBRANCH 5 6
BRANCH 5 32
ATOM     32  CB  HIS X   1       1.497   1.547  17.096  1.00 48.25 LIG 0.10  C 
BRANCH 32 33
ATOM     33  CG  HIS X   1       0.969   0.147  17.038  1.00 50.36 LIG 0.06  A 
ATOM     34  CD2 HIS X   1       1.039  -0.867  17.935  1.00 51.47 LIG 0.14  A 
ATOM     35 NE2  HIS X   1       0.380  -1.940  17.385  1.00 50.72 LIG-0.25  NA
ATOM     36  CE1 HIS X   1      -0.078  -1.596  16.193  1.00 48.50 LIG 0.23  A 
ATOM     37 ND1  HIS X   1       0.265  -0.343  15.958  1.00 47.89 LIG-0.24  NA
ENDBRANCH 32 33
ENDBRANCH 5 32
ENDBRANCH 1 5
BRANCH 3 38
ATOM     38  CA  HIS X   2       5.652   3.611  17.037  1.00 26.25 LIG 0.18  C 
BRANCH 38 39
ATOM     39  C   HIS X   2       6.200   4.880  17.683  1.00 23.72 LIG 0.24  C 
ATOM     40  N   HIS X   3       7.255   4.680  18.455  1.00 22.33 LIG-0.35  N 
ATOM     41 H    HIS X   3       7.600   3.906  18.602  1.00 22.33 LIG 0.16  HD
ATOM     42 O    HIS X   2       5.683   5.993  17.505  1.00 19.88 LIG-0.27  OA
BRANCH 40 43
ATOM     43  CA  HIS X   3       7.941   5.786  19.142  1.00 22.38 LIG 0.18  C 
BRANCH 43 44
ATOM     44  CB  HIS X   3       8.327   6.961  18.190  1.00 22.51 LIG 0.10  C 
BRANCH 44 45
ATOM     45  CG  HIS X   3       9.742   7.452  18.311  1.00 18.10 LIG 0.06  A 
ATOM     46  CD2 HIS X   3      10.256   8.598  18.822  1.00 18.75 LIG 0.14  A 
ATOM     47 NE2  HIS X   3      11.626   8.510  18.722  1.00 20.06 LIG-0.25  NA
ATOM     48  CE1 HIS X   3      11.940   7.347  18.183  1.00 21.69 LIG 0.23  A 
ATOM     49 ND1  HIS X   3      10.821   6.685  17.942  1.00 17.48 LIG-0.24  NA
ENDBRANCH 44 45
ENDBRANCH 43 44
BRANCH 43 50
ATOM     50  C   HIS X   3       7.150   6.255  20.363  1.00 21.59 LIG 0.24  C 
ATOM     51 O    HIS X   3       5.978   6.604  20.284  1.00 25.47 LIG-0.27  OA
ATOM     52  N   HIS X   4       7.837   6.314  21.485  1.00 25.63 LIG-0.35  N 
ATOM     53 H    HIS X   4       8.668   6.103  21.555  1.00 25.63 LIG 0.16  HD
BRANCH 52 54
ATOM     54  CA  HIS X   4       7.210   6.759  22.732  1.00 23.96 LIG 0.17  C 
BRANCH 54 55
ATOM     55  C   HIS X   4       8.314   7.021  23.761  1.00 31.35 LIG 0.22  C 
ATOM     56 O    HIS X   4       9.483   7.195  23.414  1.00 37.06 LIG-0.29  OA
ENDBRANCH 54 55
BRANCH 54 57
ATOM     57  CB  HIS X   4       6.192   5.737  23.255  1.00 23.83 LIG 0.09  C 
BRANCH 57 58
ATOM     58  CG  HIS X   4       6.457   4.325  22.807  1.00 22.57 LIG 0.06  A 
ATOM     59 ND1  HIS X   4       7.719   3.760  22.796  1.00 22.63 LIG-0.24  NA
ATOM     60  CE1 HIS X   4       7.638   2.514  22.361  1.00 19.94 LIG 0.23  A 
ATOM     61 NE2  HIS X   4       6.376   2.254  22.073  1.00 20.25 LIG-0.25  NA
ATOM     62  CD2 HIS X   4       5.617   3.365  22.356  1.00 21.52 LIG 0.14  A 
ENDBRANCH 57 58
ENDBRANCH 54 57
ENDBRANCH 52 54
ENDBRANCH 43 50
ENDBRANCH 40 43
ENDBRANCH 38 39
BRANCH 38 63
ATOM     63  CB  HIS X   2       5.523   3.825  15.524  1.00 28.74 LIG 0.10  C 
BRANCH 63 64
ATOM     64  CG  HIS X   2       4.123   4.071  15.070  1.00 28.63 LIG 0.06  A 
ATOM     65 ND1  HIS X   2       3.487   5.273  15.268  1.00 31.27 LIG-0.24  NA
ATOM     66  CE1 HIS X   2       2.272   5.218  14.754  1.00 28.11 LIG 0.23  A 
ATOM     67 NE2  HIS X   2       2.092   4.018  14.237  1.00 29.87 LIG-0.25  NA
ATOM     68  CD2 HIS X   2       3.240   3.281  14.414  1.00 31.84 LIG 0.14  A 
ENDBRANCH 63 64
ENDBRANCH 38 63
ENDBRANCH 3 38
TORSDOF 24
ENDMDL
MODEL 76
USER: ADFR SOLUTION from run 7
USER: SCORE 17.663747 LL:  -6.581 LR: -13.463 RR:   0.000 FEB:  -6.304
USER: RMSD 9.370799
USER: SEED 604044
USER: STATUS no improvement in best in 6 clusters for 5 generations
USER: GENES 26
USER: genes 0 Translation |==|  0.52253 0.56307 0.37489
USER: genes 1 Rotation |==|  0.38949 0.15923 0.83787 0.58665
USER: genes 2 Torsion [N]-C--CA-[N] |==|  0.77318
USER: genes 3 Torsion [C]-CA--N-[C] |==|  0.74133
USER: genes 4 Torsion [N]-C--CA-[N] |==|  0.37727
USER: genes 5 Torsion [C]-CA--N-[C] |==|  0.51516
USER: genes 6 Torsion [N]-C--CA-[N] |==|  0.91989
USER: genes 7 Torsion [C]-CA--N-[H2] |==|  0.10174
USER: genes 8 Torsion [C]-CA--CB-[CG] |==|  0.05248
USER: genes 9 Torsion [CA]-CB--CG-[ND1] |==|  0.67522
USER: genes 10 Torsion [C]-CA--CB-[CG] |==|  0.06417
USER: genes 11 Torsion [CA]-CB--CG-[CD2] |==|  0.20500
USER: genes 12 Torsion [C]-CA--CB-[CG] |==|  0.17866
USER: genes 13 Torsion [CA]-CB--CG-[CD2] |==|  0.52720
USER: genes 14 Torsion [C]-N--CA-[C] |==|  0.62574
USER: genes 15 Torsion [N]-CA--C-[N] |==|  0.91572
USER: genes 16 Torsion [C]-N--CA-[CB] |==|  0.80361
USER: genes 17 Torsion [N]-CA--CB-[CG] |==|  0.69234
USER: genes 18 Torsion [CA]-CB--CG-[ND1] |==|  0.35674
USER: genes 19 Torsion [N]-CA--C-[N] |==|  0.03849
USER: genes 20 Torsion [C]-N--CA-[C] |==|  0.83814
USER: genes 21 Torsion [N]-CA--C-[O] |==|  0.90435
USER: genes 22 Torsion [N]-CA--CB-[CG] |==|  0.82635
USER: genes 23 Torsion [CA]-CB--CG-[ND1] |==|  0.41794
USER: genes 24 Torsion [N]-CA--CB-[CG] |==|  0.79530
USER: genes 25 Torsion [CA]-CB--CG-[CD2] |==|  0.90865
ROOT
ATOM      1  C   HIS X   1       3.086   1.532  17.318  1.00 40.87 LIG 0.24  C 
ATOM      2 O    HIS X   1       4.046   0.762  17.418  1.00 40.80 LIG-0.27  OA
ATOM      3  N   HIS X   2       2.853   2.548  18.125  1.00 30.16 LIG-0.35  N 
ATOM      4 H    HIS X   2       2.169   3.063  18.050  1.00 30.16 LIG 0.16  HD
ENDROOT
BRANCH 1 5
ATOM      5  CA  HIS X   1       2.048   1.397  16.224  1.00 48.06 LIG 0.18  C 
BRANCH 5 6
ATOM      6  N   HIS X   1       0.870   0.702  16.750  1.00 54.11 LIG-0.35  N 
ATOM      7 H    HIS X   1       0.296   1.221  17.126  1.00 54.11 LIG 0.16  HD
ATOM      8  C   HIS X   0       0.714  -0.602  16.652  1.00 58.54 LIG 0.24  C 
ATOM      9 O    HIS X   0       1.615  -1.380  16.332  1.00 63.37 LIG-0.27  OA
BRANCH 8 10
ATOM     10  CA  HIS X   0      -0.693  -1.082  16.970  1.00 62.53 LIG 0.18  C 
BRANCH 10 11
ATOM     11  N   HIS X   0      -1.174  -2.078  16.007  1.00 60.73 LIG-0.35  N 
ATOM     12  C   HIS X  -1      -2.416  -2.533  16.059  1.00 60.09 LIG 0.25  C 
ATOM     13 O    HIS X  -1      -3.353  -1.899  16.551  1.00 62.79 LIG-0.27  OA
ATOM     14 H    HIS X   0      -0.591  -2.329  15.428  1.00 60.73 LIG 0.16  HD
BRANCH 12 15
ATOM     15  CA  HIS X  -1      -2.625  -3.901  15.421  1.00 59.53 LIG 0.28  C 
BRANCH 15 16
ATOM     16  N   HIS X  -1      -1.628  -4.108  14.317  1.00 57.14 LIG-0.07  N 
ATOM     17 H3   HIS X  -1      -1.514  -4.980  14.180  1.00 57.14 LIG 0.28  HD
ATOM     18 H2   HIS X  -1      -0.850  -3.741  14.547  1.00 57.14 LIG 0.28  HD
ATOM     19 H1   HIS X  -1      -1.928  -3.727  13.571  1.00 57.14 LIG 0.28  HD
ENDBRANCH 15 16
BRANCH 15 20
ATOM     20  CB  HIS X  -1      -2.518  -5.018  16.461  1.00 57.27 LIG 0.10  C 
BRANCH 20 21
ATOM     21  CG  HIS X  -1      -2.684  -4.549  17.870  1.00 54.13 LIG 0.06  A 
ATOM     22 ND1  HIS X  -1      -1.680  -4.647  18.810  1.00 52.72 LIG-0.24  NA
ATOM     23  CE1 HIS X  -1      -2.116  -4.174  19.965  1.00 54.35 LIG 0.23  A 
ATOM     24 NE2  HIS X  -1      -3.366  -3.774  19.809  1.00 53.65 LIG-0.25  NA
ATOM     25  CD2 HIS X  -1      -3.745  -3.996  18.505  1.00 55.23 LIG 0.14  A 
ENDBRANCH 20 21
ENDBRANCH 15 20
ENDBRANCH 12 15
ENDBRANCH 10 11
BRANCH 10 26
ATOM     26  CB  HIS X   0      -0.754  -1.612  18.419  1.00 64.99 LIG 0.10  C 
BRANCH 26 27
ATOM     27  CG  HIS X   0       0.316  -1.066  19.320  1.00 69.41 LIG 0.06  A 
ATOM     28 ND1  HIS X   0       1.410  -1.810  19.715  1.00 72.01 LIG-0.24  NA
ATOM     29  CE1 HIS X   0       2.185  -1.073  20.494  1.00 72.69 LIG 0.23  A 
ATOM     30 NE2  HIS X   0       1.636   0.123  20.615  1.00 72.94 LIG-0.25  NA
ATOM     31  CD2 HIS X   0       0.469   0.156  19.887  1.00 71.12 LIG 0.14  A 
ENDBRANCH 26 27
ENDBRANCH 10 26
ENDBRANCH 8 10
ENDBRANCH 5 6
BRANCH 5 32
ATOM     32  CB  HIS X   1       1.657   2.776  15.697  1.00 48.25 LIG 0.10  C 
BRANCH 32 33
ATOM     33  CG  HIS X   1       2.780   3.504  15.026  1.00 50.36 LIG 0.06  A 
ATOM     34  CD2 HIS X   1       2.879   4.787  14.598  1.00 51.47 LIG 0.14  A 
ATOM     35 NE2  HIS X   1       4.134   4.938  14.060  1.00 50.72 LIG-0.25  NA
ATOM     36  CE1 HIS X   1       4.782   3.790  14.156  1.00 48.50 LIG 0.23  A 
ATOM     37 ND1  HIS X   1       3.989   2.907  14.733  1.00 47.89 LIG-0.24  NA
ENDBRANCH 32 33
ENDBRANCH 5 32
ENDBRANCH 1 5
BRANCH 3 38
ATOM     38  CA  HIS X   2       3.752   2.906  19.246  1.00 26.25 LIG 0.18  C 
BRANCH 38 39
ATOM     39  C   HIS X   2       2.997   3.202  20.538  1.00 23.72 LIG 0.24  C 
ATOM     40  N   HIS X   3       1.788   3.706  20.354  1.00 22.33 LIG-0.35  N 
ATOM     41 H    HIS X   3       1.453   3.873  19.580  1.00 22.33 LIG 0.16  HD
ATOM     42 O    HIS X   2       3.490   2.998  21.658  1.00 19.88 LIG-0.27  OA
BRANCH 40 43
ATOM     43  CA  HIS X   3       0.897   4.030  21.479  1.00 22.38 LIG 0.18  C 
BRANCH 43 44
ATOM     44  CB  HIS X   3       0.339   2.769  22.210  1.00 22.51 LIG 0.10  C 
BRANCH 44 45
ATOM     45  CG  HIS X   3      -1.131   2.516  22.030  1.00 18.10 LIG 0.06  A 
ATOM     46  CD2 HIS X   3      -2.205   3.338  22.136  1.00 18.75 LIG 0.14  A 
ATOM     47 NE2  HIS X   3      -3.319   2.595  21.820  1.00 20.06 LIG-0.25  NA
ATOM     48  CE1 HIS X   3      -2.941   1.367  21.517  1.00 21.69 LIG 0.23  A 
ATOM     49 ND1  HIS X   3      -1.624   1.300  21.622  1.00 17.48 LIG-0.24  NA
ENDBRANCH 44 45
ENDBRANCH 43 44
BRANCH 43 50
ATOM     50  C   HIS X   3       1.554   5.021  22.439  1.00 21.59 LIG 0.24  C 
ATOM     51 O    HIS X   3       1.076   5.278  23.538  1.00 25.47 LIG-0.27  OA
ATOM     52  N   HIS X   4       2.631   5.619  21.973  1.00 25.63 LIG-0.35  N 
ATOM     53 H    HIS X   4       2.965   5.476  21.193  1.00 25.63 LIG 0.16  HD
BRANCH 52 54
ATOM     54  CA  HIS X   4       3.357   6.604  22.780  1.00 23.96 LIG 0.17  C 
BRANCH 54 55
ATOM     55  C   HIS X   4       2.390   7.734  23.147  1.00 31.35 LIG 0.22  C 
ATOM     56 O    HIS X   4       1.505   8.096  22.369  1.00 37.06 LIG-0.29  OA
ENDBRANCH 54 55
BRANCH 54 57
ATOM     57  CB  HIS X   4       4.592   7.143  22.049  1.00 23.83 LIG 0.09  C 
BRANCH 57 58
ATOM     58  CG  HIS X   4       5.628   6.094  21.741  1.00 22.57 LIG 0.06  A 
ATOM     59 ND1  HIS X   4       6.475   6.165  20.650  1.00 22.63 LIG-0.24  NA
ATOM     60  CE1 HIS X   4       7.273   5.110  20.646  1.00 19.94 LIG 0.23  A 
ATOM     61 NE2  HIS X   4       6.965   4.351  21.679  1.00 20.25 LIG-0.25  NA
ATOM     62  CD2 HIS X   4       5.950   4.950  22.387  1.00 21.52 LIG 0.14  A 
ENDBRANCH 57 58
ENDBRANCH 54 57
ENDBRANCH 52 54
ENDBRANCH 43 50
ENDBRANCH 40 43
ENDBRANCH 38 39
BRANCH 38 63
ATOM     63  CB  HIS X   2       4.627   4.110  18.881  1.00 28.74 LIG 0.10  C 
BRANCH 63 64
ATOM     64  CG  HIS X   2       5.720   3.788  17.917  1.00 28.63 LIG 0.06  A 
ATOM     65 ND1  HIS X   2       6.180   4.700  16.997  1.00 31.27 LIG-0.24  NA
ATOM     66  CE1 HIS X   2       7.155   4.158  16.290  1.00 28.11 LIG 0.23  A 
ATOM     67 NE2  HIS X   2       7.338   2.921  16.711  1.00 29.87 LIG-0.25  NA
ATOM     68  CD2 HIS X   2       6.457   2.667  17.737  1.00 31.84 LIG 0.14  A 
ENDBRANCH 63 64
ENDBRANCH 38 63
ENDBRANCH 3 38
TORSDOF 24
ENDMDL
MODEL 77
USER: ADFR SOLUTION from run 2
USER: SCORE 18.500724 LL:  -6.277 LR: -13.446 RR:   0.000 FEB:  -6.287
USER: RMSD 7.424861
USER: SEED 708948
USER: STATUS no improvement in best in 32 clusters for 5 generations
USER: GENES 26
USER: genes 0 Translation |==|  0.54058 0.55439 0.36593
USER: genes 1 Rotation |==|  0.50481 0.16607 0.73832 0.78578
USER: genes 2 Torsion [N]-C--CA-[N] |==|  0.02222
USER: genes 3 Torsion [C]-CA--N-[C] |==|  0.74276
USER: genes 4 Torsion [N]-C--CA-[N] |==|  0.39402
USER: genes 5 Torsion [C]-CA--N-[C] |==|  0.65603
USER: genes 6 Torsion [N]-C--CA-[N] |==|  0.49841
USER: genes 7 Torsion [C]-CA--N-[H2] |==|  0.96430
USER: genes 8 Torsion [C]-CA--CB-[CG] |==|  0.79946
USER: genes 9 Torsion [CA]-CB--CG-[ND1] |==|  0.79198
USER: genes 10 Torsion [C]-CA--CB-[CG] |==|  0.46352
USER: genes 11 Torsion [CA]-CB--CG-[CD2] |==|  0.06483
USER: genes 12 Torsion [C]-CA--CB-[CG] |==|  0.85683
USER: genes 13 Torsion [CA]-CB--CG-[CD2] |==|  0.72623
USER: genes 14 Torsion [C]-N--CA-[C] |==|  0.80462
USER: genes 15 Torsion [N]-CA--C-[N] |==|  0.27454
USER: genes 16 Torsion [C]-N--CA-[CB] |==|  0.16256
USER: genes 17 Torsion [N]-CA--CB-[CG] |==|  0.10996
USER: genes 18 Torsion [CA]-CB--CG-[ND1] |==|  0.10119
USER: genes 19 Torsion [N]-CA--C-[N] |==|  0.65125
USER: genes 20 Torsion [C]-N--CA-[C] |==|  0.81641
USER: genes 21 Torsion [N]-CA--C-[O] |==|  0.54300
USER: genes 22 Torsion [N]-CA--CB-[CG] |==|  0.17102
USER: genes 23 Torsion [CA]-CB--CG-[ND1] |==|  0.80563
USER: genes 24 Torsion [N]-CA--CB-[CG] |==|  0.83981
USER: genes 25 Torsion [CA]-CB--CG-[CD2] |==|  0.42859
ROOT
ATOM      1  C   HIS X   1       3.452   1.323  17.157  1.00 40.87 LIG 0.24  C 
ATOM      2 O    HIS X   1       3.791   0.569  16.240  1.00 40.80 LIG-0.27  OA
ATOM      3  N   HIS X   2       4.246   1.726  18.129  1.00 30.16 LIG-0.35  N 
ATOM      4 H    HIS X   2       3.987   2.237  18.770  1.00 30.16 LIG 0.16  HD
ENDROOT
BRANCH 1 5
ATOM      5  CA  HIS X   1       2.053   1.893  17.265  1.00 48.06 LIG 0.18  C 
BRANCH 5 6
ATOM      6  N   HIS X   1       2.015   2.898  18.330  1.00 54.11 LIG-0.35  N 
ATOM      7 H    HIS X   1       2.227   3.690  18.071  1.00 54.11 LIG 0.16  HD
ATOM      8  C   HIS X   0       1.683   2.605  19.571  1.00 58.54 LIG 0.24  C 
ATOM      9 O    HIS X   0       1.604   1.455  20.007  1.00 63.37 LIG-0.27  OA
BRANCH 8 10
ATOM     10  CA  HIS X   0       1.402   3.820  20.438  1.00 62.53 LIG 0.18  C 
BRANCH 10 11
ATOM     11  N   HIS X   0       0.285   3.599  21.364  1.00 60.73 LIG-0.35  N 
ATOM     12  C   HIS X  -1      -0.765   4.405  21.372  1.00 60.09 LIG 0.25  C 
ATOM     13 O    HIS X  -1      -1.119   5.071  20.396  1.00 62.79 LIG-0.27  OA
ATOM     14 H    HIS X   0       0.377   2.919  21.882  1.00 60.73 LIG 0.16  HD
BRANCH 12 15
ATOM     15  CA  HIS X  -1      -1.546   4.427  22.680  1.00 59.53 LIG 0.28  C 
BRANCH 15 16
ATOM     16  N   HIS X  -1      -2.699   5.384  22.570  1.00 57.14 LIG-0.07  N 
ATOM     17 H3   HIS X  -1      -3.460   4.926  22.511  1.00 57.14 LIG 0.28  HD
ATOM     18 H2   HIS X  -1      -2.599   5.887  21.842  1.00 57.14 LIG 0.28  HD
ATOM     19 H1   HIS X  -1      -2.722   5.906  23.291  1.00 57.14 LIG 0.28  HD
ENDBRANCH 15 16
BRANCH 15 20
ATOM     20  CB  HIS X  -1      -2.041   3.029  23.053  1.00 57.27 LIG 0.10  C 
BRANCH 20 21
ATOM     21  CG  HIS X  -1      -3.159   2.535  22.194  1.00 54.13 LIG 0.06  A 
ATOM     22 ND1  HIS X  -1      -4.452   2.998  22.316  1.00 52.72 LIG-0.24  NA
ATOM     23  CE1 HIS X  -1      -5.224   2.372  21.445  1.00 54.35 LIG 0.23  A 
ATOM     24 NE2  HIS X  -1      -4.481   1.518  20.763  1.00 53.65 LIG-0.25  NA
ATOM     25  CD2 HIS X  -1      -3.183   1.602  21.212  1.00 55.23 LIG 0.14  A 
ENDBRANCH 20 21
ENDBRANCH 15 20
ENDBRANCH 12 15
ENDBRANCH 10 11
BRANCH 10 26
ATOM     26  CB  HIS X   0       2.685   4.245  21.185  1.00 64.99 LIG 0.10  C 
BRANCH 26 27
ATOM     27  CG  HIS X   0       2.606   5.603  21.821  1.00 69.41 LIG 0.06  A 
ATOM     28 ND1  HIS X   0       3.725   6.365  22.094  1.00 72.01 LIG-0.24  NA
ATOM     29  CE1 HIS X   0       3.354   7.509  22.643  1.00 72.69 LIG 0.23  A 
ATOM     30 NE2  HIS X   0       2.035   7.520  22.732  1.00 72.94 LIG-0.25  NA
ATOM     31  CD2 HIS X   0       1.543   6.341  22.221  1.00 71.12 LIG 0.14  A 
ENDBRANCH 26 27
ENDBRANCH 10 26
ENDBRANCH 8 10
ENDBRANCH 5 6
BRANCH 5 32
ATOM     32  CB  HIS X   1       1.633   2.514  15.935  1.00 48.25 LIG 0.10  C 
BRANCH 32 33
ATOM     33  CG  HIS X   1       2.629   3.488  15.385  1.00 50.36 LIG 0.06  A 
ATOM     34  CD2 HIS X   1       2.669   4.842  15.435  1.00 51.47 LIG 0.14  A 
ATOM     35 NE2  HIS X   1       3.809   5.237  14.777  1.00 50.72 LIG-0.25  NA
ATOM     36  CE1 HIS X   1       4.446   4.164  14.341  1.00 48.50 LIG 0.23  A 
ATOM     37 ND1  HIS X   1       3.755   3.094  14.691  1.00 47.89 LIG-0.24  NA
ENDBRANCH 32 33
ENDBRANCH 5 32
ENDBRANCH 1 5
BRANCH 3 38
ATOM     38  CA  HIS X   2       5.672   1.335  18.215  1.00 26.25 LIG 0.18  C 
BRANCH 38 39
ATOM     39  C   HIS X   2       5.862  -0.137  18.566  1.00 23.72 LIG 0.24  C 
ATOM     40  N   HIS X   3       6.108  -0.913  17.523  1.00 22.33 LIG-0.35  N 
ATOM     41 H    HIS X   3       6.143  -0.627  16.712  1.00 22.33 LIG 0.16  HD
ATOM     42 O    HIS X   2       5.776  -0.561  19.728  1.00 19.88 LIG-0.27  OA
BRANCH 40 43
ATOM     43  CA  HIS X   3       6.348  -2.358  17.663  1.00 22.38 LIG 0.18  C 
BRANCH 43 44
ATOM     44  CB  HIS X   3       5.163  -3.119  18.337  1.00 22.51 LIG 0.10  C 
BRANCH 44 45
ATOM     45  CG  HIS X   3       3.789  -2.670  17.926  1.00 18.10 LIG 0.06  A 
ATOM     46  CD2 HIS X   3       2.651  -2.489  18.641  1.00 18.75 LIG 0.14  A 
ATOM     47 NE2  HIS X   3       1.695  -2.019  17.770  1.00 20.06 LIG-0.25  NA
ATOM     48  CE1 HIS X   3       2.231  -1.900  16.570  1.00 21.69 LIG 0.23  A 
ATOM     49 ND1  HIS X   3       3.499  -2.272  16.643  1.00 17.48 LIG-0.24  NA
ENDBRANCH 44 45
ENDBRANCH 43 44
BRANCH 43 50
ATOM     50  C   HIS X   3       6.764  -2.982  16.331  1.00 21.59 LIG 0.24  C 
ATOM     51 O    HIS X   3       7.677  -2.523  15.655  1.00 25.47 LIG-0.27  OA
ATOM     52  N   HIS X   4       6.033  -4.005  15.941  1.00 25.63 LIG-0.35  N 
ATOM     53 H    HIS X   4       5.369  -4.324  16.386  1.00 25.63 LIG 0.16  HD
BRANCH 52 54
ATOM     54  CA  HIS X   4       6.311  -4.693  14.677  1.00 23.96 LIG 0.17  C 
BRANCH 54 55
ATOM     55  C   HIS X   4       6.028  -3.722  13.527  1.00 31.35 LIG 0.22  C 
ATOM     56 O    HIS X   4       5.909  -4.121  12.367  1.00 37.06 LIG-0.29  OA
ENDBRANCH 54 55
BRANCH 54 57
ATOM     57  CB  HIS X   4       5.489  -5.980  14.535  1.00 23.83 LIG 0.09  C 
BRANCH 57 58
ATOM     58  CG  HIS X   4       3.999  -5.757  14.526  1.00 22.57 LIG 0.06  A 
ATOM     59 ND1  HIS X   4       3.289  -5.361  15.645  1.00 22.63 LIG-0.24  NA
ATOM     60  CE1 HIS X   4       2.009  -5.242  15.331  1.00 19.94 LIG 0.23  A 
ATOM     61 NE2  HIS X   4       1.861  -5.562  14.059  1.00 20.25 LIG-0.25  NA
ATOM     62  CD2 HIS X   4       3.091  -5.874  13.531  1.00 21.52 LIG 0.14  A 
ENDBRANCH 57 58
ENDBRANCH 54 57
ENDBRANCH 52 54
ENDBRANCH 43 50
ENDBRANCH 40 43
ENDBRANCH 38 39
BRANCH 38 63
ATOM     63  CB  HIS X   2       6.415   2.202  19.239  1.00 28.74 LIG 0.10  C 
BRANCH 63 64
ATOM     64  CG  HIS X   2       6.346   3.665  18.949  1.00 28.63 LIG 0.06  A 
ATOM     65 ND1  HIS X   2       6.139   4.154  17.682  1.00 31.27 LIG-0.24  NA
ATOM     66  CE1 HIS X   2       6.106   5.473  17.720  1.00 28.11 LIG 0.23  A 
ATOM     67 NE2  HIS X   2       6.295   5.860  18.967  1.00 29.87 LIG-0.25  NA
ATOM     68  CD2 HIS X   2       6.440   4.745  19.760  1.00 31.84 LIG 0.14  A 
ENDBRANCH 63 64
ENDBRANCH 38 63
ENDBRANCH 3 38
TORSDOF 24
ENDMDL
MODEL 78
USER: ADFR SOLUTION from run 53
USER: SCORE 17.433953 LL:  -6.024 LR: -13.448 RR:   0.000 FEB:  -6.289
USER: RMSD 10.611895
USER: SEED 52
USER: STATUS no improvement in best in 5 clusters for 5 generations
USER: GENES 26
USER: genes 0 Translation |==|  0.41527 0.47343 0.35706
USER: genes 1 Rotation |==|  0.60696 0.30732 0.91855 0.66202
USER: genes 2 Torsion [N]-C--CA-[N] |==|  0.40730
USER: genes 3 Torsion [C]-CA--N-[C] |==|  0.58578
USER: genes 4 Torsion [N]-C--CA-[N] |==|  0.05293
USER: genes 5 Torsion [C]-CA--N-[C] |==|  0.72189
USER: genes 6 Torsion [N]-C--CA-[N] |==|  0.46553
USER: genes 7 Torsion [C]-CA--N-[H2] |==|  0.29233
USER: genes 8 Torsion [C]-CA--CB-[CG] |==|  0.79905
USER: genes 9 Torsion [CA]-CB--CG-[ND1] |==|  0.79698
USER: genes 10 Torsion [C]-CA--CB-[CG] |==|  0.55294
USER: genes 11 Torsion [CA]-CB--CG-[CD2] |==|  0.17547
USER: genes 12 Torsion [C]-CA--CB-[CG] |==|  0.74145
USER: genes 13 Torsion [CA]-CB--CG-[CD2] |==|  0.27642
USER: genes 14 Torsion [C]-N--CA-[C] |==|  0.72600
USER: genes 15 Torsion [N]-CA--C-[N] |==|  0.70775
USER: genes 16 Torsion [C]-N--CA-[CB] |==|  0.26075
USER: genes 17 Torsion [N]-CA--CB-[CG] |==|  0.94238
USER: genes 18 Torsion [CA]-CB--CG-[ND1] |==|  0.81720
USER: genes 19 Torsion [N]-CA--C-[N] |==|  0.93477
USER: genes 20 Torsion [C]-N--CA-[C] |==|  0.17515
USER: genes 21 Torsion [N]-CA--C-[O] |==|  0.26671
USER: genes 22 Torsion [N]-CA--CB-[CG] |==|  0.60020
USER: genes 23 Torsion [CA]-CB--CG-[ND1] |==|  0.61060
USER: genes 24 Torsion [N]-CA--CB-[CG] |==|  0.58354
USER: genes 25 Torsion [CA]-CB--CG-[CD2] |==|  0.58423
ROOT
ATOM      1  C   HIS X   1       0.914  -0.620  16.997  1.00 40.87 LIG 0.24  C 
ATOM      2 O    HIS X   1       1.805  -1.175  16.347  1.00 40.80 LIG-0.27  OA
ATOM      3  N   HIS X   2       0.939   0.643  17.376  1.00 30.16 LIG-0.35  N 
ATOM      4 H    HIS X   2       0.317   1.008  17.845  1.00 30.16 LIG 0.16  HD
ENDROOT
BRANCH 1 5
ATOM      5  CA  HIS X   1      -0.342  -1.342  17.435  1.00 48.06 LIG 0.18  C 
BRANCH 5 6
ATOM      6  N   HIS X   1      -0.709  -2.341  16.428  1.00 54.11 LIG-0.35  N 
ATOM      7 H    HIS X   1      -0.038  -2.676  16.007  1.00 54.11 LIG 0.16  HD
ATOM      8  C   HIS X   0      -1.958  -2.688  16.195  1.00 58.54 LIG 0.24  C 
ATOM      9 O    HIS X   0      -2.934  -2.063  16.615  1.00 63.37 LIG-0.27  OA
BRANCH 8 10
ATOM     10  CA  HIS X   0      -2.103  -3.944  15.352  1.00 62.53 LIG 0.18  C 
BRANCH 10 11
ATOM     11  N   HIS X   0      -0.880  -4.754  15.341  1.00 60.73 LIG-0.35  N 
ATOM     12  C   HIS X  -1      -0.037  -4.704  14.322  1.00 60.09 LIG 0.25  C 
ATOM     13 O    HIS X  -1       0.065  -3.732  13.570  1.00 62.79 LIG-0.27  OA
ATOM     14 H    HIS X   0      -0.769  -5.246  16.037  1.00 60.73 LIG 0.16  HD
BRANCH 12 15
ATOM     15  CA  HIS X  -1       0.844  -5.936  14.158  1.00 59.53 LIG 0.28  C 
BRANCH 15 16
ATOM     16  N   HIS X  -1       1.528  -5.901  12.821  1.00 57.14 LIG-0.07  N 
ATOM     17 H3   HIS X  -1       1.473  -6.702  12.438  1.00 57.14 LIG 0.28  HD
ATOM     18 H2   HIS X  -1       2.385  -5.684  12.931  1.00 57.14 LIG 0.28  HD
ATOM     19 H1   HIS X  -1       1.133  -5.296  12.301  1.00 57.14 LIG 0.28  HD
ENDBRANCH 15 16
BRANCH 15 20
ATOM     20  CB  HIS X  -1       1.872  -6.035  15.286  1.00 57.27 LIG 0.10  C 
BRANCH 20 21
ATOM     21  CG  HIS X  -1       2.972  -5.028  15.191  1.00 54.13 LIG 0.06  A 
ATOM     22 ND1  HIS X  -1       3.980  -5.113  14.254  1.00 52.72 LIG-0.24  NA
ATOM     23  CE1 HIS X  -1       4.816  -4.102  14.419  1.00 54.35 LIG 0.23  A 
ATOM     24 NE2  HIS X  -1       4.388  -3.365  15.429  1.00 53.65 LIG-0.25  NA
ATOM     25  CD2 HIS X  -1       3.234  -3.922  15.929  1.00 55.23 LIG 0.14  A 
ENDBRANCH 20 21
ENDBRANCH 15 20
ENDBRANCH 12 15
ENDBRANCH 10 11
BRANCH 10 26
ATOM     26  CB  HIS X   0      -3.324  -4.761  15.827  1.00 64.99 LIG 0.10  C 
BRANCH 26 27
ATOM     27  CG  HIS X   0      -3.309  -6.198  15.394  1.00 69.41 LIG 0.06  A 
ATOM     28 ND1  HIS X   0      -4.255  -6.731  14.541  1.00 72.01 LIG-0.24  NA
ATOM     29  CE1 HIS X   0      -3.988  -8.008  14.330  1.00 72.69 LIG 0.23  A 
ATOM     30 NE2  HIS X   0      -2.900  -8.324  15.010  1.00 72.94 LIG-0.25  NA
ATOM     31  CD2 HIS X   0      -2.453  -7.209  15.681  1.00 71.12 LIG 0.14  A 
ENDBRANCH 26 27
ENDBRANCH 10 26
ENDBRANCH 8 10
ENDBRANCH 5 6
BRANCH 5 32
ATOM     32  CB  HIS X   1      -0.119  -2.013  18.789  1.00 48.25 LIG 0.10  C 
BRANCH 32 33
ATOM     33  CG  HIS X   1       0.331  -3.437  18.687  1.00 50.36 LIG 0.06  A 
ATOM     34  CD2 HIS X   1       1.565  -3.989  18.788  1.00 51.47 LIG 0.14  A 
ATOM     35 NE2  HIS X   1       1.417  -5.345  18.625  1.00 50.72 LIG-0.25  NA
ATOM     36  CE1 HIS X   1       0.137  -5.616  18.432  1.00 48.50 LIG 0.23  A 
ATOM     37 ND1  HIS X   1      -0.541  -4.483  18.463  1.00 47.89 LIG-0.24  NA
ENDBRANCH 32 33
ENDBRANCH 5 32
ENDBRANCH 1 5
BRANCH 3 38
ATOM     38  CA  HIS X   2       2.046   1.564  17.031  1.00 26.25 LIG 0.18  C 
BRANCH 38 39
ATOM     39  C   HIS X   2       3.056   1.725  18.162  1.00 23.72 LIG 0.24  C 
ATOM     40  N   HIS X   3       2.968   2.878  18.804  1.00 22.33 LIG-0.35  N 
ATOM     41 H    HIS X   3       2.406   3.497  18.601  1.00 22.33 LIG 0.16  HD
ATOM     42 O    HIS X   2       3.893   0.852  18.436  1.00 19.88 LIG-0.27  OA
BRANCH 40 43
ATOM     43  CA  HIS X   3       3.840   3.207  19.944  1.00 22.38 LIG 0.18  C 
BRANCH 43 44
ATOM     44  CB  HIS X   3       5.118   4.003  19.535  1.00 22.51 LIG 0.10  C 
BRANCH 44 45
ATOM     45  CG  HIS X   3       5.515   3.891  18.090  1.00 18.10 LIG 0.06  A 
ATOM     46  CD2 HIS X   3       5.620   4.823  17.111  1.00 18.75 LIG 0.14  A 
ATOM     47 NE2  HIS X   3       6.071   4.178  15.982  1.00 20.06 LIG-0.25  NA
ATOM     48  CE1 HIS X   3       6.250   2.901  16.263  1.00 21.69 LIG 0.23  A 
ATOM     49 ND1  HIS X   3       5.935   2.707  17.533  1.00 17.48 LIG-0.24  NA
ENDBRANCH 44 45
ENDBRANCH 43 44
BRANCH 43 50
ATOM     50  C   HIS X   3       3.055   3.890  21.062  1.00 21.59 LIG 0.24  C 
ATOM     51 O    HIS X   3       3.406   3.830  22.235  1.00 25.47 LIG-0.27  OA
ATOM     52  N   HIS X   4       1.948   4.492  20.681  1.00 25.63 LIG-0.35  N 
ATOM     53 H    HIS X   4       1.667   4.521  19.868  1.00 25.63 LIG 0.16  HD
BRANCH 52 54
ATOM     54  CA  HIS X   4       1.089   5.179  21.650  1.00 23.96 LIG 0.17  C 
BRANCH 54 55
ATOM     55  C   HIS X   4       1.883   6.337  22.263  1.00 31.35 LIG 0.22  C 
ATOM     56 O    HIS X   4       1.783   7.484  21.825  1.00 37.06 LIG-0.29  OA
ENDBRANCH 54 55
BRANCH 54 57
ATOM     57  CB  HIS X   4       0.571   4.223  22.732  1.00 23.83 LIG 0.09  C 
BRANCH 57 58
ATOM     58  CG  HIS X   4      -0.835   4.515  23.185  1.00 22.57 LIG 0.06  A 
ATOM     59 ND1  HIS X   4      -1.236   4.431  24.505  1.00 22.63 LIG-0.24  NA
ATOM     60  CE1 HIS X   4      -2.517   4.748  24.595  1.00 19.94 LIG 0.23  A 
ATOM     61 NE2  HIS X   4      -2.965   5.018  23.383  1.00 20.25 LIG-0.25  NA
ATOM     62  CD2 HIS X   4      -1.930   4.893  22.487  1.00 21.52 LIG 0.14  A 
ENDBRANCH 57 58
ENDBRANCH 54 57
ENDBRANCH 52 54
ENDBRANCH 43 50
ENDBRANCH 40 43
ENDBRANCH 38 39
BRANCH 38 63
ATOM     63  CB  HIS X   2       1.505   2.942  16.631  1.00 28.74 LIG 0.10  C 
BRANCH 63 64
ATOM     64  CG  HIS X   2       2.363   3.661  15.644  1.00 28.63 LIG 0.06  A 
ATOM     65 ND1  HIS X   2       3.111   2.997  14.700  1.00 31.27 LIG-0.24  NA
ATOM     66  CE1 HIS X   2       3.754   3.876  13.954  1.00 28.11 LIG 0.23  A 
ATOM     67 NE2  HIS X   2       3.460   5.087  14.385  1.00 29.87 LIG-0.25  NA
ATOM     68  CD2 HIS X   2       2.583   4.981  15.440  1.00 31.84 LIG 0.14  A 
ENDBRANCH 63 64
ENDBRANCH 38 63
ENDBRANCH 3 38
TORSDOF 24
ENDMDL
MODEL 79
USER: ADFR SOLUTION from run 24
USER: SCORE 18.756417 LL:  -6.269 LR: -13.442 RR:   0.000 FEB:  -6.283
USER: RMSD 9.739652
USER: SEED 23
USER: STATUS no improvement in best in 16 clusters for 5 generations
USER: GENES 26
USER: genes 0 Translation |==|  0.54237 0.54358 0.40877
USER: genes 1 Rotation |==|  0.63872 0.08909 0.57586 0.73697
USER: genes 2 Torsion [N]-C--CA-[N] |==|  0.23819
USER: genes 3 Torsion [C]-CA--N-[C] |==|  0.75657
USER: genes 4 Torsion [N]-C--CA-[N] |==|  0.31709
USER: genes 5 Torsion [C]-CA--N-[C] |==|  0.64674
USER: genes 6 Torsion [N]-C--CA-[N] |==|  0.47001
USER: genes 7 Torsion [C]-CA--N-[H2] |==|  0.98994
USER: genes 8 Torsion [C]-CA--CB-[CG] |==|  0.82896
USER: genes 9 Torsion [CA]-CB--CG-[ND1] |==|  0.74376
USER: genes 10 Torsion [C]-CA--CB-[CG] |==|  0.52775
USER: genes 11 Torsion [CA]-CB--CG-[CD2] |==|  0.77036
USER: genes 12 Torsion [C]-CA--CB-[CG] |==|  0.27056
USER: genes 13 Torsion [CA]-CB--CG-[CD2] |==|  0.61212
USER: genes 14 Torsion [C]-N--CA-[C] |==|  0.15221
USER: genes 15 Torsion [N]-CA--C-[N] |==|  0.13991
USER: genes 16 Torsion [C]-N--CA-[CB] |==|  0.87577
USER: genes 17 Torsion [N]-CA--CB-[CG] |==|  0.49263
USER: genes 18 Torsion [CA]-CB--CG-[ND1] |==|  0.08838
USER: genes 19 Torsion [N]-CA--C-[N] |==|  0.90395
USER: genes 20 Torsion [C]-N--CA-[C] |==|  0.72393
USER: genes 21 Torsion [N]-CA--C-[O] |==|  0.41211
USER: genes 22 Torsion [N]-CA--CB-[CG] |==|  0.85471
USER: genes 23 Torsion [CA]-CB--CG-[ND1] |==|  0.11319
USER: genes 24 Torsion [N]-CA--CB-[CG] |==|  0.91767
USER: genes 25 Torsion [CA]-CB--CG-[CD2] |==|  0.81840
ROOT
ATOM      1  C   HIS X   1       3.488   1.064  17.928  1.00 40.87 LIG 0.24  C 
ATOM      2 O    HIS X   1       3.898   1.357  16.801  1.00 40.80 LIG-0.27  OA
ATOM      3  N   HIS X   2       4.238   0.570  18.893  1.00 30.16 LIG-0.35  N 
ATOM      4 H    HIS X   2       3.931   0.355  19.667  1.00 30.16 LIG 0.16  HD
ENDROOT
BRANCH 1 5
ATOM      5  CA  HIS X   1       2.044   1.253  18.341  1.00 48.06 LIG 0.18  C 
BRANCH 5 6
ATOM      6  N   HIS X   1       1.889   2.554  18.997  1.00 54.11 LIG-0.35  N 
ATOM      7 H    HIS X   1       1.664   3.190  18.463  1.00 54.11 LIG 0.16  HD
ATOM      8  C   HIS X   0       2.078   2.725  20.289  1.00 58.54 LIG 0.24  C 
ATOM      9 O    HIS X   0       2.617   1.892  21.020  1.00 63.37 LIG-0.27  OA
BRANCH 8 10
ATOM     10  CA  HIS X   0       1.569   4.055  20.818  1.00 62.53 LIG 0.18  C 
BRANCH 10 11
ATOM     11  N   HIS X   0       0.448   3.893  21.751  1.00 60.73 LIG-0.35  N 
ATOM     12  C   HIS X  -1      -0.688   4.549  21.575  1.00 60.09 LIG 0.25  C 
ATOM     13 O    HIS X  -1      -1.077   4.952  20.476  1.00 62.79 LIG-0.27  OA
ATOM     14 H    HIS X   0       0.597   3.350  22.401  1.00 60.73 LIG 0.16  HD
BRANCH 12 15
ATOM     15  CA  HIS X  -1      -1.519   4.743  22.837  1.00 59.53 LIG 0.28  C 
BRANCH 15 16
ATOM     16  N   HIS X  -1      -2.635   5.713  22.570  1.00 57.14 LIG-0.07  N 
ATOM     17 H3   HIS X  -1      -3.417   5.298  22.663  1.00 57.14 LIG 0.28  HD
ATOM     18 H2   HIS X  -1      -2.563   6.026  21.740  1.00 57.14 LIG 0.28  HD
ATOM     19 H1   HIS X  -1      -2.587   6.388  23.148  1.00 57.14 LIG 0.28  HD
ENDBRANCH 15 16
BRANCH 15 20
ATOM     20  CB  HIS X  -1      -2.073   3.412  23.345  1.00 57.27 LIG 0.10  C 
BRANCH 20 21
ATOM     21  CG  HIS X  -1      -2.988   2.730  22.380  1.00 54.13 LIG 0.06  A 
ATOM     22 ND1  HIS X  -1      -4.354   2.911  22.395  1.00 52.72 LIG-0.24  NA
ATOM     23  CE1 HIS X  -1      -4.903   2.173  21.445  1.00 54.35 LIG 0.23  A 
ATOM     24 NE2  HIS X  -1      -3.943   1.518  20.815  1.00 53.65 LIG-0.25  NA
ATOM     25  CD2 HIS X  -1      -2.733   1.851  21.380  1.00 55.23 LIG 0.14  A 
ENDBRANCH 20 21
ENDBRANCH 15 20
ENDBRANCH 12 15
ENDBRANCH 10 11
BRANCH 10 26
ATOM     26  CB  HIS X   0       2.730   4.850  21.453  1.00 64.99 LIG 0.10  C 
BRANCH 26 27
ATOM     27  CG  HIS X   0       2.296   6.070  22.214  1.00 69.41 LIG 0.06  A 
ATOM     28 ND1  HIS X   0       2.150   6.080  23.586  1.00 72.01 LIG-0.24  NA
ATOM     29  CE1 HIS X   0       1.768   7.284  23.979  1.00 72.69 LIG 0.23  A 
ATOM     30 NE2  HIS X   0       1.667   8.057  22.912  1.00 72.94 LIG-0.25  NA
ATOM     31  CD2 HIS X   0       1.996   7.323  21.795  1.00 71.12 LIG 0.14  A 
ENDBRANCH 26 27
ENDBRANCH 10 26
ENDBRANCH 8 10
ENDBRANCH 5 6
BRANCH 5 32
ATOM     32  CB  HIS X   1       1.130   1.162  17.121  1.00 48.25 LIG 0.10  C 
BRANCH 32 33
ATOM     33  CG  HIS X   1       0.509  -0.187  16.934  1.00 50.36 LIG 0.06  A 
ATOM     34  CD2 HIS X   1       0.288  -0.916  15.813  1.00 51.47 LIG 0.14  A 
ATOM     35 NE2  HIS X   1      -0.305  -2.092  16.205  1.00 50.72 LIG-0.25  NA
ATOM     36  CE1 HIS X   1      -0.442  -2.084  17.520  1.00 48.50 LIG 0.23  A 
ATOM     37 ND1  HIS X   1       0.039  -0.946  17.986  1.00 47.89 LIG-0.24  NA
ENDBRANCH 32 33
ENDBRANCH 5 32
ENDBRANCH 1 5
BRANCH 3 38
ATOM     38  CA  HIS X   2       5.692   0.335  18.741  1.00 26.25 LIG 0.18  C 
BRANCH 38 39
ATOM     39  C   HIS X   2       6.450   1.583  18.300  1.00 23.72 LIG 0.24  C 
ATOM     40  N   HIS X   3       6.190   2.657  19.026  1.00 22.33 LIG-0.35  N 
ATOM     41 H    HIS X   3       5.632   2.668  19.681  1.00 22.33 LIG 0.16  HD
ATOM     42 O    HIS X   2       7.227   1.582  17.334  1.00 19.88 LIG-0.27  OA
BRANCH 40 43
ATOM     43  CA  HIS X   3       6.846   3.950  18.772  1.00 22.38 LIG 0.18  C 
BRANCH 43 44
ATOM     44  CB  HIS X   3       8.383   3.827  18.531  1.00 22.51 LIG 0.10  C 
BRANCH 44 45
ATOM     45  CG  HIS X   3       9.090   5.112  18.205  1.00 18.10 LIG 0.06  A 
ATOM     46  CD2 HIS X   3      10.130   5.381  17.376  1.00 18.75 LIG 0.14  A 
ATOM     47 NE2  HIS X   3      10.344   6.740  17.422  1.00 20.06 LIG-0.25  NA
ATOM     48  CE1 HIS X   3       9.460   7.285  18.236  1.00 21.69 LIG 0.23  A 
ATOM     49 ND1  HIS X   3       8.683   6.324  18.708  1.00 17.48 LIG-0.24  NA
ENDBRANCH 44 45
ENDBRANCH 43 44
BRANCH 43 50
ATOM     50  C   HIS X   3       6.137   4.721  17.659  1.00 21.59 LIG 0.24  C 
ATOM     51 O    HIS X   3       6.002   5.939  17.695  1.00 25.47 LIG-0.27  OA
ATOM     52  N   HIS X   4       5.633   3.976  16.698  1.00 25.63 LIG-0.35  N 
ATOM     53 H    HIS X   4       5.690   3.118  16.669  1.00 25.63 LIG 0.16  HD
BRANCH 52 54
ATOM     54  CA  HIS X   4       4.915   4.581  15.572  1.00 23.96 LIG 0.17  C 
BRANCH 54 55
ATOM     55  C   HIS X   4       3.411   4.459  15.837  1.00 31.35 LIG 0.22  C 
ATOM     56 O    HIS X   4       2.618   5.310  15.429  1.00 37.06 LIG-0.29  OA
ENDBRANCH 54 55
BRANCH 54 57
ATOM     57  CB  HIS X   4       5.300   3.935  14.235  1.00 23.83 LIG 0.09  C 
BRANCH 57 58
ATOM     58  CG  HIS X   4       6.784   3.886  13.983  1.00 22.57 LIG 0.06  A 
ATOM     59 ND1  HIS X   4       7.707   3.579  14.966  1.00 22.63 LIG-0.24  NA
ATOM     60  CE1 HIS X   4       8.924   3.609  14.448  1.00 19.94 LIG 0.23  A 
ATOM     61 NE2  HIS X   4       8.826   3.941  13.175  1.00 20.25 LIG-0.25  NA
ATOM     62  CD2 HIS X   4       7.499   4.105  12.857  1.00 21.52 LIG 0.14  A 
ENDBRANCH 57 58
ENDBRANCH 54 57
ENDBRANCH 52 54
ENDBRANCH 43 50
ENDBRANCH 40 43
ENDBRANCH 38 39
BRANCH 38 63
ATOM     63  CB  HIS X   2       5.960  -0.802  17.748  1.00 28.74 LIG 0.10  C 
BRANCH 63 64
ATOM     64  CG  HIS X   2       4.878  -1.828  17.702  1.00 28.63 LIG 0.06  A 
ATOM     65 ND1  HIS X   2       4.117  -2.044  16.578  1.00 31.27 LIG-0.24  NA
ATOM     66  CE1 HIS X   2       3.253  -3.014  16.812  1.00 28.11 LIG 0.23  A 
ATOM     67 NE2  HIS X   2       3.418  -3.431  18.052  1.00 29.87 LIG-0.25  NA
ATOM     68  CD2 HIS X   2       4.437  -2.710  18.630  1.00 31.84 LIG 0.14  A 
ENDBRANCH 63 64
ENDBRANCH 38 63
ENDBRANCH 3 38
TORSDOF 24
ENDMDL
MODEL 80
USER: ADFR SOLUTION from run 38
USER: SCORE 17.449238 LL:  -5.850 LR: -13.427 RR:   0.000 FEB:  -6.268
USER: RMSD 9.727625
USER: SEED 37
USER: STATUS no improvement in best in 14 clusters for 5 generations
USER: GENES 26
USER: genes 0 Translation |==|  0.48688 0.59083 0.38832
USER: genes 1 Rotation |==|  0.09143 0.77849 0.50042 0.57423
USER: genes 2 Torsion [N]-C--CA-[N] |==|  0.24420
USER: genes 3 Torsion [C]-CA--N-[C] |==|  0.64728
USER: genes 4 Torsion [N]-C--CA-[N] |==|  0.31309
USER: genes 5 Torsion [C]-CA--N-[C] |==|  0.51874
USER: genes 6 Torsion [N]-C--CA-[N] |==|  0.00274
USER: genes 7 Torsion [C]-CA--N-[H2] |==|  0.69943
USER: genes 8 Torsion [C]-CA--CB-[CG] |==|  0.87831
USER: genes 9 Torsion [CA]-CB--CG-[ND1] |==|  0.85912
USER: genes 10 Torsion [C]-CA--CB-[CG] |==|  0.33984
USER: genes 11 Torsion [CA]-CB--CG-[CD2] |==|  0.67719
USER: genes 12 Torsion [C]-CA--CB-[CG] |==|  0.10617
USER: genes 13 Torsion [CA]-CB--CG-[CD2] |==|  0.22244
USER: genes 14 Torsion [C]-N--CA-[C] |==|  0.20137
USER: genes 15 Torsion [N]-CA--C-[N] |==|  0.81669
USER: genes 16 Torsion [C]-N--CA-[CB] |==|  0.83139
USER: genes 17 Torsion [N]-CA--CB-[CG] |==|  0.62365
USER: genes 18 Torsion [CA]-CB--CG-[ND1] |==|  0.82941
USER: genes 19 Torsion [N]-CA--C-[N] |==|  0.38398
USER: genes 20 Torsion [C]-N--CA-[C] |==|  0.58638
USER: genes 21 Torsion [N]-CA--C-[O] |==|  0.19637
USER: genes 22 Torsion [N]-CA--CB-[CG] |==|  0.81001
USER: genes 23 Torsion [CA]-CB--CG-[ND1] |==|  0.76085
USER: genes 24 Torsion [N]-CA--CB-[CG] |==|  0.85399
USER: genes 25 Torsion [CA]-CB--CG-[CD2] |==|  0.94938
ROOT
ATOM      1  C   HIS X   1       2.364   2.198  17.560  1.00 40.87 LIG 0.24  C 
ATOM      2 O    HIS X   1       1.945   3.356  17.643  1.00 40.80 LIG-0.27  OA
ATOM      3  N   HIS X   2       3.260   1.665  18.368  1.00 30.16 LIG-0.35  N 
ATOM      4 H    HIS X   2       3.553   0.861  18.283  1.00 30.16 LIG 0.16  HD
ENDROOT
BRANCH 1 5
ATOM      5  CA  HIS X   1       1.878   1.232  16.500  1.00 48.06 LIG 0.18  C 
BRANCH 5 6
ATOM      6  N   HIS X   1       0.742   0.467  17.020  1.00 54.11 LIG-0.35  N 
ATOM      7 H    HIS X   1       0.107   0.954  17.336  1.00 54.11 LIG 0.16  HD
ATOM      8  C   HIS X   0       0.704  -0.850  16.999  1.00 58.54 LIG 0.24  C 
ATOM      9 O    HIS X   0       1.684  -1.561  16.768  1.00 63.37 LIG-0.27  OA
BRANCH 8 10
ATOM     10  CA  HIS X   0      -0.669  -1.433  17.288  1.00 62.53 LIG 0.18  C 
BRANCH 10 11
ATOM     11  N   HIS X   0      -1.248  -2.105  16.119  1.00 60.73 LIG-0.35  N 
ATOM     12  C   HIS X  -1      -2.491  -2.558  16.138  1.00 60.09 LIG 0.25  C 
ATOM     13 O    HIS X  -1      -3.371  -2.100  16.871  1.00 62.79 LIG-0.27  OA
ATOM     14 H    HIS X   0      -0.719  -2.172  15.445  1.00 60.73 LIG 0.16  HD
BRANCH 12 15
ATOM     15  CA  HIS X  -1      -2.780  -3.679  15.148  1.00 59.53 LIG 0.28  C 
BRANCH 15 16
ATOM     16  N   HIS X  -1      -1.533  -4.020  14.384  1.00 57.14 LIG-0.07  N 
ATOM     17 H3   HIS X  -1      -0.832  -3.628  14.769  1.00 57.14 LIG 0.28  HD
ATOM     18 H2   HIS X  -1      -1.610  -3.732  13.545  1.00 57.14 LIG 0.28  HD
ATOM     19 H1   HIS X  -1      -1.415  -4.903  14.385  1.00 57.14 LIG 0.28  HD
ENDBRANCH 15 16
BRANCH 15 20
ATOM     20  CB  HIS X  -1      -3.332  -4.916  15.858  1.00 57.27 LIG 0.10  C 
BRANCH 20 21
ATOM     21  CG  HIS X  -1      -2.607  -5.263  17.117  1.00 54.13 LIG 0.06  A 
ATOM     22 ND1  HIS X  -1      -1.234  -5.381  17.177  1.00 52.72 LIG-0.24  NA
ATOM     23  CE1 HIS X  -1      -0.878  -5.713  18.407  1.00 54.35 LIG 0.23  A 
ATOM     24 NE2  HIS X  -1      -1.969  -5.816  19.146  1.00 53.65 LIG-0.25  NA
ATOM     25  CD2 HIS X  -1      -3.065  -5.537  18.363  1.00 55.23 LIG 0.14  A 
ENDBRANCH 20 21
ENDBRANCH 15 20
ENDBRANCH 12 15
ENDBRANCH 10 11
BRANCH 10 26
ATOM     26  CB  HIS X   0      -0.595  -2.376  18.509  1.00 64.99 LIG 0.10  C 
BRANCH 26 27
ATOM     27  CG  HIS X   0      -1.514  -1.997  19.635  1.00 69.41 LIG 0.06  A 
ATOM     28 ND1  HIS X   0      -2.889  -2.021  19.516  1.00 72.01 LIG-0.24  NA
ATOM     29  CE1 HIS X   0      -3.436  -1.649  20.661  1.00 72.69 LIG 0.23  A 
ATOM     30 NE2  HIS X   0      -2.467  -1.389  21.520  1.00 72.94 LIG-0.25  NA
ATOM     31  CD2 HIS X   0      -1.255  -1.604  20.905  1.00 71.12 LIG 0.14  A 
ENDBRANCH 26 27
ENDBRANCH 10 26
ENDBRANCH 8 10
ENDBRANCH 5 6
BRANCH 5 32
ATOM     32  CB  HIS X   1       1.472   1.993  15.240  1.00 48.25 LIG 0.10  C 
BRANCH 32 33
ATOM     33  CG  HIS X   1       2.366   3.151  14.922  1.00 50.36 LIG 0.06  A 
ATOM     34  CD2 HIS X   1       3.581   3.198  14.322  1.00 51.47 LIG 0.14  A 
ATOM     35 NE2  HIS X   1       3.956   4.519  14.270  1.00 50.72 LIG-0.25  NA
ATOM     36  CE1 HIS X   1       3.005   5.256  14.819  1.00 48.50 LIG 0.23  A 
ATOM     37 ND1  HIS X   1       2.034   4.457  15.222  1.00 47.89 LIG-0.24  NA
ENDBRANCH 32 33
ENDBRANCH 5 32
ENDBRANCH 1 5
BRANCH 3 38
ATOM     38  CA  HIS X   2       3.853   2.401  19.507  1.00 26.25 LIG 0.18  C 
BRANCH 38 39
ATOM     39  C   HIS X   2       2.874   2.592  20.662  1.00 23.72 LIG 0.24  C 
ATOM     40  N   HIS X   3       1.846   3.373  20.375  1.00 22.33 LIG-0.35  N 
ATOM     41 H    HIS X   3       1.738   3.759  19.614  1.00 22.33 LIG 0.16  HD
ATOM     42 O    HIS X   2       3.046   2.067  21.772  1.00 19.88 LIG-0.27  OA
BRANCH 40 43
ATOM     43  CA  HIS X   3       0.782   3.654  21.352  1.00 22.38 LIG 0.18  C 
BRANCH 43 44
ATOM     44  CB  HIS X   3       0.020   2.375  21.821  1.00 22.51 LIG 0.10  C 
BRANCH 44 45
ATOM     45  CG  HIS X   3      -1.477   2.499  21.878  1.00 18.10 LIG 0.06  A 
ATOM     46  CD2 HIS X   3      -2.462   1.791  21.273  1.00 18.75 LIG 0.14  A 
ATOM     47 NE2  HIS X   3      -3.661   2.301  21.715  1.00 20.06 LIG-0.25  NA
ATOM     48  CE1 HIS X   3      -3.419   3.276  22.572  1.00 21.69 LIG 0.23  A 
ATOM     49 ND1  HIS X   3      -2.109   3.403  22.698  1.00 17.48 LIG-0.24  NA
ENDBRANCH 44 45
ENDBRANCH 43 44
BRANCH 43 50
ATOM     50  C   HIS X   3       1.308   4.486  22.520  1.00 21.59 LIG 0.24  C 
ATOM     51 O    HIS X   3       2.372   4.233  23.073  1.00 25.47 LIG-0.27  OA
ATOM     52  N   HIS X   4       0.507   5.450  22.924  1.00 25.63 LIG-0.35  N 
ATOM     53 H    HIS X   4      -0.257   5.625  22.571  1.00 25.63 LIG 0.16  HD
BRANCH 52 54
ATOM     54  CA  HIS X   4       0.878   6.320  24.045  1.00 23.96 LIG 0.17  C 
BRANCH 54 55
ATOM     55  C   HIS X   4      -0.404   6.750  24.766  1.00 31.35 LIG 0.22  C 
ATOM     56 O    HIS X   4      -1.060   5.950  25.435  1.00 37.06 LIG-0.29  OA
ENDBRANCH 54 55
BRANCH 54 57
ATOM     57  CB  HIS X   4       1.690   7.535  23.580  1.00 23.83 LIG 0.09  C 
BRANCH 57 58
ATOM     58  CG  HIS X   4       3.066   7.192  23.073  1.00 22.57 LIG 0.06  A 
ATOM     59 ND1  HIS X   4       4.167   7.069  23.900  1.00 22.63 LIG-0.24  NA
ATOM     60  CE1 HIS X   4       5.228   6.759  23.174  1.00 19.94 LIG 0.23  A 
ATOM     61 NE2  HIS X   4       4.862   6.693  21.908  1.00 20.25 LIG-0.25  NA
ATOM     62  CD2 HIS X   4       3.513   6.946  21.820  1.00 21.52 LIG 0.14  A 
ENDBRANCH 57 58
ENDBRANCH 54 57
ENDBRANCH 52 54
ENDBRANCH 43 50
ENDBRANCH 40 43
ENDBRANCH 38 39
BRANCH 38 63
ATOM     63  CB  HIS X   2       4.383   3.768  19.058  1.00 28.74 LIG 0.10  C 
BRANCH 63 64
ATOM     64  CG  HIS X   2       5.310   3.699  17.891  1.00 28.63 LIG 0.06  A 
ATOM     65 ND1  HIS X   2       5.614   4.802  17.128  1.00 31.27 LIG-0.24  NA
ATOM     66  CE1 HIS X   2       6.465   4.459  16.180  1.00 28.11 LIG 0.23  A 
ATOM     67 NE2  HIS X   2       6.719   3.169  16.292  1.00 29.87 LIG-0.25  NA
ATOM     68  CD2 HIS X   2       6.013   2.670  17.362  1.00 31.84 LIG 0.14  A 
ENDBRANCH 63 64
ENDBRANCH 38 63
ENDBRANCH 3 38
TORSDOF 24
ENDMDL
MODEL 81
USER: ADFR SOLUTION from run 17
USER: SCORE 19.048260 LL:  -6.602 LR: -13.427 RR:   0.000 FEB:  -6.267
USER: RMSD 6.710013
USER: SEED 16
USER: STATUS searching
USER: GENES 26
USER: genes 0 Translation |==|  0.47441 0.51302 0.35235
USER: genes 1 Rotation |==|  0.49212 0.98072 0.63613 0.51776
USER: genes 2 Torsion [N]-C--CA-[N] |==|  0.32520
USER: genes 3 Torsion [C]-CA--N-[C] |==|  0.79857
USER: genes 4 Torsion [N]-C--CA-[N] |==|  0.41333
USER: genes 5 Torsion [C]-CA--N-[C] |==|  0.66962
USER: genes 6 Torsion [N]-C--CA-[N] |==|  0.51238
USER: genes 7 Torsion [C]-CA--N-[H2] |==|  0.29576
USER: genes 8 Torsion [C]-CA--CB-[CG] |==|  0.83440
USER: genes 9 Torsion [CA]-CB--CG-[ND1] |==|  0.74854
USER: genes 10 Torsion [C]-CA--CB-[CG] |==|  0.01336
USER: genes 11 Torsion [CA]-CB--CG-[CD2] |==|  0.27414
USER: genes 12 Torsion [C]-CA--CB-[CG] |==|  0.74022
USER: genes 13 Torsion [CA]-CB--CG-[CD2] |==|  0.65840
USER: genes 14 Torsion [C]-N--CA-[C] |==|  0.57933
USER: genes 15 Torsion [N]-CA--C-[N] |==|  0.12611
USER: genes 16 Torsion [C]-N--CA-[CB] |==|  0.85957
USER: genes 17 Torsion [N]-CA--CB-[CG] |==|  0.86149
USER: genes 18 Torsion [CA]-CB--CG-[ND1] |==|  0.16539
USER: genes 19 Torsion [N]-CA--C-[N] |==|  0.88334
USER: genes 20 Torsion [C]-N--CA-[C] |==|  0.78487
USER: genes 21 Torsion [N]-CA--C-[O] |==|  0.02454
USER: genes 22 Torsion [N]-CA--CB-[CG] |==|  0.40102
USER: genes 23 Torsion [CA]-CB--CG-[ND1] |==|  0.28816
USER: genes 24 Torsion [N]-CA--CB-[CG] |==|  0.11153
USER: genes 25 Torsion [CA]-CB--CG-[CD2] |==|  0.57335
ROOT
ATOM      1  C   HIS X   1       2.112   0.330  16.912  1.00 40.87 LIG 0.24  C 
ATOM      2 O    HIS X   1       3.344   0.391  16.879  1.00 40.80 LIG-0.27  OA
ATOM      3  N   HIS X   2       1.420  -0.782  17.066  1.00 30.16 LIG-0.35  N 
ATOM      4 H    HIS X   2       0.561  -0.806  17.069  1.00 30.16 LIG 0.16  HD
ENDROOT
BRANCH 1 5
ATOM      5  CA  HIS X   1       1.234   1.558  16.787  1.00 48.06 LIG 0.18  C 
BRANCH 5 6
ATOM      6  N   HIS X   1       1.495   2.463  17.910  1.00 54.11 LIG-0.35  N 
ATOM      7 H    HIS X   1       1.932   3.172  17.693  1.00 54.11 LIG 0.16  HD
ATOM      8  C   HIS X   0       1.093   2.205  19.137  1.00 58.54 LIG 0.24  C 
ATOM      9 O    HIS X   0       0.677   1.105  19.507  1.00 63.37 LIG-0.27  OA
BRANCH 8 10
ATOM     10  CA  HIS X   0       1.184   3.394  20.079  1.00 62.53 LIG 0.18  C 
BRANCH 10 11
ATOM     11  N   HIS X   0       0.143   3.366  21.114  1.00 60.73 LIG-0.35  N 
ATOM     12  C   HIS X  -1      -0.749   4.339  21.210  1.00 60.09 LIG 0.25  C 
ATOM     13 O    HIS X  -1      -1.082   5.053  20.262  1.00 62.79 LIG-0.27  OA
ATOM     14 H    HIS X   0       0.171   2.681  21.633  1.00 60.73 LIG 0.16  HD
BRANCH 12 15
ATOM     15  CA  HIS X  -1      -1.381   4.495  22.589  1.00 59.53 LIG 0.28  C 
BRANCH 15 16
ATOM     16  N   HIS X  -1      -2.448   5.551  22.544  1.00 57.14 LIG-0.07  N 
ATOM     17 H3   HIS X  -1      -2.353   6.099  23.239  1.00 57.14 LIG 0.28  HD
ATOM     18 H2   HIS X  -1      -3.250   5.165  22.580  1.00 57.14 LIG 0.28  HD
ATOM     19 H1   HIS X  -1      -2.376   6.015  21.788  1.00 57.14 LIG 0.28  HD
ENDBRANCH 15 16
BRANCH 15 20
ATOM     20  CB  HIS X  -1      -1.955   3.169  23.088  1.00 57.27 LIG 0.10  C 
BRANCH 20 21
ATOM     21  CG  HIS X  -1      -3.010   2.595  22.199  1.00 54.13 LIG 0.06  A 
ATOM     22 ND1  HIS X  -1      -4.350   2.877  22.357  1.00 52.72 LIG-0.24  NA
ATOM     23  CE1 HIS X  -1      -5.046   2.219  21.445  1.00 54.35 LIG 0.23  A 
ATOM     24 NE2  HIS X  -1      -4.206   1.518  20.702  1.00 53.65 LIG-0.25  NA
ATOM     25  CD2 HIS X  -1      -2.924   1.738  21.153  1.00 55.23 LIG 0.14  A 
ENDBRANCH 20 21
ENDBRANCH 15 20
ENDBRANCH 12 15
ENDBRANCH 10 11
BRANCH 10 26
ATOM     26  CB  HIS X   0       2.598   3.474  20.694  1.00 64.99 LIG 0.10  C 
BRANCH 26 27
ATOM     27  CG  HIS X   0       3.563   2.461  20.148  1.00 69.41 LIG 0.06  A 
ATOM     28 ND1  HIS X   0       3.590   1.149  20.576  1.00 72.01 LIG-0.24  NA
ATOM     29  CE1 HIS X   0       4.530   0.491  19.920  1.00 72.69 LIG 0.23  A 
ATOM     30 NE2  HIS X   0       5.112   1.326  19.078  1.00 72.94 LIG-0.25  NA
ATOM     31  CD2 HIS X   0       4.523   2.564  19.197  1.00 71.12 LIG 0.14  A 
ENDBRANCH 26 27
ENDBRANCH 10 26
ENDBRANCH 8 10
ENDBRANCH 5 6
BRANCH 5 32
ATOM     32  CB  HIS X   1       1.506   2.266  15.462  1.00 48.25 LIG 0.10  C 
BRANCH 32 33
ATOM     33  CG  HIS X   1       2.525   3.358  15.561  1.00 50.36 LIG 0.06  A 
ATOM     34  CD2 HIS X   1       2.450   4.676  15.251  1.00 51.47 LIG 0.14  A 
ATOM     35 NE2  HIS X   1       3.672   5.231  15.544  1.00 50.72 LIG-0.25  NA
ATOM     36  CE1 HIS X   1       4.468   4.288  16.019  1.00 48.50 LIG 0.23  A 
ATOM     37 ND1  HIS X   1       3.803   3.148  16.038  1.00 47.89 LIG-0.24  NA
ENDBRANCH 32 33
ENDBRANCH 5 32
ENDBRANCH 1 5
BRANCH 3 38
ATOM     38  CA  HIS X   2       2.057  -2.105  17.250  1.00 26.25 LIG 0.18  C 
BRANCH 38 39
ATOM     39  C   HIS X   2       1.198  -3.253  16.730  1.00 23.72 LIG 0.24  C 
ATOM     40  N   HIS X   3       0.669  -3.034  15.538  1.00 22.33 LIG-0.35  N 
ATOM     41 H    HIS X   3       0.779  -2.306  15.093  1.00 22.33 LIG 0.16  HD
ATOM     42 O    HIS X   2       1.007  -4.290  17.383  1.00 19.88 LIG-0.27  OA
BRANCH 40 43
ATOM     43  CA  HIS X   3      -0.167  -4.036  14.858  1.00 22.38 LIG 0.18  C 
BRANCH 43 44
ATOM     44  CB  HIS X   3       0.489  -5.452  14.798  1.00 22.51 LIG 0.10  C 
BRANCH 44 45
ATOM     45  CG  HIS X   3       1.905  -5.487  14.294  1.00 18.10 LIG 0.06  A 
ATOM     46  CD2 HIS X   3       2.454  -6.063  13.197  1.00 18.75 LIG 0.14  A 
ATOM     47 NE2  HIS X   3       3.792  -5.741  13.195  1.00 20.06 LIG-0.25  NA
ATOM     48  CE1 HIS X   3       4.050  -4.983  14.245  1.00 21.69 LIG 0.23  A 
ATOM     49 ND1  HIS X   3       2.923  -4.803  14.913  1.00 17.48 LIG-0.24  NA
ENDBRANCH 44 45
ENDBRANCH 43 44
BRANCH 43 50
ATOM     50  C   HIS X   3      -1.579  -4.068  15.441  1.00 21.59 LIG 0.24  C 
ATOM     51 O    HIS X   3      -2.576  -4.105  14.730  1.00 25.47 LIG-0.27  OA
ATOM     52  N   HIS X   4      -1.642  -3.990  16.754  1.00 25.63 LIG-0.35  N 
ATOM     53 H    HIS X   4      -0.956  -3.933  17.270  1.00 25.63 LIG 0.16  HD
BRANCH 52 54
ATOM     54  CA  HIS X   4      -2.932  -3.997  17.449  1.00 23.96 LIG 0.17  C 
BRANCH 54 55
ATOM     55  C   HIS X   4      -3.560  -2.605  17.314  1.00 31.35 LIG 0.22  C 
ATOM     56 O    HIS X   4      -3.071  -1.753  16.570  1.00 37.06 LIG-0.29  OA
ENDBRANCH 54 55
BRANCH 54 57
ATOM     57  CB  HIS X   4      -2.786  -4.401  18.921  1.00 23.83 LIG 0.09  C 
BRANCH 57 58
ATOM     58  CG  HIS X   4      -3.727  -3.680  19.850  1.00 22.57 LIG 0.06  A 
ATOM     59 ND1  HIS X   4      -4.860  -4.268  20.382  1.00 22.63 LIG-0.24  NA
ATOM     60  CE1 HIS X   4      -5.480  -3.397  21.161  1.00 19.94 LIG 0.23  A 
ATOM     61 NE2  HIS X   4      -4.804  -2.264  21.140  1.00 20.25 LIG-0.25  NA
ATOM     62  CD2 HIS X   4      -3.697  -2.420  20.340  1.00 21.52 LIG 0.14  A 
ENDBRANCH 57 58
ENDBRANCH 54 57
ENDBRANCH 52 54
ENDBRANCH 43 50
ENDBRANCH 40 43
ENDBRANCH 38 39
BRANCH 38 63
ATOM     63  CB  HIS X   2       2.393  -2.349  18.726  1.00 28.74 LIG 0.10  C 
BRANCH 63 64
ATOM     64  CG  HIS X   2       1.338  -1.873  19.669  1.00 28.63 LIG 0.06  A 
ATOM     65 ND1  HIS X   2       0.014  -1.793  19.310  1.00 31.27 LIG-0.24  NA
ATOM     66  CE1 HIS X   2      -0.694  -1.361  20.337  1.00 28.11 LIG 0.23  A 
ATOM     67 NE2  HIS X   2       0.124  -1.147  21.349  1.00 29.87 LIG-0.25  NA
ATOM     68  CD2 HIS X   2       1.404  -1.469  20.960  1.00 31.84 LIG 0.14  A 
ENDBRANCH 63 64
ENDBRANCH 38 63
ENDBRANCH 3 38
TORSDOF 24
ENDMDL
MODEL 82
USER: ADFR SOLUTION from run 119
USER: SCORE 17.563077 LL:  -5.868 LR: -13.425 RR:   0.000 FEB:  -6.266
USER: RMSD 6.694060
USER: SEED 118
USER: STATUS no improvement in best in 34 clusters for 5 generations
USER: GENES 26
USER: genes 0 Translation |==|  0.41540 0.53528 0.29139
USER: genes 1 Rotation |==|  0.30728 0.24615 0.37579 0.86468
USER: genes 2 Torsion [N]-C--CA-[N] |==|  0.86111
USER: genes 3 Torsion [C]-CA--N-[C] |==|  0.20725
USER: genes 4 Torsion [N]-C--CA-[N] |==|  0.90686
USER: genes 5 Torsion [C]-CA--N-[C] |==|  0.77099
USER: genes 6 Torsion [N]-C--CA-[N] |==|  0.00938
USER: genes 7 Torsion [C]-CA--N-[H2] |==|  0.22391
USER: genes 8 Torsion [C]-CA--CB-[CG] |==|  0.28777
USER: genes 9 Torsion [CA]-CB--CG-[ND1] |==|  0.81788
USER: genes 10 Torsion [C]-CA--CB-[CG] |==|  0.54134
USER: genes 11 Torsion [CA]-CB--CG-[CD2] |==|  0.78101
USER: genes 12 Torsion [C]-CA--CB-[CG] |==|  0.31422
USER: genes 13 Torsion [CA]-CB--CG-[CD2] |==|  0.99063
USER: genes 14 Torsion [C]-N--CA-[C] |==|  0.69788
USER: genes 15 Torsion [N]-CA--C-[N] |==|  0.74003
USER: genes 16 Torsion [C]-N--CA-[CB] |==|  0.78262
USER: genes 17 Torsion [N]-CA--CB-[CG] |==|  0.48075
USER: genes 18 Torsion [CA]-CB--CG-[ND1] |==|  0.67251
USER: genes 19 Torsion [N]-CA--C-[N] |==|  0.20988
USER: genes 20 Torsion [C]-N--CA-[C] |==|  0.71554
USER: genes 21 Torsion [N]-CA--C-[O] |==|  0.14997
USER: genes 22 Torsion [N]-CA--CB-[CG] |==|  0.91530
USER: genes 23 Torsion [CA]-CB--CG-[ND1] |==|  0.35917
USER: genes 24 Torsion [N]-CA--CB-[CG] |==|  0.03990
USER: genes 25 Torsion [CA]-CB--CG-[CD2] |==|  0.23365
ROOT
ATOM      1  C   HIS X   1       0.917   0.865  15.815  1.00 40.87 LIG 0.24  C 
ATOM      2 O    HIS X   1       0.380   0.923  14.705  1.00 40.80 LIG-0.27  OA
ATOM      3  N   HIS X   2       0.954  -0.212  16.575  1.00 30.16 LIG-0.35  N 
ATOM      4 H    HIS X   2       1.317  -0.229  17.354  1.00 30.16 LIG 0.16  HD
ENDROOT
BRANCH 1 5
ATOM      5  CA  HIS X   1       1.619   2.051  16.441  1.00 48.06 LIG 0.18  C 
BRANCH 5 6
ATOM      6  N   HIS X   1       1.141   2.235  17.813  1.00 54.11 LIG-0.35  N 
ATOM      7 H    HIS X   1       0.605   2.901  17.910  1.00 54.11 LIG 0.16  HD
ATOM      8  C   HIS X   0       1.505   1.446  18.803  1.00 58.54 LIG 0.24  C 
ATOM      9 O    HIS X   0       2.437   0.643  18.734  1.00 63.37 LIG-0.27  OA
BRANCH 8 10
ATOM     10  CA  HIS X   0       0.668   1.607  20.061  1.00 62.53 LIG 0.18  C 
BRANCH 10 11
ATOM     11  N   HIS X   0       0.213   2.989  20.256  1.00 60.73 LIG-0.35  N 
ATOM     12  C   HIS X  -1       1.002   3.895  20.812  1.00 60.09 LIG 0.25  C 
ATOM     13 O    HIS X  -1       2.233   3.829  20.793  1.00 62.79 LIG-0.27  OA
ATOM     14 H    HIS X   0      -0.587   3.146  19.984  1.00 60.73 LIG 0.16  HD
BRANCH 12 15
ATOM     15  CA  HIS X  -1       0.276   5.069  21.456  1.00 59.53 LIG 0.28  C 
BRANCH 15 16
ATOM     16  N   HIS X  -1      -1.209   4.862  21.368  1.00 57.14 LIG-0.07  N 
ATOM     17 H3   HIS X  -1      -1.625   5.644  21.461  1.00 57.14 LIG 0.28  HD
ATOM     18 H2   HIS X  -1      -1.471   4.309  22.015  1.00 57.14 LIG 0.28  HD
ATOM     19 H1   HIS X  -1      -1.414   4.510  20.576  1.00 57.14 LIG 0.28  HD
ENDBRANCH 15 16
BRANCH 15 20
ATOM     20  CB  HIS X  -1       0.707   5.257  22.911  1.00 57.27 LIG 0.10  C 
BRANCH 20 21
ATOM     21  CG  HIS X  -1       1.650   6.398  23.119  1.00 54.13 LIG 0.06  A 
ATOM     22 ND1  HIS X  -1       2.924   6.416  22.593  1.00 52.72 LIG-0.24  NA
ATOM     23  CE1 HIS X  -1       3.530   7.534  22.954  1.00 54.35 LIG 0.23  A 
ATOM     24 NE2  HIS X  -1       2.695   8.242  23.697  1.00 53.65 LIG-0.25  NA
ATOM     25  CD2 HIS X  -1       1.510   7.553  23.814  1.00 55.23 LIG 0.14  A 
ENDBRANCH 20 21
ENDBRANCH 15 20
ENDBRANCH 12 15
ENDBRANCH 10 11
BRANCH 10 26
ATOM     26  CB  HIS X   0      -0.515   0.616  20.039  1.00 64.99 LIG 0.10  C 
BRANCH 26 27
ATOM     27  CG  HIS X   0      -1.592   0.920  21.040  1.00 69.41 LIG 0.06  A 
ATOM     28 ND1  HIS X   0      -2.784   1.525  20.694  1.00 72.01 LIG-0.24  NA
ATOM     29  CE1 HIS X   0      -3.538   1.660  21.772  1.00 72.69 LIG 0.23  A 
ATOM     30 NE2  HIS X   0      -2.882   1.160  22.804  1.00 72.94 LIG-0.25  NA
ATOM     31  CD2 HIS X   0      -1.664   0.686  22.373  1.00 71.12 LIG 0.14  A 
ENDBRANCH 26 27
ENDBRANCH 10 26
ENDBRANCH 8 10
ENDBRANCH 5 6
BRANCH 5 32
ATOM     32  CB  HIS X   1       3.131   1.834  16.431  1.00 48.25 LIG 0.10  C 
BRANCH 32 33
ATOM     33  CG  HIS X   1       3.869   2.779  15.535  1.00 50.36 LIG 0.06  A 
ATOM     34  CD2 HIS X   1       3.418   3.743  14.695  1.00 51.47 LIG 0.14  A 
ATOM     35 NE2  HIS X   1       4.521   4.324  14.117  1.00 50.72 LIG-0.25  NA
ATOM     36  CE1 HIS X   1       5.609   3.738  14.586  1.00 48.50 LIG 0.23  A 
ATOM     37 ND1  HIS X   1       5.245   2.801  15.442  1.00 47.89 LIG-0.24  NA
ENDBRANCH 32 33
ENDBRANCH 5 32
ENDBRANCH 1 5
BRANCH 3 38
ATOM     38  CA  HIS X   2       0.370  -1.508  16.160  1.00 26.25 LIG 0.18  C 
BRANCH 38 39
ATOM     39  C   HIS X   2      -0.895  -1.863  16.934  1.00 23.72 LIG 0.24  C 
ATOM     40  N   HIS X   3      -0.682  -2.619  17.999  1.00 22.33 LIG-0.35  N 
ATOM     41 H    HIS X   3       0.095  -2.905  18.234  1.00 22.33 LIG 0.16  HD
ATOM     42 O    HIS X   2      -2.021  -1.484  16.579  1.00 19.88 LIG-0.27  OA
BRANCH 40 43
ATOM     43  CA  HIS X   3      -1.775  -3.042  18.889  1.00 22.38 LIG 0.18  C 
BRANCH 43 44
ATOM     44  CB  HIS X   3      -2.237  -1.924  19.876  1.00 22.51 LIG 0.10  C 
BRANCH 44 45
ATOM     45  CG  HIS X   3      -3.456  -2.248  20.693  1.00 18.10 LIG 0.06  A 
ATOM     46  CD2 HIS X   3      -3.669  -3.172  21.663  1.00 18.75 LIG 0.14  A 
ATOM     47 NE2  HIS X   3      -4.959  -3.002  22.110  1.00 20.06 LIG-0.25  NA
ATOM     48  CE1 HIS X   3      -5.511  -2.001  21.450  1.00 21.69 LIG 0.23  A 
ATOM     49 ND1  HIS X   3      -4.618  -1.520  20.601  1.00 17.48 LIG-0.24  NA
ENDBRANCH 44 45
ENDBRANCH 43 44
BRANCH 43 50
ATOM     50  C   HIS X   3      -2.936  -3.640  18.094  1.00 21.59 LIG 0.24  C 
ATOM     51 O    HIS X   3      -3.996  -3.044  17.944  1.00 25.47 LIG-0.27  OA
ATOM     52  N   HIS X   4      -2.732  -4.859  17.641  1.00 25.63 LIG-0.35  N 
ATOM     53 H    HIS X   4      -2.008  -5.306  17.762  1.00 25.63 LIG 0.16  HD
BRANCH 52 54
ATOM     54  CA  HIS X   4      -3.765  -5.560  16.873  1.00 23.96 LIG 0.17  C 
BRANCH 54 55
ATOM     55  C   HIS X   4      -4.447  -6.575  17.797  1.00 31.35 LIG 0.22  C 
ATOM     56 O    HIS X   4      -4.934  -6.231  18.875  1.00 37.06 LIG-0.29  OA
ENDBRANCH 54 55
BRANCH 54 57
ATOM     57  CB  HIS X   4      -3.186  -6.243  15.627  1.00 23.83 LIG 0.09  C 
BRANCH 57 58
ATOM     58  CG  HIS X   4      -1.992  -5.535  15.042  1.00 22.57 LIG 0.06  A 
ATOM     59 ND1  HIS X   4      -0.805  -6.179  14.743  1.00 22.63 LIG-0.24  NA
ATOM     60  CE1 HIS X   4       0.051  -5.305  14.239  1.00 19.94 LIG 0.23  A 
ATOM     61 NE2  HIS X   4      -0.528  -4.120  14.217  1.00 20.25 LIG-0.25  NA
ATOM     62  CD2 HIS X   4      -1.810  -4.240  14.700  1.00 21.52 LIG 0.14  A 
ENDBRANCH 57 58
ENDBRANCH 54 57
ENDBRANCH 52 54
ENDBRANCH 43 50
ENDBRANCH 40 43
ENDBRANCH 38 39
BRANCH 38 63
ATOM     63  CB  HIS X   2       1.393  -2.641  16.309  1.00 28.74 LIG 0.10  C 
BRANCH 63 64
ATOM     64  CG  HIS X   2       2.583  -2.271  17.131  1.00 28.63 LIG 0.06  A 
ATOM     65 ND1  HIS X   2       3.751  -1.815  16.569  1.00 31.27 LIG-0.24  NA
ATOM     66  CE1 HIS X   2       4.623  -1.549  17.523  1.00 28.11 LIG 0.23  A 
ATOM     67 NE2  HIS X   2       4.067  -1.826  18.687  1.00 29.87 LIG-0.25  NA
ATOM     68  CD2 HIS X   2       2.784  -2.273  18.470  1.00 31.84 LIG 0.14  A 
ENDBRANCH 63 64
ENDBRANCH 38 63
ENDBRANCH 3 38
TORSDOF 24
ENDMDL
MODEL 83
USER: ADFR SOLUTION from run 156
USER: SCORE 18.557783 LL:  -6.135 LR: -13.419 RR:   0.000 FEB:  -6.260
USER: RMSD 9.067768
USER: SEED 155
USER: STATUS no improvement in best in 7 clusters for 5 generations
USER: GENES 26
USER: genes 0 Translation |==|  0.36267 0.38815 0.44571
USER: genes 1 Rotation |==|  0.58626 0.50196 0.92455 0.74963
USER: genes 2 Torsion [N]-C--CA-[N] |==|  0.94641
USER: genes 3 Torsion [C]-CA--N-[C] |==|  0.74506
USER: genes 4 Torsion [N]-C--CA-[N] |==|  0.71609
USER: genes 5 Torsion [C]-CA--N-[C] |==|  0.63642
USER: genes 6 Torsion [N]-C--CA-[N] |==|  0.31212
USER: genes 7 Torsion [C]-CA--N-[H2] |==|  0.84846
USER: genes 8 Torsion [C]-CA--CB-[CG] |==|  0.72590
USER: genes 9 Torsion [CA]-CB--CG-[ND1] |==|  0.69712
USER: genes 10 Torsion [C]-CA--CB-[CG] |==|  0.43765
USER: genes 11 Torsion [CA]-CB--CG-[CD2] |==|  0.96586
USER: genes 12 Torsion [C]-CA--CB-[CG] |==|  0.92641
USER: genes 13 Torsion [CA]-CB--CG-[CD2] |==|  0.31710
USER: genes 14 Torsion [C]-N--CA-[C] |==|  0.75671
USER: genes 15 Torsion [N]-CA--C-[N] |==|  0.92222
USER: genes 16 Torsion [C]-N--CA-[CB] |==|  0.84338
USER: genes 17 Torsion [N]-CA--CB-[CG] |==|  0.30111
USER: genes 18 Torsion [CA]-CB--CG-[ND1] |==|  0.18678
USER: genes 19 Torsion [N]-CA--C-[N] |==|  0.36325
USER: genes 20 Torsion [C]-N--CA-[C] |==|  0.53296
USER: genes 21 Torsion [N]-CA--C-[O] |==|  0.89555
USER: genes 22 Torsion [N]-CA--CB-[CG] |==|  0.66916
USER: genes 23 Torsion [CA]-CB--CG-[ND1] |==|  0.99419
USER: genes 24 Torsion [N]-CA--CB-[CG] |==|  0.25486
USER: genes 25 Torsion [CA]-CB--CG-[CD2] |==|  0.36850
ROOT
ATOM      1  C   HIS X   1      -0.151  -2.666  18.593  1.00 40.87 LIG 0.24  C 
ATOM      2 O    HIS X   1       0.454  -3.717  18.359  1.00 40.80 LIG-0.27  OA
ATOM      3  N   HIS X   2       0.024  -1.538  17.933  1.00 30.16 LIG-0.35  N 
ATOM      4 H    HIS X   2      -0.394  -0.811  18.122  1.00 30.16 LIG 0.16  HD
ENDROOT
BRANCH 1 5
ATOM      5  CA  HIS X   1      -1.195  -2.555  19.684  1.00 48.06 LIG 0.18  C 
BRANCH 5 6
ATOM      6  N   HIS X   1      -1.400  -1.145  20.023  1.00 54.11 LIG-0.35  N 
ATOM      7 H    HIS X   1      -1.997  -0.753  19.543  1.00 54.11 LIG 0.16  HD
ATOM      8  C   HIS X   0      -0.726  -0.540  20.980  1.00 58.54 LIG 0.24  C 
ATOM      9 O    HIS X   0       0.280  -1.010  21.514  1.00 63.37 LIG-0.27  OA
BRANCH 8 10
ATOM     10  CA  HIS X   0      -1.299   0.810  21.380  1.00 62.53 LIG 0.18  C 
BRANCH 10 11
ATOM     11  N   HIS X   0      -0.540   1.929  20.810  1.00 60.73 LIG-0.35  N 
ATOM     12  C   HIS X  -1      -0.141   2.939  21.568  1.00 60.09 LIG 0.25  C 
ATOM     13 O    HIS X  -1       0.045   2.846  22.783  1.00 62.79 LIG-0.27  OA
ATOM     14 H    HIS X   0      -0.385   1.867  19.967  1.00 60.73 LIG 0.16  HD
BRANCH 12 15
ATOM     15  CA  HIS X  -1       0.115   4.241  20.818  1.00 59.53 LIG 0.28  C 
BRANCH 15 16
ATOM     16  N   HIS X  -1      -0.907   5.268  21.213  1.00 57.14 LIG-0.07  N 
ATOM     17 H3   HIS X  -1      -0.802   5.476  22.072  1.00 57.14 LIG 0.28  HD
ATOM     18 H2   HIS X  -1      -1.724   4.938  21.086  1.00 57.14 LIG 0.28  HD
ATOM     19 H1   HIS X  -1      -0.801   5.999  20.716  1.00 57.14 LIG 0.28  HD
ENDBRANCH 15 16
BRANCH 15 20
ATOM     20  CB  HIS X  -1       1.529   4.760  21.079  1.00 57.27 LIG 0.10  C 
BRANCH 20 21
ATOM     21  CG  HIS X  -1       1.597   5.829  22.122  1.00 54.13 LIG 0.06  A 
ATOM     22 ND1  HIS X  -1       1.868   7.146  21.820  1.00 52.72 LIG-0.24  NA
ATOM     23  CE1 HIS X  -1       1.883   7.856  22.936  1.00 54.35 LIG 0.23  A 
ATOM     24 NE2  HIS X  -1       1.633   7.046  23.951  1.00 53.65 LIG-0.25  NA
ATOM     25  CD2 HIS X  -1       1.448   5.771  23.467  1.00 55.23 LIG 0.14  A 
ENDBRANCH 20 21
ENDBRANCH 15 20
ENDBRANCH 12 15
ENDBRANCH 10 11
BRANCH 10 26
ATOM     26  CB  HIS X   0      -2.794   0.883  21.000  1.00 64.99 LIG 0.10  C 
BRANCH 26 27
ATOM     27  CG  HIS X   0      -3.579   1.893  21.785  1.00 69.41 LIG 0.06  A 
ATOM     28 ND1  HIS X   0      -4.864   2.268  21.445  1.00 72.01 LIG-0.24  NA
ATOM     29  CE1 HIS X   0      -5.306   3.161  22.314  1.00 72.69 LIG 0.23  A 
ATOM     30 NE2  HIS X   0      -4.358   3.376  23.208  1.00 72.94 LIG-0.25  NA
ATOM     31  CD2 HIS X   0      -3.269   2.592  22.904  1.00 71.12 LIG 0.14  A 
ENDBRANCH 26 27
ENDBRANCH 10 26
ENDBRANCH 8 10
ENDBRANCH 5 6
BRANCH 5 32
ATOM     32  CB  HIS X   1      -2.507  -3.186  19.224  1.00 48.25 LIG 0.10  C 
BRANCH 32 33
ATOM     33  CG  HIS X   1      -2.690  -3.177  17.738  1.00 50.36 LIG 0.06  A 
ATOM     34  CD2 HIS X   1      -2.749  -4.194  16.843  1.00 51.47 LIG 0.14  A 
ATOM     35 NE2  HIS X   1      -2.939  -3.632  15.604  1.00 50.72 LIG-0.25  NA
ATOM     36  CE1 HIS X   1      -2.995  -2.318  15.734  1.00 48.50 LIG 0.23  A 
ATOM     37 ND1  HIS X   1      -2.846  -2.015  17.010  1.00 47.89 LIG-0.24  NA
ENDBRANCH 32 33
ENDBRANCH 5 32
ENDBRANCH 1 5
BRANCH 3 38
ATOM     38  CA  HIS X   2       0.962  -1.410  16.795  1.00 26.25 LIG 0.18  C 
BRANCH 38 39
ATOM     39  C   HIS X   2       2.380  -1.057  17.233  1.00 23.72 LIG 0.24  C 
ATOM     40  N   HIS X   3       2.441  -0.376  18.366  1.00 22.33 LIG-0.35  N 
ATOM     41 H    HIS X   3       1.749  -0.134  18.816  1.00 22.33 LIG 0.16  HD
ATOM     42 O    HIS X   2       3.379  -1.372  16.570  1.00 19.88 LIG-0.27  OA
BRANCH 40 43
ATOM     43  CA  HIS X   3       3.722   0.031  18.965  1.00 22.38 LIG 0.18  C 
BRANCH 43 44
ATOM     44  CB  HIS X   3       4.689  -1.165  19.230  1.00 22.51 LIG 0.10  C 
BRANCH 44 45
ATOM     45  CG  HIS X   3       5.884  -1.242  18.322  1.00 18.10 LIG 0.06  A 
ATOM     46  CD2 HIS X   3       6.198  -2.101  17.320  1.00 18.75 LIG 0.14  A 
ATOM     47 NE2  HIS X   3       7.396  -1.682  16.787  1.00 20.06 LIG-0.25  NA
ATOM     48  CE1 HIS X   3       7.794  -0.600  17.428  1.00 21.69 LIG 0.23  A 
ATOM     49 ND1  HIS X   3       6.890  -0.306  18.348  1.00 17.48 LIG-0.24  NA
ENDBRANCH 44 45
ENDBRANCH 43 44
BRANCH 43 50
ATOM     50  C   HIS X   3       4.379   1.150  18.158  1.00 21.59 LIG 0.24  C 
ATOM     51 O    HIS X   3       4.562   1.060  16.950  1.00 25.47 LIG-0.27  OA
ATOM     52  N   HIS X   4       4.786   2.184  18.865  1.00 25.63 LIG-0.35  N 
ATOM     53 H    HIS X   4       4.695   2.254  19.718  1.00 25.63 LIG 0.16  HD
BRANCH 52 54
ATOM     54  CA  HIS X   4       5.445   3.325  18.224  1.00 23.96 LIG 0.17  C 
BRANCH 54 55
ATOM     55  C   HIS X   4       6.056   4.206  19.318  1.00 31.35 LIG 0.22  C 
ATOM     56 O    HIS X   4       5.479   4.385  20.392  1.00 37.06 LIG-0.29  OA
ENDBRANCH 54 55
BRANCH 54 57
ATOM     57  CB  HIS X   4       4.476   4.122  17.342  1.00 23.83 LIG 0.09  C 
BRANCH 57 58
ATOM     58  CG  HIS X   4       4.869   4.169  15.889  1.00 22.57 LIG 0.06  A 
ATOM     59 ND1  HIS X   4       6.022   3.585  15.399  1.00 22.63 LIG-0.24  NA
ATOM     60  CE1 HIS X   4       6.094   3.785  14.093  1.00 19.94 LIG 0.23  A 
ATOM     61 NE2  HIS X   4       5.042   4.490  13.721  1.00 20.25 LIG-0.25  NA
ATOM     62  CD2 HIS X   4       4.254   4.730  14.822  1.00 21.52 LIG 0.14  A 
ENDBRANCH 57 58
ENDBRANCH 54 57
ENDBRANCH 52 54
ENDBRANCH 43 50
ENDBRANCH 40 43
ENDBRANCH 38 39
BRANCH 38 63
ATOM     63  CB  HIS X   2       0.464  -0.364  15.791  1.00 28.74 LIG 0.10  C 
BRANCH 63 64
ATOM     64  CG  HIS X   2       0.986   1.011  16.047  1.00 28.63 LIG 0.06  A 
ATOM     65 ND1  HIS X   2       0.989   1.574  17.301  1.00 31.27 LIG-0.24  NA
ATOM     66  CE1 HIS X   2       1.520   2.781  17.239  1.00 28.11 LIG 0.23  A 
ATOM     67 NE2  HIS X   2       1.853   3.028  15.987  1.00 29.87 LIG-0.25  NA
ATOM     68  CD2 HIS X   2       1.537   1.930  15.220  1.00 31.84 LIG 0.14  A 
ENDBRANCH 63 64
ENDBRANCH 38 63
ENDBRANCH 3 38
TORSDOF 24
ENDMDL
MODEL 84
USER: ADFR SOLUTION from run 128
USER: SCORE 18.955037 LL:  -6.756 LR: -13.425 RR:   0.000 FEB:  -6.266
USER: RMSD 6.331977
USER: SEED 127
USER: STATUS no improvement in best in 7 clusters for 5 generations
USER: GENES 26
USER: genes 0 Translation |==|  0.46737 0.51296 0.35703
USER: genes 1 Rotation |==|  0.47289 0.96692 0.65671 0.58184
USER: genes 2 Torsion [N]-C--CA-[N] |==|  0.36510
USER: genes 3 Torsion [C]-CA--N-[C] |==|  0.84616
USER: genes 4 Torsion [N]-C--CA-[N] |==|  0.38057
USER: genes 5 Torsion [C]-CA--N-[C] |==|  0.64780
USER: genes 6 Torsion [N]-C--CA-[N] |==|  0.52362
USER: genes 7 Torsion [C]-CA--N-[H2] |==|  0.22396
USER: genes 8 Torsion [C]-CA--CB-[CG] |==|  0.81359
USER: genes 9 Torsion [CA]-CB--CG-[ND1] |==|  0.78394
USER: genes 10 Torsion [C]-CA--CB-[CG] |==|  0.46451
USER: genes 11 Torsion [CA]-CB--CG-[CD2] |==|  0.02940
USER: genes 12 Torsion [C]-CA--CB-[CG] |==|  0.72869
USER: genes 13 Torsion [CA]-CB--CG-[CD2] |==|  0.66928
USER: genes 14 Torsion [C]-N--CA-[C] |==|  0.54597
USER: genes 15 Torsion [N]-CA--C-[N] |==|  0.10045
USER: genes 16 Torsion [C]-N--CA-[CB] |==|  0.86448
USER: genes 17 Torsion [N]-CA--CB-[CG] |==|  0.33545
USER: genes 18 Torsion [CA]-CB--CG-[ND1] |==|  0.66825
USER: genes 19 Torsion [N]-CA--C-[N] |==|  0.86773
USER: genes 20 Torsion [C]-N--CA-[C] |==|  0.73405
USER: genes 21 Torsion [N]-CA--C-[O] |==|  0.07480
USER: genes 22 Torsion [N]-CA--CB-[CG] |==|  0.09213
USER: genes 23 Torsion [CA]-CB--CG-[ND1] |==|  0.24588
USER: genes 24 Torsion [N]-CA--CB-[CG] |==|  0.11105
USER: genes 25 Torsion [CA]-CB--CG-[CD2] |==|  0.56947
ROOT
ATOM      1  C   HIS X   1       1.969   0.329  16.997  1.00 40.87 LIG 0.24  C 
ATOM      2 O    HIS X   1       3.165   0.387  17.297  1.00 40.80 LIG-0.27  OA
ATOM      3  N   HIS X   2       1.285  -0.789  16.856  1.00 30.16 LIG-0.35  N 
ATOM      4 H    HIS X   2       0.456  -0.810  16.628  1.00 30.16 LIG 0.16  HD
ENDROOT
BRANCH 1 5
ATOM      5  CA  HIS X   1       1.131   1.567  16.758  1.00 48.06 LIG 0.18  C 
BRANCH 5 6
ATOM      6  N   HIS X   1       1.341   2.519  17.852  1.00 54.11 LIG-0.35  N 
ATOM      7 H    HIS X   1       1.595   3.299  17.593  1.00 54.11 LIG 0.16  HD
ATOM      8  C   HIS X   0       1.154   2.199  19.116  1.00 58.54 LIG 0.24  C 
ATOM      9 O    HIS X   0       1.018   1.042  19.519  1.00 63.37 LIG-0.27  OA
BRANCH 8 10
ATOM     10  CA  HIS X   0       1.118   3.392  20.057  1.00 62.53 LIG 0.18  C 
BRANCH 10 11
ATOM     11  N   HIS X   0       0.046   3.286  21.053  1.00 60.73 LIG-0.35  N 
ATOM     12  C   HIS X  -1      -0.833   4.262  21.216  1.00 60.09 LIG 0.25  C 
ATOM     13 O    HIS X  -1      -1.123   5.071  20.331  1.00 62.79 LIG-0.27  OA
ATOM     14 H    HIS X   0       0.045   2.554  21.503  1.00 60.73 LIG 0.16  HD
BRANCH 12 15
ATOM     15  CA  HIS X  -1      -1.505   4.298  22.583  1.00 59.53 LIG 0.28  C 
BRANCH 15 16
ATOM     16  N   HIS X  -1      -2.618   5.306  22.579  1.00 57.14 LIG-0.07  N 
ATOM     17 H3   HIS X  -1      -2.807   5.543  23.415  1.00 57.14 LIG 0.28  HD
ATOM     18 H2   HIS X  -1      -3.341   4.948  22.202  1.00 57.14 LIG 0.28  HD
ATOM     19 H1   HIS X  -1      -2.367   6.024  22.116  1.00 57.14 LIG 0.28  HD
ENDBRANCH 15 16
BRANCH 15 20
ATOM     20  CB  HIS X  -1      -2.030   2.918  22.978  1.00 57.27 LIG 0.10  C 
BRANCH 20 21
ATOM     21  CG  HIS X  -1      -3.159   2.435  22.127  1.00 54.13 LIG 0.06  A 
ATOM     22 ND1  HIS X  -1      -4.453   2.886  22.281  1.00 52.72 LIG-0.24  NA
ATOM     23  CE1 HIS X  -1      -5.236   2.274  21.409  1.00 54.35 LIG 0.23  A 
ATOM     24 NE2  HIS X  -1      -4.498   1.441  20.696  1.00 53.65 LIG-0.25  NA
ATOM     25  CD2 HIS X  -1      -3.193   1.524  21.125  1.00 55.23 LIG 0.14  A 
ENDBRANCH 20 21
ENDBRANCH 15 20
ENDBRANCH 12 15
ENDBRANCH 10 11
BRANCH 10 26
ATOM     26  CB  HIS X   0       2.499   3.580  20.723  1.00 64.99 LIG 0.10  C 
BRANCH 26 27
ATOM     27  CG  HIS X   0       2.666   4.894  21.431  1.00 69.41 LIG 0.06  A 
ATOM     28 ND1  HIS X   0       3.889   5.347  21.883  1.00 72.01 LIG-0.24  NA
ATOM     29  CE1 HIS X   0       3.735   6.529  22.456  1.00 72.69 LIG 0.23  A 
ATOM     30 NE2  HIS X   0       2.458   6.861  22.389  1.00 72.94 LIG-0.25  NA
ATOM     31  CD2 HIS X   0       1.768   5.858  21.748  1.00 71.12 LIG 0.14  A 
ENDBRANCH 26 27
ENDBRANCH 10 26
ENDBRANCH 8 10
ENDBRANCH 5 6
BRANCH 5 32
ATOM     32  CB  HIS X   1       1.504   2.206  15.422  1.00 48.25 LIG 0.10  C 
BRANCH 32 33
ATOM     33  CG  HIS X   1       2.467   3.346  15.548  1.00 50.36 LIG 0.06  A 
ATOM     34  CD2 HIS X   1       2.346   4.653  15.211  1.00 51.47 LIG 0.14  A 
ATOM     35 NE2  HIS X   1       3.526   5.270  15.550  1.00 50.72 LIG-0.25  NA
ATOM     36  CE1 HIS X   1       4.342   4.372  16.077  1.00 48.50 LIG 0.23  A 
ATOM     37 ND1  HIS X   1       3.729   3.202  16.086  1.00 47.89 LIG-0.24  NA
ENDBRANCH 32 33
ENDBRANCH 5 32
ENDBRANCH 1 5
BRANCH 3 38
ATOM     38  CA  HIS X   2       1.878  -2.127  17.079  1.00 26.25 LIG 0.18  C 
BRANCH 38 39
ATOM     39  C   HIS X   2       1.040  -3.253  16.480  1.00 23.72 LIG 0.24  C 
ATOM     40  N   HIS X   3       0.454  -2.940  15.336  1.00 22.33 LIG-0.35  N 
ATOM     41 H    HIS X   3       0.519  -2.168  14.962  1.00 22.33 LIG 0.16  HD
ATOM     42 O    HIS X   2       0.913  -4.355  17.035  1.00 19.88 LIG-0.27  OA
BRANCH 40 43
ATOM     43  CA  HIS X   3      -0.373  -3.904  14.592  1.00 22.38 LIG 0.18  C 
BRANCH 43 44
ATOM     44  CB  HIS X   3       0.314  -5.294  14.407  1.00 22.51 LIG 0.10  C 
BRANCH 44 45
ATOM     45  CG  HIS X   3      -0.432  -6.464  14.985  1.00 18.10 LIG 0.06  A 
ATOM     46  CD2 HIS X   3      -1.634  -7.007  14.672  1.00 18.75 LIG 0.14  A 
ATOM     47 NE2  HIS X   3      -1.811  -8.100  15.490  1.00 20.06 LIG-0.25  NA
ATOM     48  CE1 HIS X   3      -0.749  -8.231  16.263  1.00 21.69 LIG 0.23  A 
ATOM     49 ND1  HIS X   3       0.103  -7.265  15.965  1.00 17.48 LIG-0.24  NA
ENDBRANCH 44 45
ENDBRANCH 43 44
BRANCH 43 50
ATOM     50  C   HIS X   3      -1.771  -4.016  15.197  1.00 21.59 LIG 0.24  C 
ATOM     51 O    HIS X   3      -2.785  -3.919  14.515  1.00 25.47 LIG-0.27  OA
ATOM     52  N   HIS X   4      -1.804  -4.162  16.505  1.00 25.63 LIG-0.35  N 
ATOM     53 H    HIS X   4      -1.106  -4.202  17.006  1.00 25.63 LIG 0.16  HD
BRANCH 52 54
ATOM     54  CA  HIS X   4      -3.079  -4.270  17.221  1.00 23.96 LIG 0.17  C 
BRANCH 54 55
ATOM     55  C   HIS X   4      -3.459  -2.880  17.742  1.00 31.35 LIG 0.22  C 
ATOM     56 O    HIS X   4      -3.069  -1.857  17.177  1.00 37.06 LIG-0.29  OA
ENDBRANCH 54 55
BRANCH 54 57
ATOM     57  CB  HIS X   4      -3.009  -5.293  18.361  1.00 23.83 LIG 0.09  C 
BRANCH 57 58
ATOM     58  CG  HIS X   4      -1.661  -5.375  19.027  1.00 22.57 LIG 0.06  A 
ATOM     59 ND1  HIS X   4      -1.297  -4.577  20.096  1.00 22.63 LIG-0.24  NA
ATOM     60  CE1 HIS X   4      -0.064  -4.879  20.468  1.00 19.94 LIG 0.23  A 
ATOM     61 NE2  HIS X   4       0.391  -5.828  19.672  1.00 20.25 LIG-0.25  NA
ATOM     62  CD2 HIS X   4      -0.593  -6.165  18.773  1.00 21.52 LIG 0.14  A 
ENDBRANCH 57 58
ENDBRANCH 54 57
ENDBRANCH 52 54
ENDBRANCH 43 50
ENDBRANCH 40 43
ENDBRANCH 38 39
BRANCH 38 63
ATOM     63  CB  HIS X   2       2.088  -2.389  18.575  1.00 28.74 LIG 0.10  C 
BRANCH 63 64
ATOM     64  CG  HIS X   2       0.973  -1.895  19.435  1.00 28.63 LIG 0.06  A 
ATOM     65 ND1  HIS X   2      -0.310  -1.753  18.963  1.00 31.27 LIG-0.24  NA
ATOM     66  CE1 HIS X   2      -1.090  -1.318  19.936  1.00 28.11 LIG 0.23  A 
ATOM     67 NE2  HIS X   2      -0.357  -1.162  21.021  1.00 29.87 LIG-0.25  NA
ATOM     68  CD2 HIS X   2       0.940  -1.525  20.737  1.00 31.84 LIG 0.14  A 
ENDBRANCH 63 64
ENDBRANCH 38 63
ENDBRANCH 3 38
TORSDOF 24
ENDMDL
MODEL 85
USER: ADFR SOLUTION from run 7
USER: SCORE 17.671011 LL:  -6.308 LR: -13.398 RR:   0.000 FEB:  -6.239
USER: RMSD 9.754978
USER: SEED 604044
USER: STATUS no improvement in best in 6 clusters for 5 generations
USER: GENES 26
USER: genes 0 Translation |==|  0.52218 0.56652 0.38352
USER: genes 1 Rotation |==|  0.37631 0.17876 0.84644 0.60716
USER: genes 2 Torsion [N]-C--CA-[N] |==|  0.73989
USER: genes 3 Torsion [C]-CA--N-[C] |==|  0.73003
USER: genes 4 Torsion [N]-C--CA-[N] |==|  0.39366
USER: genes 5 Torsion [C]-CA--N-[C] |==|  0.53333
USER: genes 6 Torsion [N]-C--CA-[N] |==|  0.90583
USER: genes 7 Torsion [C]-CA--N-[H2] |==|  0.08355
USER: genes 8 Torsion [C]-CA--CB-[CG] |==|  0.06441
USER: genes 9 Torsion [CA]-CB--CG-[ND1] |==|  0.68492
USER: genes 10 Torsion [C]-CA--CB-[CG] |==|  0.09575
USER: genes 11 Torsion [CA]-CB--CG-[CD2] |==|  0.21012
USER: genes 12 Torsion [C]-CA--CB-[CG] |==|  0.18998
USER: genes 13 Torsion [CA]-CB--CG-[CD2] |==|  0.58319
USER: genes 14 Torsion [C]-N--CA-[C] |==|  0.61786
USER: genes 15 Torsion [N]-CA--C-[N] |==|  0.89834
USER: genes 16 Torsion [C]-N--CA-[CB] |==|  0.85548
USER: genes 17 Torsion [N]-CA--CB-[CG] |==|  0.76386
USER: genes 18 Torsion [CA]-CB--CG-[ND1] |==|  0.47053
USER: genes 19 Torsion [N]-CA--C-[N] |==|  0.85041
USER: genes 20 Torsion [C]-N--CA-[C] |==|  0.61119
USER: genes 21 Torsion [N]-CA--C-[O] |==|  0.08932
USER: genes 22 Torsion [N]-CA--CB-[CG] |==|  0.77426
USER: genes 23 Torsion [CA]-CB--CG-[ND1] |==|  0.69456
USER: genes 24 Torsion [N]-CA--CB-[CG] |==|  0.82889
USER: genes 25 Torsion [CA]-CB--CG-[CD2] |==|  0.88688
ROOT
ATOM      1  C   HIS X   1       3.079   1.614  17.473  1.00 40.87 LIG 0.24  C 
ATOM      2 O    HIS X   1       3.960   0.757  17.590  1.00 40.80 LIG-0.27  OA
ATOM      3  N   HIS X   2       2.986   2.699  18.217  1.00 30.16 LIG-0.35  N 
ATOM      4 H    HIS X   2       2.355   3.277  18.132  1.00 30.16 LIG 0.16  HD
ENDROOT
BRANCH 1 5
ATOM      5  CA  HIS X   1       1.985   1.518  16.432  1.00 48.06 LIG 0.18  C 
BRANCH 5 6
ATOM      6  N   HIS X   1       0.871   0.729  16.964  1.00 54.11 LIG-0.35  N 
ATOM      7 H    HIS X   1       0.328   1.178  17.457  1.00 54.11 LIG 0.16  HD
ATOM      8  C   HIS X   0       0.722  -0.554  16.704  1.00 58.54 LIG 0.24  C 
ATOM      9 O    HIS X   0       1.599  -1.259  16.200  1.00 63.37 LIG-0.27  OA
BRANCH 8 10
ATOM     10  CA  HIS X   0      -0.642  -1.107  17.082  1.00 62.53 LIG 0.18  C 
BRANCH 10 11
ATOM     11  N   HIS X   0      -1.138  -2.084  16.105  1.00 60.73 LIG-0.35  N 
ATOM     12  C   HIS X  -1      -2.395  -2.498  16.132  1.00 60.09 LIG 0.25  C 
ATOM     13 O    HIS X  -1      -3.319  -1.836  16.610  1.00 62.79 LIG-0.27  OA
ATOM     14 H    HIS X   0      -0.552  -2.352  15.536  1.00 60.73 LIG 0.16  HD
BRANCH 12 15
ATOM     15  CA  HIS X  -1      -2.637  -3.857  15.486  1.00 59.53 LIG 0.28  C 
BRANCH 15 16
ATOM     16  N   HIS X  -1      -1.707  -4.040  14.320  1.00 57.14 LIG-0.07  N 
ATOM     17 H3   HIS X  -1      -1.524  -4.905  14.220  1.00 57.14 LIG 0.28  HD
ATOM     18 H2   HIS X  -1      -0.952  -3.593  14.469  1.00 57.14 LIG 0.28  HD
ATOM     19 H1   HIS X  -1      -2.095  -3.732  13.580  1.00 57.14 LIG 0.28  HD
ENDBRANCH 15 16
BRANCH 15 20
ATOM     20  CB  HIS X  -1      -2.462  -4.990  16.497  1.00 57.27 LIG 0.10  C 
BRANCH 20 21
ATOM     21  CG  HIS X  -1      -2.645  -4.564  17.918  1.00 54.13 LIG 0.06  A 
ATOM     22 ND1  HIS X  -1      -1.614  -4.563  18.833  1.00 52.72 LIG-0.24  NA
ATOM     23  CE1 HIS X  -1      -2.071  -4.160  20.006  1.00 54.35 LIG 0.23  A 
ATOM     24 NE2  HIS X  -1      -3.362  -3.901  19.886  1.00 53.65 LIG-0.25  NA
ATOM     25  CD2 HIS X  -1      -3.745  -4.144  18.588  1.00 55.23 LIG 0.14  A 
ENDBRANCH 20 21
ENDBRANCH 15 20
ENDBRANCH 12 15
ENDBRANCH 10 11
BRANCH 10 26
ATOM     26  CB  HIS X   0      -0.595  -1.698  18.507  1.00 64.99 LIG 0.10  C 
BRANCH 26 27
ATOM     27  CG  HIS X   0       0.316  -0.963  19.448  1.00 69.41 LIG 0.06  A 
ATOM     28 ND1  HIS X   0       1.561  -1.440  19.805  1.00 72.01 LIG-0.24  NA
ATOM     29  CE1 HIS X   0       2.138  -0.586  20.634  1.00 72.69 LIG 0.23  A 
ATOM     30 NE2  HIS X   0       1.315   0.430  20.824  1.00 72.94 LIG-0.25  NA
ATOM     31  CD2 HIS X   0       0.170   0.221  20.090  1.00 71.12 LIG 0.14  A 
ENDBRANCH 26 27
ENDBRANCH 10 26
ENDBRANCH 8 10
ENDBRANCH 5 6
BRANCH 5 32
ATOM     32  CB  HIS X   1       1.505   2.914  16.041  1.00 48.25 LIG 0.10  C 
BRANCH 32 33
ATOM     33  CG  HIS X   1       2.523   3.710  15.285  1.00 50.36 LIG 0.06  A 
ATOM     34  CD2 HIS X   1       2.741   5.047  15.224  1.00 51.47 LIG 0.14  A 
ATOM     35 NE2  HIS X   1       3.812   5.244  14.386  1.00 50.72 LIG-0.25  NA
ATOM     36  CE1 HIS X   1       4.237   4.071  13.949  1.00 48.50 LIG 0.23  A 
ATOM     37 ND1  HIS X   1       3.476   3.128  14.474  1.00 47.89 LIG-0.24  NA
ENDBRANCH 32 33
ENDBRANCH 5 32
ENDBRANCH 1 5
BRANCH 3 38
ATOM     38  CA  HIS X   2       3.966   3.034  19.275  1.00 26.25 LIG 0.18  C 
BRANCH 38 39
ATOM     39  C   HIS X   2       3.307   3.555  20.548  1.00 23.72 LIG 0.24  C 
ATOM     40  N   HIS X   3       2.244   4.314  20.334  1.00 22.33 LIG-0.35  N 
ATOM     41 H    HIS X   3       1.952   4.517  19.551  1.00 22.33 LIG 0.16  HD
ATOM     42 O    HIS X   2       3.746   3.297  21.678  1.00 19.88 LIG-0.27  OA
BRANCH 40 43
ATOM     43  CA  HIS X   3       1.457   4.887  21.438  1.00 22.38 LIG 0.18  C 
BRANCH 43 44
ATOM     44  CB  HIS X   3       1.009   3.826  22.493  1.00 22.51 LIG 0.10  C 
BRANCH 44 45
ATOM     45  CG  HIS X   3      -0.259   3.089  22.168  1.00 18.10 LIG 0.06  A 
ATOM     46  CD2 HIS X   3      -1.165   3.252  21.173  1.00 18.75 LIG 0.14  A 
ATOM     47 NE2  HIS X   3      -2.115   2.268  21.322  1.00 20.06 LIG-0.25  NA
ATOM     48  CE1 HIS X   3      -1.795   1.520  22.361  1.00 21.69 LIG 0.23  A 
ATOM     49 ND1  HIS X   3      -0.671   1.987  22.878  1.00 17.48 LIG-0.24  NA
ENDBRANCH 44 45
ENDBRANCH 43 44
BRANCH 43 50
ATOM     50  C   HIS X   3       2.176   6.077  22.071  1.00 21.59 LIG 0.24  C 
ATOM     51 O    HIS X   3       1.657   7.185  22.148  1.00 25.47 LIG-0.27  OA
ATOM     52  N   HIS X   4       3.408   5.839  22.469  1.00 25.63 LIG-0.35  N 
ATOM     53 H    HIS X   4       3.802   5.077  22.397  1.00 25.63 LIG 0.16  HD
BRANCH 52 54
ATOM     54  CA  HIS X   4       4.221   6.893  23.083  1.00 23.96 LIG 0.17  C 
BRANCH 54 55
ATOM     55  C   HIS X   4       5.653   6.768  22.553  1.00 31.35 LIG 0.22  C 
ATOM     56 O    HIS X   4       5.880   6.361  21.412  1.00 37.06 LIG-0.29  OA
ENDBRANCH 54 55
BRANCH 54 57
ATOM     57  CB  HIS X   4       4.185   6.822  24.615  1.00 23.83 LIG 0.09  C 
BRANCH 57 58
ATOM     58  CG  HIS X   4       2.964   7.454  25.228  1.00 22.57 LIG 0.06  A 
ATOM     59 ND1  HIS X   4       3.005   8.631  25.952  1.00 22.63 LIG-0.24  NA
ATOM     60  CE1 HIS X   4       1.784   8.939  26.357  1.00 19.94 LIG 0.23  A 
ATOM     61 NE2  HIS X   4       0.957   7.999  25.939  1.00 20.25 LIG-0.25  NA
ATOM     62  CD2 HIS X   4       1.667   7.068  25.220  1.00 21.52 LIG 0.14  A 
ENDBRANCH 57 58
ENDBRANCH 54 57
ENDBRANCH 52 54
ENDBRANCH 43 50
ENDBRANCH 40 43
ENDBRANCH 38 39
BRANCH 38 63
ATOM     63  CB  HIS X   2       4.984   4.064  18.771  1.00 28.74 LIG 0.10  C 
BRANCH 63 64
ATOM     64  CG  HIS X   2       5.801   3.586  17.617  1.00 28.63 LIG 0.06  A 
ATOM     65 ND1  HIS X   2       6.129   4.402  16.561  1.00 31.27 LIG-0.24  NA
ATOM     66  CE1 HIS X   2       6.867   3.729  15.698  1.00 28.11 LIG 0.23  A 
ATOM     67 NE2  HIS X   2       7.022   2.500  16.150  1.00 29.87 LIG-0.25  NA
ATOM     68  CD2 HIS X   2       6.371   2.385  17.357  1.00 31.84 LIG 0.14  A 
ENDBRANCH 63 64
ENDBRANCH 38 63
ENDBRANCH 3 38
TORSDOF 24
ENDMDL
MODEL 86
USER: ADFR SOLUTION from run 183
USER: SCORE 18.798276 LL:  -6.167 LR: -13.397 RR:   0.000 FEB:  -6.238
USER: RMSD 6.490120
USER: SEED 182
USER: STATUS no improvement in best in 14 clusters for 5 generations
USER: GENES 26
USER: genes 0 Translation |==|  0.45176 0.52507 0.41215
USER: genes 1 Rotation |==|  0.26371 0.06297 0.49783 0.55632
USER: genes 2 Torsion [N]-C--CA-[N] |==|  0.08571
USER: genes 3 Torsion [C]-CA--N-[C] |==|  0.15328
USER: genes 4 Torsion [N]-C--CA-[N] |==|  0.20599
USER: genes 5 Torsion [C]-CA--N-[C] |==|  0.63186
USER: genes 6 Torsion [N]-C--CA-[N] |==|  0.46076
USER: genes 7 Torsion [C]-CA--N-[H2] |==|  0.63348
USER: genes 8 Torsion [C]-CA--CB-[CG] |==|  0.57248
USER: genes 9 Torsion [CA]-CB--CG-[ND1] |==|  0.27500
USER: genes 10 Torsion [C]-CA--CB-[CG] |==|  0.39971
USER: genes 11 Torsion [CA]-CB--CG-[CD2] |==|  0.57170
USER: genes 12 Torsion [C]-CA--CB-[CG] |==|  0.45822
USER: genes 13 Torsion [CA]-CB--CG-[CD2] |==|  0.46716
USER: genes 14 Torsion [C]-N--CA-[C] |==|  0.81284
USER: genes 15 Torsion [N]-CA--C-[N] |==|  0.43783
USER: genes 16 Torsion [C]-N--CA-[CB] |==|  0.85360
USER: genes 17 Torsion [N]-CA--CB-[CG] |==|  0.27981
USER: genes 18 Torsion [CA]-CB--CG-[ND1] |==|  0.71627
USER: genes 19 Torsion [N]-CA--C-[N] |==|  0.87254
USER: genes 20 Torsion [C]-N--CA-[C] |==|  0.16429
USER: genes 21 Torsion [N]-CA--C-[O] |==|  0.27925
USER: genes 22 Torsion [N]-CA--CB-[CG] |==|  0.84748
USER: genes 23 Torsion [CA]-CB--CG-[ND1] |==|  0.74142
USER: genes 24 Torsion [N]-CA--CB-[CG] |==|  0.78211
USER: genes 25 Torsion [CA]-CB--CG-[CD2] |==|  0.54840
ROOT
ATOM      1  C   HIS X   1       1.653   0.620  17.989  1.00 40.87 LIG 0.24  C 
ATOM      2 O    HIS X   1       2.253  -0.392  17.614  1.00 40.80 LIG-0.27  OA
ATOM      3  N   HIS X   2       0.746   0.643  18.945  1.00 30.16 LIG-0.35  N 
ATOM      4 H    HIS X   2       0.326   1.355  19.181  1.00 30.16 LIG 0.16  HD
ENDROOT
BRANCH 1 5
ATOM      5  CA  HIS X   1       1.905   1.984  17.382  1.00 48.06 LIG 0.18  C 
BRANCH 5 6
ATOM      6  N   HIS X   1       1.692   3.018  18.399  1.00 54.11 LIG-0.35  N 
ATOM      7 H    HIS X   1       1.122   3.620  18.170  1.00 54.11 LIG 0.16  HD
ATOM      8  C   HIS X   0       2.322   3.016  19.555  1.00 58.54 LIG 0.24  C 
ATOM      9 O    HIS X   0       3.298   2.305  19.805  1.00 63.37 LIG-0.27  OA
BRANCH 8 10
ATOM     10  CA  HIS X   0       1.740   3.977  20.578  1.00 62.53 LIG 0.18  C 
BRANCH 10 11
ATOM     11  N   HIS X   0       0.473   3.495  21.140  1.00 60.73 LIG-0.35  N 
ATOM     12  C   HIS X  -1      -0.580   4.291  21.231  1.00 60.09 LIG 0.25  C 
ATOM     13 O    HIS X  -1      -0.760   5.268  20.501  1.00 62.79 LIG-0.27  OA
ATOM     14 H    HIS X   0       0.483   2.674  21.395  1.00 60.73 LIG 0.16  HD
BRANCH 12 15
ATOM     15  CA  HIS X  -1      -1.598   3.889  22.293  1.00 59.53 LIG 0.28  C 
BRANCH 15 16
ATOM     16  N   HIS X  -1      -2.550   5.023  22.542  1.00 57.14 LIG-0.07  N 
ATOM     17 H3   HIS X  -1      -2.239   5.763  22.156  1.00 57.14 LIG 0.28  HD
ATOM     18 H2   HIS X  -1      -2.630   5.157  23.418  1.00 57.14 LIG 0.28  HD
ATOM     19 H1   HIS X  -1      -3.347   4.823  22.198  1.00 57.14 LIG 0.28  HD
ENDBRANCH 15 16
BRANCH 15 20
ATOM     20  CB  HIS X  -1      -2.358   2.628  21.882  1.00 57.27 LIG 0.10  C 
BRANCH 20 21
ATOM     21  CG  HIS X  -1      -3.716   2.515  22.494  1.00 54.13 LIG 0.06  A 
ATOM     22 ND1  HIS X  -1      -4.867   2.862  21.820  1.00 52.72 LIG-0.24  NA
ATOM     23  CE1 HIS X  -1      -5.910   2.677  22.611  1.00 54.35 LIG 0.23  A 
ATOM     24 NE2  HIS X  -1      -5.477   2.223  23.775  1.00 53.65 LIG-0.25  NA
ATOM     25  CD2 HIS X  -1      -4.107   2.111  23.727  1.00 55.23 LIG 0.14  A 
ENDBRANCH 20 21
ENDBRANCH 15 20
ENDBRANCH 12 15
ENDBRANCH 10 11
BRANCH 10 26
ATOM     26  CB  HIS X   0       2.780   4.268  21.682  1.00 64.99 LIG 0.10  C 
BRANCH 26 27
ATOM     27  CG  HIS X   0       2.751   5.678  22.198  1.00 69.41 LIG 0.06  A 
ATOM     28 ND1  HIS X   0       1.614   6.460  22.168  1.00 72.01 LIG-0.24  NA
ATOM     29  CE1 HIS X   0       1.881   7.644  22.692  1.00 72.69 LIG 0.23  A 
ATOM     30 NE2  HIS X   0       3.148   7.657  23.067  1.00 72.94 LIG-0.25  NA
ATOM     31  CD2 HIS X   0       3.714   6.438  22.773  1.00 71.12 LIG 0.14  A 
ENDBRANCH 26 27
ENDBRANCH 10 26
ENDBRANCH 8 10
ENDBRANCH 5 6
BRANCH 5 32
ATOM     32  CB  HIS X   1       3.329   2.063  16.836  1.00 48.25 LIG 0.10  C 
BRANCH 32 33
ATOM     33  CG  HIS X   1       3.556   3.221  15.915  1.00 50.36 LIG 0.06  A 
ATOM     34  CD2 HIS X   1       4.700   3.745  15.410  1.00 51.47 LIG 0.14  A 
ATOM     35 NE2  HIS X   1       4.341   4.800  14.606  1.00 50.72 LIG-0.25  NA
ATOM     36  CE1 HIS X   1       3.025   4.919  14.617  1.00 48.50 LIG 0.23  A 
ATOM     37 ND1  HIS X   1       2.525   3.980  15.400  1.00 47.89 LIG-0.24  NA
ENDBRANCH 32 33
ENDBRANCH 5 32
ENDBRANCH 1 5
BRANCH 3 38
ATOM     38  CA  HIS X   2       0.360  -0.562  19.715  1.00 26.25 LIG 0.18  C 
BRANCH 38 39
ATOM     39  C   HIS X   2      -0.369  -1.599  18.866  1.00 23.72 LIG 0.24  C 
ATOM     40  N   HIS X   3      -0.316  -2.828  19.352  1.00 22.33 LIG-0.35  N 
ATOM     41 H    HIS X   3       0.104  -3.039  20.073  1.00 22.33 LIG 0.16  HD
ATOM     42 O    HIS X   2      -0.943  -1.306  17.807  1.00 19.88 LIG-0.27  OA
BRANCH 40 43
ATOM     43  CA  HIS X   3      -0.983  -3.960  18.689  1.00 22.38 LIG 0.18  C 
BRANCH 43 44
ATOM     44  CB  HIS X   3      -2.494  -3.702  18.396  1.00 22.51 LIG 0.10  C 
BRANCH 44 45
ATOM     45  CG  HIS X   3      -2.821  -3.315  16.982  1.00 18.10 LIG 0.06  A 
ATOM     46  CD2 HIS X   3      -2.996  -4.060  15.863  1.00 18.75 LIG 0.14  A 
ATOM     47 NE2  HIS X   3      -3.328  -3.195  14.845  1.00 20.06 LIG-0.25  NA
ATOM     48  CE1 HIS X   3      -3.370  -1.967  15.326  1.00 21.69 LIG 0.23  A 
ATOM     49 ND1  HIS X   3      -3.083  -2.016  16.616  1.00 17.48 LIG-0.24  NA
ENDBRANCH 44 45
ENDBRANCH 43 44
BRANCH 43 50
ATOM     50  C   HIS X   3      -0.212  -4.406  17.447  1.00 21.59 LIG 0.24  C 
ATOM     51 O    HIS X   3       0.064  -5.582  17.240  1.00 25.47 LIG-0.27  OA
ATOM     52  N   HIS X   4       0.182  -3.432  16.655  1.00 25.63 LIG-0.35  N 
ATOM     53 H    HIS X   4       0.026  -2.598  16.797  1.00 25.63 LIG 0.16  HD
BRANCH 52 54
ATOM     54  CA  HIS X   4       0.942  -3.713  15.433  1.00 23.96 LIG 0.17  C 
BRANCH 54 55
ATOM     55  C   HIS X   4       0.097  -4.626  14.539  1.00 31.35 LIG 0.22  C 
ATOM     56 O    HIS X   4      -0.535  -4.177  13.581  1.00 37.06 LIG-0.29  OA
ENDBRANCH 54 55
BRANCH 54 57
ATOM     57  CB  HIS X   4       2.307  -4.343  15.742  1.00 23.83 LIG 0.09  C 
BRANCH 57 58
ATOM     58  CG  HIS X   4       3.153  -3.535  16.690  1.00 22.57 LIG 0.06  A 
ATOM     59 ND1  HIS X   4       4.086  -2.607  16.266  1.00 22.63 LIG-0.24  NA
ATOM     60  CE1 HIS X   4       4.666  -2.056  17.319  1.00 19.94 LIG 0.23  A 
ATOM     61 NE2  HIS X   4       4.157  -2.602  18.408  1.00 20.25 LIG-0.25  NA
ATOM     62  CD2 HIS X   4       3.200  -3.519  18.042  1.00 21.52 LIG 0.14  A 
ENDBRANCH 57 58
ENDBRANCH 54 57
ENDBRANCH 52 54
ENDBRANCH 43 50
ENDBRANCH 40 43
ENDBRANCH 38 39
BRANCH 38 63
ATOM     63  CB  HIS X   2      -0.513  -0.185  20.918  1.00 28.74 LIG 0.10  C 
BRANCH 63 64
ATOM     64  CG  HIS X   2       0.259   0.358  22.074  1.00 28.63 LIG 0.06  A 
ATOM     65 ND1  HIS X   2       1.539   0.843  21.940  1.00 31.27 LIG-0.24  NA
ATOM     66  CE1 HIS X   2       1.970   1.272  23.112  1.00 28.11 LIG 0.23  A 
ATOM     67 NE2  HIS X   2       1.021   1.073  24.006  1.00 29.87 LIG-0.25  NA
ATOM     68  CD2 HIS X   2      -0.066   0.509  23.380  1.00 31.84 LIG 0.14  A 
ENDBRANCH 63 64
ENDBRANCH 38 63
ENDBRANCH 3 38
TORSDOF 24
ENDMDL
MODEL 87
USER: ADFR SOLUTION from run 187
USER: SCORE 16.262456 LL:  -4.583 LR: -13.368 RR:   0.000 FEB:  -6.209
USER: RMSD 7.023829
USER: SEED 186
USER: STATUS no improvement in best in 24 clusters for 5 generations
USER: GENES 26
USER: genes 0 Translation |==|  0.42987 0.52788 0.38469
USER: genes 1 Rotation |==|  0.38019 0.67642 0.59569 0.94200
USER: genes 2 Torsion [N]-C--CA-[N] |==|  0.56127
USER: genes 3 Torsion [C]-CA--N-[C] |==|  0.15684
USER: genes 4 Torsion [N]-C--CA-[N] |==|  0.22149
USER: genes 5 Torsion [C]-CA--N-[C] |==|  0.63146
USER: genes 6 Torsion [N]-C--CA-[N] |==|  0.46744
USER: genes 7 Torsion [C]-CA--N-[H2] |==|  0.27798
USER: genes 8 Torsion [C]-CA--CB-[CG] |==|  0.59981
USER: genes 9 Torsion [CA]-CB--CG-[ND1] |==|  0.34946
USER: genes 10 Torsion [C]-CA--CB-[CG] |==|  0.38241
USER: genes 11 Torsion [CA]-CB--CG-[CD2] |==|  0.60744
USER: genes 12 Torsion [C]-CA--CB-[CG] |==|  0.44575
USER: genes 13 Torsion [CA]-CB--CG-[CD2] |==|  0.46447
USER: genes 14 Torsion [C]-N--CA-[C] |==|  0.61529
USER: genes 15 Torsion [N]-CA--C-[N] |==|  0.42849
USER: genes 16 Torsion [C]-N--CA-[CB] |==|  0.74554
USER: genes 17 Torsion [N]-CA--CB-[CG] |==|  0.02252
USER: genes 18 Torsion [CA]-CB--CG-[ND1] |==|  0.76788
USER: genes 19 Torsion [N]-CA--C-[N] |==|  0.19352
USER: genes 20 Torsion [C]-N--CA-[C] |==|  0.17839
USER: genes 21 Torsion [N]-CA--C-[O] |==|  0.69544
USER: genes 22 Torsion [N]-CA--CB-[CG] |==|  0.87063
USER: genes 23 Torsion [CA]-CB--CG-[ND1] |==|  0.33374
USER: genes 24 Torsion [N]-CA--CB-[CG] |==|  0.71881
USER: genes 25 Torsion [CA]-CB--CG-[CD2] |==|  0.40761
ROOT
ATOM      1  C   HIS X   1       1.210   0.687  17.494  1.00 40.87 LIG 0.24  C 
ATOM      2 O    HIS X   1       0.463   0.532  18.465  1.00 40.80 LIG-0.27  OA
ATOM      3  N   HIS X   2       1.698  -0.293  16.760  1.00 30.16 LIG-0.35  N 
ATOM      4 H    HIS X   2       2.231  -0.167  16.098  1.00 30.16 LIG 0.16  HD
ENDROOT
BRANCH 1 5
ATOM      5  CA  HIS X   1       1.652   2.055  17.020  1.00 48.06 LIG 0.18  C 
BRANCH 5 6
ATOM      6  N   HIS X   1       1.537   3.016  18.120  1.00 54.11 LIG-0.35  N 
ATOM      7 H    HIS X   1       1.042   3.696  17.940  1.00 54.11 LIG 0.16  HD
ATOM      8  C   HIS X   0       2.142   2.844  19.278  1.00 58.54 LIG 0.24  C 
ATOM      9 O    HIS X   0       3.028   2.010  19.473  1.00 63.37 LIG-0.27  OA
BRANCH 8 10
ATOM     10  CA  HIS X   0       1.651   3.774  20.375  1.00 62.53 LIG 0.18  C 
BRANCH 10 11
ATOM     11  N   HIS X   0       0.391   3.317  20.972  1.00 60.73 LIG-0.35  N 
ATOM     12  C   HIS X  -1      -0.620   4.151  21.157  1.00 60.09 LIG 0.25  C 
ATOM     13 O    HIS X  -1      -0.788   5.174  20.489  1.00 62.79 LIG-0.27  OA
ATOM     14 H    HIS X   0       0.375   2.483  21.183  1.00 60.73 LIG 0.16  HD
BRANCH 12 15
ATOM     15  CA  HIS X  -1      -1.603   3.737  22.244  1.00 59.53 LIG 0.28  C 
BRANCH 15 16
ATOM     16  N   HIS X  -1      -2.528   4.878  22.558  1.00 57.14 LIG-0.07  N 
ATOM     17 H3   HIS X  -1      -2.666   4.915  23.437  1.00 57.14 LIG 0.28  HD
ATOM     18 H2   HIS X  -1      -3.306   4.753  22.143  1.00 57.14 LIG 0.28  HD
ATOM     19 H1   HIS X  -1      -2.163   5.641  22.282  1.00 57.14 LIG 0.28  HD
ENDBRANCH 15 16
BRANCH 15 20
ATOM     20  CB  HIS X  -1      -2.398   2.498  21.828  1.00 57.27 LIG 0.10  C 
BRANCH 20 21
ATOM     21  CG  HIS X  -1      -3.816   2.504  22.300  1.00 54.13 LIG 0.06  A 
ATOM     22 ND1  HIS X  -1      -4.885   2.339  21.445  1.00 52.72 LIG-0.24  NA
ATOM     23  CE1 HIS X  -1      -6.011   2.407  22.135  1.00 54.35 LIG 0.23  A 
ATOM     24 NE2  HIS X  -1      -5.711   2.612  23.406  1.00 53.65 LIG-0.25  NA
ATOM     25  CD2 HIS X  -1      -4.343   2.674  23.536  1.00 55.23 LIG 0.14  A 
ENDBRANCH 20 21
ENDBRANCH 15 20
ENDBRANCH 12 15
ENDBRANCH 10 11
BRANCH 10 26
ATOM     26  CB  HIS X   0       2.752   3.961  21.441  1.00 64.99 LIG 0.10  C 
BRANCH 26 27
ATOM     27  CG  HIS X   0       2.909   5.375  21.922  1.00 69.41 LIG 0.06  A 
ATOM     28 ND1  HIS X   0       1.833   6.209  22.150  1.00 72.01 LIG-0.24  NA
ATOM     29  CE1 HIS X   0       2.268   7.383  22.573  1.00 72.69 LIG 0.23  A 
ATOM     30 NE2  HIS X   0       3.587   7.340  22.633  1.00 72.94 LIG-0.25  NA
ATOM     31  CD2 HIS X   0       4.013   6.094  22.236  1.00 71.12 LIG 0.14  A 
ENDBRANCH 26 27
ENDBRANCH 10 26
ENDBRANCH 8 10
ENDBRANCH 5 6
BRANCH 5 32
ATOM     32  CB  HIS X   1       3.093   1.997  16.516  1.00 48.25 LIG 0.10  C 
BRANCH 32 33
ATOM     33  CG  HIS X   1       3.463   3.139  15.621  1.00 50.36 LIG 0.06  A 
ATOM     34  CD2 HIS X   1       4.671   3.562  15.172  1.00 51.47 LIG 0.14  A 
ATOM     35 NE2  HIS X   1       4.444   4.653  14.369  1.00 50.72 LIG-0.25  NA
ATOM     36  CE1 HIS X   1       3.144   4.891  14.326  1.00 48.50 LIG 0.23  A 
ATOM     37 ND1  HIS X   1       2.528   3.994  15.074  1.00 47.89 LIG-0.24  NA
ENDBRANCH 32 33
ENDBRANCH 5 32
ENDBRANCH 1 5
BRANCH 3 38
ATOM     38  CA  HIS X   2       1.374  -1.717  17.004  1.00 26.25 LIG 0.18  C 
BRANCH 38 39
ATOM     39  C   HIS X   2       2.587  -2.632  16.867  1.00 23.72 LIG 0.24  C 
ATOM     40  N   HIS X   3       2.498  -3.753  17.564  1.00 22.33 LIG-0.35  N 
ATOM     41 H    HIS X   3       1.829  -3.952  18.067  1.00 22.33 LIG 0.16  HD
ATOM     42 O    HIS X   2       3.570  -2.334  16.173  1.00 19.88 LIG-0.27  OA
BRANCH 40 43
ATOM     43  CA  HIS X   3       3.557  -4.775  17.538  1.00 22.38 LIG 0.18  C 
BRANCH 43 44
ATOM     44  CB  HIS X   3       3.337  -5.866  16.444  1.00 22.51 LIG 0.10  C 
BRANCH 44 45
ATOM     45  CG  HIS X   3       2.210  -5.601  15.485  1.00 18.10 LIG 0.06  A 
ATOM     46  CD2 HIS X   3       2.202  -5.118  14.218  1.00 18.75 LIG 0.14  A 
ATOM     47 NE2  HIS X   3       0.894  -5.123  13.789  1.00 20.06 LIG-0.25  NA
ATOM     48  CE1 HIS X   3       0.131  -5.607  14.751  1.00 21.69 LIG 0.23  A 
ATOM     49 ND1  HIS X   3       0.905  -5.916  15.779  1.00 17.48 LIG-0.24  NA
ENDBRANCH 44 45
ENDBRANCH 43 44
BRANCH 43 50
ATOM     50  C   HIS X   3       4.942  -4.136  17.459  1.00 21.59 LIG 0.24  C 
ATOM     51 O    HIS X   3       5.660  -4.258  16.473  1.00 25.47 LIG-0.27  OA
ATOM     52  N   HIS X   4       5.327  -3.500  18.546  1.00 25.63 LIG-0.35  N 
ATOM     53 H    HIS X   4       4.851  -3.429  19.259  1.00 25.63 LIG 0.16  HD
BRANCH 52 54
ATOM     54  CA  HIS X   4       6.638  -2.849  18.616  1.00 23.96 LIG 0.17  C 
BRANCH 54 55
ATOM     55  C   HIS X   4       6.669  -1.715  17.586  1.00 31.35 LIG 0.22  C 
ATOM     56 O    HIS X   4       7.363  -1.793  16.570  1.00 37.06 LIG-0.29  OA
ENDBRANCH 54 55
BRANCH 54 57
ATOM     57  CB  HIS X   4       7.783  -3.844  18.384  1.00 23.83 LIG 0.09  C 
BRANCH 57 58
ATOM     58  CG  HIS X   4       7.650  -5.124  19.166  1.00 22.57 LIG 0.06  A 
ATOM     59 ND1  HIS X   4       7.570  -6.369  18.570  1.00 22.63 LIG-0.24  NA
ATOM     60  CE1 HIS X   4       7.466  -7.297  19.507  1.00 19.94 LIG 0.23  A 
ATOM     61 NE2  HIS X   4       7.457  -6.701  20.685  1.00 20.25 LIG-0.25  NA
ATOM     62  CD2 HIS X   4       7.585  -5.344  20.499  1.00 21.52 LIG 0.14  A 
ENDBRANCH 57 58
ENDBRANCH 54 57
ENDBRANCH 52 54
ENDBRANCH 43 50
ENDBRANCH 40 43
ENDBRANCH 38 39
BRANCH 38 63
ATOM     63  CB  HIS X   2       0.266  -2.195  16.058  1.00 28.74 LIG 0.10  C 
BRANCH 63 64
ATOM     64  CG  HIS X   2      -1.082  -2.261  16.695  1.00 28.63 LIG 0.06  A 
ATOM     65 ND1  HIS X   2      -1.252  -2.565  18.024  1.00 31.27 LIG-0.24  NA
ATOM     66  CE1 HIS X   2      -2.538  -2.535  18.320  1.00 28.11 LIG 0.23  A 
ATOM     67 NE2  HIS X   2      -3.212  -2.232  17.228  1.00 29.87 LIG-0.25  NA
ATOM     68  CD2 HIS X   2      -2.322  -2.046  16.195  1.00 31.84 LIG 0.14  A 
ENDBRANCH 63 64
ENDBRANCH 38 63
ENDBRANCH 3 38
TORSDOF 24
ENDMDL
MODEL 88
USER: ADFR SOLUTION from run 30
USER: SCORE 17.962152 LL:  -5.756 LR: -13.360 RR:   0.000 FEB:  -6.201
USER: RMSD 6.426296
USER: SEED 29
USER: STATUS no improvement in best in 14 clusters for 5 generations
USER: GENES 26
USER: genes 0 Translation |==|  0.45914 0.52551 0.39356
USER: genes 1 Rotation |==|  0.27909 0.05243 0.48335 0.52458
USER: genes 2 Torsion [N]-C--CA-[N] |==|  0.11269
USER: genes 3 Torsion [C]-CA--N-[C] |==|  0.15068
USER: genes 4 Torsion [N]-C--CA-[N] |==|  0.21403
USER: genes 5 Torsion [C]-CA--N-[C] |==|  0.63336
USER: genes 6 Torsion [N]-C--CA-[N] |==|  0.44847
USER: genes 7 Torsion [C]-CA--N-[H2] |==|  0.61797
USER: genes 8 Torsion [C]-CA--CB-[CG] |==|  0.59193
USER: genes 9 Torsion [CA]-CB--CG-[ND1] |==|  0.36193
USER: genes 10 Torsion [C]-CA--CB-[CG] |==|  0.41311
USER: genes 11 Torsion [CA]-CB--CG-[CD2] |==|  0.53498
USER: genes 12 Torsion [C]-CA--CB-[CG] |==|  0.45008
USER: genes 13 Torsion [CA]-CB--CG-[CD2] |==|  0.01946
USER: genes 14 Torsion [C]-N--CA-[C] |==|  0.73438
USER: genes 15 Torsion [N]-CA--C-[N] |==|  0.52473
USER: genes 16 Torsion [C]-N--CA-[CB] |==|  0.75716
USER: genes 17 Torsion [N]-CA--CB-[CG] |==|  0.90025
USER: genes 18 Torsion [CA]-CB--CG-[ND1] |==|  0.69511
USER: genes 19 Torsion [N]-CA--C-[N] |==|  0.23735
USER: genes 20 Torsion [C]-N--CA-[C] |==|  0.21414
USER: genes 21 Torsion [N]-CA--C-[O] |==|  0.96400
USER: genes 22 Torsion [N]-CA--CB-[CG] |==|  0.81276
USER: genes 23 Torsion [CA]-CB--CG-[ND1] |==|  0.67415
USER: genes 24 Torsion [N]-CA--CB-[CG] |==|  0.82041
USER: genes 25 Torsion [CA]-CB--CG-[CD2] |==|  0.93147
ROOT
ATOM      1  C   HIS X   1       1.803   0.630  17.654  1.00 40.87 LIG 0.24  C 
ATOM      2 O    HIS X   1       2.515  -0.339  17.376  1.00 40.80 LIG-0.27  OA
ATOM      3  N   HIS X   2       0.769   0.591  18.471  1.00 30.16 LIG-0.35  N 
ATOM      4 H    HIS X   2       0.273   1.273  18.639  1.00 30.16 LIG 0.16  HD
ENDROOT
BRANCH 1 5
ATOM      5  CA  HIS X   1       2.047   2.010  17.080  1.00 48.06 LIG 0.18  C 
BRANCH 5 6
ATOM      6  N   HIS X   1       1.845   3.018  18.124  1.00 54.11 LIG-0.35  N 
ATOM      7 H    HIS X   1       1.282   3.632  17.912  1.00 54.11 LIG 0.16  HD
ATOM      8  C   HIS X   0       2.473   2.977  19.281  1.00 58.54 LIG 0.24  C 
ATOM      9 O    HIS X   0       3.441   2.249  19.512  1.00 63.37 LIG-0.27  OA
BRANCH 8 10
ATOM     10  CA  HIS X   0       1.899   3.916  20.329  1.00 62.53 LIG 0.18  C 
BRANCH 10 11
ATOM     11  N   HIS X   0       0.662   3.399  20.925  1.00 60.73 LIG-0.35  N 
ATOM     12  C   HIS X  -1      -0.410   4.166  21.044  1.00 60.09 LIG 0.25  C 
ATOM     13 O    HIS X  -1      -0.636   5.138  20.320  1.00 62.79 LIG-0.27  OA
ATOM     14 H    HIS X   0       0.701   2.579  21.179  1.00 60.73 LIG 0.16  HD
BRANCH 12 15
ATOM     15  CA  HIS X  -1      -1.387   3.737  22.133  1.00 59.53 LIG 0.28  C 
BRANCH 15 16
ATOM     16  N   HIS X  -1      -2.294   4.881  22.485  1.00 57.14 LIG-0.07  N 
ATOM     17 H3   HIS X  -1      -1.939   5.643  22.192  1.00 57.14 LIG 0.28  HD
ATOM     18 H2   HIS X  -1      -2.393   4.922  23.369  1.00 57.14 LIG 0.28  HD
ATOM     19 H1   HIS X  -1      -3.089   4.759  22.102  1.00 57.14 LIG 0.28  HD
ENDBRANCH 15 16
BRANCH 15 20
ATOM     20  CB  HIS X  -1      -2.201   2.519  21.697  1.00 57.27 LIG 0.10  C 
BRANCH 20 21
ATOM     21  CG  HIS X  -1      -3.593   2.497  22.240  1.00 54.13 LIG 0.06  A 
ATOM     22 ND1  HIS X  -1      -4.698   2.281  21.445  1.00 52.72 LIG-0.24  NA
ATOM     23  CE1 HIS X  -1      -5.789   2.335  22.190  1.00 54.35 LIG 0.23  A 
ATOM     24 NE2  HIS X  -1      -5.432   2.579  23.439  1.00 53.65 LIG-0.25  NA
ATOM     25  CD2 HIS X  -1      -4.062   2.683  23.498  1.00 55.23 LIG 0.14  A 
ENDBRANCH 20 21
ENDBRANCH 15 20
ENDBRANCH 12 15
ENDBRANCH 10 11
BRANCH 10 26
ATOM     26  CB  HIS X   0       2.965   4.222  21.403  1.00 64.99 LIG 0.10  C 
BRANCH 26 27
ATOM     27  CG  HIS X   0       2.848   5.589  22.014  1.00 69.41 LIG 0.06  A 
ATOM     28 ND1  HIS X   0       1.729   6.383  21.856  1.00 72.01 LIG-0.24  NA
ATOM     29  CE1 HIS X   0       1.902   7.521  22.507  1.00 72.69 LIG 0.23  A 
ATOM     30 NE2  HIS X   0       3.089   7.493  23.086  1.00 72.94 LIG-0.25  NA
ATOM     31  CD2 HIS X   0       3.700   6.294  22.797  1.00 71.12 LIG 0.14  A 
ENDBRANCH 26 27
ENDBRANCH 10 26
ENDBRANCH 8 10
ENDBRANCH 5 6
BRANCH 5 32
ATOM     32  CB  HIS X   1       3.466   2.104  16.521  1.00 48.25 LIG 0.10  C 
BRANCH 32 33
ATOM     33  CG  HIS X   1       3.664   3.245  15.573  1.00 50.36 LIG 0.06  A 
ATOM     34  CD2 HIS X   1       2.843   4.268  15.229  1.00 51.47 LIG 0.14  A 
ATOM     35 NE2  HIS X   1       3.523   5.044  14.321  1.00 50.72 LIG-0.25  NA
ATOM     36  CE1 HIS X   1       4.718   4.517  14.117  1.00 48.50 LIG 0.23  A 
ATOM     37 ND1  HIS X   1       4.830   3.430  14.858  1.00 47.89 LIG-0.24  NA
ENDBRANCH 32 33
ENDBRANCH 5 32
ENDBRANCH 1 5
BRANCH 3 38
ATOM     38  CA  HIS X   2       0.357  -0.638  19.187  1.00 26.25 LIG 0.18  C 
BRANCH 38 39
ATOM     39  C   HIS X   2      -0.745  -1.405  18.461  1.00 23.72 LIG 0.24  C 
ATOM     40  N   HIS X   3      -1.261  -2.401  19.163  1.00 22.33 LIG-0.35  N 
ATOM     41 H    HIS X   3      -0.995  -2.617  19.952  1.00 22.33 LIG 0.16  HD
ATOM     42 O    HIS X   2      -1.105  -1.120  17.310  1.00 19.88 LIG-0.27  OA
BRANCH 40 43
ATOM     43  CA  HIS X   3      -2.354  -3.238  18.643  1.00 22.38 LIG 0.18  C 
BRANCH 43 44
ATOM     44  CB  HIS X   3      -3.772  -2.658  18.939  1.00 22.51 LIG 0.10  C 
BRANCH 44 45
ATOM     45  CG  HIS X   3      -3.922  -1.961  20.262  1.00 18.10 LIG 0.06  A 
ATOM     46  CD2 HIS X   3      -3.487  -0.752  20.695  1.00 18.75 LIG 0.14  A 
ATOM     47 NE2  HIS X   3      -3.946  -0.592  21.983  1.00 20.06 LIG-0.25  NA
ATOM     48  CE1 HIS X   3      -4.648  -1.657  22.320  1.00 21.69 LIG 0.23  A 
ATOM     49 ND1  HIS X   3      -4.660  -2.490  21.292  1.00 17.48 LIG-0.24  NA
ENDBRANCH 44 45
ENDBRANCH 43 44
BRANCH 43 50
ATOM     50  C   HIS X   3      -2.148  -3.561  17.163  1.00 21.59 LIG 0.24  C 
ATOM     51 O    HIS X   3      -2.703  -2.924  16.275  1.00 25.47 LIG-0.27  OA
ATOM     52  N   HIS X   4      -1.385  -4.606  16.921  1.00 25.63 LIG-0.35  N 
ATOM     53 H    HIS X   4      -1.011  -5.085  17.530  1.00 25.63 LIG 0.16  HD
BRANCH 52 54
ATOM     54  CA  HIS X   4      -1.112  -5.038  15.547  1.00 23.96 LIG 0.17  C 
BRANCH 54 55
ATOM     55  C   HIS X   4      -0.065  -4.096  14.944  1.00 31.35 LIG 0.22  C 
ATOM     56 O    HIS X   4       0.230  -3.033  15.493  1.00 37.06 LIG-0.29  OA
ENDBRANCH 54 55
BRANCH 54 57
ATOM     57  CB  HIS X   4      -2.387  -5.073  14.695  1.00 23.83 LIG 0.09  C 
BRANCH 57 58
ATOM     58  CG  HIS X   4      -3.373  -6.132  15.113  1.00 22.57 LIG 0.06  A 
ATOM     59 ND1  HIS X   4      -3.750  -7.179  14.292  1.00 22.63 LIG-0.24  NA
ATOM     60  CE1 HIS X   4      -4.619  -7.945  14.930  1.00 19.94 LIG 0.23  A 
ATOM     61 NE2  HIS X   4      -4.833  -7.426  16.124  1.00 20.25 LIG-0.25  NA
ATOM     62  CD2 HIS X   4      -4.056  -6.301  16.268  1.00 21.52 LIG 0.14  A 
ENDBRANCH 57 58
ENDBRANCH 54 57
ENDBRANCH 52 54
ENDBRANCH 43 50
ENDBRANCH 40 43
ENDBRANCH 38 39
BRANCH 38 63
ATOM     63  CB  HIS X   2      -0.104  -0.312  20.612  1.00 28.74 LIG 0.10  C 
BRANCH 63 64
ATOM     64  CG  HIS X   2       0.978   0.233  21.484  1.00 28.63 LIG 0.06  A 
ATOM     65 ND1  HIS X   2       0.712   1.012  22.585  1.00 31.27 LIG-0.24  NA
ATOM     66  CE1 HIS X   2       1.846   1.338  23.176  1.00 28.11 LIG 0.23  A 
ATOM     67 NE2  HIS X   2       2.841   0.808  22.493  1.00 29.87 LIG-0.25  NA
ATOM     68  CD2 HIS X   2       2.325   0.102  21.431  1.00 31.84 LIG 0.14  A 
ENDBRANCH 63 64
ENDBRANCH 38 63
ENDBRANCH 3 38
TORSDOF 24
ENDMDL
MODEL 89
USER: ADFR SOLUTION from run 74
USER: SCORE 18.012476 LL:  -5.610 LR: -13.351 RR:   0.000 FEB:  -6.191
USER: RMSD 5.981191
USER: SEED 73
USER: STATUS no improvement in best in 18 clusters for 5 generations
USER: GENES 26
USER: genes 0 Translation |==|  0.55972 0.60638 0.40701
USER: genes 1 Rotation |==|  0.80637 0.78885 0.73846 0.62585
USER: genes 2 Torsion [N]-C--CA-[N] |==|  0.10795
USER: genes 3 Torsion [C]-CA--N-[C] |==|  0.13333
USER: genes 4 Torsion [N]-C--CA-[N] |==|  0.41442
USER: genes 5 Torsion [C]-CA--N-[C] |==|  0.62983
USER: genes 6 Torsion [N]-C--CA-[N] |==|  0.44488
USER: genes 7 Torsion [C]-CA--N-[H2] |==|  0.42212
USER: genes 8 Torsion [C]-CA--CB-[CG] |==|  0.18693
USER: genes 9 Torsion [CA]-CB--CG-[ND1] |==|  0.60894
USER: genes 10 Torsion [C]-CA--CB-[CG] |==|  0.41008
USER: genes 11 Torsion [CA]-CB--CG-[CD2] |==|  0.92283
USER: genes 12 Torsion [C]-CA--CB-[CG] |==|  0.58282
USER: genes 13 Torsion [CA]-CB--CG-[CD2] |==|  0.80359
USER: genes 14 Torsion [C]-N--CA-[C] |==|  0.12403
USER: genes 15 Torsion [N]-CA--C-[N] |==|  0.65497
USER: genes 16 Torsion [C]-N--CA-[CB] |==|  0.82586
USER: genes 17 Torsion [N]-CA--CB-[CG] |==|  0.65809
USER: genes 18 Torsion [CA]-CB--CG-[ND1] |==|  0.27678
USER: genes 19 Torsion [N]-CA--C-[N] |==|  0.33915
USER: genes 20 Torsion [C]-N--CA-[C] |==|  0.85110
USER: genes 21 Torsion [N]-CA--C-[O] |==|  0.91205
USER: genes 22 Torsion [N]-CA--CB-[CG] |==|  0.12614
USER: genes 23 Torsion [CA]-CB--CG-[ND1] |==|  0.83848
USER: genes 24 Torsion [N]-CA--CB-[CG] |==|  0.97145
USER: genes 25 Torsion [CA]-CB--CG-[CD2] |==|  0.77848
ROOT
ATOM      1  C   HIS X   1       3.839   2.571  17.896  1.00 40.87 LIG 0.24  C 
ATOM      2 O    HIS X   1       4.094   1.446  17.457  1.00 40.80 LIG-0.27  OA
ATOM      3  N   HIS X   2       2.705   3.213  17.699  1.00 30.16 LIG-0.35  N 
ATOM      4 H    HIS X   2       2.552   4.005  17.999  1.00 30.16 LIG 0.16  HD
ENDROOT
BRANCH 1 5
ATOM      5  CA  HIS X   1       4.822   3.356  18.739  1.00 48.06 LIG 0.18  C 
BRANCH 5 6
ATOM      6  N   HIS X   1       4.103   4.054  19.808  1.00 54.11 LIG-0.35  N 
ATOM      7 H    HIS X   1       4.315   4.883  19.888  1.00 54.11 LIG 0.16  HD
ATOM      8  C   HIS X   0       3.212   3.455  20.571  1.00 58.54 LIG 0.24  C 
ATOM      9 O    HIS X   0       3.065   2.233  20.627  1.00 63.37 LIG-0.27  OA
BRANCH 8 10
ATOM     10  CA  HIS X   0       2.364   4.410  21.395  1.00 62.53 LIG 0.18  C 
BRANCH 10 11
ATOM     11  N   HIS X   0       1.014   3.888  21.641  1.00 60.73 LIG-0.35  N 
ATOM     12  C   HIS X  -1      -0.054   4.648  21.464  1.00 60.09 LIG 0.25  C 
ATOM     13 O    HIS X  -1      -0.083   5.615  20.699  1.00 62.79 LIG-0.27  OA
ATOM     14 H    HIS X   0       0.988   3.069  21.901  1.00 60.73 LIG 0.16  HD
BRANCH 12 15
ATOM     15  CA  HIS X  -1      -1.285   4.218  22.253  1.00 59.53 LIG 0.28  C 
BRANCH 15 16
ATOM     16  N   HIS X  -1      -2.245   5.368  22.368  1.00 57.14 LIG-0.07  N 
ATOM     17 H3   HIS X  -1      -2.044   5.851  23.089  1.00 57.14 LIG 0.28  HD
ATOM     18 H2   HIS X  -1      -3.075   5.055  22.444  1.00 57.14 LIG 0.28  HD
ATOM     19 H1   HIS X  -1      -2.185   5.879  21.642  1.00 57.14 LIG 0.28  HD
ENDBRANCH 15 16
BRANCH 15 20
ATOM     20  CB  HIS X  -1      -1.965   3.012  21.604  1.00 57.27 LIG 0.10  C 
BRANCH 20 21
ATOM     21  CG  HIS X  -1      -1.153   1.759  21.660  1.00 54.13 LIG 0.06  A 
ATOM     22 ND1  HIS X  -1      -1.093   0.865  20.613  1.00 52.72 LIG-0.24  NA
ATOM     23  CE1 HIS X  -1      -0.318  -0.153  20.951  1.00 54.35 LIG 0.23  A 
ATOM     24 NE2  HIS X  -1       0.125   0.049  22.180  1.00 53.65 LIG-0.25  NA
ATOM     25  CD2 HIS X  -1      -0.382   1.240  22.646  1.00 55.23 LIG 0.14  A 
ENDBRANCH 20 21
ENDBRANCH 15 20
ENDBRANCH 12 15
ENDBRANCH 10 11
BRANCH 10 26
ATOM     26  CB  HIS X   0       3.089   4.758  22.713  1.00 64.99 LIG 0.10  C 
BRANCH 26 27
ATOM     27  CG  HIS X   0       2.816   6.146  23.218  1.00 69.41 LIG 0.06  A 
ATOM     28 ND1  HIS X   0       2.891   6.481  24.555  1.00 72.01 LIG-0.24  NA
ATOM     29  CE1 HIS X   0       2.610   7.765  24.702  1.00 72.69 LIG 0.23  A 
ATOM     30 NE2  HIS X   0       2.361   8.276  23.510  1.00 72.94 LIG-0.25  NA
ATOM     31  CD2 HIS X   0       2.487   7.285  22.563  1.00 71.12 LIG 0.14  A 
ENDBRANCH 26 27
ENDBRANCH 10 26
ENDBRANCH 8 10
ENDBRANCH 5 6
BRANCH 5 32
ATOM     32  CB  HIS X   1       5.872   2.419  19.332  1.00 48.25 LIG 0.10  C 
BRANCH 32 33
ATOM     33  CG  HIS X   1       6.414   2.880  20.650  1.00 50.36 LIG 0.06  A 
ATOM     34  CD2 HIS X   1       7.231   3.916  20.962  1.00 51.47 LIG 0.14  A 
ATOM     35 NE2  HIS X   1       7.408   3.896  22.324  1.00 50.72 LIG-0.25  NA
ATOM     36  CE1 HIS X   1       6.724   2.883  22.830  1.00 48.50 LIG 0.23  A 
ATOM     37 ND1  HIS X   1       6.116   2.253  21.842  1.00 47.89 LIG-0.24  NA
ENDBRANCH 32 33
ENDBRANCH 5 32
ENDBRANCH 1 5
BRANCH 3 38
ATOM     38  CA  HIS X   2       1.574   2.633  16.940  1.00 26.25 LIG 0.18  C 
BRANCH 38 39
ATOM     39  C   HIS X   2       1.290   1.182  17.318  1.00 23.72 LIG 0.24  C 
ATOM     40  N   HIS X   3       1.314   0.344  16.294  1.00 22.33 LIG-0.35  N 
ATOM     41 H    HIS X   3       1.458   0.586  15.482  1.00 22.33 LIG 0.16  HD
ATOM     42 O    HIS X   2       1.045   0.834  18.482  1.00 19.88 LIG-0.27  OA
BRANCH 40 43
ATOM     43  CA  HIS X   3       1.092  -1.101  16.463  1.00 22.38 LIG 0.18  C 
BRANCH 43 44
ATOM     44  CB  HIS X   3       2.172  -1.794  17.351  1.00 22.51 LIG 0.10  C 
BRANCH 44 45
ATOM     45  CG  HIS X   3       2.905  -2.935  16.704  1.00 18.10 LIG 0.06  A 
ATOM     46  CD2 HIS X   3       2.535  -4.216  16.456  1.00 18.75 LIG 0.14  A 
ATOM     47 NE2  HIS X   3       3.580  -4.821  15.795  1.00 20.06 LIG-0.25  NA
ATOM     48  CE1 HIS X   3       4.548  -3.939  15.631  1.00 21.69 LIG 0.23  A 
ATOM     49 ND1  HIS X   3       4.157  -2.790  16.158  1.00 17.48 LIG-0.24  NA
ENDBRANCH 44 45
ENDBRANCH 43 44
BRANCH 43 50
ATOM     50  C   HIS X   3      -0.332  -1.391  16.937  1.00 21.59 LIG 0.24  C 
ATOM     51 O    HIS X   3      -0.764  -0.961  18.000  1.00 25.47 LIG-0.27  OA
ATOM     52  N   HIS X   4      -1.032  -2.182  16.151  1.00 25.63 LIG-0.35  N 
ATOM     53 H    HIS X   4      -0.738  -2.519  15.416  1.00 25.63 LIG 0.16  HD
BRANCH 52 54
ATOM     54  CA  HIS X   4      -2.409  -2.555  16.489  1.00 23.96 LIG 0.17  C 
BRANCH 54 55
ATOM     55  C   HIS X   4      -2.417  -3.137  17.906  1.00 31.35 LIG 0.22  C 
ATOM     56 O    HIS X   4      -1.449  -3.758  18.348  1.00 37.06 LIG-0.29  OA
ENDBRANCH 54 55
BRANCH 54 57
ATOM     57  CB  HIS X   4      -2.997  -3.545  15.476  1.00 23.83 LIG 0.09  C 
BRANCH 57 58
ATOM     58  CG  HIS X   4      -2.068  -4.674  15.114  1.00 22.57 LIG 0.06  A 
ATOM     59 ND1  HIS X   4      -0.812  -4.474  14.571  1.00 22.63 LIG-0.24  NA
ATOM     60  CE1 HIS X   4      -0.232  -5.645  14.366  1.00 19.94 LIG 0.23  A 
ATOM     61 NE2  HIS X   4      -1.069  -6.595  14.739  1.00 20.25 LIG-0.25  NA
ATOM     62  CD2 HIS X   4      -2.217  -6.014  15.223  1.00 21.52 LIG 0.14  A 
ENDBRANCH 57 58
ENDBRANCH 54 57
ENDBRANCH 52 54
ENDBRANCH 43 50
ENDBRANCH 40 43
ENDBRANCH 38 39
BRANCH 38 63
ATOM     63  CB  HIS X   2       1.824   2.727  15.431  1.00 28.74 LIG 0.10  C 
BRANCH 63 64
ATOM     64  CG  HIS X   2       2.996   3.577  15.067  1.00 28.63 LIG 0.06  A 
ATOM     65 ND1  HIS X   2       4.215   3.041  14.726  1.00 31.27 LIG-0.24  NA
ATOM     66  CE1 HIS X   2       5.057   4.015  14.437  1.00 28.11 LIG 0.23  A 
ATOM     67 NE2  HIS X   2       4.432   5.167  14.587  1.00 29.87 LIG-0.25  NA
ATOM     68  CD2 HIS X   2       3.135   4.921  14.974  1.00 31.84 LIG 0.14  A 
ENDBRANCH 63 64
ENDBRANCH 38 63
ENDBRANCH 3 38
TORSDOF 24
ENDMDL
MODEL 90
USER: ADFR SOLUTION from run 167
USER: SCORE 18.332810 LL:  -5.740 LR: -13.354 RR:   0.000 FEB:  -6.195
USER: RMSD 10.445029
USER: SEED 166
USER: STATUS no improvement in best in 36 clusters for 5 generations
USER: GENES 26
USER: genes 0 Translation |==|  0.55589 0.66346 0.55031
USER: genes 1 Rotation |==|  0.52496 0.79146 0.88012 0.64119
USER: genes 2 Torsion [N]-C--CA-[N] |==|  0.16891
USER: genes 3 Torsion [C]-CA--N-[C] |==|  0.64600
USER: genes 4 Torsion [N]-C--CA-[N] |==|  0.40560
USER: genes 5 Torsion [C]-CA--N-[C] |==|  0.62102
USER: genes 6 Torsion [N]-C--CA-[N] |==|  0.88976
USER: genes 7 Torsion [C]-CA--N-[H2] |==|  0.63562
USER: genes 8 Torsion [C]-CA--CB-[CG] |==|  0.04732
USER: genes 9 Torsion [CA]-CB--CG-[ND1] |==|  0.66248
USER: genes 10 Torsion [C]-CA--CB-[CG] |==|  0.18808
USER: genes 11 Torsion [CA]-CB--CG-[CD2] |==|  0.24096
USER: genes 12 Torsion [C]-CA--CB-[CG] |==|  0.42710
USER: genes 13 Torsion [CA]-CB--CG-[CD2] |==|  0.93084
USER: genes 14 Torsion [C]-N--CA-[C] |==|  0.77980
USER: genes 15 Torsion [N]-CA--C-[N] |==|  0.37778
USER: genes 16 Torsion [C]-N--CA-[CB] |==|  0.85554
USER: genes 17 Torsion [N]-CA--CB-[CG] |==|  0.57273
USER: genes 18 Torsion [CA]-CB--CG-[ND1] |==|  0.47430
USER: genes 19 Torsion [N]-CA--C-[N] |==|  0.90361
USER: genes 20 Torsion [C]-N--CA-[C] |==|  0.58884
USER: genes 21 Torsion [N]-CA--C-[O] |==|  0.82716
USER: genes 22 Torsion [N]-CA--CB-[CG] |==|  0.67524
USER: genes 23 Torsion [CA]-CB--CG-[ND1] |==|  0.67107
USER: genes 24 Torsion [N]-CA--CB-[CG] |==|  0.27962
USER: genes 25 Torsion [CA]-CB--CG-[CD2] |==|  0.29142
ROOT
ATOM      1  C   HIS X   1       3.762   3.941  20.476  1.00 40.87 LIG 0.24  C 
ATOM      2 O    HIS X   1       4.851   3.462  20.804  1.00 40.80 LIG-0.27  OA
ATOM      3  N   HIS X   2       3.188   3.763  19.302  1.00 30.16 LIG-0.35  N 
ATOM      4 H    HIS X   2       2.437   4.120  19.085  1.00 30.16 LIG 0.16  HD
ENDROOT
BRANCH 1 5
ATOM      5  CA  HIS X   1       2.937   4.800  21.411  1.00 48.06 LIG 0.18  C 
BRANCH 5 6
ATOM      6  N   HIS X   1       1.645   4.154  21.657  1.00 54.11 LIG-0.35  N 
ATOM      7 H    HIS X   1       1.707   3.338  21.921  1.00 54.11 LIG 0.16  HD
ATOM      8  C   HIS X   0       0.497   4.777  21.486  1.00 58.54 LIG 0.24  C 
ATOM      9 O    HIS X   0       0.380   5.852  20.895  1.00 63.37 LIG-0.27  OA
BRANCH 8 10
ATOM     10  CA  HIS X   0      -0.695   4.051  22.086  1.00 62.53 LIG 0.18  C 
BRANCH 10 11
ATOM     11  N   HIS X   0      -1.710   4.976  22.603  1.00 60.73 LIG-0.35  N 
ATOM     12  C   HIS X  -1      -2.293   4.766  23.773  1.00 60.09 LIG 0.25  C 
ATOM     13 O    HIS X  -1      -1.774   4.118  24.685  1.00 62.79 LIG-0.27  OA
ATOM     14 H    HIS X   0      -1.883   5.643  22.089  1.00 60.73 LIG 0.16  HD
BRANCH 12 15
ATOM     15  CA  HIS X  -1      -3.658   5.423  23.936  1.00 59.53 LIG 0.28  C 
BRANCH 15 16
ATOM     16  N   HIS X  -1      -3.644   6.791  23.316  1.00 57.14 LIG-0.07  N 
ATOM     17 H3   HIS X  -1      -2.806   7.019  23.119  1.00 57.14 LIG 0.28  HD
ATOM     18 H2   HIS X  -1      -3.984   7.381  23.889  1.00 57.14 LIG 0.28  HD
ATOM     19 H1   HIS X  -1      -4.132   6.785  22.572  1.00 57.14 LIG 0.28  HD
ENDBRANCH 15 16
BRANCH 15 20
ATOM     20  CB  HIS X  -1      -4.763   4.565  23.320  1.00 57.27 LIG 0.10  C 
BRANCH 20 21
ATOM     21  CG  HIS X  -1      -4.359   3.148  23.072  1.00 54.13 LIG 0.06  A 
ATOM     22 ND1  HIS X  -1      -4.397   2.572  21.820  1.00 52.72 LIG-0.24  NA
ATOM     23  CE1 HIS X  -1      -4.005   1.312  21.907  1.00 54.35 LIG 0.23  A 
ATOM     24 NE2  HIS X  -1      -3.715   1.049  23.169  1.00 53.65 LIG-0.25  NA
ATOM     25  CD2 HIS X  -1      -3.926   2.183  23.919  1.00 55.23 LIG 0.14  A 
ENDBRANCH 20 21
ENDBRANCH 15 20
ENDBRANCH 12 15
ENDBRANCH 10 11
BRANCH 10 26
ATOM     26  CB  HIS X   0      -1.290   3.069  21.053  1.00 64.99 LIG 0.10  C 
BRANCH 26 27
ATOM     27  CG  HIS X   0      -0.396   1.909  20.721  1.00 69.41 LIG 0.06  A 
ATOM     28 ND1  HIS X   0       0.495   1.933  19.667  1.00 72.01 LIG-0.24  NA
ATOM     29  CE1 HIS X   0       1.150   0.785  19.619  1.00 72.69 LIG 0.23  A 
ATOM     30 NE2  HIS X   0       0.720   0.020  20.607  1.00 72.94 LIG-0.25  NA
ATOM     31  CD2 HIS X   0      -0.244   0.701  21.314  1.00 71.12 LIG 0.14  A 
ENDBRANCH 26 27
ENDBRANCH 10 26
ENDBRANCH 8 10
ENDBRANCH 5 6
BRANCH 5 32
ATOM     32  CB  HIS X   1       3.682   5.012  22.727  1.00 48.25 LIG 0.10  C 
BRANCH 32 33
ATOM     33  CG  HIS X   1       3.302   6.274  23.437  1.00 50.36 LIG 0.06  A 
ATOM     34  CD2 HIS X   1       2.789   7.438  22.968  1.00 51.47 LIG 0.14  A 
ATOM     35 NE2  HIS X   1       2.617   8.268  24.049  1.00 50.72 LIG-0.25  NA
ATOM     36  CE1 HIS X   1       3.009   7.636  25.142  1.00 48.50 LIG 0.23  A 
ATOM     37 ND1  HIS X   1       3.429   6.431  24.802  1.00 47.89 LIG-0.24  NA
ENDBRANCH 32 33
ENDBRANCH 5 32
ENDBRANCH 1 5
BRANCH 3 38
ATOM     38  CA  HIS X   2       3.784   2.927  18.235  1.00 26.25 LIG 0.18  C 
BRANCH 38 39
ATOM     39  C   HIS X   2       4.893   3.643  17.471  1.00 23.72 LIG 0.24  C 
ATOM     40  N   HIS X   3       5.964   2.899  17.250  1.00 22.33 LIG-0.35  N 
ATOM     41 H    HIS X   3       6.046   2.087  17.524  1.00 22.33 LIG 0.16  HD
ATOM     42 O    HIS X   2       4.794   4.825  17.107  1.00 19.88 LIG-0.27  OA
BRANCH 40 43
ATOM     43  CA  HIS X   3       7.127   3.405  16.504  1.00 22.38 LIG 0.18  C 
BRANCH 43 44
ATOM     44  CB  HIS X   3       6.754   4.022  15.120  1.00 22.51 LIG 0.10  C 
BRANCH 44 45
ATOM     45  CG  HIS X   3       7.841   3.990  14.084  1.00 18.10 LIG 0.06  A 
ATOM     46  CD2 HIS X   3       9.139   3.601  14.154  1.00 18.75 LIG 0.14  A 
ATOM     47 NE2  HIS X   3       9.672   3.735  12.892  1.00 20.06 LIG-0.25  NA
ATOM     48  CE1 HIS X   3       8.732   4.175  12.076  1.00 21.69 LIG 0.23  A 
ATOM     49 ND1  HIS X   3       7.615   4.321  12.770  1.00 17.48 LIG-0.24  NA
ENDBRANCH 44 45
ENDBRANCH 43 44
BRANCH 43 50
ATOM     50  C   HIS X   3       7.966   4.351  17.362  1.00 21.59 LIG 0.24  C 
ATOM     51 O    HIS X   3       9.190   4.368  17.306  1.00 25.47 LIG-0.27  OA
ATOM     52  N   HIS X   4       7.281   5.097  18.204  1.00 25.63 LIG-0.35  N 
ATOM     53 H    HIS X   4       6.424   5.079  18.281  1.00 25.63 LIG 0.16  HD
BRANCH 52 54
ATOM     54  CA  HIS X   4       7.957   6.042  19.097  1.00 23.96 LIG 0.17  C 
BRANCH 54 55
ATOM     55  C   HIS X   4       7.149   6.140  20.395  1.00 31.35 LIG 0.22  C 
ATOM     56 O    HIS X   4       5.990   6.558  20.397  1.00 37.06 LIG-0.29  OA
ENDBRANCH 54 55
BRANCH 54 57
ATOM     57  CB  HIS X   4       8.134   7.419  18.445  1.00 23.83 LIG 0.09  C 
BRANCH 57 58
ATOM     58  CG  HIS X   4       9.571   7.824  18.251  1.00 22.57 LIG 0.06  A 
ATOM     59 ND1  HIS X   4      10.129   8.939  18.850  1.00 22.63 LIG-0.24  NA
ATOM     60  CE1 HIS X   4      11.401   9.033  18.500  1.00 19.94 LIG 0.23  A 
ATOM     61 NE2  HIS X   4      11.684   8.035  17.685  1.00 20.25 LIG-0.25  NA
ATOM     62  CD2 HIS X   4      10.562   7.257  17.525  1.00 21.52 LIG 0.14  A 
ENDBRANCH 57 58
ENDBRANCH 54 57
ENDBRANCH 52 54
ENDBRANCH 43 50
ENDBRANCH 40 43
ENDBRANCH 38 39
BRANCH 38 63
ATOM     63  CB  HIS X   2       2.710   2.454  17.249  1.00 28.74 LIG 0.10  C 
BRANCH 63 64
ATOM     64  CG  HIS X   2       2.667   3.242  15.982  1.00 28.63 LIG 0.06  A 
ATOM     65 ND1  HIS X   2       2.150   4.514  15.926  1.00 31.27 LIG-0.24  NA
ATOM     66  CE1 HIS X   2       2.255   4.977  14.694  1.00 28.11 LIG 0.23  A 
ATOM     67 NE2  HIS X   2       2.813   4.046  13.944  1.00 29.87 LIG-0.25  NA
ATOM     68  CD2 HIS X   2       3.089   2.951  14.729  1.00 31.84 LIG 0.14  A 
ENDBRANCH 63 64
ENDBRANCH 38 63
ENDBRANCH 3 38
TORSDOF 24
ENDMDL
MODEL 91
USER: ADFR SOLUTION from run 62
USER: SCORE 17.401876 LL:  -5.519 LR: -13.335 RR:   0.000 FEB:  -6.176
USER: RMSD 10.753284
USER: SEED 61
USER: STATUS no improvement in best in 33 clusters for 5 generations
USER: GENES 26
USER: genes 0 Translation |==|  0.28433 0.37891 0.32647
USER: genes 1 Rotation |==|  0.03964 0.64716 0.61128 0.56351
USER: genes 2 Torsion [N]-C--CA-[N] |==|  0.03780
USER: genes 3 Torsion [C]-CA--N-[C] |==|  0.74087
USER: genes 4 Torsion [N]-C--CA-[N] |==|  0.70221
USER: genes 5 Torsion [C]-CA--N-[C] |==|  0.62778
USER: genes 6 Torsion [N]-C--CA-[N] |==|  0.39637
USER: genes 7 Torsion [C]-CA--N-[H2] |==|  0.55532
USER: genes 8 Torsion [C]-CA--CB-[CG] |==|  0.80965
USER: genes 9 Torsion [CA]-CB--CG-[ND1] |==|  0.18112
USER: genes 10 Torsion [C]-CA--CB-[CG] |==|  0.32377
USER: genes 11 Torsion [CA]-CB--CG-[CD2] |==|  0.55686
USER: genes 12 Torsion [C]-CA--CB-[CG] |==|  0.69781
USER: genes 13 Torsion [CA]-CB--CG-[CD2] |==|  0.18348
USER: genes 14 Torsion [C]-N--CA-[C] |==|  0.76528
USER: genes 15 Torsion [N]-CA--C-[N] |==|  0.51110
USER: genes 16 Torsion [C]-N--CA-[CB] |==|  0.53659
USER: genes 17 Torsion [N]-CA--CB-[CG] |==|  0.70948
USER: genes 18 Torsion [CA]-CB--CG-[ND1] |==|  0.02957
USER: genes 19 Torsion [N]-CA--C-[N] |==|  0.41865
USER: genes 20 Torsion [C]-N--CA-[C] |==|  0.19335
USER: genes 21 Torsion [N]-CA--C-[O] |==|  0.96151
USER: genes 22 Torsion [N]-CA--CB-[CG] |==|  0.86308
USER: genes 23 Torsion [CA]-CB--CG-[ND1] |==|  0.20033
USER: genes 24 Torsion [N]-CA--CB-[CG] |==|  0.21741
USER: genes 25 Torsion [CA]-CB--CG-[CD2] |==|  0.81758
ROOT
ATOM      1  C   HIS X   1      -1.737  -2.888  16.446  1.00 40.87 LIG 0.24  C 
ATOM      2 O    HIS X   1      -2.659  -2.222  16.927  1.00 40.80 LIG-0.27  OA
ATOM      3  N   HIS X   2      -0.484  -2.838  16.854  1.00 30.16 LIG-0.35  N 
ATOM      4 H    HIS X   2       0.148  -3.296  16.494  1.00 30.16 LIG 0.16  HD
ENDROOT
BRANCH 1 5
ATOM      5  CA  HIS X   1      -1.950  -3.869  15.313  1.00 48.06 LIG 0.18  C 
BRANCH 5 6
ATOM      6  N   HIS X   1      -0.773  -4.734  15.187  1.00 54.11 LIG-0.35  N 
ATOM      7 H    HIS X   1      -0.795  -5.429  15.693  1.00 54.11 LIG 0.16  HD
ATOM      8  C   HIS X   0       0.222  -4.462  14.368  1.00 58.54 LIG 0.24  C 
ATOM      9 O    HIS X   0       0.379  -3.371  13.816  1.00 63.37 LIG-0.27  OA
BRANCH 8 10
ATOM     10  CA  HIS X   0       1.181  -5.621  14.155  1.00 62.53 LIG 0.18  C 
BRANCH 10 11
ATOM     11  N   HIS X   0       2.467  -5.415  14.832  1.00 60.73 LIG-0.35  N 
ATOM     12  C   HIS X  -1       3.611  -5.649  14.210  1.00 60.09 LIG 0.25  C 
ATOM     13 O    HIS X  -1       3.740  -5.607  12.985  1.00 62.79 LIG-0.27  OA
ATOM     14 H    HIS X   0       2.405  -5.137  15.644  1.00 60.73 LIG 0.16  HD
BRANCH 12 15
ATOM     15  CA  HIS X  -1       4.792  -5.942  15.129  1.00 59.53 LIG 0.28  C 
BRANCH 15 16
ATOM     16  N   HIS X  -1       5.668  -6.995  14.513  1.00 57.14 LIG-0.07  N 
ATOM     17 H3   HIS X  -1       5.160  -7.619  14.133  1.00 57.14 LIG 0.28  HD
ATOM     18 H2   HIS X  -1       6.173  -7.368  15.145  1.00 57.14 LIG 0.28  HD
ATOM     19 H1   HIS X  -1       6.192  -6.623  13.896  1.00 57.14 LIG 0.28  HD
ENDBRANCH 15 16
BRANCH 15 20
ATOM     20  CB  HIS X  -1       5.595  -4.674  15.418  1.00 57.27 LIG 0.10  C 
BRANCH 20 21
ATOM     21  CG  HIS X  -1       6.330  -4.141  14.232  1.00 54.13 LIG 0.06  A 
ATOM     22 ND1  HIS X  -1       5.686  -3.652  13.115  1.00 52.72 LIG-0.24  NA
ATOM     23  CE1 HIS X  -1       6.585  -3.269  12.225  1.00 54.35 LIG 0.23  A 
ATOM     24 NE2  HIS X  -1       7.789  -3.493  12.722  1.00 53.65 LIG-0.25  NA
ATOM     25  CD2 HIS X  -1       7.657  -4.037  13.978  1.00 55.23 LIG 0.14  A 
ENDBRANCH 20 21
ENDBRANCH 15 20
ENDBRANCH 12 15
ENDBRANCH 10 11
BRANCH 10 26
ATOM     26  CB  HIS X   0       0.514  -6.944  14.589  1.00 64.99 LIG 0.10  C 
BRANCH 26 27
ATOM     27  CG  HIS X   0       0.319  -7.930  13.473  1.00 69.41 LIG 0.06  A 
ATOM     28 ND1  HIS X   0       1.054  -7.890  12.305  1.00 72.01 LIG-0.24  NA
ATOM     29  CE1 HIS X   0       0.676  -8.878  11.513  1.00 72.69 LIG 0.23  A 
ATOM     30 NE2  HIS X   0      -0.275  -9.561  12.125  1.00 72.94 LIG-0.25  NA
ATOM     31  CD2 HIS X   0      -0.514  -8.992  13.354  1.00 71.12 LIG 0.14  A 
ENDBRANCH 26 27
ENDBRANCH 10 26
ENDBRANCH 8 10
ENDBRANCH 5 6
BRANCH 5 32
ATOM     32  CB  HIS X   1      -3.199  -4.709  15.570  1.00 48.25 LIG 0.10  C 
BRANCH 32 33
ATOM     33  CG  HIS X   1      -2.904  -6.135  15.918  1.00 50.36 LIG 0.06  A 
ATOM     34  CD2 HIS X   1      -2.288  -6.678  16.997  1.00 51.47 LIG 0.14  A 
ATOM     35 NE2  HIS X   1      -2.288  -8.041  16.819  1.00 50.72 LIG-0.25  NA
ATOM     36  CE1 HIS X   1      -2.883  -8.323  15.673  1.00 48.50 LIG 0.23  A 
ATOM     37 ND1  HIS X   1      -3.263  -7.192  15.107  1.00 47.89 LIG-0.24  NA
ENDBRANCH 32 33
ENDBRANCH 5 32
ENDBRANCH 1 5
BRANCH 3 38
ATOM     38  CA  HIS X   2      -0.038  -1.982  17.977  1.00 26.25 LIG 0.18  C 
BRANCH 38 39
ATOM     39  C   HIS X   2       0.262  -0.550  17.547  1.00 23.72 LIG 0.24  C 
ATOM     40  N   HIS X   3       0.742   0.214  18.515  1.00 22.33 LIG-0.35  N 
ATOM     41 H    HIS X   3       0.863  -0.057  19.322  1.00 22.33 LIG 0.16  HD
ATOM     42 O    HIS X   2       0.056  -0.145  16.394  1.00 19.88 LIG-0.27  OA
BRANCH 40 43
ATOM     43  CA  HIS X   3       1.119   1.618  18.287  1.00 22.38 LIG 0.18  C 
BRANCH 43 44
ATOM     44  CB  HIS X   3       1.955   2.232  19.454  1.00 22.51 LIG 0.10  C 
BRANCH 44 45
ATOM     45  CG  HIS X   3       1.209   3.175  20.356  1.00 18.10 LIG 0.06  A 
ATOM     46  CD2 HIS X   3       1.643   4.070  21.278  1.00 18.75 LIG 0.14  A 
ATOM     47 NE2  HIS X   3       0.532   4.706  21.781  1.00 20.06 LIG-0.25  NA
ATOM     48  CE1 HIS X   3      -0.542   4.230  21.179  1.00 21.69 LIG 0.23  A 
ATOM     49 ND1  HIS X   3      -0.156   3.317  20.304  1.00 17.48 LIG-0.24  NA
ENDBRANCH 44 45
ENDBRANCH 43 44
BRANCH 43 50
ATOM     50  C   HIS X   3       1.792   1.798  16.926  1.00 21.59 LIG 0.24  C 
ATOM     51 O    HIS X   3       2.481   0.920  16.420  1.00 25.47 LIG-0.27  OA
ATOM     52  N   HIS X   4       1.625   2.981  16.373  1.00 25.63 LIG-0.35  N 
ATOM     53 H    HIS X   4       1.170   3.621  16.725  1.00 25.63 LIG 0.16  HD
BRANCH 52 54
ATOM     54  CA  HIS X   4       2.224   3.297  15.073  1.00 23.96 LIG 0.17  C 
BRANCH 54 55
ATOM     55  C   HIS X   4       1.499   2.484  13.996  1.00 31.35 LIG 0.22  C 
ATOM     56 O    HIS X   4       0.760   1.543  14.295  1.00 37.06 LIG-0.29  OA
ENDBRANCH 54 55
BRANCH 54 57
ATOM     57  CB  HIS X   4       3.733   3.021  15.058  1.00 23.83 LIG 0.09  C 
BRANCH 57 58
ATOM     58  CG  HIS X   4       4.475   3.613  16.226  1.00 22.57 LIG 0.06  A 
ATOM     59 ND1  HIS X   4       4.379   3.114  17.513  1.00 22.63 LIG-0.24  NA
ATOM     60  CE1 HIS X   4       5.144   3.832  18.319  1.00 19.94 LIG 0.23  A 
ATOM     61 NE2  HIS X   4       5.718   4.785  17.609  1.00 20.25 LIG-0.25  NA
ATOM     62  CD2 HIS X   4       5.327   4.661  16.296  1.00 21.52 LIG 0.14  A 
ENDBRANCH 57 58
ENDBRANCH 54 57
ENDBRANCH 52 54
ENDBRANCH 43 50
ENDBRANCH 40 43
ENDBRANCH 38 39
BRANCH 38 63
ATOM     63  CB  HIS X   2       1.198  -2.579  18.660  1.00 28.74 LIG 0.10  C 
BRANCH 63 64
ATOM     64  CG  HIS X   2       2.469  -2.343  17.916  1.00 28.63 LIG 0.06  A 
ATOM     65 ND1  HIS X   2       3.488  -1.574  18.427  1.00 31.27 LIG-0.24  NA
ATOM     66  CE1 HIS X   2       4.492  -1.549  17.570  1.00 28.11 LIG 0.23  A 
ATOM     67 NE2  HIS X   2       4.159  -2.267  16.515  1.00 29.87 LIG-0.25  NA
ATOM     68  CD2 HIS X   2       2.898  -2.783  16.709  1.00 31.84 LIG 0.14  A 
ENDBRANCH 63 64
ENDBRANCH 38 63
ENDBRANCH 3 38
TORSDOF 24
ENDMDL
MODEL 92
USER: ADFR SOLUTION from run 24
USER: SCORE 18.276970 LL:  -5.778 LR: -13.326 RR:   0.000 FEB:  -6.167
USER: RMSD 7.588802
USER: SEED 23
USER: STATUS no improvement in best in 16 clusters for 5 generations
USER: GENES 26
USER: genes 0 Translation |==|  0.48372 0.61324 0.48800
USER: genes 1 Rotation |==|  0.57076 0.72834 0.85811 0.75419
USER: genes 2 Torsion [N]-C--CA-[N] |==|  0.29508
USER: genes 3 Torsion [C]-CA--N-[C] |==|  0.69400
USER: genes 4 Torsion [N]-C--CA-[N] |==|  0.36205
USER: genes 5 Torsion [C]-CA--N-[C] |==|  0.78975
USER: genes 6 Torsion [N]-C--CA-[N] |==|  0.65437
USER: genes 7 Torsion [C]-CA--N-[H2] |==|  0.21218
USER: genes 8 Torsion [C]-CA--CB-[CG] |==|  0.61795
USER: genes 9 Torsion [CA]-CB--CG-[ND1] |==|  0.87810
USER: genes 10 Torsion [C]-CA--CB-[CG] |==|  0.59669
USER: genes 11 Torsion [CA]-CB--CG-[CD2] |==|  0.81070
USER: genes 12 Torsion [C]-CA--CB-[CG] |==|  0.43499
USER: genes 13 Torsion [CA]-CB--CG-[CD2] |==|  0.02034
USER: genes 14 Torsion [C]-N--CA-[C] |==|  0.15442
USER: genes 15 Torsion [N]-CA--C-[N] |==|  0.10676
USER: genes 16 Torsion [C]-N--CA-[CB] |==|  0.86963
USER: genes 17 Torsion [N]-CA--CB-[CG] |==|  0.60148
USER: genes 18 Torsion [CA]-CB--CG-[ND1] |==|  0.05694
USER: genes 19 Torsion [N]-CA--C-[N] |==|  0.93333
USER: genes 20 Torsion [C]-N--CA-[C] |==|  0.66260
USER: genes 21 Torsion [N]-CA--C-[O] |==|  0.48967
USER: genes 22 Torsion [N]-CA--CB-[CG] |==|  0.03416
USER: genes 23 Torsion [CA]-CB--CG-[ND1] |==|  0.25898
USER: genes 24 Torsion [N]-CA--CB-[CG] |==|  0.73481
USER: genes 25 Torsion [CA]-CB--CG-[CD2] |==|  0.02875
ROOT
ATOM      1  C   HIS X   1       2.300   2.736  19.354  1.00 40.87 LIG 0.24  C 
ATOM      2 O    HIS X   1       2.950   1.754  19.726  1.00 40.80 LIG-0.27  OA
ATOM      3  N   HIS X   2       1.989   2.997  18.100  1.00 30.16 LIG-0.35  N 
ATOM      4 H    HIS X   2       1.551   3.696  17.857  1.00 30.16 LIG 0.16  HD
ENDROOT
BRANCH 1 5
ATOM      5  CA  HIS X   1       1.767   3.771  20.321  1.00 48.06 LIG 0.18  C 
BRANCH 5 6
ATOM      6  N   HIS X   1       0.632   3.212  21.060  1.00 54.11 LIG-0.35  N 
ATOM      7 H    HIS X   1       0.849   2.597  21.621  1.00 54.11 LIG 0.16  HD
ATOM      8  C   HIS X   0      -0.606   3.622  20.875  1.00 58.54 LIG 0.24  C 
ATOM      9 O    HIS X   0      -0.963   4.324  19.927  1.00 63.37 LIG-0.27  OA
BRANCH 8 10
ATOM     10  CA  HIS X   0      -1.579   3.150  21.943  1.00 62.53 LIG 0.18  C 
BRANCH 10 11
ATOM     11  N   HIS X   0      -2.392   4.247  22.481  1.00 60.73 LIG-0.35  N 
ATOM     12  C   HIS X  -1      -1.881   5.121  23.333  1.00 60.09 LIG 0.25  C 
ATOM     13 O    HIS X  -1      -0.678   5.384  23.399  1.00 62.79 LIG-0.27  OA
ATOM     14 H    HIS X   0      -3.204   4.265  22.198  1.00 60.73 LIG 0.16  HD
BRANCH 12 15
ATOM     15  CA  HIS X  -1      -2.902   5.825  24.219  1.00 59.53 LIG 0.28  C 
BRANCH 15 16
ATOM     16  N   HIS X  -1      -2.767   7.314  24.070  1.00 57.14 LIG-0.07  N 
ATOM     17 H3   HIS X  -1      -3.184   7.719  24.744  1.00 57.14 LIG 0.28  HD
ATOM     18 H2   HIS X  -1      -3.132   7.570  23.300  1.00 57.14 LIG 0.28  HD
ATOM     19 H1   HIS X  -1      -1.905   7.536  24.078  1.00 57.14 LIG 0.28  HD
ENDBRANCH 15 16
BRANCH 15 20
ATOM     20  CB  HIS X  -1      -4.325   5.378  23.886  1.00 57.27 LIG 0.10  C 
BRANCH 20 21
ATOM     21  CG  HIS X  -1      -5.317   6.496  23.848  1.00 54.13 LIG 0.06  A 
ATOM     22 ND1  HIS X  -1      -5.353   7.489  24.803  1.00 52.72 LIG-0.24  NA
ATOM     23  CE1 HIS X  -1      -6.339   8.326  24.525  1.00 54.35 LIG 0.23  A 
ATOM     24 NE2  HIS X  -1      -6.944   7.910  23.426  1.00 53.65 LIG-0.25  NA
ATOM     25  CD2 HIS X  -1      -6.321   6.767  22.981  1.00 55.23 LIG 0.14  A 
ENDBRANCH 20 21
ENDBRANCH 15 20
ENDBRANCH 12 15
ENDBRANCH 10 11
BRANCH 10 26
ATOM     26  CB  HIS X   0      -2.457   2.008  21.389  1.00 64.99 LIG 0.10  C 
BRANCH 26 27
ATOM     27  CG  HIS X   0      -3.866   2.008  21.909  1.00 69.41 LIG 0.06  A 
ATOM     28 ND1  HIS X   0      -4.958   2.267  21.105  1.00 72.01 LIG-0.24  NA
ATOM     29  CE1 HIS X   0      -6.064   2.192  21.826  1.00 72.69 LIG 0.23  A 
ATOM     30 NE2  HIS X   0      -5.730   1.888  23.068  1.00 72.94 LIG-0.25  NA
ATOM     31  CD2 HIS X   0      -4.362   1.763  23.146  1.00 71.12 LIG 0.14  A 
ENDBRANCH 26 27
ENDBRANCH 10 26
ENDBRANCH 8 10
ENDBRANCH 5 6
BRANCH 5 32
ATOM     32  CB  HIS X   1       2.867   4.204  21.288  1.00 48.25 LIG 0.10  C 
BRANCH 32 33
ATOM     33  CG  HIS X   1       2.641   5.557  21.889  1.00 50.36 LIG 0.06  A 
ATOM     34  CD2 HIS X   1       1.576   6.393  21.822  1.00 51.47 LIG 0.14  A 
ATOM     35 NE2  HIS X   1       1.888   7.506  22.565  1.00 50.72 LIG-0.25  NA
ATOM     36  CE1 HIS X   1       3.101   7.357  23.070  1.00 48.50 LIG 0.23  A 
ATOM     37 ND1  HIS X   1       3.579   6.191  22.678  1.00 47.89 LIG-0.24  NA
ENDBRANCH 32 33
ENDBRANCH 5 32
ENDBRANCH 1 5
BRANCH 3 38
ATOM     38  CA  HIS X   2       2.365   2.108  16.977  1.00 26.25 LIG 0.18  C 
BRANCH 38 39
ATOM     39  C   HIS X   2       1.871   0.677  17.165  1.00 23.72 LIG 0.24  C 
ATOM     40  N   HIS X   3       0.668   0.588  17.707  1.00 22.33 LIG-0.35  N 
ATOM     41 H    HIS X   3       0.202   1.269  17.952  1.00 22.33 LIG 0.16  HD
ATOM     42 O    HIS X   2       2.553  -0.309  16.848  1.00 19.88 LIG-0.27  OA
BRANCH 40 43
ATOM     43  CA  HIS X   3       0.010  -0.708  17.941  1.00 22.38 LIG 0.18  C 
BRANCH 43 44
ATOM     44  CB  HIS X   3       0.078  -1.668  16.712  1.00 22.51 LIG 0.10  C 
BRANCH 44 45
ATOM     45  CG  HIS X   3      -1.141  -2.517  16.488  1.00 18.10 LIG 0.06  A 
ATOM     46  CD2 HIS X   3      -1.305  -3.707  15.857  1.00 18.75 LIG 0.14  A 
ATOM     47 NE2  HIS X   3      -2.629  -4.058  15.990  1.00 20.06 LIG-0.25  NA
ATOM     48  CE1 HIS X   3      -3.250  -3.127  16.690  1.00 21.69 LIG 0.23  A 
ATOM     49 ND1  HIS X   3      -2.369  -2.195  17.014  1.00 17.48 LIG-0.24  NA
ENDBRANCH 44 45
ENDBRANCH 43 44
BRANCH 43 50
ATOM     50  C   HIS X   3       0.518  -1.362  19.226  1.00 21.59 LIG 0.24  C 
ATOM     51 O    HIS X   3      -0.168  -2.145  19.873  1.00 25.47 LIG-0.27  OA
ATOM     52  N   HIS X   4       1.716  -0.977  19.613  1.00 25.63 LIG-0.35  N 
ATOM     53 H    HIS X   4       2.202  -0.406  19.190  1.00 25.63 LIG 0.16  HD
BRANCH 52 54
ATOM     54  CA  HIS X   4       2.323  -1.513  20.834  1.00 23.96 LIG 0.17  C 
BRANCH 54 55
ATOM     55  C   HIS X   4       2.631  -0.342  21.774  1.00 31.35 LIG 0.22  C 
ATOM     56 O    HIS X   4       3.087  -0.532  22.903  1.00 37.06 LIG-0.29  OA
ENDBRANCH 54 55
BRANCH 54 57
ATOM     57  CB  HIS X   4       3.585  -2.332  20.533  1.00 23.83 LIG 0.09  C 
BRANCH 57 58
ATOM     58  CG  HIS X   4       4.094  -2.174  19.125  1.00 22.57 LIG 0.06  A 
ATOM     59 ND1  HIS X   4       5.057  -1.247  18.769  1.00 22.63 LIG-0.24  NA
ATOM     60  CE1 HIS X   4       5.304  -1.348  17.473  1.00 19.94 LIG 0.23  A 
ATOM     61 NE2  HIS X   4       4.527  -2.290  16.973  1.00 20.25 LIG-0.25  NA
ATOM     62  CD2 HIS X   4       3.773  -2.831  17.987  1.00 21.52 LIG 0.14  A 
ENDBRANCH 57 58
ENDBRANCH 54 57
ENDBRANCH 52 54
ENDBRANCH 43 50
ENDBRANCH 40 43
ENDBRANCH 38 39
BRANCH 38 63
ATOM     63  CB  HIS X   2       3.884   2.100  16.771  1.00 28.74 LIG 0.10  C 
BRANCH 63 64
ATOM     64  CG  HIS X   2       4.354   3.057  15.727  1.00 28.63 LIG 0.06  A 
ATOM     65 ND1  HIS X   2       5.639   3.038  15.238  1.00 31.27 LIG-0.24  NA
ATOM     66  CE1 HIS X   2       5.772   3.976  14.319  1.00 28.11 LIG 0.23  A 
ATOM     67 NE2  HIS X   2       4.623   4.612  14.199  1.00 29.87 LIG-0.25  NA
ATOM     68  CD2 HIS X   2       3.713   4.050  15.065  1.00 31.84 LIG 0.14  A 
ENDBRANCH 63 64
ENDBRANCH 38 63
ENDBRANCH 3 38
TORSDOF 24
ENDMDL
MODEL 93
USER: ADFR SOLUTION from run 98
USER: SCORE 16.680159 LL:  -5.181 LR: -13.327 RR:   0.000 FEB:  -6.168
USER: RMSD 10.733889
USER: SEED 97
USER: STATUS no improvement in best in 16 clusters for 5 generations
USER: GENES 26
USER: genes 0 Translation |==|  0.26588 0.39013 0.32529
USER: genes 1 Rotation |==|  0.96569 0.38462 0.35931 0.50481
USER: genes 2 Torsion [N]-C--CA-[N] |==|  0.96264
USER: genes 3 Torsion [C]-CA--N-[C] |==|  0.22069
USER: genes 4 Torsion [N]-C--CA-[N] |==|  0.48550
USER: genes 5 Torsion [C]-CA--N-[C] |==|  0.63731
USER: genes 6 Torsion [N]-C--CA-[N] |==|  0.13339
USER: genes 7 Torsion [C]-CA--N-[H2] |==|  0.94404
USER: genes 8 Torsion [C]-CA--CB-[CG] |==|  0.79639
USER: genes 9 Torsion [CA]-CB--CG-[ND1] |==|  0.03798
USER: genes 10 Torsion [C]-CA--CB-[CG] |==|  0.75859
USER: genes 11 Torsion [CA]-CB--CG-[CD2] |==|  0.24167
USER: genes 12 Torsion [C]-CA--CB-[CG] |==|  0.44413
USER: genes 13 Torsion [CA]-CB--CG-[CD2] |==|  0.17841
USER: genes 14 Torsion [C]-N--CA-[C] |==|  0.59619
USER: genes 15 Torsion [N]-CA--C-[N] |==|  0.41549
USER: genes 16 Torsion [C]-N--CA-[CB] |==|  0.27208
USER: genes 17 Torsion [N]-CA--CB-[CG] |==|  0.49654
USER: genes 18 Torsion [CA]-CB--CG-[ND1] |==|  0.15057
USER: genes 19 Torsion [N]-CA--C-[N] |==|  0.97948
USER: genes 20 Torsion [C]-N--CA-[C] |==|  0.72780
USER: genes 21 Torsion [N]-CA--C-[O] |==|  0.89644
USER: genes 22 Torsion [N]-CA--CB-[CG] |==|  0.56088
USER: genes 23 Torsion [CA]-CB--CG-[ND1] |==|  0.67330
USER: genes 24 Torsion [N]-CA--CB-[CG] |==|  0.62219
USER: genes 25 Torsion [CA]-CB--CG-[CD2] |==|  0.29759
ROOT
ATOM      1  C   HIS X   1      -2.111  -2.619  16.425  1.00 40.87 LIG 0.24  C 
ATOM      2 O    HIS X   1      -3.072  -2.046  16.946  1.00 40.80 LIG-0.27  OA
ATOM      3  N   HIS X   2      -0.851  -2.261  16.579  1.00 30.16 LIG-0.35  N 
ATOM      4 H    HIS X   2      -0.196  -2.662  16.193  1.00 30.16 LIG 0.16  HD
ENDROOT
BRANCH 1 5
ATOM      5  CA  HIS X   1      -2.274  -3.834  15.536  1.00 48.06 LIG 0.18  C 
BRANCH 5 6
ATOM      6  N   HIS X   1      -1.017  -4.094  14.829  1.00 54.11 LIG-0.35  N 
ATOM      7 H    HIS X   1      -1.010  -3.815  14.015  1.00 54.11 LIG 0.16  HD
ATOM      8  C   HIS X   0       0.003  -4.703  15.396  1.00 58.54 LIG 0.24  C 
ATOM      9 O    HIS X   0      -0.067  -5.309  16.467  1.00 63.37 LIG-0.27  OA
BRANCH 8 10
ATOM     10  CA  HIS X   0       1.300  -4.597  14.611  1.00 62.53 LIG 0.18  C 
BRANCH 10 11
ATOM     11  N   HIS X   0       2.438  -5.180  15.332  1.00 60.73 LIG-0.35  N 
ATOM     12  C   HIS X  -1       3.572  -4.511  15.472  1.00 60.09 LIG 0.25  C 
ATOM     13 O    HIS X  -1       3.644  -3.281  15.445  1.00 62.79 LIG-0.27  OA
ATOM     14 H    HIS X   0       2.300  -5.970  15.642  1.00 60.73 LIG 0.16  HD
BRANCH 12 15
ATOM     15  CA  HIS X  -1       4.802  -5.378  15.713  1.00 59.53 LIG 0.28  C 
BRANCH 15 16
ATOM     16  N   HIS X  -1       4.838  -6.502  14.717  1.00 57.14 LIG-0.07  N 
ATOM     17 H3   HIS X  -1       5.402  -6.298  14.060  1.00 57.14 LIG 0.28  HD
ATOM     18 H2   HIS X  -1       4.023  -6.627  14.380  1.00 57.14 LIG 0.28  HD
ATOM     19 H1   HIS X  -1       5.110  -7.248  15.121  1.00 57.14 LIG 0.28  HD
ENDBRANCH 15 16
BRANCH 15 20
ATOM     20  CB  HIS X  -1       6.085  -4.551  15.638  1.00 57.27 LIG 0.10  C 
BRANCH 20 21
ATOM     21  CG  HIS X  -1       6.461  -4.144  14.250  1.00 54.13 LIG 0.06  A 
ATOM     22 ND1  HIS X  -1       5.592  -4.244  13.185  1.00 52.72 LIG-0.24  NA
ATOM     23  CE1 HIS X  -1       6.200  -3.832  12.085  1.00 54.35 LIG 0.23  A 
ATOM     24 NE2  HIS X  -1       7.433  -3.471  12.398  1.00 53.65 LIG-0.25  NA
ATOM     25  CD2 HIS X  -1       7.621  -3.655  13.748  1.00 55.23 LIG 0.14  A 
ENDBRANCH 20 21
ENDBRANCH 15 20
ENDBRANCH 12 15
ENDBRANCH 10 11
BRANCH 10 26
ATOM     26  CB  HIS X   0       1.125  -5.230  13.214  1.00 64.99 LIG 0.10  C 
BRANCH 26 27
ATOM     27  CG  HIS X   0       1.385  -6.709  13.172  1.00 69.41 LIG 0.06  A 
ATOM     28 ND1  HIS X   0       2.626  -7.240  12.879  1.00 72.01 LIG-0.24  NA
ATOM     29  CE1 HIS X   0       2.560  -8.560  12.922  1.00 72.69 LIG 0.23  A 
ATOM     30 NE2  HIS X   0       1.324  -8.905  13.237  1.00 72.94 LIG-0.25  NA
ATOM     31  CD2 HIS X   0       0.570  -7.766  13.403  1.00 71.12 LIG 0.14  A 
ENDBRANCH 26 27
ENDBRANCH 10 26
ENDBRANCH 8 10
ENDBRANCH 5 6
BRANCH 5 32
ATOM     32  CB  HIS X   1      -2.673  -5.048  16.372  1.00 48.25 LIG 0.10  C 
BRANCH 32 33
ATOM     33  CG  HIS X   1      -3.309  -6.144  15.574  1.00 50.36 LIG 0.06  A 
ATOM     34  CD2 HIS X   1      -2.813  -6.925  14.583  1.00 51.47 LIG 0.14  A 
ATOM     35 NE2  HIS X   1      -3.818  -7.781  14.202  1.00 50.72 LIG-0.25  NA
ATOM     36  CE1 HIS X   1      -4.891  -7.534  14.933  1.00 48.50 LIG 0.23  A 
ATOM     37 ND1  HIS X   1      -4.613  -6.550  15.768  1.00 47.89 LIG-0.24  NA
ENDBRANCH 32 33
ENDBRANCH 5 32
ENDBRANCH 1 5
BRANCH 3 38
ATOM     38  CA  HIS X   2      -0.438  -1.126  17.436  1.00 26.25 LIG 0.18  C 
BRANCH 38 39
ATOM     39  C   HIS X   2       0.770  -0.376  16.883  1.00 23.72 LIG 0.24  C 
ATOM     40  N   HIS X   3       0.792   0.911  17.190  1.00 22.33 LIG-0.35  N 
ATOM     41 H    HIS X   3       0.177   1.304  17.645  1.00 22.33 LIG 0.16  HD
ATOM     42 O    HIS X   2       1.639  -0.931  16.195  1.00 19.88 LIG-0.27  OA
BRANCH 40 43
ATOM     43  CA  HIS X   3       1.891   1.795  16.770  1.00 22.38 LIG 0.18  C 
BRANCH 43 44
ATOM     44  CB  HIS X   3       1.567   2.617  15.484  1.00 22.51 LIG 0.10  C 
BRANCH 44 45
ATOM     45  CG  HIS X   3       2.647   3.559  15.030  1.00 18.10 LIG 0.06  A 
ATOM     46  CD2 HIS X   3       2.646   4.900  14.832  1.00 18.75 LIG 0.14  A 
ATOM     47 NE2  HIS X   3       3.922   5.257  14.458  1.00 20.06 LIG-0.25  NA
ATOM     48  CE1 HIS X   3       4.680   4.176  14.443  1.00 21.69 LIG 0.23  A 
ATOM     49 ND1  HIS X   3       3.936   3.142  14.799  1.00 17.48 LIG-0.24  NA
ENDBRANCH 44 45
ENDBRANCH 43 44
BRANCH 43 50
ATOM     50  C   HIS X   3       2.366   2.675  17.926  1.00 21.59 LIG 0.24  C 
ATOM     51 O    HIS X   3       3.387   3.349  17.854  1.00 25.47 LIG-0.27  OA
ATOM     52  N   HIS X   4       1.633   2.607  19.017  1.00 25.63 LIG-0.35  N 
ATOM     53 H    HIS X   4       0.930   2.118  19.099  1.00 25.63 LIG 0.16  HD
BRANCH 52 54
ATOM     54  CA  HIS X   4       1.978   3.388  20.208  1.00 23.96 LIG 0.17  C 
BRANCH 54 55
ATOM     55  C   HIS X   4       2.744   2.480  21.175  1.00 31.35 LIG 0.22  C 
ATOM     56 O    HIS X   4       2.446   1.292  21.310  1.00 37.06 LIG-0.29  OA
ENDBRANCH 54 55
BRANCH 54 57
ATOM     57  CB  HIS X   4       0.735   3.990  20.876  1.00 23.83 LIG 0.09  C 
BRANCH 57 58
ATOM     58  CG  HIS X   4       1.027   5.184  21.747  1.00 22.57 LIG 0.06  A 
ATOM     59 ND1  HIS X   4       0.783   5.203  23.108  1.00 22.63 LIG-0.24  NA
ATOM     60  CE1 HIS X   4       1.143   6.377  23.601  1.00 19.94 LIG 0.23  A 
ATOM     61 NE2  HIS X   4       1.593   7.124  22.611  1.00 20.25 LIG-0.25  NA
ATOM     62  CD2 HIS X   4       1.544   6.397  21.445  1.00 21.52 LIG 0.14  A 
ENDBRANCH 57 58
ENDBRANCH 54 57
ENDBRANCH 52 54
ENDBRANCH 43 50
ENDBRANCH 40 43
ENDBRANCH 38 39
BRANCH 38 63
ATOM     63  CB  HIS X   2      -0.133  -1.602  18.862  1.00 28.74 LIG 0.10  C 
BRANCH 63 64
ATOM     64  CG  HIS X   2      -0.699  -0.720  19.924  1.00 28.63 LIG 0.06  A 
ATOM     65 ND1  HIS X   2      -0.187   0.527  20.193  1.00 31.27 LIG-0.24  NA
ATOM     66  CE1 HIS X   2      -0.886   1.089  21.161  1.00 28.11 LIG 0.23  A 
ATOM     67 NE2  HIS X   2      -1.830   0.248  21.538  1.00 29.87 LIG-0.25  NA
ATOM     68  CD2 HIS X   2      -1.740  -0.891  20.772  1.00 31.84 LIG 0.14  A 
ENDBRANCH 63 64
ENDBRANCH 38 63
ENDBRANCH 3 38
TORSDOF 24
ENDMDL
MODEL 94
USER: ADFR SOLUTION from run 49
USER: SCORE 16.901960 LL:  -5.725 LR: -13.304 RR:   0.000 FEB:  -6.144
USER: RMSD 10.577006
USER: SEED 48
USER: STATUS no improvement in best in 27 clusters for 5 generations
USER: GENES 26
USER: genes 0 Translation |==|  0.54741 0.56873 0.36791
USER: genes 1 Rotation |==|  0.69347 0.29337 0.79023 0.79264
USER: genes 2 Torsion [N]-C--CA-[N] |==|  0.08051
USER: genes 3 Torsion [C]-CA--N-[C] |==|  0.64448
USER: genes 4 Torsion [N]-C--CA-[N] |==|  0.29251
USER: genes 5 Torsion [C]-CA--N-[C] |==|  0.62222
USER: genes 6 Torsion [N]-C--CA-[N] |==|  0.44302
USER: genes 7 Torsion [C]-CA--N-[H2] |==|  0.70838
USER: genes 8 Torsion [C]-CA--CB-[CG] |==|  0.51668
USER: genes 9 Torsion [CA]-CB--CG-[ND1] |==|  0.08725
USER: genes 10 Torsion [C]-CA--CB-[CG] |==|  0.44774
USER: genes 11 Torsion [CA]-CB--CG-[CD2] |==|  0.93100
USER: genes 12 Torsion [C]-CA--CB-[CG] |==|  0.41081
USER: genes 13 Torsion [CA]-CB--CG-[CD2] |==|  0.66181
USER: genes 14 Torsion [C]-N--CA-[C] |==|  0.64273
USER: genes 15 Torsion [N]-CA--C-[N] |==|  0.48585
USER: genes 16 Torsion [C]-N--CA-[CB] |==|  0.43927
USER: genes 17 Torsion [N]-CA--CB-[CG] |==|  0.16047
USER: genes 18 Torsion [CA]-CB--CG-[ND1] |==|  0.74619
USER: genes 19 Torsion [N]-CA--C-[N] |==|  0.90344
USER: genes 20 Torsion [C]-N--CA-[C] |==|  0.19923
USER: genes 21 Torsion [N]-CA--C-[O] |==|  0.09728
USER: genes 22 Torsion [N]-CA--CB-[CG] |==|  0.81873
USER: genes 23 Torsion [CA]-CB--CG-[ND1] |==|  0.59368
USER: genes 24 Torsion [N]-CA--CB-[CG] |==|  0.84632
USER: genes 25 Torsion [CA]-CB--CG-[CD2] |==|  0.41514
ROOT
ATOM      1  C   HIS X   1       3.590   1.667  17.192  1.00 40.87 LIG 0.24  C 
ATOM      2 O    HIS X   1       3.631   1.100  16.097  1.00 40.80 LIG-0.27  OA
ATOM      3  N   HIS X   2       4.437   2.598  17.587  1.00 30.16 LIG-0.35  N 
ATOM      4 H    HIS X   2       4.403   2.969  18.362  1.00 30.16 LIG 0.16  HD
ENDROOT
BRANCH 1 5
ATOM      5  CA  HIS X   1       2.530   1.357  18.228  1.00 48.06 LIG 0.18  C 
BRANCH 5 6
ATOM      6  N   HIS X   1       2.277   2.549  19.042  1.00 54.11 LIG-0.35  N 
ATOM      7 H    HIS X   1       2.106   3.256  18.583  1.00 54.11 LIG 0.16  HD
ATOM      8  C   HIS X   0       2.311   2.529  20.359  1.00 58.54 LIG 0.24  C 
ATOM      9 O    HIS X   0       2.776   1.598  21.020  1.00 63.37 LIG-0.27  OA
BRANCH 8 10
ATOM     10  CA  HIS X   0       1.721   3.768  21.011  1.00 62.53 LIG 0.18  C 
BRANCH 10 11
ATOM     11  N   HIS X   0       0.399   3.516  21.596  1.00 60.73 LIG-0.35  N 
ATOM     12  C   HIS X  -1      -0.595   4.373  21.430  1.00 60.09 LIG 0.25  C 
ATOM     13 O    HIS X  -1      -0.670   5.152  20.477  1.00 62.79 LIG-0.27  OA
ATOM     14 H    HIS X   0       0.338   2.783  22.041  1.00 60.73 LIG 0.16  HD
BRANCH 12 15
ATOM     15  CA  HIS X  -1      -1.684   4.306  22.494  1.00 59.53 LIG 0.28  C 
BRANCH 15 16
ATOM     16  N   HIS X  -1      -2.463   5.590  22.510  1.00 57.14 LIG-0.07  N 
ATOM     17 H3   HIS X  -1      -2.291   6.051  21.768  1.00 57.14 LIG 0.28  HD
ATOM     18 H2   HIS X  -1      -2.226   6.072  23.220  1.00 57.14 LIG 0.28  HD
ATOM     19 H1   HIS X  -1      -3.334   5.409  22.551  1.00 57.14 LIG 0.28  HD
ENDBRANCH 15 16
BRANCH 15 20
ATOM     20  CB  HIS X  -1      -2.614   3.115  22.260  1.00 57.27 LIG 0.10  C 
BRANCH 20 21
ATOM     21  CG  HIS X  -1      -3.786   3.073  23.185  1.00 54.13 LIG 0.06  A 
ATOM     22 ND1  HIS X  -1      -4.377   4.212  23.690  1.00 52.72 LIG-0.24  NA
ATOM     23  CE1 HIS X  -1      -5.372   3.870  24.490  1.00 54.35 LIG 0.23  A 
ATOM     24 NE2  HIS X  -1      -5.449   2.550  24.524  1.00 53.65 LIG-0.25  NA
ATOM     25  CD2 HIS X  -1      -4.468   2.028  23.714  1.00 55.23 LIG 0.14  A 
ENDBRANCH 20 21
ENDBRANCH 15 20
ENDBRANCH 12 15
ENDBRANCH 10 11
BRANCH 10 26
ATOM     26  CB  HIS X   0       2.708   4.336  22.054  1.00 64.99 LIG 0.10  C 
BRANCH 26 27
ATOM     27  CG  HIS X   0       2.449   5.767  22.431  1.00 69.41 LIG 0.06  A 
ATOM     28 ND1  HIS X   0       2.863   6.309  23.631  1.00 72.01 LIG-0.24  NA
ATOM     29  CE1 HIS X   0       2.506   7.581  23.686  1.00 72.69 LIG 0.23  A 
ATOM     30 NE2  HIS X   0       1.879   7.885  22.563  1.00 72.94 LIG-0.25  NA
ATOM     31  CD2 HIS X   0       1.834   6.770  21.759  1.00 71.12 LIG 0.14  A 
ENDBRANCH 26 27
ENDBRANCH 10 26
ENDBRANCH 8 10
ENDBRANCH 5 6
BRANCH 5 32
ATOM     32  CB  HIS X   1       1.243   0.900  17.545  1.00 48.25 LIG 0.10  C 
BRANCH 32 33
ATOM     33  CG  HIS X   1       0.460  -0.097  18.342  1.00 50.36 LIG 0.06  A 
ATOM     34  CD2 HIS X   1       0.058  -1.356  18.041  1.00 51.47 LIG 0.14  A 
ATOM     35 NE2  HIS X   1      -0.625  -1.834  19.134  1.00 50.72 LIG-0.25  NA
ATOM     36  CE1 HIS X   1      -0.639  -0.901  20.071  1.00 48.50 LIG 0.23  A 
ATOM     37 ND1  HIS X   1       0.006   0.158  19.619  1.00 47.89 LIG-0.24  NA
ENDBRANCH 32 33
ENDBRANCH 5 32
ENDBRANCH 1 5
BRANCH 3 38
ATOM     38  CA  HIS X   2       5.536   3.099  16.732  1.00 26.25 LIG 0.18  C 
BRANCH 38 39
ATOM     39  C   HIS X   2       6.892   3.068  17.430  1.00 23.72 LIG 0.24  C 
ATOM     40  N   HIS X   3       7.907   3.410  16.654  1.00 22.33 LIG-0.35  N 
ATOM     41 H    HIS X   3       7.824   3.617  15.823  1.00 22.33 LIG 0.16  HD
ATOM     42 O    HIS X   2       7.020   2.735  18.618  1.00 19.88 LIG-0.27  OA
BRANCH 40 43
ATOM     43  CA  HIS X   3       9.289   3.468  17.155  1.00 22.38 LIG 0.18  C 
BRANCH 43 44
ATOM     44  CB  HIS X   3      10.362   3.354  16.027  1.00 22.51 LIG 0.10  C 
BRANCH 44 45
ATOM     45  CG  HIS X   3      10.276   4.395  14.947  1.00 18.10 LIG 0.06  A 
ATOM     46  CD2 HIS X   3      10.881   5.600  14.809  1.00 18.75 LIG 0.14  A 
ATOM     47 NE2  HIS X   3      10.479   6.121  13.600  1.00 20.06 LIG-0.25  NA
ATOM     48  CE1 HIS X   3       9.670   5.261  13.012  1.00 21.69 LIG 0.23  A 
ATOM     49 ND1  HIS X   3       9.544   4.205  13.799  1.00 17.48 LIG-0.24  NA
ENDBRANCH 44 45
ENDBRANCH 43 44
BRANCH 43 50
ATOM     50  C   HIS X   3       9.504   4.689  18.048  1.00 21.59 LIG 0.24  C 
ATOM     51 O    HIS X   3      10.209   4.646  19.051  1.00 25.47 LIG-0.27  OA
ATOM     52  N   HIS X   4       8.831   5.764  17.696  1.00 25.63 LIG-0.35  N 
ATOM     53 H    HIS X   4       8.308   5.806  17.014  1.00 25.63 LIG 0.16  HD
BRANCH 52 54
ATOM     54  CA  HIS X   4       8.932   7.005  18.469  1.00 23.96 LIG 0.17  C 
BRANCH 54 55
ATOM     55  C   HIS X   4      10.315   7.616  18.223  1.00 31.35 LIG 0.22  C 
ATOM     56 O    HIS X   4      10.868   7.526  17.125  1.00 37.06 LIG-0.29  OA
ENDBRANCH 54 55
BRANCH 54 57
ATOM     57  CB  HIS X   4       8.686   6.768  19.964  1.00 23.83 LIG 0.09  C 
BRANCH 57 58
ATOM     58  CG  HIS X   4       7.286   6.317  20.290  1.00 22.57 LIG 0.06  A 
ATOM     59 ND1  HIS X   4       6.631   6.669  21.456  1.00 22.63 LIG-0.24  NA
ATOM     60  CE1 HIS X   4       5.423   6.131  21.458  1.00 19.94 LIG 0.23  A 
ATOM     61 NE2  HIS X   4       5.276   5.431  20.349  1.00 20.25 LIG-0.25  NA
ATOM     62  CD2 HIS X   4       6.421   5.543  19.596  1.00 21.52 LIG 0.14  A 
ENDBRANCH 57 58
ENDBRANCH 54 57
ENDBRANCH 52 54
ENDBRANCH 43 50
ENDBRANCH 40 43
ENDBRANCH 38 39
BRANCH 38 63
ATOM     63  CB  HIS X   2       5.245   4.525  16.248  1.00 28.74 LIG 0.10  C 
BRANCH 63 64
ATOM     64  CG  HIS X   2       3.939   4.664  15.539  1.00 28.63 LIG 0.06  A 
ATOM     65 ND1  HIS X   2       3.376   3.631  14.827  1.00 31.27 LIG-0.24  NA
ATOM     66  CE1 HIS X   2       2.222   4.024  14.322  1.00 28.11 LIG 0.23  A 
ATOM     67 NE2  HIS X   2       2.018   5.280  14.671  1.00 29.87 LIG-0.25  NA
ATOM     68  CD2 HIS X   2       3.076   5.703  15.442  1.00 31.84 LIG 0.14  A 
ENDBRANCH 63 64
ENDBRANCH 38 63
ENDBRANCH 3 38
TORSDOF 24
ENDMDL
MODEL 95
USER: ADFR SOLUTION from run 126
USER: SCORE 16.205919 LL:  -5.546 LR: -13.297 RR:   0.000 FEB:  -6.137
USER: RMSD 9.955631
USER: SEED 125
USER: STATUS no improvement in best in 14 clusters for 5 generations
USER: GENES 26
USER: genes 0 Translation |==|  0.49257 0.59174 0.37838
USER: genes 1 Rotation |==|  0.09532 0.78688 0.50738 0.56227
USER: genes 2 Torsion [N]-C--CA-[N] |==|  0.25805
USER: genes 3 Torsion [C]-CA--N-[C] |==|  0.73585
USER: genes 4 Torsion [N]-C--CA-[N] |==|  0.27599
USER: genes 5 Torsion [C]-CA--N-[C] |==|  0.57879
USER: genes 6 Torsion [N]-C--CA-[N] |==|  0.71961
USER: genes 7 Torsion [C]-CA--N-[H2] |==|  0.90063
USER: genes 8 Torsion [C]-CA--CB-[CG] |==|  0.75115
USER: genes 9 Torsion [CA]-CB--CG-[ND1] |==|  0.81427
USER: genes 10 Torsion [C]-CA--CB-[CG] |==|  0.51192
USER: genes 11 Torsion [CA]-CB--CG-[CD2] |==|  0.76368
USER: genes 12 Torsion [C]-CA--CB-[CG] |==|  0.09431
USER: genes 13 Torsion [CA]-CB--CG-[CD2] |==|  0.67836
USER: genes 14 Torsion [C]-N--CA-[C] |==|  0.19514
USER: genes 15 Torsion [N]-CA--C-[N] |==|  0.83789
USER: genes 16 Torsion [C]-N--CA-[CB] |==|  0.85101
USER: genes 17 Torsion [N]-CA--CB-[CG] |==|  0.67706
USER: genes 18 Torsion [CA]-CB--CG-[ND1] |==|  0.33999
USER: genes 19 Torsion [N]-CA--C-[N] |==|  0.06791
USER: genes 20 Torsion [C]-N--CA-[C] |==|  0.19286
USER: genes 21 Torsion [N]-CA--C-[O] |==|  0.39660
USER: genes 22 Torsion [N]-CA--CB-[CG] |==|  0.32922
USER: genes 23 Torsion [CA]-CB--CG-[ND1] |==|  0.24423
USER: genes 24 Torsion [N]-CA--CB-[CG] |==|  0.52122
USER: genes 25 Torsion [CA]-CB--CG-[CD2] |==|  0.50324
ROOT
ATOM      1  C   HIS X   1       2.479   2.220  17.381  1.00 40.87 LIG 0.24  C 
ATOM      2 O    HIS X   1       2.102   3.393  17.461  1.00 40.80 LIG-0.27  OA
ATOM      3  N   HIS X   2       3.401   1.675  18.151  1.00 30.16 LIG-0.35  N 
ATOM      4 H    HIS X   2       3.664   0.860  18.068  1.00 30.16 LIG 0.16  HD
ENDROOT
BRANCH 1 5
ATOM      5  CA  HIS X   1       1.906   1.249  16.371  1.00 48.06 LIG 0.18  C 
BRANCH 5 6
ATOM      6  N   HIS X   1       0.705   0.618  16.925  1.00 54.11 LIG-0.35  N 
ATOM      7 H    HIS X   1      -0.014   1.078  16.815  1.00 54.11 LIG 0.16  HD
ATOM      8  C   HIS X   0       0.734  -0.549  17.536  1.00 58.54 LIG 0.24  C 
ATOM      9 O    HIS X   0       1.770  -1.106  17.904  1.00 63.37 LIG-0.27  OA
BRANCH 8 10
ATOM     10  CA  HIS X   0      -0.637  -1.166  17.754  1.00 62.53 LIG 0.18  C 
BRANCH 10 11
ATOM     11  N   HIS X   0      -0.958  -2.184  16.747  1.00 60.73 LIG-0.35  N 
ATOM     12  C   HIS X  -1      -2.212  -2.432  16.403  1.00 60.09 LIG 0.25  C 
ATOM     13 O    HIS X  -1      -3.122  -1.608  16.509  1.00 62.79 LIG-0.27  OA
ATOM     14 H    HIS X   0      -0.276  -2.589  16.416  1.00 60.73 LIG 0.16  HD
BRANCH 12 15
ATOM     15  CA  HIS X  -1      -2.453  -3.818  15.817  1.00 59.53 LIG 0.28  C 
BRANCH 15 16
ATOM     16  N   HIS X  -1      -2.542  -3.732  14.320  1.00 57.14 LIG-0.07  N 
ATOM     17 H3   HIS X  -1      -1.723  -3.751  13.972  1.00 57.14 LIG 0.28  HD
ATOM     18 H2   HIS X  -1      -2.944  -2.972  14.090  1.00 57.14 LIG 0.28  HD
ATOM     19 H1   HIS X  -1      -3.012  -4.422  14.010  1.00 57.14 LIG 0.28  HD
ENDBRANCH 15 16
BRANCH 15 20
ATOM     20  CB  HIS X  -1      -1.354  -4.795  16.235  1.00 57.27 LIG 0.10  C 
BRANCH 20 21
ATOM     21  CG  HIS X  -1      -0.190  -4.832  15.298  1.00 54.13 LIG 0.06  A 
ATOM     22 ND1  HIS X  -1      -0.288  -5.312  14.010  1.00 52.72 LIG-0.24  NA
ATOM     23  CE1 HIS X  -1       0.896  -5.240  13.425  1.00 54.35 LIG 0.23  A 
ATOM     24 NE2  HIS X  -1       1.759  -4.732  14.289  1.00 53.65 LIG-0.25  NA
ATOM     25  CD2 HIS X  -1       1.103  -4.466  15.469  1.00 55.23 LIG 0.14  A 
ENDBRANCH 20 21
ENDBRANCH 15 20
ENDBRANCH 12 15
ENDBRANCH 10 11
BRANCH 10 26
ATOM     26  CB  HIS X   0      -0.741  -1.729  19.188  1.00 64.99 LIG 0.10  C 
BRANCH 26 27
ATOM     27  CG  HIS X   0      -2.025  -2.452  19.474  1.00 69.41 LIG 0.06  A 
ATOM     28 ND1  HIS X   0      -2.147  -3.824  19.374  1.00 72.01 LIG-0.24  NA
ATOM     29  CE1 HIS X   0      -3.380  -4.181  19.689  1.00 72.69 LIG 0.23  A 
ATOM     30 NE2  HIS X   0      -4.062  -3.091  19.996  1.00 72.94 LIG-0.25  NA
ATOM     31  CD2 HIS X   0      -3.237  -1.997  19.873  1.00 71.12 LIG 0.14  A 
ENDBRANCH 26 27
ENDBRANCH 10 26
ENDBRANCH 8 10
ENDBRANCH 5 6
BRANCH 5 32
ATOM     32  CB  HIS X   1       1.569   1.978  15.071  1.00 48.25 LIG 0.10  C 
BRANCH 32 33
ATOM     33  CG  HIS X   1       2.509   3.099  14.750  1.00 50.36 LIG 0.06  A 
ATOM     34  CD2 HIS X   1       2.300   4.434  14.655  1.00 51.47 LIG 0.14  A 
ATOM     35 NE2  HIS X   1       3.507   5.012  14.343  1.00 50.72 LIG-0.25  NA
ATOM     36  CE1 HIS X   1       4.424   4.064  14.251  1.00 48.50 LIG 0.23  A 
ATOM     37 ND1  HIS X   1       3.849   2.899  14.490  1.00 47.89 LIG-0.24  NA
ENDBRANCH 32 33
ENDBRANCH 5 32
ENDBRANCH 1 5
BRANCH 3 38
ATOM     38  CA  HIS X   2       4.078   2.414  19.240  1.00 26.25 LIG 0.18  C 
BRANCH 38 39
ATOM     39  C   HIS X   2       3.155   2.708  20.419  1.00 23.72 LIG 0.24  C 
ATOM     40  N   HIS X   3       2.080   3.410  20.101  1.00 22.33 LIG-0.35  N 
ATOM     41 H    HIS X   3       1.914   3.696  19.307  1.00 22.33 LIG 0.16  HD
ATOM     42 O    HIS X   2       3.409   2.329  21.572  1.00 19.88 LIG-0.27  OA
BRANCH 40 43
ATOM     43  CA  HIS X   3       1.058   3.768  21.097  1.00 22.38 LIG 0.18  C 
BRANCH 43 44
ATOM     44  CB  HIS X   3       0.504   2.539  21.884  1.00 22.51 LIG 0.10  C 
BRANCH 44 45
ATOM     45  CG  HIS X   3      -0.957   2.248  21.682  1.00 18.10 LIG 0.06  A 
ATOM     46  CD2 HIS X   3      -2.057   3.029  21.818  1.00 18.75 LIG 0.14  A 
ATOM     47 NE2  HIS X   3      -3.145   2.266  21.459  1.00 20.06 LIG-0.25  NA
ATOM     48  CE1 HIS X   3      -2.725   1.066  21.103  1.00 21.69 LIG 0.23  A 
ATOM     49 ND1  HIS X   3      -1.408   1.037  21.214  1.00 17.48 LIG-0.24  NA
ENDBRANCH 44 45
ENDBRANCH 43 44
BRANCH 43 50
ATOM     50  C   HIS X   3       1.549   4.883  22.019  1.00 21.59 LIG 0.24  C 
ATOM     51 O    HIS X   3       1.059   5.075  23.126  1.00 25.47 LIG-0.27  OA
ATOM     52  N   HIS X   4       2.490   5.652  21.513  1.00 25.63 LIG-0.35  N 
ATOM     53 H    HIS X   4       2.827   5.553  20.728  1.00 25.63 LIG 0.16  HD
BRANCH 52 54
ATOM     54  CA  HIS X   4       3.047   6.768  22.282  1.00 23.96 LIG 0.17  C 
BRANCH 54 55
ATOM     55  C   HIS X   4       3.873   6.194  23.438  1.00 31.35 LIG 0.22  C 
ATOM     56 O    HIS X   4       4.922   6.729  23.803  1.00 37.06 LIG-0.29  OA
ENDBRANCH 54 55
BRANCH 54 57
ATOM     57  CB  HIS X   4       1.951   7.711  22.796  1.00 23.83 LIG 0.09  C 
BRANCH 57 58
ATOM     58  CG  HIS X   4       1.884   7.811  24.297  1.00 22.57 LIG 0.06  A 
ATOM     59 ND1  HIS X   4       2.630   8.716  25.028  1.00 22.63 LIG-0.24  NA
ATOM     60  CE1 HIS X   4       2.356   8.572  26.314  1.00 19.94 LIG 0.23  A 
ATOM     61 NE2  HIS X   4       1.476   7.598  26.446  1.00 20.25 LIG-0.25  NA
ATOM     62  CD2 HIS X   4       1.154   7.116  25.199  1.00 21.52 LIG 0.14  A 
ENDBRANCH 57 58
ENDBRANCH 54 57
ENDBRANCH 52 54
ENDBRANCH 43 50
ENDBRANCH 40 43
ENDBRANCH 38 39
BRANCH 38 63
ATOM     63  CB  HIS X   2       4.673   3.728  18.721  1.00 28.74 LIG 0.10  C 
BRANCH 63 64
ATOM     64  CG  HIS X   2       5.524   4.439  19.720  1.00 28.63 LIG 0.06  A 
ATOM     65 ND1  HIS X   2       5.775   3.924  20.969  1.00 31.27 LIG-0.24  NA
ATOM     66  CE1 HIS X   2       6.566   4.748  21.633  1.00 28.11 LIG 0.23  A 
ATOM     67 NE2  HIS X   2       6.829   5.785  20.863  1.00 29.87 LIG-0.25  NA
ATOM     68  CD2 HIS X   2       6.195   5.613  19.654  1.00 31.84 LIG 0.14  A 
ENDBRANCH 63 64
ENDBRANCH 38 63
ENDBRANCH 3 38
TORSDOF 24
ENDMDL
MODEL 96
USER: ADFR SOLUTION from run 74
USER: SCORE 17.301845 LL:  -5.971 LR: -13.302 RR:   0.000 FEB:  -6.143
USER: RMSD 6.020927
USER: SEED 73
USER: STATUS no improvement in best in 18 clusters for 5 generations
USER: GENES 26
USER: genes 0 Translation |==|  0.54465 0.59421 0.35819
USER: genes 1 Rotation |==|  0.79862 0.74058 0.79667 0.62221
USER: genes 2 Torsion [N]-C--CA-[N] |==|  0.10299
USER: genes 3 Torsion [C]-CA--N-[C] |==|  0.15585
USER: genes 4 Torsion [N]-C--CA-[N] |==|  0.43966
USER: genes 5 Torsion [C]-CA--N-[C] |==|  0.59584
USER: genes 6 Torsion [N]-C--CA-[N] |==|  0.83128
USER: genes 7 Torsion [C]-CA--N-[H2] |==|  0.66102
USER: genes 8 Torsion [C]-CA--CB-[CG] |==|  0.13358
USER: genes 9 Torsion [CA]-CB--CG-[ND1] |==|  0.62675
USER: genes 10 Torsion [C]-CA--CB-[CG] |==|  0.33956
USER: genes 11 Torsion [CA]-CB--CG-[CD2] |==|  0.03061
USER: genes 12 Torsion [C]-CA--CB-[CG] |==|  0.57962
USER: genes 13 Torsion [CA]-CB--CG-[CD2] |==|  0.82071
USER: genes 14 Torsion [C]-N--CA-[C] |==|  0.14563
USER: genes 15 Torsion [N]-CA--C-[N] |==|  0.09819
USER: genes 16 Torsion [C]-N--CA-[CB] |==|  0.92693
USER: genes 17 Torsion [N]-CA--CB-[CG] |==|  0.58908
USER: genes 18 Torsion [CA]-CB--CG-[ND1] |==|  0.01975
USER: genes 19 Torsion [N]-CA--C-[N] |==|  0.61765
USER: genes 20 Torsion [C]-N--CA-[C] |==|  0.82087
USER: genes 21 Torsion [N]-CA--C-[O] |==|  0.91452
USER: genes 22 Torsion [N]-CA--CB-[CG] |==|  0.11550
USER: genes 23 Torsion [CA]-CB--CG-[ND1] |==|  0.81277
USER: genes 24 Torsion [N]-CA--CB-[CG] |==|  0.98120
USER: genes 25 Torsion [CA]-CB--CG-[CD2] |==|  0.76235
ROOT
ATOM      1  C   HIS X   1       3.534   2.279  17.017  1.00 40.87 LIG 0.24  C 
ATOM      2 O    HIS X   1       3.858   1.267  16.389  1.00 40.80 LIG-0.27  OA
ATOM      3  N   HIS X   2       2.469   3.013  16.759  1.00 30.16 LIG-0.35  N 
ATOM      4 H    HIS X   2       2.269   3.725  17.197  1.00 30.16 LIG 0.16  HD
ENDROOT
BRANCH 1 5
ATOM      5  CA  HIS X   1       4.339   2.800  18.189  1.00 48.06 LIG 0.18  C 
BRANCH 5 6
ATOM      6  N   HIS X   1       3.430   3.323  19.213  1.00 54.11 LIG-0.35  N 
ATOM      7 H    HIS X   1       3.581   4.141  19.430  1.00 54.11 LIG 0.16  HD
ATOM      8  C   HIS X   0       2.470   2.596  19.747  1.00 58.54 LIG 0.24  C 
ATOM      9 O    HIS X   0       2.385   1.373  19.624  1.00 63.37 LIG-0.27  OA
BRANCH 8 10
ATOM     10  CA  HIS X   0       1.457   3.401  20.544  1.00 62.53 LIG 0.18  C 
BRANCH 10 11
ATOM     11  N   HIS X   0       0.175   2.700  20.688  1.00 60.73 LIG-0.35  N 
ATOM     12  C   HIS X  -1      -0.969   3.365  20.704  1.00 60.09 LIG 0.25  C 
ATOM     13 O    HIS X  -1      -1.121   4.469  20.177  1.00 62.79 LIG-0.27  OA
ATOM     14 H    HIS X   0       0.240   1.845  20.758  1.00 60.73 LIG 0.16  HD
BRANCH 12 15
ATOM     15  CA  HIS X  -1      -2.119   2.644  21.397  1.00 59.53 LIG 0.28  C 
BRANCH 15 16
ATOM     16  N   HIS X  -1      -2.407   1.348  20.695  1.00 57.14 LIG-0.07  N 
ATOM     17 H3   HIS X  -1      -1.868   1.266  19.991  1.00 57.14 LIG 0.28  HD
ATOM     18 H2   HIS X  -1      -3.254   1.339  20.422  1.00 57.14 LIG 0.28  HD
ATOM     19 H1   HIS X  -1      -2.268   0.670  21.255  1.00 57.14 LIG 0.28  HD
ENDBRANCH 15 16
BRANCH 15 20
ATOM     20  CB  HIS X  -1      -1.809   2.399  22.874  1.00 57.27 LIG 0.10  C 
BRANCH 20 21
ATOM     21  CG  HIS X  -1      -1.294   3.605  23.591  1.00 54.13 LIG 0.06  A 
ATOM     22 ND1  HIS X  -1      -0.205   3.560  24.435  1.00 52.72 LIG-0.24  NA
ATOM     23  CE1 HIS X  -1       0.008   4.764  24.939  1.00 54.35 LIG 0.23  A 
ATOM     24 NE2  HIS X  -1      -0.906   5.588  24.454  1.00 53.65 LIG-0.25  NA
ATOM     25  CD2 HIS X  -1      -1.732   4.887  23.606  1.00 55.23 LIG 0.14  A 
ENDBRANCH 20 21
ENDBRANCH 15 20
ENDBRANCH 12 15
ENDBRANCH 10 11
BRANCH 10 26
ATOM     26  CB  HIS X   0       2.051   3.790  21.915  1.00 64.99 LIG 0.10  C 
BRANCH 26 27
ATOM     27  CG  HIS X   0       2.084   5.269  22.174  1.00 69.41 LIG 0.06  A 
ATOM     28 ND1  HIS X   0       2.790   5.828  23.221  1.00 72.01 LIG-0.24  NA
ATOM     29  CE1 HIS X   0       2.644   7.142  23.198  1.00 72.69 LIG 0.23  A 
ATOM     30 NE2  HIS X   0       1.874   7.457  22.171  1.00 72.94 LIG-0.25  NA
ATOM     31  CD2 HIS X   0       1.514   6.304  21.512  1.00 71.12 LIG 0.14  A 
ENDBRANCH 26 27
ENDBRANCH 10 26
ENDBRANCH 8 10
ENDBRANCH 5 6
BRANCH 5 32
ATOM     32  CB  HIS X   1       5.206   1.685  18.771  1.00 48.25 LIG 0.10  C 
BRANCH 32 33
ATOM     33  CG  HIS X   1       5.489   1.844  20.232  1.00 50.36 LIG 0.06  A 
ATOM     34  CD2 HIS X   1       6.181   2.795  20.905  1.00 51.47 LIG 0.14  A 
ATOM     35 NE2  HIS X   1       6.127   2.468  22.239  1.00 50.72 LIG-0.25  NA
ATOM     36  CE1 HIS X   1       5.425   1.356  22.378  1.00 48.50 LIG 0.23  A 
ATOM     37 ND1  HIS X   1       5.030   0.956  21.184  1.00 47.89 LIG-0.24  NA
ENDBRANCH 32 33
ENDBRANCH 5 32
ENDBRANCH 1 5
BRANCH 3 38
ATOM     38  CA  HIS X   2       1.506   2.680  15.686  1.00 26.25 LIG 0.18  C 
BRANCH 38 39
ATOM     39  C   HIS X   2       0.991   1.247  15.775  1.00 23.72 LIG 0.24  C 
ATOM     40  N   HIS X   3       0.838   0.805  17.013  1.00 22.33 LIG-0.35  N 
ATOM     41 H    HIS X   3       1.025   1.269  17.712  1.00 22.33 LIG 0.16  HD
ATOM     42 O    HIS X   2       0.755   0.561  14.770  1.00 19.88 LIG-0.27  OA
BRANCH 40 43
ATOM     43  CA  HIS X   3       0.324  -0.543  17.303  1.00 22.38 LIG 0.18  C 
BRANCH 43 44
ATOM     44  CB  HIS X   3      -0.590  -1.114  16.174  1.00 22.51 LIG 0.10  C 
BRANCH 44 45
ATOM     45  CG  HIS X   3      -1.691  -2.027  16.634  1.00 18.10 LIG 0.06  A 
ATOM     46  CD2 HIS X   3      -2.530  -2.842  15.947  1.00 18.75 LIG 0.14  A 
ATOM     47 NE2  HIS X   3      -3.315  -3.490  16.872  1.00 20.06 LIG-0.25  NA
ATOM     48  CE1 HIS X   3      -2.961  -3.099  18.082  1.00 21.69 LIG 0.23  A 
ATOM     49 ND1  HIS X   3      -1.972  -2.228  17.963  1.00 17.48 LIG-0.24  NA
ENDBRANCH 44 45
ENDBRANCH 43 44
BRANCH 43 50
ATOM     50  C   HIS X   3       1.457  -1.498  17.680  1.00 21.59 LIG 0.24  C 
ATOM     51 O    HIS X   3       2.398  -1.146  18.382  1.00 25.47 LIG-0.27  OA
ATOM     52  N   HIS X   4       1.375  -2.699  17.147  1.00 25.63 LIG-0.35  N 
ATOM     53 H    HIS X   4       0.740  -2.956  16.627  1.00 25.63 LIG 0.16  HD
BRANCH 52 54
ATOM     54  CA  HIS X   4       2.400  -3.713  17.412  1.00 23.96 LIG 0.17  C 
BRANCH 54 55
ATOM     55  C   HIS X   4       3.726  -3.225  16.821  1.00 31.35 LIG 0.22  C 
ATOM     56 O    HIS X   4       3.755  -2.507  15.820  1.00 37.06 LIG-0.29  OA
ENDBRANCH 54 55
BRANCH 54 57
ATOM     57  CB  HIS X   4       2.008  -5.083  16.843  1.00 23.83 LIG 0.09  C 
BRANCH 57 58
ATOM     58  CG  HIS X   4       1.382  -5.021  15.475  1.00 22.57 LIG 0.06  A 
ATOM     59 ND1  HIS X   4       0.143  -4.455  15.236  1.00 22.63 LIG-0.24  NA
ATOM     60  CE1 HIS X   4      -0.137  -4.542  13.946  1.00 19.94 LIG 0.23  A 
ATOM     61 NE2  HIS X   4       0.864  -5.157  13.343  1.00 20.25 LIG-0.25  NA
ATOM     62  CD2 HIS X   4       1.831  -5.454  14.275  1.00 21.52 LIG 0.14  A 
ENDBRANCH 57 58
ENDBRANCH 54 57
ENDBRANCH 52 54
ENDBRANCH 43 50
ENDBRANCH 40 43
ENDBRANCH 38 39
BRANCH 38 63
ATOM     63  CB  HIS X   2       2.127   2.912  14.303  1.00 28.74 LIG 0.10  C 
BRANCH 63 64
ATOM     64  CG  HIS X   2       3.471   3.560  14.349  1.00 28.63 LIG 0.06  A 
ATOM     65 ND1  HIS X   2       4.637   2.833  14.312  1.00 31.27 LIG-0.24  NA
ATOM     66  CE1 HIS X   2       5.668   3.657  14.349  1.00 28.11 LIG 0.23  A 
ATOM     67 NE2  HIS X   2       5.214   4.893  14.419  1.00 29.87 LIG-0.25  NA
ATOM     68  CD2 HIS X   2       3.839   4.861  14.412  1.00 31.84 LIG 0.14  A 
ENDBRANCH 63 64
ENDBRANCH 38 63
ENDBRANCH 3 38
TORSDOF 24
ENDMDL
MODEL 97
USER: ADFR SOLUTION from run 57
USER: SCORE 17.901979 LL:  -6.196 LR: -13.296 RR:   0.000 FEB:  -6.137
USER: RMSD 8.993904
USER: SEED 56
USER: STATUS searching
USER: GENES 26
USER: genes 0 Translation |==|  0.60626 0.64705 0.47415
USER: genes 1 Rotation |==|  0.40584 0.71017 0.29371 0.89295
USER: genes 2 Torsion [N]-C--CA-[N] |==|  0.24974
USER: genes 3 Torsion [C]-CA--N-[C] |==|  0.71667
USER: genes 4 Torsion [N]-C--CA-[N] |==|  0.40081
USER: genes 5 Torsion [C]-CA--N-[C] |==|  0.76813
USER: genes 6 Torsion [N]-C--CA-[N] |==|  0.06280
USER: genes 7 Torsion [C]-CA--N-[H2] |==|  0.34751
USER: genes 8 Torsion [C]-CA--CB-[CG] |==|  0.89446
USER: genes 9 Torsion [CA]-CB--CG-[ND1] |==|  0.29770
USER: genes 10 Torsion [C]-CA--CB-[CG] |==|  0.94926
USER: genes 11 Torsion [CA]-CB--CG-[CD2] |==|  0.74301
USER: genes 12 Torsion [C]-CA--CB-[CG] |==|  0.73561
USER: genes 13 Torsion [CA]-CB--CG-[CD2] |==|  0.66236
USER: genes 14 Torsion [C]-N--CA-[C] |==|  0.92164
USER: genes 15 Torsion [N]-CA--C-[N] |==|  0.33696
USER: genes 16 Torsion [C]-N--CA-[CB] |==|  0.86660
USER: genes 17 Torsion [N]-CA--CB-[CG] |==|  0.33694
USER: genes 18 Torsion [CA]-CB--CG-[ND1] |==|  0.75609
USER: genes 19 Torsion [N]-CA--C-[N] |==|  0.84619
USER: genes 20 Torsion [C]-N--CA-[C] |==|  0.55206
USER: genes 21 Torsion [N]-CA--C-[O] |==|  0.43261
USER: genes 22 Torsion [N]-CA--CB-[CG] |==|  0.35286
USER: genes 23 Torsion [CA]-CB--CG-[ND1] |==|  0.75667
USER: genes 24 Torsion [N]-CA--CB-[CG] |==|  0.78694
USER: genes 25 Torsion [CA]-CB--CG-[CD2] |==|  0.35847
ROOT
ATOM      1  C   HIS X   1       4.782   3.547  19.105  1.00 40.87 LIG 0.24  C 
ATOM      2 O    HIS X   1       4.502   4.515  19.819  1.00 40.80 LIG-0.27  OA
ATOM      3  N   HIS X   2       3.969   2.539  18.856  1.00 30.16 LIG-0.35  N 
ATOM      4 H    HIS X   2       4.188   1.865  18.370  1.00 30.16 LIG 0.16  HD
ENDROOT
BRANCH 1 5
ATOM      5  CA  HIS X   1       6.120   3.411  18.409  1.00 48.06 LIG 0.18  C 
BRANCH 5 6
ATOM      6  N   HIS X   1       6.050   4.040  17.087  1.00 54.11 LIG-0.35  N 
ATOM      7 H    HIS X   1       6.104   4.898  17.105  1.00 54.11 LIG 0.16  HD
ATOM      8  C   HIS X   0       5.916   3.344  15.977  1.00 58.54 LIG 0.24  C 
ATOM      9 O    HIS X   0       5.607   2.151  15.947  1.00 63.37 LIG-0.27  OA
BRANCH 8 10
ATOM     10  CA  HIS X   0       6.177   4.143  14.711  1.00 62.53 LIG 0.18  C 
BRANCH 10 11
ATOM     11  N   HIS X   0       6.832   3.342  13.670  1.00 60.73 LIG-0.35  N 
ATOM     12  C   HIS X  -1       8.145   3.172  13.665  1.00 60.09 LIG 0.25  C 
ATOM     13 O    HIS X  -1       8.845   3.246  14.678  1.00 62.79 LIG-0.27  OA
ATOM     14 H    HIS X   0       6.299   3.008  13.086  1.00 60.73 LIG 0.16  HD
BRANCH 12 15
ATOM     15  CA  HIS X  -1       8.742   2.833  12.305  1.00 59.53 LIG 0.28  C 
BRANCH 15 16
ATOM     16  N   HIS X  -1       7.822   3.299  11.213  1.00 57.14 LIG-0.07  N 
ATOM     17 H3   HIS X  -1       7.511   2.595  10.766  1.00 57.14 LIG 0.28  HD
ATOM     18 H2   HIS X  -1       8.268   3.830  10.655  1.00 57.14 LIG 0.28  HD
ATOM     19 H1   HIS X  -1       7.141   3.748  11.569  1.00 57.14 LIG 0.28  HD
ENDBRANCH 15 16
BRANCH 15 20
ATOM     20  CB  HIS X  -1      10.130   3.452  12.140  1.00 57.27 LIG 0.10  C 
BRANCH 20 21
ATOM     21  CG  HIS X  -1      10.257   4.817  12.736  1.00 54.13 LIG 0.06  A 
ATOM     22 ND1  HIS X  -1      10.963   5.060  13.895  1.00 52.72 LIG-0.24  NA
ATOM     23  CE1 HIS X  -1      10.887   6.346  14.191  1.00 54.35 LIG 0.23  A 
ATOM     24 NE2  HIS X  -1      10.157   6.947  13.267  1.00 53.65 LIG-0.25  NA
ATOM     25  CD2 HIS X  -1       9.752   6.011  12.343  1.00 55.23 LIG 0.14  A 
ENDBRANCH 20 21
ENDBRANCH 15 20
ENDBRANCH 12 15
ENDBRANCH 10 11
BRANCH 10 26
ATOM     26  CB  HIS X   0       4.862   4.773  14.203  1.00 64.99 LIG 0.10  C 
BRANCH 26 27
ATOM     27  CG  HIS X   0       3.621   4.138  14.762  1.00 69.41 LIG 0.06  A 
ATOM     28 ND1  HIS X   0       3.037   4.553  15.942  1.00 72.01 LIG-0.24  NA
ATOM     29  CE1 HIS X   0       1.960   3.824  16.181  1.00 72.69 LIG 0.23  A 
ATOM     30 NE2  HIS X   0       1.821   2.955  15.195  1.00 72.94 LIG-0.25  NA
ATOM     31  CD2 HIS X   0       2.843   3.133  14.292  1.00 71.12 LIG 0.14  A 
ENDBRANCH 26 27
ENDBRANCH 10 26
ENDBRANCH 8 10
ENDBRANCH 5 6
BRANCH 5 32
ATOM     32  CB  HIS X   1       7.218   4.062  19.247  1.00 48.25 LIG 0.10  C 
BRANCH 32 33
ATOM     33  CG  HIS X   1       7.521   5.473  18.850  1.00 50.36 LIG 0.06  A 
ATOM     34  CD2 HIS X   1       8.675   6.051  18.434  1.00 51.47 LIG 0.14  A 
ATOM     35 NE2  HIS X   1       8.398   7.375  18.189  1.00 50.72 LIG-0.25  NA
ATOM     36  CE1 HIS X   1       7.121   7.600  18.445  1.00 48.50 LIG 0.23  A 
ATOM     37 ND1  HIS X   1       6.568   6.471  18.847  1.00 47.89 LIG-0.24  NA
ENDBRANCH 32 33
ENDBRANCH 5 32
ENDBRANCH 1 5
BRANCH 3 38
ATOM     38  CA  HIS X   2       2.591   2.468  19.392  1.00 26.25 LIG 0.18  C 
BRANCH 38 39
ATOM     39  C   HIS X   2       2.429   3.213  20.713  1.00 23.72 LIG 0.24  C 
ATOM     40  N   HIS X   3       1.521   4.175  20.682  1.00 22.33 LIG-0.35  N 
ATOM     41 H    HIS X   3       1.068   4.382  19.981  1.00 22.33 LIG 0.16  HD
ATOM     42 O    HIS X   2       3.106   2.943  21.716  1.00 19.88 LIG-0.27  OA
BRANCH 40 43
ATOM     43  CA  HIS X   3       1.203   4.987  21.868  1.00 22.38 LIG 0.18  C 
BRANCH 43 44
ATOM     44  CB  HIS X   3       0.964   4.136  23.154  1.00 22.51 LIG 0.10  C 
BRANCH 44 45
ATOM     45  CG  HIS X   3       1.874   4.442  24.310  1.00 18.10 LIG 0.06  A 
ATOM     46  CD2 HIS X   3       1.713   5.239  25.395  1.00 18.75 LIG 0.14  A 
ATOM     47 NE2  HIS X   3       2.848   5.114  26.164  1.00 20.06 LIG-0.25  NA
ATOM     48  CE1 HIS X   3       3.667   4.260  25.579  1.00 21.69 LIG 0.23  A 
ATOM     49 ND1  HIS X   3       3.094   3.830  24.467  1.00 17.48 LIG-0.24  NA
ENDBRANCH 44 45
ENDBRANCH 43 44
BRANCH 43 50
ATOM     50  C   HIS X   3       2.240   6.090  22.078  1.00 21.59 LIG 0.24  C 
ATOM     51 O    HIS X   3       1.932   7.275  22.107  1.00 25.47 LIG-0.27  OA
ATOM     52  N   HIS X   4       3.487   5.675  22.164  1.00 25.63 LIG-0.35  N 
ATOM     53 H    HIS X   4       3.728   4.851  22.116  1.00 25.63 LIG 0.16  HD
BRANCH 52 54
ATOM     54  CA  HIS X   4       4.587   6.625  22.353  1.00 23.96 LIG 0.17  C 
BRANCH 54 55
ATOM     55  C   HIS X   4       5.894   5.936  21.950  1.00 31.35 LIG 0.22  C 
ATOM     56 O    HIS X   4       6.876   6.588  21.590  1.00 37.06 LIG-0.29  OA
ENDBRANCH 54 55
BRANCH 54 57
ATOM     57  CB  HIS X   4       4.652   7.143  23.796  1.00 23.83 LIG 0.09  C 
BRANCH 57 58
ATOM     58  CG  HIS X   4       6.004   6.987  24.441  1.00 22.57 LIG 0.06  A 
ATOM     59 ND1  HIS X   4       6.392   5.843  25.113  1.00 22.63 LIG-0.24  NA
ATOM     60  CE1 HIS X   4       7.626   5.998  25.564  1.00 19.94 LIG 0.23  A 
ATOM     61 NE2  HIS X   4       8.045   7.202  25.226  1.00 20.25 LIG-0.25  NA
ATOM     62  CD2 HIS X   4       7.055   7.835  24.511  1.00 21.52 LIG 0.14  A 
ENDBRANCH 57 58
ENDBRANCH 54 57
ENDBRANCH 52 54
ENDBRANCH 43 50
ENDBRANCH 40 43
ENDBRANCH 38 39
BRANCH 38 63
ATOM     63  CB  HIS X   2       2.150   1.010  19.572  1.00 28.74 LIG 0.10  C 
BRANCH 63 64
ATOM     64  CG  HIS X   2       1.774   0.334  18.296  1.00 28.63 LIG 0.06  A 
ATOM     65 ND1  HIS X   2       0.899   0.895  17.396  1.00 31.27 LIG-0.24  NA
ATOM     66  CE1 HIS X   2       0.764   0.093  16.357  1.00 28.11 LIG 0.23  A 
ATOM     67 NE2  HIS X   2       1.512  -0.975  16.552  1.00 29.87 LIG-0.25  NA
ATOM     68  CD2 HIS X   2       2.163  -0.846  17.757  1.00 31.84 LIG 0.14  A 
ENDBRANCH 63 64
ENDBRANCH 38 63
ENDBRANCH 3 38
TORSDOF 24
ENDMDL
MODEL 98
USER: ADFR SOLUTION from run 172
USER: SCORE 17.801106 LL:  -5.948 LR: -13.285 RR:   0.000 FEB:  -6.126
USER: RMSD 10.147422
USER: SEED 171
USER: STATUS searching
USER: GENES 26
USER: genes 0 Translation |==|  0.46957 0.44560 0.35355
USER: genes 1 Rotation |==|  0.56430 0.29749 0.95023 0.54636
USER: genes 2 Torsion [N]-C--CA-[N] |==|  0.90211
USER: genes 3 Torsion [C]-CA--N-[C] |==|  0.66971
USER: genes 4 Torsion [N]-C--CA-[N] |==|  0.88721
USER: genes 5 Torsion [C]-CA--N-[C] |==|  0.75262
USER: genes 6 Torsion [N]-C--CA-[N] |==|  0.84657
USER: genes 7 Torsion [C]-CA--N-[H2] |==|  0.63635
USER: genes 8 Torsion [C]-CA--CB-[CG] |==|  0.53642
USER: genes 9 Torsion [CA]-CB--CG-[ND1] |==|  0.20656
USER: genes 10 Torsion [C]-CA--CB-[CG] |==|  0.86354
USER: genes 11 Torsion [CA]-CB--CG-[CD2] |==|  0.32614
USER: genes 12 Torsion [C]-CA--CB-[CG] |==|  0.32660
USER: genes 13 Torsion [CA]-CB--CG-[CD2] |==|  0.41619
USER: genes 14 Torsion [C]-N--CA-[C] |==|  0.70501
USER: genes 15 Torsion [N]-CA--C-[N] |==|  0.64317
USER: genes 16 Torsion [C]-N--CA-[CB] |==|  0.83157
USER: genes 17 Torsion [N]-CA--CB-[CG] |==|  0.72172
USER: genes 18 Torsion [CA]-CB--CG-[ND1] |==|  0.03348
USER: genes 19 Torsion [N]-CA--C-[N] |==|  0.34615
USER: genes 20 Torsion [C]-N--CA-[C] |==|  0.58570
USER: genes 21 Torsion [N]-CA--C-[O] |==|  0.97136
USER: genes 22 Torsion [N]-CA--CB-[CG] |==|  0.87860
USER: genes 23 Torsion [CA]-CB--CG-[ND1] |==|  0.79374
USER: genes 24 Torsion [N]-CA--CB-[CG] |==|  0.61267
USER: genes 25 Torsion [CA]-CB--CG-[CD2] |==|  0.11925
ROOT
ATOM      1  C   HIS X   1       2.014  -1.287  16.934  1.00 40.87 LIG 0.24  C 
ATOM      2 O    HIS X   1       3.207  -1.448  16.662  1.00 40.80 LIG-0.27  OA
ATOM      3  N   HIS X   2       1.466  -0.131  17.250  1.00 30.16 LIG-0.35  N 
ATOM      4 H    HIS X   2       0.635  -0.041  17.454  1.00 30.16 LIG 0.16  HD
ENDROOT
BRANCH 1 5
ATOM      5  CA  HIS X   1       1.018  -2.428  16.925  1.00 48.06 LIG 0.18  C 
BRANCH 5 6
ATOM      6  N   HIS X   1       0.026  -2.220  17.983  1.00 54.11 LIG-0.35  N 
ATOM      7 H    HIS X   1      -0.433  -1.499  17.895  1.00 54.11 LIG 0.16  HD
ATOM      8  C   HIS X   0      -0.139  -3.069  18.977  1.00 58.54 LIG 0.24  C 
ATOM      9 O    HIS X   0       0.652  -3.974  19.247  1.00 63.37 LIG-0.27  OA
BRANCH 8 10
ATOM     10  CA  HIS X   0      -1.409  -2.839  19.781  1.00 62.53 LIG 0.18  C 
BRANCH 10 11
ATOM     11  N   HIS X   0      -1.676  -1.414  20.006  1.00 60.73 LIG-0.35  N 
ATOM     12  C   HIS X  -1      -1.184  -0.786  21.062  1.00 60.09 LIG 0.25  C 
ATOM     13 O    HIS X  -1      -0.166  -1.148  21.656  1.00 62.79 LIG-0.27  OA
ATOM     14 H    HIS X   0      -2.167  -1.041  19.406  1.00 60.73 LIG 0.16  HD
BRANCH 12 15
ATOM     15  CA  HIS X  -1      -1.952   0.462  21.481  1.00 59.53 LIG 0.28  C 
BRANCH 15 16
ATOM     16  N   HIS X  -1      -2.058   1.410  20.320  1.00 57.14 LIG-0.07  N 
ATOM     17 H3   HIS X  -1      -1.522   1.137  19.664  1.00 57.14 LIG 0.28  HD
ATOM     18 H2   HIS X  -1      -1.816   2.226  20.580  1.00 57.14 LIG 0.28  HD
ATOM     19 H1   HIS X  -1      -2.899   1.428  20.028  1.00 57.14 LIG 0.28  HD
ENDBRANCH 15 16
BRANCH 15 20
ATOM     20  CB  HIS X  -1      -3.340   0.105  22.013  1.00 57.27 LIG 0.10  C 
BRANCH 20 21
ATOM     21  CG  HIS X  -1      -4.255   1.279  22.150  1.00 54.13 LIG 0.06  A 
ATOM     22 ND1  HIS X  -1      -4.845   1.892  21.065  1.00 52.72 LIG-0.24  NA
ATOM     23  CE1 HIS X  -1      -5.582   2.907  21.484  1.00 54.35 LIG 0.23  A 
ATOM     24 NE2  HIS X  -1      -5.490   2.975  22.802  1.00 53.65 LIG-0.25  NA
ATOM     25  CD2 HIS X  -1      -4.667   1.965  23.243  1.00 55.23 LIG 0.14  A 
ENDBRANCH 20 21
ENDBRANCH 15 20
ENDBRANCH 12 15
ENDBRANCH 10 11
BRANCH 10 26
ATOM     26  CB  HIS X   0      -2.601  -3.542  19.096  1.00 64.99 LIG 0.10  C 
BRANCH 26 27
ATOM     27  CG  HIS X   0      -2.722  -3.257  17.627  1.00 69.41 LIG 0.06  A 
ATOM     28 ND1  HIS X   0      -2.928  -1.986  17.128  1.00 72.01 LIG-0.24  NA
ATOM     29  CE1 HIS X   0      -2.985  -2.036  15.808  1.00 72.69 LIG 0.23  A 
ATOM     30 NE2  HIS X   0      -2.820  -3.291  15.432  1.00 72.94 LIG-0.25  NA
ATOM     31  CD2 HIS X   0      -2.649  -4.075  16.549  1.00 71.12 LIG 0.14  A 
ENDBRANCH 26 27
ENDBRANCH 10 26
ENDBRANCH 8 10
ENDBRANCH 5 6
BRANCH 5 32
ATOM     32  CB  HIS X   1       0.330  -2.517  15.565  1.00 48.25 LIG 0.10  C 
BRANCH 32 33
ATOM     33  CG  HIS X   1       0.589  -3.803  14.843  1.00 50.36 LIG 0.06  A 
ATOM     34  CD2 HIS X   1      -0.174  -4.498  13.963  1.00 51.47 LIG 0.14  A 
ATOM     35 NE2  HIS X   1       0.545  -5.610  13.595  1.00 50.72 LIG-0.25  NA
ATOM     36  CE1 HIS X   1       1.707  -5.596  14.225  1.00 48.50 LIG 0.23  A 
ATOM     37 ND1  HIS X   1       1.760  -4.519  14.986  1.00 47.89 LIG-0.24  NA
ENDBRANCH 32 33
ENDBRANCH 5 32
ENDBRANCH 1 5
BRANCH 3 38
ATOM     38  CA  HIS X   2       2.230   1.137  17.285  1.00 26.25 LIG 0.18  C 
BRANCH 38 39
ATOM     39  C   HIS X   2       2.507   1.622  18.705  1.00 23.72 LIG 0.24  C 
ATOM     40  N   HIS X   3       2.158   2.879  18.923  1.00 22.33 LIG-0.35  N 
ATOM     41 H    HIS X   3       1.820   3.393  18.322  1.00 22.33 LIG 0.16  HD
ATOM     42 O    HIS X   2       3.029   0.897  19.565  1.00 19.88 LIG-0.27  OA
BRANCH 40 43
ATOM     43  CA  HIS X   3       2.322   3.518  20.239  1.00 22.38 LIG 0.18  C 
BRANCH 43 44
ATOM     44  CB  HIS X   3       1.512   2.815  21.373  1.00 22.51 LIG 0.10  C 
BRANCH 44 45
ATOM     45  CG  HIS X   3       0.215   3.476  21.746  1.00 18.10 LIG 0.06  A 
ATOM     46  CD2 HIS X   3      -0.587   3.336  22.830  1.00 18.75 LIG 0.14  A 
ATOM     47 NE2  HIS X   3      -1.630   4.222  22.683  1.00 20.06 LIG-0.25  NA
ATOM     48  CE1 HIS X   3      -1.464   4.892  21.558  1.00 21.69 LIG 0.23  A 
ATOM     49 ND1  HIS X   3      -0.349   4.470  20.983  1.00 17.48 LIG-0.24  NA
ENDBRANCH 44 45
ENDBRANCH 43 44
BRANCH 43 50
ATOM     50  C   HIS X   3       3.799   3.689  20.592  1.00 21.59 LIG 0.24  C 
ATOM     51 O    HIS X   3       4.567   2.736  20.655  1.00 25.47 LIG-0.27  OA
ATOM     52  N   HIS X   4       4.165   4.920  20.881  1.00 25.63 LIG-0.35  N 
ATOM     53 H    HIS X   4       3.635   5.598  20.873  1.00 25.63 LIG 0.16  HD
BRANCH 52 54
ATOM     54  CA  HIS X   4       5.550   5.228  21.250  1.00 23.96 LIG 0.17  C 
BRANCH 54 55
ATOM     55  C   HIS X   4       5.538   6.414  22.220  1.00 31.35 LIG 0.22  C 
ATOM     56 O    HIS X   4       4.510   7.065  22.422  1.00 37.06 LIG-0.29  OA
ENDBRANCH 54 55
BRANCH 54 57
ATOM     57  CB  HIS X   4       6.416   5.524  20.019  1.00 23.83 LIG 0.09  C 
BRANCH 57 58
ATOM     58  CG  HIS X   4       6.197   4.572  18.874  1.00 22.57 LIG 0.06  A 
ATOM     59 ND1  HIS X   4       6.672   3.273  18.871  1.00 22.63 LIG-0.24  NA
ATOM     60  CE1 HIS X   4       6.321   2.681  17.741  1.00 19.94 LIG 0.23  A 
ATOM     61 NE2  HIS X   4       5.655   3.550  17.005  1.00 20.25 LIG-0.25  NA
ATOM     62  CD2 HIS X   4       5.552   4.734  17.696  1.00 21.52 LIG 0.14  A 
ENDBRANCH 57 58
ENDBRANCH 54 57
ENDBRANCH 52 54
ENDBRANCH 43 50
ENDBRANCH 40 43
ENDBRANCH 38 39
BRANCH 38 63
ATOM     63  CB  HIS X   2       1.499   2.237  16.505  1.00 28.74 LIG 0.10  C 
BRANCH 63 64
ATOM     64  CG  HIS X   2       2.405   3.096  15.688  1.00 28.63 LIG 0.06  A 
ATOM     65 ND1  HIS X   2       2.279   4.465  15.646  1.00 31.27 LIG-0.24  NA
ATOM     66  CE1 HIS X   2       3.215   4.968  14.863  1.00 28.11 LIG 0.23  A 
ATOM     67 NE2  HIS X   2       3.940   3.975  14.387  1.00 29.87 LIG-0.25  NA
ATOM     68  CD2 HIS X   2       3.459   2.790  14.894  1.00 31.84 LIG 0.14  A 
ENDBRANCH 63 64
ENDBRANCH 38 63
ENDBRANCH 3 38
TORSDOF 24
ENDMDL
MODEL 99
USER: ADFR SOLUTION from run 147
USER: SCORE 17.472185 LL:  -6.249 LR: -13.290 RR:   0.000 FEB:  -6.131
USER: RMSD 7.377518
USER: SEED 146
USER: STATUS no improvement in best in 8 clusters for 5 generations
USER: GENES 26
USER: genes 0 Translation |==|  0.35282 0.43239 0.34365
USER: genes 1 Rotation |==|  0.54404 0.71725 0.36621 0.92774
USER: genes 2 Torsion [N]-C--CA-[N] |==|  0.37286
USER: genes 3 Torsion [C]-CA--N-[C] |==|  0.77317
USER: genes 4 Torsion [N]-C--CA-[N] |==|  0.85337
USER: genes 5 Torsion [C]-CA--N-[C] |==|  0.19132
USER: genes 6 Torsion [N]-C--CA-[N] |==|  0.85789
USER: genes 7 Torsion [C]-CA--N-[H2] |==|  0.60188
USER: genes 8 Torsion [C]-CA--CB-[CG] |==|  0.54277
USER: genes 9 Torsion [CA]-CB--CG-[ND1] |==|  0.17510
USER: genes 10 Torsion [C]-CA--CB-[CG] |==|  0.35455
USER: genes 11 Torsion [CA]-CB--CG-[CD2] |==|  0.99420
USER: genes 12 Torsion [C]-CA--CB-[CG] |==|  0.33523
USER: genes 13 Torsion [CA]-CB--CG-[CD2] |==|  0.79801
USER: genes 14 Torsion [C]-N--CA-[C] |==|  0.90465
USER: genes 15 Torsion [N]-CA--C-[N] |==|  0.82804
USER: genes 16 Torsion [C]-N--CA-[CB] |==|  0.52254
USER: genes 17 Torsion [N]-CA--CB-[CG] |==|  0.07420
USER: genes 18 Torsion [CA]-CB--CG-[ND1] |==|  0.69666
USER: genes 19 Torsion [N]-CA--C-[N] |==|  0.35954
USER: genes 20 Torsion [C]-N--CA-[C] |==|  0.69899
USER: genes 21 Torsion [N]-CA--C-[O] |==|  0.58543
USER: genes 22 Torsion [N]-CA--CB-[CG] |==|  0.64355
USER: genes 23 Torsion [CA]-CB--CG-[ND1] |==|  0.65107
USER: genes 24 Torsion [N]-CA--CB-[CG] |==|  0.07810
USER: genes 25 Torsion [CA]-CB--CG-[CD2] |==|  0.27983
ROOT
ATOM      1  C   HIS X   1      -0.350  -1.605  16.756  1.00 40.87 LIG 0.24  C 
ATOM      2 O    HIS X   1      -0.860  -1.211  17.809  1.00 40.80 LIG-0.27  OA
ATOM      3  N   HIS X   2      -0.990  -2.278  15.820  1.00 30.16 LIG-0.35  N 
ATOM      4 H    HIS X   2      -0.614  -2.560  15.100  1.00 30.16 LIG 0.16  HD
ENDROOT
BRANCH 1 5
ATOM      5  CA  HIS X   1       1.100  -1.344  16.407  1.00 48.06 LIG 0.18  C 
BRANCH 5 6
ATOM      6  N   HIS X   1       1.428   0.055  16.694  1.00 54.11 LIG-0.35  N 
ATOM      7 H    HIS X   1       1.822   0.174  17.450  1.00 54.11 LIG 0.16  HD
ATOM      8  C   HIS X   0       1.141   1.036  15.864  1.00 58.54 LIG 0.24  C 
ATOM      9 O    HIS X   0       0.381   0.920  14.900  1.00 63.37 LIG-0.27  OA
BRANCH 8 10
ATOM     10  CA  HIS X   0       1.833   2.348  16.194  1.00 62.53 LIG 0.18  C 
BRANCH 10 11
ATOM     11  N   HIS X   0       1.615   2.760  17.586  1.00 60.73 LIG-0.35  N 
ATOM     12  C   HIS X  -1       2.153   2.086  18.589  1.00 60.09 LIG 0.25  C 
ATOM     13 O    HIS X  -1       3.175   1.404  18.481  1.00 62.79 LIG-0.27  OA
ATOM     14 H    HIS X   0       1.120   3.457  17.680  1.00 60.73 LIG 0.16  HD
BRANCH 12 15
ATOM     15  CA  HIS X  -1       1.435   2.241  19.924  1.00 59.53 LIG 0.28  C 
BRANCH 15 16
ATOM     16  N   HIS X  -1       1.238   3.698  20.232  1.00 57.14 LIG-0.07  N 
ATOM     17 H3   HIS X  -1       1.843   4.179  19.789  1.00 57.14 LIG 0.28  HD
ATOM     18 H2   HIS X  -1       1.336   3.833  21.106  1.00 57.14 LIG 0.28  HD
ATOM     19 H1   HIS X  -1       0.421   3.947  19.982  1.00 57.14 LIG 0.28  HD
ENDBRANCH 15 16
BRANCH 15 20
ATOM     20  CB  HIS X  -1       0.094   1.506  19.920  1.00 57.27 LIG 0.10  C 
BRANCH 20 21
ATOM     21  CG  HIS X  -1      -0.817   1.906  21.035  1.00 54.13 LIG 0.06  A 
ATOM     22 ND1  HIS X  -1      -1.313   3.185  21.169  1.00 52.72 LIG-0.24  NA
ATOM     23  CE1 HIS X  -1      -2.071   3.249  22.250  1.00 54.35 LIG 0.23  A 
ATOM     24 NE2  HIS X  -1      -2.084   2.058  22.824  1.00 53.65 LIG-0.25  NA
ATOM     25  CD2 HIS X  -1      -1.308   1.199  22.081  1.00 55.23 LIG 0.14  A 
ENDBRANCH 20 21
ENDBRANCH 15 20
ENDBRANCH 12 15
ENDBRANCH 10 11
BRANCH 10 26
ATOM     26  CB  HIS X   0       3.337   2.250  15.857  1.00 64.99 LIG 0.10  C 
BRANCH 26 27
ATOM     27  CG  HIS X   0       3.844   3.358  14.979  1.00 69.41 LIG 0.06  A 
ATOM     28 ND1  HIS X   0       5.164   3.455  14.588  1.00 72.01 LIG-0.24  NA
ATOM     29  CE1 HIS X   0       5.318   4.518  13.817  1.00 72.69 LIG 0.23  A 
ATOM     30 NE2  HIS X   0       4.145   5.112  13.690  1.00 72.94 LIG-0.25  NA
ATOM     31  CD2 HIS X   0       3.205   4.404  14.403  1.00 71.12 LIG 0.14  A 
ENDBRANCH 26 27
ENDBRANCH 10 26
ENDBRANCH 8 10
ENDBRANCH 5 6
BRANCH 5 32
ATOM     32  CB  HIS X   1       2.009  -2.276  17.205  1.00 48.25 LIG 0.10  C 
BRANCH 32 33
ATOM     33  CG  HIS X   1       2.865  -3.158  16.349  1.00 50.36 LIG 0.06  A 
ATOM     34  CD2 HIS X   1       2.551  -4.239  15.594  1.00 51.47 LIG 0.14  A 
ATOM     35 NE2  HIS X   1       3.714  -4.671  15.003  1.00 50.72 LIG-0.25  NA
ATOM     36  CE1 HIS X   1       4.705  -3.882  15.381  1.00 48.50 LIG 0.23  A 
ATOM     37 ND1  HIS X   1       4.222  -2.961  16.195  1.00 47.89 LIG-0.24  NA
ENDBRANCH 32 33
ENDBRANCH 5 32
ENDBRANCH 1 5
BRANCH 3 38
ATOM     38  CA  HIS X   2      -2.428  -2.618  15.916  1.00 26.25 LIG 0.18  C 
BRANCH 38 39
ATOM     39  C   HIS X   2      -2.876  -2.900  17.346  1.00 23.72 LIG 0.24  C 
ATOM     40  N   HIS X   3      -2.270  -3.933  17.908  1.00 22.33 LIG-0.35  N 
ATOM     41 H    HIS X   3      -1.687  -4.421  17.506  1.00 22.33 LIG 0.16  HD
ATOM     42 O    HIS X   2      -3.744  -2.222  17.917  1.00 19.88 LIG-0.27  OA
BRANCH 40 43
ATOM     43  CA  HIS X   3      -2.549  -4.344  19.293  1.00 22.38 LIG 0.18  C 
BRANCH 43 44
ATOM     44  CB  HIS X   3      -1.584  -5.454  19.815  1.00 22.51 LIG 0.10  C 
BRANCH 44 45
ATOM     45  CG  HIS X   3      -0.228  -5.489  19.167  1.00 18.10 LIG 0.06  A 
ATOM     46  CD2 HIS X   3       0.856  -4.686  19.306  1.00 18.75 LIG 0.14  A 
ATOM     47 NE2  HIS X   3       1.850  -5.204  18.507  1.00 20.06 LIG-0.25  NA
ATOM     48  CE1 HIS X   3       1.397  -6.292  17.913  1.00 21.69 LIG 0.23  A 
ATOM     49 ND1  HIS X   3       0.150  -6.492  18.308  1.00 17.48 LIG-0.24  NA
ENDBRANCH 44 45
ENDBRANCH 43 44
BRANCH 43 50
ATOM     50  C   HIS X   3      -2.612  -3.135  20.227  1.00 21.59 LIG 0.24  C 
ATOM     51 O    HIS X   3      -1.704  -2.315  20.291  1.00 25.47 LIG-0.27  OA
ATOM     52  N   HIS X   4      -3.681  -3.078  20.994  1.00 25.63 LIG-0.35  N 
ATOM     53 H    HIS X   4      -4.315  -3.659  20.986  1.00 25.63 LIG 0.16  HD
BRANCH 52 54
ATOM     54  CA  HIS X   4      -3.868  -1.980  21.946  1.00 23.96 LIG 0.17  C 
BRANCH 54 55
ATOM     55  C   HIS X   4      -3.671  -2.531  23.362  1.00 31.35 LIG 0.22  C 
ATOM     56 O    HIS X   4      -4.275  -2.053  24.325  1.00 37.06 LIG-0.29  OA
ENDBRANCH 54 55
BRANCH 54 57
ATOM     57  CB  HIS X   4      -5.243  -1.318  21.793  1.00 23.83 LIG 0.09  C 
BRANCH 57 58
ATOM     58  CG  HIS X   4      -5.188   0.180  21.646  1.00 22.57 LIG 0.06  A 
ATOM     59 ND1  HIS X   4      -5.893   1.045  22.463  1.00 22.63 LIG-0.24  NA
ATOM     60  CE1 HIS X   4      -5.642   2.292  22.100  1.00 19.94 LIG 0.23  A 
ATOM     61 NE2  HIS X   4      -4.817   2.268  21.070  1.00 20.25 LIG-0.25  NA
ATOM     62  CD2 HIS X   4      -4.508   0.961  20.776  1.00 21.52 LIG 0.14  A 
ENDBRANCH 57 58
ENDBRANCH 54 57
ENDBRANCH 52 54
ENDBRANCH 43 50
ENDBRANCH 40 43
ENDBRANCH 38 39
BRANCH 38 63
ATOM     63  CB  HIS X   2      -2.764  -3.824  15.030  1.00 28.74 LIG 0.10  C 
BRANCH 63 64
ATOM     64  CG  HIS X   2      -1.618  -4.758  14.826  1.00 28.63 LIG 0.06  A 
ATOM     65 ND1  HIS X   2      -0.603  -4.492  13.938  1.00 31.27 LIG-0.24  NA
ATOM     66  CE1 HIS X   2       0.280  -5.473  13.974  1.00 28.11 LIG 0.23  A 
ATOM     67 NE2  HIS X   2      -0.130  -6.373  14.846  1.00 29.87 LIG-0.25  NA
ATOM     68  CD2 HIS X   2      -1.314  -5.945  15.402  1.00 31.84 LIG 0.14  A 
ENDBRANCH 63 64
ENDBRANCH 38 63
ENDBRANCH 3 38
TORSDOF 24
ENDMDL
MODEL 100
USER: ADFR SOLUTION from run 167
USER: SCORE 18.400793 LL:  -5.848 LR: -13.287 RR:   0.000 FEB:  -6.128
USER: RMSD 9.290511
USER: SEED 166
USER: STATUS no improvement in best in 36 clusters for 5 generations
USER: GENES 26
USER: genes 0 Translation |==|  0.48599 0.62508 0.54936
USER: genes 1 Rotation |==|  0.54439 0.73490 0.80879 0.81225
USER: genes 2 Torsion [N]-C--CA-[N] |==|  0.32708
USER: genes 3 Torsion [C]-CA--N-[C] |==|  0.70121
USER: genes 4 Torsion [N]-C--CA-[N] |==|  0.38889
USER: genes 5 Torsion [C]-CA--N-[C] |==|  0.55666
USER: genes 6 Torsion [N]-C--CA-[N] |==|  0.21411
USER: genes 7 Torsion [C]-CA--N-[H2] |==|  0.63227
USER: genes 8 Torsion [C]-CA--CB-[CG] |==|  0.27758
USER: genes 9 Torsion [CA]-CB--CG-[ND1] |==|  0.15375
USER: genes 10 Torsion [C]-CA--CB-[CG] |==|  0.05509
USER: genes 11 Torsion [CA]-CB--CG-[CD2] |==|  0.70661
USER: genes 12 Torsion [C]-CA--CB-[CG] |==|  0.49554
USER: genes 13 Torsion [CA]-CB--CG-[CD2] |==|  0.43038
USER: genes 14 Torsion [C]-N--CA-[C] |==|  0.74256
USER: genes 15 Torsion [N]-CA--C-[N] |==|  0.02109
USER: genes 16 Torsion [C]-N--CA-[CB] |==|  0.75598
USER: genes 17 Torsion [N]-CA--CB-[CG] |==|  0.96519
USER: genes 18 Torsion [CA]-CB--CG-[ND1] |==|  0.25495
USER: genes 19 Torsion [N]-CA--C-[N] |==|  0.20621
USER: genes 20 Torsion [C]-N--CA-[C] |==|  0.76320
USER: genes 21 Torsion [N]-CA--C-[O] |==|  0.05994
USER: genes 22 Torsion [N]-CA--CB-[CG] |==|  0.89885
USER: genes 23 Torsion [CA]-CB--CG-[ND1] |==|  0.29685
USER: genes 24 Torsion [N]-CA--CB-[CG] |==|  0.64534
USER: genes 25 Torsion [CA]-CB--CG-[CD2] |==|  0.56952
ROOT
ATOM      1  C   HIS X   1       2.346   3.020  20.459  1.00 40.87 LIG 0.24  C 
ATOM      2 O    HIS X   1       2.709   2.028  21.098  1.00 40.80 LIG-0.27  OA
ATOM      3  N   HIS X   2       2.252   3.071  19.144  1.00 30.16 LIG-0.35  N 
ATOM      4 H    HIS X   2       2.014   3.777  18.715  1.00 30.16 LIG 0.16  HD
ENDROOT
BRANCH 1 5
ATOM      5  CA  HIS X   1       1.951   4.319  21.129  1.00 48.06 LIG 0.18  C 
BRANCH 5 6
ATOM      6  N   HIS X   1       0.787   4.091  21.989  1.00 54.11 LIG-0.35  N 
ATOM      7 H    HIS X   1       0.963   3.650  22.706  1.00 54.11 LIG 0.16  HD
ATOM      8  C   HIS X   0      -0.418   4.526  21.682  1.00 58.54 LIG 0.24  C 
ATOM      9 O    HIS X   0      -0.733   4.950  20.569  1.00 63.37 LIG-0.27  OA
BRANCH 8 10
ATOM     10  CA  HIS X   0      -1.409   4.464  22.833  1.00 62.53 LIG 0.18  C 
BRANCH 10 11
ATOM     11  N   HIS X   0      -2.282   5.643  22.882  1.00 60.73 LIG-0.35  N 
ATOM     12  C   HIS X  -1      -2.916   5.976  23.995  1.00 60.09 LIG 0.25  C 
ATOM     13 O    HIS X  -1      -2.524   5.664  25.122  1.00 62.79 LIG-0.27  OA
ATOM     14 H    HIS X   0      -2.338   6.079  22.144  1.00 60.73 LIG 0.16  HD
BRANCH 12 15
ATOM     15  CA  HIS X  -1      -4.168   6.822  23.790  1.00 59.53 LIG 0.28  C 
BRANCH 15 16
ATOM     16  N   HIS X  -1      -5.299   5.953  23.320  1.00 57.14 LIG-0.07  N 
ATOM     17 H3   HIS X  -1      -4.982   5.157  23.080  1.00 57.14 LIG 0.28  HD
ATOM     18 H2   HIS X  -1      -5.698   6.336  22.622  1.00 57.14 LIG 0.28  HD
ATOM     19 H1   HIS X  -1      -5.889   5.851  23.979  1.00 57.14 LIG 0.28  HD
ENDBRANCH 15 16
BRANCH 15 20
ATOM     20  CB  HIS X  -1      -4.553   7.559  25.073  1.00 57.27 LIG 0.10  C 
BRANCH 20 21
ATOM     21  CG  HIS X  -1      -4.124   8.991  25.099  1.00 54.13 LIG 0.06  A 
ATOM     22 ND1  HIS X  -1      -4.476   9.890  24.115  1.00 52.72 LIG-0.24  NA
ATOM     23  CE1 HIS X  -1      -3.942  11.068  24.389  1.00 54.35 LIG 0.23  A 
ATOM     24 NE2  HIS X  -1      -3.256  10.966  25.514  1.00 53.65 LIG-0.25  NA
ATOM     25  CD2 HIS X  -1      -3.356   9.675  25.980  1.00 55.23 LIG 0.14  A 
ENDBRANCH 20 21
ENDBRANCH 15 20
ENDBRANCH 12 15
ENDBRANCH 10 11
BRANCH 10 26
ATOM     26  CB  HIS X   0      -2.222   3.154  22.759  1.00 64.99 LIG 0.10  C 
BRANCH 26 27
ATOM     27  CG  HIS X   0      -1.581   2.078  21.932  1.00 69.41 LIG 0.06  A 
ATOM     28 ND1  HIS X   0      -0.503   1.338  22.376  1.00 72.01 LIG-0.24  NA
ATOM     29  CE1 HIS X   0      -0.157   0.463  21.447  1.00 72.69 LIG 0.23  A 
ATOM     30 NE2  HIS X   0      -0.973   0.605  20.418  1.00 72.94 LIG-0.25  NA
ATOM     31  CD2 HIS X   0      -1.876   1.605  20.697  1.00 71.12 LIG 0.14  A 
ENDBRANCH 26 27
ENDBRANCH 10 26
ENDBRANCH 8 10
ENDBRANCH 5 6
BRANCH 5 32
ATOM     32  CB  HIS X   1       3.117   4.864  21.950  1.00 48.25 LIG 0.10  C 
BRANCH 32 33
ATOM     33  CG  HIS X   1       2.822   6.171  22.618  1.00 50.36 LIG 0.06  A 
ATOM     34  CD2 HIS X   1       3.354   6.743  23.727  1.00 51.47 LIG 0.14  A 
ATOM     35 NE2  HIS X   1       2.730   7.955  23.896  1.00 50.72 LIG-0.25  NA
ATOM     36  CE1 HIS X   1       1.848   8.122  22.925  1.00 48.50 LIG 0.23  A 
ATOM     37 ND1  HIS X   1       1.881   7.060  22.141  1.00 47.89 LIG-0.24  NA
ENDBRANCH 32 33
ENDBRANCH 5 32
ENDBRANCH 1 5
BRANCH 3 38
ATOM     38  CA  HIS X   2       2.546   1.911  18.272  1.00 26.25 LIG 0.18  C 
BRANCH 38 39
ATOM     39  C   HIS X   2       3.993   1.886  17.789  1.00 23.72 LIG 0.24  C 
ATOM     40  N   HIS X   3       4.766   2.799  18.353  1.00 22.33 LIG-0.35  N 
ATOM     41 H    HIS X   3       4.485   3.374  18.928  1.00 22.33 LIG 0.16  HD
ATOM     42 O    HIS X   2       4.394   1.084  16.933  1.00 19.88 LIG-0.27  OA
BRANCH 40 43
ATOM     43  CA  HIS X   3       6.199   2.913  18.037  1.00 22.38 LIG 0.18  C 
BRANCH 43 44
ATOM     44  CB  HIS X   3       7.103   2.007  18.930  1.00 22.51 LIG 0.10  C 
BRANCH 44 45
ATOM     45  CG  HIS X   3       6.429   1.407  20.132  1.00 18.10 LIG 0.06  A 
ATOM     46  CD2 HIS X   3       6.204   1.899  21.376  1.00 18.75 LIG 0.14  A 
ATOM     47 NE2  HIS X   3       5.500   0.942  22.070  1.00 20.06 LIG-0.25  NA
ATOM     48  CE1 HIS X   3       5.289  -0.092  21.277  1.00 21.69 LIG 0.23  A 
ATOM     49 ND1  HIS X   3       5.827   0.173  20.098  1.00 17.48 LIG-0.24  NA
ENDBRANCH 44 45
ENDBRANCH 43 44
BRANCH 43 50
ATOM     50  C   HIS X   3       6.455   2.708  16.544  1.00 21.59 LIG 0.24  C 
ATOM     51 O    HIS X   3       7.000   1.700  16.110  1.00 25.47 LIG-0.27  OA
ATOM     52  N   HIS X   4       6.103   3.716  15.774  1.00 25.63 LIG-0.35  N 
ATOM     53 H    HIS X   4       5.746   4.445  16.062  1.00 25.63 LIG 0.16  HD
BRANCH 52 54
ATOM     54  CA  HIS X   4       6.302   3.663  14.323  1.00 23.96 LIG 0.17  C 
BRANCH 54 55
ATOM     55  C   HIS X   4       7.732   4.117  14.015  1.00 31.35 LIG 0.22  C 
ATOM     56 O    HIS X   4       8.615   4.074  14.874  1.00 37.06 LIG-0.29  OA
ENDBRANCH 54 55
BRANCH 54 57
ATOM     57  CB  HIS X   4       5.272   4.518  13.573  1.00 23.83 LIG 0.09  C 
BRANCH 57 58
ATOM     58  CG  HIS X   4       3.900   4.507  14.193  1.00 22.57 LIG 0.06  A 
ATOM     59 ND1  HIS X   4       3.376   5.584  14.885  1.00 22.63 LIG-0.24  NA
ATOM     60  CE1 HIS X   4       2.158   5.283  15.306  1.00 19.94 LIG 0.23  A 
ATOM     61 NE2  HIS X   4       1.881   4.049  14.929  1.00 20.25 LIG-0.25  NA
ATOM     62  CD2 HIS X   4       2.947   3.548  14.220  1.00 21.52 LIG 0.14  A 
ENDBRANCH 57 58
ENDBRANCH 54 57
ENDBRANCH 52 54
ENDBRANCH 43 50
ENDBRANCH 40 43
ENDBRANCH 38 39
BRANCH 38 63
ATOM     63  CB  HIS X   2       1.605   1.886  17.062  1.00 28.74 LIG 0.10  C 
BRANCH 63 64
ATOM     64  CG  HIS X   2       0.905   0.581  16.872  1.00 28.63 LIG 0.06  A 
ATOM     65 ND1  HIS X   2       0.663  -0.281  17.915  1.00 31.27 LIG-0.24  NA
ATOM     66  CE1 HIS X   2       0.018  -1.342  17.467  1.00 28.11 LIG 0.23  A 
ATOM     67 NE2  HIS X   2      -0.159  -1.205  16.167  1.00 29.87 LIG-0.25  NA
ATOM     68  CD2 HIS X   2       0.380  -0.004  15.770  1.00 31.84 LIG 0.14  A 
ENDBRANCH 63 64
ENDBRANCH 38 63
ENDBRANCH 3 38
TORSDOF 24
ENDMDL
MODEL 101
USER: ADFR SOLUTION from run 14
USER: SCORE 17.806549 LL:  -5.561 LR: -13.282 RR:   0.000 FEB:  -6.123
USER: RMSD 5.993630
USER: SEED 689640
USER: STATUS no improvement in best in 38 clusters for 5 generations
USER: GENES 26
USER: genes 0 Translation |==|  0.43694 0.54165 0.48131
USER: genes 1 Rotation |==|  0.30197 0.04318 0.45865 0.51978
USER: genes 2 Torsion [N]-C--CA-[N] |==|  0.11798
USER: genes 3 Torsion [C]-CA--N-[C] |==|  0.15702
USER: genes 4 Torsion [N]-C--CA-[N] |==|  0.68425
USER: genes 5 Torsion [C]-CA--N-[C] |==|  0.20967
USER: genes 6 Torsion [N]-C--CA-[N] |==|  0.75441
USER: genes 7 Torsion [C]-CA--N-[H2] |==|  0.07609
USER: genes 8 Torsion [C]-CA--CB-[CG] |==|  0.24916
USER: genes 9 Torsion [CA]-CB--CG-[ND1] |==|  0.19073
USER: genes 10 Torsion [C]-CA--CB-[CG] |==|  0.38708
USER: genes 11 Torsion [CA]-CB--CG-[CD2] |==|  0.03113
USER: genes 12 Torsion [C]-CA--CB-[CG] |==|  0.35583
USER: genes 13 Torsion [CA]-CB--CG-[CD2] |==|  0.40915
USER: genes 14 Torsion [C]-N--CA-[C] |==|  0.78889
USER: genes 15 Torsion [N]-CA--C-[N] |==|  0.44902
USER: genes 16 Torsion [C]-N--CA-[CB] |==|  0.84861
USER: genes 17 Torsion [N]-CA--CB-[CG] |==|  0.30210
USER: genes 18 Torsion [CA]-CB--CG-[ND1] |==|  0.72473
USER: genes 19 Torsion [N]-CA--C-[N] |==|  0.92775
USER: genes 20 Torsion [C]-N--CA-[C] |==|  0.19177
USER: genes 21 Torsion [N]-CA--C-[O] |==|  0.71795
USER: genes 22 Torsion [N]-CA--CB-[CG] |==|  0.49619
USER: genes 23 Torsion [CA]-CB--CG-[ND1] |==|  0.19994
USER: genes 24 Torsion [N]-CA--CB-[CG] |==|  0.17072
USER: genes 25 Torsion [CA]-CB--CG-[CD2] |==|  0.77417
ROOT
ATOM      1  C   HIS X   1       1.353   1.018  19.234  1.00 40.87 LIG 0.24  C 
ATOM      2 O    HIS X   1       2.171   0.144  18.930  1.00 40.80 LIG-0.27  OA
ATOM      3  N   HIS X   2       0.279   0.815  19.971  1.00 30.16 LIG-0.35  N 
ATOM      4 H    HIS X   2      -0.289   1.433  20.158  1.00 30.16 LIG 0.16  HD
ENDROOT
BRANCH 1 5
ATOM      5  CA  HIS X   1       1.500   2.458  18.790  1.00 48.06 LIG 0.18  C 
BRANCH 5 6
ATOM      6  N   HIS X   1       1.182   3.350  19.908  1.00 54.11 LIG-0.35  N 
ATOM      7 H    HIS X   1       0.555   3.913  19.738  1.00 54.11 LIG 0.16  HD
ATOM      8  C   HIS X   0       1.806   3.285  21.066  1.00 58.54 LIG 0.24  C 
ATOM      9 O    HIS X   0       2.848   2.652  21.252  1.00 63.37 LIG-0.27  OA
BRANCH 8 10
ATOM     10  CA  HIS X   0       1.127   4.068  22.178  1.00 62.53 LIG 0.18  C 
BRANCH 10 11
ATOM     11  N   HIS X   0       1.934   5.207  22.632  1.00 60.73 LIG-0.35  N 
ATOM     12  C   HIS X  -1       2.025   6.310  21.906  1.00 60.09 LIG 0.25  C 
ATOM     13 O    HIS X  -1       1.164   6.666  21.098  1.00 62.79 LIG-0.27  OA
ATOM     14 H    HIS X   0       2.327   5.091  23.387  1.00 60.73 LIG 0.16  HD
BRANCH 12 15
ATOM     15  CA  HIS X  -1       3.270   7.149  22.169  1.00 59.53 LIG 0.28  C 
BRANCH 15 16
ATOM     16  N   HIS X  -1       3.005   8.120  23.284  1.00 57.14 LIG-0.07  N 
ATOM     17 H3   HIS X  -1       3.755   8.254  23.746  1.00 57.14 LIG 0.28  HD
ATOM     18 H2   HIS X  -1       2.380   7.788  23.825  1.00 57.14 LIG 0.28  HD
ATOM     19 H1   HIS X  -1       2.724   8.893  22.945  1.00 57.14 LIG 0.28  HD
ENDBRANCH 15 16
BRANCH 15 20
ATOM     20  CB  HIS X  -1       4.473   6.266  22.498  1.00 57.27 LIG 0.10  C 
BRANCH 20 21
ATOM     21  CG  HIS X  -1       5.264   5.852  21.300  1.00 54.13 LIG 0.06  A 
ATOM     22 ND1  HIS X  -1       6.012   6.742  20.559  1.00 52.72 LIG-0.24  NA
ATOM     23  CE1 HIS X  -1       6.585   6.100  19.554  1.00 54.35 LIG 0.23  A 
ATOM     24 NE2  HIS X  -1       6.235   4.827  19.616  1.00 53.65 LIG-0.25  NA
ATOM     25  CD2 HIS X  -1       5.410   4.645  20.702  1.00 55.23 LIG 0.14  A 
ENDBRANCH 20 21
ENDBRANCH 15 20
ENDBRANCH 12 15
ENDBRANCH 10 11
BRANCH 10 26
ATOM     26  CB  HIS X   0      -0.282   4.509  21.728  1.00 64.99 LIG 0.10  C 
BRANCH 26 27
ATOM     27  CG  HIS X   0      -1.334   4.389  22.794  1.00 69.41 LIG 0.06  A 
ATOM     28 ND1  HIS X   0      -2.684   4.496  22.525  1.00 72.01 LIG-0.24  NA
ATOM     29  CE1 HIS X   0      -3.369   4.340  23.645  1.00 72.69 LIG 0.23  A 
ATOM     30 NE2  HIS X   0      -2.513   4.132  24.630  1.00 72.94 LIG-0.25  NA
ATOM     31  CD2 HIS X   0      -1.234   4.152  24.124  1.00 71.12 LIG 0.14  A 
ENDBRANCH 26 27
ENDBRANCH 10 26
ENDBRANCH 8 10
ENDBRANCH 5 6
BRANCH 5 32
ATOM     32  CB  HIS X   1       2.923   2.714  18.296  1.00 48.25 LIG 0.10  C 
BRANCH 32 33
ATOM     33  CG  HIS X   1       2.984   3.343  16.939  1.00 50.36 LIG 0.06  A 
ATOM     34  CD2 HIS X   1       3.870   4.217  16.403  1.00 51.47 LIG 0.14  A 
ATOM     35 NE2  HIS X   1       3.465   4.465  15.113  1.00 50.72 LIG-0.25  NA
ATOM     36  CE1 HIS X   1       2.370   3.766  14.867  1.00 48.50 LIG 0.23  A 
ATOM     37 ND1  HIS X   1       2.056   3.081  15.951  1.00 47.89 LIG-0.24  NA
ENDBRANCH 32 33
ENDBRANCH 5 32
ENDBRANCH 1 5
BRANCH 3 38
ATOM     38  CA  HIS X   2      -0.057  -0.503  20.556  1.00 26.25 LIG 0.18  C 
BRANCH 38 39
ATOM     39  C   HIS X   2      -0.622  -1.479  19.529  1.00 23.72 LIG 0.24  C 
ATOM     40  N   HIS X   3      -0.574  -2.746  19.906  1.00 22.33 LIG-0.35  N 
ATOM     41 H    HIS X   3      -0.241  -3.010  20.654  1.00 22.33 LIG 0.16  HD
ATOM     42 O    HIS X   2      -1.070  -1.108  18.434  1.00 19.88 LIG-0.27  OA
BRANCH 40 43
ATOM     43  CA  HIS X   3      -1.097  -3.833  19.062  1.00 22.38 LIG 0.18  C 
BRANCH 43 44
ATOM     44  CB  HIS X   3      -2.584  -3.623  18.635  1.00 22.51 LIG 0.10  C 
BRANCH 44 45
ATOM     45  CG  HIS X   3      -2.797  -3.285  17.186  1.00 18.10 LIG 0.06  A 
ATOM     46  CD2 HIS X   3      -2.911  -4.070  16.086  1.00 18.75 LIG 0.14  A 
ATOM     47 NE2  HIS X   3      -3.145  -3.238  15.015  1.00 20.06 LIG-0.25  NA
ATOM     48  CE1 HIS X   3      -3.188  -1.991  15.445  1.00 21.69 LIG 0.23  A 
ATOM     49 ND1  HIS X   3      -2.997  -1.996  16.754  1.00 17.48 LIG-0.24  NA
ENDBRANCH 44 45
ENDBRANCH 43 44
BRANCH 43 50
ATOM     50  C   HIS X   3      -0.177  -4.103  17.873  1.00 21.59 LIG 0.24  C 
ATOM     51 O    HIS X   3      -0.088  -5.211  17.357  1.00 25.47 LIG-0.27  OA
ATOM     52  N   HIS X   4       0.554  -3.077  17.488  1.00 25.63 LIG-0.35  N 
ATOM     53 H    HIS X   4       0.530  -2.300  17.856  1.00 25.63 LIG 0.16  HD
BRANCH 52 54
ATOM     54  CA  HIS X   4       1.491  -3.196  16.368  1.00 23.96 LIG 0.17  C 
BRANCH 54 55
ATOM     55  C   HIS X   4       0.681  -3.357  15.077  1.00 31.35 LIG 0.22  C 
ATOM     56 O    HIS X   4       0.535  -4.460  14.547  1.00 37.06 LIG-0.29  OA
ENDBRANCH 54 55
BRANCH 54 57
ATOM     57  CB  HIS X   4       2.468  -4.362  16.561  1.00 23.83 LIG 0.09  C 
BRANCH 57 58
ATOM     58  CG  HIS X   4       3.433  -4.548  15.420  1.00 22.57 LIG 0.06  A 
ATOM     59 ND1  HIS X   4       4.482  -3.682  15.169  1.00 22.63 LIG-0.24  NA
ATOM     60  CE1 HIS X   4       5.155  -4.105  14.112  1.00 19.94 LIG 0.23  A 
ATOM     61 NE2  HIS X   4       4.573  -5.198  13.657  1.00 20.25 LIG-0.25  NA
ATOM     62  CD2 HIS X   4       3.503  -5.503  14.465  1.00 21.52 LIG 0.14  A 
ENDBRANCH 57 58
ENDBRANCH 54 57
ENDBRANCH 52 54
ENDBRANCH 43 50
ENDBRANCH 40 43
ENDBRANCH 38 39
BRANCH 38 63
ATOM     63  CB  HIS X   2      -1.051  -0.349  21.713  1.00 28.74 LIG 0.10  C 
BRANCH 63 64
ATOM     64  CG  HIS X   2      -2.357   0.249  21.309  1.00 28.63 LIG 0.06  A 
ATOM     65 ND1  HIS X   2      -3.475  -0.517  21.078  1.00 31.27 LIG-0.24  NA
ATOM     66  CE1 HIS X   2      -4.486   0.269  20.754  1.00 28.11 LIG 0.23  A 
ATOM     67 NE2  HIS X   2      -4.062   1.518  20.756  1.00 29.87 LIG-0.25  NA
ATOM     68  CD2 HIS X   2      -2.732   1.535  21.109  1.00 31.84 LIG 0.14  A 
ENDBRANCH 63 64
ENDBRANCH 38 63
ENDBRANCH 3 38
TORSDOF 24
ENDMDL
MODEL 102
USER: ADFR SOLUTION from run 42
USER: SCORE 18.208040 LL:  -7.104 LR: -13.270 RR:   0.000 FEB:  -6.111
USER: RMSD 6.430308
USER: SEED 41
USER: STATUS no improvement in best in 22 clusters for 5 generations
USER: GENES 26
USER: genes 0 Translation |==|  0.45325 0.52316 0.33509
USER: genes 1 Rotation |==|  0.54060 0.96666 0.66190 0.56607
USER: genes 2 Torsion [N]-C--CA-[N] |==|  0.33635
USER: genes 3 Torsion [C]-CA--N-[C] |==|  0.82694
USER: genes 4 Torsion [N]-C--CA-[N] |==|  0.40545
USER: genes 5 Torsion [C]-CA--N-[C] |==|  0.69581
USER: genes 6 Torsion [N]-C--CA-[N] |==|  0.51719
USER: genes 7 Torsion [C]-CA--N-[H2] |==|  0.62494
USER: genes 8 Torsion [C]-CA--CB-[CG] |==|  0.82791
USER: genes 9 Torsion [CA]-CB--CG-[ND1] |==|  0.75456
USER: genes 10 Torsion [C]-CA--CB-[CG] |==|  0.01812
USER: genes 11 Torsion [CA]-CB--CG-[CD2] |==|  0.26736
USER: genes 12 Torsion [C]-CA--CB-[CG] |==|  0.76834
USER: genes 13 Torsion [CA]-CB--CG-[CD2] |==|  0.22743
USER: genes 14 Torsion [C]-N--CA-[C] |==|  0.46751
USER: genes 15 Torsion [N]-CA--C-[N] |==|  0.10201
USER: genes 16 Torsion [C]-N--CA-[CB] |==|  0.76667
USER: genes 17 Torsion [N]-CA--CB-[CG] |==|  0.08075
USER: genes 18 Torsion [CA]-CB--CG-[ND1] |==|  0.79729
USER: genes 19 Torsion [N]-CA--C-[N] |==|  0.20167
USER: genes 20 Torsion [C]-N--CA-[C] |==|  0.52386
USER: genes 21 Torsion [N]-CA--C-[O] |==|  0.46011
USER: genes 22 Torsion [N]-CA--CB-[CG] |==|  0.17293
USER: genes 23 Torsion [CA]-CB--CG-[ND1] |==|  0.20529
USER: genes 24 Torsion [N]-CA--CB-[CG] |==|  0.64056
USER: genes 25 Torsion [CA]-CB--CG-[CD2] |==|  0.64140
ROOT
ATOM      1  C   HIS X   1       1.683   0.574  16.602  1.00 40.87 LIG 0.24  C 
ATOM      2 O    HIS X   1       2.890   0.340  16.722  1.00 40.80 LIG-0.27  OA
ATOM      3  N   HIS X   2       0.746  -0.349  16.517  1.00 30.16 LIG-0.35  N 
ATOM      4 H    HIS X   2      -0.089  -0.167  16.416  1.00 30.16 LIG 0.16  HD
ENDROOT
BRANCH 1 5
ATOM      5  CA  HIS X   1       1.131   1.982  16.546  1.00 48.06 LIG 0.18  C 
BRANCH 5 6
ATOM      6  N   HIS X   1       1.503   2.703  17.766  1.00 54.11 LIG-0.35  N 
ATOM      7 H    HIS X   1       2.002   3.389  17.628  1.00 54.11 LIG 0.16  HD
ATOM      8  C   HIS X   0       1.103   2.326  18.963  1.00 58.54 LIG 0.24  C 
ATOM      9 O    HIS X   0       0.588   1.231  19.202  1.00 63.37 LIG-0.27  OA
BRANCH 8 10
ATOM     10  CA  HIS X   0       1.329   3.366  20.047  1.00 62.53 LIG 0.18  C 
BRANCH 10 11
ATOM     11  N   HIS X   0       0.277   3.346  21.069  1.00 60.73 LIG-0.35  N 
ATOM     12  C   HIS X  -1      -0.603   4.331  21.162  1.00 60.09 LIG 0.25  C 
ATOM     13 O    HIS X  -1      -0.914   5.058  20.216  1.00 62.79 LIG-0.27  OA
ATOM     14 H    HIS X   0       0.288   2.657  21.582  1.00 60.73 LIG 0.16  HD
BRANCH 12 15
ATOM     15  CA  HIS X  -1      -1.248   4.486  22.534  1.00 59.53 LIG 0.28  C 
BRANCH 15 16
ATOM     16  N   HIS X  -1      -2.328   5.528  22.476  1.00 57.14 LIG-0.07  N 
ATOM     17 H3   HIS X  -1      -2.242   6.004  21.728  1.00 57.14 LIG 0.28  HD
ATOM     18 H2   HIS X  -1      -2.259   6.068  23.180  1.00 57.14 LIG 0.28  HD
ATOM     19 H1   HIS X  -1      -3.125   5.131  22.484  1.00 57.14 LIG 0.28  HD
ENDBRANCH 15 16
BRANCH 15 20
ATOM     20  CB  HIS X  -1      -1.811   3.155  23.035  1.00 57.27 LIG 0.10  C 
BRANCH 20 21
ATOM     21  CG  HIS X  -1      -2.889   2.591  22.168  1.00 54.13 LIG 0.06  A 
ATOM     22 ND1  HIS X  -1      -4.221   2.907  22.337  1.00 52.72 LIG-0.24  NA
ATOM     23  CE1 HIS X  -1      -4.942   2.250  21.445  1.00 54.35 LIG 0.23  A 
ATOM     24 NE2  HIS X  -1      -4.128   1.518  20.704  1.00 53.65 LIG-0.25  NA
ATOM     25  CD2 HIS X  -1      -2.836   1.716  21.135  1.00 55.23 LIG 0.14  A 
ENDBRANCH 20 21
ENDBRANCH 15 20
ENDBRANCH 12 15
ENDBRANCH 10 11
BRANCH 10 26
ATOM     26  CB  HIS X   0       2.731   3.185  20.668  1.00 64.99 LIG 0.10  C 
BRANCH 26 27
ATOM     27  CG  HIS X   0       3.582   2.159  19.975  1.00 69.41 LIG 0.06  A 
ATOM     28 ND1  HIS X   0       3.481   0.807  20.234  1.00 72.01 LIG-0.24  NA
ATOM     29  CE1 HIS X   0       4.342   0.148  19.477  1.00 72.69 LIG 0.23  A 
ATOM     30 NE2  HIS X   0       4.995   1.022  18.733  1.00 72.94 LIG-0.25  NA
ATOM     31  CD2 HIS X   0       4.536   2.287  19.021  1.00 71.12 LIG 0.14  A 
ENDBRANCH 26 27
ENDBRANCH 10 26
ENDBRANCH 8 10
ENDBRANCH 5 6
BRANCH 5 32
ATOM     32  CB  HIS X   1       1.668   2.711  15.316  1.00 48.25 LIG 0.10  C 
BRANCH 32 33
ATOM     33  CG  HIS X   1       3.023   3.314  15.519  1.00 50.36 LIG 0.06  A 
ATOM     34  CD2 HIS X   1       4.260   2.764  15.455  1.00 51.47 LIG 0.14  A 
ATOM     35 NE2  HIS X   1       5.163   3.767  15.716  1.00 50.72 LIG-0.25  NA
ATOM     36  CE1 HIS X   1       4.503   4.892  15.931  1.00 48.50 LIG 0.23  A 
ATOM     37 ND1  HIS X   1       3.210   4.648  15.820  1.00 47.89 LIG-0.24  NA
ENDBRANCH 32 33
ENDBRANCH 5 32
ENDBRANCH 1 5
BRANCH 3 38
ATOM     38  CA  HIS X   2       1.037  -1.799  16.590  1.00 26.25 LIG 0.18  C 
BRANCH 38 39
ATOM     39  C   HIS X   2      -0.220  -2.648  16.753  1.00 23.72 LIG 0.24  C 
ATOM     40  N   HIS X   3      -1.268  -2.194  16.085  1.00 22.33 LIG-0.35  N 
ATOM     41 H    HIS X   3      -1.258  -1.477  15.611  1.00 22.33 LIG 0.16  HD
ATOM     42 O    HIS X   2      -0.249  -3.663  17.465  1.00 19.88 LIG-0.27  OA
BRANCH 40 43
ATOM     43  CA  HIS X   3      -2.564  -2.893  16.096  1.00 22.38 LIG 0.18  C 
BRANCH 43 44
ATOM     44  CB  HIS X   3      -2.652  -4.049  15.051  1.00 22.51 LIG 0.10  C 
BRANCH 44 45
ATOM     45  CG  HIS X   3      -1.348  -4.717  14.715  1.00 18.10 LIG 0.06  A 
ATOM     46  CD2 HIS X   3      -0.879  -5.960  14.984  1.00 18.75 LIG 0.14  A 
ATOM     47 NE2  HIS X   3       0.363  -6.062  14.400  1.00 20.06 LIG-0.25  NA
ATOM     48  CE1 HIS X   3       0.638  -4.928  13.783  1.00 21.69 LIG 0.23  A 
ATOM     49 ND1  HIS X   3      -0.386  -4.107  13.946  1.00 17.48 LIG-0.24  NA
ENDBRANCH 44 45
ENDBRANCH 43 44
BRANCH 43 50
ATOM     50  C   HIS X   3      -2.936  -3.347  17.507  1.00 21.59 LIG 0.24  C 
ATOM     51 O    HIS X   3      -2.946  -4.529  17.828  1.00 25.47 LIG-0.27  OA
ATOM     52  N   HIS X   4      -3.301  -2.383  18.326  1.00 25.63 LIG-0.35  N 
ATOM     53 H    HIS X   4      -3.330  -1.550  18.112  1.00 25.63 LIG 0.16  HD
BRANCH 52 54
ATOM     54  CA  HIS X   4      -3.697  -2.675  19.706  1.00 23.96 LIG 0.17  C 
BRANCH 54 55
ATOM     55  C   HIS X   4      -4.266  -1.394  20.326  1.00 31.35 LIG 0.22  C 
ATOM     56 O    HIS X   4      -4.907  -1.423  21.378  1.00 37.06 LIG-0.29  OA
ENDBRANCH 54 55
BRANCH 54 57
ATOM     57  CB  HIS X   4      -2.527  -3.221  20.533  1.00 23.83 LIG 0.09  C 
BRANCH 57 58
ATOM     58  CG  HIS X   4      -1.377  -2.259  20.677  1.00 22.57 LIG 0.06  A 
ATOM     59 ND1  HIS X   4      -1.421  -1.148  21.499  1.00 22.63 LIG-0.24  NA
ATOM     60  CE1 HIS X   4      -0.270  -0.501  21.422  1.00 19.94 LIG 0.23  A 
ATOM     61 NE2  HIS X   4       0.511  -1.139  20.571  1.00 20.25 LIG-0.25  NA
ATOM     62  CD2 HIS X   4      -0.153  -2.249  20.102  1.00 21.52 LIG 0.14  A 
ENDBRANCH 57 58
ENDBRANCH 54 57
ENDBRANCH 52 54
ENDBRANCH 43 50
ENDBRANCH 40 43
ENDBRANCH 38 39
BRANCH 38 63
ATOM     63  CB  HIS X   2       2.010  -2.104  17.735  1.00 28.74 LIG 0.10  C 
BRANCH 63 64
ATOM     64  CG  HIS X   2       3.179  -2.936  17.324  1.00 28.63 LIG 0.06  A 
ATOM     65 ND1  HIS X   2       3.974  -2.607  16.252  1.00 31.27 LIG-0.24  NA
ATOM     66  CE1 HIS X   2       4.937  -3.502  16.129  1.00 28.11 LIG 0.23  A 
ATOM     67 NE2  HIS X   2       4.791  -4.407  17.078  1.00 29.87 LIG-0.25  NA
ATOM     68  CD2 HIS X   2       3.700  -4.071  17.847  1.00 31.84 LIG 0.14  A 
ENDBRANCH 63 64
ENDBRANCH 38 63
ENDBRANCH 3 38
TORSDOF 24
ENDMDL
MODEL 103
USER: ADFR SOLUTION from run 20
USER: SCORE 18.359792 LL:  -6.634 LR: -13.274 RR:   0.000 FEB:  -6.114
USER: RMSD 10.062500
USER: SEED 19
USER: STATUS no improvement in best in 3 clusters for 5 generations
USER: GENES 26
USER: genes 0 Translation |==|  0.33269 0.49075 0.60172
USER: genes 1 Rotation |==|  0.67565 0.67360 0.11289 0.69788
USER: genes 2 Torsion [N]-C--CA-[N] |==|  0.92741
USER: genes 3 Torsion [C]-CA--N-[C] |==|  0.81418
USER: genes 4 Torsion [N]-C--CA-[N] |==|  0.05069
USER: genes 5 Torsion [C]-CA--N-[C] |==|  0.68443
USER: genes 6 Torsion [N]-C--CA-[N] |==|  0.66742
USER: genes 7 Torsion [C]-CA--N-[H2] |==|  0.33197
USER: genes 8 Torsion [C]-CA--CB-[CG] |==|  0.76368
USER: genes 9 Torsion [CA]-CB--CG-[ND1] |==|  0.78253
USER: genes 10 Torsion [C]-CA--CB-[CG] |==|  0.68563
USER: genes 11 Torsion [CA]-CB--CG-[CD2] |==|  0.66154
USER: genes 12 Torsion [C]-CA--CB-[CG] |==|  0.70391
USER: genes 13 Torsion [CA]-CB--CG-[CD2] |==|  0.68525
USER: genes 14 Torsion [C]-N--CA-[C] |==|  0.19471
USER: genes 15 Torsion [N]-CA--C-[N] |==|  0.00705
USER: genes 16 Torsion [C]-N--CA-[CB] |==|  0.20897
USER: genes 17 Torsion [N]-CA--CB-[CG] |==|  0.69507
USER: genes 18 Torsion [CA]-CB--CG-[ND1] |==|  0.49087
USER: genes 19 Torsion [N]-CA--C-[N] |==|  0.35558
USER: genes 20 Torsion [C]-N--CA-[C] |==|  0.74706
USER: genes 21 Torsion [N]-CA--C-[O] |==|  0.92949
USER: genes 22 Torsion [N]-CA--CB-[CG] |==|  0.75868
USER: genes 23 Torsion [CA]-CB--CG-[ND1] |==|  0.53229
USER: genes 24 Torsion [N]-CA--CB-[CG] |==|  0.72688
USER: genes 25 Torsion [CA]-CB--CG-[CD2] |==|  0.43865
ROOT
ATOM      1  C   HIS X   1      -0.758  -0.204  21.401  1.00 40.87 LIG 0.24  C 
ATOM      2 O    HIS X   1      -0.277   0.151  22.481  1.00 40.80 LIG-0.27  OA
ATOM      3  N   HIS X   2      -1.571   0.528  20.665  1.00 30.16 LIG-0.35  N 
ATOM      4 H    HIS X   2      -1.910   0.256  19.923  1.00 30.16 LIG 0.16  HD
ENDROOT
BRANCH 1 5
ATOM      5  CA  HIS X   1      -0.453  -1.550  20.780  1.00 48.06 LIG 0.18  C 
BRANCH 5 6
ATOM      6  N   HIS X   1      -1.557  -1.946  19.901  1.00 54.11 LIG-0.35  N 
ATOM      7 H    HIS X   1      -1.347  -1.972  19.067  1.00 54.11 LIG 0.16  HD
ATOM      8  C   HIS X   0      -2.758  -2.234  20.357  1.00 58.54 LIG 0.24  C 
ATOM      9 O    HIS X   0      -3.137  -1.982  21.503  1.00 63.37 LIG-0.27  OA
BRANCH 8 10
ATOM     10  CA  HIS X   0      -3.658  -2.914  19.340  1.00 62.53 LIG 0.18  C 
BRANCH 10 11
ATOM     11  N   HIS X   0      -2.902  -3.493  18.223  1.00 60.73 LIG-0.35  N 
ATOM     12  C   HIS X  -1      -3.024  -3.013  16.996  1.00 60.09 LIG 0.25  C 
ATOM     13 O    HIS X  -1      -3.370  -1.856  16.748  1.00 62.79 LIG-0.27  OA
ATOM     14 H    HIS X   0      -2.390  -4.149  18.438  1.00 60.73 LIG 0.16  HD
BRANCH 12 15
ATOM     15  CA  HIS X  -1      -2.663  -3.994  15.886  1.00 59.53 LIG 0.28  C 
BRANCH 15 16
ATOM     16  N   HIS X  -1      -1.527  -3.446  15.070  1.00 57.14 LIG-0.07  N 
ATOM     17 H3   HIS X  -1      -1.784  -3.362  14.222  1.00 57.14 LIG 0.28  HD
ATOM     18 H2   HIS X  -1      -0.834  -4.003  15.115  1.00 57.14 LIG 0.28  HD
ATOM     19 H1   HIS X  -1      -1.289  -2.650  15.389  1.00 57.14 LIG 0.28  HD
ENDBRANCH 15 16
BRANCH 15 20
ATOM     20  CB  HIS X  -1      -2.304  -5.367  16.456  1.00 57.27 LIG 0.10  C 
BRANCH 20 21
ATOM     21  CG  HIS X  -1      -0.876  -5.490  16.879  1.00 54.13 LIG 0.06  A 
ATOM     22 ND1  HIS X  -1       0.151  -5.689  15.982  1.00 52.72 LIG-0.24  NA
ATOM     23  CE1 HIS X  -1       1.295  -5.778  16.640  1.00 54.35 LIG 0.23  A 
ATOM     24 NE2  HIS X  -1       1.046  -5.646  17.931  1.00 53.65 LIG-0.25  NA
ATOM     25  CD2 HIS X  -1      -0.306  -5.463  18.108  1.00 55.23 LIG 0.14  A 
ENDBRANCH 20 21
ENDBRANCH 15 20
ENDBRANCH 12 15
ENDBRANCH 10 11
BRANCH 10 26
ATOM     26  CB  HIS X   0      -4.540  -3.971  20.039  1.00 64.99 LIG 0.10  C 
BRANCH 26 27
ATOM     27  CG  HIS X   0      -4.233  -5.387  19.644  1.00 69.41 LIG 0.06  A 
ATOM     28 ND1  HIS X   0      -2.989  -5.959  19.824  1.00 72.01 LIG-0.24  NA
ATOM     29  CE1 HIS X   0      -3.014  -7.209  19.395  1.00 72.69 LIG 0.23  A 
ATOM     30 NE2  HIS X   0      -4.229  -7.472  18.947  1.00 72.94 LIG-0.25  NA
ATOM     31  CD2 HIS X   0      -5.012  -6.351  19.096  1.00 71.12 LIG 0.14  A 
ENDBRANCH 26 27
ENDBRANCH 10 26
ENDBRANCH 8 10
ENDBRANCH 5 6
BRANCH 5 32
ATOM     32  CB  HIS X   1       0.854  -1.483  19.991  1.00 48.25 LIG 0.10  C 
BRANCH 32 33
ATOM     33  CG  HIS X   1       0.661  -1.488  18.506  1.00 50.36 LIG 0.06  A 
ATOM     34  CD2 HIS X   1       0.994  -2.410  17.570  1.00 51.47 LIG 0.14  A 
ATOM     35 NE2  HIS X   1       0.580  -1.919  16.354  1.00 50.72 LIG-0.25  NA
ATOM     36  CE1 HIS X   1       0.012  -0.740  16.540  1.00 48.50 LIG 0.23  A 
ATOM     37 ND1  HIS X   1       0.048  -0.454  17.828  1.00 47.89 LIG-0.24  NA
ENDBRANCH 32 33
ENDBRANCH 5 32
ENDBRANCH 1 5
BRANCH 3 38
ATOM     38  CA  HIS X   2      -1.983   1.899  21.045  1.00 26.25 LIG 0.18  C 
BRANCH 38 39
ATOM     39  C   HIS X   2      -0.845   2.910  20.938  1.00 23.72 LIG 0.24  C 
ATOM     40  N   HIS X   3       0.286   2.401  20.478  1.00 22.33 LIG-0.35  N 
ATOM     41 H    HIS X   3       0.389   1.573  20.271  1.00 22.33 LIG 0.16  HD
ATOM     42 O    HIS X   2      -0.977   4.097  21.270  1.00 19.88 LIG-0.27  OA
BRANCH 40 43
ATOM     43  CA  HIS X   3       1.489   3.226  20.278  1.00 22.38 LIG 0.18  C 
BRANCH 43 44
ATOM     44  CB  HIS X   3       2.216   3.593  21.610  1.00 22.51 LIG 0.10  C 
BRANCH 44 45
ATOM     45  CG  HIS X   3       2.124   5.036  22.021  1.00 18.10 LIG 0.06  A 
ATOM     46  CD2 HIS X   3       1.505   6.096  21.445  1.00 18.75 LIG 0.14  A 
ATOM     47 NE2  HIS X   3       1.702   7.179  22.271  1.00 20.06 LIG-0.25  NA
ATOM     48  CE1 HIS X   3       2.402   6.793  23.321  1.00 21.69 LIG 0.23  A 
ATOM     49 ND1  HIS X   3       2.654   5.500  23.200  1.00 17.48 LIG-0.24  NA
ENDBRANCH 44 45
ENDBRANCH 43 44
BRANCH 43 50
ATOM     50  C   HIS X   3       2.428   2.596  19.251  1.00 21.59 LIG 0.24  C 
ATOM     51 O    HIS X   3       2.843   1.449  19.366  1.00 25.47 LIG-0.27  OA
ATOM     52  N   HIS X   4       2.803   3.395  18.274  1.00 25.63 LIG-0.35  N 
ATOM     53 H    HIS X   4       2.548   4.212  18.191  1.00 25.63 LIG 0.16  HD
BRANCH 52 54
ATOM     54  CA  HIS X   4       3.713   2.928  17.224  1.00 23.96 LIG 0.17  C 
BRANCH 54 55
ATOM     55  C   HIS X   4       5.150   3.233  17.660  1.00 31.35 LIG 0.22  C 
ATOM     56 O    HIS X   4       5.398   4.147  18.448  1.00 37.06 LIG-0.29  OA
ENDBRANCH 54 55
BRANCH 54 57
ATOM     57  CB  HIS X   4       3.395   3.566  15.866  1.00 23.83 LIG 0.09  C 
BRANCH 57 58
ATOM     58  CG  HIS X   4       2.352   2.825  15.071  1.00 22.57 LIG 0.06  A 
ATOM     59 ND1  HIS X   4       2.088   3.090  13.740  1.00 22.63 LIG-0.24  NA
ATOM     60  CE1 HIS X   4       1.132   2.282  13.314  1.00 19.94 LIG 0.23  A 
ATOM     61 NE2  HIS X   4       0.755   1.516  14.320  1.00 20.25 LIG-0.25  NA
ATOM     62  CD2 HIS X   4       1.512   1.826  15.425  1.00 21.52 LIG 0.14  A 
ENDBRANCH 57 58
ENDBRANCH 54 57
ENDBRANCH 52 54
ENDBRANCH 43 50
ENDBRANCH 40 43
ENDBRANCH 38 39
BRANCH 38 63
ATOM     63  CB  HIS X   2      -2.554   1.924  22.467  1.00 28.74 LIG 0.10  C 
BRANCH 63 64
ATOM     64  CG  HIS X   2      -4.045   1.893  22.517  1.00 28.63 LIG 0.06  A 
ATOM     65 ND1  HIS X   2      -4.824   2.268  21.447  1.00 31.27 LIG-0.24  NA
ATOM     66  CE1 HIS X   2      -6.098   2.126  21.761  1.00 28.11 LIG 0.23  A 
ATOM     67 NE2  HIS X   2      -6.177   1.682  23.000  1.00 29.87 LIG-0.25  NA
ATOM     68  CD2 HIS X   2      -4.904   1.519  23.495  1.00 31.84 LIG 0.14  A 
ENDBRANCH 63 64
ENDBRANCH 38 63
ENDBRANCH 3 38
TORSDOF 24
ENDMDL
