MODEL 1
USER: ADFR SOLUTION from run 37
USER: SCORE 8.015734 LL:  -0.771 LR:  -7.886 RR:   0.000 FEB:  -6.097
USER: RMSD 6.076852
USER: SEED 36
USER: STATUS no improvement in best in 29 clusters for 5 generations
USER: GENES 8
USER: genes 0 Translation |==|  0.46787 0.38959 0.48355
USER: genes 1 Rotation |==|  0.36106 0.89558 0.77088 0.52901
USER: genes 2 Torsion [C]-N--CA-[C] |==|  0.28170
USER: genes 3 Torsion [N]-CA--C-[N] |==|  0.80625
USER: genes 4 Torsion [C]-N--CA-[C] |==|  0.48018
USER: genes 5 Torsion [N]-CA--C-[O] |==|  0.70680
USER: genes 6 Torsion [N]-C--CA-[N] |==|  0.14006
USER: genes 7 Torsion [C]-CA--N-[H2] |==|  0.82708
ROOT
ATOM      1  C   GLY G   1      25.302 -18.213  17.934  1.00 43.90 LIG 0.24  C 
ATOM      2 O    GLY G   1      24.731 -19.223  18.352  1.00 43.93 LIG-0.27  OA
ATOM      3  N   GLY G   2      24.832 -17.442  16.950  1.00 44.62 LIG-0.35  N 
ATOM      4 H    GLY G   2      25.294 -16.828  16.564  1.00 44.62 LIG 0.16  HD
ENDROOT
BRANCH 3 5
ATOM      5  CA  GLY G   2      23.480 -17.578  16.440  1.00 45.53 LIG 0.23  C 
BRANCH 5 6
ATOM      6  C   GLY G   2      22.527 -16.535  16.960  1.00 46.02 LIG 0.23  C 
ATOM      7 O    GLY G   2      22.073 -15.680  16.201  1.00 47.02 LIG-0.27  OA
ATOM      8  N   GLY G   3      22.204 -16.630  18.250  1.00 46.62 LIG-0.35  N 
ATOM      9 H    GLY G   3      22.481 -17.262  18.763  1.00 46.62 LIG 0.16  HD
BRANCH 8 10
ATOM     10  CA  GLY G   3      21.344 -15.659  18.917  1.00 46.72 LIG 0.21  C 
BRANCH 10 11
ATOM     11  C   GLY G   3      20.955 -16.029  20.338  1.00 46.79 LIG 0.21  C 
ATOM     12 O    GLY G   3      19.824 -16.430  20.597  1.00 46.39 LIG-0.29  OA
ENDBRANCH 10 11
ENDBRANCH 8 10
ENDBRANCH 5 6
ENDBRANCH 3 5
BRANCH 1 13
ATOM     13  CA  GLY G   1      26.607 -17.767  18.543  1.00 43.33 LIG 0.33  C 
BRANCH 13 14
ATOM     14  N   GLY G   1      26.506 -16.335  18.904  1.00 42.49 LIG-0.07  N 
ATOM     15 H2   GLY G   1      26.370 -15.852  18.169  1.00 42.49 LIG 0.27  HD
ATOM     16 H3   GLY G   1      25.827 -16.217  19.466  1.00 42.49 LIG 0.27  HD
ATOM     17 H1   GLY G   1      27.263 -16.073  19.294  1.00 42.49 LIG 0.27  HD
ENDBRANCH 13 14
ENDBRANCH 1 13
TORSDOF 6
ENDMDL
MODEL 2
USER: ADFR SOLUTION from run 62
USER: SCORE 8.196518 LL:  -0.775 LR:  -7.871 RR:   0.000 FEB:  -6.082
USER: RMSD 9.616796
USER: SEED 61
USER: STATUS no improvement in best in 27 clusters for 5 generations
USER: GENES 8
USER: genes 0 Translation |==|  0.21733 0.55863 0.69185
USER: genes 1 Rotation |==|  0.59072 0.51191 0.99144 0.51058
USER: genes 2 Torsion [C]-N--CA-[C] |==|  0.69546
USER: genes 3 Torsion [N]-CA--C-[N] |==|  0.12219
USER: genes 4 Torsion [C]-N--CA-[C] |==|  0.20360
USER: genes 5 Torsion [N]-CA--C-[O] |==|  0.59901
USER: genes 6 Torsion [N]-C--CA-[N] |==|  0.09447
USER: genes 7 Torsion [C]-CA--N-[H2] |==|  0.29305
ROOT
ATOM      1  C   GLY G   1      20.980 -16.058  20.902  1.00 43.90 LIG 0.24  C 
ATOM      2 O    GLY G   1      19.980 -16.430  20.284  1.00 43.93 LIG-0.27  OA
ATOM      3  N   GLY G   2      20.958 -15.611  22.159  1.00 44.62 LIG-0.35  N 
ATOM      4 H    GLY G   2      21.624 -15.220  22.538  1.00 44.62 LIG 0.16  HD
ENDROOT
BRANCH 3 5
ATOM      5  CA  GLY G   2      19.790 -15.751  23.010  1.00 45.53 LIG 0.23  C 
BRANCH 5 6
ATOM      6  C   GLY G   2      19.087 -14.451  23.296  1.00 46.02 LIG 0.23  C 
ATOM      7 O    GLY G   2      18.731 -14.180  24.441  1.00 47.02 LIG-0.27  OA
ATOM      8  N   GLY G   3      18.919 -13.637  22.254  1.00 46.62 LIG-0.35  N 
ATOM      9 H    GLY G   3      19.220 -13.806  21.465  1.00 46.62 LIG 0.16  HD
BRANCH 8 10
ATOM     10  CA  GLY G   3      18.202 -12.370  22.354  1.00 46.72 LIG 0.21  C 
BRANCH 10 11
ATOM     11  C   GLY G   3      18.957 -11.272  23.083  1.00 46.79 LIG 0.21  C 
ATOM     12 O    GLY G   3      18.364 -10.465  23.793  1.00 46.39 LIG-0.29  OA
ENDBRANCH 10 11
ENDBRANCH 8 10
ENDBRANCH 5 6
ENDBRANCH 3 5
BRANCH 1 13
ATOM     13  CA  GLY G   1      22.339 -16.100  20.250  1.00 43.33 LIG 0.33  C 
BRANCH 13 14
ATOM     14  N   GLY G   1      23.355 -16.430  21.274  1.00 42.49 LIG-0.07  N 
ATOM     15 H2   GLY G   1      23.621 -17.273  21.168  1.00 42.49 LIG 0.27  HD
ATOM     16 H3   GLY G   1      24.053 -15.886  21.185  1.00 42.49 LIG 0.27  HD
ATOM     17 H1   GLY G   1      23.003 -16.330  22.086  1.00 42.49 LIG 0.27  HD
ENDBRANCH 13 14
ENDBRANCH 1 13
TORSDOF 6
ENDMDL
MODEL 3
USER: ADFR SOLUTION from run 14
USER: SCORE 7.946241 LL:  -0.694 LR:  -7.723 RR:   0.000 FEB:  -5.934
USER: RMSD 6.278055
USER: SEED 462679
USER: STATUS no improvement in best in 34 clusters for 5 generations
USER: GENES 8
USER: genes 0 Translation |==|  0.70423 0.35689 0.54781
USER: genes 1 Rotation |==|  0.21162 0.40052 0.89043 0.56710
USER: genes 2 Torsion [C]-N--CA-[C] |==|  0.42991
USER: genes 3 Torsion [N]-CA--C-[N] |==|  0.39825
USER: genes 4 Torsion [C]-N--CA-[C] |==|  0.61223
USER: genes 5 Torsion [N]-CA--C-[O] |==|  0.65561
USER: genes 6 Torsion [N]-C--CA-[N] |==|  0.81548
USER: genes 7 Torsion [C]-CA--N-[H2] |==|  0.60425
ROOT
ATOM      1  C   GLY G   1      29.379 -18.630  18.849  1.00 43.90 LIG 0.24  C 
ATOM      2 O    GLY G   1      30.084 -18.505  17.845  1.00 43.93 LIG-0.27  OA
ATOM      3  N   GLY G   2      28.096 -18.266  18.911  1.00 44.62 LIG-0.35  N 
ATOM      4 H    GLY G   2      27.649 -18.219  19.645  1.00 44.62 LIG 0.16  HD
ENDROOT
BRANCH 3 5
ATOM      5  CA  GLY G   2      27.334 -17.914  17.727  1.00 45.53 LIG 0.23  C 
BRANCH 5 6
ATOM      6  C   GLY G   2      25.850 -18.116  17.877  1.00 46.02 LIG 0.23  C 
ATOM      7 O    GLY G   2      25.419 -19.055  18.544  1.00 47.02 LIG-0.27  OA
ATOM      8  N   GLY G   3      25.074 -17.213  17.278  1.00 46.62 LIG-0.35  N 
ATOM      9 H    GLY G   3      25.381 -16.527  16.859  1.00 46.62 LIG 0.16  HD
BRANCH 8 10
ATOM     10  CA  GLY G   3      23.618 -17.306  17.277  1.00 46.72 LIG 0.21  C 
BRANCH 10 11
ATOM     11  C   GLY G   3      22.961 -16.934  15.958  1.00 46.79 LIG 0.21  C 
ATOM     12 O    GLY G   3      22.106 -16.055  15.908  1.00 46.39 LIG-0.29  OA
ENDBRANCH 10 11
ENDBRANCH 8 10
ENDBRANCH 5 6
ENDBRANCH 3 5
BRANCH 1 13
ATOM     13  CA  GLY G   1      29.945 -19.236  20.108  1.00 43.33 LIG 0.33  C 
BRANCH 13 14
ATOM     14  N   GLY G   1      29.981 -18.203  21.168  1.00 42.49 LIG-0.07  N 
ATOM     15 H2   GLY G   1      30.717 -18.305  21.657  1.00 42.49 LIG 0.27  HD
ATOM     16 H3   GLY G   1      29.981 -17.396  20.795  1.00 42.49 LIG 0.27  HD
ATOM     17 H1   GLY G   1      29.265 -18.289  21.690  1.00 42.49 LIG 0.27  HD
ENDBRANCH 13 14
ENDBRANCH 1 13
TORSDOF 6
ENDMDL
MODEL 4
USER: ADFR SOLUTION from run 119
USER: SCORE 8.175358 LL:  -0.727 LR:  -7.687 RR:   0.000 FEB:  -5.897
USER: RMSD 5.963298
USER: SEED 118
USER: STATUS no improvement in best in 24 clusters for 5 generations
USER: GENES 8
USER: genes 0 Translation |==|  0.42512 0.44376 0.25831
USER: genes 1 Rotation |==|  0.55353 0.22482 0.64827 0.88656
USER: genes 2 Torsion [C]-N--CA-[C] |==|  0.21667
USER: genes 3 Torsion [N]-CA--C-[N] |==|  0.42943
USER: genes 4 Torsion [C]-N--CA-[C] |==|  0.48502
USER: genes 5 Torsion [N]-CA--C-[O] |==|  0.73301
USER: genes 6 Torsion [N]-C--CA-[N] |==|  0.88958
USER: genes 7 Torsion [C]-CA--N-[H2] |==|  0.92118
ROOT
ATOM      1  C   GLY G   1      24.564 -17.522  14.724  1.00 43.90 LIG 0.24  C 
ATOM      2 O    GLY G   1      25.250 -16.521  14.947  1.00 43.93 LIG-0.27  OA
ATOM      3  N   GLY G   2      23.956 -18.238  15.672  1.00 44.62 LIG-0.35  N 
ATOM      4 H    GLY G   2      23.602 -19.010  15.533  1.00 44.62 LIG 0.16  HD
ENDROOT
BRANCH 3 5
ATOM      5  CA  GLY G   2      23.839 -17.769  17.040  1.00 45.53 LIG 0.23  C 
BRANCH 5 6
ATOM      6  C   GLY G   2      22.758 -16.740  17.239  1.00 46.02 LIG 0.23  C 
ATOM      7 O    GLY G   2      22.376 -16.055  16.293  1.00 47.02 LIG-0.27  OA
ATOM      8  N   GLY G   3      22.248 -16.660  18.468  1.00 46.62 LIG-0.35  N 
ATOM      9 H    GLY G   3      22.479 -17.180  19.113  1.00 46.62 LIG 0.16  HD
BRANCH 8 10
ATOM     10  CA  GLY G   3      21.239 -15.672  18.837  1.00 46.72 LIG 0.21  C 
BRANCH 10 11
ATOM     11  C   GLY G   3      20.691 -15.823  20.245  1.00 46.79 LIG 0.21  C 
ATOM     12 O    GLY G   3      19.644 -16.430  20.451  1.00 46.39 LIG-0.29  OA
ENDBRANCH 10 11
ENDBRANCH 8 10
ENDBRANCH 5 6
ENDBRANCH 3 5
BRANCH 1 13
ATOM     13  CA  GLY G   1      24.356 -18.003  13.310  1.00 43.33 LIG 0.33  C 
BRANCH 13 14
ATOM     14  N   GLY G   1      24.399 -19.483  13.293  1.00 42.49 LIG-0.07  N 
ATOM     15 H2   GLY G   1      24.916 -19.772  13.956  1.00 42.49 LIG 0.27  HD
ATOM     16 H3   GLY G   1      23.576 -19.805  13.396  1.00 42.49 LIG 0.27  HD
ATOM     17 H1   GLY G   1      24.731 -19.761  12.515  1.00 42.49 LIG 0.27  HD
ENDBRANCH 13 14
ENDBRANCH 1 13
TORSDOF 6
ENDMDL
MODEL 5
USER: ADFR SOLUTION from run 146
USER: SCORE 7.939827 LL:  -0.883 LR:  -7.649 RR:   0.000 FEB:  -5.859
USER: RMSD 6.040949
USER: SEED 145
USER: STATUS no improvement in best in 31 clusters for 5 generations
USER: GENES 8
USER: genes 0 Translation |==|  0.56444 0.26550 0.22412
USER: genes 1 Rotation |==|  0.34169 0.21564 0.56982 0.87310
USER: genes 2 Torsion [C]-N--CA-[C] |==|  0.51403
USER: genes 3 Torsion [N]-CA--C-[N] |==|  0.63006
USER: genes 4 Torsion [C]-N--CA-[C] |==|  0.67557
USER: genes 5 Torsion [N]-CA--C-[O] |==|  0.04606
USER: genes 6 Torsion [N]-C--CA-[N] |==|  0.54075
USER: genes 7 Torsion [C]-CA--N-[H2] |==|  0.68450
ROOT
ATOM      1  C   GLY G   1      26.968 -19.795  14.237  1.00 43.90 LIG 0.24  C 
ATOM      2 O    GLY G   1      28.132 -19.415  14.386  1.00 43.93 LIG-0.27  OA
ATOM      3  N   GLY G   2      25.956 -19.431  15.027  1.00 44.62 LIG-0.35  N 
ATOM      4 H    GLY G   2      25.181 -19.804  15.012  1.00 44.62 LIG 0.16  HD
ENDROOT
BRANCH 3 5
ATOM      5  CA  GLY G   2      26.078 -18.357  15.996  1.00 45.53 LIG 0.23  C 
BRANCH 5 6
ATOM      6  C   GLY G   2      24.865 -18.184  16.869  1.00 46.02 LIG 0.23  C 
ATOM      7 O    GLY G   2      24.356 -19.159  17.419  1.00 47.02 LIG-0.27  OA
ATOM      8  N   GLY G   3      24.425 -16.935  17.017  1.00 46.62 LIG-0.35  N 
ATOM      9 H    GLY G   3      24.818 -16.250  16.675  1.00 46.62 LIG 0.16  HD
BRANCH 8 10
ATOM     10  CA  GLY G   3      23.224 -16.610  17.779  1.00 46.72 LIG 0.21  C 
BRANCH 10 11
ATOM     11  C   GLY G   3      22.106 -15.984  16.962  1.00 46.79 LIG 0.21  C 
ATOM     12 O    GLY G   3      22.107 -16.055  15.736  1.00 46.39 LIG-0.29  OA
ENDBRANCH 10 11
ENDBRANCH 8 10
ENDBRANCH 5 6
ENDBRANCH 3 5
BRANCH 1 13
ATOM     13  CA  GLY G   1      26.606 -20.717  13.100  1.00 43.33 LIG 0.33  C 
BRANCH 13 14
ATOM     14  N   GLY G   1      27.845 -21.305  12.543  1.00 42.49 LIG-0.07  N 
ATOM     15 H2   GLY G   1      27.968 -21.007  11.714  1.00 42.49 LIG 0.27  HD
ATOM     16 H3   GLY G   1      28.538 -21.070  13.049  1.00 42.49 LIG 0.27  HD
ATOM     17 H1   GLY G   1      27.774 -22.193  12.532  1.00 42.49 LIG 0.27  HD
ENDBRANCH 13 14
ENDBRANCH 1 13
TORSDOF 6
ENDMDL
MODEL 6
USER: ADFR SOLUTION from run 86
USER: SCORE 8.010205 LL:  -0.844 LR:  -7.509 RR:   0.000 FEB:  -5.719
USER: RMSD 6.068782
USER: SEED 85
USER: STATUS no improvement in best in 30 clusters for 5 generations
USER: GENES 8
USER: genes 0 Translation |==|  0.41336 0.41269 0.42888
USER: genes 1 Rotation |==|  0.29210 0.28063 0.16630 0.71748
USER: genes 2 Torsion [C]-N--CA-[C] |==|  0.60514
USER: genes 3 Torsion [N]-CA--C-[N] |==|  0.45000
USER: genes 4 Torsion [C]-N--CA-[C] |==|  0.30014
USER: genes 5 Torsion [N]-CA--C-[O] |==|  0.83296
USER: genes 6 Torsion [N]-C--CA-[N] |==|  0.62848
USER: genes 7 Torsion [C]-CA--N-[H2] |==|  0.03562
ROOT
ATOM      1  C   GLY G   1      24.361 -17.918  17.155  1.00 43.90 LIG 0.24  C 
ATOM      2 O    GLY G   1      24.356 -19.055  17.633  1.00 43.93 LIG-0.27  OA
ATOM      3  N   GLY G   2      24.076 -16.814  17.848  1.00 44.62 LIG-0.35  N 
ATOM      4 H    GLY G   2      23.939 -16.046  17.486  1.00 44.62 LIG 0.16  HD
ENDROOT
BRANCH 3 5
ATOM      5  CA  GLY G   2      23.969 -16.816  19.296  1.00 45.53 LIG 0.23  C 
BRANCH 5 6
ATOM      6  C   GLY G   2      22.876 -15.928  19.826  1.00 46.02 LIG 0.23  C 
ATOM      7 O    GLY G   2      22.377 -15.066  19.105  1.00 47.02 LIG-0.27  OA
ATOM      8  N   GLY G   3      22.488 -16.165  21.079  1.00 46.62 LIG-0.35  N 
ATOM      9 H    GLY G   3      22.802 -16.805  21.560  1.00 46.62 LIG 0.16  HD
BRANCH 8 10
ATOM     10  CA  GLY G   3      21.485 -15.351  21.757  1.00 46.72 LIG 0.21  C 
BRANCH 10 11
ATOM     11  C   GLY G   3      20.144 -16.036  21.958  1.00 46.79 LIG 0.21  C 
ATOM     12 O    GLY G   3      19.489 -16.430  20.998  1.00 46.39 LIG-0.29  OA
ENDBRANCH 10 11
ENDBRANCH 8 10
ENDBRANCH 5 6
ENDBRANCH 3 5
BRANCH 1 13
ATOM     13  CA  GLY G   1      24.718 -17.703  15.706  1.00 43.33 LIG 0.33  C 
BRANCH 13 14
ATOM     14  N   GLY G   1      23.978 -18.680  14.876  1.00 42.49 LIG-0.07  N 
ATOM     15 H2   GLY G   1      23.343 -19.065  15.366  1.00 42.49 LIG 0.27  HD
ATOM     16 H3   GLY G   1      23.606 -18.261  14.185  1.00 42.49 LIG 0.27  HD
ATOM     17 H1   GLY G   1      24.541 -19.303  14.578  1.00 42.49 LIG 0.27  HD
ENDBRANCH 13 14
ENDBRANCH 1 13
TORSDOF 6
ENDMDL
MODEL 7
USER: ADFR SOLUTION from run 140
USER: SCORE 8.136539 LL:  -0.884 LR:  -7.497 RR:   0.000 FEB:  -5.708
USER: RMSD 6.272549
USER: SEED 139
USER: STATUS no improvement in best in 24 clusters for 5 generations
USER: GENES 8
USER: genes 0 Translation |==|  0.35394 0.55258 0.37808
USER: genes 1 Rotation |==|  0.72246 0.40201 0.93385 0.55183
USER: genes 2 Torsion [C]-N--CA-[C] |==|  0.85856
USER: genes 3 Torsion [N]-CA--C-[N] |==|  0.34025
USER: genes 4 Torsion [C]-N--CA-[C] |==|  0.73096
USER: genes 5 Torsion [N]-CA--C-[O] |==|  0.83050
USER: genes 6 Torsion [N]-C--CA-[N] |==|  0.52184
USER: genes 7 Torsion [C]-CA--N-[H2] |==|  0.88785
ROOT
ATOM      1  C   GLY G   1      23.337 -16.135  16.431  1.00 43.90 LIG 0.24  C 
ATOM      2 O    GLY G   1      22.106 -16.055  16.403  1.00 43.93 LIG-0.27  OA
ATOM      3  N   GLY G   2      24.050 -16.304  17.546  1.00 44.62 LIG-0.35  N 
ATOM      4 H    GLY G   2      24.905 -16.216  17.584  1.00 44.62 LIG 0.16  HD
ENDROOT
BRANCH 3 5
ATOM      5  CA  GLY G   2      23.433 -16.659  18.812  1.00 45.53 LIG 0.23  C 
BRANCH 5 6
ATOM      6  C   GLY G   2      22.278 -15.773  19.194  1.00 46.02 LIG 0.23  C 
ATOM      7 O    GLY G   2      22.432 -14.556  19.273  1.00 47.02 LIG-0.27  OA
ATOM      8  N   GLY G   3      21.114 -16.390  19.401  1.00 46.62 LIG-0.35  N 
ATOM      9 H    GLY G   3      20.998 -17.235  19.291  1.00 46.62 LIG 0.16  HD
BRANCH 8 10
ATOM     10  CA  GLY G   3      19.917 -15.680  19.839  1.00 46.72 LIG 0.21  C 
BRANCH 10 11
ATOM     11  C   GLY G   3      19.662 -15.733  21.336  1.00 46.79 LIG 0.21  C 
ATOM     12 O    GLY G   3      19.481 -16.805  21.905  1.00 46.39 LIG-0.29  OA
ENDBRANCH 10 11
ENDBRANCH 8 10
ENDBRANCH 5 6
ENDBRANCH 3 5
BRANCH 1 13
ATOM     13  CA  GLY G   1      24.134 -16.055  15.154  1.00 43.33 LIG 0.33  C 
BRANCH 13 14
ATOM     14  N   GLY G   1      23.231 -15.679  14.043  1.00 42.49 LIG-0.07  N 
ATOM     15 H2   GLY G   1      22.457 -16.109  14.132  1.00 42.49 LIG 0.27  HD
ATOM     16 H3   GLY G   1      23.087 -14.802  14.062  1.00 42.49 LIG 0.27  HD
ATOM     17 H1   GLY G   1      23.606 -15.902  13.267  1.00 42.49 LIG 0.27  HD
ENDBRANCH 13 14
ENDBRANCH 1 13
TORSDOF 6
ENDMDL
MODEL 8
USER: ADFR SOLUTION from run 161
USER: SCORE 7.822632 LL:  -0.811 LR:  -7.502 RR:   0.000 FEB:  -5.712
USER: RMSD 5.538586
USER: SEED 160
USER: STATUS no improvement in best in 27 clusters for 5 generations
USER: GENES 8
USER: genes 0 Translation |==|  0.24815 0.56969 0.67289
USER: genes 1 Rotation |==|  0.35426 0.91886 0.60832 0.70392
USER: genes 2 Torsion [C]-N--CA-[C] |==|  0.59633
USER: genes 3 Torsion [N]-CA--C-[N] |==|  0.02425
USER: genes 4 Torsion [C]-N--CA-[C] |==|  0.69173
USER: genes 5 Torsion [N]-CA--C-[O] |==|  0.97102
USER: genes 6 Torsion [N]-C--CA-[N] |==|  0.86570
USER: genes 7 Torsion [C]-CA--N-[H2] |==|  0.87751
ROOT
ATOM      1  C   GLY G   1      21.512 -15.916  20.632  1.00 43.90 LIG 0.24  C 
ATOM      2 O    GLY G   1      20.391 -16.430  20.660  1.00 43.93 LIG-0.27  OA
ATOM      3  N   GLY G   2      22.177 -15.635  19.509  1.00 44.62 LIG-0.35  N 
ATOM      4 H    GLY G   2      23.008 -15.414  19.490  1.00 44.62 LIG 0.16  HD
ENDROOT
BRANCH 3 5
ATOM      5  CA  GLY G   2      21.545 -15.680  18.203  1.00 45.53 LIG 0.23  C 
BRANCH 5 6
ATOM      6  C   GLY G   2      22.457 -16.149  17.102  1.00 46.02 LIG 0.23  C 
ATOM      7 O    GLY G   2      22.106 -16.055  15.927  1.00 47.02 LIG-0.27  OA
ATOM      8  N   GLY G   3      23.640 -16.626  17.488  1.00 46.62 LIG-0.35  N 
ATOM      9 H    GLY G   3      23.903 -16.638  18.307  1.00 46.62 LIG 0.16  HD
BRANCH 8 10
ATOM     10  CA  GLY G   3      24.609 -17.177  16.547  1.00 46.72 LIG 0.21  C 
BRANCH 10 11
ATOM     11  C   GLY G   3      24.820 -18.677  16.662  1.00 46.79 LIG 0.21  C 
ATOM     12 O    GLY G   3      24.356 -19.307  17.608  1.00 46.39 LIG-0.29  OA
ENDBRANCH 10 11
ENDBRANCH 8 10
ENDBRANCH 5 6
ENDBRANCH 3 5
BRANCH 1 13
ATOM     13  CA  GLY G   1      22.215 -15.551  21.914  1.00 43.33 LIG 0.33  C 
BRANCH 13 14
ATOM     14  N   GLY G   1      23.606 -16.055  21.862  1.00 42.49 LIG-0.07  N 
ATOM     15 H2   GLY G   1      23.609 -16.885  21.541  1.00 42.49 LIG 0.27  HD
ATOM     16 H3   GLY G   1      24.092 -15.531  21.333  1.00 42.49 LIG 0.27  HD
ATOM     17 H1   GLY G   1      23.953 -16.053  22.682  1.00 42.49 LIG 0.27  HD
ENDBRANCH 13 14
ENDBRANCH 1 13
TORSDOF 6
ENDMDL
MODEL 9
USER: ADFR SOLUTION from run 22
USER: SCORE 7.964715 LL:  -0.743 LR:  -7.467 RR:   0.000 FEB:  -5.677
USER: RMSD 5.576599
USER: SEED 21
USER: STATUS no improvement in best in 35 clusters for 5 generations
USER: GENES 8
USER: genes 0 Translation |==|  0.23613 0.70668 0.67834
USER: genes 1 Rotation |==|  0.97381 0.45474 0.46819 0.64982
USER: genes 2 Torsion [C]-N--CA-[C] |==|  0.48422
USER: genes 3 Torsion [N]-CA--C-[N] |==|  0.50361
USER: genes 4 Torsion [C]-N--CA-[C] |==|  0.67966
USER: genes 5 Torsion [N]-CA--C-[O] |==|  0.00645
USER: genes 6 Torsion [N]-C--CA-[N] |==|  0.01745
USER: genes 7 Torsion [C]-CA--N-[H2] |==|  0.36169
ROOT
ATOM      1  C   GLY G   1      21.304 -14.170  20.709  1.00 43.90 LIG 0.24  C 
ATOM      2 O    GLY G   1      22.099 -14.086  21.649  1.00 43.93 LIG-0.27  OA
ATOM      3  N   GLY G   2      21.626 -14.628  19.498  1.00 44.62 LIG-0.35  N 
ATOM      4 H    GLY G   2      21.116 -14.553  18.809  1.00 44.62 LIG 0.16  HD
ENDROOT
BRANCH 3 5
ATOM      5  CA  GLY G   2      22.883 -15.305  19.235  1.00 45.53 LIG 0.23  C 
BRANCH 5 6
ATOM      6  C   GLY G   2      22.994 -15.862  17.841  1.00 46.02 LIG 0.23  C 
ATOM      7 O    GLY G   2      22.089 -15.679  17.030  1.00 47.02 LIG-0.27  OA
ATOM      8  N   GLY G   3      24.121 -16.516  17.562  1.00 46.62 LIG-0.35  N 
ATOM      9 H    GLY G   3      24.775 -16.594  18.117  1.00 46.62 LIG 0.16  HD
BRANCH 8 10
ATOM     10  CA  GLY G   3      24.353 -17.168  16.278  1.00 46.72 LIG 0.21  C 
BRANCH 10 11
ATOM     11  C   GLY G   3      24.486 -18.680  16.351  1.00 46.79 LIG 0.21  C 
ATOM     12 O    GLY G   3      24.356 -19.272  17.418  1.00 46.39 LIG-0.29  OA
ENDBRANCH 10 11
ENDBRANCH 8 10
ENDBRANCH 5 6
ENDBRANCH 3 5
BRANCH 1 13
ATOM     13  CA  GLY G   1      19.866 -13.755  20.888  1.00 43.33 LIG 0.33  C 
BRANCH 13 14
ATOM     14  N   GLY G   1      19.106 -14.112  19.668  1.00 42.49 LIG-0.07  N 
ATOM     15 H2   GLY G   1      18.369 -14.555  19.897  1.00 42.49 LIG 0.27  HD
ATOM     16 H3   GLY G   1      18.883 -13.370  19.230  1.00 42.49 LIG 0.27  HD
ATOM     17 H1   GLY G   1      19.610 -14.626  19.144  1.00 42.49 LIG 0.27  HD
ENDBRANCH 13 14
ENDBRANCH 1 13
TORSDOF 6
ENDMDL
MODEL 10
USER: ADFR SOLUTION from run 35
USER: SCORE 8.206866 LL:  -0.859 LR:  -7.433 RR:   0.000 FEB:  -5.643
USER: RMSD 8.677205
USER: SEED 34
USER: STATUS no improvement in best in 30 clusters for 5 generations
USER: GENES 8
USER: genes 0 Translation |==|  0.24205 0.61030 0.69251
USER: genes 1 Rotation |==|  0.52260 0.31034 0.93913 0.64380
USER: genes 2 Torsion [C]-N--CA-[C] |==|  0.79974
USER: genes 3 Torsion [N]-CA--C-[N] |==|  0.90000
USER: genes 4 Torsion [C]-N--CA-[C] |==|  0.48076
USER: genes 5 Torsion [N]-CA--C-[O] |==|  0.98221
USER: genes 6 Torsion [N]-C--CA-[N] |==|  0.91060
USER: genes 7 Torsion [C]-CA--N-[H2] |==|  0.01911
ROOT
ATOM      1  C   GLY G   1      21.406 -15.399  20.911  1.00 43.90 LIG 0.24  C 
ATOM      2 O    GLY G   1      20.761 -14.617  20.209  1.00 43.93 LIG-0.27  OA
ATOM      3  N   GLY G   2      21.038 -15.781  22.136  1.00 44.62 LIG-0.35  N 
ATOM      4 H    GLY G   2      21.553 -16.207  22.677  1.00 44.62 LIG 0.16  HD
ENDROOT
BRANCH 3 5
ATOM      5  CA  GLY G   2      19.715 -15.507  22.667  1.00 45.53 LIG 0.23  C 
BRANCH 5 6
ATOM      6  C   GLY G   2      19.486 -14.060  23.013  1.00 46.02 LIG 0.23  C 
ATOM      7 O    GLY G   2      18.376 -13.557  22.858  1.00 47.02 LIG-0.27  OA
ATOM      8  N   GLY G   3      20.536 -13.407  23.510  1.00 46.62 LIG-0.35  N 
ATOM      9 H    GLY G   3      21.295 -13.779  23.669  1.00 46.62 LIG 0.16  HD
BRANCH 8 10
ATOM     10  CA  GLY G   3      20.493 -11.985  23.835  1.00 46.72 LIG 0.21  C 
BRANCH 10 11
ATOM     11  C   GLY G   3      21.731 -11.460  24.543  1.00 46.79 LIG 0.21  C 
ATOM     12 O    GLY G   3      22.619 -12.225  24.907  1.00 46.39 LIG-0.29  OA
ENDBRANCH 10 11
ENDBRANCH 8 10
ENDBRANCH 5 6
ENDBRANCH 3 5
BRANCH 1 13
ATOM     13  CA  GLY G   1      22.692 -15.999  20.401  1.00 43.33 LIG 0.33  C 
BRANCH 13 14
ATOM     14  N   GLY G   1      23.606 -16.225  21.543  1.00 42.49 LIG-0.07  N 
ATOM     15 H2   GLY G   1      23.177 -16.055  22.304  1.00 42.49 LIG 0.27  HD
ATOM     16 H3   GLY G   1      23.882 -17.071  21.540  1.00 42.49 LIG 0.27  HD
ATOM     17 H1   GLY G   1      24.309 -15.684  21.472  1.00 42.49 LIG 0.27  HD
ENDBRANCH 13 14
ENDBRANCH 1 13
TORSDOF 6
ENDMDL
MODEL 11
USER: ADFR SOLUTION from run 106
USER: SCORE 7.900013 LL:  -0.718 LR:  -7.426 RR:   0.000 FEB:  -5.636
USER: RMSD 6.416230
USER: SEED 105
USER: STATUS no improvement in best in 22 clusters for 5 generations
USER: GENES 8
USER: genes 0 Translation |==|  0.47740 0.58823 0.44733
USER: genes 1 Rotation |==|  0.53418 0.59341 0.01510 0.57054
USER: genes 2 Torsion [C]-N--CA-[C] |==|  0.67264
USER: genes 3 Torsion [N]-CA--C-[N] |==|  0.52121
USER: genes 4 Torsion [C]-N--CA-[C] |==|  0.75308
USER: genes 5 Torsion [N]-CA--C-[O] |==|  0.77023
USER: genes 6 Torsion [N]-C--CA-[N] |==|  0.06447
USER: genes 7 Torsion [C]-CA--N-[H2] |==|  0.19162
ROOT
ATOM      1  C   GLY G   1      25.466 -15.680  17.418  1.00 43.90 LIG 0.24  C 
ATOM      2 O    GLY G   1      24.992 -15.821  16.288  1.00 43.93 LIG-0.27  OA
ATOM      3  N   GLY G   2      24.793 -15.918  18.545  1.00 44.62 LIG-0.35  N 
ATOM      4 H    GLY G   2      25.072 -15.685  19.325  1.00 44.62 LIG 0.16  HD
ENDROOT
BRANCH 3 5
ATOM      5  CA  GLY G   2      23.513 -16.603  18.552  1.00 45.53 LIG 0.23  C 
BRANCH 5 6
ATOM      6  C   GLY G   2      22.379 -15.766  19.080  1.00 46.02 LIG 0.23  C 
ATOM      7 O    GLY G   2      22.545 -14.567  19.298  1.00 47.02 LIG-0.27  OA
ATOM      8  N   GLY G   3      21.218 -16.398  19.254  1.00 46.62 LIG-0.35  N 
ATOM      9 H    GLY G   3      21.092 -17.224  19.048  1.00 46.62 LIG 0.16  HD
BRANCH 8 10
ATOM     10  CA  GLY G   3      20.044 -15.741  19.817  1.00 46.72 LIG 0.21  C 
BRANCH 10 11
ATOM     11  C   GLY G   3      19.944 -15.812  21.332  1.00 46.79 LIG 0.21  C 
ATOM     12 O    GLY G   3      19.481 -16.805  21.886  1.00 46.39 LIG-0.29  OA
ENDBRANCH 10 11
ENDBRANCH 8 10
ENDBRANCH 5 6
ENDBRANCH 3 5
BRANCH 1 13
ATOM     13  CA  GLY G   1      26.893 -15.226  17.595  1.00 43.33 LIG 0.33  C 
BRANCH 13 14
ATOM     14  N   GLY G   1      27.381 -15.676  18.918  1.00 42.49 LIG-0.07  N 
ATOM     15 H2   GLY G   1      27.465 -16.561  18.918  1.00 42.49 LIG 0.27  HD
ATOM     16 H3   GLY G   1      28.172 -15.303  19.085  1.00 42.49 LIG 0.27  HD
ATOM     17 H1   GLY G   1      26.800 -15.433  19.547  1.00 42.49 LIG 0.27  HD
ENDBRANCH 13 14
ENDBRANCH 1 13
TORSDOF 6
ENDMDL
MODEL 12
USER: ADFR SOLUTION from run 177
USER: SCORE 7.939892 LL:  -0.800 LR:  -7.430 RR:   0.000 FEB:  -5.640
USER: RMSD 6.630198
USER: SEED 176
USER: STATUS no improvement in best in 26 clusters for 5 generations
USER: GENES 8
USER: genes 0 Translation |==|  0.44715 0.39737 0.52933
USER: genes 1 Rotation |==|  0.39889 0.68846 0.93874 0.60846
USER: genes 2 Torsion [C]-N--CA-[C] |==|  0.36646
USER: genes 3 Torsion [N]-CA--C-[N] |==|  0.45757
USER: genes 4 Torsion [C]-N--CA-[C] |==|  0.82807
USER: genes 5 Torsion [N]-CA--C-[O] |==|  0.90739
USER: genes 6 Torsion [N]-C--CA-[N] |==|  0.84194
USER: genes 7 Torsion [C]-CA--N-[H2] |==|  0.84050
ROOT
ATOM      1  C   GLY G   1      24.944 -18.113  18.586  1.00 43.90 LIG 0.24  C 
ATOM      2 O    GLY G   1      24.355 -18.897  17.837  1.00 43.93 LIG-0.27  OA
ATOM      3  N   GLY G   2      24.515 -16.882  18.866  1.00 44.62 LIG-0.35  N 
ATOM      4 H    GLY G   2      24.992 -16.290  19.268  1.00 44.62 LIG 0.16  HD
ENDROOT
BRANCH 3 5
ATOM      5  CA  GLY G   2      23.182 -16.427  18.511  1.00 45.53 LIG 0.23  C 
BRANCH 5 6
ATOM      6  C   GLY G   2      22.453 -15.743  19.636  1.00 46.02 LIG 0.23  C 
ATOM      7 O    GLY G   2      22.873 -15.832  20.788  1.00 47.02 LIG-0.27  OA
ATOM      8  N   GLY G   3      21.377 -15.037  19.290  1.00 46.62 LIG-0.35  N 
ATOM      9 H    GLY G   3      21.119 -14.933  18.476  1.00 46.62 LIG 0.16  HD
BRANCH 8 10
ATOM     10  CA  GLY G   3      20.527 -14.369  20.270  1.00 46.72 LIG 0.21  C 
BRANCH 10 11
ATOM     11  C   GLY G   3      19.854 -15.301  21.263  1.00 46.79 LIG 0.21  C 
ATOM     12 O    GLY G   3      19.507 -16.431  20.930  1.00 46.39 LIG-0.29  OA
ENDBRANCH 10 11
ENDBRANCH 8 10
ENDBRANCH 5 6
ENDBRANCH 3 5
BRANCH 1 13
ATOM     13  CA  GLY G   1      26.226 -18.526  19.264  1.00 43.33 LIG 0.33  C 
BRANCH 13 14
ATOM     14  N   GLY G   1      27.289 -17.555  18.918  1.00 42.49 LIG-0.07  N 
ATOM     15 H2   GLY G   1      27.380 -17.518  18.034  1.00 42.49 LIG 0.27  HD
ATOM     16 H3   GLY G   1      27.069 -16.751  19.228  1.00 42.49 LIG 0.27  HD
ATOM     17 H1   GLY G   1      28.058 -17.813  19.284  1.00 42.49 LIG 0.27  HD
ENDBRANCH 13 14
ENDBRANCH 1 13
TORSDOF 6
ENDMDL
MODEL 13
USER: ADFR SOLUTION from run 179
USER: SCORE 8.057215 LL:  -0.756 LR:  -7.397 RR:   0.000 FEB:  -5.607
USER: RMSD 5.724533
USER: SEED 178
USER: STATUS no improvement in best in 27 clusters for 5 generations
USER: GENES 8
USER: genes 0 Translation |==|  0.73069 0.38714 0.54023
USER: genes 1 Rotation |==|  0.22698 0.54931 0.85547 0.71603
USER: genes 2 Torsion [C]-N--CA-[C] |==|  0.28113
USER: genes 3 Torsion [N]-CA--C-[N] |==|  0.03333
USER: genes 4 Torsion [C]-N--CA-[C] |==|  0.19437
USER: genes 5 Torsion [N]-CA--C-[O] |==|  0.25351
USER: genes 6 Torsion [N]-C--CA-[N] |==|  0.93867
USER: genes 7 Torsion [C]-CA--N-[H2] |==|  0.97821
ROOT
ATOM      1  C   GLY G   1      29.835 -18.244  18.741  1.00 43.90 LIG 0.24  C 
ATOM      2 O    GLY G   1      30.202 -18.698  17.655  1.00 43.93 LIG-0.27  OA
ATOM      3  N   GLY G   2      29.274 -17.043  18.898  1.00 44.62 LIG-0.35  N 
ATOM      4 H    GLY G   2      29.152 -16.670  19.664  1.00 44.62 LIG 0.16  HD
ENDROOT
BRANCH 3 5
ATOM      5  CA  GLY G   2      28.815 -16.251  17.772  1.00 45.53 LIG 0.23  C 
BRANCH 5 6
ATOM      6  C   GLY G   2      27.326 -16.306  17.556  1.00 46.02 LIG 0.23  C 
ATOM      7 O    GLY G   2      26.838 -15.891  16.507  1.00 47.02 LIG-0.27  OA
ATOM      8  N   GLY G   3      26.614 -16.850  18.543  1.00 46.62 LIG-0.35  N 
ATOM      9 H    GLY G   3      26.965 -17.190  19.251  1.00 46.62 LIG 0.16  HD
BRANCH 8 10
ATOM     10  CA  GLY G   3      25.157 -16.919  18.513  1.00 46.72 LIG 0.21  C 
BRANCH 10 11
ATOM     11  C   GLY G   3      24.590 -17.890  17.491  1.00 46.79 LIG 0.21  C 
ATOM     12 O    GLY G   3      24.356 -19.056  17.793  1.00 46.39 LIG-0.29  OA
ENDBRANCH 10 11
ENDBRANCH 8 10
ENDBRANCH 5 6
ENDBRANCH 3 5
BRANCH 1 13
ATOM     13  CA  GLY G   1      29.994 -19.058  20.000  1.00 43.33 LIG 0.33  C 
BRANCH 13 14
ATOM     14  N   GLY G   1      29.981 -18.148  21.168  1.00 42.49 LIG-0.07  N 
ATOM     15 H2   GLY G   1      29.997 -17.304  20.887  1.00 42.49 LIG 0.27  HD
ATOM     16 H3   GLY G   1      29.243 -18.287  21.645  1.00 42.49 LIG 0.27  HD
ATOM     17 H1   GLY G   1      30.696 -18.304  21.675  1.00 42.49 LIG 0.27  HD
ENDBRANCH 13 14
ENDBRANCH 1 13
TORSDOF 6
ENDMDL
MODEL 14
USER: ADFR SOLUTION from run 54
USER: SCORE 7.830002 LL:  -1.021 LR:  -7.386 RR:   0.000 FEB:  -5.596
USER: RMSD 5.511705
USER: SEED 53
USER: STATUS no improvement in best in 27 clusters for 5 generations
USER: GENES 8
USER: genes 0 Translation |==|  0.26975 0.60402 0.60262
USER: genes 1 Rotation |==|  0.69881 0.61710 0.43105 0.93819
USER: genes 2 Torsion [C]-N--CA-[C] |==|  0.75433
USER: genes 3 Torsion [N]-CA--C-[N] |==|  0.20412
USER: genes 4 Torsion [C]-N--CA-[C] |==|  0.33883
USER: genes 5 Torsion [N]-CA--C-[O] |==|  0.99710
USER: genes 6 Torsion [N]-C--CA-[N] |==|  0.69276
USER: genes 7 Torsion [C]-CA--N-[H2] |==|  0.72501
ROOT
ATOM      1  C   GLY G   1      21.884 -15.479  19.630  1.00 43.90 LIG 0.24  C 
ATOM      2 O    GLY G   1      22.350 -14.555  18.959  1.00 43.93 LIG-0.27  OA
ATOM      3  N   GLY G   2      22.497 -16.650  19.817  1.00 44.62 LIG-0.35  N 
ATOM      4 H    GLY G   2      22.114 -17.339  20.160  1.00 44.62 LIG 0.16  HD
ENDROOT
BRANCH 3 5
ATOM      5  CA  GLY G   2      23.885 -16.864  19.450  1.00 45.53 LIG 0.23  C 
BRANCH 5 6
ATOM      6  C   GLY G   2      24.075 -17.324  18.029  1.00 46.02 LIG 0.23  C 
ATOM      7 O    GLY G   2      24.356 -18.497  17.793  1.00 47.02 LIG-0.27  OA
ATOM      8  N   GLY G   3      23.889 -16.400  17.087  1.00 46.62 LIG-0.35  N 
ATOM      9 H    GLY G   3      23.637 -15.594  17.255  1.00 46.62 LIG 0.16  HD
BRANCH 8 10
ATOM     10  CA  GLY G   3      24.096 -16.672  15.669  1.00 46.72 LIG 0.21  C 
BRANCH 10 11
ATOM     11  C   GLY G   3      22.878 -16.430  14.793  1.00 46.79 LIG 0.21  C 
ATOM     12 O    GLY G   3      21.817 -16.055  15.282  1.00 46.39 LIG-0.29  OA
ENDBRANCH 10 11
ENDBRANCH 8 10
ENDBRANCH 5 6
ENDBRANCH 3 5
BRANCH 1 13
ATOM     13  CA  GLY G   1      20.551 -15.326  20.316  1.00 43.33 LIG 0.33  C 
BRANCH 13 14
ATOM     14  N   GLY G   1      19.481 -15.304  19.293  1.00 42.49 LIG-0.07  N 
ATOM     15 H2   GLY G   1      19.244 -14.462  19.129  1.00 42.49 LIG 0.27  HD
ATOM     16 H3   GLY G   1      19.780 -15.680  18.544  1.00 42.49 LIG 0.27  HD
ATOM     17 H1   GLY G   1      18.775 -15.758  19.591  1.00 42.49 LIG 0.27  HD
ENDBRANCH 13 14
ENDBRANCH 1 13
TORSDOF 6
ENDMDL
MODEL 15
USER: ADFR SOLUTION from run 186
USER: SCORE 7.743679 LL:  -0.851 LR:  -7.386 RR:   0.000 FEB:  -5.596
USER: RMSD 4.744689
USER: SEED 185
USER: STATUS no improvement in best in 34 clusters for 5 generations
USER: GENES 8
USER: genes 0 Translation |==|  0.45708 0.45795 0.22297
USER: genes 1 Rotation |==|  0.31781 0.10159 0.55188 0.73534
USER: genes 2 Torsion [C]-N--CA-[C] |==|  0.78331
USER: genes 3 Torsion [N]-CA--C-[N] |==|  0.11667
USER: genes 4 Torsion [C]-N--CA-[C] |==|  0.43272
USER: genes 5 Torsion [N]-CA--C-[O] |==|  0.87616
USER: genes 6 Torsion [N]-C--CA-[N] |==|  0.87304
USER: genes 7 Torsion [C]-CA--N-[H2] |==|  0.35052
ROOT
ATOM      1  C   GLY G   1      25.116 -17.341  14.220  1.00 43.90 LIG 0.24  C 
ATOM      2 O    GLY G   1      25.876 -16.774  15.009  1.00 43.93 LIG-0.27  OA
ATOM      3  N   GLY G   2      23.814 -17.067  14.109  1.00 44.62 LIG-0.35  N 
ATOM      4 H    GLY G   2      23.260 -17.555  13.668  1.00 44.62 LIG 0.16  HD
ENDROOT
BRANCH 3 5
ATOM      5  CA  GLY G   2      23.213 -15.901  14.732  1.00 45.53 LIG 0.23  C 
BRANCH 5 6
ATOM      6  C   GLY G   2      22.969 -16.059  16.208  1.00 46.02 LIG 0.23  C 
ATOM      7 O    GLY G   2      21.909 -15.680  16.703  1.00 47.02 LIG-0.27  OA
ATOM      8  N   GLY G   3      23.944 -16.648  16.901  1.00 46.62 LIG-0.35  N 
ATOM      9 H    GLY G   3      24.660 -16.961  16.541  1.00 46.62 LIG 0.16  HD
BRANCH 8 10
ATOM     10  CA  GLY G   3      23.886 -16.816  18.349  1.00 46.72 LIG 0.21  C 
BRANCH 10 11
ATOM     11  C   GLY G   3      24.731 -17.959  18.887  1.00 46.79 LIG 0.21  C 
ATOM     12 O    GLY G   3      24.731 -19.055  18.336  1.00 46.39 LIG-0.29  OA
ENDBRANCH 10 11
ENDBRANCH 8 10
ENDBRANCH 5 6
ENDBRANCH 3 5
BRANCH 1 13
ATOM     13  CA  GLY G   1      25.637 -18.409  13.293  1.00 43.33 LIG 0.33  C 
BRANCH 13 14
ATOM     14  N   GLY G   1      24.703 -19.558  13.306  1.00 42.49 LIG-0.07  N 
ATOM     15 H2   GLY G   1      24.459 -19.751  12.472  1.00 42.49 LIG 0.27  HD
ATOM     16 H3   GLY G   1      25.106 -20.263  13.668  1.00 42.49 LIG 0.27  HD
ATOM     17 H1   GLY G   1      23.982 -19.349  13.785  1.00 42.49 LIG 0.27  HD
ENDBRANCH 13 14
ENDBRANCH 1 13
TORSDOF 6
ENDMDL
MODEL 16
USER: ADFR SOLUTION from run 71
USER: SCORE 8.090562 LL:  -0.782 LR:  -7.386 RR:   0.000 FEB:  -5.596
USER: RMSD 5.378703
USER: SEED 70
USER: STATUS no improvement in best in 32 clusters for 5 generations
USER: GENES 8
USER: genes 0 Translation |==|  0.56409 0.59734 0.46217
USER: genes 1 Rotation |==|  0.51213 0.70071 0.10978 0.73937
USER: genes 2 Torsion [C]-N--CA-[C] |==|  0.78876
USER: genes 3 Torsion [N]-CA--C-[N] |==|  0.02222
USER: genes 4 Torsion [C]-N--CA-[C] |==|  0.78343
USER: genes 5 Torsion [N]-CA--C-[O] |==|  0.70129
USER: genes 6 Torsion [N]-C--CA-[N] |==|  0.96408
USER: genes 7 Torsion [C]-CA--N-[H2] |==|  0.49955
ROOT
ATOM      1  C   GLY G   1      26.962 -15.564  17.629  1.00 43.90 LIG 0.24  C 
ATOM      2 O    GLY G   1      26.542 -15.534  16.470  1.00 43.93 LIG-0.27  OA
ATOM      3  N   GLY G   2      26.818 -16.607  18.449  1.00 44.62 LIG-0.35  N 
ATOM      4 H    GLY G   2      26.980 -16.575  19.294  1.00 44.62 LIG 0.16  HD
ENDROOT
BRANCH 3 5
ATOM      5  CA  GLY G   2      26.369 -17.905  17.979  1.00 45.53 LIG 0.23  C 
BRANCH 5 6
ATOM      6  C   GLY G   2      24.891 -17.974  17.704  1.00 46.02 LIG 0.23  C 
ATOM      7 O    GLY G   2      24.356 -19.056  17.470  1.00 47.02 LIG-0.27  OA
ATOM      8  N   GLY G   3      24.232 -16.817  17.763  1.00 46.62 LIG-0.35  N 
ATOM      9 H    GLY G   3      24.601 -16.071  17.982  1.00 46.62 LIG 0.16  HD
BRANCH 8 10
ATOM     10  CA  GLY G   3      22.809 -16.708  17.460  1.00 46.72 LIG 0.21  C 
BRANCH 10 11
ATOM     11  C   GLY G   3      22.477 -16.708  15.977  1.00 46.79 LIG 0.21  C 
ATOM     12 O    GLY G   3      22.111 -15.680  15.414  1.00 46.39 LIG-0.29  OA
ENDBRANCH 10 11
ENDBRANCH 8 10
ENDBRANCH 5 6
ENDBRANCH 3 5
BRANCH 1 13
ATOM     13  CA  GLY G   1      27.701 -14.382  18.202  1.00 43.33 LIG 0.33  C 
BRANCH 13 14
ATOM     14  N   GLY G   1      27.825 -14.555  19.667  1.00 42.49 LIG-0.07  N 
ATOM     15 H2   GLY G   1      28.263 -13.861  20.012  1.00 42.49 LIG 0.27  HD
ATOM     16 H3   GLY G   1      27.015 -14.603  20.030  1.00 42.49 LIG 0.27  HD
ATOM     17 H1   GLY G   1      28.274 -15.304  19.841  1.00 42.49 LIG 0.27  HD
ENDBRANCH 13 14
ENDBRANCH 1 13
TORSDOF 6
ENDMDL
MODEL 17
USER: ADFR SOLUTION from run 105
USER: SCORE 7.659433 LL:  -0.720 LR:  -7.296 RR:   0.000 FEB:  -5.506
USER: RMSD 7.210063
USER: SEED 104
USER: STATUS no improvement in best in 26 clusters for 5 generations
USER: GENES 8
USER: genes 0 Translation |==|  0.30435 0.50142 0.42433
USER: genes 1 Rotation |==|  0.50113 0.37024 0.93484 0.70993
USER: genes 2 Torsion [C]-N--CA-[C] |==|  0.51608
USER: genes 3 Torsion [N]-CA--C-[N] |==|  0.56051
USER: genes 4 Torsion [C]-N--CA-[C] |==|  0.30176
USER: genes 5 Torsion [N]-CA--C-[O] |==|  0.45120
USER: genes 6 Torsion [N]-C--CA-[N] |==|  0.25415
USER: genes 7 Torsion [C]-CA--N-[H2] |==|  0.63325
ROOT
ATOM      1  C   GLY G   1      22.481 -16.787  17.090  1.00 43.90 LIG 0.24  C 
ATOM      2 O    GLY G   1      21.963 -16.040  16.256  1.00 43.93 LIG-0.27  OA
ATOM      3  N   GLY G   2      22.186 -16.773  18.391  1.00 44.62 LIG-0.35  N 
ATOM      4 H    GLY G   2      22.645 -17.188  18.989  1.00 44.62 LIG 0.16  HD
ENDROOT
BRANCH 3 5
ATOM      5  CA  GLY G   2      21.045 -16.045  18.918  1.00 45.53 LIG 0.23  C 
BRANCH 5 6
ATOM      6  C   GLY G   2      20.967 -16.044  20.421  1.00 46.02 LIG 0.23  C 
ATOM      7 O    GLY G   2      21.980 -16.227  21.092  1.00 47.02 LIG-0.27  OA
ATOM      8  N   GLY G   3      19.763 -15.806  20.942  1.00 46.62 LIG-0.35  N 
ATOM      9 H    GLY G   3      19.069 -15.623  20.469  1.00 46.62 LIG 0.16  HD
BRANCH 8 10
ATOM     10  CA  GLY G   3      19.511 -15.834  22.379  1.00 46.72 LIG 0.21  C 
BRANCH 10 11
ATOM     11  C   GLY G   3      19.262 -14.472  23.004  1.00 46.79 LIG 0.21  C 
ATOM     12 O    GLY G   3      18.731 -14.373  24.107  1.00 46.39 LIG-0.29  OA
ENDBRANCH 10 11
ENDBRANCH 8 10
ENDBRANCH 5 6
ENDBRANCH 3 5
BRANCH 1 13
ATOM     13  CA  GLY G   1      23.508 -17.806  16.666  1.00 43.33 LIG 0.33  C 
BRANCH 13 14
ATOM     14  N   GLY G   1      22.815 -19.055  16.275  1.00 42.49 LIG-0.07  N 
ATOM     15 H2   GLY G   1      23.210 -19.749  16.668  1.00 42.49 LIG 0.27  HD
ATOM     16 H3   GLY G   1      21.964 -19.015  16.530  1.00 42.49 LIG 0.27  HD
ATOM     17 H1   GLY G   1      22.856 -19.153  15.391  1.00 42.49 LIG 0.27  HD
ENDBRANCH 13 14
ENDBRANCH 1 13
TORSDOF 6
ENDMDL
MODEL 18
USER: ADFR SOLUTION from run 100
USER: SCORE 8.020009 LL:  -0.940 LR:  -7.279 RR:   0.000 FEB:  -5.489
USER: RMSD 5.891185
USER: SEED 99
USER: STATUS no improvement in best in 32 clusters for 5 generations
USER: GENES 8
USER: genes 0 Translation |==|  0.53031 0.27998 0.15790
USER: genes 1 Rotation |==|  0.24893 0.18160 0.70177 0.71183
USER: genes 2 Torsion [C]-N--CA-[C] |==|  0.69259
USER: genes 3 Torsion [N]-CA--C-[N] |==|  0.97311
USER: genes 4 Torsion [C]-N--CA-[C] |==|  0.67735
USER: genes 5 Torsion [N]-CA--C-[O] |==|  0.82419
USER: genes 6 Torsion [N]-C--CA-[N] |==|  0.43110
USER: genes 7 Torsion [C]-CA--N-[H2] |==|  0.55052
ROOT
ATOM      1  C   GLY G   1      26.379 -19.610  13.293  1.00 43.90 LIG 0.24  C 
ATOM      2 O    GLY G   1      27.291 -18.781  13.337  1.00 43.93 LIG-0.27  OA
ATOM      3  N   GLY G   2      25.082 -19.298  13.339  1.00 44.62 LIG-0.35  N 
ATOM      4 H    GLY G   2      24.456 -19.877  13.453  1.00 44.62 LIG 0.16  HD
ENDROOT
BRANCH 3 5
ATOM      5  CA  GLY G   2      24.610 -17.932  13.198  1.00 45.53 LIG 0.23  C 
BRANCH 5 6
ATOM      6  C   GLY G   2      24.037 -17.353  14.464  1.00 46.02 LIG 0.23  C 
ATOM      7 O    GLY G   2      23.742 -16.161  14.520  1.00 47.02 LIG-0.27  OA
ATOM      8  N   GLY G   3      23.855 -18.211  15.468  1.00 46.62 LIG-0.35  N 
ATOM      9 H    GLY G   3      24.011 -19.055  15.405  1.00 46.62 LIG 0.16  HD
BRANCH 8 10
ATOM     10  CA  GLY G   3      23.369 -17.794  16.779  1.00 46.72 LIG 0.21  C 
BRANCH 10 11
ATOM     11  C   GLY G   3      24.356 -18.001  17.915  1.00 46.79 LIG 0.21  C 
ATOM     12 O    GLY G   3      24.731 -19.128  18.225  1.00 46.39 LIG-0.29  OA
ENDBRANCH 10 11
ENDBRANCH 8 10
ENDBRANCH 5 6
ENDBRANCH 3 5
BRANCH 1 13
ATOM     13  CA  GLY G   1      26.690 -21.080  13.166  1.00 43.33 LIG 0.33  C 
BRANCH 13 14
ATOM     14  N   GLY G   1      28.023 -21.239  12.543  1.00 42.49 LIG-0.07  N 
ATOM     15 H2   GLY G   1      28.106 -22.066  12.226  1.00 42.49 LIG 0.27  HD
ATOM     16 H3   GLY G   1      28.111 -20.655  11.877  1.00 42.49 LIG 0.27  HD
ATOM     17 H1   GLY G   1      28.656 -21.091  13.152  1.00 42.49 LIG 0.27  HD
ENDBRANCH 13 14
ENDBRANCH 1 13
TORSDOF 6
ENDMDL
MODEL 19
USER: ADFR SOLUTION from run 116
USER: SCORE 7.558727 LL:  -0.707 LR:  -7.206 RR:   0.000 FEB:  -5.416
USER: RMSD 6.009712
USER: SEED 115
USER: STATUS no improvement in best in 36 clusters for 5 generations
USER: GENES 8
USER: genes 0 Translation |==|  0.26714 0.61971 0.63016
USER: genes 1 Rotation |==|  0.97960 0.41569 0.40757 0.56582
USER: genes 2 Torsion [C]-N--CA-[C] |==|  0.50296
USER: genes 3 Torsion [N]-CA--C-[N] |==|  0.43889
USER: genes 4 Torsion [C]-N--CA-[C] |==|  0.61679
USER: genes 5 Torsion [N]-CA--C-[O] |==|  0.33859
USER: genes 6 Torsion [N]-C--CA-[N] |==|  0.07194
USER: genes 7 Torsion [C]-CA--N-[H2] |==|  0.34085
ROOT
ATOM      1  C   GLY G   1      21.839 -15.279  20.023  1.00 43.90 LIG 0.24  C 
ATOM      2 O    GLY G   1      22.724 -15.694  20.775  1.00 43.93 LIG-0.27  OA
ATOM      3  N   GLY G   2      21.899 -15.344  18.691  1.00 44.62 LIG-0.35  N 
ATOM      4 H    GLY G   2      21.356 -14.930  18.168  1.00 44.62 LIG 0.16  HD
ENDROOT
BRANCH 3 5
ATOM      5  CA  GLY G   2      22.902 -16.134  18.000  1.00 45.53 LIG 0.23  C 
BRANCH 5 6
ATOM      6  C   GLY G   2      22.812 -16.053  16.500  1.00 46.02 LIG 0.23  C 
ATOM      7 O    GLY G   2      21.765 -15.696  15.962  1.00 47.02 LIG-0.27  OA
ATOM      8  N   GLY G   3      23.924 -16.357  15.831  1.00 46.62 LIG-0.35  N 
ATOM      9 H    GLY G   3      24.670 -16.552  16.213  1.00 46.62 LIG 0.16  HD
BRANCH 8 10
ATOM     10  CA  GLY G   3      23.980 -16.387  14.373  1.00 46.72 LIG 0.21  C 
BRANCH 10 11
ATOM     11  C   GLY G   3      24.757 -17.557  13.794  1.00 46.79 LIG 0.21  C 
ATOM     12 O    GLY G   3      24.221 -18.346  13.021  1.00 46.39 LIG-0.29  OA
ENDBRANCH 10 11
ENDBRANCH 8 10
ENDBRANCH 5 6
ENDBRANCH 3 5
BRANCH 1 13
ATOM     13  CA  GLY G   1      20.585 -14.662  20.588  1.00 43.33 LIG 0.33  C 
BRANCH 13 14
ATOM     14  N   GLY G   1      19.481 -14.837  19.618  1.00 42.49 LIG-0.07  N 
ATOM     15 H2   GLY G   1      18.810 -15.274  20.007  1.00 42.49 LIG 0.27  HD
ATOM     16 H3   GLY G   1      19.197 -14.040  19.344  1.00 42.49 LIG 0.27  HD
ATOM     17 H1   GLY G   1      19.772 -15.305  18.918  1.00 42.49 LIG 0.27  HD
ENDBRANCH 13 14
ENDBRANCH 1 13
TORSDOF 6
ENDMDL
MODEL 20
USER: ADFR SOLUTION from run 48
USER: SCORE 7.663748 LL:  -0.703 LR:  -7.186 RR:   0.000 FEB:  -5.396
USER: RMSD 7.459704
USER: SEED 47
USER: STATUS no improvement in best in 23 clusters for 5 generations
USER: GENES 8
USER: genes 0 Translation |==|  0.36936 0.55936 0.53641
USER: genes 1 Rotation |==|  0.58786 0.45350 0.98902 0.53126
USER: genes 2 Torsion [C]-N--CA-[C] |==|  0.72021
USER: genes 3 Torsion [N]-CA--C-[N] |==|  0.60552
USER: genes 4 Torsion [C]-N--CA-[C] |==|  0.32471
USER: genes 5 Torsion [N]-CA--C-[O] |==|  0.22160
USER: genes 6 Torsion [N]-C--CA-[N] |==|  0.92905
USER: genes 7 Torsion [C]-CA--N-[H2] |==|  0.63398
ROOT
ATOM      1  C   GLY G   1      23.602 -16.048  18.687  1.00 43.90 LIG 0.24  C 
ATOM      2 O    GLY G   1      22.583 -16.154  18.000  1.00 43.93 LIG-0.27  OA
ATOM      3  N   GLY G   2      23.598 -15.879  20.011  1.00 44.62 LIG-0.35  N 
ATOM      4 H    GLY G   2      24.294 -15.662  20.466  1.00 44.62 LIG 0.16  HD
ENDROOT
BRANCH 3 5
ATOM      5  CA  GLY G   2      22.396 -16.049  20.808  1.00 45.53 LIG 0.23  C 
BRANCH 5 6
ATOM      6  C   GLY G   2      21.729 -14.753  21.185  1.00 46.02 LIG 0.23  C 
ATOM      7 O    GLY G   2      21.666 -13.832  20.374  1.00 47.02 LIG-0.27  OA
ATOM      8  N   GLY G   3      21.205 -14.701  22.410  1.00 46.62 LIG-0.35  N 
ATOM      9 H    GLY G   3      21.203 -15.368  22.954  1.00 46.62 LIG 0.16  HD
BRANCH 8 10
ATOM     10  CA  GLY G   3      20.582 -13.496  22.947  1.00 46.72 LIG 0.21  C 
BRANCH 10 11
ATOM     11  C   GLY G   3      19.103 -13.637  23.264  1.00 46.79 LIG 0.21  C 
ATOM     12 O    GLY G   3      18.731 -14.180  24.300  1.00 46.39 LIG-0.29  OA
ENDBRANCH 10 11
ENDBRANCH 8 10
ENDBRANCH 5 6
ENDBRANCH 3 5
BRANCH 1 13
ATOM     13  CA  GLY G   1      24.965 -16.120  18.045  1.00 43.33 LIG 0.33  C 
BRANCH 13 14
ATOM     14  N   GLY G   1      25.937 -15.396  18.894  1.00 42.49 LIG-0.07  N 
ATOM     15 H2   GLY G   1      26.420 -14.846  18.389  1.00 42.49 LIG 0.27  HD
ATOM     16 H3   GLY G   1      25.501 -14.927  19.511  1.00 42.49 LIG 0.27  HD
ATOM     17 H1   GLY G   1      26.477 -15.982  19.293  1.00 42.49 LIG 0.27  HD
ENDBRANCH 13 14
ENDBRANCH 1 13
TORSDOF 6
ENDMDL
MODEL 21
USER: ADFR SOLUTION from run 140
USER: SCORE 7.558137 LL:  -0.965 LR:  -7.172 RR:   0.000 FEB:  -5.382
USER: RMSD 5.110662
USER: SEED 139
USER: STATUS no improvement in best in 24 clusters for 5 generations
USER: GENES 8
USER: genes 0 Translation |==|  0.46655 0.42587 0.22358
USER: genes 1 Rotation |==|  0.69082 0.31972 0.66232 0.89337
USER: genes 2 Torsion [C]-N--CA-[C] |==|  0.21682
USER: genes 3 Torsion [N]-CA--C-[N] |==|  0.79957
USER: genes 4 Torsion [C]-N--CA-[C] |==|  0.67436
USER: genes 5 Torsion [N]-CA--C-[O] |==|  0.00049
USER: genes 6 Torsion [N]-C--CA-[N] |==|  0.01313
USER: genes 7 Torsion [C]-CA--N-[H2] |==|  0.74725
ROOT
ATOM      1  C   GLY G   1      25.279 -17.750  14.229  1.00 43.90 LIG 0.24  C 
ATOM      2 O    GLY G   1      25.658 -16.610  14.506  1.00 43.93 LIG-0.27  OA
ATOM      3  N   GLY G   2      25.456 -18.809  15.022  1.00 44.62 LIG-0.35  N 
ATOM      4 H    GLY G   2      25.323 -19.621  14.770  1.00 44.62 LIG 0.16  HD
ENDROOT
BRANCH 3 5
ATOM      5  CA  GLY G   2      25.895 -18.680  16.399  1.00 45.53 LIG 0.23  C 
BRANCH 5 6
ATOM      6  C   GLY G   2      24.805 -18.257  17.348  1.00 46.02 LIG 0.23  C 
ATOM      7 O    GLY G   2      24.356 -19.055  18.168  1.00 47.02 LIG-0.27  OA
ATOM      8  N   GLY G   3      24.407 -16.989  17.250  1.00 46.62 LIG-0.35  N 
ATOM      9 H    GLY G   3      24.763 -16.419  16.712  1.00 46.62 LIG 0.16  HD
BRANCH 8 10
ATOM     10  CA  GLY G   3      23.318 -16.444  18.054  1.00 46.72 LIG 0.21  C 
BRANCH 10 11
ATOM     11  C   GLY G   3      22.119 -15.964  17.253  1.00 46.79 LIG 0.21  C 
ATOM     12 O    GLY G   3      22.106 -16.050  16.029  1.00 46.39 LIG-0.29  OA
ENDBRANCH 10 11
ENDBRANCH 8 10
ENDBRANCH 5 6
ENDBRANCH 3 5
BRANCH 1 13
ATOM     13  CA  GLY G   1      24.554 -18.019  12.935  1.00 43.33 LIG 0.33  C 
BRANCH 13 14
ATOM     14  N   GLY G   1      24.105 -19.430  12.918  1.00 42.49 LIG-0.07  N 
ATOM     15 H2   GLY G   1      24.732 -19.937  12.543  1.00 42.49 LIG 0.27  HD
ATOM     16 H3   GLY G   1      23.960 -19.705  13.752  1.00 42.49 LIG 0.27  HD
ATOM     17 H1   GLY G   1      23.351 -19.496  12.449  1.00 42.49 LIG 0.27  HD
ENDBRANCH 13 14
ENDBRANCH 1 13
TORSDOF 6
ENDMDL
MODEL 22
USER: ADFR SOLUTION from run 189
USER: SCORE 7.708284 LL:  -0.935 LR:  -7.135 RR:   0.000 FEB:  -5.345
USER: RMSD 8.097133
USER: SEED 188
USER: STATUS no improvement in best in 35 clusters for 5 generations
USER: GENES 8
USER: genes 0 Translation |==|  0.32322 0.56920 0.59737
USER: genes 1 Rotation |==|  0.41135 0.05723 0.63897 0.66365
USER: genes 2 Torsion [C]-N--CA-[C] |==|  0.78891
USER: genes 3 Torsion [N]-CA--C-[N] |==|  0.32349
USER: genes 4 Torsion [C]-N--CA-[C] |==|  0.60668
USER: genes 5 Torsion [N]-CA--C-[O] |==|  0.09812
USER: genes 6 Torsion [N]-C--CA-[N] |==|  0.44433
USER: genes 7 Torsion [C]-CA--N-[H2] |==|  0.69161
ROOT
ATOM      1  C   GLY G   1      22.807 -15.923  19.555  1.00 43.90 LIG 0.24  C 
ATOM      2 O    GLY G   1      22.997 -14.931  20.263  1.00 43.93 LIG-0.27  OA
ATOM      3  N   GLY G   2      21.600 -16.419  19.273  1.00 44.62 LIG-0.35  N 
ATOM      4 H    GLY G   2      21.474 -17.186  18.904  1.00 44.62 LIG 0.16  HD
ENDROOT
BRANCH 3 5
ATOM      5  CA  GLY G   2      20.377 -15.695  19.570  1.00 45.53 LIG 0.23  C 
BRANCH 5 6
ATOM      6  C   GLY G   2      19.998 -15.715  21.027  1.00 46.02 LIG 0.23  C 
ATOM      7 O    GLY G   2      19.748 -16.781  21.585  1.00 47.02 LIG-0.27  OA
ATOM      8  N   GLY G   3      19.987 -14.533  21.643  1.00 46.62 LIG-0.35  N 
ATOM      9 H    GLY G   3      20.217 -13.797  21.261  1.00 46.62 LIG 0.16  HD
BRANCH 8 10
ATOM     10  CA  GLY G   3      19.580 -14.377  23.035  1.00 46.72 LIG 0.21  C 
BRANCH 10 11
ATOM     11  C   GLY G   3      18.775 -13.121  23.322  1.00 46.79 LIG 0.21  C 
ATOM     12 O    GLY G   3      17.981 -12.680  22.495  1.00 46.39 LIG-0.29  OA
ENDBRANCH 10 11
ENDBRANCH 8 10
ENDBRANCH 5 6
ENDBRANCH 3 5
BRANCH 1 13
ATOM     13  CA  GLY G   1      23.971 -16.651  18.934  1.00 43.33 LIG 0.33  C 
BRANCH 13 14
ATOM     14  N   GLY G   1      25.148 -15.753  18.918  1.00 42.49 LIG-0.07  N 
ATOM     15 H2   GLY G   1      25.336 -15.525  18.079  1.00 42.49 LIG 0.27  HD
ATOM     16 H3   GLY G   1      24.970 -15.021  19.391  1.00 42.49 LIG 0.27  HD
ATOM     17 H1   GLY G   1      25.848 -16.173  19.274  1.00 42.49 LIG 0.27  HD
ENDBRANCH 13 14
ENDBRANCH 1 13
TORSDOF 6
ENDMDL
MODEL 23
USER: ADFR SOLUTION from run 163
USER: SCORE 7.107696 LL:  -0.788 LR:  -7.133 RR:   0.000 FEB:  -5.343
USER: RMSD 3.806355
USER: SEED 162
USER: STATUS no improvement in best in 25 clusters for 5 generations
USER: GENES 8
USER: genes 0 Translation |==|  0.25460 0.58806 0.53334
USER: genes 1 Rotation |==|  0.80486 0.70612 0.37028 0.81264
USER: genes 2 Torsion [C]-N--CA-[C] |==|  0.29738
USER: genes 3 Torsion [N]-CA--C-[N] |==|  0.73575
USER: genes 4 Torsion [C]-N--CA-[C] |==|  0.83345
USER: genes 5 Torsion [N]-CA--C-[O] |==|  0.11615
USER: genes 6 Torsion [N]-C--CA-[N] |==|  0.69560
USER: genes 7 Torsion [C]-CA--N-[H2] |==|  0.22387
ROOT
ATOM      1  C   GLY G   1      21.623 -15.682  18.643  1.00 43.90 LIG 0.24  C 
ATOM      2 O    GLY G   1      22.106 -14.587  18.348  1.00 43.93 LIG-0.27  OA
ATOM      3  N   GLY G   2      21.805 -16.796  17.931  1.00 44.62 LIG-0.35  N 
ATOM      4 H    GLY G   2      21.356 -17.520  18.053  1.00 44.62 LIG 0.16  HD
ENDROOT
BRANCH 3 5
ATOM      5  CA  GLY G   2      22.792 -16.883  16.870  1.00 45.53 LIG 0.23  C 
BRANCH 5 6
ATOM      6  C   GLY G   2      23.997 -17.712  17.226  1.00 46.02 LIG 0.23  C 
ATOM      7 O    GLY G   2      23.981 -18.929  17.055  1.00 47.02 LIG-0.27  OA
ATOM      8  N   GLY G   3      25.049 -17.041  17.694  1.00 46.62 LIG-0.35  N 
ATOM      9 H    GLY G   3      25.075 -16.184  17.760  1.00 46.62 LIG 0.16  HD
BRANCH 8 10
ATOM     10  CA  GLY G   3      26.268 -17.706  18.143  1.00 46.72 LIG 0.21  C 
BRANCH 10 11
ATOM     11  C   GLY G   3      26.070 -18.680  19.293  1.00 46.79 LIG 0.21  C 
ATOM     12 O    GLY G   3      25.106 -19.439  19.315  1.00 46.39 LIG-0.29  OA
ENDBRANCH 10 11
ENDBRANCH 8 10
ENDBRANCH 5 6
ENDBRANCH 3 5
BRANCH 1 13
ATOM     13  CA  GLY G   1      20.777 -15.834  19.882  1.00 43.33 LIG 0.33  C 
BRANCH 13 14
ATOM     14  N   GLY G   1      19.481 -15.152  19.668  1.00 42.49 LIG-0.07  N 
ATOM     15 H2   GLY G   1      18.942 -15.680  19.196  1.00 42.49 LIG 0.27  HD
ATOM     16 H3   GLY G   1      19.106 -14.973  20.455  1.00 42.49 LIG 0.27  HD
ATOM     17 H1   GLY G   1      19.615 -14.392  19.223  1.00 42.49 LIG 0.27  HD
ENDBRANCH 13 14
ENDBRANCH 1 13
TORSDOF 6
ENDMDL
MODEL 24
USER: ADFR SOLUTION from run 147
USER: SCORE 7.299980 LL:  -0.824 LR:  -7.117 RR:   0.000 FEB:  -5.327
USER: RMSD 7.114282
USER: SEED 146
USER: STATUS no improvement in best in 24 clusters for 5 generations
USER: GENES 8
USER: genes 0 Translation |==|  0.30941 0.56105 0.36953
USER: genes 1 Rotation |==|  0.62118 0.40079 0.96268 0.60677
USER: genes 2 Torsion [C]-N--CA-[C] |==|  0.68034
USER: genes 3 Torsion [N]-CA--C-[N] |==|  0.36742
USER: genes 4 Torsion [C]-N--CA-[C] |==|  0.41423
USER: genes 5 Torsion [N]-CA--C-[O] |==|  0.64635
USER: genes 6 Torsion [N]-C--CA-[N] |==|  0.54347
USER: genes 7 Torsion [C]-CA--N-[H2] |==|  0.26052
ROOT
ATOM      1  C   GLY G   1      22.568 -16.027  16.309  1.00 43.90 LIG 0.24  C 
ATOM      2 O    GLY G   1      21.491 -15.680  15.819  1.00 43.93 LIG-0.27  OA
ATOM      3  N   GLY G   2      22.796 -16.125  17.620  1.00 44.62 LIG-0.35  N 
ATOM      4 H    GLY G   2      23.579 -16.225  17.962  1.00 44.62 LIG 0.16  HD
ENDROOT
BRANCH 3 5
ATOM      5  CA  GLY G   2      21.724 -16.071  18.598  1.00 45.53 LIG 0.23  C 
BRANCH 5 6
ATOM      6  C   GLY G   2      21.791 -14.874  19.508  1.00 46.02 LIG 0.23  C 
ATOM      7 O    GLY G   2      22.857 -14.555  20.031  1.00 47.02 LIG-0.27  OA
ATOM      8  N   GLY G   3      20.653 -14.198  19.668  1.00 46.62 LIG-0.35  N 
ATOM      9 H    GLY G   3      19.924 -14.392  19.256  1.00 46.62 LIG 0.16  HD
BRANCH 8 10
ATOM     10  CA  GLY G   3      20.540 -13.054  20.566  1.00 46.72 LIG 0.21  C 
BRANCH 10 11
ATOM     11  C   GLY G   3      19.533 -12.003  20.129  1.00 46.79 LIG 0.21  C 
ATOM     12 O    GLY G   3      19.856 -10.823  20.036  1.00 46.39 LIG-0.29  OA
ENDBRANCH 10 11
ENDBRANCH 8 10
ENDBRANCH 5 6
ENDBRANCH 3 5
BRANCH 1 13
ATOM     13  CA  GLY G   1      23.731 -16.386  15.418  1.00 43.33 LIG 0.33  C 
BRANCH 13 14
ATOM     14  N   GLY G   1      23.467 -15.878  14.053  1.00 42.49 LIG-0.07  N 
ATOM     15 H2   GLY G   1      23.837 -15.074  13.959  1.00 42.49 LIG 0.27  HD
ATOM     16 H3   GLY G   1      23.817 -16.437  13.456  1.00 42.49 LIG 0.27  HD
ATOM     17 H1   GLY G   1      22.588 -15.817  13.923  1.00 42.49 LIG 0.27  HD
ENDBRANCH 13 14
ENDBRANCH 1 13
TORSDOF 6
ENDMDL
MODEL 25
USER: ADFR SOLUTION from run 13
USER: SCORE 7.751634 LL:  -0.857 LR:  -7.080 RR:   0.000 FEB:  -5.290
USER: RMSD 4.737384
USER: SEED 414106
USER: STATUS no improvement in best in 21 clusters for 5 generations
USER: GENES 8
USER: genes 0 Translation |==|  0.51520 0.29685 0.23179
USER: genes 1 Rotation |==|  0.31704 0.11387 0.53050 0.75787
USER: genes 2 Torsion [C]-N--CA-[C] |==|  0.80002
USER: genes 3 Torsion [N]-CA--C-[N] |==|  0.38768
USER: genes 4 Torsion [C]-N--CA-[C] |==|  0.15809
USER: genes 5 Torsion [N]-CA--C-[O] |==|  0.80933
USER: genes 6 Torsion [N]-C--CA-[N] |==|  0.47669
USER: genes 7 Torsion [C]-CA--N-[H2] |==|  0.43952
ROOT
ATOM      1  C   GLY G   1      26.118 -19.395  14.346  1.00 43.90 LIG 0.24  C 
ATOM      2 O    GLY G   1      26.964 -18.959  15.131  1.00 43.93 LIG-0.27  OA
ATOM      3  N   GLY G   2      24.836 -19.025  14.347  1.00 44.62 LIG-0.35  N 
ATOM      4 H    GLY G   2      24.222 -19.430  13.901  1.00 44.62 LIG 0.16  HD
ENDROOT
BRANCH 3 5
ATOM      5  CA  GLY G   2      24.360 -17.887  15.113  1.00 45.53 LIG 0.23  C 
BRANCH 5 6
ATOM      6  C   GLY G   2      24.330 -18.125  16.599  1.00 46.02 LIG 0.23  C 
ATOM      7 O    GLY G   2      23.981 -19.217  17.043  1.00 47.02 LIG-0.27  OA
ATOM      8  N   GLY G   3      24.727 -17.106  17.361  1.00 46.62 LIG-0.35  N 
ATOM      9 H    GLY G   3      25.024 -16.363  17.043  1.00 46.62 LIG 0.16  HD
BRANCH 8 10
ATOM     10  CA  GLY G   3      24.696 -17.156  18.819  1.00 46.72 LIG 0.21  C 
BRANCH 10 11
ATOM     11  C   GLY G   3      25.482 -18.305  19.429  1.00 46.79 LIG 0.21  C 
ATOM     12 O    GLY G   3      25.106 -19.466  19.293  1.00 46.39 LIG-0.29  OA
ENDBRANCH 10 11
ENDBRANCH 8 10
ENDBRANCH 5 6
ENDBRANCH 3 5
BRANCH 1 13
ATOM     13  CA  GLY G   1      26.504 -20.401  13.292  1.00 43.33 LIG 0.33  C 
BRANCH 13 14
ATOM     14  N   GLY G   1      27.977 -20.555  13.287  1.00 42.49 LIG-0.07  N 
ATOM     15 H2   GLY G   1      28.192 -21.337  12.920  1.00 42.49 LIG 0.27  HD
ATOM     16 H3   GLY G   1      28.343 -19.895  12.816  1.00 42.49 LIG 0.27  HD
ATOM     17 H1   GLY G   1      28.281 -20.526  14.124  1.00 42.49 LIG 0.27  HD
ENDBRANCH 13 14
ENDBRANCH 1 13
TORSDOF 6
ENDMDL
MODEL 26
USER: ADFR SOLUTION from run 110
USER: SCORE 7.574240 LL:  -0.779 LR:  -7.038 RR:   0.000 FEB:  -5.248
USER: RMSD 6.839856
USER: SEED 109
USER: STATUS no improvement in best in 24 clusters for 5 generations
USER: GENES 8
USER: genes 0 Translation |==|  0.15858 0.61331 0.68025
USER: genes 1 Rotation |==|  0.07506 0.75014 0.50500 0.58264
USER: genes 2 Torsion [C]-N--CA-[C] |==|  0.50551
USER: genes 3 Torsion [N]-CA--C-[N] |==|  0.49695
USER: genes 4 Torsion [C]-N--CA-[C] |==|  0.85806
USER: genes 5 Torsion [N]-CA--C-[O] |==|  0.93767
USER: genes 6 Torsion [N]-C--CA-[N] |==|  0.10682
USER: genes 7 Torsion [C]-CA--N-[H2] |==|  0.89581
ROOT
ATOM      1  C   GLY G   1      19.966 -15.360  20.737  1.00 43.90 LIG 0.24  C 
ATOM      2 O    GLY G   1      19.856 -16.390  21.406  1.00 43.93 LIG-0.27  OA
ATOM      3  N   GLY G   2      20.708 -15.264  19.631  1.00 44.62 LIG-0.35  N 
ATOM      4 H    GLY G   2      20.899 -14.517  19.249  1.00 44.62 LIG 0.16  HD
ENDROOT
BRANCH 3 5
ATOM      5  CA  GLY G   2      21.263 -16.430  18.968  1.00 45.53 LIG 0.23  C 
BRANCH 5 6
ATOM      6  C   GLY G   2      22.107 -16.101  17.765  1.00 46.02 LIG 0.23  C 
ATOM      7 O    GLY G   2      22.277 -14.930  17.432  1.00 47.02 LIG-0.27  OA
ATOM      8  N   GLY G   3      22.657 -17.140  17.137  1.00 46.62 LIG-0.35  N 
ATOM      9 H    GLY G   3      22.580 -17.953  17.407  1.00 46.62 LIG 0.16  HD
BRANCH 8 10
ATOM     10  CA  GLY G   3      23.448 -16.992  15.920  1.00 46.72 LIG 0.21  C 
BRANCH 10 11
ATOM     11  C   GLY G   3      22.777 -16.182  14.823  1.00 46.79 LIG 0.21  C 
ATOM     12 O    GLY G   3      21.556 -16.055  14.793  1.00 46.39 LIG-0.29  OA
ENDBRANCH 10 11
ENDBRANCH 8 10
ENDBRANCH 5 6
ENDBRANCH 3 5
BRANCH 1 13
ATOM     13  CA  GLY G   1      19.231 -14.107  21.138  1.00 43.33 LIG 0.33  C 
BRANCH 13 14
ATOM     14  N   GLY G   1      18.731 -13.430  19.920  1.00 42.49 LIG-0.07  N 
ATOM     15 H2   GLY G   1      19.332 -13.509  19.269  1.00 42.49 LIG 0.27  HD
ATOM     16 H3   GLY G   1      17.966 -13.805  19.665  1.00 42.49 LIG 0.27  HD
ATOM     17 H1   GLY G   1      18.595 -12.567  20.094  1.00 42.49 LIG 0.27  HD
ENDBRANCH 13 14
ENDBRANCH 1 13
TORSDOF 6
ENDMDL
MODEL 27
USER: ADFR SOLUTION from run 78
USER: SCORE 7.790285 LL:  -0.995 LR:  -7.036 RR:   0.000 FEB:  -5.246
USER: RMSD 9.379195
USER: SEED 77
USER: STATUS no improvement in best in 33 clusters for 5 generations
USER: GENES 8
USER: genes 0 Translation |==|  0.19837 0.61851 0.72907
USER: genes 1 Rotation |==|  0.45171 0.17165 0.57755 0.86584
USER: genes 2 Torsion [C]-N--CA-[C] |==|  0.17250
USER: genes 3 Torsion [N]-CA--C-[N] |==|  0.66983
USER: genes 4 Torsion [C]-N--CA-[C] |==|  0.83017
USER: genes 5 Torsion [N]-CA--C-[O] |==|  0.81827
USER: genes 6 Torsion [N]-C--CA-[N] |==|  0.16269
USER: genes 7 Torsion [C]-CA--N-[H2] |==|  0.17019
ROOT
ATOM      1  C   GLY G   1      20.653 -15.294  21.432  1.00 43.90 LIG 0.24  C 
ATOM      2 O    GLY G   1      21.618 -14.643  21.839  1.00 43.93 LIG-0.27  OA
ATOM      3  N   GLY G   2      19.562 -15.545  22.159  1.00 44.62 LIG-0.35  N 
ATOM      4 H    GLY G   2      18.958 -16.114  21.931  1.00 44.62 LIG 0.16  HD
ENDROOT
BRANCH 3 5
ATOM      5  CA  GLY G   2      19.297 -14.869  23.416  1.00 45.53 LIG 0.23  C 
BRANCH 5 6
ATOM      6  C   GLY G   2      19.135 -13.379  23.282  1.00 46.02 LIG 0.23  C 
ATOM      7 O    GLY G   2      18.215 -12.915  22.610  1.00 47.02 LIG-0.27  OA
ATOM      8  N   GLY G   3      20.015 -12.634  23.950  1.00 46.62 LIG-0.35  N 
ATOM      9 H    GLY G   3      20.622 -12.962  24.463  1.00 46.62 LIG 0.16  HD
BRANCH 8 10
ATOM     10  CA  GLY G   3      20.031 -11.177  23.872  1.00 46.72 LIG 0.21  C 
BRANCH 10 11
ATOM     11  C   GLY G   3      20.281 -10.621  22.480  1.00 46.79 LIG 0.21  C 
ATOM     12 O    GLY G   3      21.356 -10.799  21.916  1.00 46.39 LIG-0.29  OA
ENDBRANCH 10 11
ENDBRANCH 8 10
ENDBRANCH 5 6
ENDBRANCH 3 5
BRANCH 1 13
ATOM     13  CA  GLY G   1      20.645 -15.853  20.032  1.00 43.33 LIG 0.33  C 
BRANCH 13 14
ATOM     14  N   GLY G   1      19.481 -15.306  19.300  1.00 42.49 LIG-0.07  N 
ATOM     15 H2   GLY G   1      19.550 -14.420  19.252  1.00 42.49 LIG 0.27  HD
ATOM     16 H3   GLY G   1      19.460 -15.646  18.479  1.00 42.49 LIG 0.27  HD
ATOM     17 H1   GLY G   1      18.732 -15.521  19.730  1.00 42.49 LIG 0.27  HD
ENDBRANCH 13 14
ENDBRANCH 1 13
TORSDOF 6
ENDMDL
MODEL 28
USER: ADFR SOLUTION from run 106
USER: SCORE 7.114889 LL:  -0.761 LR:  -7.034 RR:   0.000 FEB:  -5.244
USER: RMSD 7.592251
USER: SEED 105
USER: STATUS no improvement in best in 22 clusters for 5 generations
USER: GENES 8
USER: genes 0 Translation |==|  0.35644 0.58099 0.52782
USER: genes 1 Rotation |==|  0.56040 0.41638 0.98386 0.57241
USER: genes 2 Torsion [C]-N--CA-[C] |==|  0.74860
USER: genes 3 Torsion [N]-CA--C-[N] |==|  0.28233
USER: genes 4 Torsion [C]-N--CA-[C] |==|  0.27255
USER: genes 5 Torsion [N]-CA--C-[O] |==|  0.50199
USER: genes 6 Torsion [N]-C--CA-[N] |==|  0.89859
USER: genes 7 Torsion [C]-CA--N-[H2] |==|  0.32342
ROOT
ATOM      1  C   GLY G   1      23.380 -15.772  18.564  1.00 43.90 LIG 0.24  C 
ATOM      2 O    GLY G   1      22.439 -15.600  17.785  1.00 43.93 LIG-0.27  OA
ATOM      3  N   GLY G   2      23.264 -15.740  19.894  1.00 44.62 LIG-0.35  N 
ATOM      4 H    GLY G   2      23.936 -15.716  20.430  1.00 44.62 LIG 0.16  HD
ENDROOT
BRANCH 3 5
ATOM      5  CA  GLY G   2      21.974 -15.742  20.559  1.00 45.53 LIG 0.23  C 
BRANCH 5 6
ATOM      6  C   GLY G   2      21.418 -14.366  20.812  1.00 46.02 LIG 0.23  C 
ATOM      7 O    GLY G   2      21.859 -13.683  21.734  1.00 47.02 LIG-0.27  OA
ATOM      8  N   GLY G   3      20.470 -13.956  19.971  1.00 46.62 LIG-0.35  N 
ATOM      9 H    GLY G   3      20.204 -14.416  19.294  1.00 46.62 LIG 0.16  HD
BRANCH 8 10
ATOM     10  CA  GLY G   3      19.788 -12.675  20.121  1.00 46.72 LIG 0.21  C 
BRANCH 10 11
ATOM     11  C   GLY G   3      20.337 -11.559  19.247  1.00 46.79 LIG 0.21  C 
ATOM     12 O    GLY G   3      19.856 -10.431  19.293  1.00 46.39 LIG-0.29  OA
ENDBRANCH 10 11
ENDBRANCH 8 10
ENDBRANCH 5 6
ENDBRANCH 3 5
BRANCH 1 13
ATOM     13  CA  GLY G   1      24.764 -16.054  18.038  1.00 43.33 LIG 0.33  C 
BRANCH 13 14
ATOM     14  N   GLY G   1      25.757 -15.398  18.918  1.00 42.49 LIG-0.07  N 
ATOM     15 H2   GLY G   1      26.268 -16.017  19.303  1.00 42.49 LIG 0.27  HD
ATOM     16 H3   GLY G   1      26.267 -14.852  18.435  1.00 42.49 LIG 0.27  HD
ATOM     17 H1   GLY G   1      25.335 -14.930  19.547  1.00 42.49 LIG 0.27  HD
ENDBRANCH 13 14
ENDBRANCH 1 13
TORSDOF 6
ENDMDL
MODEL 29
USER: ADFR SOLUTION from run 88
USER: SCORE 7.780460 LL:  -0.838 LR:  -6.968 RR:   0.000 FEB:  -5.179
USER: RMSD 5.769537
USER: SEED 87
USER: STATUS no improvement in best in 34 clusters for 5 generations
USER: GENES 8
USER: genes 0 Translation |==|  0.43599 0.40350 0.49962
USER: genes 1 Rotation |==|  0.35276 0.72814 0.91364 0.57193
USER: genes 2 Torsion [C]-N--CA-[C] |==|  0.73889
USER: genes 3 Torsion [N]-CA--C-[N] |==|  0.01666
USER: genes 4 Torsion [C]-N--CA-[C] |==|  0.66379
USER: genes 5 Torsion [N]-CA--C-[O] |==|  0.15003
USER: genes 6 Torsion [N]-C--CA-[N] |==|  0.90653
USER: genes 7 Torsion [C]-CA--N-[H2] |==|  0.86200
ROOT
ATOM      1  C   GLY G   1      24.752 -18.035  18.163  1.00 43.90 LIG 0.24  C 
ATOM      2 O    GLY G   1      24.356 -19.055  17.592  1.00 43.93 LIG-0.27  OA
ATOM      3  N   GLY G   2      24.137 -16.853  18.093  1.00 44.62 LIG-0.35  N 
ATOM      4 H    GLY G   2      24.486 -16.117  18.368  1.00 44.62 LIG 0.16  HD
ENDROOT
BRANCH 3 5
ATOM      5  CA  GLY G   2      22.803 -16.707  17.537  1.00 45.53 LIG 0.23  C 
BRANCH 5 6
ATOM      6  C   GLY G   2      22.789 -16.342  16.077  1.00 46.02 LIG 0.23  C 
ATOM      7 O    GLY G   2      21.731 -16.055  15.522  1.00 47.02 LIG-0.27  OA
ATOM      8  N   GLY G   3      23.975 -16.327  15.468  1.00 46.62 LIG-0.35  N 
ATOM      9 H    GLY G   3      24.719 -16.475  15.874  1.00 46.62 LIG 0.16  HD
BRANCH 8 10
ATOM     10  CA  GLY G   3      24.122 -16.056  14.042  1.00 46.72 LIG 0.21  C 
BRANCH 10 11
ATOM     11  C   GLY G   3      24.788 -17.169  13.252  1.00 46.79 LIG 0.21  C 
ATOM     12 O    GLY G   3      24.357 -18.318  13.297  1.00 46.39 LIG-0.29  OA
ENDBRANCH 10 11
ENDBRANCH 8 10
ENDBRANCH 5 6
ENDBRANCH 3 5
BRANCH 1 13
ATOM     13  CA  GLY G   1      25.995 -18.073  19.015  1.00 43.33 LIG 0.33  C 
BRANCH 13 14
ATOM     14  N   GLY G   1      26.686 -16.767  18.918  1.00 42.49 LIG-0.07  N 
ATOM     15 H2   GLY G   1      26.775 -16.542  18.062  1.00 42.49 LIG 0.27  HD
ATOM     16 H3   GLY G   1      26.209 -16.147  19.340  1.00 42.49 LIG 0.27  HD
ATOM     17 H1   GLY G   1      27.491 -16.829  19.293  1.00 42.49 LIG 0.27  HD
ENDBRANCH 13 14
ENDBRANCH 1 13
TORSDOF 6
ENDMDL
MODEL 30
USER: ADFR SOLUTION from run 152
USER: SCORE 7.685542 LL:  -0.838 LR:  -6.968 RR:   0.000 FEB:  -5.179
USER: RMSD 9.417560
USER: SEED 151
USER: STATUS no improvement in best in 29 clusters for 5 generations
USER: GENES 8
USER: genes 0 Translation |==|  0.25538 0.63749 0.76672
USER: genes 1 Rotation |==|  0.46430 0.09533 0.63670 0.75745
USER: genes 2 Torsion [C]-N--CA-[C] |==|  0.17233
USER: genes 3 Torsion [N]-CA--C-[N] |==|  0.03334
USER: genes 4 Torsion [C]-N--CA-[C] |==|  0.34963
USER: genes 5 Torsion [N]-CA--C-[O] |==|  0.41631
USER: genes 6 Torsion [N]-C--CA-[N] |==|  0.69691
USER: genes 7 Torsion [C]-CA--N-[H2] |==|  0.99440
ROOT
ATOM      1  C   GLY G   1      21.636 -15.052  21.969  1.00 43.90 LIG 0.24  C 
ATOM      2 O    GLY G   1      22.083 -14.114  22.633  1.00 43.93 LIG-0.27  OA
ATOM      3  N   GLY G   2      20.441 -15.610  22.173  1.00 44.62 LIG-0.35  N 
ATOM      4 H    GLY G   2      20.191 -16.349  21.810  1.00 44.62 LIG 0.16  HD
ENDROOT
BRANCH 3 5
ATOM      5  CA  GLY G   2      19.444 -15.008  23.040  1.00 45.53 LIG 0.23  C 
BRANCH 5 6
ATOM      6  C   GLY G   2      18.981 -13.651  22.583  1.00 46.02 LIG 0.23  C 
ATOM      7 O    GLY G   2      18.335 -12.931  23.342  1.00 47.02 LIG-0.27  OA
ATOM      8  N   GLY G   3      19.341 -13.296  21.349  1.00 46.62 LIG-0.35  N 
ATOM      9 H    GLY G   3      19.839 -13.781  20.843  1.00 46.62 LIG 0.16  HD
BRANCH 8 10
ATOM     10  CA  GLY G   3      18.917 -12.041  20.738  1.00 46.72 LIG 0.21  C 
BRANCH 10 11
ATOM     11  C   GLY G   3      20.052 -11.179  20.212  1.00 46.79 LIG 0.21  C 
ATOM     12 O    GLY G   3      19.883 -10.437  19.249  1.00 46.39 LIG-0.29  OA
ENDBRANCH 10 11
ENDBRANCH 8 10
ENDBRANCH 5 6
ENDBRANCH 3 5
BRANCH 1 13
ATOM     13  CA  GLY G   1      22.441 -15.635  20.835  1.00 43.33 LIG 0.33  C 
BRANCH 13 14
ATOM     14  N   GLY G   1      23.584 -16.391  21.393  1.00 42.49 LIG-0.07  N 
ATOM     15 H2   GLY G   1      23.580 -16.324  22.281  1.00 42.49 LIG 0.27  HD
ATOM     16 H3   GLY G   1      23.516 -17.247  21.161  1.00 42.49 LIG 0.27  HD
ATOM     17 H1   GLY G   1      24.346 -16.058  21.075  1.00 42.49 LIG 0.27  HD
ENDBRANCH 13 14
ENDBRANCH 1 13
TORSDOF 6
ENDMDL
MODEL 31
USER: ADFR SOLUTION from run 103
USER: SCORE 7.701762 LL:  -0.986 LR:  -6.939 RR:   0.000 FEB:  -5.149
USER: RMSD 8.867043
USER: SEED 102
USER: STATUS no improvement in best in 31 clusters for 5 generations
USER: GENES 8
USER: genes 0 Translation |==|  0.28137 0.66318 0.66288
USER: genes 1 Rotation |==|  0.23397 0.08663 0.49063 0.59093
USER: genes 2 Torsion [C]-N--CA-[C] |==|  0.83144
USER: genes 3 Torsion [N]-CA--C-[N] |==|  0.86164
USER: genes 4 Torsion [C]-N--CA-[C] |==|  0.79166
USER: genes 5 Torsion [N]-CA--C-[O] |==|  0.68799
USER: genes 6 Torsion [N]-C--CA-[N] |==|  0.49213
USER: genes 7 Torsion [C]-CA--N-[H2] |==|  0.47584
ROOT
ATOM      1  C   GLY G   1      22.085 -14.724  20.489  1.00 43.90 LIG 0.24  C 
ATOM      2 O    GLY G   1      22.425 -14.170  21.537  1.00 43.93 LIG-0.27  OA
ATOM      3  N   GLY G   2      21.239 -14.194  19.603  1.00 44.62 LIG-0.35  N 
ATOM      4 H    GLY G   2      20.893 -14.635  18.951  1.00 44.62 LIG 0.16  HD
ENDROOT
BRANCH 3 5
ATOM      5  CA  GLY G   2      20.824 -12.804  19.666  1.00 45.53 LIG 0.23  C 
BRANCH 5 6
ATOM      6  C   GLY G   2      20.108 -12.440  20.939  1.00 46.02 LIG 0.23  C 
ATOM      7 O    GLY G   2      20.436 -11.435  21.566  1.00 47.02 LIG-0.27  OA
ATOM      8  N   GLY G   3      19.110 -13.247  21.298  1.00 46.62 LIG-0.35  N 
ATOM      9 H    GLY G   3      18.849 -13.918  20.827  1.00 46.62 LIG 0.16  HD
BRANCH 8 10
ATOM     10  CA  GLY G   3      18.361 -13.066  22.537  1.00 46.72 LIG 0.21  C 
BRANCH 10 11
ATOM     11  C   GLY G   3      19.104 -13.490  23.793  1.00 46.79 LIG 0.21  C 
ATOM     12 O    GLY G   3      18.731 -14.460  24.447  1.00 46.39 LIG-0.29  OA
ENDBRANCH 10 11
ENDBRANCH 8 10
ENDBRANCH 5 6
ENDBRANCH 3 5
BRANCH 1 13
ATOM     13  CA  GLY G   1      22.638 -16.080  20.129  1.00 43.33 LIG 0.33  C 
BRANCH 13 14
ATOM     14  N   GLY G   1      23.605 -16.498  21.170  1.00 42.49 LIG-0.07  N 
ATOM     15 H2   GLY G   1      23.840 -17.345  21.033  1.00 42.49 LIG 0.27  HD
ATOM     16 H3   GLY G   1      24.326 -15.980  21.130  1.00 42.49 LIG 0.27  HD
ATOM     17 H1   GLY G   1      23.228 -16.421  21.973  1.00 42.49 LIG 0.27  HD
ENDBRANCH 13 14
ENDBRANCH 1 13
TORSDOF 6
ENDMDL
MODEL 32
USER: ADFR SOLUTION from run 146
USER: SCORE 7.793762 LL:  -0.951 LR:  -6.913 RR:   0.000 FEB:  -5.123
USER: RMSD 7.553015
USER: SEED 145
USER: STATUS no improvement in best in 31 clusters for 5 generations
USER: GENES 8
USER: genes 0 Translation |==|  0.76851 0.61478 0.83293
USER: genes 1 Rotation |==|  0.19216 0.28352 0.73597 0.72954
USER: genes 2 Torsion [C]-N--CA-[C] |==|  0.17778
USER: genes 3 Torsion [N]-CA--C-[N] |==|  0.08403
USER: genes 4 Torsion [C]-N--CA-[C] |==|  0.72701
USER: genes 5 Torsion [N]-CA--C-[O] |==|  0.97802
USER: genes 6 Torsion [N]-C--CA-[N] |==|  0.25405
USER: genes 7 Torsion [C]-CA--N-[H2] |==|  0.67130
ROOT
ATOM      1  C   GLY G   1      30.488 -15.342  22.912  1.00 43.90 LIG 0.24  C 
ATOM      2 O    GLY G   1      31.578 -14.894  22.550  1.00 43.93 LIG-0.27  OA
ATOM      3  N   GLY G   2      29.380 -14.606  23.031  1.00 44.62 LIG-0.35  N 
ATOM      4 H    GLY G   2      28.663 -14.883  23.418  1.00 44.62 LIG 0.16  HD
ENDROOT
BRANCH 3 5
ATOM      5  CA  GLY G   2      29.290 -13.254  22.509  1.00 45.53 LIG 0.23  C 
BRANCH 5 6
ATOM      6  C   GLY G   2      29.409 -13.172  21.011  1.00 46.02 LIG 0.23  C 
ATOM      7 O    GLY G   2      29.919 -12.184  20.486  1.00 47.02 LIG-0.27  OA
ATOM      8  N   GLY G   3      28.963 -14.228  20.331  1.00 46.62 LIG-0.35  N 
ATOM      9 H    GLY G   3      28.659 -14.940  20.706  1.00 46.62 LIG 0.16  HD
BRANCH 8 10
ATOM     10  CA  GLY G   3      28.951 -14.275  18.873  1.00 46.72 LIG 0.21  C 
BRANCH 10 11
ATOM     11  C   GLY G   3      27.610 -13.943  18.241  1.00 46.79 LIG 0.21  C 
ATOM     12 O    GLY G   3      26.605 -13.805  18.933  1.00 46.39 LIG-0.29  OA
ENDBRANCH 10 11
ENDBRANCH 8 10
ENDBRANCH 5 6
ENDBRANCH 3 5
BRANCH 1 13
ATOM     13  CA  GLY G   1      30.335 -16.805  23.242  1.00 43.33 LIG 0.33  C 
BRANCH 13 14
ATOM     14  N   GLY G   1      30.000 -17.546  22.004  1.00 42.49 LIG-0.07  N 
ATOM     15 H2   GLY G   1      29.203 -17.930  22.095  1.00 42.49 LIG 0.27  HD
ATOM     16 H3   GLY G   1      29.982 -16.982  21.317  1.00 42.49 LIG 0.27  HD
ATOM     17 H1   GLY G   1      30.616 -18.172  21.857  1.00 42.49 LIG 0.27  HD
ENDBRANCH 13 14
ENDBRANCH 1 13
TORSDOF 6
ENDMDL
MODEL 33
USER: ADFR SOLUTION from run 171
USER: SCORE 7.023846 LL:  -0.748 LR:  -6.876 RR:   0.000 FEB:  -5.086
USER: RMSD 3.653884
USER: SEED 170
USER: STATUS no improvement in best in 31 clusters for 5 generations
USER: GENES 8
USER: genes 0 Translation |==|  0.40731 0.44070 0.23870
USER: genes 1 Rotation |==|  0.59016 0.20872 0.69808 0.84321
USER: genes 2 Torsion [C]-N--CA-[C] |==|  0.77086
USER: genes 3 Torsion [N]-CA--C-[N] |==|  0.22214
USER: genes 4 Torsion [C]-N--CA-[C] |==|  0.52767
USER: genes 5 Torsion [N]-CA--C-[O] |==|  0.18449
USER: genes 6 Torsion [N]-C--CA-[N] |==|  0.95200
USER: genes 7 Torsion [C]-CA--N-[H2] |==|  0.65721
ROOT
ATOM      1  C   GLY G   1      24.257 -17.561  14.444  1.00 43.90 LIG 0.24  C 
ATOM      2 O    GLY G   1      24.606 -16.426  14.777  1.00 43.93 LIG-0.27  OA
ATOM      3  N   GLY G   2      23.767 -18.470  15.290  1.00 44.62 LIG-0.35  N 
ATOM      4 H    GLY G   2      23.660 -19.300  15.089  1.00 44.62 LIG 0.16  HD
ENDROOT
BRANCH 3 5
ATOM      5  CA  GLY G   2      23.365 -18.131  16.643  1.00 45.53 LIG 0.23  C 
BRANCH 5 6
ATOM      6  C   GLY G   2      24.507 -18.087  17.623  1.00 46.02 LIG 0.23  C 
ATOM      7 O    GLY G   2      24.731 -19.050  18.354  1.00 47.02 LIG-0.27  OA
ATOM      8  N   GLY G   3      25.244 -16.976  17.612  1.00 46.62 LIG-0.35  N 
ATOM      9 H    GLY G   3      25.117 -16.328  17.060  1.00 46.62 LIG 0.16  HD
BRANCH 8 10
ATOM     10  CA  GLY G   3      26.345 -16.754  18.543  1.00 46.72 LIG 0.21  C 
BRANCH 10 11
ATOM     11  C   GLY G   3      26.908 -15.343  18.533  1.00 46.79 LIG 0.21  C 
ATOM     12 O    GLY G   3      26.231 -14.393  18.916  1.00 46.39 LIG-0.29  OA
ENDBRANCH 10 11
ENDBRANCH 8 10
ENDBRANCH 5 6
ENDBRANCH 3 5
BRANCH 1 13
ATOM     13  CA  GLY G   1      24.356 -17.998  13.005  1.00 43.33 LIG 0.33  C 
BRANCH 13 14
ATOM     14  N   GLY G   1      24.270 -19.475  12.942  1.00 42.49 LIG-0.07  N 
ATOM     15 H2   GLY G   1      24.991 -19.796  12.531  1.00 42.49 LIG 0.27  HD
ATOM     16 H3   GLY G   1      24.227 -19.805  13.767  1.00 42.49 LIG 0.27  HD
ATOM     17 H1   GLY G   1      23.541 -19.711  12.489  1.00 42.49 LIG 0.27  HD
ENDBRANCH 13 14
ENDBRANCH 1 13
TORSDOF 6
ENDMDL
MODEL 34
USER: ADFR SOLUTION from run 183
USER: SCORE 7.367102 LL:  -0.765 LR:  -6.865 RR:   0.000 FEB:  -5.076
USER: RMSD 5.472166
USER: SEED 182
USER: STATUS no improvement in best in 29 clusters for 5 generations
USER: GENES 8
USER: genes 0 Translation |==|  0.41834 0.35655 0.36727
USER: genes 1 Rotation |==|  0.44039 0.05905 0.31124 0.62797
USER: genes 2 Torsion [C]-N--CA-[C] |==|  0.20556
USER: genes 3 Torsion [N]-CA--C-[N] |==|  0.65847
USER: genes 4 Torsion [C]-N--CA-[C] |==|  0.61788
USER: genes 5 Torsion [N]-CA--C-[O] |==|  0.52845
USER: genes 6 Torsion [N]-C--CA-[N] |==|  0.83404
USER: genes 7 Torsion [C]-CA--N-[H2] |==|  0.41526
ROOT
ATOM      1  C   GLY G   1      24.447 -18.634  16.277  1.00 43.90 LIG 0.24  C 
ATOM      2 O    GLY G   1      24.356 -19.057  17.431  1.00 43.93 LIG-0.27  OA
ATOM      3  N   GLY G   2      23.456 -18.024  15.624  1.00 44.62 LIG-0.35  N 
ATOM      4 H    GLY G   2      23.471 -17.860  14.779  1.00 44.62 LIG 0.16  HD
ENDROOT
BRANCH 3 5
ATOM      5  CA  GLY G   2      22.248 -17.577  16.294  1.00 45.53 LIG 0.23  C 
BRANCH 5 6
ATOM      6  C   GLY G   2      22.441 -16.349  17.142  1.00 46.02 LIG 0.23  C 
ATOM      7 O    GLY G   2      22.856 -15.308  16.636  1.00 47.02 LIG-0.27  OA
ATOM      8  N   GLY G   3      22.110 -16.470  18.427  1.00 46.62 LIG-0.35  N 
ATOM      9 H    GLY G   3      21.768 -17.183  18.764  1.00 46.62 LIG 0.16  HD
BRANCH 8 10
ATOM     10  CA  GLY G   3      22.298 -15.390  19.391  1.00 46.72 LIG 0.21  C 
BRANCH 10 11
ATOM     11  C   GLY G   3      22.850 -15.833  20.736  1.00 46.79 LIG 0.21  C 
ATOM     12 O    GLY G   3      22.878 -15.059  21.689  1.00 46.39 LIG-0.29  OA
ENDBRANCH 10 11
ENDBRANCH 8 10
ENDBRANCH 5 6
ENDBRANCH 3 5
BRANCH 1 13
ATOM     13  CA  GLY G   1      25.739 -18.776  15.513  1.00 43.33 LIG 0.33  C 
BRANCH 13 14
ATOM     14  N   GLY G   1      25.489 -19.562  14.283  1.00 42.49 LIG-0.07  N 
ATOM     15 H2   GLY G   1      26.051 -19.300  13.644  1.00 42.49 LIG 0.27  HD
ATOM     16 H3   GLY G   1      25.615 -20.426  14.453  1.00 42.49 LIG 0.27  HD
ATOM     17 H1   GLY G   1      24.651 -19.432  14.013  1.00 42.49 LIG 0.27  HD
ENDBRANCH 13 14
ENDBRANCH 1 13
TORSDOF 6
ENDMDL
MODEL 35
USER: ADFR SOLUTION from run 75
USER: SCORE 7.619836 LL:  -0.765 LR:  -6.859 RR:   0.000 FEB:  -5.070
USER: RMSD 6.274209
USER: SEED 74
USER: STATUS no improvement in best in 32 clusters for 5 generations
USER: GENES 8
USER: genes 0 Translation |==|  0.78871 0.45714 0.66093
USER: genes 1 Rotation |==|  0.68788 0.73147 0.18915 0.75396
USER: genes 2 Torsion [C]-N--CA-[C] |==|  0.77244
USER: genes 3 Torsion [N]-CA--C-[N] |==|  0.96948
USER: genes 4 Torsion [C]-N--CA-[C] |==|  0.33411
USER: genes 5 Torsion [N]-CA--C-[O] |==|  0.66305
USER: genes 6 Torsion [N]-C--CA-[N] |==|  0.87985
USER: genes 7 Torsion [C]-CA--N-[H2] |==|  0.18709
ROOT
ATOM      1  C   GLY G   1      30.836 -17.351  20.461  1.00 43.90 LIG 0.24  C 
ATOM      2 O    GLY G   1      31.057 -16.661  19.464  1.00 43.93 LIG-0.27  OA
ATOM      3  N   GLY G   2      30.373 -18.602  20.417  1.00 44.62 LIG-0.35  N 
ATOM      4 H    GLY G   2      30.085 -19.029  21.106  1.00 44.62 LIG 0.16  HD
ENDROOT
BRANCH 3 5
ATOM      5  CA  GLY G   2      30.314 -19.362  19.181  1.00 45.53 LIG 0.23  C 
BRANCH 5 6
ATOM      6  C   GLY G   2      29.107 -19.055  18.336  1.00 46.02 LIG 0.23  C 
ATOM      7 O    GLY G   2      29.026 -19.497  17.191  1.00 47.02 LIG-0.27  OA
ATOM      8  N   GLY G   3      28.158 -18.323  18.918  1.00 46.62 LIG-0.35  N 
ATOM      9 H    GLY G   3      28.194 -18.063  19.738  1.00 46.62 LIG 0.16  HD
BRANCH 8 10
ATOM     10  CA  GLY G   3      26.957 -17.888  18.212  1.00 46.72 LIG 0.21  C 
BRANCH 10 11
ATOM     11  C   GLY G   3      25.653 -18.375  18.822  1.00 46.79 LIG 0.21  C 
ATOM     12 O    GLY G   3      24.868 -19.055  18.168  1.00 46.39 LIG-0.29  OA
ENDBRANCH 10 11
ENDBRANCH 8 10
ENDBRANCH 5 6
ENDBRANCH 3 5
BRANCH 1 13
ATOM     13  CA  GLY G   1      31.102 -16.805  21.841  1.00 43.33 LIG 0.33  C 
BRANCH 13 14
ATOM     14  N   GLY G   1      29.981 -17.180  22.733  1.00 42.49 LIG-0.07  N 
ATOM     15 H2   GLY G   1      29.981 -18.062  22.854  1.00 42.49 LIG 0.27  HD
ATOM     16 H3   GLY G   1      30.077 -16.772  23.517  1.00 42.49 LIG 0.27  HD
ATOM     17 H1   GLY G   1      29.210 -16.932  22.362  1.00 42.49 LIG 0.27  HD
ENDBRANCH 13 14
ENDBRANCH 1 13
TORSDOF 6
ENDMDL
MODEL 36
USER: ADFR SOLUTION from run 191
USER: SCORE 7.528412 LL:  -0.868 LR:  -6.848 RR:   0.000 FEB:  -5.058
USER: RMSD 4.570833
USER: SEED 190
USER: STATUS no improvement in best in 33 clusters for 5 generations
USER: GENES 8
USER: genes 0 Translation |==|  0.25796 0.60106 0.65035
USER: genes 1 Rotation |==|  0.87423 0.55514 0.48921 0.82679
USER: genes 2 Torsion [C]-N--CA-[C] |==|  0.75559
USER: genes 3 Torsion [N]-CA--C-[N] |==|  0.43409
USER: genes 4 Torsion [C]-N--CA-[C] |==|  0.36174
USER: genes 5 Torsion [N]-CA--C-[O] |==|  0.95590
USER: genes 6 Torsion [N]-C--CA-[N] |==|  0.78592
USER: genes 7 Torsion [C]-CA--N-[H2] |==|  0.42158
ROOT
ATOM      1  C   GLY G   1      21.681 -15.516  20.310  1.00 43.90 LIG 0.24  C 
ATOM      2 O    GLY G   1      22.324 -14.533  20.686  1.00 43.93 LIG-0.27  OA
ATOM      3  N   GLY G   2      22.218 -16.567  19.687  1.00 44.62 LIG-0.35  N 
ATOM      4 H    GLY G   2      21.755 -17.180  19.300  1.00 44.62 LIG 0.16  HD
ENDROOT
BRANCH 3 5
ATOM      5  CA  GLY G   2      23.654 -16.768  19.607  1.00 45.53 LIG 0.23  C 
BRANCH 5 6
ATOM      6  C   GLY G   2      24.297 -16.096  18.423  1.00 46.02 LIG 0.23  C 
ATOM      7 O    GLY G   2      23.624 -15.809  17.435  1.00 47.02 LIG-0.27  OA
ATOM      8  N   GLY G   3      25.595 -15.820  18.543  1.00 46.62 LIG-0.35  N 
ATOM      9 H    GLY G   3      26.049 -15.973  19.258  1.00 46.62 LIG 0.16  HD
BRANCH 8 10
ATOM     10  CA  GLY G   3      26.375 -15.229  17.461  1.00 46.72 LIG 0.21  C 
BRANCH 10 11
ATOM     11  C   GLY G   3      27.203 -14.021  17.865  1.00 46.79 LIG 0.21  C 
ATOM     12 O    GLY G   3      26.981 -13.430  18.918  1.00 46.39 LIG-0.29  OA
ENDBRANCH 10 11
ENDBRANCH 8 10
ENDBRANCH 5 6
ENDBRANCH 3 5
BRANCH 1 13
ATOM     13  CA  GLY G   1      20.196 -15.596  20.557  1.00 43.33 LIG 0.33  C 
BRANCH 13 14
ATOM     14  N   GLY G   1      19.481 -15.305  19.293  1.00 42.49 LIG-0.07  N 
ATOM     15 H2   GLY G   1      18.696 -15.724  19.293  1.00 42.49 LIG 0.27  HD
ATOM     16 H3   GLY G   1      19.349 -14.428  19.221  1.00 42.49 LIG 0.27  HD
ATOM     17 H1   GLY G   1      19.968 -15.589  18.604  1.00 42.49 LIG 0.27  HD
ENDBRANCH 13 14
ENDBRANCH 1 13
TORSDOF 6
ENDMDL
MODEL 37
USER: ADFR SOLUTION from run 50
USER: SCORE 7.743123 LL:  -0.955 LR:  -6.806 RR:   0.000 FEB:  -5.016
USER: RMSD 4.982840
USER: SEED 49
USER: STATUS no improvement in best in 28 clusters for 5 generations
USER: GENES 8
USER: genes 0 Translation |==|  0.26659 0.62082 0.63421
USER: genes 1 Rotation |==|  0.65372 0.87143 0.31593 0.73352
USER: genes 2 Torsion [C]-N--CA-[C] |==|  0.22043
USER: genes 3 Torsion [N]-CA--C-[N] |==|  0.04551
USER: genes 4 Torsion [C]-N--CA-[C] |==|  0.43416
USER: genes 5 Torsion [N]-CA--C-[O] |==|  0.84112
USER: genes 6 Torsion [N]-C--CA-[N] |==|  0.13150
USER: genes 7 Torsion [C]-CA--N-[H2] |==|  0.72197
ROOT
ATOM      1  C   GLY G   1      21.830 -15.264  20.080  1.00 43.90 LIG 0.24  C 
ATOM      2 O    GLY G   1      21.423 -14.194  19.622  1.00 43.93 LIG-0.27  OA
ATOM      3  N   GLY G   2      21.898 -16.399  19.381  1.00 44.62 LIG-0.35  N 
ATOM      4 H    GLY G   2      22.043 -17.170  19.735  1.00 44.62 LIG 0.16  HD
ENDROOT
BRANCH 3 5
ATOM      5  CA  GLY G   2      21.731 -16.430  17.939  1.00 45.53 LIG 0.23  C 
BRANCH 5 6
ATOM      6  C   GLY G   2      22.959 -16.013  17.175  1.00 46.02 LIG 0.23  C 
ATOM      7 O    GLY G   2      22.869 -15.680  15.996  1.00 47.02 LIG-0.27  OA
ATOM      8  N   GLY G   3      24.100 -16.005  17.865  1.00 46.62 LIG-0.35  N 
ATOM      9 H    GLY G   3      24.149 -16.185  18.705  1.00 46.62 LIG 0.16  HD
BRANCH 8 10
ATOM     10  CA  GLY G   3      25.385 -15.686  17.252  1.00 46.72 LIG 0.21  C 
BRANCH 10 11
ATOM     11  C   GLY G   3      26.440 -15.178  18.221  1.00 46.79 LIG 0.21  C 
ATOM     12 O    GLY G   3      26.231 -14.186  18.913  1.00 46.39 LIG-0.29  OA
ENDBRANCH 10 11
ENDBRANCH 8 10
ENDBRANCH 5 6
ENDBRANCH 3 5
BRANCH 1 13
ATOM     13  CA  GLY G   1      22.304 -15.351  21.509  1.00 43.33 LIG 0.33  C 
BRANCH 13 14
ATOM     14  N   GLY G   1      23.606 -16.055  21.543  1.00 42.49 LIG-0.07  N 
ATOM     15 H2   GLY G   1      23.479 -16.903  21.783  1.00 42.49 LIG 0.27  HD
ATOM     16 H3   GLY G   1      23.980 -16.028  20.736  1.00 42.49 LIG 0.27  HD
ATOM     17 H1   GLY G   1      24.143 -15.658  22.132  1.00 42.49 LIG 0.27  HD
ENDBRANCH 13 14
ENDBRANCH 1 13
TORSDOF 6
ENDMDL
MODEL 38
USER: ADFR SOLUTION from run 146
USER: SCORE 7.572850 LL:  -0.873 LR:  -6.806 RR:   0.000 FEB:  -5.016
USER: RMSD 4.274130
USER: SEED 145
USER: STATUS no improvement in best in 31 clusters for 5 generations
USER: GENES 8
USER: genes 0 Translation |==|  0.40647 0.50952 0.21282
USER: genes 1 Rotation |==|  0.40424 0.24686 0.13611 0.71056
USER: genes 2 Torsion [C]-N--CA-[C] |==|  0.19123
USER: genes 3 Torsion [N]-CA--C-[N] |==|  0.55936
USER: genes 4 Torsion [C]-N--CA-[C] |==|  0.78482
USER: genes 5 Torsion [N]-CA--C-[O] |==|  0.89174
USER: genes 6 Torsion [N]-C--CA-[N] |==|  0.86931
USER: genes 7 Torsion [C]-CA--N-[H2] |==|  0.39323
ROOT
ATOM      1  C   GLY G   1      24.243 -16.684  14.076  1.00 43.90 LIG 0.24  C 
ATOM      2 O    GLY G   1      24.285 -17.876  14.386  1.00 43.93 LIG-0.27  OA
ATOM      3  N   GLY G   2      23.484 -15.776  14.695  1.00 44.62 LIG-0.35  N 
ATOM      4 H    GLY G   2      23.345 -14.984  14.391  1.00 44.62 LIG 0.16  HD
ENDROOT
BRANCH 3 5
ATOM      5  CA  GLY G   2      22.818 -16.055  15.954  1.00 45.53 LIG 0.23  C 
BRANCH 5 6
ATOM      6  C   GLY G   2      23.758 -16.205  17.119  1.00 46.02 LIG 0.23  C 
ATOM      7 O    GLY G   2      24.878 -15.700  17.078  1.00 47.02 LIG-0.27  OA
ATOM      8  N   GLY G   3      23.285 -16.877  18.169  1.00 46.62 LIG-0.35  N 
ATOM      9 H    GLY G   3      22.481 -17.180  18.215  1.00 46.62 LIG 0.16  HD
BRANCH 8 10
ATOM     10  CA  GLY G   3      24.094 -17.162  19.349  1.00 46.72 LIG 0.21  C 
BRANCH 10 11
ATOM     11  C   GLY G   3      25.083 -18.303  19.177  1.00 46.79 LIG 0.21  C 
ATOM     12 O    GLY G   3      24.777 -19.310  18.546  1.00 46.39 LIG-0.29  OA
ENDBRANCH 10 11
ENDBRANCH 8 10
ENDBRANCH 5 6
ENDBRANCH 3 5
BRANCH 1 13
ATOM     13  CA  GLY G   1      25.089 -16.161  12.943  1.00 43.33 LIG 0.33  C 
BRANCH 13 14
ATOM     14  N   GLY G   1      24.253 -15.305  12.071  1.00 42.49 LIG-0.07  N 
ATOM     15 H2   GLY G   1      24.731 -14.607  11.795  1.00 42.49 LIG 0.27  HD
ATOM     16 H3   GLY G   1      23.981 -15.776  11.367  1.00 42.49 LIG 0.27  HD
ATOM     17 H1   GLY G   1      23.545 -15.017  12.527  1.00 42.49 LIG 0.27  HD
ENDBRANCH 13 14
ENDBRANCH 1 13
TORSDOF 6
ENDMDL
MODEL 39
USER: ADFR SOLUTION from run 150
USER: SCORE 7.580546 LL:  -0.842 LR:  -6.800 RR:   0.000 FEB:  -5.010
USER: RMSD 10.019500
USER: SEED 149
USER: STATUS no improvement in best in 30 clusters for 5 generations
USER: GENES 8
USER: genes 0 Translation |==|  0.11133 0.72313 0.75243
USER: genes 1 Rotation |==|  0.30489 0.10356 0.27923 0.57763
USER: genes 2 Torsion [C]-N--CA-[C] |==|  0.18541
USER: genes 3 Torsion [N]-CA--C-[N] |==|  0.04787
USER: genes 4 Torsion [C]-N--CA-[C] |==|  0.23597
USER: genes 5 Torsion [N]-CA--C-[O] |==|  0.29515
USER: genes 6 Torsion [N]-C--CA-[N] |==|  0.86945
USER: genes 7 Torsion [C]-CA--N-[H2] |==|  0.79027
ROOT
ATOM      1  C   GLY G   1      19.151 -13.960  21.765  1.00 43.90 LIG 0.24  C 
ATOM      2 O    GLY G   1      18.889 -14.291  22.924  1.00 43.93 LIG-0.27  OA
ATOM      3  N   GLY G   2      18.667 -12.867  21.172  1.00 44.62 LIG-0.35  N 
ATOM      4 H    GLY G   2      18.732 -12.713  20.328  1.00 44.62 LIG 0.16  HD
ENDROOT
BRANCH 3 5
ATOM      5  CA  GLY G   2      17.975 -11.827  21.913  1.00 45.53 LIG 0.23  C 
BRANCH 5 6
ATOM      6  C   GLY G   2      18.857 -11.079  22.877  1.00 46.02 LIG 0.23  C 
ATOM      7 O    GLY G   2      18.357 -10.430  23.794  1.00 47.02 LIG-0.27  OA
ATOM      8  N   GLY G   3      20.169 -11.200  22.681  1.00 46.62 LIG-0.35  N 
ATOM      9 H    GLY G   3      20.515 -11.700  22.072  1.00 46.62 LIG 0.16  HD
BRANCH 8 10
ATOM     10  CA  GLY G   3      21.152 -10.487  23.490  1.00 46.72 LIG 0.21  C 
BRANCH 10 11
ATOM     11  C   GLY G   3      21.524 -11.180  24.791  1.00 46.79 LIG 0.21  C 
ATOM     12 O    GLY G   3      22.610 -11.737  24.918  1.00 46.39 LIG-0.29  OA
ENDBRANCH 10 11
ENDBRANCH 8 10
ENDBRANCH 5 6
ENDBRANCH 3 5
BRANCH 1 13
ATOM     13  CA  GLY G   1      20.083 -14.797  20.925  1.00 43.33 LIG 0.33  C 
BRANCH 13 14
ATOM     14  N   GLY G   1      19.481 -14.993  19.587  1.00 42.49 LIG-0.07  N 
ATOM     15 H2   GLY G   1      18.826 -15.593  19.641  1.00 42.49 LIG 0.27  HD
ATOM     16 H3   GLY G   1      19.152 -14.220  19.293  1.00 42.49 LIG 0.27  HD
ATOM     17 H1   GLY G   1      20.103 -15.285  19.021  1.00 42.49 LIG 0.27  HD
ENDBRANCH 13 14
ENDBRANCH 1 13
TORSDOF 6
ENDMDL
MODEL 40
USER: ADFR SOLUTION from run 62
USER: SCORE 6.951484 LL:  -0.723 LR:  -6.778 RR:   0.000 FEB:  -4.988
USER: RMSD 8.110339
USER: SEED 61
USER: STATUS no improvement in best in 27 clusters for 5 generations
USER: GENES 8
USER: genes 0 Translation |==|  0.10499 0.75860 0.79525
USER: genes 1 Rotation |==|  0.49465 0.90144 0.43107 0.78995
USER: genes 2 Torsion [C]-N--CA-[C] |==|  0.56932
USER: genes 3 Torsion [N]-CA--C-[N] |==|  0.63333
USER: genes 4 Torsion [C]-N--CA-[C] |==|  0.46732
USER: genes 5 Torsion [N]-CA--C-[O] |==|  0.78993
USER: genes 6 Torsion [N]-C--CA-[N] |==|  0.79674
USER: genes 7 Torsion [C]-CA--N-[H2] |==|  0.09293
ROOT
ATOM      1  C   GLY G   1      19.042 -13.508  22.375  1.00 43.90 LIG 0.24  C 
ATOM      2 O    GLY G   1      17.981 -13.076  21.918  1.00 43.93 LIG-0.27  OA
ATOM      3  N   GLY G   2      19.933 -14.203  21.666  1.00 44.62 LIG-0.35  N 
ATOM      4 H    GLY G   2      20.597 -14.625  22.015  1.00 44.62 LIG 0.16  HD
ENDROOT
BRANCH 3 5
ATOM      5  CA  GLY G   2      19.857 -14.311  20.220  1.00 45.53 LIG 0.23  C 
BRANCH 5 6
ATOM      6  C   GLY G   2      20.522 -15.542  19.666  1.00 46.02 LIG 0.23  C 
ATOM      7 O    GLY G   2      20.273 -16.647  20.145  1.00 47.02 LIG-0.27  OA
ATOM      8  N   GLY G   3      21.344 -15.348  18.635  1.00 46.62 LIG-0.35  N 
ATOM      9 H    GLY G   3      21.472 -14.580  18.268  1.00 46.62 LIG 0.16  HD
BRANCH 8 10
ATOM     10  CA  GLY G   3      22.112 -16.430  18.028  1.00 46.72 LIG 0.21  C 
BRANCH 10 11
ATOM     11  C   GLY G   3      22.769 -16.075  16.705  1.00 46.79 LIG 0.21  C 
ATOM     12 O    GLY G   3      22.106 -15.999  15.675  1.00 46.39 LIG-0.29  OA
ENDBRANCH 10 11
ENDBRANCH 8 10
ENDBRANCH 5 6
ENDBRANCH 3 5
BRANCH 1 13
ATOM     13  CA  GLY G   1      19.412 -13.253  23.814  1.00 43.33 LIG 0.33  C 
BRANCH 13 14
ATOM     14  N   GLY G   1      19.273 -14.512  24.579  1.00 42.49 LIG-0.07  N 
ATOM     15 H2   GLY G   1      19.481 -15.202  24.056  1.00 42.49 LIG 0.27  HD
ATOM     16 H3   GLY G   1      19.821 -14.496  25.280  1.00 42.49 LIG 0.27  HD
ATOM     17 H1   GLY G   1      18.433 -14.598  24.861  1.00 42.49 LIG 0.27  HD
ENDBRANCH 13 14
ENDBRANCH 1 13
TORSDOF 6
ENDMDL
MODEL 41
USER: ADFR SOLUTION from run 69
USER: SCORE 7.192610 LL:  -0.881 LR:  -6.741 RR:   0.000 FEB:  -4.951
USER: RMSD 5.226697
USER: SEED 68
USER: STATUS no improvement in best in 30 clusters for 5 generations
USER: GENES 8
USER: genes 0 Translation |==|  0.36197 0.54120 0.59267
USER: genes 1 Rotation |==|  0.56685 0.73877 0.37361 0.91539
USER: genes 2 Torsion [C]-N--CA-[C] |==|  0.84286
USER: genes 3 Torsion [N]-CA--C-[N] |==|  0.30000
USER: genes 4 Torsion [C]-N--CA-[C] |==|  0.28678
USER: genes 5 Torsion [N]-CA--C-[O] |==|  0.96105
USER: genes 6 Torsion [N]-C--CA-[N] |==|  0.08683
USER: genes 7 Torsion [C]-CA--N-[H2] |==|  0.89512
ROOT
ATOM      1  C   GLY G   1      23.475 -16.280  19.489  1.00 43.90 LIG 0.24  C 
ATOM      2 O    GLY G   1      23.279 -15.733  18.401  1.00 43.93 LIG-0.27  OA
ATOM      3  N   GLY G   2      24.332 -17.286  19.675  1.00 44.62 LIG-0.35  N 
ATOM      4 H    GLY G   2      24.363 -17.759  20.393  1.00 44.62 LIG 0.16  HD
ENDROOT
BRANCH 3 5
ATOM      5  CA  GLY G   2      25.300 -17.675  18.665  1.00 45.53 LIG 0.23  C 
BRANCH 5 6
ATOM      6  C   GLY G   2      24.685 -18.023  17.336  1.00 46.02 LIG 0.23  C 
ATOM      7 O    GLY G   2      24.028 -19.054  17.211  1.00 47.02 LIG-0.27  OA
ATOM      8  N   GLY G   3      24.878 -17.142  16.355  1.00 46.62 LIG-0.35  N 
ATOM      9 H    GLY G   3      25.292 -16.395  16.463  1.00 46.62 LIG 0.16  HD
BRANCH 8 10
ATOM     10  CA  GLY G   3      24.401 -17.364  14.995  1.00 46.72 LIG 0.21  C 
BRANCH 10 11
ATOM     11  C   GLY G   3      23.151 -16.583  14.626  1.00 46.79 LIG 0.21  C 
ATOM     12 O    GLY G   3      22.472 -16.039  15.492  1.00 46.39 LIG-0.29  OA
ENDBRANCH 10 11
ENDBRANCH 8 10
ENDBRANCH 5 6
ENDBRANCH 3 5
BRANCH 1 13
ATOM     13  CA  GLY G   1      22.739 -15.815  20.720  1.00 43.33 LIG 0.33  C 
BRANCH 13 14
ATOM     14  N   GLY G   1      23.606 -16.013  21.903  1.00 42.49 LIG-0.07  N 
ATOM     15 H2   GLY G   1      24.063 -16.771  21.813  1.00 42.49 LIG 0.27  HD
ATOM     16 H3   GLY G   1      24.173 -15.331  21.973  1.00 42.49 LIG 0.27  HD
ATOM     17 H1   GLY G   1      23.102 -16.056  22.636  1.00 42.49 LIG 0.27  HD
ENDBRANCH 13 14
ENDBRANCH 1 13
TORSDOF 6
ENDMDL
MODEL 42
USER: ADFR SOLUTION from run 108
USER: SCORE 6.905722 LL:  -0.696 LR:  -6.728 RR:   0.000 FEB:  -4.938
USER: RMSD 5.680967
USER: SEED 107
USER: STATUS no improvement in best in 26 clusters for 5 generations
USER: GENES 8
USER: genes 0 Translation |==|  0.72519 0.32276 0.55007
USER: genes 1 Rotation |==|  0.27888 0.59024 0.93910 0.51244
USER: genes 2 Torsion [C]-N--CA-[C] |==|  0.64457
USER: genes 3 Torsion [N]-CA--C-[N] |==|  0.92925
USER: genes 4 Torsion [C]-N--CA-[C] |==|  0.52918
USER: genes 5 Torsion [N]-CA--C-[O] |==|  0.80346
USER: genes 6 Torsion [N]-C--CA-[N] |==|  0.04644
USER: genes 7 Torsion [C]-CA--N-[H2] |==|  0.87751
ROOT
ATOM      1  C   GLY G   1      29.741 -19.065  18.882  1.00 43.90 LIG 0.24  C 
ATOM      2 O    GLY G   1      29.971 -19.813  17.929  1.00 43.93 LIG-0.27  OA
ATOM      3  N   GLY G   2      28.611 -18.370  19.029  1.00 44.62 LIG-0.35  N 
ATOM      4 H    GLY G   2      28.508 -17.744  19.610  1.00 44.62 LIG 0.16  HD
ENDROOT
BRANCH 3 5
ATOM      5  CA  GLY G   2      27.439 -18.614  18.207  1.00 45.53 LIG 0.23  C 
BRANCH 5 6
ATOM      6  C   GLY G   2      26.887 -17.376  17.553  1.00 46.02 LIG 0.23  C 
ATOM      7 O    GLY G   2      26.215 -17.467  16.527  1.00 47.02 LIG-0.27  OA
ATOM      8  N   GLY G   3      27.148 -16.224  18.170  1.00 46.62 LIG-0.35  N 
ATOM      9 H    GLY G   3      27.571 -16.171  18.917  1.00 46.62 LIG 0.16  HD
BRANCH 8 10
ATOM     10  CA  GLY G   3      26.737 -14.933  17.629  1.00 46.72 LIG 0.21  C 
BRANCH 10 11
ATOM     11  C   GLY G   3      27.337 -13.730  18.337  1.00 46.79 LIG 0.21  C 
ATOM     12 O    GLY G   3      26.983 -13.428  19.473  1.00 46.39 LIG-0.29  OA
ENDBRANCH 10 11
ENDBRANCH 8 10
ENDBRANCH 5 6
ENDBRANCH 3 5
BRANCH 1 13
ATOM     13  CA  GLY G   1      30.756 -18.897  19.983  1.00 43.33 LIG 0.33  C 
BRANCH 13 14
ATOM     14  N   GLY G   1      30.091 -18.307  21.167  1.00 42.49 LIG-0.07  N 
ATOM     15 H2   GLY G   1      29.560 -17.642  20.908  1.00 42.49 LIG 0.27  HD
ATOM     16 H3   GLY G   1      29.607 -18.931  21.577  1.00 42.49 LIG 0.27  HD
ATOM     17 H1   GLY G   1      30.707 -17.994  21.728  1.00 42.49 LIG 0.27  HD
ENDBRANCH 13 14
ENDBRANCH 1 13
TORSDOF 6
ENDMDL
MODEL 43
USER: ADFR SOLUTION from run 30
USER: SCORE 7.363964 LL:  -0.793 LR:  -6.692 RR:   0.000 FEB:  -4.902
USER: RMSD 6.227615
USER: SEED 29
USER: STATUS no improvement in best in 32 clusters for 5 generations
USER: GENES 8
USER: genes 0 Translation |==|  0.63658 0.28328 0.10690
USER: genes 1 Rotation |==|  0.47508 0.19537 0.86195 0.65993
USER: genes 2 Torsion [C]-N--CA-[C] |==|  0.77182
USER: genes 3 Torsion [N]-CA--C-[N] |==|  0.53331
USER: genes 4 Torsion [C]-N--CA-[C] |==|  0.80048
USER: genes 5 Torsion [N]-CA--C-[O] |==|  0.85639
USER: genes 6 Torsion [N]-C--CA-[N] |==|  0.10858
USER: genes 7 Torsion [C]-CA--N-[H2] |==|  0.19866
ROOT
ATOM      1  C   GLY G   1      28.212 -19.568  12.566  1.00 43.90 LIG 0.24  C 
ATOM      2 O    GLY G   1      27.952 -18.417  12.208  1.00 43.93 LIG-0.27  OA
ATOM      3  N   GLY G   2      27.430 -20.297  13.364  1.00 44.62 LIG-0.35  N 
ATOM      4 H    GLY G   2      27.676 -21.037  13.728  1.00 44.62 LIG 0.16  HD
ENDROOT
BRANCH 3 5
ATOM      5  CA  GLY G   2      26.073 -19.898  13.693  1.00 45.53 LIG 0.23  C 
BRANCH 5 6
ATOM      6  C   GLY G   2      25.990 -18.890  14.808  1.00 46.02 LIG 0.23  C 
ATOM      7 O    GLY G   2      27.000 -18.298  15.182  1.00 47.02 LIG-0.27  OA
ATOM      8  N   GLY G   3      24.775 -18.678  15.313  1.00 46.62 LIG-0.35  N 
ATOM      9 H    GLY G   3      24.062 -19.054  15.011  1.00 46.62 LIG 0.16  HD
BRANCH 8 10
ATOM     10  CA  GLY G   3      24.538 -17.780  16.439  1.00 46.72 LIG 0.21  C 
BRANCH 10 11
ATOM     11  C   GLY G   3      25.029 -18.301  17.778  1.00 46.79 LIG 0.21  C 
ATOM     12 O    GLY G   3      24.711 -19.419  18.173  1.00 46.39 LIG-0.29  OA
ENDBRANCH 10 11
ENDBRANCH 8 10
ENDBRANCH 5 6
ENDBRANCH 3 5
BRANCH 1 13
ATOM     13  CA  GLY G   1      29.472 -20.248  12.093  1.00 43.33 LIG 0.33  C 
BRANCH 13 14
ATOM     14  N   GLY G   1      29.172 -21.666  11.793  1.00 42.49 LIG-0.07  N 
ATOM     15 H2   GLY G   1      28.681 -21.715  11.052  1.00 42.49 LIG 0.27  HD
ATOM     16 H3   GLY G   1      29.932 -22.112  11.675  1.00 42.49 LIG 0.27  HD
ATOM     17 H1   GLY G   1      28.720 -22.024  12.471  1.00 42.49 LIG 0.27  HD
ENDBRANCH 13 14
ENDBRANCH 1 13
TORSDOF 6
ENDMDL
MODEL 44
USER: ADFR SOLUTION from run 146
USER: SCORE 7.475233 LL:  -0.978 LR:  -6.681 RR:   0.000 FEB:  -4.892
USER: RMSD 8.529745
USER: SEED 145
USER: STATUS no improvement in best in 31 clusters for 5 generations
USER: GENES 8
USER: genes 0 Translation |==|  0.78139 0.61169 0.82324
USER: genes 1 Rotation |==|  0.31397 0.45270 0.79026 0.85904
USER: genes 2 Torsion [C]-N--CA-[C] |==|  0.22858
USER: genes 3 Torsion [N]-CA--C-[N] |==|  0.43339
USER: genes 4 Torsion [C]-N--CA-[C] |==|  0.82304
USER: genes 5 Torsion [N]-CA--C-[O] |==|  0.96513
USER: genes 6 Torsion [N]-C--CA-[N] |==|  0.42322
USER: genes 7 Torsion [C]-CA--N-[H2] |==|  0.97502
ROOT
ATOM      1  C   GLY G   1      30.710 -15.381  22.774  1.00 43.90 LIG 0.24  C 
ATOM      2 O    GLY G   1      31.180 -15.137  21.660  1.00 43.93 LIG-0.27  OA
ATOM      3  N   GLY G   2      30.476 -14.454  23.706  1.00 44.62 LIG-0.35  N 
ATOM      4 H    GLY G   2      30.287 -14.638  24.525  1.00 44.62 LIG 0.16  HD
ENDROOT
BRANCH 3 5
ATOM      5  CA  GLY G   2      30.522 -13.033  23.412  1.00 45.53 LIG 0.23  C 
BRANCH 5 6
ATOM      6  C   GLY G   2      29.255 -12.497  22.801  1.00 46.02 LIG 0.23  C 
ATOM      7 O    GLY G   2      28.481 -13.255  22.220  1.00 47.02 LIG-0.27  OA
ATOM      8  N   GLY G   3      29.035 -11.193  22.963  1.00 46.62 LIG-0.35  N 
ATOM      9 H    GLY G   3      29.553 -10.677  23.418  1.00 46.62 LIG 0.16  HD
BRANCH 8 10
ATOM     10  CA  GLY G   3      27.886 -10.511  22.377  1.00 46.72 LIG 0.21  C 
BRANCH 10 11
ATOM     11  C   GLY G   3      27.860 -10.506  20.858  1.00 46.79 LIG 0.21  C 
ATOM     12 O    GLY G   3      28.851 -10.834  20.211  1.00 46.39 LIG-0.29  OA
ENDBRANCH 10 11
ENDBRANCH 8 10
ENDBRANCH 5 6
ENDBRANCH 3 5
BRANCH 1 13
ATOM     13  CA  GLY G   1      30.347 -16.793  23.156  1.00 43.33 LIG 0.33  C 
BRANCH 13 14
ATOM     14  N   GLY G   1      30.017 -17.555  21.930  1.00 42.49 LIG-0.07  N 
ATOM     15 H2   GLY G   1      29.973 -16.998  21.238  1.00 42.49 LIG 0.27  HD
ATOM     16 H3   GLY G   1      30.647 -18.165  21.781  1.00 42.49 LIG 0.27  HD
ATOM     17 H1   GLY G   1      29.231 -17.960  22.035  1.00 42.49 LIG 0.27  HD
ENDBRANCH 13 14
ENDBRANCH 1 13
TORSDOF 6
ENDMDL
MODEL 45
USER: ADFR SOLUTION from run 70
USER: SCORE 7.447703 LL:  -0.876 LR:  -6.680 RR:   0.000 FEB:  -4.890
USER: RMSD 7.909137
USER: SEED 69
USER: STATUS no improvement in best in 30 clusters for 5 generations
USER: GENES 8
USER: genes 0 Translation |==|  0.75212 0.65817 0.78893
USER: genes 1 Rotation |==|  0.21779 0.42172 0.81192 0.75872
USER: genes 2 Torsion [C]-N--CA-[C] |==|  0.19143
USER: genes 3 Torsion [N]-CA--C-[N] |==|  0.55006
USER: genes 4 Torsion [C]-N--CA-[C] |==|  0.43171
USER: genes 5 Torsion [N]-CA--C-[O] |==|  0.60393
USER: genes 6 Torsion [N]-C--CA-[N] |==|  0.37583
USER: genes 7 Torsion [C]-CA--N-[H2] |==|  0.99135
ROOT
ATOM      1  C   GLY G   1      30.205 -14.788  22.285  1.00 43.90 LIG 0.24  C 
ATOM      2 O    GLY G   1      30.973 -14.740  21.321  1.00 43.93 LIG-0.27  OA
ATOM      3  N   GLY G   2      29.441 -13.769  22.684  1.00 44.62 LIG-0.35  N 
ATOM      4 H    GLY G   2      29.019 -13.754  23.433  1.00 44.62 LIG 0.16  HD
ENDROOT
BRANCH 3 5
ATOM      5  CA  GLY G   2      29.255 -12.579  21.874  1.00 45.53 LIG 0.23  C 
BRANCH 5 6
ATOM      6  C   GLY G   2      28.453 -12.815  20.622  1.00 46.02 LIG 0.23  C 
ATOM      7 O    GLY G   2      27.731 -13.805  20.529  1.00 47.02 LIG-0.27  OA
ATOM      8  N   GLY G   3      28.562 -11.883  19.675  1.00 46.62 LIG-0.35  N 
ATOM      9 H    GLY G   3      29.026 -11.164  19.768  1.00 46.62 LIG 0.16  HD
BRANCH 8 10
ATOM     10  CA  GLY G   3      27.899 -11.998  18.380  1.00 46.72 LIG 0.21  C 
BRANCH 10 11
ATOM     11  C   GLY G   3      27.637 -10.673  17.684  1.00 46.79 LIG 0.21  C 
ATOM     12 O    GLY G   3      26.606 -10.493  17.043  1.00 46.39 LIG-0.29  OA
ENDBRANCH 10 11
ENDBRANCH 8 10
ENDBRANCH 5 6
ENDBRANCH 3 5
BRANCH 1 13
ATOM     13  CA  GLY G   1      30.071 -16.056  23.090  1.00 43.33 LIG 0.33  C 
BRANCH 13 14
ATOM     14  N   GLY G   1      29.983 -17.208  22.165  1.00 42.49 LIG-0.07  N 
ATOM     15 H2   GLY G   1      29.981 -16.915  21.325  1.00 42.49 LIG 0.27  HD
ATOM     16 H3   GLY G   1      30.681 -17.744  22.291  1.00 42.49 LIG 0.27  HD
ATOM     17 H1   GLY G   1      29.231 -17.659  22.323  1.00 42.49 LIG 0.27  HD
ENDBRANCH 13 14
ENDBRANCH 1 13
TORSDOF 6
ENDMDL
MODEL 46
USER: ADFR SOLUTION from run 138
USER: SCORE 7.277319 LL:  -0.755 LR:  -6.629 RR:   0.000 FEB:  -4.839
USER: RMSD 6.865522
USER: SEED 137
USER: STATUS no improvement in best in 27 clusters for 5 generations
USER: GENES 8
USER: genes 0 Translation |==|  0.63316 0.30282 0.11810
USER: genes 1 Rotation |==|  0.50986 0.26438 0.80934 0.81415
USER: genes 2 Torsion [C]-N--CA-[C] |==|  0.18915
USER: genes 3 Torsion [N]-CA--C-[N] |==|  0.56589
USER: genes 4 Torsion [C]-N--CA-[C] |==|  0.28787
USER: genes 5 Torsion [N]-CA--C-[O] |==|  0.41520
USER: genes 6 Torsion [N]-C--CA-[N] |==|  0.04773
USER: genes 7 Torsion [C]-CA--N-[H2] |==|  0.57669
ROOT
ATOM      1  C   GLY G   1      28.153 -19.319  12.726  1.00 43.90 LIG 0.24  C 
ATOM      2 O    GLY G   1      28.251 -18.128  12.421  1.00 43.93 LIG-0.27  OA
ATOM      3  N   GLY G   2      27.678 -19.754  13.895  1.00 44.62 LIG-0.35  N 
ATOM      4 H    GLY G   2      27.743 -20.569  14.162  1.00 44.62 LIG 0.16  HD
ENDROOT
BRANCH 3 5
ATOM      5  CA  GLY G   2      26.999 -18.875  14.829  1.00 45.53 LIG 0.23  C 
BRANCH 5 6
ATOM      6  C   GLY G   2      25.662 -18.385  14.342  1.00 46.02 LIG 0.23  C 
ATOM      7 O    GLY G   2      25.027 -19.041  13.518  1.00 47.02 LIG-0.27  OA
ATOM      8  N   GLY G   3      25.227 -17.246  14.879  1.00 46.62 LIG-0.35  N 
ATOM      9 H    GLY G   3      25.649 -16.820  15.495  1.00 46.62 LIG 0.16  HD
BRANCH 8 10
ATOM     10  CA  GLY G   3      23.981 -16.608  14.465  1.00 46.72 LIG 0.21  C 
BRANCH 10 11
ATOM     11  C   GLY G   3      22.826 -16.787  15.435  1.00 46.79 LIG 0.21  C 
ATOM     12 O    GLY G   3      21.956 -15.928  15.543  1.00 46.39 LIG-0.29  OA
ENDBRANCH 10 11
ENDBRANCH 8 10
ENDBRANCH 5 6
ENDBRANCH 3 5
BRANCH 1 13
ATOM     13  CA  GLY G   1      28.569 -20.392  11.752  1.00 43.33 LIG 0.33  C 
BRANCH 13 14
ATOM     14  N   GLY G   1      27.968 -21.680  12.168  1.00 42.49 LIG-0.07  N 
ATOM     15 H2   GLY G   1      28.482 -22.351  11.889  1.00 42.49 LIG 0.27  HD
ATOM     16 H3   GLY G   1      27.904 -21.705  13.055  1.00 42.49 LIG 0.27  HD
ATOM     17 H1   GLY G   1      27.157 -21.759  11.809  1.00 42.49 LIG 0.27  HD
ENDBRANCH 13 14
ENDBRANCH 1 13
TORSDOF 6
ENDMDL
MODEL 47
USER: ADFR SOLUTION from run 19
USER: SCORE 6.953266 LL:  -0.773 LR:  -6.609 RR:   0.000 FEB:  -4.820
USER: RMSD 5.955945
USER: SEED 18
USER: STATUS no improvement in best in 29 clusters for 5 generations
USER: GENES 8
USER: genes 0 Translation |==|  0.66413 0.73448 0.67779
USER: genes 1 Rotation |==|  0.67148 0.93727 0.37887 0.62132
USER: genes 2 Torsion [C]-N--CA-[C] |==|  0.61111
USER: genes 3 Torsion [N]-CA--C-[N] |==|  0.04882
USER: genes 4 Torsion [C]-N--CA-[C] |==|  0.42742
USER: genes 5 Torsion [N]-CA--C-[O] |==|  0.55816
USER: genes 6 Torsion [N]-C--CA-[N] |==|  0.63678
USER: genes 7 Torsion [C]-CA--N-[H2] |==|  0.76139
ROOT
ATOM      1  C   GLY G   1      28.687 -13.815  20.702  1.00 43.90 LIG 0.24  C 
ATOM      2 O    GLY G   1      28.259 -12.680  20.921  1.00 43.93 LIG-0.27  OA
ATOM      3  N   GLY G   2      28.406 -14.521  19.604  1.00 44.62 LIG-0.35  N 
ATOM      4 H    GLY G   2      28.584 -15.358  19.516  1.00 44.62 LIG 0.16  HD
ENDROOT
BRANCH 3 5
ATOM      5  CA  GLY G   2      27.765 -13.925  18.445  1.00 45.53 LIG 0.23  C 
BRANCH 5 6
ATOM      6  C   GLY G   2      26.734 -14.811  17.799  1.00 46.02 LIG 0.23  C 
ATOM      7 O    GLY G   2      26.375 -14.599  16.643  1.00 47.02 LIG-0.27  OA
ATOM      8  N   GLY G   3      26.283 -15.821  18.543  1.00 46.62 LIG-0.35  N 
ATOM      9 H    GLY G   3      26.579 -15.998  19.332  1.00 46.62 LIG 0.16  HD
BRANCH 8 10
ATOM     10  CA  GLY G   3      25.238 -16.729  18.084  1.00 46.72 LIG 0.21  C 
BRANCH 10 11
ATOM     11  C   GLY G   3      25.277 -18.110  18.715  1.00 46.79 LIG 0.21  C 
ATOM     12 O    GLY G   3      24.731 -19.066  18.171  1.00 46.39 LIG-0.29  OA
ENDBRANCH 10 11
ENDBRANCH 8 10
ENDBRANCH 5 6
ENDBRANCH 3 5
BRANCH 1 13
ATOM     13  CA  GLY G   1      29.600 -14.491  21.693  1.00 43.33 LIG 0.33  C 
BRANCH 13 14
ATOM     14  N   GLY G   1      28.999 -14.398  23.043  1.00 42.49 LIG-0.07  N 
ATOM     15 H2   GLY G   1      29.230 -13.625  23.418  1.00 42.49 LIG 0.27  HD
ATOM     16 H3   GLY G   1      28.113 -14.443  22.977  1.00 42.49 LIG 0.27  HD
ATOM     17 H1   GLY G   1      29.294 -15.071  23.546  1.00 42.49 LIG 0.27  HD
ENDBRANCH 13 14
ENDBRANCH 1 13
TORSDOF 6
ENDMDL
MODEL 48
USER: ADFR SOLUTION from run 25
USER: SCORE 7.223664 LL:  -0.767 LR:  -6.584 RR:   0.000 FEB:  -4.795
USER: RMSD 5.097249
USER: SEED 24
USER: STATUS no improvement in best in 32 clusters for 5 generations
USER: GENES 8
USER: genes 0 Translation |==|  0.57426 0.27293 0.16367
USER: genes 1 Rotation |==|  0.61239 0.44922 0.79363 0.88545
USER: genes 2 Torsion [C]-N--CA-[C] |==|  0.23188
USER: genes 3 Torsion [N]-CA--C-[N] |==|  0.46153
USER: genes 4 Torsion [C]-N--CA-[C] |==|  0.17847
USER: genes 5 Torsion [N]-CA--C-[O] |==|  0.82269
USER: genes 6 Torsion [N]-C--CA-[N] |==|  0.81367
USER: genes 7 Torsion [C]-CA--N-[H2] |==|  0.11559
ROOT
ATOM      1  C   GLY G   1      27.137 -19.700  13.375  1.00 43.90 LIG 0.24  C 
ATOM      2 O    GLY G   1      26.883 -18.583  12.918  1.00 43.93 LIG-0.27  OA
ATOM      3  N   GLY G   2      27.764 -19.909  14.535  1.00 44.62 LIG-0.35  N 
ATOM      4 H    GLY G   2      28.066 -20.675  14.783  1.00 44.62 LIG 0.16  HD
ENDROOT
BRANCH 3 5
ATOM      5  CA  GLY G   2      27.992 -18.842  15.494  1.00 45.53 LIG 0.23  C 
BRANCH 5 6
ATOM      6  C   GLY G   2      26.817 -18.575  16.397  1.00 46.02 LIG 0.23  C 
ATOM      7 O    GLY G   2      25.719 -19.066  16.143  1.00 47.02 LIG-0.27  OA
ATOM      8  N   GLY G   3      27.064 -17.820  17.467  1.00 46.62 LIG-0.35  N 
ATOM      9 H    GLY G   3      27.847 -17.525  17.670  1.00 46.62 LIG 0.16  HD
BRANCH 8 10
ATOM     10  CA  GLY G   3      26.019 -17.420  18.403  1.00 46.72 LIG 0.21  C 
BRANCH 10 11
ATOM     11  C   GLY G   3      25.370 -18.568  19.157  1.00 46.79 LIG 0.21  C 
ATOM     12 O    GLY G   3      24.731 -19.430  18.561  1.00 46.39 LIG-0.29  OA
ENDBRANCH 10 11
ENDBRANCH 8 10
ENDBRANCH 5 6
ENDBRANCH 3 5
BRANCH 1 13
ATOM     13  CA  GLY G   1      26.725 -20.942  12.626  1.00 43.33 LIG 0.33  C 
BRANCH 13 14
ATOM     14  N   GLY G   1      27.939 -21.654  12.168  1.00 42.49 LIG-0.07  N 
ATOM     15 H2   GLY G   1      28.550 -21.645  12.815  1.00 42.49 LIG 0.27  HD
ATOM     16 H3   GLY G   1      27.731 -22.496  11.968  1.00 42.49 LIG 0.27  HD
ATOM     17 H1   GLY G   1      28.266 -21.250  11.445  1.00 42.49 LIG 0.27  HD
ENDBRANCH 13 14
ENDBRANCH 1 13
TORSDOF 6
ENDMDL
MODEL 49
USER: ADFR SOLUTION from run 29
USER: SCORE 7.159689 LL:  -0.790 LR:  -6.581 RR:   0.000 FEB:  -4.791
USER: RMSD 5.897865
USER: SEED 28
USER: STATUS no improvement in best in 37 clusters for 5 generations
USER: GENES 8
USER: genes 0 Translation |==|  0.39124 0.50809 0.21623
USER: genes 1 Rotation |==|  0.45572 0.24633 0.11613 0.69062
USER: genes 2 Torsion [C]-N--CA-[C] |==|  0.26788
USER: genes 3 Torsion [N]-CA--C-[N] |==|  0.40000
USER: genes 4 Torsion [C]-N--CA-[C] |==|  0.64994
USER: genes 5 Torsion [N]-CA--C-[O] |==|  0.90964
USER: genes 6 Torsion [N]-C--CA-[N] |==|  0.84072
USER: genes 7 Torsion [C]-CA--N-[H2] |==|  0.12130
ROOT
ATOM      1  C   GLY G   1      23.980 -16.702  14.124  1.00 43.90 LIG 0.24  C 
ATOM      2 O    GLY G   1      23.986 -17.922  14.306  1.00 43.93 LIG-0.27  OA
ATOM      3  N   GLY G   2      23.089 -15.870  14.668  1.00 44.62 LIG-0.35  N 
ATOM      4 H    GLY G   2      22.996 -15.049  14.430  1.00 44.62 LIG 0.16  HD
ENDROOT
BRANCH 3 5
ATOM      5  CA  GLY G   2      22.186 -16.287  15.726  1.00 45.53 LIG 0.23  C 
BRANCH 5 6
ATOM      6  C   GLY G   2      22.671 -15.944  17.109  1.00 46.02 LIG 0.23  C 
ATOM      7 O    GLY G   2      23.872 -15.971  17.367  1.00 47.02 LIG-0.27  OA
ATOM      8  N   GLY G   3      21.731 -15.593  17.986  1.00 46.62 LIG-0.35  N 
ATOM      9 H    GLY G   3      20.897 -15.522  17.786  1.00 46.62 LIG 0.16  HD
BRANCH 8 10
ATOM     10  CA  GLY G   3      22.032 -15.293  19.382  1.00 46.72 LIG 0.21  C 
BRANCH 10 11
ATOM     11  C   GLY G   3      21.220 -16.090  20.390  1.00 46.79 LIG 0.21  C 
ATOM     12 O    GLY G   3      20.067 -16.430  20.140  1.00 46.39 LIG-0.29  OA
ENDBRANCH 10 11
ENDBRANCH 8 10
ENDBRANCH 5 6
ENDBRANCH 3 5
BRANCH 1 13
ATOM     13  CA  GLY G   1      25.027 -16.055  13.254  1.00 43.33 LIG 0.33  C 
BRANCH 13 14
ATOM     14  N   GLY G   1      24.356 -15.305  12.168  1.00 42.49 LIG-0.07  N 
ATOM     15 H2   GLY G   1      23.668 -14.851  12.503  1.00 42.49 LIG 0.27  HD
ATOM     16 H3   GLY G   1      24.933 -14.738  11.799  1.00 42.49 LIG 0.27  HD
ATOM     17 H1   GLY G   1      24.063 -15.875  11.550  1.00 42.49 LIG 0.27  HD
ENDBRANCH 13 14
ENDBRANCH 1 13
TORSDOF 6
ENDMDL
MODEL 50
USER: ADFR SOLUTION from run 104
USER: SCORE 7.245669 LL:  -0.778 LR:  -6.578 RR:   0.000 FEB:  -4.789
USER: RMSD 4.919465
USER: SEED 103
USER: STATUS no improvement in best in 24 clusters for 5 generations
USER: GENES 8
USER: genes 0 Translation |==|  0.50151 0.34873 0.25999
USER: genes 1 Rotation |==|  0.36563 0.11979 0.58307 0.78370
USER: genes 2 Torsion [C]-N--CA-[C] |==|  0.77778
USER: genes 3 Torsion [N]-CA--C-[N] |==|  0.44564
USER: genes 4 Torsion [C]-N--CA-[C] |==|  0.57668
USER: genes 5 Torsion [N]-CA--C-[O] |==|  0.92826
USER: genes 6 Torsion [N]-C--CA-[N] |==|  0.02117
USER: genes 7 Torsion [C]-CA--N-[H2] |==|  0.18105
ROOT
ATOM      1  C   GLY G   1      25.882 -18.734  14.748  1.00 43.90 LIG 0.24  C 
ATOM      2 O    GLY G   1      26.720 -18.071  15.364  1.00 43.93 LIG-0.27  OA
ATOM      3  N   GLY G   2      24.569 -18.680  14.981  1.00 44.62 LIG-0.35  N 
ATOM      4 H    GLY G   2      24.004 -19.241  14.655  1.00 44.62 LIG 0.16  HD
ENDROOT
BRANCH 3 5
ATOM      5  CA  GLY G   2      23.973 -17.654  15.817  1.00 45.53 LIG 0.23  C 
BRANCH 5 6
ATOM      6  C   GLY G   2      24.100 -17.922  17.292  1.00 46.02 LIG 0.23  C 
ATOM      7 O    GLY G   2      24.356 -19.055  17.694  1.00 47.02 LIG-0.27  OA
ATOM      8  N   GLY G   3      23.949 -16.866  18.092  1.00 46.62 LIG-0.35  N 
ATOM      9 H    GLY G   3      23.825 -16.066  17.803  1.00 46.62 LIG 0.16  HD
BRANCH 8 10
ATOM     10  CA  GLY G   3      23.980 -16.973  19.547  1.00 46.72 LIG 0.21  C 
BRANCH 10 11
ATOM     11  C   GLY G   3      23.180 -15.908  20.277  1.00 46.79 LIG 0.21  C 
ATOM     12 O    GLY G   3      22.969 -14.815  19.759  1.00 46.39 LIG-0.29  OA
ENDBRANCH 10 11
ENDBRANCH 8 10
ENDBRANCH 5 6
ENDBRANCH 3 5
BRANCH 1 13
ATOM     13  CA  GLY G   1      26.310 -19.668  13.644  1.00 43.33 LIG 0.33  C 
BRANCH 13 14
ATOM     14  N   GLY G   1      25.106 -20.178  12.950  1.00 42.49 LIG-0.07  N 
ATOM     15 H2   GLY G   1      24.691 -19.505  12.543  1.00 42.49 LIG 0.27  HD
ATOM     16 H3   GLY G   1      25.346 -20.787  12.348  1.00 42.49 LIG 0.27  HD
ATOM     17 H1   GLY G   1      24.556 -20.549  13.544  1.00 42.49 LIG 0.27  HD
ENDBRANCH 13 14
ENDBRANCH 1 13
TORSDOF 6
ENDMDL
MODEL 51
USER: ADFR SOLUTION from run 59
USER: SCORE 7.374253 LL:  -0.900 LR:  -6.565 RR:   0.000 FEB:  -4.775
USER: RMSD 5.082866
USER: SEED 58
USER: STATUS no improvement in best in 27 clusters for 5 generations
USER: GENES 8
USER: genes 0 Translation |==|  0.50585 0.34869 0.21545
USER: genes 1 Rotation |==|  0.27597 0.20050 0.75683 0.71012
USER: genes 2 Torsion [C]-N--CA-[C] |==|  0.71724
USER: genes 3 Torsion [N]-CA--C-[N] |==|  0.06084
USER: genes 4 Torsion [C]-N--CA-[C] |==|  0.65143
USER: genes 5 Torsion [N]-CA--C-[O] |==|  0.42389
USER: genes 6 Torsion [N]-C--CA-[N] |==|  0.49487
USER: genes 7 Torsion [C]-CA--N-[H2] |==|  0.26026
ROOT
ATOM      1  C   GLY G   1      25.957 -18.734  14.113  1.00 43.90 LIG 0.24  C 
ATOM      2 O    GLY G   1      26.740 -17.808  13.888  1.00 43.93 LIG-0.27  OA
ATOM      3  N   GLY G   2      24.657 -18.569  14.366  1.00 44.62 LIG-0.35  N 
ATOM      4 H    GLY G   2      24.145 -19.194  14.663  1.00 44.62 LIG 0.16  HD
ENDROOT
BRANCH 3 5
ATOM      5  CA  GLY G   2      23.984 -17.299  14.160  1.00 45.53 LIG 0.23  C 
BRANCH 5 6
ATOM      6  C   GLY G   2      23.753 -16.520  15.427  1.00 46.02 LIG 0.23  C 
ATOM      7 O    GLY G   2      22.856 -15.681  15.481  1.00 47.02 LIG-0.27  OA
ATOM      8  N   GLY G   3      24.547 -16.826  16.453  1.00 46.62 LIG-0.35  N 
ATOM      9 H    GLY G   3      25.136 -17.453  16.427  1.00 46.62 LIG 0.16  HD
BRANCH 8 10
ATOM     10  CA  GLY G   3      24.491 -16.118  17.728  1.00 46.72 LIG 0.21  C 
BRANCH 10 11
ATOM     11  C   GLY G   3      25.818 -15.544  18.192  1.00 46.79 LIG 0.21  C 
ATOM     12 O    GLY G   3      25.856 -14.555  18.918  1.00 46.39 LIG-0.29  OA
ENDBRANCH 10 11
ENDBRANCH 8 10
ENDBRANCH 5 6
ENDBRANCH 3 5
BRANCH 1 13
ATOM     13  CA  GLY G   1      26.441 -20.162  14.101  1.00 43.33 LIG 0.33  C 
BRANCH 13 14
ATOM     14  N   GLY G   1      27.882 -20.180  13.764  1.00 42.49 LIG-0.07  N 
ATOM     15 H2   GLY G   1      28.362 -20.180  14.513  1.00 42.49 LIG 0.27  HD
ATOM     16 H3   GLY G   1      28.068 -20.911  13.293  1.00 42.49 LIG 0.27  HD
ATOM     17 H1   GLY G   1      28.084 -19.458  13.283  1.00 42.49 LIG 0.27  HD
ENDBRANCH 13 14
ENDBRANCH 1 13
TORSDOF 6
ENDMDL
MODEL 52
USER: ADFR SOLUTION from run 92
USER: SCORE 6.972646 LL:  -0.614 LR:  -6.570 RR:   0.000 FEB:  -4.780
USER: RMSD 8.831973
USER: SEED 91
USER: STATUS no improvement in best in 25 clusters for 5 generations
USER: GENES 8
USER: genes 0 Translation |==|  0.29080 0.58396 0.58359
USER: genes 1 Rotation |==|  0.39129 0.37738 0.95597 0.62343
USER: genes 2 Torsion [C]-N--CA-[C] |==|  0.71894
USER: genes 3 Torsion [N]-CA--C-[N] |==|  0.60000
USER: genes 4 Torsion [C]-N--CA-[C] |==|  0.76176
USER: genes 5 Torsion [N]-CA--C-[O] |==|  0.54139
USER: genes 6 Torsion [N]-C--CA-[N] |==|  0.96384
USER: genes 7 Torsion [C]-CA--N-[H2] |==|  0.72162
ROOT
ATOM      1  C   GLY G   1      22.247 -15.734  19.359  1.00 43.90 LIG 0.24  C 
ATOM      2 O    GLY G   1      22.066 -15.306  18.217  1.00 43.93 LIG-0.27  OA
ATOM      3  N   GLY G   2      21.380 -15.579  20.362  1.00 44.62 LIG-0.35  N 
ATOM      4 H    GLY G   2      21.567 -15.748  21.184  1.00 44.62 LIG 0.16  HD
ENDROOT
BRANCH 3 5
ATOM      5  CA  GLY G   2      20.026 -15.103  20.146  1.00 45.53 LIG 0.23  C 
BRANCH 5 6
ATOM      6  C   GLY G   2      19.831 -13.649  20.484  1.00 46.02 LIG 0.23  C 
ATOM      7 O    GLY G   2      20.718 -12.833  20.237  1.00 47.02 LIG-0.27  OA
ATOM      8  N   GLY G   3      18.656 -13.327  21.023  1.00 46.62 LIG-0.35  N 
ATOM      9 H    GLY G   3      18.018 -13.892  21.143  1.00 46.62 LIG 0.16  HD
BRANCH 8 10
ATOM     10  CA  GLY G   3      18.338 -11.973  21.464  1.00 46.72 LIG 0.21  C 
BRANCH 10 11
ATOM     11  C   GLY G   3      18.787 -11.647  22.879  1.00 46.79 LIG 0.21  C 
ATOM     12 O    GLY G   3      18.353 -10.659  23.464  1.00 46.39 LIG-0.29  OA
ENDBRANCH 10 11
ENDBRANCH 8 10
ENDBRANCH 5 6
ENDBRANCH 3 5
BRANCH 1 13
ATOM     13  CA  GLY G   1      23.502 -16.500  19.697  1.00 43.33 LIG 0.33  C 
BRANCH 13 14
ATOM     14  N   GLY G   1      23.606 -16.631  21.168  1.00 42.49 LIG-0.07  N 
ATOM     15 H2   GLY G   1      24.178 -16.024  21.479  1.00 42.49 LIG 0.27  HD
ATOM     16 H3   GLY G   1      22.806 -16.501  21.535  1.00 42.49 LIG 0.27  HD
ATOM     17 H1   GLY G   1      23.898 -17.446  21.373  1.00 42.49 LIG 0.27  HD
ENDBRANCH 13 14
ENDBRANCH 1 13
TORSDOF 6
ENDMDL
MODEL 53
USER: ADFR SOLUTION from run 190
USER: SCORE 7.182278 LL:  -0.801 LR:  -6.559 RR:   0.000 FEB:  -4.769
USER: RMSD 9.203267
USER: SEED 189
USER: STATUS no improvement in best in 31 clusters for 5 generations
USER: GENES 8
USER: genes 0 Translation |==|  0.16838 0.60818 0.65211
USER: genes 1 Rotation |==|  0.37442 0.14393 0.17404 0.53454
USER: genes 2 Torsion [C]-N--CA-[C] |==|  0.18246
USER: genes 3 Torsion [N]-CA--C-[N] |==|  0.12778
USER: genes 4 Torsion [C]-N--CA-[C] |==|  0.80094
USER: genes 5 Torsion [N]-CA--C-[O] |==|  0.11214
USER: genes 6 Torsion [N]-C--CA-[N] |==|  0.91105
USER: genes 7 Torsion [C]-CA--N-[H2] |==|  0.78540
ROOT
ATOM      1  C   GLY G   1      20.136 -15.426  20.336  1.00 43.90 LIG 0.24  C 
ATOM      2 O    GLY G   1      19.484 -16.145  21.096  1.00 43.93 LIG-0.27  OA
ATOM      3  N   GLY G   2      19.815 -14.164  20.042  1.00 44.62 LIG-0.35  N 
ATOM      4 H    GLY G   2      20.182 -13.714  19.407  1.00 44.62 LIG 0.16  HD
ENDROOT
BRANCH 3 5
ATOM      5  CA  GLY G   2      18.802 -13.431  20.780  1.00 45.53 LIG 0.23  C 
BRANCH 5 6
ATOM      6  C   GLY G   2      19.168 -13.169  22.217  1.00 46.02 LIG 0.23  C 
ATOM      7 O    GLY G   2      18.356 -13.396  23.112  1.00 47.02 LIG-0.27  OA
ATOM      8  N   GLY G   3      20.404 -12.719  22.431  1.00 46.62 LIG-0.35  N 
ATOM      9 H    GLY G   3      20.986 -12.614  21.807  1.00 46.62 LIG 0.16  HD
BRANCH 8 10
ATOM     10  CA  GLY G   3      20.888 -12.357  23.759  1.00 46.72 LIG 0.21  C 
BRANCH 10 11
ATOM     11  C   GLY G   3      20.296 -11.076  24.322  1.00 46.79 LIG 0.21  C 
ATOM     12 O    GLY G   3      19.106 -10.813  24.170  1.00 46.39 LIG-0.29  OA
ENDBRANCH 10 11
ENDBRANCH 8 10
ENDBRANCH 5 6
ENDBRANCH 3 5
BRANCH 1 13
ATOM     13  CA  GLY G   1      21.388 -15.948  19.679  1.00 43.33 LIG 0.33  C 
BRANCH 13 14
ATOM     14  N   GLY G   1      21.544 -15.305  18.355  1.00 42.49 LIG-0.07  N 
ATOM     15 H2   GLY G   1      20.987 -15.684  17.774  1.00 42.49 LIG 0.27  HD
ATOM     16 H3   GLY G   1      21.357 -14.438  18.422  1.00 42.49 LIG 0.27  HD
ATOM     17 H1   GLY G   1      22.382 -15.406  18.072  1.00 42.49 LIG 0.27  HD
ENDBRANCH 13 14
ENDBRANCH 1 13
TORSDOF 6
ENDMDL
MODEL 54
USER: ADFR SOLUTION from run 84
USER: SCORE 6.972134 LL:  -0.740 LR:  -6.551 RR:   0.000 FEB:  -4.761
USER: RMSD 5.406754
USER: SEED 83
USER: STATUS no improvement in best in 21 clusters for 5 generations
USER: GENES 8
USER: genes 0 Translation |==|  0.20781 0.58864 0.68121
USER: genes 1 Rotation |==|  0.58373 0.69490 0.54990 0.95002
USER: genes 2 Torsion [C]-N--CA-[C] |==|  0.77401
USER: genes 3 Torsion [N]-CA--C-[N] |==|  0.60000
USER: genes 4 Torsion [C]-N--CA-[C] |==|  0.87818
USER: genes 5 Torsion [N]-CA--C-[O] |==|  0.84484
USER: genes 6 Torsion [N]-C--CA-[N] |==|  0.10169
USER: genes 7 Torsion [C]-CA--N-[H2] |==|  0.30867
ROOT
ATOM      1  C   GLY G   1      20.816 -15.675  20.750  1.00 43.90 LIG 0.24  C 
ATOM      2 O    GLY G   1      20.570 -14.904  19.819  1.00 43.93 LIG-0.27  OA
ATOM      3  N   GLY G   2      22.035 -16.135  21.037  1.00 44.62 LIG-0.35  N 
ATOM      4 H    GLY G   2      22.185 -16.778  21.589  1.00 44.62 LIG 0.16  HD
ENDROOT
BRANCH 3 5
ATOM      5  CA  GLY G   2      23.233 -15.581  20.433  1.00 45.53 LIG 0.23  C 
BRANCH 5 6
ATOM      6  C   GLY G   2      23.520 -16.112  19.054  1.00 46.02 LIG 0.23  C 
ATOM      7 O    GLY G   2      22.597 -16.335  18.274  1.00 47.02 LIG-0.27  OA
ATOM      8  N   GLY G   3      24.807 -16.283  18.751  1.00 46.62 LIG-0.35  N 
ATOM      9 H    GLY G   3      25.451 -16.073  19.281  1.00 46.62 LIG 0.16  HD
BRANCH 8 10
ATOM     10  CA  GLY G   3      25.245 -16.850  17.480  1.00 46.72 LIG 0.21  C 
BRANCH 10 11
ATOM     11  C   GLY G   3      24.459 -18.067  17.025  1.00 46.79 LIG 0.21  C 
ATOM     12 O    GLY G   3      24.356 -19.055  17.746  1.00 46.39 LIG-0.29  OA
ENDBRANCH 10 11
ENDBRANCH 8 10
ENDBRANCH 5 6
ENDBRANCH 3 5
BRANCH 1 13
ATOM     13  CA  GLY G   1      19.711 -16.148  21.660  1.00 43.33 LIG 0.33  C 
BRANCH 13 14
ATOM     14  N   GLY G   1      20.231 -16.242  23.043  1.00 42.49 LIG-0.07  N 
ATOM     15 H2   GLY G   1      19.853 -15.612  23.545  1.00 42.49 LIG 0.27  HD
ATOM     16 H3   GLY G   1      20.040 -17.043  23.378  1.00 42.49 LIG 0.27  HD
ATOM     17 H1   GLY G   1      21.114 -16.125  23.037  1.00 42.49 LIG 0.27  HD
ENDBRANCH 13 14
ENDBRANCH 1 13
TORSDOF 6
ENDMDL
MODEL 55
USER: ADFR SOLUTION from run 14
USER: SCORE 7.056728 LL:  -0.834 LR:  -6.518 RR:   0.000 FEB:  -4.728
USER: RMSD 5.763553
USER: SEED 462679
USER: STATUS no improvement in best in 34 clusters for 5 generations
USER: GENES 8
USER: genes 0 Translation |==|  0.28450 0.61156 0.58859
USER: genes 1 Rotation |==|  0.73899 0.83780 0.34496 0.73395
USER: genes 2 Torsion [C]-N--CA-[C] |==|  0.39731
USER: genes 3 Torsion [N]-CA--C-[N] |==|  0.48570
USER: genes 4 Torsion [C]-N--CA-[C] |==|  0.63172
USER: genes 5 Torsion [N]-CA--C-[O] |==|  0.94644
USER: genes 6 Torsion [N]-C--CA-[N] |==|  0.21018
USER: genes 7 Torsion [C]-CA--N-[H2] |==|  0.64237
ROOT
ATOM      1  C   GLY G   1      22.139 -15.383  19.430  1.00 43.90 LIG 0.24  C 
ATOM      2 O    GLY G   1      22.094 -14.183  19.147  1.00 43.93 LIG-0.27  OA
ATOM      3  N   GLY G   2      22.132 -16.365  18.527  1.00 44.62 LIG-0.35  N 
ATOM      4 H    GLY G   2      22.018 -17.194  18.725  1.00 44.62 LIG 0.16  HD
ENDROOT
BRANCH 3 5
ATOM      5  CA  GLY G   2      22.320 -16.114  17.110  1.00 45.53 LIG 0.23  C 
BRANCH 5 6
ATOM      6  C   GLY G   2      23.121 -17.176  16.405  1.00 46.02 LIG 0.23  C 
ATOM      7 O    GLY G   2      23.606 -18.109  17.043  1.00 47.02 LIG-0.27  OA
ATOM      8  N   GLY G   3      23.230 -17.044  15.083  1.00 46.62 LIG-0.35  N 
ATOM      9 H    GLY G   3      22.842 -16.421  14.635  1.00 46.62 LIG 0.16  HD
BRANCH 8 10
ATOM     10  CA  GLY G   3      24.025 -17.955  14.266  1.00 46.72 LIG 0.21  C 
BRANCH 10 11
ATOM     11  C   GLY G   3      24.949 -17.271  13.273  1.00 46.79 LIG 0.21  C 
ATOM     12 O    GLY G   3      24.759 -16.106  12.937  1.00 46.39 LIG-0.29  OA
ENDBRANCH 10 11
ENDBRANCH 8 10
ENDBRANCH 5 6
ENDBRANCH 3 5
BRANCH 1 13
ATOM     13  CA  GLY G   1      22.219 -15.823  20.870  1.00 43.33 LIG 0.33  C 
BRANCH 13 14
ATOM     14  N   GLY G   1      23.606 -16.247  21.168  1.00 42.49 LIG-0.07  N 
ATOM     15 H2   GLY G   1      23.595 -17.054  21.543  1.00 42.49 LIG 0.27  HD
ATOM     16 H3   GLY G   1      24.076 -16.277  20.413  1.00 42.49 LIG 0.27  HD
ATOM     17 H1   GLY G   1      23.981 -15.665  21.728  1.00 42.49 LIG 0.27  HD
ENDBRANCH 13 14
ENDBRANCH 1 13
TORSDOF 6
ENDMDL
MODEL 56
USER: ADFR SOLUTION from run 29
USER: SCORE 7.320110 LL:  -0.917 LR:  -6.514 RR:   0.000 FEB:  -4.724
USER: RMSD 5.641040
USER: SEED 28
USER: STATUS no improvement in best in 37 clusters for 5 generations
USER: GENES 8
USER: genes 0 Translation |==|  0.47624 0.35704 0.47416
USER: genes 1 Rotation |==|  0.31319 0.89261 0.53381 0.74457
USER: genes 2 Torsion [C]-N--CA-[C] |==|  0.16111
USER: genes 3 Torsion [N]-CA--C-[N] |==|  0.07067
USER: genes 4 Torsion [C]-N--CA-[C] |==|  0.23590
USER: genes 5 Torsion [N]-CA--C-[O] |==|  0.23888
USER: genes 6 Torsion [N]-C--CA-[N] |==|  0.10733
USER: genes 7 Torsion [C]-CA--N-[H2] |==|  0.03837
ROOT
ATOM      1  C   GLY G   1      25.446 -18.628  17.800  1.00 43.90 LIG 0.24  C 
ATOM      2 O    GLY G   1      24.354 -19.173  17.621  1.00 43.93 LIG-0.27  OA
ATOM      3  N   GLY G   2      26.422 -18.592  16.890  1.00 44.62 LIG-0.35  N 
ATOM      4 H    GLY G   2      27.227 -18.342  17.063  1.00 44.62 LIG 0.16  HD
ENDROOT
BRANCH 3 5
ATOM      5  CA  GLY G   2      26.205 -18.980  15.508  1.00 45.53 LIG 0.23  C 
BRANCH 5 6
ATOM      6  C   GLY G   2      25.130 -18.187  14.815  1.00 46.02 LIG 0.23  C 
ATOM      7 O    GLY G   2      24.504 -18.681  13.879  1.00 47.02 LIG-0.27  OA
ATOM      8  N   GLY G   3      24.899 -16.968  15.302  1.00 46.62 LIG-0.35  N 
ATOM      9 H    GLY G   3      25.301 -16.648  15.992  1.00 46.62 LIG 0.16  HD
BRANCH 8 10
ATOM     10  CA  GLY G   3      23.934 -16.053  14.702  1.00 46.72 LIG 0.21  C 
BRANCH 10 11
ATOM     11  C   GLY G   3      22.501 -16.250  15.167  1.00 46.79 LIG 0.21  C 
ATOM     12 O    GLY G   3      22.090 -15.703  16.186  1.00 46.39 LIG-0.29  OA
ENDBRANCH 10 11
ENDBRANCH 8 10
ENDBRANCH 5 6
ENDBRANCH 3 5
BRANCH 1 13
ATOM     13  CA  GLY G   1      25.746 -17.931  19.103  1.00 43.33 LIG 0.33  C 
BRANCH 13 14
ATOM     14  N   GLY G   1      26.505 -16.691  18.824  1.00 42.49 LIG-0.07  N 
ATOM     15 H2   GLY G   1      26.457 -16.504  17.955  1.00 42.49 LIG 0.27  HD
ATOM     16 H3   GLY G   1      26.157 -16.019  19.292  1.00 42.49 LIG 0.27  HD
ATOM     17 H1   GLY G   1      27.356 -16.805  19.056  1.00 42.49 LIG 0.27  HD
ENDBRANCH 13 14
ENDBRANCH 1 13
TORSDOF 6
ENDMDL
MODEL 57
USER: ADFR SOLUTION from run 157
USER: SCORE 6.725511 LL:  -0.823 LR:  -6.497 RR:   0.000 FEB:  -4.707
USER: RMSD 5.002363
USER: SEED 156
USER: STATUS no improvement in best in 26 clusters for 5 generations
USER: GENES 8
USER: genes 0 Translation |==|  0.52447 0.61867 0.44695
USER: genes 1 Rotation |==|  0.55310 0.67731 0.04387 0.58771
USER: genes 2 Torsion [C]-N--CA-[C] |==|  0.19465
USER: genes 3 Torsion [N]-CA--C-[N] |==|  0.82348
USER: genes 4 Torsion [C]-N--CA-[C] |==|  0.37551
USER: genes 5 Torsion [N]-CA--C-[O] |==|  0.99346
USER: genes 6 Torsion [N]-C--CA-[N] |==|  0.96224
USER: genes 7 Torsion [C]-CA--N-[H2] |==|  0.57989
ROOT
ATOM      1  C   GLY G   1      26.278 -15.292  17.412  1.00 43.90 LIG 0.24  C 
ATOM      2 O    GLY G   1      25.854 -15.068  16.276  1.00 43.93 LIG-0.27  OA
ATOM      3  N   GLY G   2      25.599 -15.963  18.344  1.00 44.62 LIG-0.35  N 
ATOM      4 H    GLY G   2      25.829 -15.995  19.172  1.00 44.62 LIG 0.16  HD
ENDROOT
BRANCH 3 5
ATOM      5  CA  GLY G   2      24.392 -16.709  18.035  1.00 45.53 LIG 0.23  C 
BRANCH 5 6
ATOM      6  C   GLY G   2      24.637 -17.949  17.217  1.00 46.02 LIG 0.23  C 
ATOM      7 O    GLY G   2      24.356 -19.055  17.673  1.00 47.02 LIG-0.27  OA
ATOM      8  N   GLY G   3      25.132 -17.753  15.995  1.00 46.62 LIG-0.35  N 
ATOM      9 H    GLY G   3      25.275 -16.973  15.660  1.00 46.62 LIG 0.16  HD
BRANCH 8 10
ATOM     10  CA  GLY G   3      25.483 -18.854  15.104  1.00 46.72 LIG 0.21  C 
BRANCH 10 11
ATOM     11  C   GLY G   3      25.014 -18.680  13.669  1.00 46.79 LIG 0.21  C 
ATOM     12 O    GLY G   3      24.356 -17.699  13.337  1.00 46.39 LIG-0.29  OA
ENDBRANCH 10 11
ENDBRANCH 8 10
ENDBRANCH 5 6
ENDBRANCH 3 5
BRANCH 1 13
ATOM     13  CA  GLY G   1      27.647 -14.813  17.823  1.00 43.33 LIG 0.33  C 
BRANCH 13 14
ATOM     14  N   GLY G   1      27.778 -14.930  19.293  1.00 42.49 LIG-0.07  N 
ATOM     15 H2   GLY G   1      28.345 -14.312  19.590  1.00 42.49 LIG 0.27  HD
ATOM     16 H3   GLY G   1      26.983 -14.810  19.672  1.00 42.49 LIG 0.27  HD
ATOM     17 H1   GLY G   1      28.087 -15.739  19.501  1.00 42.49 LIG 0.27  HD
ENDBRANCH 13 14
ENDBRANCH 1 13
TORSDOF 6
ENDMDL
MODEL 58
USER: ADFR SOLUTION from run 150
USER: SCORE 7.332271 LL:  -0.833 LR:  -6.503 RR:   0.000 FEB:  -4.713
USER: RMSD 6.584635
USER: SEED 149
USER: STATUS no improvement in best in 30 clusters for 5 generations
USER: GENES 8
USER: genes 0 Translation |==|  0.18907 0.64887 0.73434
USER: genes 1 Rotation |==|  0.08012 0.63286 0.34508 0.67903
USER: genes 2 Torsion [C]-N--CA-[C] |==|  0.22011
USER: genes 3 Torsion [N]-CA--C-[N] |==|  0.02756
USER: genes 4 Torsion [C]-N--CA-[C] |==|  0.65783
USER: genes 5 Torsion [N]-CA--C-[O] |==|  0.63655
USER: genes 6 Torsion [N]-C--CA-[N] |==|  0.23753
USER: genes 7 Torsion [C]-CA--N-[H2] |==|  0.62035
ROOT
ATOM      1  C   GLY G   1      20.492 -14.907  21.507  1.00 43.90 LIG 0.24  C 
ATOM      2 O    GLY G   1      20.198 -16.009  21.976  1.00 43.93 LIG-0.27  OA
ATOM      3  N   GLY G   2      21.744 -14.491  21.305  1.00 44.62 LIG-0.35  N 
ATOM      4 H    GLY G   2      21.952 -13.678  21.116  1.00 44.62 LIG 0.16  HD
ENDROOT
BRANCH 3 5
ATOM      5  CA  GLY G   2      22.881 -15.391  21.386  1.00 45.53 LIG 0.23  C 
BRANCH 5 6
ATOM      6  C   GLY G   2      23.076 -16.237  20.157  1.00 46.02 LIG 0.23  C 
ATOM      7 O    GLY G   2      23.865 -17.180  20.175  1.00 47.02 LIG-0.27  OA
ATOM      8  N   GLY G   3      22.331 -15.913  19.101  1.00 46.62 LIG-0.35  N 
ATOM      9 H    GLY G   3      21.740 -15.287  19.111  1.00 46.62 LIG 0.16  HD
BRANCH 8 10
ATOM     10  CA  GLY G   3      22.449 -16.595  17.817  1.00 46.72 LIG 0.21  C 
BRANCH 10 11
ATOM     11  C   GLY G   3      22.762 -15.684  16.642  1.00 46.79 LIG 0.21  C 
ATOM     12 O    GLY G   3      22.108 -15.747  15.606  1.00 46.39 LIG-0.29  OA
ENDBRANCH 10 11
ENDBRANCH 8 10
ENDBRANCH 5 6
ENDBRANCH 3 5
BRANCH 1 13
ATOM     13  CA  GLY G   1      19.411 -13.935  21.109  1.00 43.33 LIG 0.33  C 
BRANCH 13 14
ATOM     14  N   GLY G   1      19.117 -14.103  19.668  1.00 42.49 LIG-0.07  N 
ATOM     15 H2   GLY G   1      19.038 -13.304  19.286  1.00 42.49 LIG 0.27  HD
ATOM     16 H3   GLY G   1      19.780 -14.553  19.281  1.00 42.49 LIG 0.27  HD
ATOM     17 H1   GLY G   1      18.356 -14.555  19.571  1.00 42.49 LIG 0.27  HD
ENDBRANCH 13 14
ENDBRANCH 1 13
TORSDOF 6
ENDMDL
MODEL 59
USER: ADFR SOLUTION from run 113
USER: SCORE 7.199671 LL:  -0.725 LR:  -6.484 RR:   0.000 FEB:  -4.694
USER: RMSD 5.995235
USER: SEED 112
USER: STATUS no improvement in best in 22 clusters for 5 generations
USER: GENES 8
USER: genes 0 Translation |==|  0.52990 0.39327 0.51218
USER: genes 1 Rotation |==|  0.51635 0.75906 0.92573 0.53701
USER: genes 2 Torsion [C]-N--CA-[C] |==|  0.75000
USER: genes 3 Torsion [N]-CA--C-[N] |==|  0.00113
USER: genes 4 Torsion [C]-N--CA-[C] |==|  0.86653
USER: genes 5 Torsion [N]-CA--C-[O] |==|  0.30788
USER: genes 6 Torsion [N]-C--CA-[N] |==|  0.05380
USER: genes 7 Torsion [C]-CA--N-[H2] |==|  0.62896
ROOT
ATOM      1  C   GLY G   1      26.372 -18.166  18.342  1.00 43.90 LIG 0.24  C 
ATOM      2 O    GLY G   1      25.526 -19.055  18.219  1.00 43.93 LIG-0.27  OA
ATOM      3  N   GLY G   2      26.079 -16.879  18.543  1.00 44.62 LIG-0.35  N 
ATOM      4 H    GLY G   2      26.657 -16.244  18.485  1.00 44.62 LIG 0.16  HD
ENDROOT
BRANCH 3 5
ATOM      5  CA  GLY G   2      24.740 -16.434  18.883  1.00 45.53 LIG 0.23  C 
BRANCH 5 6
ATOM      6  C   GLY G   2      23.887 -16.105  17.688  1.00 46.02 LIG 0.23  C 
ATOM      7 O    GLY G   2      22.743 -15.683  17.843  1.00 47.02 LIG-0.27  OA
ATOM      8  N   GLY G   3      24.462 -16.271  16.497  1.00 46.62 LIG-0.35  N 
ATOM      9 H    GLY G   3      25.281 -16.513  16.395  1.00 46.62 LIG 0.16  HD
BRANCH 8 10
ATOM     10  CA  GLY G   3      23.748 -16.056  15.243  1.00 46.72 LIG 0.21  C 
BRANCH 10 11
ATOM     11  C   GLY G   3      22.385 -16.724  15.168  1.00 46.79 LIG 0.21  C 
ATOM     12 O    GLY G   3      21.356 -16.055  15.168  1.00 46.39 LIG-0.29  OA
ENDBRANCH 10 11
ENDBRANCH 8 10
ENDBRANCH 5 6
ENDBRANCH 3 5
BRANCH 1 13
ATOM     13  CA  GLY G   1      27.841 -18.498  18.282  1.00 43.33 LIG 0.33  C 
BRANCH 13 14
ATOM     14  N   GLY G   1      28.609 -17.403  18.918  1.00 42.49 LIG-0.07  N 
ATOM     15 H2   GLY G   1      29.298 -17.184  18.399  1.00 42.49 LIG 0.27  HD
ATOM     16 H3   GLY G   1      28.082 -16.695  19.027  1.00 42.49 LIG 0.27  HD
ATOM     17 H1   GLY G   1      28.910 -17.673  19.711  1.00 42.49 LIG 0.27  HD
ENDBRANCH 13 14
ENDBRANCH 1 13
TORSDOF 6
ENDMDL
MODEL 60
USER: ADFR SOLUTION from run 76
USER: SCORE 7.283159 LL:  -0.828 LR:  -6.469 RR:   0.000 FEB:  -4.679
USER: RMSD 4.860914
USER: SEED 75
USER: STATUS no improvement in best in 30 clusters for 5 generations
USER: GENES 8
USER: genes 0 Translation |==|  0.57690 0.58680 0.47677
USER: genes 1 Rotation |==|  0.46576 0.76276 0.12069 0.68949
USER: genes 2 Torsion [C]-N--CA-[C] |==|  0.78333
USER: genes 3 Torsion [N]-CA--C-[N] |==|  0.99422
USER: genes 4 Torsion [C]-N--CA-[C] |==|  0.48428
USER: genes 5 Torsion [N]-CA--C-[O] |==|  0.78920
USER: genes 6 Torsion [N]-C--CA-[N] |==|  0.87853
USER: genes 7 Torsion [C]-CA--N-[H2] |==|  0.53864
ROOT
ATOM      1  C   GLY G   1      27.183 -15.698  17.837  1.00 43.90 LIG 0.24  C 
ATOM      2 O    GLY G   1      26.404 -15.500  16.901  1.00 43.93 LIG-0.27  OA
ATOM      3  N   GLY G   2      27.243 -16.837  18.531  1.00 44.62 LIG-0.35  N 
ATOM      4 H    GLY G   2      27.679 -16.924  19.267  1.00 44.62 LIG 0.16  HD
ENDROOT
BRANCH 3 5
ATOM      5  CA  GLY G   2      26.567 -18.045  18.094  1.00 45.53 LIG 0.23  C 
BRANCH 5 6
ATOM      6  C   GLY G   2      25.088 -18.049  18.374  1.00 46.02 LIG 0.23  C 
ATOM      7 O    GLY G   2      24.399 -19.012  18.043  1.00 47.02 LIG-0.27  OA
ATOM      8  N   GLY G   3      24.612 -16.980  19.013  1.00 46.62 LIG-0.35  N 
ATOM      9 H    GLY G   3      25.107 -16.335  19.292  1.00 46.62 LIG 0.16  HD
BRANCH 8 10
ATOM     10  CA  GLY G   3      23.192 -16.805  19.301  1.00 46.72 LIG 0.21  C 
BRANCH 10 11
ATOM     11  C   GLY G   3      22.865 -15.591  20.154  1.00 46.79 LIG 0.21  C 
ATOM     12 O    GLY G   3      23.080 -15.595  21.362  1.00 46.39 LIG-0.29  OA
ENDBRANCH 10 11
ENDBRANCH 8 10
ENDBRANCH 5 6
ENDBRANCH 3 5
BRANCH 1 13
ATOM     13  CA  GLY G   1      28.158 -14.628  18.257  1.00 43.33 LIG 0.33  C 
BRANCH 13 14
ATOM     14  N   GLY G   1      28.183 -14.551  19.735  1.00 42.49 LIG-0.07  N 
ATOM     15 H2   GLY G   1      28.592 -13.802  19.987  1.00 42.49 LIG 0.27  HD
ATOM     16 H3   GLY G   1      27.350 -14.553  20.047  1.00 42.49 LIG 0.27  HD
ATOM     17 H1   GLY G   1      28.623 -15.253  20.062  1.00 42.49 LIG 0.27  HD
ENDBRANCH 13 14
ENDBRANCH 1 13
TORSDOF 6
ENDMDL
MODEL 61
USER: ADFR SOLUTION from run 171
USER: SCORE 6.872237 LL:  -1.010 LR:  -6.413 RR:   0.000 FEB:  -4.623
USER: RMSD 5.488581
USER: SEED 170
USER: STATUS no improvement in best in 31 clusters for 5 generations
USER: GENES 8
USER: genes 0 Translation |==|  0.40304 0.49896 0.55927
USER: genes 1 Rotation |==|  0.16544 0.68587 0.54456 0.81865
USER: genes 2 Torsion [C]-N--CA-[C] |==|  0.20558
USER: genes 3 Torsion [N]-CA--C-[N] |==|  0.82907
USER: genes 4 Torsion [C]-N--CA-[C] |==|  0.66767
USER: genes 5 Torsion [N]-CA--C-[O] |==|  0.99179
USER: genes 6 Torsion [N]-C--CA-[N] |==|  0.79259
USER: genes 7 Torsion [C]-CA--N-[H2] |==|  0.55215
ROOT
ATOM      1  C   GLY G   1      24.183 -16.818  19.013  1.00 43.90 LIG 0.24  C 
ATOM      2 O    GLY G   1      24.112 -17.924  18.472  1.00 43.93 LIG-0.27  OA
ATOM      3  N   GLY G   2      25.179 -15.952  18.815  1.00 44.62 LIG-0.35  N 
ATOM      4 H    GLY G   2      25.304 -15.250  19.296  1.00 44.62 LIG 0.16  HD
ENDROOT
BRANCH 3 5
ATOM      5  CA  GLY G   2      26.155 -16.124  17.753  1.00 45.53 LIG 0.23  C 
BRANCH 5 6
ATOM      6  C   GLY G   2      25.619 -15.818  16.380  1.00 46.02 LIG 0.23  C 
ATOM      7 O    GLY G   2      26.131 -14.930  15.702  1.00 47.02 LIG-0.27  OA
ATOM      8  N   GLY G   3      24.606 -16.579  15.965  1.00 46.62 LIG-0.35  N 
ATOM      9 H    GLY G   3      24.288 -17.235  16.421  1.00 46.62 LIG 0.16  HD
BRANCH 8 10
ATOM     10  CA  GLY G   3      23.937 -16.366  14.687  1.00 46.72 LIG 0.21  C 
BRANCH 10 11
ATOM     11  C   GLY G   3      22.454 -16.055  14.793  1.00 46.79 LIG 0.21  C 
ATOM     12 O    GLY G   3      21.889 -16.049  15.883  1.00 46.39 LIG-0.29  OA
ENDBRANCH 10 11
ENDBRANCH 8 10
ENDBRANCH 5 6
ENDBRANCH 3 5
BRANCH 1 13
ATOM     13  CA  GLY G   1      23.100 -16.359  19.955  1.00 43.33 LIG 0.33  C 
BRANCH 13 14
ATOM     14  N   GLY G   1      23.606 -16.430  21.344  1.00 42.49 LIG-0.07  N 
ATOM     15 H2   GLY G   1      22.919 -16.429  21.910  1.00 42.49 LIG 0.27  HD
ATOM     16 H3   GLY G   1      24.077 -17.177  21.450  1.00 42.49 LIG 0.27  HD
ATOM     17 H1   GLY G   1      24.126 -15.726  21.507  1.00 42.49 LIG 0.27  HD
ENDBRANCH 13 14
ENDBRANCH 1 13
TORSDOF 6
ENDMDL
MODEL 62
USER: ADFR SOLUTION from run 160
USER: SCORE 6.951267 LL:  -1.100 LR:  -6.391 RR:   0.000 FEB:  -4.601
USER: RMSD 9.145062
USER: SEED 159
USER: STATUS no improvement in best in 32 clusters for 5 generations
USER: GENES 8
USER: genes 0 Translation |==|  0.23536 0.63868 0.67897
USER: genes 1 Rotation |==|  0.48177 0.42613 0.70809 0.94823
USER: genes 2 Torsion [C]-N--CA-[C] |==|  0.23333
USER: genes 3 Torsion [N]-CA--C-[N] |==|  0.80691
USER: genes 4 Torsion [C]-N--CA-[C] |==|  0.77760
USER: genes 5 Torsion [N]-CA--C-[O] |==|  0.99279
USER: genes 6 Torsion [N]-C--CA-[N] |==|  0.36578
USER: genes 7 Torsion [C]-CA--N-[H2] |==|  0.21850
ROOT
ATOM      1  C   GLY G   1      21.291 -15.037  20.718  1.00 43.90 LIG 0.24  C 
ATOM      2 O    GLY G   1      21.722 -14.215  19.906  1.00 43.93 LIG-0.27  OA
ATOM      3  N   GLY G   2      21.517 -14.979  22.032  1.00 44.62 LIG-0.35  N 
ATOM      4 H    GLY G   2      21.341 -15.622  22.575  1.00 44.62 LIG 0.16  HD
ENDROOT
BRANCH 3 5
ATOM      5  CA  GLY G   2      22.089 -13.805  22.668  1.00 45.53 LIG 0.23  C 
BRANCH 5 6
ATOM      6  C   GLY G   2      21.077 -12.741  23.000  1.00 46.02 LIG 0.23  C 
ATOM      7 O    GLY G   2      20.810 -12.488  24.173  1.00 47.02 LIG-0.27  OA
ATOM      8  N   GLY G   3      20.542 -12.100  21.962  1.00 46.62 LIG-0.35  N 
ATOM      9 H    GLY G   3      20.773 -12.243  21.145  1.00 46.62 LIG 0.16  HD
BRANCH 8 10
ATOM     10  CA  GLY G   3      19.502 -11.088  22.115  1.00 46.72 LIG 0.21  C 
BRANCH 10 11
ATOM     11  C   GLY G   3      18.102 -11.644  22.315  1.00 46.79 LIG 0.21  C 
ATOM     12 O    GLY G   3      17.897 -12.854  22.293  1.00 46.39 LIG-0.29  OA
ENDBRANCH 10 11
ENDBRANCH 8 10
ENDBRANCH 5 6
ENDBRANCH 3 5
BRANCH 1 13
ATOM     13  CA  GLY G   1      20.439 -16.191  20.255  1.00 43.33 LIG 0.33  C 
BRANCH 13 14
ATOM     14  N   GLY G   1      19.385 -15.681  19.350  1.00 42.49 LIG-0.07  N 
ATOM     15 H2   GLY G   1      19.732 -15.535  18.543  1.00 42.49 LIG 0.27  HD
ATOM     16 H3   GLY G   1      18.731 -16.280  19.288  1.00 42.49 LIG 0.27  HD
ATOM     17 H1   GLY G   1      19.059 -14.918  19.674  1.00 42.49 LIG 0.27  HD
ENDBRANCH 13 14
ENDBRANCH 1 13
TORSDOF 6
ENDMDL
MODEL 63
USER: ADFR SOLUTION from run 195
USER: SCORE 6.946509 LL:  -0.735 LR:  -6.346 RR:   0.000 FEB:  -4.556
USER: RMSD 8.199810
USER: SEED 194
USER: STATUS no improvement in best in 25 clusters for 5 generations
USER: GENES 8
USER: genes 0 Translation |==|  0.81497 0.51319 0.75743
USER: genes 1 Rotation |==|  0.32121 0.19956 0.58630 0.84687
USER: genes 2 Torsion [C]-N--CA-[C] |==|  0.22789
USER: genes 3 Torsion [N]-CA--C-[N] |==|  0.45559
USER: genes 4 Torsion [C]-N--CA-[C] |==|  0.28998
USER: genes 5 Torsion [N]-CA--C-[O] |==|  0.16621
USER: genes 6 Torsion [N]-C--CA-[N] |==|  0.93728
USER: genes 7 Torsion [C]-CA--N-[H2] |==|  0.99258
ROOT
ATOM      1  C   GLY G   1      31.289 -16.637  21.836  1.00 43.90 LIG 0.24  C 
ATOM      2 O    GLY G   1      32.420 -16.192  22.048  1.00 43.93 LIG-0.27  OA
ATOM      3  N   GLY G   2      30.192 -16.225  22.475  1.00 44.62 LIG-0.35  N 
ATOM      4 H    GLY G   2      29.435 -16.630  22.433  1.00 44.62 LIG 0.16  HD
ENDROOT
BRANCH 3 5
ATOM      5  CA  GLY G   2      30.183 -15.037  23.310  1.00 45.53 LIG 0.23  C 
BRANCH 5 6
ATOM      6  C   GLY G   2      30.019 -13.754  22.541  1.00 46.02 LIG 0.23  C 
ATOM      7 O    GLY G   2      30.174 -13.741  21.321  1.00 47.02 LIG-0.27  OA
ATOM      8  N   GLY G   3      29.676 -12.684  23.257  1.00 46.62 LIG-0.35  N 
ATOM      9 H    GLY G   3      29.514 -12.710  24.101  1.00 46.62 LIG 0.16  HD
BRANCH 8 10
ATOM     10  CA  GLY G   3      29.540 -11.356  22.668  1.00 46.72 LIG 0.21  C 
BRANCH 10 11
ATOM     11  C   GLY G   3      28.106 -10.896  22.466  1.00 46.79 LIG 0.21  C 
ATOM     12 O    GLY G   3      27.338 -10.794  23.418  1.00 46.39 LIG-0.29  OA
ENDBRANCH 10 11
ENDBRANCH 8 10
ENDBRANCH 5 6
ENDBRANCH 3 5
BRANCH 1 13
ATOM     13  CA  GLY G   1      31.073 -17.704  20.794  1.00 43.33 LIG 0.33  C 
BRANCH 13 14
ATOM     14  N   GLY G   1      29.812 -18.420  21.091  1.00 42.49 LIG-0.07  N 
ATOM     15 H2   GLY G   1      29.460 -18.102  21.843  1.00 42.49 LIG 0.27  HD
ATOM     16 H3   GLY G   1      29.238 -18.301  20.421  1.00 42.49 LIG 0.27  HD
ATOM     17 H1   GLY G   1      29.979 -19.289  21.187  1.00 42.49 LIG 0.27  HD
ENDBRANCH 13 14
ENDBRANCH 1 13
TORSDOF 6
ENDMDL
MODEL 64
USER: ADFR SOLUTION from run 46
USER: SCORE 7.043211 LL:  -0.868 LR:  -6.329 RR:   0.000 FEB:  -4.539
USER: RMSD 6.883130
USER: SEED 45
USER: STATUS no improvement in best in 23 clusters for 5 generations
USER: GENES 8
USER: genes 0 Translation |==|  0.17337 0.55884 0.68189
USER: genes 1 Rotation |==|  0.26409 0.69815 0.67577 0.85240
USER: genes 2 Torsion [C]-N--CA-[C] |==|  0.81701
USER: genes 3 Torsion [N]-CA--C-[N] |==|  0.37878
USER: genes 4 Torsion [C]-N--CA-[C] |==|  0.44901
USER: genes 5 Torsion [N]-CA--C-[O] |==|  0.99486
USER: genes 6 Torsion [N]-C--CA-[N] |==|  0.81292
USER: genes 7 Torsion [C]-CA--N-[H2] |==|  0.15872
ROOT
ATOM      1  C   GLY G   1      20.222 -16.055  20.760  1.00 43.90 LIG 0.24  C 
ATOM      2 O    GLY G   1      19.989 -16.752  19.769  1.00 43.93 LIG-0.27  OA
ATOM      3  N   GLY G   2      21.032 -14.994  20.754  1.00 44.62 LIG-0.35  N 
ATOM      4 H    GLY G   2      21.306 -14.599  21.467  1.00 44.62 LIG 0.16  HD
ENDROOT
BRANCH 3 5
ATOM      5  CA  GLY G   2      21.529 -14.408  19.522  1.00 45.53 LIG 0.23  C 
BRANCH 5 6
ATOM      6  C   GLY G   2      22.453 -15.310  18.749  1.00 46.02 LIG 0.23  C 
ATOM      7 O    GLY G   2      23.309 -15.968  19.337  1.00 47.02 LIG-0.27  OA
ATOM      8  N   GLY G   3      22.254 -15.359  17.432  1.00 46.62 LIG-0.35  N 
ATOM      9 H    GLY G   3      21.618 -14.940  17.032  1.00 46.62 LIG 0.16  HD
BRANCH 8 10
ATOM     10  CA  GLY G   3      23.105 -16.136  16.537  1.00 46.72 LIG 0.21  C 
BRANCH 10 11
ATOM     11  C   GLY G   3      22.493 -16.429  15.178  1.00 46.79 LIG 0.21  C 
ATOM     12 O    GLY G   3      21.356 -16.055  14.906  1.00 46.39 LIG-0.29  OA
ENDBRANCH 10 11
ENDBRANCH 8 10
ENDBRANCH 5 6
ENDBRANCH 3 5
BRANCH 1 13
ATOM     13  CA  GLY G   1      19.568 -16.366  22.082  1.00 43.33 LIG 0.33  C 
BRANCH 13 14
ATOM     14  N   GLY G   1      20.605 -16.804  23.043  1.00 42.49 LIG-0.07  N 
ATOM     15 H2   GLY G   1      21.226 -16.170  23.118  1.00 42.49 LIG 0.27  HD
ATOM     16 H3   GLY G   1      20.232 -16.950  23.837  1.00 42.49 LIG 0.27  HD
ATOM     17 H1   GLY G   1      20.983 -17.555  22.750  1.00 42.49 LIG 0.27  HD
ENDBRANCH 13 14
ENDBRANCH 1 13
TORSDOF 6
ENDMDL
MODEL 65
USER: ADFR SOLUTION from run 9
USER: SCORE 7.054021 LL:  -0.916 LR:  -6.330 RR:   0.000 FEB:  -4.541
USER: RMSD 3.474146
USER: SEED 989050
USER: STATUS no improvement in best in 27 clusters for 5 generations
USER: GENES 8
USER: genes 0 Translation |==|  0.34304 0.56362 0.56988
USER: genes 1 Rotation |==|  0.86798 0.64790 0.27442 0.70453
USER: genes 2 Torsion [C]-N--CA-[C] |==|  0.18831
USER: genes 3 Torsion [N]-CA--C-[N] |==|  0.64845
USER: genes 4 Torsion [C]-N--CA-[C] |==|  0.82456
USER: genes 5 Torsion [N]-CA--C-[O] |==|  0.45405
USER: genes 6 Torsion [N]-C--CA-[N] |==|  0.35455
USER: genes 7 Torsion [C]-CA--N-[H2] |==|  0.47118
ROOT
ATOM      1  C   GLY G   1      23.148 -15.994  19.164  1.00 43.90 LIG 0.24  C 
ATOM      2 O    GLY G   1      24.138 -15.305  18.904  1.00 43.93 LIG-0.27  OA
ATOM      3  N   GLY G   2      22.551 -16.805  18.288  1.00 44.62 LIG-0.35  N 
ATOM      4 H    GLY G   2      21.785 -17.171  18.423  1.00 44.62 LIG 0.16  HD
ENDROOT
BRANCH 3 5
ATOM      5  CA  GLY G   2      23.155 -17.145  17.012  1.00 45.53 LIG 0.23  C 
BRANCH 5 6
ATOM      6  C   GLY G   2      24.393 -17.993  17.131  1.00 46.02 LIG 0.23  C 
ATOM      7 O    GLY G   2      24.356 -19.055  17.749  1.00 47.02 LIG-0.27  OA
ATOM      8  N   GLY G   3      25.478 -17.531  16.511  1.00 46.62 LIG-0.35  N 
ATOM      9 H    GLY G   3      25.484 -16.815  16.033  1.00 46.62 LIG 0.16  HD
BRANCH 8 10
ATOM     10  CA  GLY G   3      26.770 -18.204  16.584  1.00 46.72 LIG 0.21  C 
BRANCH 10 11
ATOM     11  C   GLY G   3      27.369 -18.273  17.979  1.00 46.79 LIG 0.21  C 
ATOM     12 O    GLY G   3      28.280 -19.055  18.234  1.00 46.39 LIG-0.29  OA
ENDBRANCH 10 11
ENDBRANCH 8 10
ENDBRANCH 5 6
ENDBRANCH 3 5
BRANCH 1 13
ATOM     13  CA  GLY G   1      22.542 -15.967  20.544  1.00 43.33 LIG 0.33  C 
BRANCH 13 14
ATOM     14  N   GLY G   1      23.606 -16.217  21.543  1.00 42.49 LIG-0.07  N 
ATOM     15 H2   GLY G   1      23.290 -16.055  22.359  1.00 42.49 LIG 0.27  HD
ATOM     16 H3   GLY G   1      23.870 -17.065  21.490  1.00 42.49 LIG 0.27  HD
ATOM     17 H1   GLY G   1      24.298 -15.680  21.381  1.00 42.49 LIG 0.27  HD
ENDBRANCH 13 14
ENDBRANCH 1 13
TORSDOF 6
ENDMDL
MODEL 66
USER: ADFR SOLUTION from run 200
USER: SCORE 7.205665 LL:  -1.011 LR:  -6.334 RR:   0.000 FEB:  -4.545
USER: RMSD 5.922808
USER: SEED 199
USER: STATUS no improvement in best in 32 clusters for 5 generations
USER: GENES 8
USER: genes 0 Translation |==|  0.70413 0.36387 0.54790
USER: genes 1 Rotation |==|  0.33592 0.95323 0.55981 0.61868
USER: genes 2 Torsion [C]-N--CA-[C] |==|  0.17224
USER: genes 3 Torsion [N]-CA--C-[N] |==|  0.57636
USER: genes 4 Torsion [C]-N--CA-[C] |==|  0.68401
USER: genes 5 Torsion [N]-CA--C-[O] |==|  0.04977
USER: genes 6 Torsion [N]-C--CA-[N] |==|  0.52687
USER: genes 7 Torsion [C]-CA--N-[H2] |==|  0.96894
ROOT
ATOM      1  C   GLY G   1      29.377 -18.541  18.851  1.00 43.90 LIG 0.24  C 
ATOM      2 O    GLY G   1      28.335 -18.988  19.334  1.00 43.93 LIG-0.27  OA
ATOM      3  N   GLY G   2      29.709 -18.648  17.562  1.00 44.62 LIG-0.35  N 
ATOM      4 H    GLY G   2      30.492 -18.467  17.255  1.00 44.62 LIG 0.16  HD
ENDROOT
BRANCH 3 5
ATOM      5  CA  GLY G   2      28.762 -19.086  16.553  1.00 45.53 LIG 0.23  C 
BRANCH 5 6
ATOM      6  C   GLY G   2      27.571 -18.179  16.402  1.00 46.02 LIG 0.23  C 
ATOM      7 O    GLY G   2      27.674 -16.979  16.649  1.00 47.02 LIG-0.27  OA
ATOM      8  N   GLY G   3      26.451 -18.754  15.965  1.00 46.62 LIG-0.35  N 
ATOM      9 H    GLY G   3      26.399 -19.582  15.740  1.00 46.62 LIG 0.16  HD
BRANCH 8 10
ATOM     10  CA  GLY G   3      25.196 -18.023  15.826  1.00 46.72 LIG 0.21  C 
BRANCH 10 11
ATOM     11  C   GLY G   3      24.094 -18.472  16.772  1.00 46.79 LIG 0.21  C 
ATOM     12 O    GLY G   3      24.356 -19.130  17.774  1.00 46.39 LIG-0.29  OA
ENDBRANCH 10 11
ENDBRANCH 8 10
ENDBRANCH 5 6
ENDBRANCH 3 5
BRANCH 1 13
ATOM     13  CA  GLY G   1      30.368 -17.807  19.719  1.00 43.33 LIG 0.33  C 
BRANCH 13 14
ATOM     14  N   GLY G   1      29.981 -17.974  21.138  1.00 42.49 LIG-0.07  N 
ATOM     15 H2   GLY G   1      29.166 -18.328  21.184  1.00 42.49 LIG 0.27  HD
ATOM     16 H3   GLY G   1      30.562 -18.512  21.543  1.00 42.49 LIG 0.27  HD
ATOM     17 H1   GLY G   1      29.982 -17.180  21.541  1.00 42.49 LIG 0.27  HD
ENDBRANCH 13 14
ENDBRANCH 1 13
TORSDOF 6
ENDMDL
MODEL 67
USER: ADFR SOLUTION from run 133
USER: SCORE 6.823348 LL:  -0.673 LR:  -6.314 RR:   0.000 FEB:  -4.524
USER: RMSD 8.739248
USER: SEED 132
USER: STATUS no improvement in best in 26 clusters for 5 generations
USER: GENES 8
USER: genes 0 Translation |==|  0.21246 0.70524 0.65171
USER: genes 1 Rotation |==|  0.15004 0.18819 0.50475 0.67401
USER: genes 2 Torsion [C]-N--CA-[C] |==|  0.84792
USER: genes 3 Torsion [N]-CA--C-[N] |==|  0.92701
USER: genes 4 Torsion [C]-N--CA-[C] |==|  0.90421
USER: genes 5 Torsion [N]-CA--C-[O] |==|  0.72393
USER: genes 6 Torsion [N]-C--CA-[N] |==|  0.93671
USER: genes 7 Torsion [C]-CA--N-[H2] |==|  0.27052
ROOT
ATOM      1  C   GLY G   1      20.896 -14.188  20.330  1.00 43.90 LIG 0.24  C 
ATOM      2 O    GLY G   1      21.796 -14.021  21.156  1.00 43.93 LIG-0.27  OA
ATOM      3  N   GLY G   2      20.150 -13.202  19.827  1.00 44.62 LIG-0.35  N 
ATOM      4 H    GLY G   2      19.435 -13.333  19.367  1.00 44.62 LIG 0.16  HD
ENDROOT
BRANCH 3 5
ATOM      5  CA  GLY G   2      20.486 -11.803  20.018  1.00 45.53 LIG 0.23  C 
BRANCH 5 6
ATOM      6  C   GLY G   2      20.656 -11.410  21.462  1.00 46.02 LIG 0.23  C 
ATOM      7 O    GLY G   2      21.356 -10.444  21.760  1.00 47.02 LIG-0.27  OA
ATOM      8  N   GLY G   3      19.988 -12.146  22.349  1.00 46.62 LIG-0.35  N 
ATOM      9 H    GLY G   3      19.456 -12.786  22.131  1.00 46.62 LIG 0.16  HD
BRANCH 8 10
ATOM     10  CA  GLY G   3      20.099 -11.933  23.788  1.00 46.72 LIG 0.21  C 
BRANCH 10 11
ATOM     11  C   GLY G   3      21.476 -11.493  24.259  1.00 46.79 LIG 0.21  C 
ATOM     12 O    GLY G   3      22.263 -12.302  24.742  1.00 46.39 LIG-0.29  OA
ENDBRANCH 10 11
ENDBRANCH 8 10
ENDBRANCH 5 6
ENDBRANCH 3 5
BRANCH 1 13
ATOM     13  CA  GLY G   1      20.585 -15.569  19.811  1.00 43.33 LIG 0.33  C 
BRANCH 13 14
ATOM     14  N   GLY G   1      19.198 -15.589  19.293  1.00 42.49 LIG-0.07  N 
ATOM     15 H2   GLY G   1      19.210 -15.477  18.410  1.00 42.49 LIG 0.27  HD
ATOM     16 H3   GLY G   1      18.820 -16.370  19.488  1.00 42.49 LIG 0.27  HD
ATOM     17 H1   GLY G   1      18.731 -14.931  19.669  1.00 42.49 LIG 0.27  HD
ENDBRANCH 13 14
ENDBRANCH 1 13
TORSDOF 6
ENDMDL
MODEL 68
USER: ADFR SOLUTION from run 90
USER: SCORE 7.096996 LL:  -0.935 LR:  -6.289 RR:   0.000 FEB:  -4.499
USER: RMSD 4.652443
USER: SEED 89
USER: STATUS no improvement in best in 24 clusters for 5 generations
USER: GENES 8
USER: genes 0 Translation |==|  0.34212 0.55821 0.55435
USER: genes 1 Rotation |==|  0.87243 0.65032 0.27350 0.69339
USER: genes 2 Torsion [C]-N--CA-[C] |==|  0.21667
USER: genes 3 Torsion [N]-CA--C-[N] |==|  0.57070
USER: genes 4 Torsion [C]-N--CA-[C] |==|  0.37149
USER: genes 5 Torsion [N]-CA--C-[O] |==|  0.00223
USER: genes 6 Torsion [N]-C--CA-[N] |==|  0.35080
USER: genes 7 Torsion [C]-CA--N-[H2] |==|  0.14268
ROOT
ATOM      1  C   GLY G   1      23.133 -16.063  18.942  1.00 43.90 LIG 0.24  C 
ATOM      2 O    GLY G   1      24.133 -15.383  18.700  1.00 43.93 LIG-0.27  OA
ATOM      3  N   GLY G   2      22.510 -16.823  18.040  1.00 44.62 LIG-0.35  N 
ATOM      4 H    GLY G   2      21.737 -17.180  18.168  1.00 44.62 LIG 0.16  HD
ENDROOT
BRANCH 3 5
ATOM      5  CA  GLY G   2      23.091 -17.119  16.743  1.00 45.53 LIG 0.23  C 
BRANCH 5 6
ATOM      6  C   GLY G   2      24.157 -18.182  16.782  1.00 46.02 LIG 0.23  C 
ATOM      7 O    GLY G   2      24.140 -19.040  17.662  1.00 47.02 LIG-0.27  OA
ATOM      8  N   GLY G   3      25.064 -18.135  15.807  1.00 46.62 LIG-0.35  N 
ATOM      9 H    GLY G   3      25.039 -17.566  15.162  1.00 46.62 LIG 0.16  HD
BRANCH 8 10
ATOM     10  CA  GLY G   3      26.194 -19.055  15.741  1.00 46.72 LIG 0.21  C 
BRANCH 10 11
ATOM     11  C   GLY G   3      26.435 -19.666  14.371  1.00 46.79 LIG 0.21  C 
ATOM     12 O    GLY G   3      25.721 -19.370  13.417  1.00 46.39 LIG-0.29  OA
ENDBRANCH 10 11
ENDBRANCH 8 10
ENDBRANCH 5 6
ENDBRANCH 3 5
BRANCH 1 13
ATOM     13  CA  GLY G   1      22.543 -16.084  20.330  1.00 43.33 LIG 0.33  C 
BRANCH 13 14
ATOM     14  N   GLY G   1      23.606 -16.430  21.301  1.00 42.49 LIG-0.07  N 
ATOM     15 H2   GLY G   1      24.308 -15.898  21.174  1.00 42.49 LIG 0.27  HD
ATOM     16 H3   GLY G   1      23.298 -16.323  22.128  1.00 42.49 LIG 0.27  HD
ATOM     17 H1   GLY G   1      23.852 -17.278  21.183  1.00 42.49 LIG 0.27  HD
ENDBRANCH 13 14
ENDBRANCH 1 13
TORSDOF 6
ENDMDL
MODEL 69
USER: ADFR SOLUTION from run 196
USER: SCORE 7.024633 LL:  -0.849 LR:  -6.268 RR:   0.000 FEB:  -4.478
USER: RMSD 6.090771
USER: SEED 195
USER: STATUS no improvement in best in 29 clusters for 5 generations
USER: GENES 8
USER: genes 0 Translation |==|  0.58906 0.69935 0.52088
USER: genes 1 Rotation |==|  0.44170 0.97484 0.52077 0.64386
USER: genes 2 Torsion [C]-N--CA-[C] |==|  0.78889
USER: genes 3 Torsion [N]-CA--C-[N] |==|  0.46546
USER: genes 4 Torsion [C]-N--CA-[C] |==|  0.29097
USER: genes 5 Torsion [N]-CA--C-[O] |==|  0.18636
USER: genes 6 Torsion [N]-C--CA-[N] |==|  0.80220
USER: genes 7 Torsion [C]-CA--N-[H2] |==|  0.64974
ROOT
ATOM      1  C   GLY G   1      27.392 -14.263  18.466  1.00 43.90 LIG 0.24  C 
ATOM      2 O    GLY G   1      26.231 -14.179  18.872  1.00 43.93 LIG-0.27  OA
ATOM      3  N   GLY G   2      27.724 -14.552  17.206  1.00 44.62 LIG-0.35  N 
ATOM      4 H    GLY G   2      28.523 -14.751  16.956  1.00 44.62 LIG 0.16  HD
ENDROOT
BRANCH 3 5
ATOM      5  CA  GLY G   2      26.749 -14.555  16.130  1.00 45.53 LIG 0.23  C 
BRANCH 5 6
ATOM      6  C   GLY G   2      25.851 -15.763  16.126  1.00 46.02 LIG 0.23  C 
ATOM      7 O    GLY G   2      26.106 -16.724  16.849  1.00 47.02 LIG-0.27  OA
ATOM      8  N   GLY G   3      24.785 -15.695  15.330  1.00 46.62 LIG-0.35  N 
ATOM      9 H    GLY G   3      24.581 -14.998  14.868  1.00 46.62 LIG 0.16  HD
BRANCH 8 10
ATOM     10  CA  GLY G   3      23.855 -16.807  15.167  1.00 46.72 LIG 0.21  C 
BRANCH 10 11
ATOM     11  C   GLY G   3      22.530 -16.636  15.890  1.00 46.79 LIG 0.21  C 
ATOM     12 O    GLY G   3      21.731 -15.771  15.543  1.00 46.39 LIG-0.29  OA
ENDBRANCH 10 11
ENDBRANCH 8 10
ENDBRANCH 5 6
ENDBRANCH 3 5
BRANCH 1 13
ATOM     13  CA  GLY G   1      28.548 -14.021  19.403  1.00 43.33 LIG 0.33  C 
BRANCH 13 14
ATOM     14  N   GLY G   1      29.232 -15.307  19.668  1.00 42.49 LIG-0.07  N 
ATOM     15 H2   GLY G   1      29.283 -15.441  20.546  1.00 42.49 LIG 0.27  HD
ATOM     16 H3   GLY G   1      28.773 -15.970  19.293  1.00 42.49 LIG 0.27  HD
ATOM     17 H1   GLY G   1      30.053 -15.283  19.324  1.00 42.49 LIG 0.27  HD
ENDBRANCH 13 14
ENDBRANCH 1 13
TORSDOF 6
ENDMDL
MODEL 70
USER: ADFR SOLUTION from run 24
USER: SCORE 6.973173 LL:  -0.905 LR:  -6.259 RR:   0.000 FEB:  -4.469
USER: RMSD 5.749989
USER: SEED 23
USER: STATUS no improvement in best in 31 clusters for 5 generations
USER: GENES 8
USER: genes 0 Translation |==|  0.60748 0.37649 0.39416
USER: genes 1 Rotation |==|  0.51009 0.40367 0.94318 0.71027
USER: genes 2 Torsion [C]-N--CA-[C] |==|  0.14465
USER: genes 3 Torsion [N]-CA--C-[N] |==|  0.64391
USER: genes 4 Torsion [C]-N--CA-[C] |==|  0.64300
USER: genes 5 Torsion [N]-CA--C-[O] |==|  0.60309
USER: genes 6 Torsion [N]-C--CA-[N] |==|  0.44658
USER: genes 7 Torsion [C]-CA--N-[H2] |==|  0.44334
ROOT
ATOM      1  C   GLY G   1      27.710 -18.380  16.660  1.00 43.90 LIG 0.24  C 
ATOM      2 O    GLY G   1      27.102 -17.739  15.799  1.00 43.93 LIG-0.27  OA
ATOM      3  N   GLY G   2      27.528 -18.227  17.973  1.00 44.62 LIG-0.35  N 
ATOM      4 H    GLY G   2      28.048 -18.565  18.569  1.00 44.62 LIG 0.16  HD
ENDROOT
BRANCH 3 5
ATOM      5  CA  GLY G   2      26.418 -17.466  18.517  1.00 45.53 LIG 0.23  C 
BRANCH 5 6
ATOM      6  C   GLY G   2      25.074 -17.881  17.980  1.00 46.02 LIG 0.23  C 
ATOM      7 O    GLY G   2      24.726 -19.059  18.032  1.00 47.02 LIG-0.27  OA
ATOM      8  N   GLY G   3      24.312 -16.902  17.492  1.00 46.62 LIG-0.35  N 
ATOM      9 H    GLY G   3      24.538 -16.072  17.509  1.00 46.62 LIG 0.16  HD
BRANCH 8 10
ATOM     10  CA  GLY G   3      23.012 -17.151  16.879  1.00 46.72 LIG 0.21  C 
BRANCH 10 11
ATOM     11  C   GLY G   3      22.830 -16.526  15.506  1.00 46.79 LIG 0.21  C 
ATOM     12 O    GLY G   3      21.748 -16.055  15.168  1.00 46.39 LIG-0.29  OA
ENDBRANCH 10 11
ENDBRANCH 8 10
ENDBRANCH 5 6
ENDBRANCH 3 5
BRANCH 1 13
ATOM     13  CA  GLY G   1      28.724 -19.422  16.260  1.00 43.33 LIG 0.33  C 
BRANCH 13 14
ATOM     14  N   GLY G   1      28.491 -19.805  14.849  1.00 42.49 LIG-0.07  N 
ATOM     15 H2   GLY G   1      29.229 -20.175  14.517  1.00 42.49 LIG 0.27  HD
ATOM     16 H3   GLY G   1      27.821 -20.389  14.807  1.00 42.49 LIG 0.27  HD
ATOM     17 H1   GLY G   1      28.284 -19.081  14.375  1.00 42.49 LIG 0.27  HD
ENDBRANCH 13 14
ENDBRANCH 1 13
TORSDOF 6
ENDMDL
MODEL 71
USER: ADFR SOLUTION from run 116
USER: SCORE 6.964277 LL:  -0.762 LR:  -6.259 RR:   0.000 FEB:  -4.469
USER: RMSD 6.856341
USER: SEED 115
USER: STATUS no improvement in best in 36 clusters for 5 generations
USER: GENES 8
USER: genes 0 Translation |==|  0.81594 0.47221 0.65111
USER: genes 1 Rotation |==|  0.25180 0.34322 0.72988 0.83312
USER: genes 2 Torsion [C]-N--CA-[C] |==|  0.19977
USER: genes 3 Torsion [N]-CA--C-[N] |==|  0.07853
USER: genes 4 Torsion [C]-N--CA-[C] |==|  0.65836
USER: genes 5 Torsion [N]-CA--C-[O] |==|  0.13100
USER: genes 6 Torsion [N]-C--CA-[N] |==|  0.01001
USER: genes 7 Torsion [C]-CA--N-[H2] |==|  0.60158
ROOT
ATOM      1  C   GLY G   1      31.306 -17.159  20.321  1.00 43.90 LIG 0.24  C 
ATOM      2 O    GLY G   1      32.288 -16.840  19.647  1.00 43.93 LIG-0.27  OA
ATOM      3  N   GLY G   2      30.571 -16.297  21.027  1.00 44.62 LIG-0.35  N 
ATOM      4 H    GLY G   2      29.981 -16.535  21.606  1.00 44.62 LIG 0.16  HD
ENDROOT
BRANCH 3 5
ATOM      5  CA  GLY G   2      30.708 -14.859  20.875  1.00 45.53 LIG 0.23  C 
BRANCH 5 6
ATOM      6  C   GLY G   2      30.154 -14.329  19.580  1.00 46.02 LIG 0.23  C 
ATOM      7 O    GLY G   2      30.642 -13.325  19.065  1.00 47.02 LIG-0.27  OA
ATOM      8  N   GLY G   3      29.154 -15.028  19.044  1.00 46.62 LIG-0.35  N 
ATOM      9 H    GLY G   3      28.854 -15.761  19.379  1.00 46.62 LIG 0.16  HD
BRANCH 8 10
ATOM     10  CA  GLY G   3      28.469 -14.609  17.825  1.00 46.72 LIG 0.21  C 
BRANCH 10 11
ATOM     11  C   GLY G   3      26.968 -14.432  17.972  1.00 46.79 LIG 0.21  C 
ATOM     12 O    GLY G   3      26.499 -13.805  18.918  1.00 46.39 LIG-0.29  OA
ENDBRANCH 10 11
ENDBRANCH 8 10
ENDBRANCH 5 6
ENDBRANCH 3 5
BRANCH 1 13
ATOM     13  CA  GLY G   1      30.854 -18.597  20.377  1.00 43.33 LIG 0.33  C 
BRANCH 13 14
ATOM     14  N   GLY G   1      29.606 -18.680  21.168  1.00 42.49 LIG-0.07  N 
ATOM     15 H2   GLY G   1      29.606 -19.431  21.645  1.00 42.49 LIG 0.27  HD
ATOM     16 H3   GLY G   1      29.554 -17.981  21.716  1.00 42.49 LIG 0.27  HD
ATOM     17 H1   GLY G   1      28.905 -18.678  20.619  1.00 42.49 LIG 0.27  HD
ENDBRANCH 13 14
ENDBRANCH 1 13
TORSDOF 6
ENDMDL
MODEL 72
USER: ADFR SOLUTION from run 135
USER: SCORE 6.950170 LL:  -0.885 LR:  -6.233 RR:   0.000 FEB:  -4.443
USER: RMSD 6.465768
USER: SEED 134
USER: STATUS no improvement in best in 29 clusters for 5 generations
USER: GENES 8
USER: genes 0 Translation |==|  0.56647 0.31351 0.22002
USER: genes 1 Rotation |==|  0.53420 0.05485 0.28798 0.57562
USER: genes 2 Torsion [C]-N--CA-[C] |==|  0.17711
USER: genes 3 Torsion [N]-CA--C-[N] |==|  0.64365
USER: genes 4 Torsion [C]-N--CA-[C] |==|  0.15420
USER: genes 5 Torsion [N]-CA--C-[O] |==|  0.08109
USER: genes 6 Torsion [N]-C--CA-[N] |==|  0.70133
USER: genes 7 Torsion [C]-CA--N-[H2] |==|  0.36697
ROOT
ATOM      1  C   GLY G   1      27.003 -19.183  14.178  1.00 43.90 LIG 0.24  C 
ATOM      2 O    GLY G   1      26.659 -19.819  15.177  1.00 43.93 LIG-0.27  OA
ATOM      3  N   GLY G   2      26.150 -18.674  13.287  1.00 44.62 LIG-0.35  N 
ATOM      4 H    GLY G   2      26.390 -18.359  12.523  1.00 44.62 LIG 0.16  HD
ENDROOT
BRANCH 3 5
ATOM      5  CA  GLY G   2      24.721 -18.607  13.533  1.00 45.53 LIG 0.23  C 
BRANCH 5 6
ATOM      6  C   GLY G   2      24.344 -17.718  14.688  1.00 46.02 LIG 0.23  C 
ATOM      7 O    GLY G   2      24.743 -16.556  14.728  1.00 47.02 LIG-0.27  OA
ATOM      8  N   GLY G   3      23.548 -18.262  15.608  1.00 46.62 LIG-0.35  N 
ATOM      9 H    GLY G   3      23.226 -19.058  15.546  1.00 46.62 LIG 0.16  HD
BRANCH 8 10
ATOM     10  CA  GLY G   3      23.145 -17.552  16.817  1.00 46.72 LIG 0.21  C 
BRANCH 10 11
ATOM     11  C   GLY G   3      22.476 -16.210  16.569  1.00 46.79 LIG 0.21  C 
ATOM     12 O    GLY G   3      21.834 -16.008  15.543  1.00 46.39 LIG-0.29  OA
ENDBRANCH 10 11
ENDBRANCH 8 10
ENDBRANCH 5 6
ENDBRANCH 3 5
BRANCH 1 13
ATOM     13  CA  GLY G   1      28.462 -18.922  13.905  1.00 43.33 LIG 0.33  C 
BRANCH 13 14
ATOM     14  N   GLY G   1      29.101 -20.180  13.457  1.00 42.49 LIG-0.07  N 
ATOM     15 H2   GLY G   1      29.586 -20.023  12.727  1.00 42.49 LIG 0.27  HD
ATOM     16 H3   GLY G   1      29.629 -20.491  14.102  1.00 42.49 LIG 0.27  HD
ATOM     17 H1   GLY G   1      28.473 -20.783  13.271  1.00 42.49 LIG 0.27  HD
ENDBRANCH 13 14
ENDBRANCH 1 13
TORSDOF 6
ENDMDL
MODEL 73
USER: ADFR SOLUTION from run 128
USER: SCORE 6.994227 LL:  -0.779 LR:  -6.217 RR:   0.000 FEB:  -4.427
USER: RMSD 6.671387
USER: SEED 127
USER: STATUS no improvement in best in 31 clusters for 5 generations
USER: GENES 8
USER: genes 0 Translation |==|  0.82292 0.46735 0.66652
USER: genes 1 Rotation |==|  0.84876 0.54633 0.17687 0.64767
USER: genes 2 Torsion [C]-N--CA-[C] |==|  0.22836
USER: genes 3 Torsion [N]-CA--C-[N] |==|  0.00004
USER: genes 4 Torsion [C]-N--CA-[C] |==|  0.13635
USER: genes 5 Torsion [N]-CA--C-[O] |==|  0.19483
USER: genes 6 Torsion [N]-C--CA-[N] |==|  0.03601
USER: genes 7 Torsion [C]-CA--N-[H2] |==|  0.52414
ROOT
ATOM      1  C   GLY G   1      31.426 -17.221  20.541  1.00 43.90 LIG 0.24  C 
ATOM      2 O    GLY G   1      32.522 -17.192  19.975  1.00 43.93 LIG-0.27  OA
ATOM      3  N   GLY G   2      30.305 -17.670  19.974  1.00 44.62 LIG-0.35  N 
ATOM      4 H    GLY G   2      29.521 -17.558  20.312  1.00 44.62 LIG 0.16  HD
ENDROOT
BRANCH 3 5
ATOM      5  CA  GLY G   2      30.310 -18.398  18.718  1.00 45.53 LIG 0.23  C 
BRANCH 5 6
ATOM      6  C   GLY G   2      30.624 -19.863  18.865  1.00 46.02 LIG 0.23  C 
ATOM      7 O    GLY G   2      30.687 -20.584  17.871  1.00 47.02 LIG-0.27  OA
ATOM      8  N   GLY G   3      30.851 -20.289  20.107  1.00 46.62 LIG-0.35  N 
ATOM      9 H    GLY G   3      30.861 -19.769  20.793  1.00 46.62 LIG 0.16  HD
BRANCH 8 10
ATOM     10  CA  GLY G   3      31.106 -21.690  20.422  1.00 46.72 LIG 0.21  C 
BRANCH 10 11
ATOM     11  C   GLY G   3      32.158 -22.354  19.550  1.00 46.79 LIG 0.21  C 
ATOM     12 O    GLY G   3      33.343 -22.049  19.652  1.00 46.39 LIG-0.29  OA
ENDBRANCH 10 11
ENDBRANCH 8 10
ENDBRANCH 5 6
ENDBRANCH 3 5
BRANCH 1 13
ATOM     13  CA  GLY G   1      31.290 -16.745  21.965  1.00 43.33 LIG 0.33  C 
BRANCH 13 14
ATOM     14  N   GLY G   1      29.981 -17.185  22.498  1.00 42.49 LIG-0.07  N 
ATOM     15 H2   GLY G   1      29.840 -16.804  23.289  1.00 42.49 LIG 0.27  HD
ATOM     16 H3   GLY G   1      29.336 -16.947  21.934  1.00 42.49 LIG 0.27  HD
ATOM     17 H1   GLY G   1      29.981 -18.071  22.592  1.00 42.49 LIG 0.27  HD
ENDBRANCH 13 14
ENDBRANCH 1 13
TORSDOF 6
ENDMDL
MODEL 74
USER: ADFR SOLUTION from run 186
USER: SCORE 7.027404 LL:  -0.906 LR:  -6.206 RR:   0.000 FEB:  -4.417
USER: RMSD 5.609596
USER: SEED 185
USER: STATUS no improvement in best in 34 clusters for 5 generations
USER: GENES 8
USER: genes 0 Translation |==|  0.72986 0.43195 0.52964
USER: genes 1 Rotation |==|  0.19656 0.32512 0.84288 0.59885
USER: genes 2 Torsion [C]-N--CA-[C] |==|  0.71758
USER: genes 3 Torsion [N]-CA--C-[N] |==|  0.97234
USER: genes 4 Torsion [C]-N--CA-[C] |==|  0.57075
USER: genes 5 Torsion [N]-CA--C-[O] |==|  0.87782
USER: genes 6 Torsion [N]-C--CA-[N] |==|  0.81885
USER: genes 7 Torsion [C]-CA--N-[H2] |==|  0.60341
ROOT
ATOM      1  C   GLY G   1      29.821 -17.673  18.590  1.00 43.90 LIG 0.24  C 
ATOM      2 O    GLY G   1      30.670 -17.213  17.823  1.00 43.93 LIG-0.27  OA
ATOM      3  N   GLY G   2      28.524 -17.361  18.543  1.00 44.62 LIG-0.35  N 
ATOM      4 H    GLY G   2      27.962 -17.566  19.161  1.00 44.62 LIG 0.16  HD
ENDROOT
BRANCH 3 5
ATOM      5  CA  GLY G   2      27.943 -16.637  17.427  1.00 45.53 LIG 0.23  C 
BRANCH 5 6
ATOM      6  C   GLY G   2      27.708 -15.177  17.705  1.00 46.02 LIG 0.23  C 
ATOM      7 O    GLY G   2      27.367 -14.422  16.797  1.00 47.02 LIG-0.27  OA
ATOM      8  N   GLY G   3      27.862 -14.792  18.972  1.00 46.62 LIG-0.35  N 
ATOM      9 H    GLY G   3      28.046 -15.335  19.614  1.00 46.62 LIG 0.16  HD
BRANCH 8 10
ATOM     10  CA  GLY G   3      27.733 -13.401  19.391  1.00 46.72 LIG 0.21  C 
BRANCH 10 11
ATOM     11  C   GLY G   3      28.499 -13.046  20.655  1.00 46.79 LIG 0.21  C 
ATOM     12 O    GLY G   3      28.481 -13.791  21.631  1.00 46.39 LIG-0.29  OA
ENDBRANCH 10 11
ENDBRANCH 8 10
ENDBRANCH 5 6
ENDBRANCH 3 5
BRANCH 1 13
ATOM     13  CA  GLY G   1      30.214 -18.662  19.658  1.00 43.33 LIG 0.33  C 
BRANCH 13 14
ATOM     14  N   GLY G   1      29.981 -18.055  20.988  1.00 42.49 LIG-0.07  N 
ATOM     15 H2   GLY G   1      30.627 -18.306  21.546  1.00 42.49 LIG 0.27  HD
ATOM     16 H3   GLY G   1      29.981 -17.169  20.914  1.00 42.49 LIG 0.27  HD
ATOM     17 H1   GLY G   1      29.194 -18.326  21.305  1.00 42.49 LIG 0.27  HD
ENDBRANCH 13 14
ENDBRANCH 1 13
TORSDOF 6
ENDMDL
MODEL 75
USER: ADFR SOLUTION from run 130
USER: SCORE 6.703993 LL:  -0.946 LR:  -6.192 RR:   0.000 FEB:  -4.402
USER: RMSD 7.540411
USER: SEED 129
USER: STATUS no improvement in best in 33 clusters for 5 generations
USER: GENES 8
USER: genes 0 Translation |==|  0.77639 0.26361 0.59815
USER: genes 1 Rotation |==|  0.42438 0.70307 0.17001 0.80684
USER: genes 2 Torsion [C]-N--CA-[C] |==|  0.18193
USER: genes 3 Torsion [N]-CA--C-[N] |==|  0.70555
USER: genes 4 Torsion [C]-N--CA-[C] |==|  0.68942
USER: genes 5 Torsion [N]-CA--C-[O] |==|  0.14266
USER: genes 6 Torsion [N]-C--CA-[N] |==|  0.81402
USER: genes 7 Torsion [C]-CA--N-[H2] |==|  0.19459
ROOT
ATOM      1  C   GLY G   1      30.624 -19.819  19.567  1.00 43.90 LIG 0.24  C 
ATOM      2 O    GLY G   1      30.076 -20.104  18.499  1.00 43.93 LIG-0.27  OA
ATOM      3  N   GLY G   2      31.093 -20.722  20.430  1.00 44.62 LIG-0.35  N 
ATOM      4 H    GLY G   2      31.341 -20.532  21.232  1.00 44.62 LIG 0.16  HD
ENDROOT
BRANCH 3 5
ATOM      5  CA  GLY G   2      31.226 -22.126  20.085  1.00 45.53 LIG 0.23  C 
BRANCH 5 6
ATOM      6  C   GLY G   2      32.243 -22.393  19.008  1.00 46.02 LIG 0.23  C 
ATOM      7 O    GLY G   2      33.443 -22.348  19.267  1.00 47.02 LIG-0.27  OA
ATOM      8  N   GLY G   3      31.753 -22.701  17.807  1.00 46.62 LIG-0.35  N 
ATOM      9 H    GLY G   3      30.912 -22.786  17.645  1.00 46.62 LIG 0.16  HD
BRANCH 8 10
ATOM     10  CA  GLY G   3      32.606 -22.925  16.645  1.00 46.72 LIG 0.21  C 
BRANCH 10 11
ATOM     11  C   GLY G   3      32.491 -21.865  15.562  1.00 46.79 LIG 0.21  C 
ATOM     12 O    GLY G   3      32.599 -20.674  15.835  1.00 46.39 LIG-0.29  OA
ENDBRANCH 10 11
ENDBRANCH 8 10
ENDBRANCH 5 6
ENDBRANCH 3 5
BRANCH 1 13
ATOM     13  CA  GLY G   1      30.813 -18.377  19.965  1.00 43.33 LIG 0.33  C 
BRANCH 13 14
ATOM     14  N   GLY G   1      29.981 -18.093  21.157  1.00 42.49 LIG-0.07  N 
ATOM     15 H2   GLY G   1      30.320 -18.515  21.863  1.00 42.49 LIG 0.27  HD
ATOM     16 H3   GLY G   1      29.972 -17.217  21.310  1.00 42.49 LIG 0.27  HD
ATOM     17 H1   GLY G   1      29.150 -18.377  21.013  1.00 42.49 LIG 0.27  HD
ENDBRANCH 13 14
ENDBRANCH 1 13
TORSDOF 6
ENDMDL
MODEL 76
USER: ADFR SOLUTION from run 163
USER: SCORE 6.973813 LL:  -0.884 LR:  -6.186 RR:   0.000 FEB:  -4.397
USER: RMSD 6.651658
USER: SEED 162
USER: STATUS no improvement in best in 25 clusters for 5 generations
USER: GENES 8
USER: genes 0 Translation |==|  0.16572 0.64390 0.75685
USER: genes 1 Rotation |==|  0.94596 0.38405 0.32668 0.58737
USER: genes 2 Torsion [C]-N--CA-[C] |==|  0.79447
USER: genes 3 Torsion [N]-CA--C-[N] |==|  0.44735
USER: genes 4 Torsion [C]-N--CA-[C] |==|  0.41710
USER: genes 5 Torsion [N]-CA--C-[O] |==|  0.16897
USER: genes 6 Torsion [N]-C--CA-[N] |==|  0.41113
USER: genes 7 Torsion [C]-CA--N-[H2] |==|  0.26666
ROOT
ATOM      1  C   GLY G   1      20.090 -14.970  21.828  1.00 43.90 LIG 0.24  C 
ATOM      2 O    GLY G   1      21.098 -15.507  22.293  1.00 43.93 LIG-0.27  OA
ATOM      3  N   GLY G   2      19.692 -15.098  20.561  1.00 44.62 LIG-0.35  N 
ATOM      4 H    GLY G   2      19.077 -14.614  20.202  1.00 44.62 LIG 0.16  HD
ENDROOT
BRANCH 3 5
ATOM      5  CA  GLY G   2      20.271 -16.082  19.663  1.00 45.53 LIG 0.23  C 
BRANCH 5 6
ATOM      6  C   GLY G   2      21.657 -15.731  19.190  1.00 46.02 LIG 0.23  C 
ATOM      7 O    GLY G   2      22.070 -14.578  19.291  1.00 47.02 LIG-0.27  OA
ATOM      8  N   GLY G   3      22.380 -16.739  18.703  1.00 46.62 LIG-0.35  N 
ATOM      9 H    GLY G   3      22.106 -17.555  18.687  1.00 46.62 LIG 0.16  HD
BRANCH 8 10
ATOM     10  CA  GLY G   3      23.715 -16.551  18.147  1.00 46.72 LIG 0.21  C 
BRANCH 10 11
ATOM     11  C   GLY G   3      24.639 -17.748  18.300  1.00 46.79 LIG 0.21  C 
ATOM     12 O    GLY G   3      24.356 -18.829  17.793  1.00 46.39 LIG-0.29  OA
ENDBRANCH 10 11
ENDBRANCH 8 10
ENDBRANCH 5 6
ENDBRANCH 3 5
BRANCH 1 13
ATOM     13  CA  GLY G   1      19.208 -14.117  22.704  1.00 43.33 LIG 0.33  C 
BRANCH 13 14
ATOM     14  N   GLY G   1      19.254 -14.638  24.089  1.00 42.49 LIG-0.07  N 
ATOM     15 H2   GLY G   1      19.856 -14.180  24.558  1.00 42.49 LIG 0.27  HD
ATOM     16 H3   GLY G   1      18.454 -14.548  24.466  1.00 42.49 LIG 0.27  HD
ATOM     17 H1   GLY G   1      19.481 -15.498  24.075  1.00 42.49 LIG 0.27  HD
ENDBRANCH 13 14
ENDBRANCH 1 13
TORSDOF 6
ENDMDL
MODEL 77
USER: ADFR SOLUTION from run 178
USER: SCORE 6.935543 LL:  -0.841 LR:  -6.177 RR:   0.000 FEB:  -4.388
USER: RMSD 8.216607
USER: SEED 177
USER: STATUS no improvement in best in 30 clusters for 5 generations
USER: GENES 8
USER: genes 0 Translation |==|  0.28361 0.57786 0.60920
USER: genes 1 Rotation |==|  0.51537 0.10699 0.57277 0.80001
USER: genes 2 Torsion [C]-N--CA-[C] |==|  0.16667
USER: genes 3 Torsion [N]-CA--C-[N] |==|  0.07664
USER: genes 4 Torsion [C]-N--CA-[C] |==|  0.32099
USER: genes 5 Torsion [N]-CA--C-[O] |==|  0.50354
USER: genes 6 Torsion [N]-C--CA-[N] |==|  0.18659
USER: genes 7 Torsion [C]-CA--N-[H2] |==|  0.16676
ROOT
ATOM      1  C   GLY G   1      22.123 -15.812  19.724  1.00 43.90 LIG 0.24  C 
ATOM      2 O    GLY G   1      22.734 -15.118  20.540  1.00 43.93 LIG-0.27  OA
ATOM      3  N   GLY G   2      20.966 -16.424  19.982  1.00 44.62 LIG-0.35  N 
ATOM      4 H    GLY G   2      20.616 -17.019  19.468  1.00 44.62 LIG 0.16  HD
ENDROOT
BRANCH 3 5
ATOM      5  CA  GLY G   2      20.185 -16.133  21.171  1.00 45.53 LIG 0.23  C 
BRANCH 5 6
ATOM      6  C   GLY G   2      19.747 -14.697  21.274  1.00 46.02 LIG 0.23  C 
ATOM      7 O    GLY G   2      19.573 -14.182  22.377  1.00 47.02 LIG-0.27  OA
ATOM      8  N   GLY G   3      19.599 -14.047  20.120  1.00 46.62 LIG-0.35  N 
ATOM      9 H    GLY G   3      19.775 -14.396  19.353  1.00 46.62 LIG 0.16  HD
BRANCH 8 10
ATOM     10  CA  GLY G   3      19.120 -12.671  20.049  1.00 46.72 LIG 0.21  C 
BRANCH 10 11
ATOM     11  C   GLY G   3      20.132 -11.676  19.507  1.00 46.79 LIG 0.21  C 
ATOM     12 O    GLY G   3      19.856 -10.483  19.420  1.00 46.39 LIG-0.29  OA
ENDBRANCH 10 11
ENDBRANCH 8 10
ENDBRANCH 5 6
ENDBRANCH 3 5
BRANCH 1 13
ATOM     13  CA  GLY G   1      22.665 -16.005  18.331  1.00 43.33 LIG 0.33  C 
BRANCH 13 14
ATOM     14  N   GLY G   1      21.769 -15.329  17.366  1.00 42.49 LIG-0.07  N 
ATOM     15 H2   GLY G   1      21.731 -14.460  17.555  1.00 42.49 LIG 0.27  HD
ATOM     16 H3   GLY G   1      22.082 -15.440  16.541  1.00 42.49 LIG 0.27  HD
ATOM     17 H1   GLY G   1      20.952 -15.680  17.423  1.00 42.49 LIG 0.27  HD
ENDBRANCH 13 14
ENDBRANCH 1 13
TORSDOF 6
ENDMDL
MODEL 78
USER: ADFR SOLUTION from run 65
USER: SCORE 7.234515 LL:  -1.081 LR:  -6.154 RR:   0.000 FEB:  -4.364
USER: RMSD 5.471748
USER: SEED 64
USER: STATUS no improvement in best in 30 clusters for 5 generations
USER: GENES 8
USER: genes 0 Translation |==|  0.51005 0.55248 0.42258
USER: genes 1 Rotation |==|  0.65187 0.89493 0.23730 0.54423
USER: genes 2 Torsion [C]-N--CA-[C] |==|  0.76408
USER: genes 3 Torsion [N]-CA--C-[N] |==|  0.99620
USER: genes 4 Torsion [C]-N--CA-[C] |==|  0.56054
USER: genes 5 Torsion [N]-CA--C-[O] |==|  0.04337
USER: genes 6 Torsion [N]-C--CA-[N] |==|  0.59893
USER: genes 7 Torsion [C]-CA--N-[H2] |==|  0.78101
ROOT
ATOM      1  C   GLY G   1      26.029 -16.136  17.065  1.00 43.90 LIG 0.24  C 
ATOM      2 O    GLY G   1      25.856 -14.931  16.868  1.00 43.93 LIG-0.27  OA
ATOM      3  N   GLY G   2      25.210 -17.091  16.620  1.00 44.62 LIG-0.35  N 
ATOM      4 H    GLY G   2      25.250 -17.911  16.877  1.00 44.62 LIG 0.16  HD
ENDROOT
BRANCH 3 5
ATOM      5  CA  GLY G   2      24.163 -16.823  15.651  1.00 45.53 LIG 0.23  C 
BRANCH 5 6
ATOM      6  C   GLY G   2      22.883 -16.317  16.261  1.00 46.02 LIG 0.23  C 
ATOM      7 O    GLY G   2      21.919 -16.055  15.545  1.00 47.02 LIG-0.27  OA
ATOM      8  N   GLY G   3      22.872 -16.213  17.590  1.00 46.62 LIG-0.35  N 
ATOM      9 H    GLY G   3      23.531 -16.450  18.090  1.00 46.62 LIG 0.16  HD
BRANCH 8 10
ATOM     10  CA  GLY G   3      21.731 -15.680  18.326  1.00 46.72 LIG 0.21  C 
BRANCH 10 11
ATOM     11  C   GLY G   3      22.061 -15.156  19.713  1.00 46.79 LIG 0.21  C 
ATOM     12 O    GLY G   3      23.223 -14.930  20.040  1.00 46.39 LIG-0.29  OA
ENDBRANCH 10 11
ENDBRANCH 8 10
ENDBRANCH 5 6
ENDBRANCH 3 5
BRANCH 1 13
ATOM     13  CA  GLY G   1      27.231 -16.617  17.837  1.00 43.33 LIG 0.33  C 
BRANCH 13 14
ATOM     14  N   GLY G   1      27.529 -15.651  18.918  1.00 42.49 LIG-0.07  N 
ATOM     15 H2   GLY G   1      27.957 -14.949  18.578  1.00 42.49 LIG 0.27  HD
ATOM     16 H3   GLY G   1      26.769 -15.381  19.293  1.00 42.49 LIG 0.27  HD
ATOM     17 H1   GLY G   1      28.041 -16.041  19.533  1.00 42.49 LIG 0.27  HD
ENDBRANCH 13 14
ENDBRANCH 1 13
TORSDOF 6
ENDMDL
MODEL 79
USER: ADFR SOLUTION from run 170
USER: SCORE 6.389883 LL:  -0.802 LR:  -6.133 RR:   0.000 FEB:  -4.344
USER: RMSD 5.978555
USER: SEED 169
USER: STATUS no improvement in best in 29 clusters for 5 generations
USER: GENES 8
USER: genes 0 Translation |==|  0.47233 0.58957 0.46642
USER: genes 1 Rotation |==|  0.50910 0.60583 0.01846 0.58270
USER: genes 2 Torsion [C]-N--CA-[C] |==|  0.61620
USER: genes 3 Torsion [N]-CA--C-[N] |==|  0.96668
USER: genes 4 Torsion [C]-N--CA-[C] |==|  0.79832
USER: genes 5 Torsion [N]-CA--C-[O] |==|  0.01542
USER: genes 6 Torsion [N]-C--CA-[N] |==|  0.08406
USER: genes 7 Torsion [C]-CA--N-[H2] |==|  0.44086
ROOT
ATOM      1  C   GLY G   1      25.379 -15.663  17.689  1.00 43.90 LIG 0.24  C 
ATOM      2 O    GLY G   1      24.810 -15.804  16.604  1.00 43.93 LIG-0.27  OA
ATOM      3  N   GLY G   2      24.834 -15.983  18.865  1.00 44.62 LIG-0.35  N 
ATOM      4 H    GLY G   2      25.169 -15.754  19.624  1.00 44.62 LIG 0.16  HD
ENDROOT
BRANCH 3 5
ATOM      5  CA  GLY G   2      23.611 -16.759  18.966  1.00 45.53 LIG 0.23  C 
BRANCH 5 6
ATOM      6  C   GLY G   2      22.656 -16.254  20.015  1.00 46.02 LIG 0.23  C 
ATOM      7 O    GLY G   2      21.511 -16.697  20.071  1.00 47.02 LIG-0.27  OA
ATOM      8  N   GLY G   3      23.145 -15.348  20.862  1.00 46.62 LIG-0.35  N 
ATOM      9 H    GLY G   3      23.963 -15.083  20.853  1.00 46.62 LIG 0.16  HD
BRANCH 8 10
ATOM     10  CA  GLY G   3      22.328 -14.717  21.893  1.00 46.72 LIG 0.21  C 
BRANCH 10 11
ATOM     11  C   GLY G   3      21.326 -13.700  21.372  1.00 46.79 LIG 0.21  C 
ATOM     12 O    GLY G   3      21.171 -13.532  20.166  1.00 46.39 LIG-0.29  OA
ENDBRANCH 10 11
ENDBRANCH 8 10
ENDBRANCH 5 6
ENDBRANCH 3 5
BRANCH 1 13
ATOM     13  CA  GLY G   1      26.781 -15.112  17.750  1.00 43.33 LIG 0.33  C 
BRANCH 13 14
ATOM     14  N   GLY G   1      27.480 -15.699  18.915  1.00 42.49 LIG-0.07  N 
ATOM     15 H2   GLY G   1      28.360 -15.638  18.795  1.00 42.49 LIG 0.27  HD
ATOM     16 H3   GLY G   1      27.250 -15.259  19.652  1.00 42.49 LIG 0.27  HD
ATOM     17 H1   GLY G   1      27.252 -16.556  18.998  1.00 42.49 LIG 0.27  HD
ENDBRANCH 13 14
ENDBRANCH 1 13
TORSDOF 6
ENDMDL
MODEL 80
USER: ADFR SOLUTION from run 63
USER: SCORE 6.540227 LL:  -0.698 LR:  -6.098 RR:   0.000 FEB:  -4.308
USER: RMSD 4.573093
USER: SEED 62
USER: STATUS no improvement in best in 24 clusters for 5 generations
USER: GENES 8
USER: genes 0 Translation |==|  0.34017 0.57669 0.56799
USER: genes 1 Rotation |==|  0.42801 0.81221 0.46326 0.88209
USER: genes 2 Torsion [C]-N--CA-[C] |==|  0.31667
USER: genes 3 Torsion [N]-CA--C-[N] |==|  0.04378
USER: genes 4 Torsion [C]-N--CA-[C] |==|  0.12601
USER: genes 5 Torsion [N]-CA--C-[O] |==|  0.25763
USER: genes 6 Torsion [N]-C--CA-[N] |==|  0.91886
USER: genes 7 Torsion [C]-CA--N-[H2] |==|  0.19311
ROOT
ATOM      1  C   GLY G   1      23.099 -15.827  19.137  1.00 43.90 LIG 0.24  C 
ATOM      2 O    GLY G   1      22.294 -15.800  18.203  1.00 43.93 LIG-0.27  OA
ATOM      3  N   GLY G   2      24.381 -16.175  19.008  1.00 44.62 LIG-0.35  N 
ATOM      4 H    GLY G   2      24.902 -16.332  19.675  1.00 44.62 LIG 0.16  HD
ENDROOT
BRANCH 3 5
ATOM      5  CA  GLY G   2      25.017 -16.320  17.711  1.00 45.53 LIG 0.23  C 
BRANCH 5 6
ATOM      6  C   GLY G   2      26.096 -15.305  17.446  1.00 46.02 LIG 0.23  C 
ATOM      7 O    GLY G   2      26.490 -15.108  16.299  1.00 47.02 LIG-0.27  OA
ATOM      8  N   GLY G   3      26.548 -14.643  18.511  1.00 46.62 LIG-0.35  N 
ATOM      9 H    GLY G   3      26.230 -14.745  19.304  1.00 46.62 LIG 0.16  HD
BRANCH 8 10
ATOM     10  CA  GLY G   3      27.636 -13.673  18.429  1.00 46.72 LIG 0.21  C 
BRANCH 10 11
ATOM     11  C   GLY G   3      27.527 -12.697  17.270  1.00 46.79 LIG 0.21  C 
ATOM     12 O    GLY G   3      26.980 -11.608  17.414  1.00 46.39 LIG-0.29  OA
ENDBRANCH 10 11
ENDBRANCH 8 10
ENDBRANCH 5 6
ENDBRANCH 3 5
BRANCH 1 13
ATOM     13  CA  GLY G   1      22.666 -15.440  20.528  1.00 43.33 LIG 0.33  C 
BRANCH 13 14
ATOM     14  N   GLY G   1      23.497 -16.170  21.513  1.00 42.49 LIG-0.07  N 
ATOM     15 H2   GLY G   1      24.329 -15.856  21.488  1.00 42.49 LIG 0.27  HD
ATOM     16 H3   GLY G   1      23.160 -16.055  22.328  1.00 42.49 LIG 0.27  HD
ATOM     17 H1   GLY G   1      23.502 -17.037  21.313  1.00 42.49 LIG 0.27  HD
ENDBRANCH 13 14
ENDBRANCH 1 13
TORSDOF 6
ENDMDL
MODEL 81
USER: ADFR SOLUTION from run 193
USER: SCORE 6.736711 LL:  -0.820 LR:  -6.085 RR:   0.000 FEB:  -4.295
USER: RMSD 4.559360
USER: SEED 192
USER: STATUS no improvement in best in 30 clusters for 5 generations
USER: GENES 8
USER: genes 0 Translation |==|  0.45751 0.46421 0.22077
USER: genes 1 Rotation |==|  0.58389 0.21420 0.23884 0.80508
USER: genes 2 Torsion [C]-N--CA-[C] |==|  0.15668
USER: genes 3 Torsion [N]-CA--C-[N] |==|  0.11665
USER: genes 4 Torsion [C]-N--CA-[C] |==|  0.72388
USER: genes 5 Torsion [N]-CA--C-[O] |==|  0.05517
USER: genes 6 Torsion [N]-C--CA-[N] |==|  0.92392
USER: genes 7 Torsion [C]-CA--N-[H2] |==|  0.76460
ROOT
ATOM      1  C   GLY G   1      25.123 -17.261  14.189  1.00 43.90 LIG 0.24  C 
ATOM      2 O    GLY G   1      25.978 -18.062  14.574  1.00 43.93 LIG-0.27  OA
ATOM      3  N   GLY G   2      23.825 -17.353  14.487  1.00 44.62 LIG-0.35  N 
ATOM      4 H    GLY G   2      23.214 -16.884  14.105  1.00 44.62 LIG 0.16  HD
ENDROOT
BRANCH 3 5
ATOM      5  CA  GLY G   2      23.326 -18.268  15.498  1.00 45.53 LIG 0.23  C 
BRANCH 5 6
ATOM      6  C   GLY G   2      23.954 -18.078  16.853  1.00 46.02 LIG 0.23  C 
ATOM      7 O    GLY G   2      24.303 -19.054  17.514  1.00 47.02 LIG-0.27  OA
ATOM      8  N   GLY G   3      24.121 -16.816  17.246  1.00 46.62 LIG-0.35  N 
ATOM      9 H    GLY G   3      23.926 -16.136  16.756  1.00 46.62 LIG 0.16  HD
BRANCH 8 10
ATOM     10  CA  GLY G   3      24.656 -16.467  18.558  1.00 46.72 LIG 0.21  C 
BRANCH 10 11
ATOM     11  C   GLY G   3      23.606 -16.089  19.589  1.00 46.79 LIG 0.21  C 
ATOM     12 O    GLY G   3      22.434 -16.423  19.445  1.00 46.39 LIG-0.29  OA
ENDBRANCH 10 11
ENDBRANCH 8 10
ENDBRANCH 5 6
ENDBRANCH 3 5
BRANCH 1 13
ATOM     13  CA  GLY G   1      25.513 -16.080  13.338  1.00 43.33 LIG 0.33  C 
BRANCH 13 14
ATOM     14  N   GLY G   1      24.356 -15.681  12.506  1.00 42.49 LIG-0.07  N 
ATOM     15 H2   GLY G   1      24.337 -16.176  11.767  1.00 42.49 LIG 0.27  HD
ATOM     16 H3   GLY G   1      23.604 -15.804  12.965  1.00 42.49 LIG 0.27  HD
ATOM     17 H1   GLY G   1      24.431 -14.821  12.285  1.00 42.49 LIG 0.27  HD
ENDBRANCH 13 14
ENDBRANCH 1 13
TORSDOF 6
ENDMDL
MODEL 82
USER: ADFR SOLUTION from run 157
USER: SCORE 6.647335 LL:  -0.778 LR:  -6.005 RR:   0.000 FEB:  -4.216
USER: RMSD 7.557735
USER: SEED 156
USER: STATUS no improvement in best in 26 clusters for 5 generations
USER: GENES 8
USER: genes 0 Translation |==|  0.18225 0.87032 0.66385
USER: genes 1 Rotation |==|  0.76755 0.18748 0.42861 0.77505
USER: genes 2 Torsion [C]-N--CA-[C] |==|  0.69444
USER: genes 3 Torsion [N]-CA--C-[N] |==|  0.00729
USER: genes 4 Torsion [C]-N--CA-[C] |==|  0.50801
USER: genes 5 Torsion [N]-CA--C-[O] |==|  0.78840
USER: genes 6 Torsion [N]-C--CA-[N] |==|  0.88481
USER: genes 7 Torsion [C]-CA--N-[H2] |==|  0.69507
ROOT
ATOM      1  C   GLY G   1      20.375 -12.083  20.503  1.00 43.90 LIG 0.24  C 
ATOM      2 O    GLY G   1      21.106 -12.125  21.495  1.00 43.93 LIG-0.27  OA
ATOM      3  N   GLY G   2      19.660 -13.119  20.058  1.00 44.62 LIG-0.35  N 
ATOM      4 H    GLY G   2      19.268 -13.134  19.292  1.00 44.62 LIG 0.16  HD
ENDROOT
BRANCH 3 5
ATOM      5  CA  GLY G   2      19.481 -14.329  20.840  1.00 45.53 LIG 0.23  C 
BRANCH 5 6
ATOM      6  C   GLY G   2      20.209 -15.524  20.286  1.00 46.02 LIG 0.23  C 
ATOM      7 O    GLY G   2      20.077 -16.627  20.814  1.00 47.02 LIG-0.27  OA
ATOM      8  N   GLY G   3      20.952 -15.304  19.202  1.00 46.62 LIG-0.35  N 
ATOM      9 H    GLY G   3      20.997 -14.542  18.803  1.00 46.62 LIG 0.16  HD
BRANCH 8 10
ATOM     10  CA  GLY G   3      21.767 -16.344  18.584  1.00 46.72 LIG 0.21  C 
BRANCH 10 11
ATOM     11  C   GLY G   3      22.595 -15.879  17.398  1.00 46.79 LIG 0.21  C 
ATOM     12 O    GLY G   3      22.073 -15.685  16.304  1.00 46.39 LIG-0.29  OA
ENDBRANCH 10 11
ENDBRANCH 8 10
ENDBRANCH 5 6
ENDBRANCH 3 5
BRANCH 1 13
ATOM     13  CA  GLY G   1      20.231 -10.807  19.714  1.00 43.33 LIG 0.33  C 
BRANCH 13 14
ATOM     14  N   GLY G   1      20.222 -11.130  18.270  1.00 42.49 LIG-0.07  N 
ATOM     15 H2   GLY G   1      20.978 -10.844  17.897  1.00 42.49 LIG 0.27  HD
ATOM     16 H3   GLY G   1      20.153 -12.010  18.163  1.00 42.49 LIG 0.27  HD
ATOM     17 H1   GLY G   1      19.530 -10.729  17.880  1.00 42.49 LIG 0.27  HD
ENDBRANCH 13 14
ENDBRANCH 1 13
TORSDOF 6
ENDMDL
MODEL 83
USER: ADFR SOLUTION from run 41
USER: SCORE 6.570578 LL:  -0.856 LR:  -5.997 RR:   0.000 FEB:  -4.207
USER: RMSD 3.116348
USER: SEED 40
USER: STATUS no improvement in best in 24 clusters for 5 generations
USER: GENES 8
USER: genes 0 Translation |==|  0.41412 0.43412 0.24961
USER: genes 1 Rotation |==|  0.66830 0.25180 0.77270 0.79275
USER: genes 2 Torsion [C]-N--CA-[C] |==|  0.69445
USER: genes 3 Torsion [N]-CA--C-[N] |==|  0.09402
USER: genes 4 Torsion [C]-N--CA-[C] |==|  0.33502
USER: genes 5 Torsion [N]-CA--C-[O] |==|  0.05049
USER: genes 6 Torsion [N]-C--CA-[N] |==|  0.07306
USER: genes 7 Torsion [C]-CA--N-[H2] |==|  0.31690
ROOT
ATOM      1  C   GLY G   1      24.375 -17.645  14.600  1.00 43.90 LIG 0.24  C 
ATOM      2 O    GLY G   1      24.156 -16.479  14.938  1.00 43.93 LIG-0.27  OA
ATOM      3  N   GLY G   2      24.444 -18.670  15.452  1.00 44.62 LIG-0.35  N 
ATOM      4 H    GLY G   2      24.737 -19.450  15.237  1.00 44.62 LIG 0.16  HD
ENDROOT
BRANCH 3 5
ATOM      5  CA  GLY G   2      24.025 -18.554  16.837  1.00 45.53 LIG 0.23  C 
BRANCH 5 6
ATOM      6  C   GLY G   2      25.163 -18.599  17.822  1.00 46.02 LIG 0.23  C 
ATOM      7 O    GLY G   2      25.012 -19.142  18.915  1.00 47.02 LIG-0.27  OA
ATOM      8  N   GLY G   3      26.309 -18.052  17.416  1.00 46.62 LIG-0.35  N 
ATOM      9 H    GLY G   3      26.425 -17.724  16.629  1.00 46.62 LIG 0.16  HD
BRANCH 8 10
ATOM     10  CA  GLY G   3      27.483 -17.960  18.276  1.00 46.72 LIG 0.21  C 
BRANCH 10 11
ATOM     11  C   GLY G   3      28.717 -18.668  17.741  1.00 46.79 LIG 0.21  C 
ATOM     12 O    GLY G   3      28.804 -18.968  16.554  1.00 46.39 LIG-0.29  OA
ENDBRANCH 10 11
ENDBRANCH 8 10
ENDBRANCH 5 6
ENDBRANCH 3 5
BRANCH 1 13
ATOM     13  CA  GLY G   1      24.570 -17.993  13.146  1.00 43.33 LIG 0.33  C 
BRANCH 13 14
ATOM     14  N   GLY G   1      24.172 -19.403  12.930  1.00 42.49 LIG-0.07  N 
ATOM     15 H2   GLY G   1      23.455 -19.431  12.404  1.00 42.49 LIG 0.27  HD
ATOM     16 H3   GLY G   1      24.841 -19.844  12.543  1.00 42.49 LIG 0.27  HD
ATOM     17 H1   GLY G   1      23.981 -19.781  13.713  1.00 42.49 LIG 0.27  HD
ENDBRANCH 13 14
ENDBRANCH 1 13
TORSDOF 6
ENDMDL
MODEL 84
USER: ADFR SOLUTION from run 141
USER: SCORE 6.617416 LL:  -0.900 LR:  -5.986 RR:   0.000 FEB:  -4.197
USER: RMSD 3.807094
USER: SEED 140
USER: STATUS no improvement in best in 24 clusters for 5 generations
USER: GENES 8
USER: genes 0 Translation |==|  0.40546 0.40174 0.43771
USER: genes 1 Rotation |==|  0.09516 0.41176 0.31977 0.71409
USER: genes 2 Torsion [C]-N--CA-[C] |==|  0.44735
USER: genes 3 Torsion [N]-CA--C-[N] |==|  0.47788
USER: genes 4 Torsion [C]-N--CA-[C] |==|  0.20447
USER: genes 5 Torsion [N]-CA--C-[O] |==|  0.95413
USER: genes 6 Torsion [N]-C--CA-[N] |==|  0.51206
USER: genes 7 Torsion [C]-CA--N-[H2] |==|  0.93664
ROOT
ATOM      1  C   GLY G   1      24.225 -18.058  17.280  1.00 43.90 LIG 0.24  C 
ATOM      2 O    GLY G   1      24.506 -19.064  17.935  1.00 43.93 LIG-0.27  OA
ATOM      3  N   GLY G   2      24.846 -16.884  17.411  1.00 44.62 LIG-0.35  N 
ATOM      4 H    GLY G   2      24.559 -16.151  17.064  1.00 44.62 LIG 0.16  HD
ENDROOT
BRANCH 3 5
ATOM      5  CA  GLY G   2      26.078 -16.740  18.165  1.00 45.53 LIG 0.23  C 
BRANCH 5 6
ATOM      6  C   GLY G   2      26.850 -15.490  17.835  1.00 46.02 LIG 0.23  C 
ATOM      7 O    GLY G   2      26.484 -14.764  16.913  1.00 47.02 LIG-0.27  OA
ATOM      8  N   GLY G   3      27.900 -15.230  18.614  1.00 46.62 LIG-0.35  N 
ATOM      9 H    GLY G   3      28.118 -15.711  19.293  1.00 46.62 LIG 0.16  HD
BRANCH 8 10
ATOM     10  CA  GLY G   3      28.784 -14.092  18.385  1.00 46.72 LIG 0.21  C 
BRANCH 10 11
ATOM     11  C   GLY G   3      28.191 -12.744  18.756  1.00 46.79 LIG 0.21  C 
ATOM     12 O    GLY G   3      26.981 -12.613  18.918  1.00 46.39 LIG-0.29  OA
ENDBRANCH 10 11
ENDBRANCH 8 10
ENDBRANCH 5 6
ENDBRANCH 3 5
BRANCH 1 13
ATOM     13  CA  GLY G   1      23.131 -18.104  16.244  1.00 43.33 LIG 0.33  C 
BRANCH 13 14
ATOM     14  N   GLY G   1      22.475 -19.430  16.293  1.00 42.49 LIG-0.07  N 
ATOM     15 H2   GLY G   1      23.032 -20.023  16.654  1.00 42.49 LIG 0.27  HD
ATOM     16 H3   GLY G   1      21.736 -19.378  16.786  1.00 42.49 LIG 0.27  HD
ATOM     17 H1   GLY G   1      22.264 -19.687  15.467  1.00 42.49 LIG 0.27  HD
ENDBRANCH 13 14
ENDBRANCH 1 13
TORSDOF 6
ENDMDL
MODEL 85
USER: ADFR SOLUTION from run 62
USER: SCORE 6.675765 LL:  -0.892 LR:  -5.964 RR:   0.000 FEB:  -4.174
USER: RMSD 8.147033
USER: SEED 61
USER: STATUS no improvement in best in 27 clusters for 5 generations
USER: GENES 8
USER: genes 0 Translation |==|  0.28340 0.59950 0.59635
USER: genes 1 Rotation |==|  0.74824 0.48236 0.92492 0.58668
USER: genes 2 Torsion [C]-N--CA-[C] |==|  0.84423
USER: genes 3 Torsion [N]-CA--C-[N] |==|  0.35000
USER: genes 4 Torsion [C]-N--CA-[C] |==|  0.16832
USER: genes 5 Torsion [N]-CA--C-[O] |==|  0.44432
USER: genes 6 Torsion [N]-C--CA-[N] |==|  0.57351
USER: genes 7 Torsion [C]-CA--N-[H2] |==|  0.86661
ROOT
ATOM      1  C   GLY G   1      22.120 -15.536  19.541  1.00 43.90 LIG 0.24  C 
ATOM      2 O    GLY G   1      20.897 -15.483  19.699  1.00 43.93 LIG-0.27  OA
ATOM      3  N   GLY G   2      23.008 -15.331  20.515  1.00 44.62 LIG-0.35  N 
ATOM      4 H    GLY G   2      23.851 -15.226  20.378  1.00 44.62 LIG 0.16  HD
ENDROOT
BRANCH 3 5
ATOM      5  CA  GLY G   2      22.623 -15.267  21.914  1.00 45.53 LIG 0.23  C 
BRANCH 5 6
ATOM      6  C   GLY G   2      21.571 -14.231  22.207  1.00 46.02 LIG 0.23  C 
ATOM      7 O    GLY G   2      21.732 -13.068  21.843  1.00 47.02 LIG-0.27  OA
ATOM      8  N   GLY G   3      20.483 -14.667  22.841  1.00 46.62 LIG-0.35  N 
ATOM      9 H    GLY G   3      20.351 -15.493  23.044  1.00 46.62 LIG 0.16  HD
BRANCH 8 10
ATOM     10  CA  GLY G   3      19.404 -13.775  23.253  1.00 46.72 LIG 0.21  C 
BRANCH 10 11
ATOM     11  C   GLY G   3      18.726 -13.034  22.113  1.00 46.79 LIG 0.21  C 
ATOM     12 O    GLY G   3      17.606 -12.553  22.254  1.00 46.39 LIG-0.29  OA
ENDBRANCH 10 11
ENDBRANCH 8 10
ENDBRANCH 5 6
ENDBRANCH 3 5
BRANCH 1 13
ATOM     13  CA  GLY G   1      22.700 -15.862  18.188  1.00 43.33 LIG 0.33  C 
BRANCH 13 14
ATOM     14  N   GLY G   1      21.744 -15.443  17.139  1.00 42.49 LIG-0.07  N 
ATOM     15 H2   GLY G   1      20.930 -15.738  17.344  1.00 42.49 LIG 0.27  HD
ATOM     16 H3   GLY G   1      21.733 -14.555  17.085  1.00 42.49 LIG 0.27  HD
ATOM     17 H1   GLY G   1      21.994 -15.784  16.356  1.00 42.49 LIG 0.27  HD
ENDBRANCH 13 14
ENDBRANCH 1 13
TORSDOF 6
ENDMDL
MODEL 86
USER: ADFR SOLUTION from run 58
USER: SCORE 6.778528 LL:  -0.983 LR:  -5.955 RR:   0.000 FEB:  -4.165
USER: RMSD 2.514867
USER: SEED 57
USER: STATUS no improvement in best in 36 clusters for 5 generations
USER: GENES 8
USER: genes 0 Translation |==|  0.35145 0.53351 0.39031
USER: genes 1 Rotation |==|  0.51965 0.35008 0.44311 0.97318
USER: genes 2 Torsion [C]-N--CA-[C] |==|  0.82237
USER: genes 3 Torsion [N]-CA--C-[N] |==|  0.36402
USER: genes 4 Torsion [C]-N--CA-[C] |==|  0.21145
USER: genes 5 Torsion [N]-CA--C-[O] |==|  0.83322
USER: genes 6 Torsion [N]-C--CA-[N] |==|  0.51800
USER: genes 7 Torsion [C]-CA--N-[H2] |==|  0.49463
ROOT
ATOM      1  C   GLY G   1      23.294 -16.378  16.605  1.00 43.90 LIG 0.24  C 
ATOM      2 O    GLY G   1      24.464 -16.178  16.271  1.00 43.93 LIG-0.27  OA
ATOM      3  N   GLY G   2      22.929 -16.867  17.792  1.00 44.62 LIG-0.35  N 
ATOM      4 H    GLY G   2      22.133 -17.140  17.971  1.00 44.62 LIG 0.16  HD
ENDROOT
BRANCH 3 5
ATOM      5  CA  GLY G   2      23.859 -16.983  18.900  1.00 45.53 LIG 0.23  C 
BRANCH 5 6
ATOM      6  C   GLY G   2      24.994 -17.938  18.644  1.00 46.02 LIG 0.23  C 
ATOM      7 O    GLY G   2      24.769 -19.055  18.182  1.00 47.02 LIG-0.27  OA
ATOM      8  N   GLY G   3      26.215 -17.480  18.918  1.00 46.62 LIG-0.35  N 
ATOM      9 H    GLY G   3      26.372 -16.679  19.189  1.00 46.62 LIG 0.16  HD
BRANCH 8 10
ATOM     10  CA  GLY G   3      27.411 -18.305  18.784  1.00 46.72 LIG 0.21  C 
BRANCH 10 11
ATOM     11  C   GLY G   3      27.878 -18.515  17.353  1.00 46.79 LIG 0.21  C 
ATOM     12 O    GLY G   3      27.148 -19.055  16.526  1.00 46.39 LIG-0.29  OA
ENDBRANCH 10 11
ENDBRANCH 8 10
ENDBRANCH 5 6
ENDBRANCH 3 5
BRANCH 1 13
ATOM     13  CA  GLY G   1      22.165 -16.055  15.659  1.00 43.33 LIG 0.33  C 
BRANCH 13 14
ATOM     14  N   GLY G   1      22.730 -15.675  14.345  1.00 42.49 LIG-0.07  N 
ATOM     15 H2   GLY G   1      22.068 -15.511  13.773  1.00 42.49 LIG 0.27  HD
ATOM     16 H3   GLY G   1      23.231 -14.946  14.436  1.00 42.49 LIG 0.27  HD
ATOM     17 H1   GLY G   1      23.231 -16.342  14.033  1.00 42.49 LIG 0.27  HD
ENDBRANCH 13 14
ENDBRANCH 1 13
TORSDOF 6
ENDMDL
MODEL 87
USER: ADFR SOLUTION from run 126
USER: SCORE 6.760851 LL:  -0.813 LR:  -5.957 RR:   0.000 FEB:  -4.167
USER: RMSD 3.348558
USER: SEED 125
USER: STATUS no improvement in best in 31 clusters for 5 generations
USER: GENES 8
USER: genes 0 Translation |==|  0.30721 0.49835 0.34607
USER: genes 1 Rotation |==|  0.87771 0.27857 0.67726 0.66396
USER: genes 2 Torsion [C]-N--CA-[C] |==|  0.78507
USER: genes 3 Torsion [N]-CA--C-[N] |==|  0.97222
USER: genes 4 Torsion [C]-N--CA-[C] |==|  0.56689
USER: genes 5 Torsion [N]-CA--C-[O] |==|  0.32043
USER: genes 6 Torsion [N]-C--CA-[N] |==|  0.82414
USER: genes 7 Torsion [C]-CA--N-[H2] |==|  0.86359
ROOT
ATOM      1  C   GLY G   1      22.530 -16.826  15.975  1.00 43.90 LIG 0.24  C 
ATOM      2 O    GLY G   1      22.211 -16.507  17.122  1.00 43.93 LIG-0.27  OA
ATOM      3  N   GLY G   2      23.334 -17.850  15.680  1.00 44.62 LIG-0.35  N 
ATOM      4 H    GLY G   2      23.670 -17.983  14.899  1.00 44.62 LIG 0.16  HD
ENDROOT
BRANCH 3 5
ATOM      5  CA  GLY G   2      23.717 -18.842  16.668  1.00 45.53 LIG 0.23  C 
BRANCH 5 6
ATOM      6  C   GLY G   2      24.782 -18.371  17.622  1.00 46.02 LIG 0.23  C 
ATOM      7 O    GLY G   2      25.082 -19.055  18.599  1.00 47.02 LIG-0.27  OA
ATOM      8  N   GLY G   3      25.370 -17.215  17.315  1.00 46.62 LIG-0.35  N 
ATOM      9 H    GLY G   3      25.195 -16.769  16.601  1.00 46.62 LIG 0.16  HD
BRANCH 8 10
ATOM     10  CA  GLY G   3      26.375 -16.594  18.172  1.00 46.72 LIG 0.21  C 
BRANCH 10 11
ATOM     11  C   GLY G   3      26.511 -15.091  18.000  1.00 46.79 LIG 0.21  C 
ATOM     12 O    GLY G   3      26.231 -14.326  18.918  1.00 46.39 LIG-0.29  OA
ENDBRANCH 10 11
ENDBRANCH 8 10
ENDBRANCH 5 6
ENDBRANCH 3 5
BRANCH 1 13
ATOM     13  CA  GLY G   1      21.999 -16.055  14.793  1.00 43.33 LIG 0.33  C 
BRANCH 13 14
ATOM     14  N   GLY G   1      23.132 -15.427  14.077  1.00 42.49 LIG-0.07  N 
ATOM     15 H2   GLY G   1      23.652 -15.001  14.661  1.00 42.49 LIG 0.27  HD
ATOM     16 H3   GLY G   1      23.606 -16.055  13.662  1.00 42.49 LIG 0.27  HD
ATOM     17 H1   GLY G   1      22.821 -14.846  13.479  1.00 42.49 LIG 0.27  HD
ENDBRANCH 13 14
ENDBRANCH 1 13
TORSDOF 6
ENDMDL
MODEL 88
USER: ADFR SOLUTION from run 179
USER: SCORE 6.688838 LL:  -0.847 LR:  -5.936 RR:   0.000 FEB:  -4.146
USER: RMSD 5.982242
USER: SEED 178
USER: STATUS no improvement in best in 27 clusters for 5 generations
USER: GENES 8
USER: genes 0 Translation |==|  0.52155 0.59609 0.51370
USER: genes 1 Rotation |==|  0.47136 0.04156 0.68339 0.57335
USER: genes 2 Torsion [C]-N--CA-[C] |==|  0.28649
USER: genes 3 Torsion [N]-CA--C-[N] |==|  0.01981
USER: genes 4 Torsion [C]-N--CA-[C] |==|  0.53796
USER: genes 5 Torsion [N]-CA--C-[O] |==|  0.53579
USER: genes 6 Torsion [N]-C--CA-[N] |==|  0.59697
USER: genes 7 Torsion [C]-CA--N-[H2] |==|  0.68376
ROOT
ATOM      1  C   GLY G   1      26.228 -15.580  18.363  1.00 43.90 LIG 0.24  C 
ATOM      2 O    GLY G   1      25.861 -14.541  18.918  1.00 43.93 LIG-0.27  OA
ATOM      3  N   GLY G   2      25.395 -16.524  17.920  1.00 44.62 LIG-0.35  N 
ATOM      4 H    GLY G   2      25.651 -17.305  17.667  1.00 44.62 LIG 0.16  HD
ENDROOT
BRANCH 3 5
ATOM      5  CA  GLY G   2      23.962 -16.309  17.825  1.00 45.53 LIG 0.23  C 
BRANCH 5 6
ATOM      6  C   GLY G   2      23.476 -16.055  16.424  1.00 46.02 LIG 0.23  C 
ATOM      7 O    GLY G   2      22.315 -15.703  16.227  1.00 47.02 LIG-0.27  OA
ATOM      8  N   GLY G   3      24.381 -16.206  15.456  1.00 46.62 LIG-0.35  N 
ATOM      9 H    GLY G   3      25.207 -16.398  15.604  1.00 46.62 LIG 0.16  HD
BRANCH 8 10
ATOM     10  CA  GLY G   3      24.051 -16.057  14.043  1.00 46.72 LIG 0.21  C 
BRANCH 10 11
ATOM     11  C   GLY G   3      25.111 -16.578  13.088  1.00 46.79 LIG 0.21  C 
ATOM     12 O    GLY G   3      25.068 -16.306  11.891  1.00 46.39 LIG-0.29  OA
ENDBRANCH 10 11
ENDBRANCH 8 10
ENDBRANCH 5 6
ENDBRANCH 3 5
BRANCH 1 13
ATOM     13  CA  GLY G   1      27.694 -15.845  18.134  1.00 43.33 LIG 0.33  C 
BRANCH 13 14
ATOM     14  N   GLY G   1      28.467 -15.305  19.275  1.00 42.49 LIG-0.07  N 
ATOM     15 H2   GLY G   1      28.974 -14.630  18.996  1.00 42.49 LIG 0.27  HD
ATOM     16 H3   GLY G   1      27.906 -15.016  19.902  1.00 42.49 LIG 0.27  HD
ATOM     17 H1   GLY G   1      28.985 -15.945  19.613  1.00 42.49 LIG 0.27  HD
ENDBRANCH 13 14
ENDBRANCH 1 13
TORSDOF 6
ENDMDL
MODEL 89
USER: ADFR SOLUTION from run 70
USER: SCORE 6.479538 LL:  -0.825 LR:  -5.903 RR:   0.000 FEB:  -4.114
USER: RMSD 3.810184
USER: SEED 69
USER: STATUS no improvement in best in 30 clusters for 5 generations
USER: GENES 8
USER: genes 0 Translation |==|  0.26385 0.57084 0.63373
USER: genes 1 Rotation |==|  0.90251 0.58878 0.55198 0.77822
USER: genes 2 Torsion [C]-N--CA-[C] |==|  0.47262
USER: genes 3 Torsion [N]-CA--C-[N] |==|  0.50332
USER: genes 4 Torsion [C]-N--CA-[C] |==|  0.34159
USER: genes 5 Torsion [N]-CA--C-[O] |==|  0.96590
USER: genes 6 Torsion [N]-C--CA-[N] |==|  0.68985
USER: genes 7 Torsion [C]-CA--N-[H2] |==|  0.72190
ROOT
ATOM      1  C   GLY G   1      21.782 -15.902  20.074  1.00 43.90 LIG 0.24  C 
ATOM      2 O    GLY G   1      22.135 -14.925  20.740  1.00 43.93 LIG-0.27  OA
ATOM      3  N   GLY G   2      22.599 -16.602  19.283  1.00 44.62 LIG-0.35  N 
ATOM      4 H    GLY G   2      22.326 -17.186  18.714  1.00 44.62 LIG 0.16  HD
ENDROOT
BRANCH 3 5
ATOM      5  CA  GLY G   2      24.041 -16.434  19.317  1.00 45.53 LIG 0.23  C 
BRANCH 5 6
ATOM      6  C   GLY G   2      24.792 -17.471  18.527  1.00 46.02 LIG 0.23  C 
ATOM      7 O    GLY G   2      24.179 -18.325  17.889  1.00 47.02 LIG-0.27  OA
ATOM      8  N   GLY G   3      26.121 -17.372  18.549  1.00 46.62 LIG-0.35  N 
ATOM      9 H    GLY G   3      26.543 -16.740  18.952  1.00 46.62 LIG 0.16  HD
BRANCH 8 10
ATOM     10  CA  GLY G   3      26.991 -18.338  17.886  1.00 46.72 LIG 0.21  C 
BRANCH 10 11
ATOM     11  C   GLY G   3      27.941 -17.736  16.864  1.00 46.79 LIG 0.21  C 
ATOM     12 O    GLY G   3      27.799 -16.579  16.478  1.00 46.39 LIG-0.29  OA
ENDBRANCH 10 11
ENDBRANCH 8 10
ENDBRANCH 5 6
ENDBRANCH 3 5
BRANCH 1 13
ATOM     13  CA  GLY G   1      20.356 -16.386  20.128  1.00 43.33 LIG 0.33  C 
BRANCH 13 14
ATOM     14  N   GLY G   1      19.481 -15.386  19.477  1.00 42.49 LIG-0.07  N 
ATOM     15 H2   GLY G   1      19.086 -14.887  20.099  1.00 42.49 LIG 0.27  HD
ATOM     16 H3   GLY G   1      19.969 -14.865  18.946  1.00 42.49 LIG 0.27  HD
ATOM     17 H1   GLY G   1      18.860 -15.803  18.994  1.00 42.49 LIG 0.27  HD
ENDBRANCH 13 14
ENDBRANCH 1 13
TORSDOF 6
ENDMDL
