MODEL 1
USER: ADFR SOLUTION from run 196
USER: SCORE 19.159807 LL:  -3.881 LR: -17.156 RR:   0.000 FEB:  -9.102
USER: RMSD 9.638580
USER: SEED 195
USER: STATUS searching
USER: GENES 29
USER: genes 0 Translation |==|  0.45890 0.51497 0.41115
USER: genes 1 Rotation |==|  0.39164 0.54725 0.03320 0.63461
USER: genes 2 Torsion [N]-CA--C-[N] |==|  0.72268
USER: genes 3 Torsion [C]-N--CA-[CB] |==|  0.75124
USER: genes 4 Torsion [N]-CA--CB-[CG] |==|  0.64429
USER: genes 5 Torsion [CA]-CB--CG-[CD] |==|  0.64092
USER: genes 6 Torsion [CB]-CG--CD-[CE] |==|  0.98137
USER: genes 7 Torsion [CG]-CD--CE-[NZ] |==|  0.25563
USER: genes 8 Torsion [CD]-CE--NZ-[HZ3] |==|  0.73571
USER: genes 9 Torsion [N]-CA--C-[N] |==|  0.13095
USER: genes 10 Torsion [C]-N--CA-[C] |==|  0.15059
USER: genes 11 Torsion [N]-CA--C-[N] |==|  0.14867
USER: genes 12 Torsion [C]-N--CA-[CB] |==|  0.29979
USER: genes 13 Torsion [N]-CA--CB-[CG] |==|  0.64308
USER: genes 14 Torsion [CA]-CB--CG-[CD] |==|  0.18024
USER: genes 15 Torsion [CB]-CG--CD-[OE2] |==|  0.12239
USER: genes 16 Torsion [N]-CA--C-[O] |==|  0.88750
USER: genes 17 Torsion [C]-CA--CB-[OG] |==|  0.68492
USER: genes 18 Torsion [CA]-CB--OG-[HG] |==|  0.31302
USER: genes 19 Torsion [C]-CA--N-[C] |==|  0.67401
USER: genes 20 Torsion [N]-C--CA-[N] |==|  0.21445
USER: genes 21 Torsion [C]-CA--N-[C] |==|  0.79983
USER: genes 22 Torsion [N]-C--CA-[N] |==|  0.03062
USER: genes 23 Torsion [C]-CA--CB-[CG] |==|  0.21857
USER: genes 24 Torsion [CA]-CB--CG-[CD1] |==|  0.09718
USER: genes 25 Torsion [C]-CA--CB-[CG] |==|  0.73787
USER: genes 26 Torsion [CA]-CB--CG-[CD] |==|  0.58039
USER: genes 27 Torsion [CB]-CG--CD-[NE] |==|  0.25198
USER: genes 28 Torsion [CG]-CD--NE-[HE] |==|  0.06242
ROOT
ATOM      1  CA  SER D 109     -12.641  -3.075  12.058  1.00 42.91 LIG 0.20  C 
ENDROOT
BRANCH 1 2
ATOM      2  C   SER D 109     -11.928  -1.882  11.449  1.00 45.81 LIG 0.24  C 
ATOM      3 O    SER D 109     -12.197  -1.511  10.308  1.00 48.15 LIG-0.27  OA
ATOM      4  N   LYS D 110     -11.004  -1.287  12.194  1.00 56.31 LIG-0.35  N 
ATOM      5 H    LYS D 110     -10.702  -1.588  12.942  1.00 56.31 LIG 0.16  HD
BRANCH 4 6
ATOM      6  CA  LYS D 110     -10.423  -0.016  11.749  1.00 51.35 LIG 0.18  C 
BRANCH 6 7
ATOM      7  CB  LYS D 110      -9.193  -0.290  10.877  1.00 62.96 LIG 0.04  C 
BRANCH 7 8
ATOM      8  CG  LYS D 110      -7.971   0.483  11.349  1.00 63.09 LIG 0.00  C 
BRANCH 8 9
ATOM      9  CD  LYS D 110      -7.290   1.257  10.227  1.00 65.88 LIG 0.03  C 
BRANCH 9 10
ATOM     10  CE  LYS D 110      -7.931   0.913   8.880  1.00 57.43 LIG 0.23  C 
BRANCH 10 11
ATOM     11  NZ  LYS D 110      -9.035   1.844   8.525  1.00 66.24 LIG-0.08  N 
ATOM     12 HZ3  LYS D 110      -9.813   1.493   8.777  1.00 66.24 LIG 0.27  HD
ATOM     13 HZ1  LYS D 110      -8.912   2.622   8.940  1.00 66.24 LIG 0.27  HD
ATOM     14 HZ2  LYS D 110      -9.041   1.976   7.644  1.00 66.24 LIG 0.27  HD
ENDBRANCH 10 11
ENDBRANCH 9 10
ENDBRANCH 8 9
ENDBRANCH 7 8
ENDBRANCH 6 7
BRANCH 6 15
ATOM     15  C   LYS D 110     -11.315   1.098  11.141  1.00 56.31 LIG 0.24  C 
ATOM     16  N   GLY D 111     -12.454   1.451  11.742  1.00 59.27 LIG-0.35  N 
ATOM     17 H    GLY D 111     -13.002   2.011  11.387  1.00 59.27 LIG 0.16  HD
ATOM     18 O    LYS D 110     -10.941   1.665  10.116  1.00 65.56 LIG-0.27  OA
BRANCH 16 19
ATOM     19  CA  GLY D 111     -12.915   0.960  13.025  1.00 50.66 LIG 0.23  C 
BRANCH 19 20
ATOM     20  C   GLY D 111     -11.833   1.191  14.072  1.00 62.91 LIG 0.23  C 
ATOM     21  N   GLU D 112     -11.337   2.424  14.218  1.00 61.49 LIG-0.35  N 
ATOM     22 H    GLU D 112     -10.773   2.623  14.835  1.00 61.49 LIG 0.16  HD
ATOM     23 O    GLY D 111     -11.416   0.226  14.734  1.00 69.91 LIG-0.27  OA
BRANCH 21 24
ATOM     24  CA  GLU D 112     -11.679   3.570  13.365  1.00 68.08 LIG 0.16  C 
BRANCH 24 25
ATOM     25  CB  GLU D 112     -12.563   4.568  14.117  1.00 70.52 LIG 0.04  C 
BRANCH 25 26
ATOM     26  CG  GLU D 112     -13.825   4.949  13.370  1.00 75.61 LIG 0.12  C 
BRANCH 26 27
ATOM     27  CD  GLU D 112     -14.768   3.778  13.187  1.00 80.23 LIG 0.17  C 
ATOM     28 OE2  GLU D 112     -14.971   3.018  14.160  1.00 75.53 LIG-0.65  OA
ATOM     29 OE1  GLU D 112     -15.308   3.628  12.073  1.00 82.12 LIG-0.65  OA
ENDBRANCH 26 27
ENDBRANCH 25 26
ENDBRANCH 24 25
BRANCH 24 30
ATOM     30  C   GLU D 112     -10.518   4.293  12.688  1.00 62.49 LIG 0.22  C 
ATOM     31 O    GLU D 112      -9.466   4.498  13.299  1.00 75.48 LIG-0.29  OA
ENDBRANCH 24 30
ENDBRANCH 21 24
ENDBRANCH 19 20
ENDBRANCH 16 19
ENDBRANCH 6 15
ENDBRANCH 4 6
ENDBRANCH 1 2
BRANCH 1 32
ATOM     32  CB  SER D 109     -12.589  -2.991  13.578  1.00 41.32 LIG 0.20  C 
BRANCH 32 33
ATOM     33 OG   SER D 109     -11.798  -4.039  14.113  1.00 47.11 LIG-0.40  OA
ATOM     34 HG   SER D 109     -11.103  -3.717  14.458  1.00 47.11 LIG 0.21  HD
ENDBRANCH 32 33
ENDBRANCH 1 32
BRANCH 1 35
ATOM     35  N   SER D 109     -12.077  -4.343  11.566  1.00 33.49 LIG-0.34  N 
ATOM     36 H    SER D 109     -11.252  -4.476  11.768  1.00 33.49 LIG 0.16  HD
ATOM     37  C   ARG D 108     -12.829  -5.189  10.863  1.00 29.49 LIG 0.24  C 
ATOM     38 O    ARG D 108     -14.043  -5.039  10.704  1.00 22.63 LIG-0.27  OA
BRANCH 37 39
ATOM     39  CA  ARG D 108     -12.127  -6.393  10.273  1.00 38.27 LIG 0.18  C 
BRANCH 39 40
ATOM     40  N   ARG D 108     -11.868  -7.426  11.285  1.00 22.07 LIG-0.35  N 
ATOM     41 H    ARG D 108     -12.356  -8.132  11.224  1.00 22.07 LIG 0.16  HD
ATOM     42  C   PHE D 107     -10.937  -7.223  12.199  1.00 20.48 LIG 0.26  C 
ATOM     43 O    PHE D 107     -10.232  -6.227  12.190  1.00 25.48 LIG-0.27  OA
BRANCH 42 44
ATOM     44  CA  PHE D 107     -10.731  -8.290  13.267  1.00 18.28 LIG 0.40  C 
ATOM     45  N   PHE D 107     -11.474  -9.472  12.884  1.00 19.80 LIG 0.61  N 
BRANCH 44 46
ATOM     46  CB  PHE D 107      -9.266  -8.633  13.437  1.00 13.52 LIG 0.09  C 
BRANCH 46 47
ATOM     47  CG  PHE D 107      -8.505  -7.630  14.251  1.00 17.60 LIG-0.06  A 
ATOM     48  CD1 PHE D 107      -9.108  -6.973  15.322  1.00 15.50 LIG 0.01  A 
ATOM     49  CE1 PHE D 107      -8.391  -6.053  16.077  1.00 13.30 LIG 0.00  A 
ATOM     50  CZ  PHE D 107      -7.077  -5.730  15.752  1.00 10.86 LIG 0.00  A 
ATOM     51  CE2 PHE D 107      -6.462  -6.378  14.705  1.00 17.40 LIG 0.00  A 
ATOM     52  CD2 PHE D 107      -7.173  -7.327  13.948  1.00 18.44 LIG 0.01  A 
ENDBRANCH 46 47
ENDBRANCH 44 46
ENDBRANCH 42 44
ENDBRANCH 39 40
BRANCH 39 53
ATOM     53  CB  ARG D 108     -12.926  -6.942   9.083  1.00 35.28 LIG 0.04  C 
BRANCH 53 54
ATOM     54  CG  ARG D 108     -13.897  -8.070   9.384  1.00 41.69 LIG 0.02  C 
BRANCH 54 55
ATOM     55  CD  ARG D 108     -14.127  -9.033   8.186  1.00 52.08 LIG 0.14  C 
BRANCH 55 56
ATOM     56  NE  ARG D 108     -13.220 -10.184   8.130  1.00 57.02 LIG-0.23  N 
ATOM     57  CZ  ARG D 108     -12.942 -10.877   7.020  1.00 70.73 LIG 0.67  C 
ATOM     58  NH1 ARG D 108     -13.521 -10.561   5.859  1.00 60.72 LIG-0.23  N 
ATOM     59  NH2 ARG D 108     -12.091 -11.904   7.067  1.00 54.42 LIG-0.23  N 
ATOM     60 2HH1 ARG D 108     -13.337 -11.012   5.151  1.00 60.72 LIG 0.17  HD
ATOM     61 1HH1 ARG D 108     -14.077  -9.907   5.821  1.00 60.72 LIG 0.17  HD
ATOM     62 2HH2 ARG D 108     -11.914 -12.348   6.353  1.00 54.42 LIG 0.17  HD
ATOM     63 1HH2 ARG D 108     -11.720 -12.120   7.812  1.00 54.42 LIG 0.17  HD
ATOM     64 HE   ARG D 108     -12.841 -10.431   8.862  1.00 57.02 LIG 0.18  HD
ENDBRANCH 55 56
ENDBRANCH 54 55
ENDBRANCH 53 54
ENDBRANCH 39 53
ENDBRANCH 37 39
ENDBRANCH 1 35
TORSDOF 27
ENDMDL
MODEL 2
USER: ADFR SOLUTION from run 90
USER: SCORE 21.387931 LL:  -5.619 LR: -16.790 RR:   0.000 FEB:  -8.736
USER: RMSD 5.640184
USER: SEED 89
USER: STATUS no improvement in best in 4 clusters for 5 generations
USER: GENES 29
USER: genes 0 Translation |==|  0.38968 0.53231 0.33755
USER: genes 1 Rotation |==|  0.63176 0.97243 0.57371 0.56335
USER: genes 2 Torsion [N]-CA--C-[N] |==|  0.36702
USER: genes 3 Torsion [C]-N--CA-[CB] |==|  0.66172
USER: genes 4 Torsion [N]-CA--CB-[CG] |==|  0.11806
USER: genes 5 Torsion [CA]-CB--CG-[CD] |==|  0.39006
USER: genes 6 Torsion [CB]-CG--CD-[CE] |==|  0.20619
USER: genes 7 Torsion [CG]-CD--CE-[NZ] |==|  0.60670
USER: genes 8 Torsion [CD]-CE--NZ-[HZ3] |==|  0.26754
USER: genes 9 Torsion [N]-CA--C-[N] |==|  0.17799
USER: genes 10 Torsion [C]-N--CA-[C] |==|  0.67225
USER: genes 11 Torsion [N]-CA--C-[N] |==|  0.54041
USER: genes 12 Torsion [C]-N--CA-[CB] |==|  0.38336
USER: genes 13 Torsion [N]-CA--CB-[CG] |==|  0.24380
USER: genes 14 Torsion [CA]-CB--CG-[CD] |==|  0.77943
USER: genes 15 Torsion [CB]-CG--CD-[OE2] |==|  0.91807
USER: genes 16 Torsion [N]-CA--C-[O] |==|  0.16908
USER: genes 17 Torsion [C]-CA--CB-[OG] |==|  0.59604
USER: genes 18 Torsion [CA]-CB--OG-[HG] |==|  0.48066
USER: genes 19 Torsion [C]-CA--N-[C] |==|  0.69243
USER: genes 20 Torsion [N]-C--CA-[N] |==|  0.05197
USER: genes 21 Torsion [C]-CA--N-[C] |==|  0.69647
USER: genes 22 Torsion [N]-C--CA-[N] |==|  0.28062
USER: genes 23 Torsion [C]-CA--CB-[CG] |==|  0.55206
USER: genes 24 Torsion [CA]-CB--CG-[CD1] |==|  0.83978
USER: genes 25 Torsion [C]-CA--CB-[CG] |==|  0.66257
USER: genes 26 Torsion [CA]-CB--CG-[CD] |==|  0.68576
USER: genes 27 Torsion [CB]-CG--CD-[NE] |==|  0.34282
USER: genes 28 Torsion [CG]-CD--NE-[HE] |==|  0.22941
ROOT
ATOM      1  CA  SER D 109     -14.198  -2.724  10.291  1.00 42.91 LIG 0.20  C 
ENDROOT
BRANCH 1 2
ATOM      2  C   SER D 109     -13.350  -3.939  10.614  1.00 45.81 LIG 0.24  C 
ATOM      3 O    SER D 109     -12.132  -3.913  10.441  1.00 48.15 LIG-0.27  OA
ATOM      4  N   LYS D 110     -13.984  -5.015  11.067  1.00 56.31 LIG-0.35  N 
ATOM      5 H    LYS D 110     -14.839  -5.113  11.085  1.00 56.31 LIG 0.16  HD
BRANCH 4 6
ATOM      6  CA  LYS D 110     -13.210  -6.147  11.585  1.00 51.35 LIG 0.18  C 
BRANCH 6 7
ATOM      7  CB  LYS D 110     -13.551  -7.411  10.787  1.00 62.96 LIG 0.04  C 
BRANCH 7 8
ATOM      8  CG  LYS D 110     -13.643  -7.140   9.293  1.00 63.09 LIG 0.00  C 
BRANCH 8 9
ATOM      9  CD  LYS D 110     -13.040  -8.257   8.451  1.00 65.88 LIG 0.03  C 
BRANCH 9 10
ATOM     10  CE  LYS D 110     -13.968  -9.476   8.443  1.00 57.43 LIG 0.23  C 
BRANCH 10 11
ATOM     11  NZ  LYS D 110     -13.216 -10.758   8.498  1.00 66.24 LIG-0.08  N 
ATOM     12 HZ3  LYS D 110     -13.176 -11.043   9.340  1.00 66.24 LIG 0.27  HD
ATOM     13 HZ1  LYS D 110     -13.630 -11.367   7.998  1.00 66.24 LIG 0.27  HD
ATOM     14 HZ2  LYS D 110     -12.391 -10.632   8.188  1.00 66.24 LIG 0.27  HD
ENDBRANCH 10 11
ENDBRANCH 9 10
ENDBRANCH 8 9
ENDBRANCH 7 8
ENDBRANCH 6 7
BRANCH 6 15
ATOM     15  C   LYS D 110     -11.682  -6.023  11.829  1.00 56.31 LIG 0.24  C 
ATOM     16  N   GLY D 111     -11.215  -5.172  12.745  1.00 59.27 LIG-0.35  N 
ATOM     17 H    GLY D 111     -10.373  -5.031  12.847  1.00 59.27 LIG 0.16  HD
ATOM     18 O    LYS D 110     -10.918  -6.740  11.186  1.00 65.56 LIG-0.27  OA
BRANCH 16 19
ATOM     19  CA  GLY D 111     -12.025  -4.393  13.660  1.00 50.66 LIG 0.23  C 
BRANCH 19 20
ATOM     20  C   GLY D 111     -11.803  -2.910  13.395  1.00 62.91 LIG 0.23  C 
ATOM     21  N   GLU D 112     -12.219  -2.028  14.310  1.00 61.49 LIG-0.35  N 
ATOM     22 H    GLU D 112     -12.062  -1.185  14.241  1.00 61.49 LIG 0.16  HD
ATOM     23 O    GLY D 111     -11.277  -2.558  12.327  1.00 69.91 LIG-0.27  OA
BRANCH 21 24
ATOM     24  CA  GLU D 112     -12.980  -2.371  15.519  1.00 68.08 LIG 0.16  C 
BRANCH 24 25
ATOM     25  CB  GLU D 112     -12.467  -1.587  16.730  1.00 70.52 LIG 0.04  C 
BRANCH 25 26
ATOM     26  CG  GLU D 112     -13.125  -0.234  16.904  1.00 75.61 LIG 0.12  C 
BRANCH 26 27
ATOM     27  CD  GLU D 112     -12.548   0.816  15.979  1.00 80.23 LIG 0.17  C 
ATOM     28 OE2  GLU D 112     -11.352   0.710  15.628  1.00 75.53 LIG-0.65  OA
ATOM     29 OE1  GLU D 112     -13.296   1.740  15.599  1.00 82.12 LIG-0.65  OA
ENDBRANCH 26 27
ENDBRANCH 25 26
ENDBRANCH 24 25
BRANCH 24 30
ATOM     30  C   GLU D 112     -14.499  -2.271  15.425  1.00 62.49 LIG 0.22  C 
ATOM     31 O    GLU D 112     -15.125  -2.963  14.616  1.00 75.48 LIG-0.29  OA
ENDBRANCH 24 30
ENDBRANCH 21 24
ENDBRANCH 19 20
ENDBRANCH 16 19
ENDBRANCH 6 15
ENDBRANCH 4 6
ENDBRANCH 1 2
BRANCH 1 32
ATOM     32  CB  SER D 109     -14.366  -2.594   8.782  1.00 41.32 LIG 0.20  C 
BRANCH 32 33
ATOM     33 OG   SER D 109     -14.407  -1.230   8.396  1.00 47.11 LIG-0.40  OA
ATOM     34 HG   SER D 109     -14.404  -1.176   7.558  1.00 47.11 LIG 0.21  HD
ENDBRANCH 32 33
ENDBRANCH 1 32
BRANCH 1 35
ATOM     35  N   SER D 109     -13.627  -1.501  10.880  1.00 33.49 LIG-0.34  N 
ATOM     36 H    SER D 109     -12.890  -1.237  10.524  1.00 33.49 LIG 0.16  HD
ATOM     37  C   ARG D 108     -14.244  -0.885  11.887  1.00 29.49 LIG 0.24  C 
ATOM     38 O    ARG D 108     -15.366  -1.205  12.287  1.00 22.63 LIG-0.27  OA
BRANCH 37 39
ATOM     39  CA  ARG D 108     -13.511   0.275  12.526  1.00 38.27 LIG 0.18  C 
BRANCH 39 40
ATOM     40  N   ARG D 108     -12.452   0.799  11.655  1.00 22.07 LIG-0.35  N 
ATOM     41 H    ARG D 108     -12.723   1.223  10.957  1.00 22.07 LIG 0.16  HD
ATOM     42  C   PHE D 107     -11.186   0.599  11.976  1.00 20.48 LIG 0.26  C 
ATOM     43 O    PHE D 107     -10.865   0.046  13.015  1.00 25.48 LIG-0.27  OA
BRANCH 42 44
ATOM     44  CA  PHE D 107     -10.112   1.107  11.022  1.00 18.28 LIG 0.40  C 
ATOM     45  N   PHE D 107      -9.581   2.347  11.548  1.00 19.80 LIG 0.61  N 
BRANCH 44 46
ATOM     46  CB  PHE D 107      -8.995   0.099  10.851  1.00 13.52 LIG 0.09  C 
BRANCH 46 47
ATOM     47  CG  PHE D 107      -7.730   0.691  10.306  1.00 17.60 LIG-0.06  A 
ATOM     48  CD1 PHE D 107      -7.723   1.358   9.082  1.00 15.50 LIG 0.01  A 
ATOM     49  CE1 PHE D 107      -6.547   1.912   8.590  1.00 13.30 LIG 0.00  A 
ATOM     50  CZ  PHE D 107      -5.347   1.771   9.280  1.00 10.86 LIG 0.00  A 
ATOM     51  CE2 PHE D 107      -5.338   1.126  10.495  1.00 17.40 LIG 0.00  A 
ATOM     52  CD2 PHE D 107      -6.527   0.580  11.012  1.00 18.44 LIG 0.01  A 
ENDBRANCH 46 47
ENDBRANCH 44 46
ENDBRANCH 42 44
ENDBRANCH 39 40
BRANCH 39 53
ATOM     53  CB  ARG D 108     -14.507   1.368  12.941  1.00 35.28 LIG 0.04  C 
BRANCH 53 54
ATOM     54  CG  ARG D 108     -14.293   2.742  12.331  1.00 41.69 LIG 0.02  C 
BRANCH 54 55
ATOM     55  CD  ARG D 108     -13.874   3.825  13.364  1.00 52.08 LIG 0.14  C 
BRANCH 55 56
ATOM     56  NE  ARG D 108     -12.614   4.513  13.067  1.00 57.02 LIG-0.23  N 
ATOM     57  CZ  ARG D 108     -11.430   4.191  13.602  1.00 70.73 LIG 0.67  C 
ATOM     58  NH1 ARG D 108     -11.333   3.202  14.492  1.00 60.72 LIG-0.23  N 
ATOM     59  NH2 ARG D 108     -10.333   4.870  13.257  1.00 54.42 LIG-0.23  N 
ATOM     60 2HH1 ARG D 108     -10.569   3.002  14.831  1.00 60.72 LIG 0.17  HD
ATOM     61 1HH1 ARG D 108     -12.036   2.765  14.727  1.00 60.72 LIG 0.17  HD
ATOM     62 2HH2 ARG D 108      -9.574   4.662  13.601  1.00 54.42 LIG 0.17  HD
ATOM     63 1HH2 ARG D 108     -10.387   5.514  12.690  1.00 54.42 LIG 0.17  HD
ATOM     64 HE   ARG D 108     -12.637   5.168  12.511  1.00 57.02 LIG 0.18  HD
ENDBRANCH 55 56
ENDBRANCH 54 55
ENDBRANCH 53 54
ENDBRANCH 39 53
ENDBRANCH 37 39
ENDBRANCH 1 35
TORSDOF 27
ENDMDL
MODEL 3
USER: ADFR SOLUTION from run 90
USER: SCORE 19.964350 LL:  -4.345 LR: -16.596 RR:   0.000 FEB:  -8.542
USER: RMSD 5.464873
USER: SEED 89
USER: STATUS no improvement in best in 4 clusters for 5 generations
USER: GENES 29
USER: genes 0 Translation |==|  0.40431 0.54129 0.35091
USER: genes 1 Rotation |==|  0.60931 0.98092 0.57007 0.54310
USER: genes 2 Torsion [N]-CA--C-[N] |==|  0.45553
USER: genes 3 Torsion [C]-N--CA-[CB] |==|  0.69259
USER: genes 4 Torsion [N]-CA--CB-[CG] |==|  0.85298
USER: genes 5 Torsion [CA]-CB--CG-[CD] |==|  0.54782
USER: genes 6 Torsion [CB]-CG--CD-[CE] |==|  0.36542
USER: genes 7 Torsion [CG]-CD--CE-[NZ] |==|  0.66544
USER: genes 8 Torsion [CD]-CE--NZ-[HZ3] |==|  0.23976
USER: genes 9 Torsion [N]-CA--C-[N] |==|  0.14319
USER: genes 10 Torsion [C]-N--CA-[C] |==|  0.20302
USER: genes 11 Torsion [N]-CA--C-[N] |==|  0.63894
USER: genes 12 Torsion [C]-N--CA-[CB] |==|  0.43942
USER: genes 13 Torsion [N]-CA--CB-[CG] |==|  0.82008
USER: genes 14 Torsion [CA]-CB--CG-[CD] |==|  0.73391
USER: genes 15 Torsion [CB]-CG--CD-[OE2] |==|  0.10668
USER: genes 16 Torsion [N]-CA--C-[O] |==|  0.08798
USER: genes 17 Torsion [C]-CA--CB-[OG] |==|  0.61861
USER: genes 18 Torsion [CA]-CB--OG-[HG] |==|  0.49120
USER: genes 19 Torsion [C]-CA--N-[C] |==|  0.81666
USER: genes 20 Torsion [N]-C--CA-[N] |==|  0.92568
USER: genes 21 Torsion [C]-CA--N-[C] |==|  0.75040
USER: genes 22 Torsion [N]-C--CA-[N] |==|  0.23788
USER: genes 23 Torsion [C]-CA--CB-[CG] |==|  0.56495
USER: genes 24 Torsion [CA]-CB--CG-[CD1] |==|  0.84383
USER: genes 25 Torsion [C]-CA--CB-[CG] |==|  0.69610
USER: genes 26 Torsion [CA]-CB--CG-[CD] |==|  0.65426
USER: genes 27 Torsion [CB]-CG--CD-[NE] |==|  0.28437
USER: genes 28 Torsion [CG]-CD--NE-[HE] |==|  0.27591
ROOT
ATOM      1  CA  SER D 109     -13.869  -2.542  10.612  1.00 42.91 LIG 0.20  C 
ENDROOT
BRANCH 1 2
ATOM      2  C   SER D 109     -12.878  -3.658  10.879  1.00 45.81 LIG 0.24  C 
ATOM      3 O    SER D 109     -11.716  -3.400  11.190  1.00 48.15 LIG-0.27  OA
ATOM      4  N   LYS D 110     -13.321  -4.903  10.744  1.00 56.31 LIG-0.35  N 
ATOM      5 H    LYS D 110     -14.083  -5.123  10.412  1.00 56.31 LIG 0.16  HD
BRANCH 4 6
ATOM      6  CA  LYS D 110     -12.479  -6.022  11.179  1.00 51.35 LIG 0.18  C 
BRANCH 6 7
ATOM      7  CB  LYS D 110     -11.992  -6.806   9.954  1.00 62.96 LIG 0.04  C 
BRANCH 7 8
ATOM      8  CG  LYS D 110     -13.139  -7.225   9.047  1.00 63.09 LIG 0.00  C 
BRANCH 8 9
ATOM      9  CD  LYS D 110     -12.751  -8.333   8.076  1.00 65.88 LIG 0.03  C 
BRANCH 9 10
ATOM     10  CE  LYS D 110     -13.798  -9.451   8.098  1.00 57.43 LIG 0.23  C 
BRANCH 10 11
ATOM     11  NZ  LYS D 110     -13.216 -10.761   8.493  1.00 66.24 LIG-0.08  N 
ATOM     12 HZ3  LYS D 110     -13.215 -10.831   9.380  1.00 66.24 LIG 0.27  HD
ATOM     13 HZ1  LYS D 110     -13.703 -11.419   8.144  1.00 66.24 LIG 0.27  HD
ATOM     14 HZ2  LYS D 110     -12.381 -10.819   8.190  1.00 66.24 LIG 0.27  HD
ENDBRANCH 10 11
ENDBRANCH 9 10
ENDBRANCH 8 9
ENDBRANCH 7 8
ENDBRANCH 6 7
BRANCH 6 15
ATOM     15  C   LYS D 110     -11.338  -5.809  12.208  1.00 56.31 LIG 0.24  C 
ATOM     16  N   GLY D 111     -11.584  -5.190  13.365  1.00 59.27 LIG-0.35  N 
ATOM     17 H    GLY D 111     -10.956  -4.994  13.919  1.00 59.27 LIG 0.16  HD
ATOM     18 O    LYS D 110     -10.216  -6.241  11.951  1.00 65.56 LIG-0.27  OA
BRANCH 16 19
ATOM     19  CA  GLY D 111     -12.890  -4.776  13.837  1.00 50.66 LIG 0.23  C 
BRANCH 19 20
ATOM     20  C   GLY D 111     -13.683  -6.002  14.270  1.00 62.91 LIG 0.23  C 
ATOM     21  N   GLU D 112     -14.926  -6.158  13.802  1.00 61.49 LIG-0.35  N 
ATOM     22 H    GLU D 112     -15.393  -6.862  13.962  1.00 61.49 LIG 0.16  HD
ATOM     23 O    GLY D 111     -13.172  -6.802  15.071  1.00 69.91 LIG-0.27  OA
BRANCH 21 24
ATOM     24  CA  GLU D 112     -15.639  -5.174  12.976  1.00 68.08 LIG 0.16  C 
BRANCH 24 25
ATOM     25  CB  GLU D 112     -16.766  -5.840  12.182  1.00 70.52 LIG 0.04  C 
BRANCH 25 26
ATOM     26  CG  GLU D 112     -16.280  -6.845  11.158  1.00 75.61 LIG 0.12  C 
BRANCH 26 27
ATOM     27  CD  GLU D 112     -16.151  -6.247   9.773  1.00 80.23 LIG 0.17  C 
ATOM     28 OE2  GLU D 112     -15.722  -5.077   9.667  1.00 75.53 LIG-0.65  OA
ATOM     29 OE1  GLU D 112     -16.470  -6.954   8.796  1.00 82.12 LIG-0.65  OA
ENDBRANCH 26 27
ENDBRANCH 25 26
ENDBRANCH 24 25
BRANCH 24 30
ATOM     30  C   GLU D 112     -16.155  -3.926  13.686  1.00 62.49 LIG 0.22  C 
ATOM     31 O    GLU D 112     -15.546  -3.458  14.653  1.00 75.48 LIG-0.29  OA
ENDBRANCH 24 30
ENDBRANCH 21 24
ENDBRANCH 19 20
ENDBRANCH 16 19
ENDBRANCH 6 15
ENDBRANCH 4 6
ENDBRANCH 1 2
BRANCH 1 32
ATOM     32  CB  SER D 109     -14.156  -2.449   9.118  1.00 41.32 LIG 0.20  C 
BRANCH 32 33
ATOM     33 OG   SER D 109     -14.182  -1.096   8.694  1.00 47.11 LIG-0.40  OA
ATOM     34 HG   SER D 109     -14.298  -1.065   7.863  1.00 47.11 LIG 0.21  HD
ENDBRANCH 32 33
ENDBRANCH 1 32
BRANCH 1 35
ATOM     35  N   SER D 109     -13.388  -1.259  11.152  1.00 33.49 LIG-0.34  N 
ATOM     36 H    SER D 109     -13.208  -0.661  10.561  1.00 33.49 LIG 0.16  HD
ATOM     37  C   ARG D 108     -13.257  -1.086  12.466  1.00 29.49 LIG 0.24  C 
ATOM     38 O    ARG D 108     -13.650  -1.910  13.297  1.00 22.63 LIG-0.27  OA
BRANCH 37 39
ATOM     39  CA  ARG D 108     -12.617   0.207  12.922  1.00 38.27 LIG 0.18  C 
BRANCH 39 40
ATOM     40  N   ARG D 108     -11.708   0.755  11.907  1.00 22.07 LIG-0.35  N 
ATOM     41 H    ARG D 108     -12.068   1.295  11.342  1.00 22.07 LIG 0.16  HD
ATOM     42  C   PHE D 107     -10.435   0.403  11.915  1.00 20.48 LIG 0.26  C 
ATOM     43 O    PHE D 107      -9.971  -0.316  12.785  1.00 25.48 LIG-0.27  OA
BRANCH 42 44
ATOM     44  CA  PHE D 107      -9.531   0.946  10.816  1.00 18.28 LIG 0.40  C 
ATOM     45  N   PHE D 107      -9.044   2.247  11.223  1.00 19.80 LIG 0.61  N 
BRANCH 44 46
ATOM     46  CB  PHE D 107      -8.364   0.019  10.545  1.00 13.52 LIG 0.09  C 
BRANCH 46 47
ATOM     47  CG  PHE D 107      -7.185   0.705   9.922  1.00 17.60 LIG-0.06  A 
ATOM     48  CD1 PHE D 107      -7.318   1.414   8.729  1.00 15.50 LIG 0.01  A 
ATOM     49  CE1 PHE D 107      -6.222   2.055   8.166  1.00 13.30 LIG 0.00  A 
ATOM     50  CZ  PHE D 107      -4.961   1.962   8.749  1.00 10.86 LIG 0.00  A 
ATOM     51  CE2 PHE D 107      -4.814   1.276   9.932  1.00 17.40 LIG 0.00  A 
ATOM     52  CD2 PHE D 107      -5.922   0.641  10.522  1.00 18.44 LIG 0.01  A 
ENDBRANCH 46 47
ENDBRANCH 44 46
ENDBRANCH 42 44
ENDBRANCH 39 40
BRANCH 39 53
ATOM     53  CB  ARG D 108     -13.698   1.218  13.332  1.00 35.28 LIG 0.04  C 
BRANCH 53 54
ATOM     54  CG  ARG D 108     -13.892   2.408  12.410  1.00 41.69 LIG 0.02  C 
BRANCH 54 55
ATOM     55  CD  ARG D 108     -13.755   3.781  13.125  1.00 52.08 LIG 0.14  C 
BRANCH 55 56
ATOM     56  NE  ARG D 108     -12.480   4.471  12.907  1.00 57.02 LIG-0.23  N 
ATOM     57  CZ  ARG D 108     -11.347   4.197  13.564  1.00 70.73 LIG 0.67  C 
ATOM     58  NH1 ARG D 108     -11.323   3.258  14.512  1.00 60.72 LIG-0.23  N 
ATOM     59  NH2 ARG D 108     -10.231   4.873  13.284  1.00 54.42 LIG-0.23  N 
ATOM     60 2HH1 ARG D 108     -10.591   3.089  14.930  1.00 60.72 LIG 0.17  HD
ATOM     61 1HH1 ARG D 108     -12.039   2.824  14.705  1.00 60.72 LIG 0.17  HD
ATOM     62 2HH2 ARG D 108      -9.504   4.696  13.707  1.00 54.42 LIG 0.17  HD
ATOM     63 1HH2 ARG D 108     -10.239   5.485  12.681  1.00 54.42 LIG 0.17  HD
ATOM     64 HE   ARG D 108     -12.459   5.096  12.316  1.00 57.02 LIG 0.18  HD
ENDBRANCH 55 56
ENDBRANCH 54 55
ENDBRANCH 53 54
ENDBRANCH 39 53
ENDBRANCH 37 39
ENDBRANCH 1 35
TORSDOF 27
ENDMDL
MODEL 4
USER: ADFR SOLUTION from run 114
USER: SCORE 18.578488 LL:  -4.306 LR: -16.143 RR:   0.000 FEB:  -8.089
USER: RMSD 4.990715
USER: SEED 113
USER: STATUS searching
USER: GENES 29
USER: genes 0 Translation |==|  0.49990 0.54316 0.46265
USER: genes 1 Rotation |==|  0.36239 0.24256 0.64557 0.87894
USER: genes 2 Torsion [N]-CA--C-[N] |==|  0.54042
USER: genes 3 Torsion [C]-N--CA-[CB] |==|  0.74586
USER: genes 4 Torsion [N]-CA--CB-[CG] |==|  0.19331
USER: genes 5 Torsion [CA]-CB--CG-[CD] |==|  0.42105
USER: genes 6 Torsion [CB]-CG--CD-[CE] |==|  0.80663
USER: genes 7 Torsion [CG]-CD--CE-[NZ] |==|  0.26683
USER: genes 8 Torsion [CD]-CE--NZ-[HZ3] |==|  0.08555
USER: genes 9 Torsion [N]-CA--C-[N] |==|  0.24351
USER: genes 10 Torsion [C]-N--CA-[C] |==|  0.52835
USER: genes 11 Torsion [N]-CA--C-[N] |==|  0.38004
USER: genes 12 Torsion [C]-N--CA-[CB] |==|  0.19988
USER: genes 13 Torsion [N]-CA--CB-[CG] |==|  0.52816
USER: genes 14 Torsion [CA]-CB--CG-[CD] |==|  0.17808
USER: genes 15 Torsion [CB]-CG--CD-[OE2] |==|  0.62220
USER: genes 16 Torsion [N]-CA--C-[O] |==|  0.97174
USER: genes 17 Torsion [C]-CA--CB-[OG] |==|  0.34672
USER: genes 18 Torsion [CA]-CB--OG-[HG] |==|  0.76694
USER: genes 19 Torsion [C]-CA--N-[C] |==|  0.18914
USER: genes 20 Torsion [N]-C--CA-[N] |==|  0.04056
USER: genes 21 Torsion [C]-CA--N-[C] |==|  0.76109
USER: genes 22 Torsion [N]-C--CA-[N] |==|  0.49389
USER: genes 23 Torsion [C]-CA--CB-[CG] |==|  0.44528
USER: genes 24 Torsion [CA]-CB--CG-[CD1] |==|  0.36978
USER: genes 25 Torsion [C]-CA--CB-[CG] |==|  0.23601
USER: genes 26 Torsion [CA]-CB--CG-[CD] |==|  0.23291
USER: genes 27 Torsion [CB]-CG--CD-[NE] |==|  0.62325
USER: genes 28 Torsion [CG]-CD--NE-[HE] |==|  0.75781
ROOT
ATOM      1  CA  SER D 109     -11.718  -2.504  13.294  1.00 42.91 LIG 0.20  C 
ENDROOT
BRANCH 1 2
ATOM      2  C   SER D 109     -11.793  -3.890  12.682  1.00 45.81 LIG 0.24  C 
ATOM      3 O    SER D 109     -11.676  -4.043  11.467  1.00 48.15 LIG-0.27  OA
ATOM      4  N   LYS D 110     -12.006  -4.905  13.512  1.00 56.31 LIG-0.35  N 
ATOM      5 H    LYS D 110     -12.214  -4.828  14.343  1.00 56.31 LIG 0.16  HD
BRANCH 4 6
ATOM      6  CA  LYS D 110     -11.890  -6.281  13.018  1.00 51.35 LIG 0.18  C 
BRANCH 6 7
ATOM      7  CB  LYS D 110     -13.258  -6.769  12.528  1.00 62.96 LIG 0.04  C 
BRANCH 7 8
ATOM      8  CG  LYS D 110     -13.698  -6.061  11.256  1.00 63.09 LIG 0.00  C 
BRANCH 8 9
ATOM      9  CD  LYS D 110     -14.615  -6.916  10.390  1.00 65.88 LIG 0.03  C 
BRANCH 9 10
ATOM     10  CE  LYS D 110     -13.832  -8.080   9.776  1.00 57.43 LIG 0.23  C 
BRANCH 10 11
ATOM     11  NZ  LYS D 110     -13.966  -9.331  10.569  1.00 66.24 LIG-0.08  N 
ATOM     12 HZ3  LYS D 110     -14.763  -9.348  10.966  1.00 66.24 LIG 0.27  HD
ATOM     13 HZ1  LYS D 110     -13.889 -10.034  10.029  1.00 66.24 LIG 0.27  HD
ATOM     14 HZ2  LYS D 110     -13.326  -9.361  11.187  1.00 66.24 LIG 0.27  HD
ENDBRANCH 10 11
ENDBRANCH 9 10
ENDBRANCH 8 9
ENDBRANCH 7 8
ENDBRANCH 6 7
BRANCH 6 15
ATOM     15  C   LYS D 110     -10.758  -6.682  12.036  1.00 56.31 LIG 0.24  C 
ATOM     16  N   GLY D 111      -9.570  -7.075  12.503  1.00 59.27 LIG-0.35  N 
ATOM     17 H    GLY D 111      -8.905  -7.231  11.982  1.00 59.27 LIG 0.16  HD
ATOM     18 O    LYS D 110     -10.984  -6.658  10.827  1.00 65.56 LIG-0.27  OA
BRANCH 16 19
ATOM     19  CA  GLY D 111      -9.244  -7.285  13.899  1.00 50.66 LIG 0.23  C 
BRANCH 19 20
ATOM     20  C   GLY D 111      -7.740  -7.480  14.042  1.00 62.91 LIG 0.23  C 
ATOM     21  N   GLU D 112      -7.108  -6.862  15.046  1.00 61.49 LIG-0.35  N 
ATOM     22 H    GLU D 112      -6.274  -6.988  15.212  1.00 61.49 LIG 0.16  HD
ATOM     23 O    GLY D 111      -7.136  -8.172  13.206  1.00 69.91 LIG-0.27  OA
BRANCH 21 24
ATOM     24  CA  GLU D 112      -7.738  -5.913  15.974  1.00 68.08 LIG 0.16  C 
BRANCH 24 25
ATOM     25  CB  GLU D 112      -8.679  -6.635  16.942  1.00 70.52 LIG 0.04  C 
BRANCH 25 26
ATOM     26  CG  GLU D 112      -9.544  -5.702  17.763  1.00 75.61 LIG 0.12  C 
BRANCH 26 27
ATOM     27  CD  GLU D 112     -10.506  -4.901  16.912  1.00 80.23 LIG 0.17  C 
ATOM     28 OE2  GLU D 112     -10.641  -3.680  17.152  1.00 75.53 LIG-0.65  OA
ATOM     29 OE1  GLU D 112     -11.117  -5.493  16.000  1.00 82.12 LIG-0.65  OA
ENDBRANCH 26 27
ENDBRANCH 25 26
ENDBRANCH 24 25
BRANCH 24 30
ATOM     30  C   GLU D 112      -6.806  -4.979  16.738  1.00 62.49 LIG 0.22  C 
ATOM     31 O    GLU D 112      -5.584  -5.155  16.715  1.00 75.48 LIG-0.29  OA
ENDBRANCH 24 30
ENDBRANCH 21 24
ENDBRANCH 19 20
ENDBRANCH 16 19
ENDBRANCH 6 15
ENDBRANCH 4 6
ENDBRANCH 1 2
BRANCH 1 32
ATOM     32  CB  SER D 109     -12.792  -2.349  14.363  1.00 41.32 LIG 0.20  C 
BRANCH 32 33
ATOM     33 OG   SER D 109     -12.219  -1.959  15.600  1.00 47.11 LIG-0.40  OA
ATOM     34 HG   SER D 109     -11.942  -2.639  16.007  1.00 47.11 LIG 0.21  HD
ENDBRANCH 32 33
ENDBRANCH 1 32
BRANCH 1 35
ATOM     35  N   SER D 109     -11.826  -1.459  12.263  1.00 33.49 LIG-0.34  N 
ATOM     36 H    SER D 109     -11.110  -1.000  12.134  1.00 33.49 LIG 0.16  HD
ATOM     37  C   ARG D 108     -12.970  -1.275  11.604  1.00 29.49 LIG 0.24  C 
ATOM     38 O    ARG D 108     -13.937  -2.033  11.709  1.00 22.63 LIG-0.27  OA
BRANCH 37 39
ATOM     39  CA  ARG D 108     -13.034  -0.085  10.672  1.00 38.27 LIG 0.18  C 
BRANCH 39 40
ATOM     40  N   ARG D 108     -11.702   0.469  10.398  1.00 22.07 LIG-0.35  N 
ATOM     41 H    ARG D 108     -11.318   0.172   9.688  1.00 22.07 LIG 0.16  HD
ATOM     42  C   PHE D 107     -11.184   1.359  11.225  1.00 20.48 LIG 0.26  C 
ATOM     43 O    PHE D 107     -11.808   1.790  12.181  1.00 25.48 LIG-0.27  OA
BRANCH 42 44
ATOM     44  CA  PHE D 107      -9.777   1.872  10.943  1.00 18.28 LIG 0.40  C 
ATOM     45  N   PHE D 107      -9.443   2.867  11.940  1.00 19.80 LIG 0.61  N 
BRANCH 44 46
ATOM     46  CB  PHE D 107      -8.759   0.752  10.969  1.00 13.52 LIG 0.09  C 
BRANCH 46 47
ATOM     47  CG  PHE D 107      -7.481   1.086  10.259  1.00 17.60 LIG-0.06  A 
ATOM     48  CD1 PHE D 107      -6.245   0.822  10.850  1.00 15.50 LIG 0.01  A 
ATOM     49  CE1 PHE D 107      -5.067   1.125  10.180  1.00 13.30 LIG 0.00  A 
ATOM     50  CZ  PHE D 107      -5.091   1.742   8.932  1.00 10.86 LIG 0.00  A 
ATOM     51  CE2 PHE D 107      -6.301   1.998   8.330  1.00 17.40 LIG 0.00  A 
ATOM     52  CD2 PHE D 107      -7.500   1.676   8.991  1.00 18.44 LIG 0.01  A 
ENDBRANCH 46 47
ENDBRANCH 44 46
ENDBRANCH 42 44
ENDBRANCH 39 40
BRANCH 39 53
ATOM     53  CB  ARG D 108     -13.776  -0.461   9.381  1.00 35.28 LIG 0.04  C 
BRANCH 53 54
ATOM     54  CG  ARG D 108     -15.291  -0.358   9.420  1.00 41.69 LIG 0.02  C 
BRANCH 54 55
ATOM     55  CD  ARG D 108     -15.826   1.074   9.143  1.00 52.08 LIG 0.14  C 
BRANCH 55 56
ATOM     56  NE  ARG D 108     -16.895   1.522  10.042  1.00 57.02 LIG-0.23  N 
ATOM     57  CZ  ARG D 108     -16.697   2.216  11.170  1.00 70.73 LIG 0.67  C 
ATOM     58  NH1 ARG D 108     -15.461   2.526  11.567  1.00 60.72 LIG-0.23  N 
ATOM     59  NH2 ARG D 108     -17.738   2.592  11.916  1.00 54.42 LIG-0.23  N 
ATOM     60 2HH1 ARG D 108     -15.343   2.972  12.293  1.00 60.72 LIG 0.17  HD
ATOM     61 1HH1 ARG D 108     -14.784   2.281  11.097  1.00 60.72 LIG 0.17  HD
ATOM     62 2HH2 ARG D 108     -17.609   3.036  12.640  1.00 54.42 LIG 0.17  HD
ATOM     63 1HH2 ARG D 108     -18.537   2.388  11.672  1.00 54.42 LIG 0.17  HD
ATOM     64 HE   ARG D 108     -17.705   1.326   9.830  1.00 57.02 LIG 0.18  HD
ENDBRANCH 55 56
ENDBRANCH 54 55
ENDBRANCH 53 54
ENDBRANCH 39 53
ENDBRANCH 37 39
ENDBRANCH 1 35
TORSDOF 27
ENDMDL
MODEL 5
USER: ADFR SOLUTION from run 163
USER: SCORE 16.578971 LL:  -2.168 LR: -16.090 RR:   0.000 FEB:  -8.036
USER: RMSD 9.993252
USER: SEED 162
USER: STATUS searching
USER: GENES 29
USER: genes 0 Translation |==|  0.43492 0.60212 0.32048
USER: genes 1 Rotation |==|  0.18735 0.65589 0.85335 0.55561
USER: genes 2 Torsion [N]-CA--C-[N] |==|  0.37342
USER: genes 3 Torsion [C]-N--CA-[CB] |==|  0.57805
USER: genes 4 Torsion [N]-CA--CB-[CG] |==|  0.79202
USER: genes 5 Torsion [CA]-CB--CG-[CD] |==|  0.46024
USER: genes 6 Torsion [CB]-CG--CD-[CE] |==|  0.70885
USER: genes 7 Torsion [CG]-CD--CE-[NZ] |==|  0.18458
USER: genes 8 Torsion [CD]-CE--NZ-[HZ3] |==|  0.76162
USER: genes 9 Torsion [N]-CA--C-[N] |==|  0.77483
USER: genes 10 Torsion [C]-N--CA-[C] |==|  0.39331
USER: genes 11 Torsion [N]-CA--C-[N] |==|  0.26019
USER: genes 12 Torsion [C]-N--CA-[CB] |==|  0.80787
USER: genes 13 Torsion [N]-CA--CB-[CG] |==|  0.56267
USER: genes 14 Torsion [CA]-CB--CG-[CD] |==|  0.41746
USER: genes 15 Torsion [CB]-CG--CD-[OE2] |==|  0.44002
USER: genes 16 Torsion [N]-CA--C-[O] |==|  0.69418
USER: genes 17 Torsion [C]-CA--CB-[OG] |==|  0.53731
USER: genes 18 Torsion [CA]-CB--OG-[HG] |==|  0.72582
USER: genes 19 Torsion [C]-CA--N-[C] |==|  0.84365
USER: genes 20 Torsion [N]-C--CA-[N] |==|  0.33917
USER: genes 21 Torsion [C]-CA--N-[C] |==|  0.81444
USER: genes 22 Torsion [N]-C--CA-[N] |==|  0.46358
USER: genes 23 Torsion [C]-CA--CB-[CG] |==|  0.62140
USER: genes 24 Torsion [CA]-CB--CG-[CD1] |==|  0.31114
USER: genes 25 Torsion [C]-CA--CB-[CG] |==|  0.85518
USER: genes 26 Torsion [CA]-CB--CG-[CD] |==|  0.88911
USER: genes 27 Torsion [CB]-CG--CD-[NE] |==|  0.63678
USER: genes 28 Torsion [CG]-CD--NE-[HE] |==|  0.81059
ROOT
ATOM      1  CA  SER D 109     -13.180  -1.310   9.882  1.00 42.91 LIG 0.20  C 
ENDROOT
BRANCH 1 2
ATOM      2  C   SER D 109     -12.406  -0.766  11.067  1.00 45.81 LIG 0.24  C 
ATOM      3 O    SER D 109     -12.942  -0.668  12.170  1.00 48.15 LIG-0.27  OA
ATOM      4  N   LYS D 110     -11.151  -0.391  10.847  1.00 56.31 LIG-0.35  N 
ATOM      5 H    LYS D 110     -10.782  -0.329  10.072  1.00 56.31 LIG 0.16  HD
BRANCH 4 6
ATOM      6  CA  LYS D 110     -10.289  -0.047  11.983  1.00 51.35 LIG 0.18  C 
BRANCH 6 7
ATOM      7  CB  LYS D 110      -9.228   0.965  11.535  1.00 62.96 LIG 0.04  C 
BRANCH 7 8
ATOM      8  CG  LYS D 110      -8.133   0.318  10.700  1.00 63.09 LIG 0.00  C 
BRANCH 8 9
ATOM      9  CD  LYS D 110      -7.273   1.336   9.962  1.00 65.88 LIG 0.03  C 
BRANCH 9 10
ATOM     10  CE  LYS D 110      -7.635   1.360   8.474  1.00 57.43 LIG 0.23  C 
BRANCH 10 11
ATOM     11  NZ  LYS D 110      -9.011   1.872   8.237  1.00 66.24 LIG-0.08  N 
ATOM     12 HZ3  LYS D 110      -9.594   1.204   8.310  1.00 66.24 LIG 0.27  HD
ATOM     13 HZ1  LYS D 110      -9.202   2.500   8.838  1.00 66.24 LIG 0.27  HD
ATOM     14 HZ2  LYS D 110      -9.062   2.220   7.419  1.00 66.24 LIG 0.27  HD
ENDBRANCH 10 11
ENDBRANCH 9 10
ENDBRANCH 8 9
ENDBRANCH 7 8
ENDBRANCH 6 7
BRANCH 6 15
ATOM     15  C   LYS D 110     -10.897   0.336  13.358  1.00 56.31 LIG 0.24  C 
ATOM     16  N   GLY D 111     -11.347   1.575  13.572  1.00 59.27 LIG-0.35  N 
ATOM     17 H    GLY D 111     -11.619   1.832  14.345  1.00 59.27 LIG 0.16  HD
ATOM     18 O    LYS D 110     -10.980  -0.525  14.232  1.00 65.56 LIG-0.27  OA
BRANCH 16 19
ATOM     19  CA  GLY D 111     -11.438   2.621  12.573  1.00 50.66 LIG 0.23  C 
BRANCH 19 20
ATOM     20  C   GLY D 111     -12.713   3.423  12.797  1.00 62.91 LIG 0.23  C 
ATOM     21  N   GLU D 112     -12.648   4.532  13.541  1.00 61.49 LIG-0.35  N 
ATOM     22 H    GLU D 112     -13.322   5.056  13.646  1.00 61.49 LIG 0.16  HD
ATOM     23 O    GLY D 111     -13.780   3.010  12.315  1.00 69.91 LIG-0.27  OA
BRANCH 21 24
ATOM     24  CA  GLU D 112     -11.451   4.989  14.261  1.00 68.08 LIG 0.16  C 
BRANCH 24 25
ATOM     25  CB  GLU D 112     -11.126   4.057  15.430  1.00 70.52 LIG 0.04  C 
BRANCH 25 26
ATOM     26  CG  GLU D 112     -10.288   4.706  16.514  1.00 75.61 LIG 0.12  C 
BRANCH 26 27
ATOM     27  CD  GLU D 112     -10.558   4.122  17.884  1.00 80.23 LIG 0.17  C 
ATOM     28 OE2  GLU D 112      -9.685   4.256  18.771  1.00 75.53 LIG-0.65  OA
ATOM     29 OE1  GLU D 112     -11.645   3.540  18.071  1.00 82.12 LIG-0.65  OA
ENDBRANCH 26 27
ENDBRANCH 25 26
ENDBRANCH 24 25
BRANCH 24 30
ATOM     30  C   GLU D 112     -10.203   5.246  13.422  1.00 62.49 LIG 0.22  C 
ATOM     31 O    GLU D 112      -9.224   4.500  13.511  1.00 75.48 LIG-0.29  OA
ENDBRANCH 24 30
ENDBRANCH 21 24
ENDBRANCH 19 20
ENDBRANCH 16 19
ENDBRANCH 6 15
ENDBRANCH 4 6
ENDBRANCH 1 2
BRANCH 1 32
ATOM     32  CB  SER D 109     -14.114  -0.238   9.334  1.00 41.32 LIG 0.20  C 
BRANCH 32 33
ATOM     33 OG   SER D 109     -15.058  -0.801   8.439  1.00 47.11 LIG-0.40  OA
ATOM     34 HG   SER D 109     -14.801  -0.681   7.648  1.00 47.11 LIG 0.21  HD
ENDBRANCH 32 33
ENDBRANCH 1 32
BRANCH 1 35
ATOM     35  N   SER D 109     -13.914  -2.535  10.239  1.00 33.49 LIG-0.34  N 
ATOM     36 H    SER D 109     -14.761  -2.507  10.095  1.00 33.49 LIG 0.16  HD
ATOM     37  C   ARG D 108     -13.269  -3.585  10.746  1.00 29.49 LIG 0.24  C 
ATOM     38 O    ARG D 108     -12.039  -3.651  10.816  1.00 22.63 LIG-0.27  OA
BRANCH 37 39
ATOM     39  CA  ARG D 108     -14.121  -4.742  11.222  1.00 38.27 LIG 0.18  C 
BRANCH 39 40
ATOM     40  N   ARG D 108     -13.776  -5.994  10.537  1.00 22.07 LIG-0.35  N 
ATOM     41 H    ARG D 108     -13.423  -6.601  11.034  1.00 22.07 LIG 0.16  HD
ATOM     42  C   PHE D 107     -14.017  -6.116   9.244  1.00 20.48 LIG 0.26  C 
ATOM     43 O    PHE D 107     -14.582  -5.242   8.608  1.00 25.48 LIG-0.27  OA
BRANCH 42 44
ATOM     44  CA  PHE D 107     -13.596  -7.407   8.553  1.00 18.28 LIG 0.40  C 
ATOM     45  N   PHE D 107     -14.222  -7.454   7.248  1.00 19.80 LIG 0.61  N 
BRANCH 44 46
ATOM     46  CB  PHE D 107     -12.092  -7.498   8.407  1.00 13.52 LIG 0.09  C 
BRANCH 46 47
ATOM     47  CG  PHE D 107     -11.647  -7.982   7.060  1.00 17.60 LIG-0.06  A 
ATOM     48  CD1 PHE D 107     -10.979  -7.132   6.180  1.00 15.50 LIG 0.01  A 
ATOM     49  CE1 PHE D 107     -10.561  -7.593   4.938  1.00 13.30 LIG 0.00  A 
ATOM     50  CZ  PHE D 107     -10.843  -8.892   4.525  1.00 10.86 LIG 0.00  A 
ATOM     51  CE2 PHE D 107     -11.491  -9.748   5.385  1.00 17.40 LIG 0.00  A 
ATOM     52  CD2 PHE D 107     -11.899  -9.298   6.653  1.00 18.44 LIG 0.01  A 
ENDBRANCH 46 47
ENDBRANCH 44 46
ENDBRANCH 42 44
ENDBRANCH 39 40
BRANCH 39 53
ATOM     53  CB  ARG D 108     -14.028  -4.877  12.749  1.00 35.28 LIG 0.04  C 
BRANCH 53 54
ATOM     54  CG  ARG D 108     -12.629  -4.946  13.336  1.00 41.69 LIG 0.02  C 
BRANCH 54 55
ATOM     55  CD  ARG D 108     -11.642  -5.801  12.494  1.00 52.08 LIG 0.14  C 
BRANCH 55 56
ATOM     56  NE  ARG D 108     -10.877  -6.795  13.255  1.00 57.02 LIG-0.23  N 
ATOM     57  CZ  ARG D 108     -11.031  -8.120  13.142  1.00 70.73 LIG 0.67  C 
ATOM     58  NH1 ARG D 108     -11.947  -8.628  12.315  1.00 60.72 LIG-0.23  N 
ATOM     59  NH2 ARG D 108     -10.276  -8.946  13.869  1.00 54.42 LIG-0.23  N 
ATOM     60 2HH1 ARG D 108     -12.040  -9.481  12.249  1.00 60.72 LIG 0.17  HD
ATOM     61 1HH1 ARG D 108     -12.444  -8.103  11.850  1.00 60.72 LIG 0.17  HD
ATOM     62 2HH2 ARG D 108     -10.376  -9.796  13.795  1.00 54.42 LIG 0.17  HD
ATOM     63 1HH2 ARG D 108      -9.689  -8.627  14.410  1.00 54.42 LIG 0.17  HD
ATOM     64 HE   ARG D 108     -10.288  -6.507  13.812  1.00 57.02 LIG 0.18  HD
ENDBRANCH 55 56
ENDBRANCH 54 55
ENDBRANCH 53 54
ENDBRANCH 39 53
ENDBRANCH 37 39
ENDBRANCH 1 35
TORSDOF 27
ENDMDL
MODEL 6
USER: ADFR SOLUTION from run 133
USER: SCORE 18.980025 LL:  -4.806 LR: -15.775 RR:   0.000 FEB:  -7.721
USER: RMSD 8.988937
USER: SEED 132
USER: STATUS no improvement in best in 7 clusters for 5 generations
USER: GENES 29
USER: genes 0 Translation |==|  0.47036 0.63744 0.34746
USER: genes 1 Rotation |==|  0.74959 0.41156 0.07598 0.50946
USER: genes 2 Torsion [N]-CA--C-[N] |==|  0.50554
USER: genes 3 Torsion [C]-N--CA-[CB] |==|  0.23685
USER: genes 4 Torsion [N]-CA--CB-[CG] |==|  0.84088
USER: genes 5 Torsion [CA]-CB--CG-[CD] |==|  0.41077
USER: genes 6 Torsion [CB]-CG--CD-[CE] |==|  0.98223
USER: genes 7 Torsion [CG]-CD--CE-[NZ] |==|  0.80754
USER: genes 8 Torsion [CD]-CE--NZ-[HZ3] |==|  0.64625
USER: genes 9 Torsion [N]-CA--C-[N] |==|  0.05351
USER: genes 10 Torsion [C]-N--CA-[C] |==|  0.36545
USER: genes 11 Torsion [N]-CA--C-[N] |==|  0.58000
USER: genes 12 Torsion [C]-N--CA-[CB] |==|  0.28742
USER: genes 13 Torsion [N]-CA--CB-[CG] |==|  0.44189
USER: genes 14 Torsion [CA]-CB--CG-[CD] |==|  0.43611
USER: genes 15 Torsion [CB]-CG--CD-[OE2] |==|  0.90909
USER: genes 16 Torsion [N]-CA--C-[O] |==|  0.33554
USER: genes 17 Torsion [C]-CA--CB-[OG] |==|  0.36911
USER: genes 18 Torsion [CA]-CB--OG-[HG] |==|  0.59869
USER: genes 19 Torsion [C]-CA--N-[C] |==|  0.52222
USER: genes 20 Torsion [N]-C--CA-[N] |==|  0.03785
USER: genes 21 Torsion [C]-CA--N-[C] |==|  0.68740
USER: genes 22 Torsion [N]-C--CA-[N] |==|  0.96748
USER: genes 23 Torsion [C]-CA--CB-[CG] |==|  0.28370
USER: genes 24 Torsion [CA]-CB--CG-[CD1] |==|  0.55845
USER: genes 25 Torsion [C]-CA--CB-[CG] |==|  0.45068
USER: genes 26 Torsion [CA]-CB--CG-[CD] |==|  0.92781
USER: genes 27 Torsion [CB]-CG--CD-[NE] |==|  0.47103
USER: genes 28 Torsion [CG]-CD--NE-[HE] |==|  0.72922
ROOT
ATOM      1  CA  SER D 109     -12.383  -0.595  10.529  1.00 42.91 LIG 0.20  C 
ENDROOT
BRANCH 1 2
ATOM      2  C   SER D 109     -11.363   0.078  11.428  1.00 45.81 LIG 0.24  C 
ATOM      3 O    SER D 109     -10.780  -0.565  12.299  1.00 48.15 LIG-0.27  OA
ATOM      4  N   LYS D 110     -11.154   1.376  11.237  1.00 56.31 LIG-0.35  N 
ATOM      5 H    LYS D 110     -11.625   1.882  10.726  1.00 56.31 LIG 0.16  HD
BRANCH 4 6
ATOM      6  CA  LYS D 110     -10.044   2.039  11.930  1.00 51.35 LIG 0.18  C 
BRANCH 6 7
ATOM      7  CB  LYS D 110      -8.755   1.866  11.119  1.00 62.96 LIG 0.04  C 
BRANCH 7 8
ATOM      8  CG  LYS D 110      -8.421   0.401  10.877  1.00 63.09 LIG 0.00  C 
BRANCH 8 9
ATOM      9  CD  LYS D 110      -7.714   0.168   9.548  1.00 65.88 LIG 0.03  C 
BRANCH 9 10
ATOM     10  CE  LYS D 110      -7.669   1.464   8.734  1.00 57.43 LIG 0.23  C 
BRANCH 10 11
ATOM     11  NZ  LYS D 110      -9.013   1.871   8.246  1.00 66.24 LIG-0.08  N 
ATOM     12 HZ3  LYS D 110      -8.981   2.008   7.367  1.00 66.24 LIG 0.27  HD
ATOM     13 HZ1  LYS D 110      -9.601   1.227   8.424  1.00 66.24 LIG 0.27  HD
ATOM     14 HZ2  LYS D 110      -9.263   2.622   8.653  1.00 66.24 LIG 0.27  HD
ENDBRANCH 10 11
ENDBRANCH 9 10
ENDBRANCH 8 9
ENDBRANCH 7 8
ENDBRANCH 6 7
BRANCH 6 15
ATOM     15  C   LYS D 110     -10.191   3.489  12.463  1.00 56.31 LIG 0.24  C 
ATOM     16  N   GLY D 111     -11.403   4.017  12.651  1.00 59.27 LIG-0.35  N 
ATOM     17 H    GLY D 111     -11.511   4.840  12.874  1.00 59.27 LIG 0.16  HD
ATOM     18 O    LYS D 110      -9.175   4.128  12.732  1.00 65.56 LIG-0.27  OA
BRANCH 16 19
ATOM     19  CA  GLY D 111     -12.659   3.309  12.512  1.00 50.66 LIG 0.23  C 
BRANCH 19 20
ATOM     20  C   GLY D 111     -13.530   3.580  13.731  1.00 62.91 LIG 0.23  C 
ATOM     21  N   GLU D 112     -14.410   2.647  14.109  1.00 61.49 LIG-0.35  N 
ATOM     22 H    GLU D 112     -14.880   2.721  14.826  1.00 61.49 LIG 0.16  HD
ATOM     23 O    GLY D 111     -13.427   4.670  14.318  1.00 69.91 LIG-0.27  OA
BRANCH 21 24
ATOM     24  CA  GLU D 112     -14.685   1.408  13.371  1.00 68.08 LIG 0.16  C 
BRANCH 24 25
ATOM     25  CB  GLU D 112     -14.014   0.208  14.045  1.00 70.52 LIG 0.04  C 
BRANCH 25 26
ATOM     26  CG  GLU D 112     -14.629  -1.125  13.672  1.00 75.61 LIG 0.12  C 
BRANCH 26 27
ATOM     27  CD  GLU D 112     -13.673  -2.282  13.867  1.00 80.23 LIG 0.17  C 
ATOM     28 OE2  GLU D 112     -12.451  -2.083  13.683  1.00 75.53 LIG-0.65  OA
ATOM     29 OE1  GLU D 112     -14.145  -3.383  14.213  1.00 82.12 LIG-0.65  OA
ENDBRANCH 26 27
ENDBRANCH 25 26
ENDBRANCH 24 25
BRANCH 24 30
ATOM     30  C   GLU D 112     -16.148   1.098  13.068  1.00 62.49 LIG 0.22  C 
ATOM     31 O    GLU D 112     -16.533   0.967  11.903  1.00 75.48 LIG-0.29  OA
ENDBRANCH 24 30
ENDBRANCH 21 24
ENDBRANCH 19 20
ENDBRANCH 16 19
ENDBRANCH 6 15
ENDBRANCH 4 6
ENDBRANCH 1 2
BRANCH 1 32
ATOM     32  CB  SER D 109     -13.707   0.156  10.593  1.00 41.32 LIG 0.20  C 
BRANCH 32 33
ATOM     33 OG   SER D 109     -14.223   0.379   9.291  1.00 47.11 LIG-0.40  OA
ATOM     34 HG   SER D 109     -14.609   1.124   9.266  1.00 47.11 LIG 0.21  HD
ENDBRANCH 32 33
ENDBRANCH 1 32
BRANCH 1 35
ATOM     35  N   SER D 109     -12.549  -2.015  10.879  1.00 33.49 LIG-0.34  N 
ATOM     36 H    SER D 109     -12.146  -2.262  11.597  1.00 33.49 LIG 0.16  HD
ATOM     37  C   ARG D 108     -13.280  -2.819  10.108  1.00 29.49 LIG 0.24  C 
ATOM     38 O    ARG D 108     -13.959  -2.412   9.161  1.00 22.63 LIG-0.27  OA
BRANCH 37 39
ATOM     39  CA  ARG D 108     -13.273  -4.291  10.461  1.00 38.27 LIG 0.18  C 
BRANCH 39 40
ATOM     40  N   ARG D 108     -12.707  -4.531  11.794  1.00 22.07 LIG-0.35  N 
ATOM     41 H    ARG D 108     -13.174  -4.232  12.452  1.00 22.07 LIG 0.16  HD
ATOM     42  C   PHE D 107     -11.556  -5.168  11.908  1.00 20.48 LIG 0.26  C 
ATOM     43 O    PHE D 107     -10.975  -5.626  10.938  1.00 25.48 LIG-0.27  OA
BRANCH 42 44
ATOM     44  CA  PHE D 107     -10.969  -5.352  13.302  1.00 18.28 LIG 0.40  C 
ATOM     45  N   PHE D 107     -11.708  -4.518  14.226  1.00 19.80 LIG 0.61  N 
BRANCH 44 46
ATOM     46  CB  PHE D 107     -11.034  -6.798  13.748  1.00 13.52 LIG 0.09  C 
BRANCH 46 47
ATOM     47  CG  PHE D 107      -9.725  -7.520  13.637  1.00 17.60 LIG-0.06  A 
ATOM     48  CD1 PHE D 107      -9.679  -8.913  13.578  1.00 15.50 LIG 0.01  A 
ATOM     49  CE1 PHE D 107      -8.462  -9.572  13.464  1.00 13.30 LIG 0.00  A 
ATOM     50  CZ  PHE D 107      -7.263  -8.865  13.457  1.00 10.86 LIG 0.00  A 
ATOM     51  CE2 PHE D 107      -7.290  -7.490  13.502  1.00 17.40 LIG 0.00  A 
ATOM     52  CD2 PHE D 107      -8.519  -6.812  13.596  1.00 18.44 LIG 0.01  A 
ENDBRANCH 46 47
ENDBRANCH 44 46
ENDBRANCH 42 44
ENDBRANCH 39 40
BRANCH 39 53
ATOM     53  CB  ARG D 108     -14.686  -4.877  10.322  1.00 35.28 LIG 0.04  C 
BRANCH 53 54
ATOM     54  CG  ARG D 108     -14.783  -6.389  10.230  1.00 41.69 LIG 0.02  C 
BRANCH 54 55
ATOM     55  CD  ARG D 108     -13.503  -7.063   9.662  1.00 52.08 LIG 0.14  C 
BRANCH 55 56
ATOM     56  NE  ARG D 108     -13.465  -8.524   9.781  1.00 57.02 LIG-0.23  N 
ATOM     57  CZ  ARG D 108     -14.057  -9.370   8.928  1.00 70.73 LIG 0.67  C 
ATOM     58  NH1 ARG D 108     -14.765  -8.908   7.896  1.00 60.72 LIG-0.23  N 
ATOM     59  NH2 ARG D 108     -13.953 -10.687   9.113  1.00 54.42 LIG-0.23  N 
ATOM     60 2HH1 ARG D 108     -15.143  -9.458   7.353  1.00 60.72 LIG 0.17  HD
ATOM     61 1HH1 ARG D 108     -14.844  -8.060   7.774  1.00 60.72 LIG 0.17  HD
ATOM     62 2HH2 ARG D 108     -14.334 -11.229   8.565  1.00 54.42 LIG 0.17  HD
ATOM     63 1HH2 ARG D 108     -13.506 -10.994   9.781  1.00 54.42 LIG 0.17  HD
ATOM     64 HE   ARG D 108     -13.033  -8.861  10.444  1.00 57.02 LIG 0.18  HD
ENDBRANCH 55 56
ENDBRANCH 54 55
ENDBRANCH 53 54
ENDBRANCH 39 53
ENDBRANCH 37 39
ENDBRANCH 1 35
TORSDOF 27
ENDMDL
MODEL 7
USER: ADFR SOLUTION from run 196
USER: SCORE 18.071449 LL:  -4.580 LR: -15.751 RR:   0.000 FEB:  -7.697
USER: RMSD 9.192041
USER: SEED 195
USER: STATUS searching
USER: GENES 29
USER: genes 0 Translation |==|  0.46628 0.55730 0.42299
USER: genes 1 Rotation |==|  0.35813 0.56942 0.02956 0.56118
USER: genes 2 Torsion [N]-CA--C-[N] |==|  0.67476
USER: genes 3 Torsion [C]-N--CA-[CB] |==|  0.76893
USER: genes 4 Torsion [N]-CA--CB-[CG] |==|  0.63142
USER: genes 5 Torsion [CA]-CB--CG-[CD] |==|  0.71796
USER: genes 6 Torsion [CB]-CG--CD-[CE] |==|  0.91935
USER: genes 7 Torsion [CG]-CD--CE-[NZ] |==|  0.28621
USER: genes 8 Torsion [CD]-CE--NZ-[HZ3] |==|  0.75321
USER: genes 9 Torsion [N]-CA--C-[N] |==|  0.24197
USER: genes 10 Torsion [C]-N--CA-[C] |==|  0.44140
USER: genes 11 Torsion [N]-CA--C-[N] |==|  0.25328
USER: genes 12 Torsion [C]-N--CA-[CB] |==|  0.23996
USER: genes 13 Torsion [N]-CA--CB-[CG] |==|  0.59487
USER: genes 14 Torsion [CA]-CB--CG-[CD] |==|  0.18771
USER: genes 15 Torsion [CB]-CG--CD-[OE2] |==|  0.16703
USER: genes 16 Torsion [N]-CA--C-[O] |==|  0.24018
USER: genes 17 Torsion [C]-CA--CB-[OG] |==|  0.65910
USER: genes 18 Torsion [CA]-CB--OG-[HG] |==|  0.29821
USER: genes 19 Torsion [C]-CA--N-[C] |==|  0.68770
USER: genes 20 Torsion [N]-C--CA-[N] |==|  0.15174
USER: genes 21 Torsion [C]-CA--N-[C] |==|  0.78255
USER: genes 22 Torsion [N]-C--CA-[N] |==|  0.10444
USER: genes 23 Torsion [C]-CA--CB-[CG] |==|  0.30841
USER: genes 24 Torsion [CA]-CB--CG-[CD1] |==|  0.01601
USER: genes 25 Torsion [C]-CA--CB-[CG] |==|  0.28933
USER: genes 26 Torsion [CA]-CB--CG-[CD] |==|  0.71808
USER: genes 27 Torsion [CB]-CG--CD-[NE] |==|  0.12909
USER: genes 28 Torsion [CG]-CD--NE-[HE] |==|  0.86477
ROOT
ATOM      1  CA  SER D 109     -12.475  -2.218  12.342  1.00 42.91 LIG 0.20  C 
ENDROOT
BRANCH 1 2
ATOM      2  C   SER D 109     -11.575  -1.271  11.572  1.00 45.81 LIG 0.24  C 
ATOM      3 O    SER D 109     -11.755  -1.078  10.370  1.00 48.15 LIG-0.27  OA
ATOM      4  N   LYS D 110     -10.591  -0.689  12.248  1.00 56.31 LIG-0.35  N 
ATOM      5 H    LYS D 110     -10.358  -0.890  13.052  1.00 56.31 LIG 0.16  HD
BRANCH 4 6
ATOM      6  CA  LYS D 110      -9.814   0.383  11.618  1.00 51.35 LIG 0.18  C 
BRANCH 6 7
ATOM      7  CB  LYS D 110      -8.711  -0.227  10.744  1.00 62.96 LIG 0.04  C 
BRANCH 7 8
ATOM      8  CG  LYS D 110      -7.360   0.430  10.985  1.00 63.09 LIG 0.00  C 
BRANCH 8 9
ATOM      9  CD  LYS D 110      -6.989   1.436   9.902  1.00 65.88 LIG 0.03  C 
BRANCH 9 10
ATOM     10  CE  LYS D 110      -7.631   1.041   8.568  1.00 57.43 LIG 0.23  C 
BRANCH 10 11
ATOM     11  NZ  LYS D 110      -8.822   1.872   8.248  1.00 66.24 LIG-0.08  N 
ATOM     12 HZ3  LYS D 110      -9.550   1.497   8.597  1.00 66.24 LIG 0.27  HD
ATOM     13 HZ1  LYS D 110      -8.716   2.687   8.589  1.00 66.24 LIG 0.27  HD
ATOM     14 HZ2  LYS D 110      -8.915   1.931   7.364  1.00 66.24 LIG 0.27  HD
ENDBRANCH 10 11
ENDBRANCH 9 10
ENDBRANCH 8 9
ENDBRANCH 7 8
ENDBRANCH 6 7
BRANCH 6 15
ATOM     15  C   LYS D 110     -10.520   1.564  10.901  1.00 56.31 LIG 0.24  C 
ATOM     16  N   GLY D 111     -10.892   2.644  11.591  1.00 59.27 LIG-0.35  N 
ATOM     17 H    GLY D 111     -11.349   3.278  11.234  1.00 59.27 LIG 0.16  HD
ATOM     18 O    LYS D 110     -10.704   1.497   9.687  1.00 65.56 LIG-0.27  OA
BRANCH 16 19
ATOM     19  CA  GLY D 111     -10.592   2.895  12.987  1.00 50.66 LIG 0.23  C 
BRANCH 19 20
ATOM     20  C   GLY D 111     -10.706   4.387  13.268  1.00 62.91 LIG 0.23  C 
ATOM     21  N   GLU D 112     -11.883   4.872  13.678  1.00 61.49 LIG-0.35  N 
ATOM     22 H    GLU D 112     -11.986   5.693  13.912  1.00 61.49 LIG 0.16  HD
ATOM     23 O    GLY D 111      -9.720   5.117  13.075  1.00 69.91 LIG-0.27  OA
BRANCH 21 24
ATOM     24  CA  GLU D 112     -13.122   4.089  13.780  1.00 68.08 LIG 0.16  C 
BRANCH 24 25
ATOM     25  CB  GLU D 112     -13.213   3.381  15.134  1.00 70.52 LIG 0.04  C 
BRANCH 25 26
ATOM     26  CG  GLU D 112     -13.893   2.028  15.070  1.00 75.61 LIG 0.12  C 
BRANCH 26 27
ATOM     27  CD  GLU D 112     -13.083   1.006  14.303  1.00 80.23 LIG 0.17  C 
ATOM     28 OE2  GLU D 112     -11.937   0.720  14.716  1.00 75.53 LIG-0.65  OA
ATOM     29 OE1  GLU D 112     -13.599   0.485  13.293  1.00 82.12 LIG-0.65  OA
ENDBRANCH 26 27
ENDBRANCH 25 26
ENDBRANCH 24 25
BRANCH 24 30
ATOM     30  C   GLU D 112     -14.424   4.823  13.475  1.00 62.49 LIG 0.22  C 
ATOM     31 O    GLU D 112     -14.839   4.908  12.315  1.00 75.48 LIG-0.29  OA
ENDBRANCH 24 30
ENDBRANCH 21 24
ENDBRANCH 19 20
ENDBRANCH 16 19
ENDBRANCH 6 15
ENDBRANCH 4 6
ENDBRANCH 1 2
BRANCH 1 32
ATOM     32  CB  SER D 109     -12.138  -2.162  13.827  1.00 41.32 LIG 0.20  C 
BRANCH 32 33
ATOM     33 OG   SER D 109     -11.793  -3.448  14.314  1.00 47.11 LIG-0.40  OA
ATOM     34 HG   SER D 109     -10.966  -3.481  14.456  1.00 47.11 LIG 0.21  HD
ENDBRANCH 32 33
ENDBRANCH 1 32
BRANCH 1 35
ATOM     35  N   SER D 109     -12.381  -3.590  11.817  1.00 33.49 LIG-0.34  N 
ATOM     36 H    SER D 109     -11.624  -3.976  11.942  1.00 33.49 LIG 0.16  HD
ATOM     37  C   ARG D 108     -13.422  -4.149  11.200  1.00 29.49 LIG 0.24  C 
ATOM     38 O    ARG D 108     -14.538  -3.627  11.154  1.00 22.63 LIG-0.27  OA
BRANCH 37 39
ATOM     39  CA  ARG D 108     -13.188  -5.502  10.563  1.00 38.27 LIG 0.18  C 
BRANCH 39 40
ATOM     40  N   ARG D 108     -12.647  -6.473  11.524  1.00 22.07 LIG-0.35  N 
ATOM     41 H    ARG D 108     -13.216  -7.037  11.838  1.00 22.07 LIG 0.16  HD
ATOM     42  C   PHE D 107     -11.366  -6.430  11.842  1.00 20.48 LIG 0.26  C 
ATOM     43 O    PHE D 107     -10.596  -5.647  11.310  1.00 25.48 LIG-0.27  OA
BRANCH 42 44
ATOM     44  CA  PHE D 107     -10.849  -7.416  12.882  1.00 18.28 LIG 0.40  C 
ATOM     45  N   PHE D 107     -11.524  -8.683  12.690  1.00 19.80 LIG 0.61  N 
BRANCH 44 46
ATOM     46  CB  PHE D 107      -9.351  -7.607  12.773  1.00 13.52 LIG 0.09  C 
BRANCH 46 47
ATOM     47  CG  PHE D 107      -8.587  -7.036  13.930  1.00 17.60 LIG-0.06  A 
ATOM     48  CD1 PHE D 107      -9.252  -6.506  15.034  1.00 15.50 LIG 0.01  A 
ATOM     49  CE1 PHE D 107      -8.535  -5.989  16.106  1.00 13.30 LIG 0.00  A 
ATOM     50  CZ  PHE D 107      -7.144  -5.941  16.080  1.00 10.86 LIG 0.00  A 
ATOM     51  CE2 PHE D 107      -6.471  -6.470  15.003  1.00 17.40 LIG 0.00  A 
ATOM     52  CD2 PHE D 107      -7.187  -7.016  13.922  1.00 18.44 LIG 0.01  A 
ENDBRANCH 46 47
ENDBRANCH 44 46
ENDBRANCH 42 44
ENDBRANCH 39 40
BRANCH 39 53
ATOM     53  CB  ARG D 108     -14.477  -6.007   9.900  1.00 35.28 LIG 0.04  C 
BRANCH 53 54
ATOM     54  CG  ARG D 108     -14.538  -5.914   8.386  1.00 41.69 LIG 0.02  C 
BRANCH 54 55
ATOM     55  CD  ARG D 108     -15.373  -4.712   7.867  1.00 52.08 LIG 0.14  C 
BRANCH 55 56
ATOM     56  NE  ARG D 108     -15.094  -3.431   8.523  1.00 57.02 LIG-0.23  N 
ATOM     57  CZ  ARG D 108     -14.862  -2.282   7.877  1.00 70.73 LIG 0.67  C 
ATOM     58  NH1 ARG D 108     -14.847  -2.244   6.543  1.00 60.72 LIG-0.23  N 
ATOM     59  NH2 ARG D 108     -14.630  -1.162   8.565  1.00 54.42 LIG-0.23  N 
ATOM     60 2HH1 ARG D 108     -14.697  -1.502   6.135  1.00 60.72 LIG 0.17  HD
ATOM     61 1HH1 ARG D 108     -14.986  -2.963   6.092  1.00 60.72 LIG 0.17  HD
ATOM     62 2HH2 ARG D 108     -14.481  -0.425   8.148  1.00 54.42 LIG 0.17  HD
ATOM     63 1HH2 ARG D 108     -14.629  -1.178   9.425  1.00 54.42 LIG 0.17  HD
ATOM     64 HE   ARG D 108     -15.077  -3.416   9.383  1.00 57.02 LIG 0.18  HD
ENDBRANCH 55 56
ENDBRANCH 54 55
ENDBRANCH 53 54
ENDBRANCH 39 53
ENDBRANCH 37 39
ENDBRANCH 1 35
TORSDOF 27
ENDMDL
MODEL 8
USER: ADFR SOLUTION from run 196
USER: SCORE 17.519241 LL:  -3.911 LR: -15.735 RR:   0.000 FEB:  -7.681
USER: RMSD 9.473804
USER: SEED 195
USER: STATUS searching
USER: GENES 29
USER: genes 0 Translation |==|  0.46676 0.55340 0.42070
USER: genes 1 Rotation |==|  0.36902 0.55696 0.02635 0.57248
USER: genes 2 Torsion [N]-CA--C-[N] |==|  0.68727
USER: genes 3 Torsion [C]-N--CA-[CB] |==|  0.77118
USER: genes 4 Torsion [N]-CA--CB-[CG] |==|  0.62924
USER: genes 5 Torsion [CA]-CB--CG-[CD] |==|  0.71735
USER: genes 6 Torsion [CB]-CG--CD-[CE] |==|  0.91889
USER: genes 7 Torsion [CG]-CD--CE-[NZ] |==|  0.28546
USER: genes 8 Torsion [CD]-CE--NZ-[HZ3] |==|  0.76433
USER: genes 9 Torsion [N]-CA--C-[N] |==|  0.24292
USER: genes 10 Torsion [C]-N--CA-[C] |==|  0.43493
USER: genes 11 Torsion [N]-CA--C-[N] |==|  0.23075
USER: genes 12 Torsion [C]-N--CA-[CB] |==|  0.23971
USER: genes 13 Torsion [N]-CA--CB-[CG] |==|  0.60224
USER: genes 14 Torsion [CA]-CB--CG-[CD] |==|  0.18697
USER: genes 15 Torsion [CB]-CG--CD-[OE2] |==|  0.16760
USER: genes 16 Torsion [N]-CA--C-[O] |==|  0.40099
USER: genes 17 Torsion [C]-CA--CB-[OG] |==|  0.66063
USER: genes 18 Torsion [CA]-CB--OG-[HG] |==|  0.28841
USER: genes 19 Torsion [C]-CA--N-[C] |==|  0.67024
USER: genes 20 Torsion [N]-C--CA-[N] |==|  0.18162
USER: genes 21 Torsion [C]-CA--N-[C] |==|  0.76772
USER: genes 22 Torsion [N]-C--CA-[N] |==|  0.08542
USER: genes 23 Torsion [C]-CA--CB-[CG] |==|  0.28398
USER: genes 24 Torsion [CA]-CB--CG-[CD1] |==|  0.04013
USER: genes 25 Torsion [C]-CA--CB-[CG] |==|  0.31085
USER: genes 26 Torsion [CA]-CB--CG-[CD] |==|  0.29587
USER: genes 27 Torsion [CB]-CG--CD-[NE] |==|  0.97852
USER: genes 28 Torsion [CG]-CD--NE-[HE] |==|  0.83681
ROOT
ATOM      1  CA  SER D 109     -12.464  -2.297  12.287  1.00 42.91 LIG 0.20  C 
ENDROOT
BRANCH 1 2
ATOM      2  C   SER D 109     -11.567  -1.329  11.539  1.00 45.81 LIG 0.24  C 
ATOM      3 O    SER D 109     -11.741  -1.119  10.339  1.00 48.15 LIG-0.27  OA
ATOM      4  N   LYS D 110     -10.594  -0.749  12.232  1.00 56.31 LIG-0.35  N 
ATOM      5 H    LYS D 110     -10.365  -0.960  13.034  1.00 56.31 LIG 0.16  HD
BRANCH 4 6
ATOM      6  CA  LYS D 110      -9.823   0.341  11.624  1.00 51.35 LIG 0.18  C 
BRANCH 6 7
ATOM      7  CB  LYS D 110      -8.721  -0.244  10.734  1.00 62.96 LIG 0.04  C 
BRANCH 7 8
ATOM      8  CG  LYS D 110      -7.375   0.425  10.972  1.00 63.09 LIG 0.00  C 
BRANCH 8 9
ATOM      9  CD  LYS D 110      -7.023   1.446   9.897  1.00 65.88 LIG 0.03  C 
BRANCH 9 10
ATOM     10  CE  LYS D 110      -7.666   1.056   8.563  1.00 57.43 LIG 0.23  C 
BRANCH 10 11
ATOM     11  NZ  LYS D 110      -8.873   1.870   8.259  1.00 66.24 LIG-0.08  N 
ATOM     12 HZ3  LYS D 110      -9.583   1.509   8.657  1.00 66.24 LIG 0.27  HD
ATOM     13 HZ1  LYS D 110      -8.755   2.699   8.558  1.00 66.24 LIG 0.27  HD
ATOM     14 HZ2  LYS D 110      -9.006   1.889   7.379  1.00 66.24 LIG 0.27  HD
ENDBRANCH 10 11
ENDBRANCH 9 10
ENDBRANCH 8 9
ENDBRANCH 7 8
ENDBRANCH 6 7
BRANCH 6 15
ATOM     15  C   LYS D 110     -10.536   1.536  10.937  1.00 56.31 LIG 0.24  C 
ATOM     16  N   GLY D 111     -10.904   2.601  11.653  1.00 59.27 LIG-0.35  N 
ATOM     17 H    GLY D 111     -11.364   3.242  11.312  1.00 59.27 LIG 0.16  HD
ATOM     18 O    LYS D 110     -10.730   1.494   9.724  1.00 65.56 LIG-0.27  OA
BRANCH 16 19
ATOM     19  CA  GLY D 111     -10.593   2.823  13.051  1.00 50.66 LIG 0.23  C 
BRANCH 19 20
ATOM     20  C   GLY D 111     -10.650   4.315  13.351  1.00 62.91 LIG 0.23  C 
ATOM     21  N   GLU D 112     -11.839   4.870  13.608  1.00 61.49 LIG-0.35  N 
ATOM     22 H    GLU D 112     -11.921   5.693  13.846  1.00 61.49 LIG 0.16  HD
ATOM     23 O    GLY D 111      -9.603   4.981  13.313  1.00 69.91 LIG-0.27  OA
BRANCH 21 24
ATOM     24  CA  GLU D 112     -13.127   4.170  13.520  1.00 68.08 LIG 0.16  C 
BRANCH 24 25
ATOM     25  CB  GLU D 112     -13.448   3.446  14.831  1.00 70.52 LIG 0.04  C 
BRANCH 25 26
ATOM     26  CG  GLU D 112     -14.141   2.112  14.638  1.00 75.61 LIG 0.12  C 
BRANCH 26 27
ATOM     27  CD  GLU D 112     -13.245   1.081  13.984  1.00 80.23 LIG 0.17  C 
ATOM     28 OE2  GLU D 112     -12.186   0.758  14.565  1.00 75.53 LIG-0.65  OA
ATOM     29 OE1  GLU D 112     -13.610   0.593  12.896  1.00 82.12 LIG-0.65  OA
ENDBRANCH 26 27
ENDBRANCH 25 26
ENDBRANCH 24 25
BRANCH 24 30
ATOM     30  C   GLU D 112     -14.327   4.993  13.061  1.00 62.49 LIG 0.22  C 
ATOM     31 O    GLU D 112     -15.203   4.484  12.356  1.00 75.48 LIG-0.29  OA
ENDBRANCH 24 30
ENDBRANCH 21 24
ENDBRANCH 19 20
ENDBRANCH 16 19
ENDBRANCH 6 15
ENDBRANCH 4 6
ENDBRANCH 1 2
BRANCH 1 32
ATOM     32  CB  SER D 109     -12.217  -2.181  13.786  1.00 41.32 LIG 0.20  C 
BRANCH 32 33
ATOM     33 OG   SER D 109     -11.827  -3.431  14.330  1.00 47.11 LIG-0.40  OA
ATOM     34 HG   SER D 109     -10.999  -3.428  14.474  1.00 47.11 LIG 0.21  HD
ENDBRANCH 32 33
ENDBRANCH 1 32
BRANCH 1 35
ATOM     35  N   SER D 109     -12.274  -3.677  11.812  1.00 33.49 LIG-0.34  N 
ATOM     36 H    SER D 109     -11.481  -3.992  11.916  1.00 33.49 LIG 0.16  HD
ATOM     37  C   ARG D 108     -13.288  -4.349  11.268  1.00 29.49 LIG 0.24  C 
ATOM     38 O    ARG D 108     -14.447  -3.926  11.254  1.00 22.63 LIG-0.27  OA
BRANCH 37 39
ATOM     39  CA  ARG D 108     -12.965  -5.703  10.674  1.00 38.27 LIG 0.18  C 
BRANCH 39 40
ATOM     40  N   ARG D 108     -12.537  -6.662  11.700  1.00 22.07 LIG-0.35  N 
ATOM     41 H    ARG D 108     -13.153  -7.183  11.998  1.00 22.07 LIG 0.16  HD
ATOM     42  C   PHE D 107     -11.277  -6.674  12.095  1.00 20.48 LIG 0.26  C 
ATOM     43 O    PHE D 107     -10.435  -5.954  11.584  1.00 25.48 LIG-0.27  OA
BRANCH 42 44
ATOM     44  CA  PHE D 107     -10.877  -7.644  13.200  1.00 18.28 LIG 0.40  C 
ATOM     45  N   PHE D 107     -11.722  -8.817  13.109  1.00 19.80 LIG 0.61  N 
BRANCH 44 46
ATOM     46  CB  PHE D 107      -9.422  -8.047  13.089  1.00 13.52 LIG 0.09  C 
BRANCH 46 47
ATOM     47  CG  PHE D 107      -8.528  -7.341  14.064  1.00 17.60 LIG-0.06  A 
ATOM     48  CD1 PHE D 107      -9.061  -6.647  15.150  1.00 15.50 LIG 0.01  A 
ATOM     49  CE1 PHE D 107      -8.223  -6.006  16.054  1.00 13.30 LIG 0.00  A 
ATOM     50  CZ  PHE D 107      -6.844  -5.997  15.869  1.00 10.86 LIG 0.00  A 
ATOM     51  CE2 PHE D 107      -6.300  -6.686  14.810  1.00 17.40 LIG 0.00  A 
ATOM     52  CD2 PHE D 107      -7.138  -7.358  13.901  1.00 18.44 LIG 0.01  A 
ENDBRANCH 46 47
ENDBRANCH 44 46
ENDBRANCH 42 44
ENDBRANCH 39 40
BRANCH 39 53
ATOM     53  CB  ARG D 108     -14.159  -6.225   9.862  1.00 35.28 LIG 0.04  C 
BRANCH 53 54
ATOM     54  CG  ARG D 108     -13.966  -6.312   8.358  1.00 41.69 LIG 0.02  C 
BRANCH 54 55
ATOM     55  CD  ARG D 108     -13.797  -7.766   7.834  1.00 52.08 LIG 0.14  C 
BRANCH 55 56
ATOM     56  NE  ARG D 108     -13.674  -8.791   8.875  1.00 57.02 LIG-0.23  N 
ATOM     57  CZ  ARG D 108     -14.500  -9.835   9.014  1.00 70.73 LIG 0.67  C 
ATOM     58  NH1 ARG D 108     -15.542  -9.989   8.194  1.00 60.72 LIG-0.23  N 
ATOM     59  NH2 ARG D 108     -14.296 -10.725   9.987  1.00 54.42 LIG-0.23  N 
ATOM     60 2HH1 ARG D 108     -16.068 -10.662   8.290  1.00 60.72 LIG 0.17  HD
ATOM     61 1HH1 ARG D 108     -15.686  -9.416   7.569  1.00 60.72 LIG 0.17  HD
ATOM     62 2HH2 ARG D 108     -14.828 -11.394  10.075  1.00 54.42 LIG 0.17  HD
ATOM     63 1HH2 ARG D 108     -13.633 -10.628  10.526  1.00 54.42 LIG 0.17  HD
ATOM     64 HE   ARG D 108     -13.025  -8.717   9.435  1.00 57.02 LIG 0.18  HD
ENDBRANCH 55 56
ENDBRANCH 54 55
ENDBRANCH 53 54
ENDBRANCH 39 53
ENDBRANCH 37 39
ENDBRANCH 1 35
TORSDOF 27
ENDMDL
MODEL 9
USER: ADFR SOLUTION from run 90
USER: SCORE 19.862329 LL:  -5.125 LR: -15.714 RR:   0.000 FEB:  -7.660
USER: RMSD 4.748460
USER: SEED 89
USER: STATUS no improvement in best in 4 clusters for 5 generations
USER: GENES 29
USER: genes 0 Translation |==|  0.38473 0.52925 0.34009
USER: genes 1 Rotation |==|  0.59830 0.98393 0.55085 0.55966
USER: genes 2 Torsion [N]-CA--C-[N] |==|  0.40850
USER: genes 3 Torsion [C]-N--CA-[CB] |==|  0.65547
USER: genes 4 Torsion [N]-CA--CB-[CG] |==|  0.07928
USER: genes 5 Torsion [CA]-CB--CG-[CD] |==|  0.44811
USER: genes 6 Torsion [CB]-CG--CD-[CE] |==|  0.22735
USER: genes 7 Torsion [CG]-CD--CE-[NZ] |==|  0.62456
USER: genes 8 Torsion [CD]-CE--NZ-[HZ3] |==|  0.20210
USER: genes 9 Torsion [N]-CA--C-[N] |==|  0.18535
USER: genes 10 Torsion [C]-N--CA-[C] |==|  0.68241
USER: genes 11 Torsion [N]-CA--C-[N] |==|  0.47362
USER: genes 12 Torsion [C]-N--CA-[CB] |==|  0.42382
USER: genes 13 Torsion [N]-CA--CB-[CG] |==|  0.29144
USER: genes 14 Torsion [CA]-CB--CG-[CD] |==|  0.72667
USER: genes 15 Torsion [CB]-CG--CD-[OE2] |==|  0.46243
USER: genes 16 Torsion [N]-CA--C-[O] |==|  0.13891
USER: genes 17 Torsion [C]-CA--CB-[OG] |==|  0.69977
USER: genes 18 Torsion [CA]-CB--OG-[HG] |==|  0.47742
USER: genes 19 Torsion [C]-CA--N-[C] |==|  0.68988
USER: genes 20 Torsion [N]-C--CA-[N] |==|  0.01929
USER: genes 21 Torsion [C]-CA--N-[C] |==|  0.69859
USER: genes 22 Torsion [N]-C--CA-[N] |==|  0.29853
USER: genes 23 Torsion [C]-CA--CB-[CG] |==|  0.53954
USER: genes 24 Torsion [CA]-CB--CG-[CD1] |==|  0.86148
USER: genes 25 Torsion [C]-CA--CB-[CG] |==|  0.96401
USER: genes 26 Torsion [CA]-CB--CG-[CD] |==|  0.68359
USER: genes 27 Torsion [CB]-CG--CD-[NE] |==|  0.33972
USER: genes 28 Torsion [CG]-CD--NE-[HE] |==|  0.31572
ROOT
ATOM      1  CA  SER D 109     -14.310  -2.786  10.352  1.00 42.91 LIG 0.20  C 
ENDROOT
BRANCH 1 2
ATOM      2  C   SER D 109     -13.305  -3.841  10.774  1.00 45.81 LIG 0.24  C 
ATOM      3 O    SER D 109     -12.104  -3.577  10.817  1.00 48.15 LIG-0.27  OA
ATOM      4  N   LYS D 110     -13.782  -5.045  11.069  1.00 56.31 LIG-0.35  N 
ATOM      5 H    LYS D 110     -14.592  -5.302  10.933  1.00 56.31 LIG 0.16  HD
BRANCH 4 6
ATOM      6  CA  LYS D 110     -12.897  -6.046  11.672  1.00 51.35 LIG 0.18  C 
BRANCH 6 7
ATOM      7  CB  LYS D 110     -12.893  -7.314  10.811  1.00 62.96 LIG 0.04  C 
BRANCH 7 8
ATOM      8  CG  LYS D 110     -13.165  -7.013   9.344  1.00 63.09 LIG 0.00  C 
BRANCH 8 9
ATOM      9  CD  LYS D 110     -12.728  -8.141   8.418  1.00 65.88 LIG 0.03  C 
BRANCH 9 10
ATOM     10  CE  LYS D 110     -13.798  -9.236   8.372  1.00 57.43 LIG 0.23  C 
BRANCH 10 11
ATOM     11  NZ  LYS D 110     -13.216 -10.600   8.480  1.00 66.24 LIG-0.08  N 
ATOM     12 HZ3  LYS D 110     -12.940 -10.740   9.315  1.00 66.24 LIG 0.27  HD
ATOM     13 HZ1  LYS D 110     -13.833 -11.204   8.266  1.00 66.24 LIG 0.27  HD
ATOM     14 HZ2  LYS D 110     -12.525 -10.673   7.924  1.00 66.24 LIG 0.27  HD
ENDBRANCH 10 11
ENDBRANCH 9 10
ENDBRANCH 8 9
ENDBRANCH 7 8
ENDBRANCH 6 7
BRANCH 6 15
ATOM     15  C   LYS D 110     -11.466  -5.669  12.137  1.00 56.31 LIG 0.24  C 
ATOM     16  N   GLY D 111     -11.291  -4.830  13.161  1.00 59.27 LIG-0.35  N 
ATOM     17 H    GLY D 111     -10.512  -4.548  13.390  1.00 59.27 LIG 0.16  HD
ATOM     18 O    LYS D 110     -10.502  -6.176  11.565  1.00 65.56 LIG-0.27  OA
BRANCH 16 19
ATOM     19  CA  GLY D 111     -12.344  -4.296  14.000  1.00 50.66 LIG 0.23  C 
BRANCH 19 20
ATOM     20  C   GLY D 111     -12.439  -2.790  13.793  1.00 62.91 LIG 0.23  C 
ATOM     21  N   GLU D 112     -13.474  -2.135  14.330  1.00 61.49 LIG-0.35  N 
ATOM     22 H    GLU D 112     -13.543  -1.278  14.299  1.00 61.49 LIG 0.16  HD
ATOM     23 O    GLY D 111     -11.579  -2.217  13.105  1.00 69.91 LIG-0.27  OA
BRANCH 21 24
ATOM     24  CA  GLU D 112     -14.601  -2.774  15.023  1.00 68.08 LIG 0.16  C 
BRANCH 24 25
ATOM     25  CB  GLU D 112     -15.217  -1.827  16.057  1.00 70.52 LIG 0.04  C 
BRANCH 25 26
ATOM     26  CG  GLU D 112     -16.540  -1.230  15.625  1.00 75.61 LIG 0.12  C 
BRANCH 26 27
ATOM     27  CD  GLU D 112     -16.391   0.166  15.059  1.00 80.23 LIG 0.17  C 
ATOM     28 OE2  GLU D 112     -17.356   0.664  14.437  1.00 75.53 LIG-0.65  OA
ATOM     29 OE1  GLU D 112     -15.312   0.763  15.246  1.00 82.12 LIG-0.65  OA
ENDBRANCH 26 27
ENDBRANCH 25 26
ENDBRANCH 24 25
BRANCH 24 30
ATOM     30  C   GLU D 112     -15.690  -3.384  14.146  1.00 62.49 LIG 0.22  C 
ATOM     31 O    GLU D 112     -15.396  -4.149  13.223  1.00 75.48 LIG-0.29  OA
ENDBRANCH 24 30
ENDBRANCH 21 24
ENDBRANCH 19 20
ENDBRANCH 16 19
ENDBRANCH 6 15
ENDBRANCH 4 6
ENDBRANCH 1 2
BRANCH 1 32
ATOM     32  CB  SER D 109     -14.519  -2.841   8.844  1.00 41.32 LIG 0.20  C 
BRANCH 32 33
ATOM     33 OG   SER D 109     -13.921  -1.722   8.211  1.00 47.11 LIG-0.40  OA
ATOM     34 HG   SER D 109     -13.948  -1.823   7.378  1.00 47.11 LIG 0.21  HD
ENDBRANCH 32 33
ENDBRANCH 1 32
BRANCH 1 35
ATOM     35  N   SER D 109     -13.892  -1.444  10.792  1.00 33.49 LIG-0.34  N 
ATOM     36 H    SER D 109     -13.195  -1.133  10.397  1.00 33.49 LIG 0.16  HD
ATOM     37  C   ARG D 108     -14.577  -0.799  11.736  1.00 29.49 LIG 0.24  C 
ATOM     38 O    ARG D 108     -15.650  -1.208  12.188  1.00 22.63 LIG-0.27  OA
BRANCH 37 39
ATOM     39  CA  ARG D 108     -13.992   0.506  12.229  1.00 38.27 LIG 0.18  C 
BRANCH 39 40
ATOM     40  N   ARG D 108     -12.822   0.913  11.441  1.00 22.07 LIG-0.35  N 
ATOM     41 H    ARG D 108     -12.991   1.185  10.643  1.00 22.07 LIG 0.16  HD
ATOM     42  C   PHE D 107     -11.618   0.843  11.979  1.00 20.48 LIG 0.26  C 
ATOM     43 O    PHE D 107     -11.449   0.512  13.141  1.00 25.48 LIG-0.27  OA
BRANCH 42 44
ATOM     44  CA  PHE D 107     -10.420   1.222  11.116  1.00 18.28 LIG 0.40  C 
ATOM     45  N   PHE D 107      -9.912   2.499  11.570  1.00 19.80 LIG 0.61  N 
BRANCH 44 46
ATOM     46  CB  PHE D 107      -9.327   0.176  11.189  1.00 13.52 LIG 0.09  C 
BRANCH 46 47
ATOM     47  CG  PHE D 107      -8.011   0.644  10.643  1.00 17.60 LIG-0.06  A 
ATOM     48  CD1 PHE D 107      -7.931   1.249   9.390  1.00 15.50 LIG 0.01  A 
ATOM     49  CE1 PHE D 107      -6.709   1.688   8.898  1.00 13.30 LIG 0.00  A 
ATOM     50  CZ  PHE D 107      -5.535   1.490   9.618  1.00 10.86 LIG 0.00  A 
ATOM     51  CE2 PHE D 107      -5.596   0.906  10.862  1.00 17.40 LIG 0.00  A 
ATOM     52  CD2 PHE D 107      -6.833   0.476  11.379  1.00 18.44 LIG 0.01  A 
ENDBRANCH 46 47
ENDBRANCH 44 46
ENDBRANCH 42 44
ENDBRANCH 39 40
BRANCH 39 53
ATOM     53  CB  ARG D 108     -15.073   1.595  12.259  1.00 35.28 LIG 0.04  C 
BRANCH 53 54
ATOM     54  CG  ARG D 108     -16.369   1.279  11.533  1.00 41.69 LIG 0.02  C 
BRANCH 54 55
ATOM     55  CD  ARG D 108     -16.624   2.178  10.292  1.00 52.08 LIG 0.14  C 
BRANCH 55 56
ATOM     56  NE  ARG D 108     -16.794   1.456   9.026  1.00 57.02 LIG-0.23  N 
ATOM     57  CZ  ARG D 108     -15.830   0.754   8.418  1.00 70.73 LIG 0.67  C 
ATOM     58  NH1 ARG D 108     -14.604   0.692   8.940  1.00 60.72 LIG-0.23  N 
ATOM     59  NH2 ARG D 108     -16.086   0.118   7.273  1.00 54.42 LIG-0.23  N 
ATOM     60 2HH1 ARG D 108     -13.990   0.239   8.543  1.00 60.72 LIG 0.17  HD
ATOM     61 1HH1 ARG D 108     -14.427   1.106   9.674  1.00 60.72 LIG 0.17  HD
ATOM     62 2HH2 ARG D 108     -15.466  -0.332   6.884  1.00 54.42 LIG 0.17  HD
ATOM     63 1HH2 ARG D 108     -16.872   0.160   6.925  1.00 54.42 LIG 0.17  HD
ATOM     64 HE   ARG D 108     -17.566   1.487   8.648  1.00 57.02 LIG 0.18  HD
ENDBRANCH 55 56
ENDBRANCH 54 55
ENDBRANCH 53 54
ENDBRANCH 39 53
ENDBRANCH 37 39
ENDBRANCH 1 35
TORSDOF 27
ENDMDL
MODEL 10
USER: ADFR SOLUTION from run 138
USER: SCORE 17.890774 LL:  -4.752 LR: -15.683 RR:   0.000 FEB:  -7.629
USER: RMSD 9.121504
USER: SEED 137
USER: STATUS no improvement in best in 4 clusters for 5 generations
USER: GENES 29
USER: genes 0 Translation |==|  0.40583 0.64784 0.33348
USER: genes 1 Rotation |==|  0.70818 0.39113 0.05872 0.50913
USER: genes 2 Torsion [N]-CA--C-[N] |==|  0.14485
USER: genes 3 Torsion [C]-N--CA-[CB] |==|  0.75307
USER: genes 4 Torsion [N]-CA--CB-[CG] |==|  0.62566
USER: genes 5 Torsion [CA]-CB--CG-[CD] |==|  0.31747
USER: genes 6 Torsion [CB]-CG--CD-[CE] |==|  0.18086
USER: genes 7 Torsion [CG]-CD--CE-[NZ] |==|  0.82172
USER: genes 8 Torsion [CD]-CE--NZ-[HZ3] |==|  0.59525
USER: genes 9 Torsion [N]-CA--C-[N] |==|  0.72413
USER: genes 10 Torsion [C]-N--CA-[C] |==|  0.48524
USER: genes 11 Torsion [N]-CA--C-[N] |==|  0.78072
USER: genes 12 Torsion [C]-N--CA-[CB] |==|  0.24921
USER: genes 13 Torsion [N]-CA--CB-[CG] |==|  0.53982
USER: genes 14 Torsion [CA]-CB--CG-[CD] |==|  0.35302
USER: genes 15 Torsion [CB]-CG--CD-[OE2] |==|  0.59519
USER: genes 16 Torsion [N]-CA--C-[O] |==|  0.36762
USER: genes 17 Torsion [C]-CA--CB-[OG] |==|  0.29876
USER: genes 18 Torsion [CA]-CB--OG-[HG] |==|  0.70820
USER: genes 19 Torsion [C]-CA--N-[C] |==|  0.69210
USER: genes 20 Torsion [N]-C--CA-[N] |==|  0.95280
USER: genes 21 Torsion [C]-CA--N-[C] |==|  0.82204
USER: genes 22 Torsion [N]-C--CA-[N] |==|  0.86251
USER: genes 23 Torsion [C]-CA--CB-[CG] |==|  0.14217
USER: genes 24 Torsion [CA]-CB--CG-[CD1] |==|  0.26099
USER: genes 25 Torsion [C]-CA--CB-[CG] |==|  0.39846
USER: genes 26 Torsion [CA]-CB--CG-[CD] |==|  0.98588
USER: genes 27 Torsion [CB]-CG--CD-[NE] |==|  0.48819
USER: genes 28 Torsion [CG]-CD--NE-[HE] |==|  0.67591
ROOT
ATOM      1  CA  SER D 109     -13.835  -0.384  10.194  1.00 42.91 LIG 0.20  C 
ENDROOT
BRANCH 1 2
ATOM      2  C   SER D 109     -12.631   0.254  10.859  1.00 45.81 LIG 0.24  C 
ATOM      3 O    SER D 109     -12.730   1.352  11.406  1.00 48.15 LIG-0.27  OA
ATOM      4  N   LYS D 110     -11.485  -0.415  10.803  1.00 56.31 LIG-0.35  N 
ATOM      5 H    LYS D 110     -11.347  -1.120  10.330  1.00 56.31 LIG 0.16  HD
BRANCH 4 6
ATOM      6  CA  LYS D 110     -10.338   0.045  11.593  1.00 51.35 LIG 0.18  C 
BRANCH 6 7
ATOM      7  CB  LYS D 110      -9.523   1.054  10.776  1.00 62.96 LIG 0.04  C 
BRANCH 7 8
ATOM      8  CG  LYS D 110      -8.028   0.783  10.857  1.00 63.09 LIG 0.00  C 
BRANCH 8 9
ATOM      9  CD  LYS D 110      -7.429   0.367   9.519  1.00 65.88 LIG 0.03  C 
BRANCH 9 10
ATOM     10  CE  LYS D 110      -7.523   1.518   8.513  1.00 57.43 LIG 0.23  C 
BRANCH 10 11
ATOM     11  NZ  LYS D 110      -8.931   1.872   8.190  1.00 66.24 LIG-0.08  N 
ATOM     12 HZ3  LYS D 110      -8.986   2.128   7.339  1.00 66.24 LIG 0.27  HD
ATOM     13 HZ1  LYS D 110      -9.453   1.163   8.321  1.00 66.24 LIG 0.27  HD
ATOM     14 HZ2  LYS D 110      -9.199   2.538   8.717  1.00 66.24 LIG 0.27  HD
ENDBRANCH 10 11
ENDBRANCH 9 10
ENDBRANCH 8 9
ENDBRANCH 7 8
ENDBRANCH 6 7
BRANCH 6 15
ATOM     15  C   LYS D 110     -10.519   0.516  13.061  1.00 56.31 LIG 0.24  C 
ATOM     16  N   GLY D 111     -10.591   1.818  13.345  1.00 59.27 LIG-0.35  N 
ATOM     17 H    GLY D 111     -10.616   2.106  14.155  1.00 59.27 LIG 0.16  HD
ATOM     18 O    LYS D 110     -10.620  -0.330  13.948  1.00 65.56 LIG-0.27  OA
BRANCH 16 19
ATOM     19  CA  GLY D 111     -10.636   2.890  12.371  1.00 50.66 LIG 0.23  C 
BRANCH 19 20
ATOM     20  C   GLY D 111     -10.848   4.217  13.090  1.00 62.91 LIG 0.23  C 
ATOM     21  N   GLU D 112     -12.082   4.534  13.496  1.00 61.49 LIG-0.35  N 
ATOM     22 H    GLU D 112     -12.247   5.238  13.961  1.00 61.49 LIG 0.16  HD
ATOM     23 O    GLY D 111      -9.882   4.982  13.246  1.00 69.91 LIG-0.27  OA
BRANCH 21 24
ATOM     24  CA  GLU D 112     -13.287   3.744  13.208  1.00 68.08 LIG 0.16  C 
BRANCH 24 25
ATOM     25  CB  GLU D 112     -13.529   2.697  14.298  1.00 70.52 LIG 0.04  C 
BRANCH 25 26
ATOM     26  CG  GLU D 112     -14.534   1.632  13.910  1.00 75.61 LIG 0.12  C 
BRANCH 26 27
ATOM     27  CD  GLU D 112     -13.995   0.229  14.095  1.00 80.23 LIG 0.17  C 
ATOM     28 OE2  GLU D 112     -14.353  -0.659  13.289  1.00 75.53 LIG-0.65  OA
ATOM     29 OE1  GLU D 112     -13.208   0.022  15.041  1.00 82.12 LIG-0.65  OA
ENDBRANCH 26 27
ENDBRANCH 25 26
ENDBRANCH 24 25
BRANCH 24 30
ATOM     30  C   GLU D 112     -14.567   4.523  12.925  1.00 62.49 LIG 0.22  C 
ATOM     31 O    GLU D 112     -15.272   4.238  11.953  1.00 75.48 LIG-0.29  OA
ENDBRANCH 24 30
ENDBRANCH 21 24
ENDBRANCH 19 20
ENDBRANCH 16 19
ENDBRANCH 6 15
ENDBRANCH 4 6
ENDBRANCH 1 2
BRANCH 1 32
ATOM     32  CB  SER D 109     -15.074   0.469  10.432  1.00 41.32 LIG 0.20  C 
BRANCH 32 33
ATOM     33 OG   SER D 109     -15.461   1.138   9.244  1.00 47.11 LIG-0.40  OA
ATOM     34 HG   SER D 109     -15.251   1.950   9.297  1.00 47.11 LIG 0.21  HD
ENDBRANCH 32 33
ENDBRANCH 1 32
BRANCH 1 35
ATOM     35  N   SER D 109     -14.032  -1.767  10.659  1.00 33.49 LIG-0.34  N 
ATOM     36 H    SER D 109     -14.286  -1.843  11.477  1.00 33.49 LIG 0.16  HD
ATOM     37  C   ARG D 108     -13.822  -2.793   9.835  1.00 29.49 LIG 0.24  C 
ATOM     38 O    ARG D 108     -13.592  -2.655   8.631  1.00 22.63 LIG-0.27  OA
BRANCH 37 39
ATOM     39  CA  ARG D 108     -13.904  -4.178  10.439  1.00 38.27 LIG 0.18  C 
BRANCH 39 40
ATOM     40  N   ARG D 108     -13.811  -4.142  11.904  1.00 22.07 LIG-0.35  N 
ATOM     41 H    ARG D 108     -14.512  -4.412  12.325  1.00 22.07 LIG 0.16  HD
ATOM     42  C   PHE D 107     -12.701  -3.715  12.476  1.00 20.48 LIG 0.26  C 
ATOM     43 O    PHE D 107     -11.716  -3.409  11.823  1.00 25.48 LIG-0.27  OA
BRANCH 42 44
ATOM     44  CA  PHE D 107     -12.657  -3.638  13.998  1.00 18.28 LIG 0.40  C 
ATOM     45  N   PHE D 107     -13.838  -2.939  14.457  1.00 19.80 LIG 0.61  N 
BRANCH 44 46
ATOM     46  CB  PHE D 107     -12.596  -5.016  14.624  1.00 13.52 LIG 0.09  C 
BRANCH 46 47
ATOM     47  CG  PHE D 107     -11.516  -5.887  14.056  1.00 17.60 LIG-0.06  A 
ATOM     48  CD1 PHE D 107     -10.261  -5.955  14.661  1.00 15.50 LIG 0.01  A 
ATOM     49  CE1 PHE D 107      -9.270  -6.773  14.133  1.00 13.30 LIG 0.00  A 
ATOM     50  CZ  PHE D 107      -9.489  -7.501  12.967  1.00 10.86 LIG 0.00  A 
ATOM     51  CE2 PHE D 107     -10.724  -7.455  12.364  1.00 17.40 LIG 0.00  A 
ATOM     52  CD2 PHE D 107     -11.742  -6.646  12.902  1.00 18.44 LIG 0.01  A 
ENDBRANCH 46 47
ENDBRANCH 44 46
ENDBRANCH 42 44
ENDBRANCH 39 40
BRANCH 39 53
ATOM     53  CB  ARG D 108     -15.177  -4.891   9.961  1.00 35.28 LIG 0.04  C 
BRANCH 53 54
ATOM     54  CG  ARG D 108     -15.060  -6.383   9.708  1.00 41.69 LIG 0.02  C 
BRANCH 54 55
ATOM     55  CD  ARG D 108     -13.614  -6.930   9.860  1.00 52.08 LIG 0.14  C 
BRANCH 55 56
ATOM     56  NE  ARG D 108     -13.481  -8.384   9.718  1.00 57.02 LIG-0.23  N 
ATOM     57  CZ  ARG D 108     -13.758  -9.066   8.600  1.00 70.73 LIG 0.67  C 
ATOM     58  NH1 ARG D 108     -14.214  -8.435   7.517  1.00 60.72 LIG-0.23  N 
ATOM     59  NH2 ARG D 108     -13.591 -10.389   8.565  1.00 54.42 LIG-0.23  N 
ATOM     60 2HH1 ARG D 108     -14.390  -8.880   6.802  1.00 60.72 LIG 0.17  HD
ATOM     61 1HH1 ARG D 108     -14.333  -7.583   7.533  1.00 60.72 LIG 0.17  HD
ATOM     62 2HH2 ARG D 108     -13.770 -10.825   7.847  1.00 54.42 LIG 0.17  HD
ATOM     63 1HH2 ARG D 108     -13.305 -10.805   9.262  1.00 54.42 LIG 0.17  HD
ATOM     64 HE   ARG D 108     -13.206  -8.829  10.401  1.00 57.02 LIG 0.18  HD
ENDBRANCH 55 56
ENDBRANCH 54 55
ENDBRANCH 53 54
ENDBRANCH 39 53
ENDBRANCH 37 39
ENDBRANCH 1 35
TORSDOF 27
ENDMDL
MODEL 11
USER: ADFR SOLUTION from run 114
USER: SCORE 18.150057 LL:  -4.149 LR: -15.472 RR:   0.000 FEB:  -7.417
USER: RMSD 7.129022
USER: SEED 113
USER: STATUS searching
USER: GENES 29
USER: genes 0 Translation |==|  0.49692 0.56077 0.46839
USER: genes 1 Rotation |==|  0.39339 0.26636 0.65759 0.89901
USER: genes 2 Torsion [N]-CA--C-[N] |==|  0.55541
USER: genes 3 Torsion [C]-N--CA-[CB] |==|  0.76443
USER: genes 4 Torsion [N]-CA--CB-[CG] |==|  0.21422
USER: genes 5 Torsion [CA]-CB--CG-[CD] |==|  0.39086
USER: genes 6 Torsion [CB]-CG--CD-[CE] |==|  0.81925
USER: genes 7 Torsion [CG]-CD--CE-[NZ] |==|  0.26007
USER: genes 8 Torsion [CD]-CE--NZ-[HZ3] |==|  0.07532
USER: genes 9 Torsion [N]-CA--C-[N] |==|  0.24175
USER: genes 10 Torsion [C]-N--CA-[C] |==|  0.52909
USER: genes 11 Torsion [N]-CA--C-[N] |==|  0.37983
USER: genes 12 Torsion [C]-N--CA-[CB] |==|  0.20961
USER: genes 13 Torsion [N]-CA--CB-[CG] |==|  0.54084
USER: genes 14 Torsion [CA]-CB--CG-[CD] |==|  0.16699
USER: genes 15 Torsion [CB]-CG--CD-[OE2] |==|  0.62966
USER: genes 16 Torsion [N]-CA--C-[O] |==|  0.99093
USER: genes 17 Torsion [C]-CA--CB-[OG] |==|  0.36358
USER: genes 18 Torsion [CA]-CB--OG-[HG] |==|  0.75375
USER: genes 19 Torsion [C]-CA--N-[C] |==|  0.79252
USER: genes 20 Torsion [N]-C--CA-[N] |==|  0.93807
USER: genes 21 Torsion [C]-CA--N-[C] |==|  0.81871
USER: genes 22 Torsion [N]-C--CA-[N] |==|  0.88691
USER: genes 23 Torsion [C]-CA--CB-[CG] |==|  0.21942
USER: genes 24 Torsion [CA]-CB--CG-[CD1] |==|  0.50889
USER: genes 25 Torsion [C]-CA--CB-[CG] |==|  0.09588
USER: genes 26 Torsion [CA]-CB--CG-[CD] |==|  0.15911
USER: genes 27 Torsion [CB]-CG--CD-[NE] |==|  0.34034
USER: genes 28 Torsion [CG]-CD--NE-[HE] |==|  0.17204
ROOT
ATOM      1  CA  SER D 109     -11.785  -2.147  13.431  1.00 42.91 LIG 0.20  C 
ENDROOT
BRANCH 1 2
ATOM      2  C   SER D 109     -11.896  -3.497  12.748  1.00 45.81 LIG 0.24  C 
ATOM      3 O    SER D 109     -11.873  -3.578  11.521  1.00 48.15 LIG-0.27  OA
ATOM      4  N   LYS D 110     -12.035  -4.560  13.531  1.00 56.31 LIG-0.35  N 
ATOM      5 H    LYS D 110     -12.178  -4.534  14.379  1.00 56.31 LIG 0.16  HD
BRANCH 4 6
ATOM      6  CA  LYS D 110     -11.947  -5.904  12.950  1.00 51.35 LIG 0.18  C 
BRANCH 6 7
ATOM      7  CB  LYS D 110     -13.314  -6.313  12.390  1.00 62.96 LIG 0.04  C 
BRANCH 7 8
ATOM      8  CG  LYS D 110     -13.611  -5.643  11.056  1.00 63.09 LIG 0.00  C 
BRANCH 8 9
ATOM      9  CD  LYS D 110     -14.307  -6.572  10.069  1.00 65.88 LIG 0.03  C 
BRANCH 9 10
ATOM     10  CE  LYS D 110     -13.380  -7.728   9.683  1.00 57.43 LIG 0.23  C 
BRANCH 10 11
ATOM     11  NZ  LYS D 110     -13.591  -8.929  10.534  1.00 66.24 LIG-0.08  N 
ATOM     12 HZ3  LYS D 110     -14.428  -8.936  10.837  1.00 66.24 LIG 0.27  HD
ATOM     13 HZ1  LYS D 110     -13.444  -9.663  10.053  1.00 66.24 LIG 0.27  HD
ATOM     14 HZ2  LYS D 110     -13.027  -8.909  11.223  1.00 66.24 LIG 0.27  HD
ENDBRANCH 10 11
ENDBRANCH 9 10
ENDBRANCH 8 9
ENDBRANCH 7 8
ENDBRANCH 6 7
BRANCH 6 15
ATOM     15  C   LYS D 110     -10.798  -6.277  11.977  1.00 56.31 LIG 0.24  C 
ATOM     16  N   GLY D 111      -9.634  -6.727  12.452  1.00 59.27 LIG-0.35  N 
ATOM     17 H    GLY D 111      -8.958  -6.870  11.940  1.00 59.27 LIG 0.16  HD
ATOM     18 O    LYS D 110     -10.988  -6.177  10.766  1.00 65.56 LIG-0.27  OA
BRANCH 16 19
ATOM     19  CA  GLY D 111      -9.352  -7.026  13.842  1.00 50.66 LIG 0.23  C 
BRANCH 19 20
ATOM     20  C   GLY D 111      -7.857  -7.261  14.015  1.00 62.91 LIG 0.23  C 
ATOM     21  N   GLU D 112      -7.242  -6.717  15.070  1.00 61.49 LIG-0.35  N 
ATOM     22 H    GLU D 112      -6.415  -6.870  15.250  1.00 61.49 LIG 0.16  HD
ATOM     23 O    GLY D 111      -7.244  -7.917  13.157  1.00 69.91 LIG-0.27  OA
BRANCH 21 24
ATOM     24  CA  GLU D 112      -7.879  -5.809  16.033  1.00 68.08 LIG 0.16  C 
BRANCH 24 25
ATOM     25  CB  GLU D 112      -8.796  -6.578  16.987  1.00 70.52 LIG 0.04  C 
BRANCH 25 26
ATOM     26  CG  GLU D 112      -9.746  -5.693  17.768  1.00 75.61 LIG 0.12  C 
BRANCH 26 27
ATOM     27  CD  GLU D 112     -10.672  -4.900  16.870  1.00 80.23 LIG 0.17  C 
ATOM     28 OE2  GLU D 112     -10.823  -3.679  17.098  1.00 75.53 LIG-0.65  OA
ATOM     29 OE1  GLU D 112     -11.238  -5.499  15.934  1.00 82.12 LIG-0.65  OA
ENDBRANCH 26 27
ENDBRANCH 25 26
ENDBRANCH 24 25
BRANCH 24 30
ATOM     30  C   GLU D 112      -6.955  -4.881  16.817  1.00 62.49 LIG 0.22  C 
ATOM     31 O    GLU D 112      -5.731  -4.952  16.677  1.00 75.48 LIG-0.29  OA
ENDBRANCH 24 30
ENDBRANCH 21 24
ENDBRANCH 19 20
ENDBRANCH 16 19
ENDBRANCH 6 15
ENDBRANCH 4 6
ENDBRANCH 1 2
BRANCH 1 32
ATOM     32  CB  SER D 109     -12.676  -2.116  14.667  1.00 41.32 LIG 0.20  C 
BRANCH 32 33
ATOM     33 OG   SER D 109     -11.959  -1.635  15.792  1.00 47.11 LIG-0.40  OA
ATOM     34 HG   SER D 109     -11.583  -2.278  16.181  1.00 47.11 LIG 0.21  HD
ENDBRANCH 32 33
ENDBRANCH 1 32
BRANCH 1 35
ATOM     35  N   SER D 109     -12.108  -1.050  12.504  1.00 33.49 LIG-0.34  N 
ATOM     36 H    SER D 109     -12.876  -0.685  12.626  1.00 33.49 LIG 0.16  HD
ATOM     37  C   ARG D 108     -11.240  -0.686  11.561  1.00 29.49 LIG 0.24  C 
ATOM     38 O    ARG D 108     -10.091  -1.132  11.494  1.00 22.63 LIG-0.27  OA
BRANCH 37 39
ATOM     39  CA  ARG D 108     -11.714   0.347  10.562  1.00 38.27 LIG 0.18  C 
BRANCH 39 40
ATOM     40  N   ARG D 108     -13.179   0.390  10.474  1.00 22.07 LIG-0.35  N 
ATOM     41 H    ARG D 108     -13.544   1.122  10.739  1.00 22.07 LIG 0.16  HD
ATOM     42  C   PHE D 107     -13.835  -0.659  10.010  1.00 20.48 LIG 0.26  C 
ATOM     43 O    PHE D 107     -13.255  -1.645   9.586  1.00 25.48 LIG-0.27  OA
BRANCH 42 44
ATOM     44  CA  PHE D 107     -15.357  -0.603   9.983  1.00 18.28 LIG 0.40  C 
ATOM     45  N   PHE D 107     -15.816   0.025  11.205  1.00 19.80 LIG 0.61  N 
BRANCH 44 46
ATOM     46  CB  PHE D 107     -15.866   0.170   8.784  1.00 13.52 LIG 0.09  C 
BRANCH 46 47
ATOM     47  CG  PHE D 107     -15.850  -0.620   7.510  1.00 17.60 LIG-0.06  A 
ATOM     48  CD1 PHE D 107     -16.224  -0.035   6.301  1.00 15.50 LIG 0.01  A 
ATOM     49  CE1 PHE D 107     -16.195  -0.772   5.124  1.00 13.30 LIG 0.00  A 
ATOM     50  CZ  PHE D 107     -15.844  -2.119   5.132  1.00 10.86 LIG 0.00  A 
ATOM     51  CE2 PHE D 107     -15.460  -2.710   6.313  1.00 17.40 LIG 0.00  A 
ATOM     52  CD2 PHE D 107     -15.465  -1.966   7.508  1.00 18.44 LIG 0.01  A 
ENDBRANCH 46 47
ENDBRANCH 44 46
ENDBRANCH 42 44
ENDBRANCH 39 40
BRANCH 39 53
ATOM     53  CB  ARG D 108     -11.118   1.722  10.896  1.00 35.28 LIG 0.04  C 
BRANCH 53 54
ATOM     54  CG  ARG D 108      -9.713   1.726  11.472  1.00 41.69 LIG 0.02  C 
BRANCH 54 55
ATOM     55  CD  ARG D 108      -8.663   1.031  10.561  1.00 52.08 LIG 0.14  C 
BRANCH 55 56
ATOM     56  NE  ARG D 108      -7.528   1.872  10.169  1.00 57.02 LIG-0.23  N 
ATOM     57  CZ  ARG D 108      -7.231   2.204   8.907  1.00 70.73 LIG 0.67  C 
ATOM     58  NH1 ARG D 108      -7.968   1.747   7.893  1.00 60.72 LIG-0.23  N 
ATOM     59  NH2 ARG D 108      -6.182   2.988   8.650  1.00 54.42 LIG-0.23  N 
ATOM     60 2HH1 ARG D 108      -7.771   1.965   7.085  1.00 60.72 LIG 0.17  HD
ATOM     61 1HH1 ARG D 108      -8.641   1.234   8.048  1.00 60.72 LIG 0.17  HD
ATOM     62 2HH2 ARG D 108      -5.992   3.200   7.839  1.00 54.42 LIG 0.17  HD
ATOM     63 1HH2 ARG D 108      -5.696   3.281   9.297  1.00 54.42 LIG 0.17  HD
ATOM     64 HE   ARG D 108      -7.017   2.172  10.792  1.00 57.02 LIG 0.18  HD
ENDBRANCH 55 56
ENDBRANCH 54 55
ENDBRANCH 53 54
ENDBRANCH 39 53
ENDBRANCH 37 39
ENDBRANCH 1 35
TORSDOF 27
ENDMDL
MODEL 12
USER: ADFR SOLUTION from run 68
USER: SCORE 19.341775 LL:  -5.055 LR: -15.418 RR:   0.000 FEB:  -7.364
USER: RMSD 4.733848
USER: SEED 67
USER: STATUS no improvement in best in 5 clusters for 5 generations
USER: GENES 29
USER: genes 0 Translation |==|  0.43035 0.49464 0.47747
USER: genes 1 Rotation |==|  0.40119 0.18947 0.66097 0.84336
USER: genes 2 Torsion [N]-CA--C-[N] |==|  0.92052
USER: genes 3 Torsion [C]-N--CA-[CB] |==|  0.52806
USER: genes 4 Torsion [N]-CA--CB-[CG] |==|  0.58142
USER: genes 5 Torsion [CA]-CB--CG-[CD] |==|  0.75474
USER: genes 6 Torsion [CB]-CG--CD-[CE] |==|  0.49299
USER: genes 7 Torsion [CG]-CD--CE-[NZ] |==|  0.65916
USER: genes 8 Torsion [CD]-CE--NZ-[HZ3] |==|  0.13653
USER: genes 9 Torsion [N]-CA--C-[N] |==|  0.28950
USER: genes 10 Torsion [C]-N--CA-[C] |==|  0.58272
USER: genes 11 Torsion [N]-CA--C-[N] |==|  0.59883
USER: genes 12 Torsion [C]-N--CA-[CB] |==|  0.25943
USER: genes 13 Torsion [N]-CA--CB-[CG] |==|  0.55087
USER: genes 14 Torsion [CA]-CB--CG-[CD] |==|  0.24075
USER: genes 15 Torsion [CB]-CG--CD-[OE2] |==|  0.38034
USER: genes 16 Torsion [N]-CA--C-[O] |==|  0.40876
USER: genes 17 Torsion [C]-CA--CB-[OG] |==|  0.56617
USER: genes 18 Torsion [CA]-CB--OG-[HG] |==|  0.65918
USER: genes 19 Torsion [C]-CA--N-[C] |==|  0.83728
USER: genes 20 Torsion [N]-C--CA-[N] |==|  0.42189
USER: genes 21 Torsion [C]-CA--N-[C] |==|  0.81074
USER: genes 22 Torsion [N]-C--CA-[N] |==|  0.43102
USER: genes 23 Torsion [C]-CA--CB-[CG] |==|  0.44675
USER: genes 24 Torsion [CA]-CB--CG-[CD1] |==|  0.39361
USER: genes 25 Torsion [C]-CA--CB-[CG] |==|  0.38160
USER: genes 26 Torsion [CA]-CB--CG-[CD] |==|  0.88876
USER: genes 27 Torsion [CB]-CG--CD-[NE] |==|  0.24375
USER: genes 28 Torsion [CG]-CD--NE-[HE] |==|  0.14607
ROOT
ATOM      1  CA  SER D 109     -13.283  -3.486  13.649  1.00 42.91 LIG 0.20  C 
ENDROOT
BRANCH 1 2
ATOM      2  C   SER D 109     -12.935  -4.767  12.915  1.00 45.81 LIG 0.24  C 
ATOM      3 O    SER D 109     -12.242  -5.627  13.457  1.00 48.15 LIG-0.27  OA
ATOM      4  N   LYS D 110     -13.395  -4.896  11.676  1.00 56.31 LIG-0.35  N 
ATOM      5 H    LYS D 110     -13.774  -4.272  11.222  1.00 56.31 LIG 0.16  HD
BRANCH 4 6
ATOM      6  CA  LYS D 110     -13.266  -6.184  10.987  1.00 51.35 LIG 0.18  C 
BRANCH 6 7
ATOM      7  CB  LYS D 110     -13.632  -6.015   9.507  1.00 62.96 LIG 0.04  C 
BRANCH 7 8
ATOM      8  CG  LYS D 110     -14.209  -7.289   8.909  1.00 63.09 LIG 0.00  C 
BRANCH 8 9
ATOM      9  CD  LYS D 110     -13.139  -8.216   8.347  1.00 65.88 LIG 0.03  C 
BRANCH 9 10
ATOM     10  CE  LYS D 110     -13.776  -9.504   7.817  1.00 57.43 LIG 0.23  C 
BRANCH 10 11
ATOM     11  NZ  LYS D 110     -13.216 -10.719   8.467  1.00 66.24 LIG-0.08  N 
ATOM     12 HZ3  LYS D 110     -13.218 -10.612   9.350  1.00 66.24 LIG 0.27  HD
ATOM     13 HZ1  LYS D 110     -13.713 -11.426   8.252  1.00 66.24 LIG 0.27  HD
ATOM     14 HZ2  LYS D 110     -12.381 -10.848   8.186  1.00 66.24 LIG 0.27  HD
ENDBRANCH 10 11
ENDBRANCH 9 10
ENDBRANCH 8 9
ENDBRANCH 7 8
ENDBRANCH 6 7
BRANCH 6 15
ATOM     15  C   LYS D 110     -11.997  -7.060  11.162  1.00 56.31 LIG 0.24  C 
ATOM     16  N   GLY D 111     -12.033  -8.147  11.936  1.00 59.27 LIG-0.35  N 
ATOM     17 H    GLY D 111     -11.327  -8.606  12.108  1.00 59.27 LIG 0.16  HD
ATOM     18 O    LYS D 110     -10.973  -6.749  10.557  1.00 65.56 LIG-0.27  OA
BRANCH 16 19
ATOM     19  CA  GLY D 111     -13.217  -8.689  12.571  1.00 50.66 LIG 0.23  C 
BRANCH 19 20
ATOM     20  C   GLY D 111     -12.821  -9.388  13.865  1.00 62.91 LIG 0.23  C 
ATOM     21  N   GLU D 112     -13.486 -10.492  14.225  1.00 61.49 LIG-0.35  N 
ATOM     22 H    GLU D 112     -13.262 -10.961  14.910  1.00 61.49 LIG 0.16  HD
ATOM     23 O    GLY D 111     -11.923  -8.898  14.568  1.00 69.91 LIG-0.27  OA
BRANCH 21 24
ATOM     24  CA  GLU D 112     -14.654 -11.034  13.518  1.00 68.08 LIG 0.16  C 
BRANCH 24 25
ATOM     25  CB  GLU D 112     -14.232 -12.086  12.489  1.00 70.52 LIG 0.04  C 
BRANCH 25 26
ATOM     26  CG  GLU D 112     -15.285 -12.368  11.436  1.00 75.61 LIG 0.12  C 
BRANCH 26 27
ATOM     27  CD  GLU D 112     -15.200 -11.417  10.261  1.00 80.23 LIG 0.17  C 
ATOM     28 OE2  GLU D 112     -15.318 -11.885   9.106  1.00 75.53 LIG-0.65  OA
ATOM     29 OE1  GLU D 112     -15.025 -10.205  10.497  1.00 82.12 LIG-0.65  OA
ENDBRANCH 26 27
ENDBRANCH 25 26
ENDBRANCH 24 25
BRANCH 24 30
ATOM     30  C   GLU D 112     -15.795 -11.563  14.381  1.00 62.49 LIG 0.22  C 
ATOM     31 O    GLU D 112     -16.965 -11.470  13.999  1.00 75.48 LIG-0.29  OA
ENDBRANCH 24 30
ENDBRANCH 21 24
ENDBRANCH 19 20
ENDBRANCH 16 19
ENDBRANCH 6 15
ENDBRANCH 4 6
ENDBRANCH 1 2
BRANCH 1 32
ATOM     32  CB  SER D 109     -14.519  -3.702  14.514  1.00 41.32 LIG 0.20  C 
BRANCH 32 33
ATOM     33 OG   SER D 109     -15.178  -2.473  14.766  1.00 47.11 LIG-0.40  OA
ATOM     34 HG   SER D 109     -15.235  -2.350  15.595  1.00 47.11 LIG 0.21  HD
ENDBRANCH 32 33
ENDBRANCH 1 32
BRANCH 1 35
ATOM     35  N   SER D 109     -13.468  -2.366  12.712  1.00 33.49 LIG-0.34  N 
ATOM     36 H    SER D 109     -14.240  -1.990  12.743  1.00 33.49 LIG 0.16  HD
ATOM     37  C   ARG D 108     -12.481  -2.000  11.894  1.00 29.49 LIG 0.24  C 
ATOM     38 O    ARG D 108     -11.341  -2.466  11.964  1.00 22.63 LIG-0.27  OA
BRANCH 37 39
ATOM     39  CA  ARG D 108     -12.809  -0.940  10.865  1.00 38.27 LIG 0.18  C 
BRANCH 39 40
ATOM     40  N   ARG D 108     -11.626  -0.153  10.495  1.00 22.07 LIG-0.35  N 
ATOM     41 H    ARG D 108     -11.344  -0.268   9.690  1.00 22.07 LIG 0.16  HD
ATOM     42  C   PHE D 107     -11.079   0.657  11.382  1.00 20.48 LIG 0.26  C 
ATOM     43 O    PHE D 107     -11.567   0.826  12.488  1.00 25.48 LIG-0.27  OA
BRANCH 42 44
ATOM     44  CA  PHE D 107      -9.820   1.418  10.983  1.00 18.28 LIG 0.40  C 
ATOM     45  N   PHE D 107      -9.732   2.616  11.792  1.00 19.80 LIG 0.61  N 
BRANCH 44 46
ATOM     46  CB  PHE D 107      -8.576   0.576  11.171  1.00 13.52 LIG 0.09  C 
BRANCH 46 47
ATOM     47  CG  PHE D 107      -7.393   1.071  10.394  1.00 17.60 LIG-0.06  A 
ATOM     48  CD1 PHE D 107      -6.110   1.024  10.939  1.00 15.50 LIG 0.01  A 
ATOM     49  CE1 PHE D 107      -5.019   1.475  10.207  1.00 13.30 LIG 0.00  A 
ATOM     50  CZ  PHE D 107      -5.186   2.028   8.941  1.00 10.86 LIG 0.00  A 
ATOM     51  CE2 PHE D 107      -6.443   2.071   8.383  1.00 17.40 LIG 0.00  A 
ATOM     52  CD2 PHE D 107      -7.552   1.597   9.107  1.00 18.44 LIG 0.01  A 
ENDBRANCH 46 47
ENDBRANCH 44 46
ENDBRANCH 42 44
ENDBRANCH 39 40
BRANCH 39 53
ATOM     53  CB  ARG D 108     -13.481  -1.579   9.641  1.00 35.28 LIG 0.04  C 
BRANCH 53 54
ATOM     54  CG  ARG D 108     -14.672  -0.836   9.062  1.00 41.69 LIG 0.02  C 
BRANCH 54 55
ATOM     55  CD  ARG D 108     -15.613  -0.229  10.139  1.00 52.08 LIG 0.14  C 
BRANCH 55 56
ATOM     56  NE  ARG D 108     -15.251   1.118  10.592  1.00 57.02 LIG-0.23  N 
ATOM     57  CZ  ARG D 108     -15.091   1.469  11.874  1.00 70.73 LIG 0.67  C 
ATOM     58  NH1 ARG D 108     -15.287   0.581  12.851  1.00 60.72 LIG-0.23  N 
ATOM     59  NH2 ARG D 108     -14.746   2.720  12.187  1.00 54.42 LIG-0.23  N 
ATOM     60 2HH1 ARG D 108     -15.183   0.815  13.672  1.00 60.72 LIG 0.17  HD
ATOM     61 1HH1 ARG D 108     -15.518  -0.225  12.659  1.00 60.72 LIG 0.17  HD
ATOM     62 2HH2 ARG D 108     -14.644   2.944  13.011  1.00 54.42 LIG 0.17  HD
ATOM     63 1HH2 ARG D 108     -14.627   3.301  11.565  1.00 54.42 LIG 0.17  HD
ATOM     64 HE   ARG D 108     -15.134   1.724   9.994  1.00 57.02 LIG 0.18  HD
ENDBRANCH 55 56
ENDBRANCH 54 55
ENDBRANCH 53 54
ENDBRANCH 39 53
ENDBRANCH 37 39
ENDBRANCH 1 35
TORSDOF 27
ENDMDL
MODEL 13
USER: ADFR SOLUTION from run 196
USER: SCORE 18.263819 LL:  -4.301 LR: -15.338 RR:   0.000 FEB:  -7.284
USER: RMSD 8.757573
USER: SEED 195
USER: STATUS searching
USER: GENES 29
USER: genes 0 Translation |==|  0.45329 0.50382 0.41940
USER: genes 1 Rotation |==|  0.38965 0.54363 0.03347 0.63516
USER: genes 2 Torsion [N]-CA--C-[N] |==|  0.69001
USER: genes 3 Torsion [C]-N--CA-[CB] |==|  0.76484
USER: genes 4 Torsion [N]-CA--CB-[CG] |==|  0.66166
USER: genes 5 Torsion [CA]-CB--CG-[CD] |==|  0.68355
USER: genes 6 Torsion [CB]-CG--CD-[CE] |==|  0.90325
USER: genes 7 Torsion [CG]-CD--CE-[NZ] |==|  0.26507
USER: genes 8 Torsion [CD]-CE--NZ-[HZ3] |==|  0.84592
USER: genes 9 Torsion [N]-CA--C-[N] |==|  0.19212
USER: genes 10 Torsion [C]-N--CA-[C] |==|  0.20474
USER: genes 11 Torsion [N]-CA--C-[N] |==|  0.55883
USER: genes 12 Torsion [C]-N--CA-[CB] |==|  0.24446
USER: genes 13 Torsion [N]-CA--CB-[CG] |==|  0.54548
USER: genes 14 Torsion [CA]-CB--CG-[CD] |==|  0.13577
USER: genes 15 Torsion [CB]-CG--CD-[OE2] |==|  0.09934
USER: genes 16 Torsion [N]-CA--C-[O] |==|  0.23082
USER: genes 17 Torsion [C]-CA--CB-[OG] |==|  0.71065
USER: genes 18 Torsion [CA]-CB--OG-[HG] |==|  0.30354
USER: genes 19 Torsion [C]-CA--N-[C] |==|  0.70000
USER: genes 20 Torsion [N]-C--CA-[N] |==|  0.19119
USER: genes 21 Torsion [C]-CA--N-[C] |==|  0.78882
USER: genes 22 Torsion [N]-C--CA-[N] |==|  0.03726
USER: genes 23 Torsion [C]-CA--CB-[CG] |==|  0.20909
USER: genes 24 Torsion [CA]-CB--CG-[CD1] |==|  0.11382
USER: genes 25 Torsion [C]-CA--CB-[CG] |==|  0.75689
USER: genes 26 Torsion [CA]-CB--CG-[CD] |==|  0.57245
USER: genes 27 Torsion [CB]-CG--CD-[NE] |==|  0.21326
USER: genes 28 Torsion [CG]-CD--NE-[HE] |==|  0.07531
ROOT
ATOM      1  CA  SER D 109     -12.767  -3.301  12.256  1.00 42.91 LIG 0.20  C 
ENDROOT
BRANCH 1 2
ATOM      2  C   SER D 109     -12.064  -2.113  11.627  1.00 45.81 LIG 0.24  C 
ATOM      3 O    SER D 109     -12.175  -1.889  10.422  1.00 48.15 LIG-0.27  OA
ATOM      4  N   LYS D 110     -11.323  -1.356  12.428  1.00 56.31 LIG-0.35  N 
ATOM      5 H    LYS D 110     -11.123  -1.548  13.243  1.00 56.31 LIG 0.16  HD
BRANCH 4 6
ATOM      6  CA  LYS D 110     -10.783  -0.087  11.931  1.00 51.35 LIG 0.18  C 
BRANCH 6 7
ATOM      7  CB  LYS D 110      -9.468  -0.345  11.186  1.00 62.96 LIG 0.04  C 
BRANCH 7 8
ATOM      8  CG  LYS D 110      -8.305   0.427  11.790  1.00 63.09 LIG 0.00  C 
BRANCH 8 9
ATOM      9  CD  LYS D 110      -7.752   1.494  10.852  1.00 65.88 LIG 0.03  C 
BRANCH 9 10
ATOM     10  CE  LYS D 110      -7.831   1.017   9.399  1.00 57.43 LIG 0.23  C 
BRANCH 10 11
ATOM     11  NZ  LYS D 110      -9.057   1.502   8.712  1.00 66.24 LIG-0.08  N 
ATOM     12 HZ3  LYS D 110      -9.776   1.257   9.176  1.00 66.24 LIG 0.27  HD
ATOM     13 HZ1  LYS D 110      -9.032   2.390   8.652  1.00 66.24 LIG 0.27  HD
ATOM     14 HZ2  LYS D 110      -9.099   1.151   7.895  1.00 66.24 LIG 0.27  HD
ENDBRANCH 10 11
ENDBRANCH 9 10
ENDBRANCH 8 9
ENDBRANCH 7 8
ENDBRANCH 6 7
BRANCH 6 15
ATOM     15  C   LYS D 110     -11.684   0.917  11.164  1.00 56.31 LIG 0.24  C 
ATOM     16  N   GLY D 111     -12.654   1.573  11.804  1.00 59.27 LIG-0.35  N 
ATOM     17 H    GLY D 111     -13.213   2.078  11.389  1.00 59.27 LIG 0.16  HD
ATOM     18 O    LYS D 110     -11.470   1.115   9.969  1.00 65.56 LIG-0.27  OA
BRANCH 16 19
ATOM     19  CA  GLY D 111     -12.897   1.533  13.232  1.00 50.66 LIG 0.23  C 
BRANCH 19 20
ATOM     20  C   GLY D 111     -11.827   2.344  13.950  1.00 62.91 LIG 0.23  C 
ATOM     21  N   GLU D 112     -11.601   2.100  15.245  1.00 61.49 LIG-0.35  N 
ATOM     22 H    GLU D 112     -10.966   2.483  15.682  1.00 61.49 LIG 0.16  HD
ATOM     23 O    GLY D 111     -11.221   3.232  13.328  1.00 69.91 LIG-0.27  OA
BRANCH 21 24
ATOM     24  CA  GLU D 112     -12.385   1.173  16.072  1.00 68.08 LIG 0.16  C 
BRANCH 24 25
ATOM     25  CB  GLU D 112     -11.821  -0.248  15.986  1.00 70.52 LIG 0.04  C 
BRANCH 25 26
ATOM     26  CG  GLU D 112     -12.778  -1.315  16.477  1.00 75.61 LIG 0.12  C 
BRANCH 26 27
ATOM     27  CD  GLU D 112     -14.162  -1.174  15.881  1.00 80.23 LIG 0.17  C 
ATOM     28 OE2  GLU D 112     -14.264  -0.783  14.697  1.00 75.53 LIG-0.65  OA
ATOM     29 OE1  GLU D 112     -15.142  -1.463  16.596  1.00 82.12 LIG-0.65  OA
ENDBRANCH 26 27
ENDBRANCH 25 26
ENDBRANCH 24 25
BRANCH 24 30
ATOM     30  C   GLU D 112     -12.606   1.570  17.528  1.00 62.49 LIG 0.22  C 
ATOM     31 O    GLU D 112     -13.515   2.346  17.835  1.00 75.48 LIG-0.29  OA
ENDBRANCH 24 30
ENDBRANCH 21 24
ENDBRANCH 19 20
ENDBRANCH 16 19
ENDBRANCH 6 15
ENDBRANCH 4 6
ENDBRANCH 1 2
BRANCH 1 32
ATOM     32  CB  SER D 109     -12.711  -3.194  13.774  1.00 41.32 LIG 0.20  C 
BRANCH 32 33
ATOM     33 OG   SER D 109     -11.749  -4.089  14.307  1.00 47.11 LIG-0.40  OA
ATOM     34 HG   SER D 109     -11.091  -3.655  14.597  1.00 47.11 LIG 0.21  HD
ENDBRANCH 32 33
ENDBRANCH 1 32
BRANCH 1 35
ATOM     35  N   SER D 109     -12.197  -4.572  11.781  1.00 33.49 LIG-0.34  N 
ATOM     36 H    SER D 109     -11.414  -4.756  12.086  1.00 33.49 LIG 0.16  HD
ATOM     37  C   ARG D 108     -12.881  -5.347  10.941  1.00 29.49 LIG 0.24  C 
ATOM     38 O    ARG D 108     -14.054  -5.129  10.626  1.00 22.63 LIG-0.27  OA
BRANCH 37 39
ATOM     39  CA  ARG D 108     -12.159  -6.558  10.391  1.00 38.27 LIG 0.18  C 
BRANCH 39 40
ATOM     40  N   ARG D 108     -11.913  -7.567  11.429  1.00 22.07 LIG-0.35  N 
ATOM     41 H    ARG D 108     -12.430  -8.254  11.405  1.00 22.07 LIG 0.16  HD
ATOM     42  C   PHE D 107     -10.949  -7.373  12.310  1.00 20.48 LIG 0.26  C 
ATOM     43 O    PHE D 107     -10.206  -6.408  12.250  1.00 25.48 LIG-0.27  OA
BRANCH 42 44
ATOM     44  CA  PHE D 107     -10.756  -8.413  13.408  1.00 18.28 LIG 0.40  C 
ATOM     45  N   PHE D 107     -11.511  -9.597  13.056  1.00 19.80 LIG 0.61  N 
BRANCH 44 46
ATOM     46  CB  PHE D 107      -9.295  -8.768  13.590  1.00 13.52 LIG 0.09  C 
BRANCH 46 47
ATOM     47  CG  PHE D 107      -8.506  -7.713  14.307  1.00 17.60 LIG-0.06  A 
ATOM     48  CD1 PHE D 107      -9.042  -7.043  15.406  1.00 15.50 LIG 0.01  A 
ATOM     49  CE1 PHE D 107      -8.299  -6.075  16.070  1.00 13.30 LIG 0.00  A 
ATOM     50  CZ  PHE D 107      -7.029  -5.718  15.625  1.00 10.86 LIG 0.00  A 
ATOM     51  CE2 PHE D 107      -6.480  -6.378  14.550  1.00 17.40 LIG 0.00  A 
ATOM     52  CD2 PHE D 107      -7.216  -7.375  13.884  1.00 18.44 LIG 0.01  A 
ENDBRANCH 46 47
ENDBRANCH 44 46
ENDBRANCH 42 44
ENDBRANCH 39 40
BRANCH 39 53
ATOM     53  CB  ARG D 108     -12.929  -7.138   9.196  1.00 35.28 LIG 0.04  C 
BRANCH 53 54
ATOM     54  CG  ARG D 108     -14.011  -8.153   9.519  1.00 41.69 LIG 0.02  C 
BRANCH 54 55
ATOM     55  CD  ARG D 108     -14.300  -9.148   8.361  1.00 52.08 LIG 0.14  C 
BRANCH 55 56
ATOM     56  NE  ARG D 108     -13.308 -10.215   8.195  1.00 57.02 LIG-0.23  N 
ATOM     57  CZ  ARG D 108     -13.046 -10.835   7.038  1.00 70.73 LIG 0.67  C 
ATOM     58  NH1 ARG D 108     -13.722 -10.520   5.931  1.00 60.72 LIG-0.23  N 
ATOM     59  NH2 ARG D 108     -12.113 -11.787   6.985  1.00 54.42 LIG-0.23  N 
ATOM     60 2HH1 ARG D 108     -13.548 -10.923   5.192  1.00 60.72 LIG 0.17  HD
ATOM     61 1HH1 ARG D 108     -14.331  -9.913   5.958  1.00 60.72 LIG 0.17  HD
ATOM     62 2HH2 ARG D 108     -11.946 -12.184   6.242  1.00 54.42 LIG 0.17  HD
ATOM     63 1HH2 ARG D 108     -11.678 -12.003   7.696  1.00 54.42 LIG 0.17  HD
ATOM     64 HE   ARG D 108     -12.863 -10.460   8.890  1.00 57.02 LIG 0.18  HD
ENDBRANCH 55 56
ENDBRANCH 54 55
ENDBRANCH 53 54
ENDBRANCH 39 53
ENDBRANCH 37 39
ENDBRANCH 1 35
TORSDOF 27
ENDMDL
MODEL 14
USER: ADFR SOLUTION from run 62
USER: SCORE 19.221862 LL:  -4.534 LR: -15.303 RR:   0.000 FEB:  -7.249
USER: RMSD 8.388748
USER: SEED 61
USER: STATUS no improvement in best in 9 clusters for 5 generations
USER: GENES 29
USER: genes 0 Translation |==|  0.53415 0.66509 0.40530
USER: genes 1 Rotation |==|  0.03074 0.56170 0.61143 0.61650
USER: genes 2 Torsion [N]-CA--C-[N] |==|  0.35023
USER: genes 3 Torsion [C]-N--CA-[CB] |==|  0.74163
USER: genes 4 Torsion [N]-CA--CB-[CG] |==|  0.03538
USER: genes 5 Torsion [CA]-CB--CG-[CD] |==|  0.65376
USER: genes 6 Torsion [CB]-CG--CD-[CE] |==|  0.35019
USER: genes 7 Torsion [CG]-CD--CE-[NZ] |==|  0.22832
USER: genes 8 Torsion [CD]-CE--NZ-[HZ3] |==|  0.28735
USER: genes 9 Torsion [N]-CA--C-[N] |==|  0.26941
USER: genes 10 Torsion [C]-N--CA-[C] |==|  0.69516
USER: genes 11 Torsion [N]-CA--C-[N] |==|  0.50099
USER: genes 12 Torsion [C]-N--CA-[CB] |==|  0.49151
USER: genes 13 Torsion [N]-CA--CB-[CG] |==|  0.42734
USER: genes 14 Torsion [CA]-CB--CG-[CD] |==|  0.55548
USER: genes 15 Torsion [CB]-CG--CD-[OE2] |==|  0.01071
USER: genes 16 Torsion [N]-CA--C-[O] |==|  0.28088
USER: genes 17 Torsion [C]-CA--CB-[OG] |==|  0.21453
USER: genes 18 Torsion [CA]-CB--OG-[HG] |==|  0.39718
USER: genes 19 Torsion [C]-CA--N-[C] |==|  0.86102
USER: genes 20 Torsion [N]-C--CA-[N] |==|  0.43713
USER: genes 21 Torsion [C]-CA--N-[C] |==|  0.64376
USER: genes 22 Torsion [N]-C--CA-[N] |==|  0.33354
USER: genes 23 Torsion [C]-CA--CB-[CG] |==|  0.27697
USER: genes 24 Torsion [CA]-CB--CG-[CD1] |==|  0.05102
USER: genes 25 Torsion [C]-CA--CB-[CG] |==|  0.30791
USER: genes 26 Torsion [CA]-CB--CG-[CD] |==|  0.71570
USER: genes 27 Torsion [CB]-CG--CD-[NE] |==|  0.96554
USER: genes 28 Torsion [CG]-CD--NE-[HE] |==|  0.00266
ROOT
ATOM      1  CA  SER D 109     -10.948  -0.035  11.917  1.00 42.91 LIG 0.20  C 
ENDROOT
BRANCH 1 2
ATOM      2  C   SER D 109     -11.903   0.426  13.001  1.00 45.81 LIG 0.24  C 
ATOM      3 O    SER D 109     -13.113   0.476  12.786  1.00 48.15 LIG-0.27  OA
ATOM      4  N   LYS D 110     -11.369   0.783  14.164  1.00 56.31 LIG-0.35  N 
ATOM      5 H    LYS D 110     -10.527   0.878  14.312  1.00 56.31 LIG 0.16  HD
BRANCH 4 6
ATOM      6  CA  LYS D 110     -12.243   1.044  15.312  1.00 51.35 LIG 0.18  C 
BRANCH 6 7
ATOM      7  CB  LYS D 110     -12.579   2.539  15.373  1.00 62.96 LIG 0.04  C 
BRANCH 7 8
ATOM      8  CG  LYS D 110     -12.191   3.267  14.094  1.00 63.09 LIG 0.00  C 
BRANCH 8 9
ATOM      9  CD  LYS D 110     -11.266   4.451  14.345  1.00 65.88 LIG 0.03  C 
BRANCH 9 10
ATOM     10  CE  LYS D 110     -10.003   4.331  13.486  1.00 57.43 LIG 0.23  C 
BRANCH 10 11
ATOM     11  NZ  LYS D 110     -10.216   4.818  12.097  1.00 66.24 LIG-0.08  N 
ATOM     12 HZ3  LYS D 110      -9.847   5.622  12.004  1.00 66.24 LIG 0.27  HD
ATOM     13 HZ1  LYS D 110      -9.840   4.251  11.523  1.00 66.24 LIG 0.27  HD
ATOM     14 HZ2  LYS D 110     -11.089   4.872  11.932  1.00 66.24 LIG 0.27  HD
ENDBRANCH 10 11
ENDBRANCH 9 10
ENDBRANCH 8 9
ENDBRANCH 7 8
ENDBRANCH 6 7
BRANCH 6 15
ATOM     15  C   LYS D 110     -13.497   0.169  15.575  1.00 56.31 LIG 0.24  C 
ATOM     16  N   GLY D 111     -13.440  -0.843  16.445  1.00 59.27 LIG-0.35  N 
ATOM     17 H    GLY D 111     -14.096  -1.387  16.554  1.00 59.27 LIG 0.16  HD
ATOM     18 O    LYS D 110     -14.545   0.441  14.992  1.00 65.56 LIG-0.27  OA
BRANCH 16 19
ATOM     19  CA  GLY D 111     -12.310  -1.158  17.296  1.00 50.66 LIG 0.23  C 
BRANCH 19 20
ATOM     20  C   GLY D 111     -11.656  -2.445  16.812  1.00 62.91 LIG 0.23  C 
ATOM     21  N   GLU D 112     -10.593  -2.911  17.475  1.00 61.49 LIG-0.35  N 
ATOM     22 H    GLU D 112     -10.225  -3.665  17.284  1.00 61.49 LIG 0.16  HD
ATOM     23 O    GLY D 111     -12.102  -3.006  15.797  1.00 69.91 LIG-0.27  OA
BRANCH 21 24
ATOM     24  CA  GLU D 112      -9.928  -2.216  18.586  1.00 68.08 LIG 0.16  C 
BRANCH 24 25
ATOM     25  CB  GLU D 112      -8.793  -3.065  19.163  1.00 70.52 LIG 0.04  C 
BRANCH 25 26
ATOM     26  CG  GLU D 112      -7.700  -2.253  19.827  1.00 75.61 LIG 0.12  C 
BRANCH 26 27
ATOM     27  CD  GLU D 112      -6.401  -3.020  19.953  1.00 80.23 LIG 0.17  C 
ATOM     28 OE2  GLU D 112      -6.334  -4.166  19.453  1.00 75.53 LIG-0.65  OA
ATOM     29 OE1  GLU D 112      -5.449  -2.471  20.544  1.00 82.12 LIG-0.65  OA
ENDBRANCH 26 27
ENDBRANCH 25 26
ENDBRANCH 24 25
BRANCH 24 30
ATOM     30  C   GLU D 112      -9.445  -0.795  18.315  1.00 62.49 LIG 0.22  C 
ATOM     31 O    GLU D 112     -10.096   0.176  18.713  1.00 75.48 LIG-0.29  OA
ENDBRANCH 24 30
ENDBRANCH 21 24
ENDBRANCH 19 20
ENDBRANCH 16 19
ENDBRANCH 6 15
ENDBRANCH 4 6
ENDBRANCH 1 2
BRANCH 1 32
ATOM     32  CB  SER D 109     -10.882   1.005  10.805  1.00 41.32 LIG 0.20  C 
BRANCH 32 33
ATOM     33 OG   SER D 109     -10.077   2.105  11.192  1.00 47.11 LIG-0.40  OA
ATOM     34 HG   SER D 109      -9.641   2.381  10.529  1.00 47.11 LIG 0.21  HD
ENDBRANCH 32 33
ENDBRANCH 1 32
BRANCH 1 35
ATOM     35  N   SER D 109     -11.327  -1.359  11.398  1.00 33.49 LIG-0.34  N 
ATOM     36 H    SER D 109     -11.375  -1.414  10.541  1.00 33.49 LIG 0.16  HD
ATOM     37  C   ARG D 108     -11.568  -2.369  12.234  1.00 29.49 LIG 0.24  C 
ATOM     38 O    ARG D 108     -11.359  -2.303  13.448  1.00 22.63 LIG-0.27  OA
BRANCH 37 39
ATOM     39  CA  ARG D 108     -12.095  -3.648  11.621  1.00 38.27 LIG 0.18  C 
BRANCH 39 40
ATOM     40  N   ARG D 108     -11.828  -4.814  12.474  1.00 22.07 LIG-0.35  N 
ATOM     41 H    ARG D 108     -12.079  -4.737  13.293  1.00 22.07 LIG 0.16  HD
ATOM     42  C   PHE D 107     -11.239  -5.877  11.958  1.00 20.48 LIG 0.26  C 
ATOM     43 O    PHE D 107     -10.966  -5.950  10.771  1.00 25.48 LIG-0.27  OA
BRANCH 42 44
ATOM     44  CA  PHE D 107     -10.927  -7.047  12.882  1.00 18.28 LIG 0.40  C 
ATOM     45  N   PHE D 107     -11.623  -8.218  12.391  1.00 19.80 LIG 0.61  N 
BRANCH 44 46
ATOM     46  CB  PHE D 107      -9.439  -7.323  12.951  1.00 13.52 LIG 0.09  C 
BRANCH 46 47
ATOM     47  CG  PHE D 107      -8.779  -6.752  14.171  1.00 17.60 LIG-0.06  A 
ATOM     48  CD1 PHE D 107      -9.531  -6.387  15.286  1.00 15.50 LIG 0.01  A 
ATOM     49  CE1 PHE D 107      -8.909  -5.870  16.415  1.00 13.30 LIG 0.00  A 
ATOM     50  CZ  PHE D 107      -7.534  -5.658  16.440  1.00 10.86 LIG 0.00  A 
ATOM     51  CE2 PHE D 107      -6.774  -6.024  15.353  1.00 17.40 LIG 0.00  A 
ATOM     52  CD2 PHE D 107      -7.392  -6.568  14.213  1.00 18.44 LIG 0.01  A 
ENDBRANCH 46 47
ENDBRANCH 44 46
ENDBRANCH 42 44
ENDBRANCH 39 40
BRANCH 39 53
ATOM     53  CB  ARG D 108     -13.588  -3.505  11.295  1.00 35.28 LIG 0.04  C 
BRANCH 53 54
ATOM     54  CG  ARG D 108     -13.955  -3.461   9.822  1.00 41.69 LIG 0.02  C 
BRANCH 54 55
ATOM     55  CD  ARG D 108     -14.269  -2.032   9.299  1.00 52.08 LIG 0.14  C 
BRANCH 55 56
ATOM     56  NE  ARG D 108     -14.441  -1.013  10.340  1.00 57.02 LIG-0.23  N 
ATOM     57  CZ  ARG D 108     -14.733   0.272  10.103  1.00 70.73 LIG 0.67  C 
ATOM     58  NH1 ARG D 108     -14.861   0.719   8.852  1.00 60.72 LIG-0.23  N 
ATOM     59  NH2 ARG D 108     -14.884   1.122  11.120  1.00 54.42 LIG-0.23  N 
ATOM     60 2HH1 ARG D 108     -15.048   1.546   8.708  1.00 60.72 LIG 0.17  HD
ATOM     61 1HH1 ARG D 108     -14.757   0.180   8.190  1.00 60.72 LIG 0.17  HD
ATOM     62 2HH2 ARG D 108     -15.071   1.947  10.966  1.00 54.42 LIG 0.17  HD
ATOM     63 1HH2 ARG D 108     -14.794   0.845  11.929  1.00 54.42 LIG 0.17  HD
ATOM     64 HE   ARG D 108     -14.348  -1.258  11.159  1.00 57.02 LIG 0.18  HD
ENDBRANCH 55 56
ENDBRANCH 54 55
ENDBRANCH 53 54
ENDBRANCH 39 53
ENDBRANCH 37 39
ENDBRANCH 1 35
TORSDOF 27
ENDMDL
MODEL 15
USER: ADFR SOLUTION from run 68
USER: SCORE 20.828267 LL:  -6.650 LR: -15.292 RR:   0.000 FEB:  -7.238
USER: RMSD 4.476118
USER: SEED 67
USER: STATUS no improvement in best in 5 clusters for 5 generations
USER: GENES 29
USER: genes 0 Translation |==|  0.43074 0.49512 0.47596
USER: genes 1 Rotation |==|  0.40063 0.19466 0.65887 0.84879
USER: genes 2 Torsion [N]-CA--C-[N] |==|  0.92898
USER: genes 3 Torsion [C]-N--CA-[CB] |==|  0.53030
USER: genes 4 Torsion [N]-CA--CB-[CG] |==|  0.58444
USER: genes 5 Torsion [CA]-CB--CG-[CD] |==|  0.75817
USER: genes 6 Torsion [CB]-CG--CD-[CE] |==|  0.47032
USER: genes 7 Torsion [CG]-CD--CE-[NZ] |==|  0.63145
USER: genes 8 Torsion [CD]-CE--NZ-[HZ3] |==|  0.16534
USER: genes 9 Torsion [N]-CA--C-[N] |==|  0.27222
USER: genes 10 Torsion [C]-N--CA-[C] |==|  0.16736
USER: genes 11 Torsion [N]-CA--C-[N] |==|  0.69110
USER: genes 12 Torsion [C]-N--CA-[CB] |==|  0.40722
USER: genes 13 Torsion [N]-CA--CB-[CG] |==|  0.50693
USER: genes 14 Torsion [CA]-CB--CG-[CD] |==|  0.35723
USER: genes 15 Torsion [CB]-CG--CD-[OE2] |==|  0.53561
USER: genes 16 Torsion [N]-CA--C-[O] |==|  0.38311
USER: genes 17 Torsion [C]-CA--CB-[OG] |==|  0.19472
USER: genes 18 Torsion [CA]-CB--OG-[HG] |==|  0.65916
USER: genes 19 Torsion [C]-CA--N-[C] |==|  0.83095
USER: genes 20 Torsion [N]-C--CA-[N] |==|  0.42080
USER: genes 21 Torsion [C]-CA--N-[C] |==|  0.81247
USER: genes 22 Torsion [N]-C--CA-[N] |==|  0.43564
USER: genes 23 Torsion [C]-CA--CB-[CG] |==|  0.43869
USER: genes 24 Torsion [CA]-CB--CG-[CD1] |==|  0.39315
USER: genes 25 Torsion [C]-CA--CB-[CG] |==|  0.38026
USER: genes 26 Torsion [CA]-CB--CG-[CD] |==|  0.88984
USER: genes 27 Torsion [CB]-CG--CD-[NE] |==|  0.24363
USER: genes 28 Torsion [CG]-CD--NE-[HE] |==|  0.13979
ROOT
ATOM      1  CA  SER D 109     -13.274  -3.477  13.613  1.00 42.91 LIG 0.20  C 
ENDROOT
BRANCH 1 2
ATOM      2  C   SER D 109     -12.968  -4.763  12.869  1.00 45.81 LIG 0.24  C 
ATOM      3 O    SER D 109     -12.325  -5.659  13.412  1.00 48.15 LIG-0.27  OA
ATOM      4  N   LYS D 110     -13.408  -4.856  11.619  1.00 56.31 LIG-0.35  N 
ATOM      5 H    LYS D 110     -13.751  -4.210  11.167  1.00 56.31 LIG 0.16  HD
BRANCH 4 6
ATOM      6  CA  LYS D 110     -13.323  -6.140  10.916  1.00 51.35 LIG 0.18  C 
BRANCH 6 7
ATOM      7  CB  LYS D 110     -13.632  -5.933   9.429  1.00 62.96 LIG 0.04  C 
BRANCH 7 8
ATOM      8  CG  LYS D 110     -14.277  -7.159   8.800  1.00 63.09 LIG 0.00  C 
BRANCH 8 9
ATOM      9  CD  LYS D 110     -13.257  -8.167   8.286  1.00 65.88 LIG 0.03  C 
BRANCH 9 10
ATOM     10  CE  LYS D 110     -13.949  -9.480   7.912  1.00 57.43 LIG 0.23  C 
BRANCH 10 11
ATOM     11  NZ  LYS D 110     -13.245 -10.667   8.465  1.00 66.24 LIG-0.08  N 
ATOM     12 HZ3  LYS D 110     -13.216 -10.609   9.353  1.00 66.24 LIG 0.27  HD
ATOM     13 HZ1  LYS D 110     -13.682 -11.407   8.231  1.00 66.24 LIG 0.27  HD
ATOM     14 HZ2  LYS D 110     -12.416 -10.698   8.143  1.00 66.24 LIG 0.27  HD
ENDBRANCH 10 11
ENDBRANCH 9 10
ENDBRANCH 8 9
ENDBRANCH 7 8
ENDBRANCH 6 7
BRANCH 6 15
ATOM     15  C   LYS D 110     -12.106  -7.081  11.119  1.00 56.31 LIG 0.24  C 
ATOM     16  N   GLY D 111     -12.184  -8.105  11.972  1.00 59.27 LIG-0.35  N 
ATOM     17 H    GLY D 111     -11.503  -8.596  12.157  1.00 59.27 LIG 0.16  HD
ATOM     18 O    LYS D 110     -11.086  -6.882  10.462  1.00 65.56 LIG-0.27  OA
BRANCH 16 19
ATOM     19  CA  GLY D 111     -13.378  -8.522  12.680  1.00 50.66 LIG 0.23  C 
BRANCH 19 20
ATOM     20  C   GLY D 111     -14.455  -8.904  11.673  1.00 62.91 LIG 0.23  C 
ATOM     21  N   GLU D 112     -15.535  -8.124  11.565  1.00 61.49 LIG-0.35  N 
ATOM     22 H    GLU D 112     -16.141  -8.257  10.970  1.00 61.49 LIG 0.16  HD
ATOM     23 O    GLY D 111     -14.320  -9.945  11.009  1.00 69.91 LIG-0.27  OA
BRANCH 21 24
ATOM     24  CA  GLU D 112     -15.823  -6.968  12.425  1.00 68.08 LIG 0.16  C 
BRANCH 24 25
ATOM     25  CB  GLU D 112     -16.553  -5.873  11.645  1.00 70.52 LIG 0.04  C 
BRANCH 25 26
ATOM     26  CG  GLU D 112     -16.828  -4.624  12.458  1.00 75.61 LIG 0.12  C 
BRANCH 26 27
ATOM     27  CD  GLU D 112     -16.359  -3.363  11.763  1.00 80.23 LIG 0.17  C 
ATOM     28 OE2  GLU D 112     -16.305  -2.303  12.425  1.00 75.53 LIG-0.65  OA
ATOM     29 OE1  GLU D 112     -16.037  -3.440  10.561  1.00 82.12 LIG-0.65  OA
ENDBRANCH 26 27
ENDBRANCH 25 26
ENDBRANCH 24 25
BRANCH 24 30
ATOM     30  C   GLU D 112     -16.541  -7.253  13.740  1.00 62.49 LIG 0.22  C 
ATOM     31 O    GLU D 112     -16.193  -6.686  14.780  1.00 75.48 LIG-0.29  OA
ENDBRANCH 24 30
ENDBRANCH 21 24
ENDBRANCH 19 20
ENDBRANCH 16 19
ENDBRANCH 6 15
ENDBRANCH 4 6
ENDBRANCH 1 2
BRANCH 1 32
ATOM     32  CB  SER D 109     -14.491  -3.671  14.509  1.00 41.32 LIG 0.20  C 
BRANCH 32 33
ATOM     33 OG   SER D 109     -14.184  -4.526  15.598  1.00 47.11 LIG-0.40  OA
ATOM     34 HG   SER D 109     -14.706  -5.183  15.594  1.00 47.11 LIG 0.21  HD
ENDBRANCH 32 33
ENDBRANCH 1 32
BRANCH 1 35
ATOM     35  N   SER D 109     -13.462  -2.352  12.682  1.00 33.49 LIG-0.34  N 
ATOM     36 H    SER D 109     -14.237  -1.981  12.712  1.00 33.49 LIG 0.16  HD
ATOM     37  C   ARG D 108     -12.474  -1.974  11.872  1.00 29.49 LIG 0.24  C 
ATOM     38 O    ARG D 108     -11.331  -2.432  11.944  1.00 22.63 LIG-0.27  OA
BRANCH 37 39
ATOM     39  CA  ARG D 108     -12.804  -0.910  10.848  1.00 38.27 LIG 0.18  C 
BRANCH 39 40
ATOM     40  N   ARG D 108     -11.627  -0.106  10.495  1.00 22.07 LIG-0.35  N 
ATOM     41 H    ARG D 108     -11.341  -0.205   9.689  1.00 22.07 LIG 0.16  HD
ATOM     42  C   PHE D 107     -11.090   0.694  11.398  1.00 20.48 LIG 0.26  C 
ATOM     43 O    PHE D 107     -11.584   0.840  12.504  1.00 25.48 LIG-0.27  OA
BRANCH 42 44
ATOM     44  CA  PHE D 107      -9.837   1.473  11.017  1.00 18.28 LIG 0.40  C 
ATOM     45  N   PHE D 107      -9.742   2.637  11.872  1.00 19.80 LIG 0.61  N 
BRANCH 44 46
ATOM     46  CB  PHE D 107      -8.590   0.626  11.156  1.00 13.52 LIG 0.09  C 
BRANCH 46 47
ATOM     47  CG  PHE D 107      -7.436   1.115  10.334  1.00 17.60 LIG-0.06  A 
ATOM     48  CD1 PHE D 107      -6.134   1.068  10.829  1.00 15.50 LIG 0.01  A 
ATOM     49  CE1 PHE D 107      -5.070   1.514  10.055  1.00 13.30 LIG 0.00  A 
ATOM     50  CZ  PHE D 107      -5.284   2.062   8.794  1.00 10.86 LIG 0.00  A 
ATOM     51  CE2 PHE D 107      -6.561   2.106   8.284  1.00 17.40 LIG 0.00  A 
ATOM     52  CD2 PHE D 107      -7.643   1.638   9.052  1.00 18.44 LIG 0.01  A 
ENDBRANCH 46 47
ENDBRANCH 44 46
ENDBRANCH 42 44
ENDBRANCH 39 40
BRANCH 39 53
ATOM     53  CB  ARG D 108     -13.457  -1.546   9.612  1.00 35.28 LIG 0.04  C 
BRANCH 53 54
ATOM     54  CG  ARG D 108     -14.658  -0.819   9.033  1.00 41.69 LIG 0.02  C 
BRANCH 54 55
ATOM     55  CD  ARG D 108     -15.611  -0.233  10.111  1.00 52.08 LIG 0.14  C 
BRANCH 55 56
ATOM     56  NE  ARG D 108     -15.272   1.116  10.575  1.00 57.02 LIG-0.23  N 
ATOM     57  CZ  ARG D 108     -15.163   1.471  11.861  1.00 70.73 LIG 0.67  C 
ATOM     58  NH1 ARG D 108     -15.395   0.585  12.832  1.00 60.72 LIG-0.23  N 
ATOM     59  NH2 ARG D 108     -14.835   2.724  12.184  1.00 54.42 LIG-0.23  N 
ATOM     60 2HH1 ARG D 108     -15.324   0.822  13.655  1.00 60.72 LIG 0.17  HD
ATOM     61 1HH1 ARG D 108     -15.616  -0.222  12.633  1.00 60.72 LIG 0.17  HD
ATOM     62 2HH2 ARG D 108     -14.766   2.950  13.010  1.00 54.42 LIG 0.17  HD
ATOM     63 1HH2 ARG D 108     -14.692   3.304  11.565  1.00 54.42 LIG 0.17  HD
ATOM     64 HE   ARG D 108     -15.132   1.721   9.980  1.00 57.02 LIG 0.18  HD
ENDBRANCH 55 56
ENDBRANCH 54 55
ENDBRANCH 53 54
ENDBRANCH 39 53
ENDBRANCH 37 39
ENDBRANCH 1 35
TORSDOF 27
ENDMDL
MODEL 16
USER: ADFR SOLUTION from run 196
USER: SCORE 18.455123 LL:  -5.141 LR: -15.251 RR:   0.000 FEB:  -7.197
USER: RMSD 9.904737
USER: SEED 195
USER: STATUS searching
USER: GENES 29
USER: genes 0 Translation |==|  0.45884 0.50930 0.41516
USER: genes 1 Rotation |==|  0.38391 0.54874 0.03663 0.63943
USER: genes 2 Torsion [N]-CA--C-[N] |==|  0.72338
USER: genes 3 Torsion [C]-N--CA-[CB] |==|  0.74467
USER: genes 4 Torsion [N]-CA--CB-[CG] |==|  0.65118
USER: genes 5 Torsion [CA]-CB--CG-[CD] |==|  0.63842
USER: genes 6 Torsion [CB]-CG--CD-[CE] |==|  0.97987
USER: genes 7 Torsion [CG]-CD--CE-[NZ] |==|  0.25935
USER: genes 8 Torsion [CD]-CE--NZ-[HZ3] |==|  0.73789
USER: genes 9 Torsion [N]-CA--C-[N] |==|  0.13821
USER: genes 10 Torsion [C]-N--CA-[C] |==|  0.14555
USER: genes 11 Torsion [N]-CA--C-[N] |==|  0.14959
USER: genes 12 Torsion [C]-N--CA-[CB] |==|  0.29928
USER: genes 13 Torsion [N]-CA--CB-[CG] |==|  0.64416
USER: genes 14 Torsion [CA]-CB--CG-[CD] |==|  0.17901
USER: genes 15 Torsion [CB]-CG--CD-[OE2] |==|  0.12216
USER: genes 16 Torsion [N]-CA--C-[O] |==|  0.88659
USER: genes 17 Torsion [C]-CA--CB-[OG] |==|  0.68843
USER: genes 18 Torsion [CA]-CB--OG-[HG] |==|  0.31320
USER: genes 19 Torsion [C]-CA--N-[C] |==|  0.67607
USER: genes 20 Torsion [N]-C--CA-[N] |==|  0.21064
USER: genes 21 Torsion [C]-CA--N-[C] |==|  0.80556
USER: genes 22 Torsion [N]-C--CA-[N] |==|  0.54109
USER: genes 23 Torsion [C]-CA--CB-[CG] |==|  0.88836
USER: genes 24 Torsion [CA]-CB--CG-[CD1] |==|  0.29679
USER: genes 25 Torsion [C]-CA--CB-[CG] |==|  0.76485
USER: genes 26 Torsion [CA]-CB--CG-[CD] |==|  0.57472
USER: genes 27 Torsion [CB]-CG--CD-[NE] |==|  0.21597
USER: genes 28 Torsion [CG]-CD--NE-[HE] |==|  0.07571
ROOT
ATOM      1  CA  SER D 109     -12.642  -3.190  12.154  1.00 42.91 LIG 0.20  C 
ENDROOT
BRANCH 1 2
ATOM      2  C   SER D 109     -11.977  -1.979  11.527  1.00 45.81 LIG 0.24  C 
ATOM      3 O    SER D 109     -12.294  -1.609  10.398  1.00 48.15 LIG-0.27  OA
ATOM      4  N   LYS D 110     -11.040  -1.367  12.242  1.00 56.31 LIG-0.35  N 
ATOM      5 H    LYS D 110     -10.706  -1.666  12.977  1.00 56.31 LIG 0.16  HD
BRANCH 4 6
ATOM      6  CA  LYS D 110     -10.503  -0.082  11.784  1.00 51.35 LIG 0.18  C 
BRANCH 6 7
ATOM      7  CB  LYS D 110      -9.263  -0.324  10.915  1.00 62.96 LIG 0.04  C 
BRANCH 7 8
ATOM      8  CG  LYS D 110      -8.052   0.450  11.416  1.00 63.09 LIG 0.00  C 
BRANCH 8 9
ATOM      9  CD  LYS D 110      -7.357   1.240  10.314  1.00 65.88 LIG 0.03  C 
BRANCH 9 10
ATOM     10  CE  LYS D 110      -7.966   0.898   8.950  1.00 57.43 LIG 0.23  C 
BRANCH 10 11
ATOM     11  NZ  LYS D 110      -9.051   1.838   8.565  1.00 66.24 LIG-0.08  N 
ATOM     12 HZ3  LYS D 110      -9.838   1.500   8.808  1.00 66.24 LIG 0.27  HD
ATOM     13 HZ1  LYS D 110      -8.926   2.619   8.972  1.00 66.24 LIG 0.27  HD
ATOM     14 HZ2  LYS D 110      -9.041   1.959   7.683  1.00 66.24 LIG 0.27  HD
ENDBRANCH 10 11
ENDBRANCH 9 10
ENDBRANCH 8 9
ENDBRANCH 7 8
ENDBRANCH 6 7
BRANCH 6 15
ATOM     15  C   LYS D 110     -11.432   0.994  11.162  1.00 56.31 LIG 0.24  C 
ATOM     16  N   GLY D 111     -12.557   1.351  11.785  1.00 59.27 LIG-0.35  N 
ATOM     17 H    GLY D 111     -13.125   1.889  11.428  1.00 59.27 LIG 0.16  HD
ATOM     18 O    LYS D 110     -11.099   1.527  10.105  1.00 65.56 LIG-0.27  OA
BRANCH 16 19
ATOM     19  CA  GLY D 111     -12.970   0.903  13.100  1.00 50.66 LIG 0.23  C 
BRANCH 19 20
ATOM     20  C   GLY D 111     -11.843   1.149  14.095  1.00 62.91 LIG 0.23  C 
ATOM     21  N   GLU D 112     -11.331   2.380  14.189  1.00 61.49 LIG-0.35  N 
ATOM     22 H    GLU D 112     -10.739   2.589  14.777  1.00 61.49 LIG 0.16  HD
ATOM     23 O    GLY D 111     -11.405   0.197  14.762  1.00 69.91 LIG-0.27  OA
BRANCH 21 24
ATOM     24  CA  GLU D 112     -11.700   3.509  13.324  1.00 68.08 LIG 0.16  C 
BRANCH 24 25
ATOM     25  CB  GLU D 112     -12.547   4.530  14.087  1.00 70.52 LIG 0.04  C 
BRANCH 25 26
ATOM     26  CG  GLU D 112     -13.840   4.896  13.387  1.00 75.61 LIG 0.12  C 
BRANCH 26 27
ATOM     27  CD  GLU D 112     -14.788   3.721  13.269  1.00 80.23 LIG 0.17  C 
ATOM     28 OE2  GLU D 112     -14.948   2.981  14.265  1.00 75.53 LIG-0.65  OA
ATOM     29 OE1  GLU D 112     -15.377   3.549  12.182  1.00 82.12 LIG-0.65  OA
ENDBRANCH 26 27
ENDBRANCH 25 26
ENDBRANCH 24 25
BRANCH 24 30
ATOM     30  C   GLU D 112     -10.563   4.208  12.584  1.00 62.49 LIG 0.22  C 
ATOM     31 O    GLU D 112      -9.487   4.425  13.150  1.00 75.48 LIG-0.29  OA
ENDBRANCH 24 30
ENDBRANCH 21 24
ENDBRANCH 19 20
ENDBRANCH 16 19
ENDBRANCH 6 15
ENDBRANCH 4 6
ENDBRANCH 1 2
BRANCH 1 32
ATOM     32  CB  SER D 109     -12.544  -3.108  13.672  1.00 41.32 LIG 0.20  C 
BRANCH 32 33
ATOM     33 OG   SER D 109     -11.690  -4.121  14.177  1.00 47.11 LIG-0.40  OA
ATOM     34 HG   SER D 109     -10.999  -3.769  14.501  1.00 47.11 LIG 0.21  HD
ENDBRANCH 32 33
ENDBRANCH 1 32
BRANCH 1 35
ATOM     35  N   SER D 109     -12.064  -4.443  11.641  1.00 33.49 LIG-0.34  N 
ATOM     36 H    SER D 109     -11.233  -4.562  11.825  1.00 33.49 LIG 0.16  HD
ATOM     37  C   ARG D 108     -12.815  -5.298  10.947  1.00 29.49 LIG 0.24  C 
ATOM     38 O    ARG D 108     -14.035  -5.170  10.814  1.00 22.63 LIG-0.27  OA
BRANCH 37 39
ATOM     39  CA  ARG D 108     -12.103  -6.484  10.333  1.00 38.27 LIG 0.18  C 
BRANCH 39 40
ATOM     40  N   ARG D 108     -11.775  -7.505  11.337  1.00 22.07 LIG-0.35  N 
ATOM     41 H    ARG D 108     -12.225  -8.236  11.280  1.00 22.07 LIG 0.16  HD
ATOM     42  C   PHE D 107     -10.843  -7.256  12.238  1.00 20.48 LIG 0.26  C 
ATOM     43 O    PHE D 107     -10.192  -6.224  12.224  1.00 25.48 LIG-0.27  OA
BRANCH 42 44
ATOM     44  CA  PHE D 107     -10.565  -8.314  13.299  1.00 18.28 LIG 0.40  C 
ATOM     45  N   PHE D 107      -9.788  -7.708  14.360  1.00 19.80 LIG 0.61  N 
BRANCH 44 46
ATOM     46  CB  PHE D 107     -11.847  -8.889  13.862  1.00 13.52 LIG 0.09  C 
BRANCH 46 47
ATOM     47  CG  PHE D 107     -12.920  -7.865  14.082  1.00 17.60 LIG-0.06  A 
ATOM     48  CD1 PHE D 107     -14.031  -7.802  13.241  1.00 15.50 LIG 0.01  A 
ATOM     49  CE1 PHE D 107     -15.025  -6.856  13.460  1.00 13.30 LIG 0.00  A 
ATOM     50  CZ  PHE D 107     -14.910  -5.922  14.485  1.00 10.86 LIG 0.00  A 
ATOM     51  CE2 PHE D 107     -13.827  -5.977  15.331  1.00 17.40 LIG 0.00  A 
ATOM     52  CD2 PHE D 107     -12.825  -6.944  15.132  1.00 18.44 LIG 0.01  A 
ENDBRANCH 46 47
ENDBRANCH 44 46
ENDBRANCH 42 44
ENDBRANCH 39 40
BRANCH 39 53
ATOM     53  CB  ARG D 108     -12.932  -7.061   9.177  1.00 35.28 LIG 0.04  C 
BRANCH 53 54
ATOM     54  CG  ARG D 108     -14.018  -8.053   9.554  1.00 41.69 LIG 0.02  C 
BRANCH 54 55
ATOM     55  CD  ARG D 108     -14.359  -9.064   8.425  1.00 52.08 LIG 0.14  C 
BRANCH 55 56
ATOM     56  NE  ARG D 108     -13.400 -10.162   8.264  1.00 57.02 LIG-0.23  N 
ATOM     57  CZ  ARG D 108     -13.178 -10.813   7.115  1.00 70.73 LIG 0.67  C 
ATOM     58  NH1 ARG D 108     -13.866 -10.502   6.015  1.00 60.72 LIG-0.23  N 
ATOM     59  NH2 ARG D 108     -12.272 -11.791   7.065  1.00 54.42 LIG-0.23  N 
ATOM     60 2HH1 ARG D 108     -13.718 -10.925   5.281  1.00 60.72 LIG 0.17  HD
ATOM     61 1HH1 ARG D 108     -14.458  -9.879   6.040  1.00 60.72 LIG 0.17  HD
ATOM     62 2HH2 ARG D 108     -12.131 -12.209   6.327  1.00 54.42 LIG 0.17  HD
ATOM     63 1HH2 ARG D 108     -11.830 -12.005   7.771  1.00 54.42 LIG 0.17  HD
ATOM     64 HE   ARG D 108     -12.949 -10.405   8.955  1.00 57.02 LIG 0.18  HD
ENDBRANCH 55 56
ENDBRANCH 54 55
ENDBRANCH 53 54
ENDBRANCH 39 53
ENDBRANCH 37 39
ENDBRANCH 1 35
TORSDOF 27
ENDMDL
