MODEL 1
USER: ADFR SOLUTION from run 131
USER: SCORE 20.700952 LL:  -4.367 LR: -18.465 RR:   0.000 FEB: -12.201
USER: RMSD 10.985481
USER: SEED 130
USER: STATUS 1 or 2 clusters left
USER: GENES 23
USER: genes 0 Translation |==|  0.74415 0.41507 0.46152
USER: genes 1 Rotation |==|  0.75326 0.74172 0.72196 0.77958
USER: genes 2 Torsion [N]-CA--C-[N] |==|  0.14745
USER: genes 3 Torsion [N]-CA--C-[N] |==|  0.87406
USER: genes 4 Torsion [C]-N--CA-[CB] |==|  0.21613
USER: genes 5 Torsion [N]-CA--CB-[CG] |==|  0.10058
USER: genes 6 Torsion [CA]-CB--CG-[CD] |==|  0.16469
USER: genes 7 Torsion [CB]-CG--CD-[OE2] |==|  0.73625
USER: genes 8 Torsion [N]-CA--C-[N] |==|  0.46953
USER: genes 9 Torsion [C]-N--CA-[CB] |==|  0.78756
USER: genes 10 Torsion [N]-CA--C-[O] |==|  0.11930
USER: genes 11 Torsion [C]-CA--CB-[CG] |==|  0.70686
USER: genes 12 Torsion [CA]-CB--CG-[CD] |==|  0.22268
USER: genes 13 Torsion [CB]-CG--CD-[OE1] |==|  0.18472
USER: genes 14 Torsion [C]-CA--N-[C] |==|  0.66665
USER: genes 15 Torsion [N]-C--CA-[N] |==|  0.69387
USER: genes 16 Torsion [C]-CA--CB-[CG] |==|  0.36746
USER: genes 17 Torsion [CA]-CB--CG-[CD2] |==|  0.48222
USER: genes 18 Torsion [CE1]-CZ--OH-[HH] |==|  0.77062
USER: genes 19 Torsion [C]-CA--N-[C] |==|  0.67060
USER: genes 20 Torsion [N]-C--CA-[N] |==|  0.60894
USER: genes 21 Torsion [C]-CA--CB-[CG] |==|  0.75115
USER: genes 22 Torsion [CA]-CB--CG-[OD2] |==|  0.60353
ROOT
ATOM      1  CA  GLU B 137     -28.433  13.036   3.452  1.00 17.35 LIG 0.18  C 
ENDROOT
BRANCH 1 2
ATOM      2  C   GLU B 137     -29.052  13.504   2.120  1.00 17.61 LIG 0.24  C 
ATOM      3 O    GLU B 137     -28.480  14.359   1.450  1.00 18.66 LIG-0.27  OA
ATOM      4  N   PRO B 138     -30.235  12.972   1.739  1.00 16.89 LIG-0.34  N 
ATOM      5  CD  PRO B 138     -31.025  11.957   2.464  1.00 17.79 LIG 0.13  C 
ATOM      6  CA  PRO B 138     -30.901  13.456   0.525  1.00 17.53 LIG 0.18  C 
ATOM      7  CG  PRO B 138     -32.402  12.009   1.797  1.00 17.78 LIG 0.02  C 
ATOM      8  CB  PRO B 138     -32.091  12.496   0.355  1.00 16.48 LIG 0.04  C 
BRANCH 6 9
ATOM      9  C   PRO B 138     -31.427  14.881   0.712  1.00 16.18 LIG 0.24  C 
ATOM     10  N   GLU B 139     -32.061  15.098   1.845  1.00 18.61 LIG-0.35  N 
ATOM     11 H    GLU B 139     -32.294  14.485   2.402  1.00 18.61 LIG 0.16  HD
ATOM     12 O    PRO B 138     -31.211  15.754  -0.143  1.00 15.80 LIG-0.27  OA
BRANCH 10 13
ATOM     13  CA  GLU B 139     -32.416  16.455   2.229  1.00 18.29 LIG 0.18  C 
BRANCH 13 14
ATOM     14  CB  GLU B 139     -33.652  16.927   1.453  1.00 20.66 LIG 0.04  C 
BRANCH 14 15
ATOM     15  CG  GLU B 139     -34.669  15.795   1.222  1.00 25.98 LIG 0.12  C 
BRANCH 15 16
ATOM     16  CD  GLU B 139     -35.182  15.177   2.529  1.00 26.03 LIG 0.17  C 
ATOM     17 OE2  GLU B 139     -34.621  14.142   2.971  1.00 30.93 LIG-0.65  OA
ATOM     18 OE1  GLU B 139     -36.170  15.689   3.073  1.00 28.23 LIG-0.65  OA
ENDBRANCH 15 16
ENDBRANCH 14 15
ENDBRANCH 13 14
BRANCH 13 19
ATOM     19  C   GLU B 139     -32.603  16.534   3.742  1.00 18.24 LIG 0.24  C 
ATOM     20 O    GLU B 139     -32.696  15.514   4.460  1.00 18.84 LIG-0.27  OA
ATOM     21  N   ALA B 140     -32.703  17.759   4.226  1.00 17.91 LIG-0.34  N 
ATOM     22 H    ALA B 140     -32.730  18.473   3.748  1.00 17.91 LIG 0.16  HD
BRANCH 21 23
ATOM     23  CA  ALA B 140     -32.778  17.978   5.663  1.00 17.23 LIG 0.18  C 
ATOM     24  CB  ALA B 140     -34.161  17.646   6.210  1.00 16.99 LIG 0.04  C 
BRANCH 23 25
ATOM     25  C   ALA B 140     -31.701  17.189   6.402  1.00 18.72 LIG 0.20  C 
ATOM     26 O    ALA B 140     -30.533  17.141   5.962  1.00 21.33 LIG-0.65  OA
ATOM     27 OXT  ALA B 140     -32.016  16.643   7.474  1.00 18.51 LIG-0.65  OA
ENDBRANCH 23 25
ENDBRANCH 21 23
ENDBRANCH 13 19
ENDBRANCH 10 13
ENDBRANCH 6 9
ENDBRANCH 1 2
BRANCH 1 28
ATOM     28  CB  GLU B 137     -27.008  13.586   3.549  1.00 18.04 LIG 0.04  C 
BRANCH 28 29
ATOM     29  CG  GLU B 137     -25.970  12.512   3.310  1.00 15.54 LIG 0.12  C 
BRANCH 29 30
ATOM     30  CD  GLU B 137     -25.771  12.229   1.822  1.00 15.60 LIG 0.17  C 
ATOM     31 OE1  GLU B 137     -25.271  13.128   1.089  1.00 18.63 LIG-0.65  OA
ATOM     32 OE2  GLU B 137     -26.106  11.103   1.420  1.00 16.09 LIG-0.65  OA
ENDBRANCH 29 30
ENDBRANCH 28 29
ENDBRANCH 1 28
BRANCH 1 33
ATOM     33  N   GLU B 137     -28.341  11.592   3.484  1.00 19.05 LIG-0.35  N 
ATOM     34  C   TYR B 136     -28.971  10.920   4.422  1.00 22.23 LIG 0.24  C 
ATOM     35 O    TYR B 136     -29.713  11.441   5.245  1.00 24.10 LIG-0.27  OA
ATOM     36 H    GLU B 137     -27.860  11.239   2.863  1.00 19.05 LIG 0.16  HD
BRANCH 34 37
ATOM     37  CA  TYR B 136     -28.755   9.447   4.399  1.00 22.42 LIG 0.18  C 
BRANCH 37 38
ATOM     38  CB  TYR B 136     -27.684   9.147   3.399  1.00 19.45 LIG 0.07  C 
BRANCH 38 39
ATOM     39  CG  TYR B 136     -26.655   8.207   3.985  1.00 15.32 LIG-0.06  A 
ATOM     40  CD1 TYR B 136     -26.631   7.896   5.362  1.00 18.49 LIG 0.01  A 
ATOM     41  CE1 TYR B 136     -25.587   7.115   5.903  1.00 17.90 LIG 0.04  A 
ATOM     42  CZ  TYR B 136     -24.589   6.640   5.055  1.00 15.67 LIG 0.07  A 
ATOM     43  CE2 TYR B 136     -24.642   6.901   3.694  1.00 13.07 LIG 0.04  A 
ATOM     44  CD2 TYR B 136     -25.637   7.691   3.171  1.00 14.55 LIG 0.01  A 
BRANCH 42 45
ATOM     45 OH   TYR B 136     -23.602   5.869   5.584  1.00 15.32 LIG-0.36  OA
ATOM     46 HH   TYR B 136     -23.015   6.362   5.927  1.00 15.32 LIG 0.22  HD
ENDBRANCH 42 45
ENDBRANCH 38 39
ENDBRANCH 37 38
BRANCH 37 47
ATOM     47  N   TYR B 136     -29.963   8.767   3.994  1.00 26.32 LIG-0.34  N 
ATOM     48  C   ASP B 135     -30.563   7.910   4.809  1.00 34.01 LIG 0.26  C 
ATOM     49 O    ASP B 135     -30.012   7.451   5.817  1.00 37.29 LIG-0.27  OA
ATOM     50 H    TYR B 136     -30.242   8.964   3.205  1.00 26.32 LIG 0.16  HD
BRANCH 48 51
ATOM     51  CA  ASP B 135     -32.008   7.510   4.432  1.00 37.28 LIG 0.41  C 
ATOM     52  N   ASP B 135     -32.879   7.400   5.628  1.00 36.58 LIG 0.61  N 
BRANCH 51 53
ATOM     53  CB  ASP B 135     -32.605   8.520   3.440  1.00 38.83 LIG 0.16  C 
BRANCH 53 54
ATOM     54  CG  ASP B 135     -33.319   9.682   4.141  1.00 44.23 LIG 0.17  C 
ATOM     55 OD2  ASP B 135     -34.370  10.135   3.619  1.00 49.44 LIG-0.65  OA
ATOM     56 OD1  ASP B 135     -32.832  10.128   5.213  1.00 41.19 LIG-0.65  OA
ENDBRANCH 53 54
ENDBRANCH 51 53
ENDBRANCH 48 51
ENDBRANCH 37 47
ENDBRANCH 34 37
ENDBRANCH 1 33
TORSDOF 21
ENDMDL
MODEL 2
USER: ADFR SOLUTION from run 161
USER: SCORE 20.942614 LL:  -4.413 LR: -17.835 RR:   0.000 FEB: -11.571
USER: RMSD 4.297699
USER: SEED 160
USER: STATUS no improvement in best in 3 clusters for 5 generations
USER: GENES 23
USER: genes 0 Translation |==|  0.53801 0.66317 0.46418
USER: genes 1 Rotation |==|  0.43184 0.47694 0.44227 0.99142
USER: genes 2 Torsion [N]-CA--C-[N] |==|  0.33072
USER: genes 3 Torsion [N]-CA--C-[N] |==|  0.51311
USER: genes 4 Torsion [C]-N--CA-[CB] |==|  0.47231
USER: genes 5 Torsion [N]-CA--CB-[CG] |==|  0.91867
USER: genes 6 Torsion [CA]-CB--CG-[CD] |==|  0.84118
USER: genes 7 Torsion [CB]-CG--CD-[OE2] |==|  0.37715
USER: genes 8 Torsion [N]-CA--C-[N] |==|  0.51149
USER: genes 9 Torsion [C]-N--CA-[CB] |==|  0.35406
USER: genes 10 Torsion [N]-CA--C-[O] |==|  0.91980
USER: genes 11 Torsion [C]-CA--CB-[CG] |==|  0.15785
USER: genes 12 Torsion [CA]-CB--CG-[CD] |==|  0.59029
USER: genes 13 Torsion [CB]-CG--CD-[OE1] |==|  0.99186
USER: genes 14 Torsion [C]-CA--N-[C] |==|  0.65403
USER: genes 15 Torsion [N]-C--CA-[N] |==|  0.95274
USER: genes 16 Torsion [C]-CA--CB-[CG] |==|  0.93906
USER: genes 17 Torsion [CA]-CB--CG-[CD2] |==|  0.28746
USER: genes 18 Torsion [CE1]-CZ--OH-[HH] |==|  0.49263
USER: genes 19 Torsion [C]-CA--N-[C] |==|  0.80639
USER: genes 20 Torsion [N]-C--CA-[N] |==|  0.46590
USER: genes 21 Torsion [C]-CA--CB-[CG] |==|  0.67132
USER: genes 22 Torsion [CA]-CB--CG-[OD2] |==|  0.18833
ROOT
ATOM      1  CA  GLU B 137     -34.308  17.687   3.496  1.00 17.35 LIG 0.18  C 
ENDROOT
BRANCH 1 2
ATOM      2  C   GLU B 137     -34.091  16.188   3.212  1.00 17.61 LIG 0.24  C 
ATOM      3 O    GLU B 137     -34.442  15.354   4.042  1.00 18.66 LIG-0.27  OA
ATOM      4  N   PRO B 138     -33.487  15.833   2.055  1.00 16.89 LIG-0.34  N 
ATOM      5  CD  PRO B 138     -33.005  16.739   0.993  1.00 17.79 LIG 0.13  C 
ATOM      6  CA  PRO B 138     -33.180  14.424   1.789  1.00 17.53 LIG 0.18  C 
ATOM      7  CG  PRO B 138     -32.097  15.857   0.134  1.00 17.78 LIG 0.02  C 
ATOM      8  CB  PRO B 138     -32.677  14.430   0.335  1.00 16.48 LIG 0.04  C 
BRANCH 6 9
ATOM      9  C   PRO B 138     -32.065  13.916   2.704  1.00 16.18 LIG 0.24  C 
ATOM     10  N   GLU B 139     -31.662  12.686   2.463  1.00 18.61 LIG-0.35  N 
ATOM     11 H    GLU B 139     -32.055  12.136   1.931  1.00 18.61 LIG 0.16  HD
ATOM     12 O    PRO B 138     -31.567  14.654   3.569  1.00 15.80 LIG-0.27  OA
BRANCH 10 13
ATOM     13  CA  GLU B 139     -30.470  12.171   3.120  1.00 18.29 LIG 0.18  C 
BRANCH 13 14
ATOM     14  CB  GLU B 139     -30.337  10.661   2.884  1.00 20.66 LIG 0.04  C 
BRANCH 14 15
ATOM     15  CG  GLU B 139     -31.701   9.972   2.700  1.00 25.98 LIG 0.12  C 
BRANCH 15 16
ATOM     16  CD  GLU B 139     -32.645  10.189   3.889  1.00 26.03 LIG 0.17  C 
ATOM     17 OE2  GLU B 139     -33.848  10.478   3.663  1.00 30.93 LIG-0.65  OA
ATOM     18 OE1  GLU B 139     -32.173  10.128   5.033  1.00 28.23 LIG-0.65  OA
ENDBRANCH 15 16
ENDBRANCH 14 15
ENDBRANCH 13 14
BRANCH 13 19
ATOM     19  C   GLU B 139     -29.244  12.952   2.654  1.00 18.24 LIG 0.24  C 
ATOM     20 O    GLU B 139     -29.323  13.910   1.855  1.00 18.84 LIG-0.27  OA
ATOM     21  N   ALA B 140     -28.092  12.509   3.126  1.00 17.91 LIG-0.34  N 
ATOM     22 H    ALA B 140     -28.000  11.802   3.606  1.00 17.91 LIG 0.16  HD
BRANCH 21 23
ATOM     23  CA  ALA B 140     -26.858  13.228   2.845  1.00 17.23 LIG 0.18  C 
ATOM     24  CB  ALA B 140     -26.084  13.535   4.121  1.00 16.99 LIG 0.04  C 
BRANCH 23 25
ATOM     25  C   ALA B 140     -25.984  12.465   1.854  1.00 18.72 LIG 0.20  C 
ATOM     26 O    ALA B 140     -26.034  11.218   1.791  1.00 21.33 LIG-0.65  OA
ATOM     27 OXT  ALA B 140     -25.266  13.128   1.085  1.00 18.51 LIG-0.65  OA
ENDBRANCH 23 25
ENDBRANCH 21 23
ENDBRANCH 13 19
ENDBRANCH 10 13
ENDBRANCH 6 9
ENDBRANCH 1 2
BRANCH 1 28
ATOM     28  CB  GLU B 137     -33.645  18.032   4.831  1.00 18.04 LIG 0.04  C 
BRANCH 28 29
ATOM     29  CG  GLU B 137     -32.174  17.681   4.840  1.00 15.54 LIG 0.12  C 
BRANCH 29 30
ATOM     30  CD  GLU B 137     -31.696  17.256   6.228  1.00 15.60 LIG 0.17  C 
ATOM     31 OE1  GLU B 137     -32.508  17.291   7.193  1.00 18.63 LIG-0.65  OA
ATOM     32 OE2  GLU B 137     -30.516  16.878   6.318  1.00 16.09 LIG-0.65  OA
ENDBRANCH 29 30
ENDBRANCH 28 29
ENDBRANCH 1 28
BRANCH 1 33
ATOM     33  N   GLU B 137     -35.720  17.975   3.628  1.00 19.05 LIG-0.35  N 
ATOM     34  C   TYR B 136     -36.270  18.896   2.868  1.00 22.23 LIG 0.24  C 
ATOM     35 O    TYR B 136     -35.670  19.488   1.979  1.00 24.10 LIG-0.27  OA
ATOM     36 H    GLU B 137     -36.137  17.509   4.218  1.00 19.05 LIG 0.16  HD
BRANCH 34 37
ATOM     37  CA  TYR B 136     -37.712  19.156   3.132  1.00 22.42 LIG 0.18  C 
BRANCH 37 38
ATOM     38  CB  TYR B 136     -37.820  20.410   3.940  1.00 19.45 LIG 0.07  C 
BRANCH 38 39
ATOM     39  CG  TYR B 136     -36.523  20.695   4.661  1.00 15.32 LIG-0.06  A 
ATOM     40  CD1 TYR B 136     -36.188  20.048   5.870  1.00 18.49 LIG 0.01  A 
ATOM     41  CE1 TYR B 136     -35.030  20.421   6.588  1.00 17.90 LIG 0.04  A 
ATOM     42  CZ  TYR B 136     -34.215  21.428   6.077  1.00 15.67 LIG 0.07  A 
ATOM     43  CE2 TYR B 136     -34.517  22.027   4.862  1.00 13.07 LIG 0.04  A 
ATOM     44  CD2 TYR B 136     -35.660  21.690   4.181  1.00 14.55 LIG 0.01  A 
BRANCH 42 45
ATOM     45 OH   TYR B 136     -33.091  21.763   6.764  1.00 15.32 LIG-0.36  OA
ATOM     46 HH   TYR B 136     -32.668  22.352   6.340  1.00 15.32 LIG 0.22  HD
ENDBRANCH 42 45
ENDBRANCH 38 39
ENDBRANCH 37 38
BRANCH 37 47
ATOM     47  N   TYR B 136     -38.289  18.071   3.890  1.00 26.32 LIG-0.34  N 
ATOM     48  C   ASP B 135     -38.467  16.879   3.338  1.00 34.01 LIG 0.26  C 
ATOM     49 O    ASP B 135     -38.405  16.693   2.116  1.00 37.29 LIG-0.27  OA
ATOM     50 H    TYR B 136     -38.498  18.268   4.701  1.00 26.32 LIG 0.16  HD
BRANCH 48 51
ATOM     51  CA  ASP B 135     -38.757  15.714   4.312  1.00 37.28 LIG 0.41  C 
ATOM     52  N   ASP B 135     -39.224  14.501   3.598  1.00 36.58 LIG 0.61  N 
BRANCH 51 53
ATOM     53  CB  ASP B 135     -37.508  15.384   5.143  1.00 38.83 LIG 0.16  C 
BRANCH 53 54
ATOM     54  CG  ASP B 135     -37.005  13.955   4.909  1.00 44.23 LIG 0.17  C 
ATOM     55 OD2  ASP B 135     -36.524  13.671   3.782  1.00 49.44 LIG-0.65  OA
ATOM     56 OD1  ASP B 135     -37.083  13.128   5.855  1.00 41.19 LIG-0.65  OA
ENDBRANCH 53 54
ENDBRANCH 51 53
ENDBRANCH 48 51
ENDBRANCH 37 47
ENDBRANCH 34 37
ENDBRANCH 1 33
TORSDOF 21
ENDMDL
MODEL 3
USER: ADFR SOLUTION from run 119
USER: SCORE 21.537409 LL:  -4.436 LR: -17.709 RR:   0.000 FEB: -11.445
USER: RMSD 5.760180
USER: SEED 118
USER: STATUS searching
USER: GENES 23
USER: genes 0 Translation |==|  0.58901 0.60520 0.41192
USER: genes 1 Rotation |==|  0.43467 0.51387 0.49712 0.99551
USER: genes 2 Torsion [N]-CA--C-[N] |==|  0.41795
USER: genes 3 Torsion [N]-CA--C-[N] |==|  0.56962
USER: genes 4 Torsion [C]-N--CA-[CB] |==|  0.87767
USER: genes 5 Torsion [N]-CA--CB-[CG] |==|  0.69731
USER: genes 6 Torsion [CA]-CB--CG-[CD] |==|  0.04346
USER: genes 7 Torsion [CB]-CG--CD-[OE2] |==|  0.80971
USER: genes 8 Torsion [N]-CA--C-[N] |==|  0.90522
USER: genes 9 Torsion [C]-N--CA-[CB] |==|  0.19667
USER: genes 10 Torsion [N]-CA--C-[O] |==|  0.55470
USER: genes 11 Torsion [C]-CA--CB-[CG] |==|  0.76672
USER: genes 12 Torsion [CA]-CB--CG-[CD] |==|  0.47851
USER: genes 13 Torsion [CB]-CG--CD-[OE1] |==|  0.93717
USER: genes 14 Torsion [C]-CA--N-[C] |==|  0.59976
USER: genes 15 Torsion [N]-C--CA-[N] |==|  0.86667
USER: genes 16 Torsion [C]-CA--CB-[CG] |==|  0.13532
USER: genes 17 Torsion [CA]-CB--CG-[CD2] |==|  0.14390
USER: genes 18 Torsion [CE1]-CZ--OH-[HH] |==|  0.36185
USER: genes 19 Torsion [C]-CA--N-[C] |==|  0.83810
USER: genes 20 Torsion [N]-C--CA-[N] |==|  0.71333
USER: genes 21 Torsion [C]-CA--CB-[CG] |==|  0.77515
USER: genes 22 Torsion [CA]-CB--CG-[OD2] |==|  0.54215
ROOT
ATOM      1  CA  GLU B 137     -32.854  16.600   2.634  1.00 17.35 LIG 0.18  C 
ENDROOT
BRANCH 1 2
ATOM      2  C   GLU B 137     -32.403  15.174   2.261  1.00 17.61 LIG 0.24  C 
ATOM      3 O    GLU B 137     -32.924  14.208   2.811  1.00 18.66 LIG-0.27  OA
ATOM      4  N   PRO B 138     -31.415  15.030   1.349  1.00 16.89 LIG-0.34  N 
ATOM      5  CD  PRO B 138     -30.702  16.109   0.637  1.00 17.79 LIG 0.13  C 
ATOM      6  CA  PRO B 138     -30.895  13.695   1.035  1.00 17.53 LIG 0.18  C 
ATOM      7  CG  PRO B 138     -29.474  15.416   0.042  1.00 17.78 LIG 0.02  C 
ATOM      8  CB  PRO B 138     -29.939  13.946  -0.144  1.00 16.48 LIG 0.04  C 
BRANCH 6 9
ATOM      9  C   PRO B 138     -30.103  13.117   2.209  1.00 16.18 LIG 0.24  C 
ATOM     10  N   GLU B 139     -29.198  12.218   1.883  1.00 18.61 LIG-0.35  N 
ATOM     11 H    GLU B 139     -29.117  11.863   1.104  1.00 18.61 LIG 0.16  HD
ATOM     12 O    PRO B 138     -30.293  13.526   3.366  1.00 15.80 LIG-0.27  OA
BRANCH 10 13
ATOM     13  CA  GLU B 139     -28.242  11.758   2.879  1.00 18.29 LIG 0.18  C 
BRANCH 13 14
ATOM     14  CB  GLU B 139     -27.690  12.943   3.681  1.00 20.66 LIG 0.04  C 
BRANCH 14 15
ATOM     15  CG  GLU B 139     -26.219  13.248   3.343  1.00 25.98 LIG 0.12  C 
BRANCH 15 16
ATOM     16  CD  GLU B 139     -25.753  12.579   2.044  1.00 26.03 LIG 0.17  C 
ATOM     17 OE2  GLU B 139     -25.643  11.327   2.013  1.00 30.93 LIG-0.65  OA
ATOM     18 OE1  GLU B 139     -25.447  13.303   1.087  1.00 28.23 LIG-0.65  OA
ENDBRANCH 15 16
ENDBRANCH 14 15
ENDBRANCH 13 14
BRANCH 13 19
ATOM     19  C   GLU B 139     -28.887  10.695   3.764  1.00 18.24 LIG 0.24  C 
ATOM     20 O    GLU B 139     -28.253   9.711   4.201  1.00 18.84 LIG-0.27  OA
ATOM     21  N   ALA B 140     -30.176  10.872   3.994  1.00 17.91 LIG-0.34  N 
ATOM     22 H    ALA B 140     -30.656  11.490   3.637  1.00 17.91 LIG 0.16  HD
BRANCH 21 23
ATOM     23  CA  ALA B 140     -30.888   9.991   4.908  1.00 17.23 LIG 0.18  C 
ATOM     24  CB  ALA B 140     -30.475  10.230   6.355  1.00 16.99 LIG 0.04  C 
BRANCH 23 25
ATOM     25  C   ALA B 140     -32.399  10.128   4.748  1.00 18.72 LIG 0.20  C 
ATOM     26 O    ALA B 140     -33.171   9.753   5.655  1.00 21.33 LIG-0.65  OA
ATOM     27 OXT  ALA B 140     -32.825  10.668   3.711  1.00 18.51 LIG-0.65  OA
ENDBRANCH 23 25
ENDBRANCH 21 23
ENDBRANCH 13 19
ENDBRANCH 10 13
ENDBRANCH 6 9
ENDBRANCH 1 2
BRANCH 1 28
ATOM     28  CB  GLU B 137     -32.048  17.066   3.848  1.00 18.04 LIG 0.04  C 
BRANCH 28 29
ATOM     29  CG  GLU B 137     -32.652  16.580   5.147  1.00 15.54 LIG 0.12  C 
BRANCH 29 30
ATOM     30  CD  GLU B 137     -31.751  16.880   6.344  1.00 15.60 LIG 0.17  C 
ATOM     31 OE1  GLU B 137     -30.516  17.060   6.152  1.00 18.63 LIG-0.65  OA
ATOM     32 OE2  GLU B 137     -32.304  16.947   7.454  1.00 16.09 LIG-0.65  OA
ENDBRANCH 29 30
ENDBRANCH 28 29
ENDBRANCH 1 28
BRANCH 1 33
ATOM     33  N   GLU B 137     -34.250  16.602   3.016  1.00 19.05 LIG-0.35  N 
ATOM     34  C   TYR B 136     -35.010  17.627   2.698  1.00 22.23 LIG 0.24  C 
ATOM     35 O    TYR B 136     -34.627  18.569   2.016  1.00 24.10 LIG-0.27  OA
ATOM     36 H    GLU B 137     -34.515  15.906   3.446  1.00 19.05 LIG 0.16  HD
BRANCH 34 37
ATOM     37  CA  TYR B 136     -36.411  17.554   3.196  1.00 22.42 LIG 0.18  C 
BRANCH 37 38
ATOM     38  CB  TYR B 136     -36.389  17.738   4.681  1.00 19.45 LIG 0.07  C 
BRANCH 38 39
ATOM     39  CG  TYR B 136     -35.553  18.938   5.059  1.00 15.32 LIG-0.06  A 
ATOM     40  CD1 TYR B 136     -34.584  18.876   6.084  1.00 18.49 LIG 0.01  A 
ATOM     41  CE1 TYR B 136     -33.905  20.042   6.501  1.00 17.90 LIG 0.04  A 
ATOM     42  CZ  TYR B 136     -34.193  21.252   5.876  1.00 15.67 LIG 0.07  A 
ATOM     43  CE2 TYR B 136     -35.107  21.303   4.833  1.00 13.07 LIG 0.04  A 
ATOM     44  CD2 TYR B 136     -35.794  20.178   4.450  1.00 14.55 LIG 0.01  A 
BRANCH 42 45
ATOM     45 OH   TYR B 136     -33.516  22.363   6.270  1.00 15.32 LIG-0.36  OA
ATOM     46 HH   TYR B 136     -33.210  22.759   5.595  1.00 15.32 LIG 0.22  HD
ENDBRANCH 42 45
ENDBRANCH 38 39
ENDBRANCH 37 38
BRANCH 37 47
ATOM     47  N   TYR B 136     -36.984  16.262   2.902  1.00 26.32 LIG-0.34  N 
ATOM     48  C   ASP B 135     -37.060  15.823   1.654  1.00 34.01 LIG 0.26  C 
ATOM     49 O    ASP B 135     -36.902  16.564   0.675  1.00 37.29 LIG-0.27  OA
ATOM     50 H    TYR B 136     -37.260  15.824   3.589  1.00 26.32 LIG 0.16  HD
BRANCH 48 51
ATOM     51  CA  ASP B 135     -37.358  14.316   1.478  1.00 37.28 LIG 0.41  C 
ATOM     52  N   ASP B 135     -36.140  13.551   1.116  1.00 36.58 LIG 0.61  N 
BRANCH 51 53
ATOM     53  CB  ASP B 135     -37.978  13.738   2.760  1.00 38.83 LIG 0.16  C 
BRANCH 53 54
ATOM     54  CG  ASP B 135     -36.927  13.409   3.826  1.00 44.23 LIG 0.17  C 
ATOM     55 OD2  ASP B 135     -37.266  12.672   4.788  1.00 49.44 LIG-0.65  OA
ATOM     56 OD1  ASP B 135     -35.767  13.878   3.691  1.00 41.19 LIG-0.65  OA
ENDBRANCH 53 54
ENDBRANCH 51 53
ENDBRANCH 48 51
ENDBRANCH 37 47
ENDBRANCH 34 37
ENDBRANCH 1 33
TORSDOF 21
ENDMDL
MODEL 4
USER: ADFR SOLUTION from run 140
USER: SCORE 20.406450 LL:  -4.147 LR: -17.408 RR:   0.000 FEB: -11.143
USER: RMSD 11.476206
USER: SEED 139
USER: STATUS no improvement in best in 3 clusters for 5 generations
USER: GENES 23
USER: genes 0 Translation |==|  0.74825 0.40203 0.48553
USER: genes 1 Rotation |==|  0.77821 0.75221 0.70098 0.76191
USER: genes 2 Torsion [N]-CA--C-[N] |==|  0.13333
USER: genes 3 Torsion [N]-CA--C-[N] |==|  0.74223
USER: genes 4 Torsion [C]-N--CA-[CB] |==|  0.84824
USER: genes 5 Torsion [N]-CA--CB-[CG] |==|  0.65996
USER: genes 6 Torsion [CA]-CB--CG-[CD] |==|  0.45340
USER: genes 7 Torsion [CB]-CG--CD-[OE2] |==|  0.49240
USER: genes 8 Torsion [N]-CA--C-[N] |==|  0.36270
USER: genes 9 Torsion [C]-N--CA-[CB] |==|  0.23952
USER: genes 10 Torsion [N]-CA--C-[O] |==|  0.25781
USER: genes 11 Torsion [C]-CA--CB-[CG] |==|  0.71637
USER: genes 12 Torsion [CA]-CB--CG-[CD] |==|  0.23764
USER: genes 13 Torsion [CB]-CG--CD-[OE1] |==|  0.17513
USER: genes 14 Torsion [C]-CA--N-[C] |==|  0.66269
USER: genes 15 Torsion [N]-C--CA-[N] |==|  0.70899
USER: genes 16 Torsion [C]-CA--CB-[CG] |==|  0.35637
USER: genes 17 Torsion [CA]-CB--CG-[CD2] |==|  0.48679
USER: genes 18 Torsion [CE1]-CZ--OH-[HH] |==|  0.76239
USER: genes 19 Torsion [C]-CA--N-[C] |==|  0.67216
USER: genes 20 Torsion [N]-C--CA-[N] |==|  0.62549
USER: genes 21 Torsion [C]-CA--CB-[CG] |==|  0.73157
USER: genes 22 Torsion [CA]-CB--CG-[OD2] |==|  0.62504
ROOT
ATOM      1  CA  GLU B 137     -28.316  12.791   3.848  1.00 17.35 LIG 0.18  C 
ENDROOT
BRANCH 1 2
ATOM      2  C   GLU B 137     -29.098  13.330   2.634  1.00 17.61 LIG 0.24  C 
ATOM      3 O    GLU B 137     -28.630  14.250   1.969  1.00 18.66 LIG-0.27  OA
ATOM      4  N   PRO B 138     -30.303  12.786   2.352  1.00 16.89 LIG-0.34  N 
ATOM      5  CD  PRO B 138     -30.976  11.695   3.084  1.00 17.79 LIG 0.13  C 
ATOM      6  CA  PRO B 138     -31.118  13.332   1.262  1.00 17.53 LIG 0.18  C 
ATOM      7  CG  PRO B 138     -32.421  11.746   2.585  1.00 17.78 LIG 0.02  C 
ATOM      8  CB  PRO B 138     -32.294  12.345   1.158  1.00 16.48 LIG 0.04  C 
BRANCH 6 9
ATOM      9  C   PRO B 138     -31.657  14.720   1.612  1.00 16.18 LIG 0.24  C 
ATOM     10  N   GLU B 139     -32.851  14.731   2.166  1.00 18.61 LIG-0.35  N 
ATOM     11 H    GLU B 139     -33.372  14.049   2.224  1.00 18.61 LIG 0.16  HD
ATOM     12 O    PRO B 138     -30.969  15.735   1.419  1.00 15.80 LIG-0.27  OA
BRANCH 10 13
ATOM     13  CA  GLU B 139     -33.374  15.963   2.736  1.00 18.29 LIG 0.18  C 
BRANCH 13 14
ATOM     14  CB  GLU B 139     -32.392  16.538   3.764  1.00 20.66 LIG 0.04  C 
BRANCH 14 15
ATOM     15  CG  GLU B 139     -33.029  16.710   5.155  1.00 25.98 LIG 0.12  C 
BRANCH 15 16
ATOM     16  CD  GLU B 139     -31.991  16.885   6.270  1.00 26.03 LIG 0.17  C 
ATOM     17 OE2  GLU B 139     -32.391  17.087   7.445  1.00 30.93 LIG-0.65  OA
ATOM     18 OE1  GLU B 139     -30.791  16.877   5.962  1.00 28.23 LIG-0.65  OA
ENDBRANCH 15 16
ENDBRANCH 14 15
ENDBRANCH 13 14
BRANCH 13 19
ATOM     19  C   GLU B 139     -33.706  16.950   1.620  1.00 18.24 LIG 0.24  C 
ATOM     20 O    GLU B 139     -32.886  17.253   0.727  1.00 18.84 LIG-0.27  OA
ATOM     21  N   ALA B 140     -34.908  17.492   1.698  1.00 17.91 LIG-0.34  N 
ATOM     22 H    ALA B 140     -35.459  17.370   2.347  1.00 17.91 LIG 0.16  HD
BRANCH 21 23
ATOM     23  CA  ALA B 140     -35.390  18.369   0.640  1.00 17.23 LIG 0.18  C 
ATOM     24  CB  ALA B 140     -36.042  17.580  -0.489  1.00 16.99 LIG 0.04  C 
BRANCH 23 25
ATOM     25  C   ALA B 140     -36.348  19.423   1.186  1.00 18.72 LIG 0.20  C 
ATOM     26 O    ALA B 140     -35.925  20.545   1.536  1.00 21.33 LIG-0.65  OA
ATOM     27 OXT  ALA B 140     -37.559  19.143   1.219  1.00 18.51 LIG-0.65  OA
ENDBRANCH 23 25
ENDBRANCH 21 23
ENDBRANCH 13 19
ENDBRANCH 10 13
ENDBRANCH 6 9
ENDBRANCH 1 2
BRANCH 1 28
ATOM     28  CB  GLU B 137     -26.869  13.280   3.754  1.00 18.04 LIG 0.04  C 
BRANCH 28 29
ATOM     29  CG  GLU B 137     -25.937  12.197   3.257  1.00 15.54 LIG 0.12  C 
BRANCH 29 30
ATOM     30  CD  GLU B 137     -25.897  12.134   1.731  1.00 15.60 LIG 0.17  C 
ATOM     31 OE1  GLU B 137     -25.464  13.130   1.087  1.00 18.63 LIG-0.65  OA
ATOM     32 OE2  GLU B 137     -26.286  11.077   1.207  1.00 16.09 LIG-0.65  OA
ENDBRANCH 29 30
ENDBRANCH 28 29
ENDBRANCH 1 28
BRANCH 1 33
ATOM     33  N   GLU B 137     -28.285  11.344   3.824  1.00 19.05 LIG-0.35  N 
ATOM     34  C   TYR B 136     -28.778  10.666   4.836  1.00 22.23 LIG 0.24  C 
ATOM     35 O    TYR B 136     -29.347  11.187   5.787  1.00 24.10 LIG-0.27  OA
ATOM     36 H    GLU B 137     -27.932  10.995   3.122  1.00 19.05 LIG 0.16  HD
BRANCH 34 37
ATOM     37  CA  TYR B 136     -28.636   9.188   4.737  1.00 22.42 LIG 0.18  C 
BRANCH 37 38
ATOM     38  CB  TYR B 136     -27.657   8.885   3.647  1.00 19.45 LIG 0.07  C 
BRANCH 38 39
ATOM     39  CG  TYR B 136     -26.579   7.949   4.143  1.00 15.32 LIG-0.06  A 
ATOM     40  CD1 TYR B 136     -26.452   7.619   5.510  1.00 18.49 LIG 0.01  A 
ATOM     41  CE1 TYR B 136     -25.362   6.843   5.963  1.00 17.90 LIG 0.04  A 
ATOM     42  CZ  TYR B 136     -24.422   6.394   5.039  1.00 15.67 LIG 0.07  A 
ATOM     43  CE2 TYR B 136     -24.576   6.674   3.689  1.00 13.07 LIG 0.04  A 
ATOM     44  CD2 TYR B 136     -25.615   7.458   3.251  1.00 14.55 LIG 0.01  A 
BRANCH 42 45
ATOM     45 OH   TYR B 136     -23.391   5.628   5.483  1.00 15.32 LIG-0.36  OA
ATOM     46 HH   TYR B 136     -22.770   6.124   5.755  1.00 15.32 LIG 0.22  HD
ENDBRANCH 42 45
ENDBRANCH 38 39
ENDBRANCH 37 38
BRANCH 37 47
ATOM     47  N   TYR B 136     -29.902   8.581   4.397  1.00 26.32 LIG-0.34  N 
ATOM     48  C   ASP B 135     -30.486   7.725   5.225  1.00 34.01 LIG 0.26  C 
ATOM     49 O    ASP B 135     -29.890   7.204   6.175  1.00 37.29 LIG-0.27  OA
ATOM     50 H    TYR B 136     -30.225   8.819   3.637  1.00 26.32 LIG 0.16  HD
BRANCH 48 51
ATOM     51  CA  ASP B 135     -31.972   7.408   4.939  1.00 37.28 LIG 0.41  C 
ATOM     52  N   ASP B 135     -32.789   7.437   6.177  1.00 36.58 LIG 0.61  N 
BRANCH 51 53
ATOM     53  CB  ASP B 135     -32.544   8.395   3.910  1.00 38.83 LIG 0.16  C 
BRANCH 53 54
ATOM     54  CG  ASP B 135     -33.292   9.562   4.566  1.00 44.23 LIG 0.17  C 
ATOM     55 OD2  ASP B 135     -34.406   9.899   4.087  1.00 49.44 LIG-0.65  OA
ATOM     56 OD1  ASP B 135     -32.769  10.128   5.562  1.00 41.19 LIG-0.65  OA
ENDBRANCH 53 54
ENDBRANCH 51 53
ENDBRANCH 48 51
ENDBRANCH 37 47
ENDBRANCH 34 37
ENDBRANCH 1 33
TORSDOF 21
ENDMDL
MODEL 5
USER: ADFR SOLUTION from run 162
USER: SCORE 19.009236 LL:  -3.736 LR: -17.265 RR:   0.000 FEB: -11.001
USER: RMSD 5.658863
USER: SEED 161
USER: STATUS no improvement in best in 5 clusters for 5 generations
USER: GENES 23
USER: genes 0 Translation |==|  0.60128 0.57688 0.42131
USER: genes 1 Rotation |==|  0.54937 0.35781 0.44453 0.97357
USER: genes 2 Torsion [N]-CA--C-[N] |==|  0.23300
USER: genes 3 Torsion [N]-CA--C-[N] |==|  0.21348
USER: genes 4 Torsion [C]-N--CA-[CB] |==|  0.19681
USER: genes 5 Torsion [N]-CA--CB-[CG] |==|  0.62644
USER: genes 6 Torsion [CA]-CB--CG-[CD] |==|  0.10442
USER: genes 7 Torsion [CB]-CG--CD-[OE2] |==|  0.78725
USER: genes 8 Torsion [N]-CA--C-[N] |==|  0.01479
USER: genes 9 Torsion [C]-N--CA-[CB] |==|  0.13931
USER: genes 10 Torsion [N]-CA--C-[O] |==|  0.55013
USER: genes 11 Torsion [C]-CA--CB-[CG] |==|  0.42962
USER: genes 12 Torsion [CA]-CB--CG-[CD] |==|  0.61883
USER: genes 13 Torsion [CB]-CG--CD-[OE1] |==|  0.18584
USER: genes 14 Torsion [C]-CA--N-[C] |==|  0.16524
USER: genes 15 Torsion [N]-C--CA-[N] |==|  0.59227
USER: genes 16 Torsion [C]-CA--CB-[CG] |==|  0.26157
USER: genes 17 Torsion [CA]-CB--CG-[CD2] |==|  0.48639
USER: genes 18 Torsion [CE1]-CZ--OH-[HH] |==|  0.88292
USER: genes 19 Torsion [C]-CA--N-[C] |==|  0.61317
USER: genes 20 Torsion [N]-C--CA-[N] |==|  0.66920
USER: genes 21 Torsion [C]-CA--CB-[CG] |==|  0.75069
USER: genes 22 Torsion [CA]-CB--CG-[OD2] |==|  0.58293
ROOT
ATOM      1  CA  GLU B 137     -32.504  16.070   2.789  1.00 17.35 LIG 0.18  C 
ENDROOT
BRANCH 1 2
ATOM      2  C   GLU B 137     -31.903  14.802   2.150  1.00 17.61 LIG 0.24  C 
ATOM      3 O    GLU B 137     -31.959  13.732   2.751  1.00 18.66 LIG-0.27  OA
ATOM      4  N   PRO B 138     -31.299  14.913   0.946  1.00 16.89 LIG-0.34  N 
ATOM      5  CD  PRO B 138     -31.151  16.141   0.139  1.00 17.79 LIG 0.13  C 
ATOM      6  CA  PRO B 138     -30.634  13.751   0.347  1.00 17.53 LIG 0.18  C 
ATOM      7  CG  PRO B 138     -30.091  15.777  -0.904  1.00 17.78 LIG 0.02  C 
ATOM      8  CB  PRO B 138     -30.244  14.239  -1.059  1.00 16.48 LIG 0.04  C 
BRANCH 6 9
ATOM      9  C   PRO B 138     -29.368  13.377   1.118  1.00 16.18 LIG 0.24  C 
ATOM     10  N   GLU B 139     -29.573  12.739   2.251  1.00 18.61 LIG-0.35  N 
ATOM     11 H    GLU B 139     -30.341  12.637   2.626  1.00 18.61 LIG 0.16  HD
ATOM     12 O    PRO B 138     -28.244  13.628   0.655  1.00 15.80 LIG-0.27  OA
BRANCH 10 13
ATOM     13  CA  GLU B 139     -28.451  12.144   2.963  1.00 18.29 LIG 0.18  C 
BRANCH 13 14
ATOM     14  CB  GLU B 139     -27.564  13.236   3.574  1.00 20.66 LIG 0.04  C 
BRANCH 14 15
ATOM     15  CG  GLU B 139     -26.065  12.983   3.330  1.00 25.98 LIG 0.12  C 
BRANCH 15 16
ATOM     16  CD  GLU B 139     -25.777  12.394   1.944  1.00 26.03 LIG 0.17  C 
ATOM     17 OE2  GLU B 139     -26.016  11.175   1.742  1.00 30.93 LIG-0.65  OA
ATOM     18 OE1  GLU B 139     -25.266  13.128   1.087  1.00 28.23 LIG-0.65  OA
ENDBRANCH 15 16
ENDBRANCH 14 15
ENDBRANCH 13 14
BRANCH 13 19
ATOM     19  C   GLU B 139     -28.964  11.150   4.001  1.00 18.24 LIG 0.24  C 
ATOM     20 O    GLU B 139     -28.201  10.546   4.785  1.00 18.84 LIG-0.27  OA
ATOM     21  N   ALA B 140     -30.269  10.945   3.975  1.00 17.91 LIG-0.34  N 
ATOM     22 H    ALA B 140     -30.805  11.279   3.392  1.00 17.91 LIG 0.16  HD
BRANCH 21 23
ATOM     23  CA  ALA B 140     -30.900  10.102   4.980  1.00 17.23 LIG 0.18  C 
ATOM     24  CB  ALA B 140     -30.485  10.503   6.390  1.00 16.99 LIG 0.04  C 
BRANCH 23 25
ATOM     25  C   ALA B 140     -32.420  10.115   4.841  1.00 18.72 LIG 0.20  C 
ATOM     26 O    ALA B 140     -33.148   9.742   5.784  1.00 21.33 LIG-0.65  OA
ATOM     27 OXT  ALA B 140     -32.900  10.555   3.781  1.00 18.51 LIG-0.65  OA
ENDBRANCH 23 25
ENDBRANCH 21 23
ENDBRANCH 13 19
ENDBRANCH 10 13
ENDBRANCH 6 9
ENDBRANCH 1 2
BRANCH 1 28
ATOM     28  CB  GLU B 137     -32.638  15.841   4.296  1.00 18.04 LIG 0.04  C 
BRANCH 28 29
ATOM     29  CG  GLU B 137     -32.620  17.141   5.069  1.00 15.54 LIG 0.12  C 
BRANCH 29 30
ATOM     30  CD  GLU B 137     -31.758  17.047   6.327  1.00 15.60 LIG 0.17  C 
ATOM     31 OE1  GLU B 137     -30.510  16.901   6.206  1.00 18.63 LIG-0.65  OA
ATOM     32 OE2  GLU B 137     -32.351  17.137   7.415  1.00 16.09 LIG-0.65  OA
ENDBRANCH 29 30
ENDBRANCH 28 29
ENDBRANCH 1 28
BRANCH 1 33
ATOM     33  N   GLU B 137     -33.833  16.312   2.270  1.00 19.05 LIG-0.35  N 
ATOM     34  C   TYR B 136     -34.770  15.402   2.427  1.00 22.23 LIG 0.24  C 
ATOM     35 O    TYR B 136     -34.610  14.370   3.068  1.00 24.10 LIG-0.27  OA
ATOM     36 H    GLU B 137     -33.942  17.066   1.871  1.00 19.05 LIG 0.16  HD
BRANCH 34 37
ATOM     37  CA  TYR B 136     -36.079  15.726   1.798  1.00 22.42 LIG 0.18  C 
BRANCH 37 38
ATOM     38  CB  TYR B 136     -36.220  17.214   1.753  1.00 19.45 LIG 0.07  C 
BRANCH 38 39
ATOM     39  CG  TYR B 136     -35.749  17.755   0.423  1.00 15.32 LIG-0.06  A 
ATOM     40  CD1 TYR B 136     -35.078  16.940  -0.515  1.00 18.49 LIG 0.01  A 
ATOM     41  CE1 TYR B 136     -34.539  17.498  -1.695  1.00 17.90 LIG 0.04  A 
ATOM     42  CZ  TYR B 136     -34.692  18.863  -1.928  1.00 15.67 LIG 0.07  A 
ATOM     43  CE2 TYR B 136     -35.397  19.653  -1.032  1.00 13.07 LIG 0.04  A 
ATOM     44  CD2 TYR B 136     -35.891  19.119   0.133  1.00 14.55 LIG 0.01  A 
BRANCH 42 45
ATOM     45 OH   TYR B 136     -34.189  19.384  -3.079  1.00 15.32 LIG-0.36  OA
ATOM     46 HH   TYR B 136     -33.432  19.053  -3.229  1.00 15.32 LIG 0.22  HD
ENDBRANCH 42 45
ENDBRANCH 38 39
ENDBRANCH 37 38
BRANCH 37 47
ATOM     47  N   TYR B 136     -37.163  15.187   2.585  1.00 26.32 LIG-0.34  N 
ATOM     48  C   ASP B 135     -38.210  14.622   1.999  1.00 34.01 LIG 0.26  C 
ATOM     49 O    ASP B 135     -38.449  14.753   0.792  1.00 37.29 LIG-0.27  OA
ATOM     50 H    TYR B 136     -37.067  15.265   3.436  1.00 26.32 LIG 0.16  HD
BRANCH 48 51
ATOM     51  CA  ASP B 135     -39.130  13.779   2.912  1.00 37.28 LIG 0.41  C 
ATOM     52  N   ASP B 135     -39.191  12.362   2.475  1.00 36.58 LIG 0.61  N 
BRANCH 51 53
ATOM     53  CB  ASP B 135     -38.657  13.858   4.371  1.00 38.83 LIG 0.16  C 
BRANCH 53 54
ATOM     54  CG  ASP B 135     -37.642  12.764   4.722  1.00 44.23 LIG 0.17  C 
ATOM     55 OD2  ASP B 135     -37.605  12.344   5.908  1.00 49.44 LIG-0.65  OA
ATOM     56 OD1  ASP B 135     -36.895  12.323   3.810  1.00 41.19 LIG-0.65  OA
ENDBRANCH 53 54
ENDBRANCH 51 53
ENDBRANCH 48 51
ENDBRANCH 37 47
ENDBRANCH 34 37
ENDBRANCH 1 33
TORSDOF 21
ENDMDL
MODEL 6
USER: ADFR SOLUTION from run 107
USER: SCORE 20.239130 LL:  -4.319 LR: -17.247 RR:   0.000 FEB: -10.983
USER: RMSD 4.822394
USER: SEED 106
USER: STATUS no improvement in best in 8 clusters for 5 generations
USER: GENES 23
USER: genes 0 Translation |==|  0.58744 0.57742 0.42736
USER: genes 1 Rotation |==|  0.52936 0.43567 0.45209 0.99265
USER: genes 2 Torsion [N]-CA--C-[N] |==|  0.34236
USER: genes 3 Torsion [N]-CA--C-[N] |==|  0.05239
USER: genes 4 Torsion [C]-N--CA-[CB] |==|  0.85000
USER: genes 5 Torsion [N]-CA--CB-[CG] |==|  0.68089
USER: genes 6 Torsion [CA]-CB--CG-[CD] |==|  0.27244
USER: genes 7 Torsion [CB]-CG--CD-[OE2] |==|  0.97789
USER: genes 8 Torsion [N]-CA--C-[N] |==|  0.03261
USER: genes 9 Torsion [C]-N--CA-[CB] |==|  0.84703
USER: genes 10 Torsion [N]-CA--C-[O] |==|  0.82427
USER: genes 11 Torsion [C]-CA--CB-[CG] |==|  0.44225
USER: genes 12 Torsion [CA]-CB--CG-[CD] |==|  0.55108
USER: genes 13 Torsion [CB]-CG--CD-[OE1] |==|  0.70788
USER: genes 14 Torsion [C]-CA--N-[C] |==|  0.62896
USER: genes 15 Torsion [N]-C--CA-[N] |==|  0.91876
USER: genes 16 Torsion [C]-CA--CB-[CG] |==|  0.15128
USER: genes 17 Torsion [CA]-CB--CG-[CD2] |==|  0.71029
USER: genes 18 Torsion [CE1]-CZ--OH-[HH] |==|  0.66129
USER: genes 19 Torsion [C]-CA--N-[C] |==|  0.82976
USER: genes 20 Torsion [N]-C--CA-[N] |==|  0.67648
USER: genes 21 Torsion [C]-CA--CB-[CG] |==|  0.77468
USER: genes 22 Torsion [CA]-CB--CG-[OD2] |==|  0.56518
ROOT
ATOM      1  CA  GLU B 137     -32.899  16.080   2.888  1.00 17.35 LIG 0.18  C 
ENDROOT
BRANCH 1 2
ATOM      2  C   GLU B 137     -32.464  14.796   2.154  1.00 17.61 LIG 0.24  C 
ATOM      3 O    GLU B 137     -32.923  13.711   2.501  1.00 18.66 LIG-0.27  OA
ATOM      4  N   PRO B 138     -31.556  14.901   1.158  1.00 16.89 LIG-0.34  N 
ATOM      5  CD  PRO B 138     -30.920  16.139   0.666  1.00 17.79 LIG 0.13  C 
ATOM      6  CA  PRO B 138     -31.048  13.695   0.497  1.00 17.53 LIG 0.18  C 
ATOM      7  CG  PRO B 138     -29.739  15.645  -0.172  1.00 17.78 LIG 0.02  C 
ATOM      8  CB  PRO B 138     -30.200  14.245  -0.663  1.00 16.48 LIG 0.04  C 
BRANCH 6 9
ATOM      9  C   PRO B 138     -30.151  12.884   1.434  1.00 16.18 LIG 0.24  C 
ATOM     10  N   GLU B 139     -30.293  13.154   2.715  1.00 18.61 LIG-0.35  N 
ATOM     11 H    GLU B 139     -30.746  13.813   3.030  1.00 18.61 LIG 0.16  HD
ATOM     12 O    PRO B 138     -29.392  12.009   0.987  1.00 15.80 LIG-0.27  OA
BRANCH 10 13
ATOM     13  CA  GLU B 139     -29.658  12.304   3.710  1.00 18.29 LIG 0.18  C 
BRANCH 13 14
ATOM     14  CB  GLU B 139     -30.055  10.838   3.497  1.00 20.66 LIG 0.04  C 
BRANCH 14 15
ATOM     15  CG  GLU B 139     -30.883  10.276   4.667  1.00 25.98 LIG 0.12  C 
BRANCH 15 16
ATOM     16  CD  GLU B 139     -32.392  10.295   4.394  1.00 26.03 LIG 0.17  C 
ATOM     17 OE2  GLU B 139     -32.815  10.880   3.363  1.00 30.93 LIG-0.65  OA
ATOM     18 OE1  GLU B 139     -33.148   9.780   5.230  1.00 28.23 LIG-0.65  OA
ENDBRANCH 15 16
ENDBRANCH 14 15
ENDBRANCH 13 14
BRANCH 13 19
ATOM     19  C   GLU B 139     -28.146  12.516   3.682  1.00 18.24 LIG 0.24  C 
ATOM     20 O    GLU B 139     -27.355  11.783   4.314  1.00 18.84 LIG-0.27  OA
ATOM     21  N   ALA B 140     -27.745  13.558   2.977  1.00 17.91 LIG-0.34  N 
ATOM     22 H    ALA B 140     -28.270  14.128   2.605  1.00 17.91 LIG 0.16  HD
BRANCH 21 23
ATOM     23  CA  ALA B 140     -26.325  13.811   2.782  1.00 17.23 LIG 0.18  C 
ATOM     24  CB  ALA B 140     -25.582  13.896   4.110  1.00 16.99 LIG 0.04  C 
BRANCH 23 25
ATOM     25  C   ALA B 140     -25.693  12.758   1.875  1.00 18.72 LIG 0.20  C 
ATOM     26 O    ALA B 140     -25.656  11.559   2.223  1.00 21.33 LIG-0.65  OA
ATOM     27 OXT  ALA B 140     -25.266  13.129   0.768  1.00 18.51 LIG-0.65  OA
ENDBRANCH 23 25
ENDBRANCH 21 23
ENDBRANCH 13 19
ENDBRANCH 10 13
ENDBRANCH 6 9
ENDBRANCH 1 2
BRANCH 1 28
ATOM     28  CB  GLU B 137     -32.536  15.943   4.368  1.00 18.04 LIG 0.04  C 
BRANCH 28 29
ATOM     29  CG  GLU B 137     -32.452  17.288   5.056  1.00 15.54 LIG 0.12  C 
BRANCH 29 30
ATOM     30  CD  GLU B 137     -31.672  17.212   6.368  1.00 15.60 LIG 0.17  C 
ATOM     31 OE1  GLU B 137     -32.304  17.252   7.460  1.00 18.63 LIG-0.65  OA
ATOM     32 OE2  GLU B 137     -30.439  17.096   6.276  1.00 16.09 LIG-0.65  OA
ENDBRANCH 29 30
ENDBRANCH 28 29
ENDBRANCH 1 28
BRANCH 1 33
ATOM     33  N   GLU B 137     -34.335  16.241   2.810  1.00 19.05 LIG-0.35  N 
ATOM     34  C   TYR B 136     -34.842  17.411   2.488  1.00 22.23 LIG 0.24  C 
ATOM     35 O    TYR B 136     -34.162  18.378   2.166  1.00 24.10 LIG-0.27  OA
ATOM     36 H    GLU B 137     -34.795  15.536   2.984  1.00 19.05 LIG 0.16  HD
BRANCH 34 37
ATOM     37  CA  TYR B 136     -36.328  17.482   2.500  1.00 22.42 LIG 0.18  C 
BRANCH 37 38
ATOM     38  CB  TYR B 136     -36.766  17.877   3.875  1.00 19.45 LIG 0.07  C 
BRANCH 38 39
ATOM     39  CG  TYR B 136     -36.087  19.157   4.305  1.00 15.32 LIG-0.06  A 
ATOM     40  CD1 TYR B 136     -36.422  20.404   3.733  1.00 18.49 LIG 0.01  A 
ATOM     41  CE1 TYR B 136     -35.688  21.565   4.061  1.00 17.90 LIG 0.04  A 
ATOM     42  CZ  TYR B 136     -34.638  21.466   4.970  1.00 15.67 LIG 0.07  A 
ATOM     43  CE2 TYR B 136     -34.344  20.251   5.572  1.00 13.07 LIG 0.04  A 
ATOM     44  CD2 TYR B 136     -35.033  19.114   5.227  1.00 14.55 LIG 0.01  A 
BRANCH 42 45
ATOM     45 OH   TYR B 136     -33.954  22.594   5.297  1.00 15.32 LIG-0.36  OA
ATOM     46 HH   TYR B 136     -33.141  22.492   5.114  1.00 15.32 LIG 0.22  HD
ENDBRANCH 42 45
ENDBRANCH 38 39
ENDBRANCH 37 38
BRANCH 37 47
ATOM     47  N   TYR B 136     -36.897  16.191   2.192  1.00 26.32 LIG-0.34  N 
ATOM     48  C   ASP B 135     -36.658  15.606   1.027  1.00 34.01 LIG 0.26  C 
ATOM     49 O    ASP B 135     -36.177  16.214   0.062  1.00 37.29 LIG-0.27  OA
ATOM     50 H    TYR B 136     -37.387  15.854   2.814  1.00 26.32 LIG 0.16  HD
BRANCH 48 51
ATOM     51  CA  ASP B 135     -37.013  14.105   0.932  1.00 37.28 LIG 0.41  C 
ATOM     52  N   ASP B 135     -35.812  13.268   0.695  1.00 36.58 LIG 0.61  N 
BRANCH 51 53
ATOM     53  CB  ASP B 135     -37.733  13.641   2.207  1.00 38.83 LIG 0.16  C 
BRANCH 53 54
ATOM     54  CG  ASP B 135     -36.762  13.338   3.354  1.00 44.23 LIG 0.17  C 
ATOM     55 OD2  ASP B 135     -37.140  12.552   4.262  1.00 49.44 LIG-0.65  OA
ATOM     56 OD1  ASP B 135     -35.625  13.877   3.337  1.00 41.19 LIG-0.65  OA
ENDBRANCH 53 54
ENDBRANCH 51 53
ENDBRANCH 48 51
ENDBRANCH 37 47
ENDBRANCH 34 37
ENDBRANCH 1 33
TORSDOF 21
ENDMDL
MODEL 7
USER: ADFR SOLUTION from run 154
USER: SCORE 19.853775 LL:  -3.630 LR: -17.079 RR:   0.000 FEB: -10.814
USER: RMSD 11.795459
USER: SEED 153
USER: STATUS no improvement in best in 5 clusters for 5 generations
USER: GENES 23
USER: genes 0 Translation |==|  0.71736 0.38556 0.48193
USER: genes 1 Rotation |==|  0.80457 0.77617 0.65346 0.73962
USER: genes 2 Torsion [N]-CA--C-[N] |==|  0.08635
USER: genes 3 Torsion [N]-CA--C-[N] |==|  0.24462
USER: genes 4 Torsion [C]-N--CA-[CB] |==|  0.85157
USER: genes 5 Torsion [N]-CA--CB-[CG] |==|  0.50547
USER: genes 6 Torsion [CA]-CB--CG-[CD] |==|  0.30707
USER: genes 7 Torsion [CB]-CG--CD-[OE2] |==|  0.54663
USER: genes 8 Torsion [N]-CA--C-[N] |==|  0.38320
USER: genes 9 Torsion [C]-N--CA-[CB] |==|  0.79897
USER: genes 10 Torsion [N]-CA--C-[O] |==|  0.14921
USER: genes 11 Torsion [C]-CA--CB-[CG] |==|  0.87391
USER: genes 12 Torsion [CA]-CB--CG-[CD] |==|  0.60910
USER: genes 13 Torsion [CB]-CG--CD-[OE1] |==|  0.71756
USER: genes 14 Torsion [C]-CA--N-[C] |==|  0.65019
USER: genes 15 Torsion [N]-C--CA-[N] |==|  0.20893
USER: genes 16 Torsion [C]-CA--CB-[CG] |==|  0.79019
USER: genes 17 Torsion [CA]-CB--CG-[CD2] |==|  0.29629
USER: genes 18 Torsion [CE1]-CZ--OH-[HH] |==|  0.44452
USER: genes 19 Torsion [C]-CA--N-[C] |==|  0.60573
USER: genes 20 Torsion [N]-C--CA-[N] |==|  0.76580
USER: genes 21 Torsion [C]-CA--CB-[CG] |==|  0.26019
USER: genes 22 Torsion [CA]-CB--CG-[OD2] |==|  0.85577
ROOT
ATOM      1  CA  GLU B 137     -29.196  12.482   3.789  1.00 17.35 LIG 0.18  C 
ENDROOT
BRANCH 1 2
ATOM      2  C   GLU B 137     -30.215  13.046   2.779  1.00 17.61 LIG 0.24  C 
ATOM      3 O    GLU B 137     -29.984  14.109   2.209  1.00 18.66 LIG-0.27  OA
ATOM      4  N   PRO B 138     -31.361  12.359   2.570  1.00 16.89 LIG-0.34  N 
ATOM      5  CD  PRO B 138     -31.761  11.088   3.206  1.00 17.79 LIG 0.13  C 
ATOM      6  CA  PRO B 138     -32.396  12.908   1.687  1.00 17.53 LIG 0.18  C 
ATOM      7  CG  PRO B 138     -33.257  10.974   2.906  1.00 17.78 LIG 0.02  C 
ATOM      8  CB  PRO B 138     -33.425  11.769   1.582  1.00 16.48 LIG 0.04  C 
BRANCH 6 9
ATOM      9  C   PRO B 138     -33.065  14.134   2.311  1.00 16.18 LIG 0.24  C 
ATOM     10  N   GLU B 139     -32.474  15.282   2.056  1.00 18.61 LIG-0.35  N 
ATOM     11 H    GLU B 139     -31.702  15.365   1.685  1.00 18.61 LIG 0.16  HD
ATOM     12 O    PRO B 138     -34.116  14.021   2.962  1.00 15.80 LIG-0.27  OA
BRANCH 10 13
ATOM     13  CA  GLU B 139     -33.131  16.531   2.411  1.00 18.29 LIG 0.18  C 
BRANCH 13 14
ATOM     14  CB  GLU B 139     -34.543  16.582   1.814  1.00 20.66 LIG 0.04  C 
BRANCH 14 15
ATOM     15  CG  GLU B 139     -35.265  17.907   2.121  1.00 25.98 LIG 0.12  C 
BRANCH 15 16
ATOM     16  CD  GLU B 139     -35.453  18.785   0.878  1.00 26.03 LIG 0.17  C 
ATOM     17 OE2  GLU B 139     -35.729  20.003   1.032  1.00 30.93 LIG-0.65  OA
ATOM     18 OE1  GLU B 139     -35.382  18.249  -0.237  1.00 28.23 LIG-0.65  OA
ENDBRANCH 15 16
ENDBRANCH 14 15
ENDBRANCH 13 14
BRANCH 13 19
ATOM     19  C   GLU B 139     -33.123  16.708   3.927  1.00 18.24 LIG 0.24  C 
ATOM     20 O    GLU B 139     -33.400  15.775   4.712  1.00 18.84 LIG-0.27  OA
ATOM     21  N   ALA B 140     -32.846  17.931   4.341  1.00 17.91 LIG-0.34  N 
ATOM     22 H    ALA B 140     -32.738  18.610   3.824  1.00 17.91 LIG 0.16  HD
BRANCH 21 23
ATOM     23  CA  ALA B 140     -32.703  18.211   5.762  1.00 17.23 LIG 0.18  C 
ATOM     24  CB  ALA B 140     -34.047  18.179   6.479  1.00 16.99 LIG 0.04  C 
BRANCH 23 25
ATOM     25  C   ALA B 140     -31.716  17.251   6.421  1.00 18.72 LIG 0.20  C 
ATOM     26 O    ALA B 140     -30.563  17.111   5.962  1.00 21.33 LIG-0.65  OA
ATOM     27 OXT  ALA B 140     -32.084  16.659   7.450  1.00 18.51 LIG-0.65  OA
ENDBRANCH 23 25
ENDBRANCH 21 23
ENDBRANCH 13 19
ENDBRANCH 10 13
ENDBRANCH 6 9
ENDBRANCH 1 2
BRANCH 1 28
ATOM     28  CB  GLU B 137     -27.789  12.871   3.332  1.00 18.04 LIG 0.04  C 
BRANCH 28 29
ATOM     29  CG  GLU B 137     -27.590  12.637   1.850  1.00 15.54 LIG 0.12  C 
BRANCH 29 30
ATOM     30  CD  GLU B 137     -26.200  12.084   1.540  1.00 15.60 LIG 0.17  C 
ATOM     31 OE1  GLU B 137     -25.317  12.865   1.089  1.00 18.63 LIG-0.65  OA
ATOM     32 OE2  GLU B 137     -26.016  10.878   1.772  1.00 16.09 LIG-0.65  OA
ENDBRANCH 29 30
ENDBRANCH 28 29
ENDBRANCH 1 28
BRANCH 1 33
ATOM     33  N   GLU B 137     -29.258  11.037   3.812  1.00 19.05 LIG-0.35  N 
ATOM     34  C   TYR B 136     -29.443  10.411   4.953  1.00 22.23 LIG 0.24  C 
ATOM     35 O    TYR B 136     -29.649  10.986   6.015  1.00 24.10 LIG-0.27  OA
ATOM     36 H    GLU B 137     -29.167  10.652   3.048  1.00 19.05 LIG 0.16  HD
BRANCH 34 37
ATOM     37  CA  TYR B 136     -29.425   8.925   4.871  1.00 22.42 LIG 0.18  C 
BRANCH 37 38
ATOM     38  CB  TYR B 136     -29.977   8.379   6.150  1.00 19.45 LIG 0.07  C 
BRANCH 38 39
ATOM     39  CG  TYR B 136     -28.961   8.498   7.263  1.00 15.32 LIG-0.06  A 
ATOM     40  CD1 TYR B 136     -27.876   7.603   7.378  1.00 18.49 LIG 0.01  A 
ATOM     41  CE1 TYR B 136     -27.014   7.659   8.495  1.00 17.90 LIG 0.04  A 
ATOM     42  CZ  TYR B 136     -27.240   8.622   9.475  1.00 15.67 LIG 0.07  A 
ATOM     43  CE2 TYR B 136     -28.275   9.535   9.335  1.00 13.07 LIG 0.04  A 
ATOM     44  CD2 TYR B 136     -29.135   9.460   8.268  1.00 14.55 LIG 0.01  A 
BRANCH 42 45
ATOM     45 OH   TYR B 136     -26.390   8.681  10.534  1.00 15.32 LIG-0.36  OA
ATOM     46 HH   TYR B 136     -26.448   9.436  10.898  1.00 15.32 LIG 0.22  HD
ENDBRANCH 42 45
ENDBRANCH 38 39
ENDBRANCH 37 38
BRANCH 37 47
ATOM     47  N   TYR B 136     -28.072   8.444   4.713  1.00 26.32 LIG-0.34  N 
ATOM     48  C   ASP B 135     -27.808   7.412   3.924  1.00 34.01 LIG 0.26  C 
ATOM     49 O    ASP B 135     -28.690   6.654   3.500  1.00 37.29 LIG-0.27  OA
ATOM     50 H    TYR B 136     -27.480   8.876   5.163  1.00 26.32 LIG 0.16  HD
BRANCH 48 51
ATOM     51  CA  ASP B 135     -26.322   7.201   3.553  1.00 37.28 LIG 0.41  C 
ATOM     52  N   ASP B 135     -25.919   8.034   2.395  1.00 36.58 LIG 0.61  N 
BRANCH 51 53
ATOM     53  CB  ASP B 135     -25.419   7.505   4.758  1.00 38.83 LIG 0.16  C 
BRANCH 53 54
ATOM     54  CG  ASP B 135     -25.090   6.252   5.578  1.00 44.23 LIG 0.17  C 
ATOM     55 OD2  ASP B 135     -26.043   5.525   5.962  1.00 49.44 LIG-0.65  OA
ATOM     56 OD1  ASP B 135     -23.883   5.995   5.825  1.00 41.19 LIG-0.65  OA
ENDBRANCH 53 54
ENDBRANCH 51 53
ENDBRANCH 48 51
ENDBRANCH 37 47
ENDBRANCH 34 37
ENDBRANCH 1 33
TORSDOF 21
ENDMDL
MODEL 8
USER: ADFR SOLUTION from run 128
USER: SCORE 20.059648 LL:  -4.726 LR: -17.060 RR:   0.000 FEB: -10.795
USER: RMSD 11.298061
USER: SEED 127
USER: STATUS no improvement in best in 2 clusters for 5 generations
USER: GENES 23
USER: genes 0 Translation |==|  0.74812 0.42465 0.45905
USER: genes 1 Rotation |==|  0.74801 0.74077 0.73696 0.77272
USER: genes 2 Torsion [N]-CA--C-[N] |==|  0.14552
USER: genes 3 Torsion [N]-CA--C-[N] |==|  0.89811
USER: genes 4 Torsion [C]-N--CA-[CB] |==|  0.19515
USER: genes 5 Torsion [N]-CA--CB-[CG] |==|  0.22657
USER: genes 6 Torsion [CA]-CB--CG-[CD] |==|  0.85045
USER: genes 7 Torsion [CB]-CG--CD-[OE2] |==|  0.34185
USER: genes 8 Torsion [N]-CA--C-[N] |==|  0.47396
USER: genes 9 Torsion [C]-N--CA-[CB] |==|  0.78028
USER: genes 10 Torsion [N]-CA--C-[O] |==|  0.62526
USER: genes 11 Torsion [C]-CA--CB-[CG] |==|  0.70178
USER: genes 12 Torsion [CA]-CB--CG-[CD] |==|  0.20381
USER: genes 13 Torsion [CB]-CG--CD-[OE1] |==|  0.18396
USER: genes 14 Torsion [C]-CA--N-[C] |==|  0.66075
USER: genes 15 Torsion [N]-C--CA-[N] |==|  0.50220
USER: genes 16 Torsion [C]-CA--CB-[CG] |==|  0.29008
USER: genes 17 Torsion [CA]-CB--CG-[CD2] |==|  0.11731
USER: genes 18 Torsion [CE1]-CZ--OH-[HH] |==|  0.08649
USER: genes 19 Torsion [C]-CA--N-[C] |==|  0.62099
USER: genes 20 Torsion [N]-C--CA-[N] |==|  0.31832
USER: genes 21 Torsion [C]-CA--CB-[CG] |==|  0.81999
USER: genes 22 Torsion [CA]-CB--CG-[OD2] |==|  0.43844
ROOT
ATOM      1  CA  GLU B 137     -28.320  13.215   3.411  1.00 17.35 LIG 0.18  C 
ENDROOT
BRANCH 1 2
ATOM      2  C   GLU B 137     -28.926  13.694   2.077  1.00 17.61 LIG 0.24  C 
ATOM      3 O    GLU B 137     -28.390  14.609   1.459  1.00 18.66 LIG-0.27  OA
ATOM      4  N   PRO B 138     -30.060  13.103   1.638  1.00 16.89 LIG-0.34  N 
ATOM      5  CD  PRO B 138     -30.804  12.012   2.298  1.00 17.79 LIG 0.13  C 
ATOM      6  CA  PRO B 138     -30.718  13.591   0.421  1.00 17.53 LIG 0.18  C 
ATOM      7  CG  PRO B 138     -32.160  12.002   1.588  1.00 17.78 LIG 0.02  C 
ATOM      8  CB  PRO B 138     -31.837  12.564   0.176  1.00 16.48 LIG 0.04  C 
BRANCH 6 9
ATOM      9  C   PRO B 138     -31.341  14.970   0.641  1.00 16.18 LIG 0.24  C 
ATOM     10  N   GLU B 139     -31.868  15.160   1.833  1.00 18.61 LIG-0.35  N 
ATOM     11 H    GLU B 139     -31.988  14.544   2.421  1.00 18.61 LIG 0.16  HD
ATOM     12 O    PRO B 138     -31.291  15.839  -0.244  1.00 15.80 LIG-0.27  OA
BRANCH 10 13
ATOM     13  CA  GLU B 139     -32.295  16.493   2.233  1.00 18.29 LIG 0.18  C 
BRANCH 13 14
ATOM     14  CB  GLU B 139     -33.541  16.916   1.444  1.00 20.66 LIG 0.04  C 
BRANCH 14 15
ATOM     15  CG  GLU B 139     -34.838  16.334   2.036  1.00 25.98 LIG 0.12  C 
BRANCH 15 16
ATOM     16  CD  GLU B 139     -34.790  14.810   2.195  1.00 26.03 LIG 0.17  C 
ATOM     17 OE2  GLU B 139     -34.986  14.313   3.334  1.00 30.93 LIG-0.65  OA
ATOM     18 OE1  GLU B 139     -34.503  14.124   1.205  1.00 28.23 LIG-0.65  OA
ENDBRANCH 15 16
ENDBRANCH 14 15
ENDBRANCH 13 14
BRANCH 13 19
ATOM     19  C   GLU B 139     -32.509  16.536   3.743  1.00 18.24 LIG 0.24  C 
ATOM     20 O    GLU B 139     -32.534  15.504   4.447  1.00 18.84 LIG-0.27  OA
ATOM     21  N   ALA B 140     -32.709  17.744   4.241  1.00 17.91 LIG-0.34  N 
ATOM     22 H    ALA B 140     -32.784  18.460   3.770  1.00 17.91 LIG 0.16  HD
BRANCH 21 23
ATOM     23  CA  ALA B 140     -32.821  17.937   5.679  1.00 17.23 LIG 0.18  C 
ATOM     24  CB  ALA B 140     -34.204  17.554   6.191  1.00 16.99 LIG 0.04  C 
BRANCH 23 25
ATOM     25  C   ALA B 140     -31.735  17.171   6.428  1.00 18.72 LIG 0.20  C 
ATOM     26 O    ALA B 140     -32.015  16.503   7.446  1.00 21.33 LIG-0.65  OA
ATOM     27 OXT  ALA B 140     -30.582  17.195   5.962  1.00 18.51 LIG-0.65  OA
ENDBRANCH 23 25
ENDBRANCH 21 23
ENDBRANCH 13 19
ENDBRANCH 10 13
ENDBRANCH 6 9
ENDBRANCH 1 2
BRANCH 1 28
ATOM     28  CB  GLU B 137     -26.930  13.837   3.568  1.00 18.04 LIG 0.04  C 
BRANCH 28 29
ATOM     29  CG  GLU B 137     -25.829  12.819   3.369  1.00 15.54 LIG 0.12  C 
BRANCH 29 30
ATOM     30  CD  GLU B 137     -25.668  12.430   1.900  1.00 15.60 LIG 0.17  C 
ATOM     31 OE1  GLU B 137     -25.266  13.298   1.077  1.00 18.63 LIG-0.65  OA
ATOM     32 OE2  GLU B 137     -25.934  11.253   1.604  1.00 16.09 LIG-0.65  OA
ENDBRANCH 29 30
ENDBRANCH 28 29
ENDBRANCH 1 28
BRANCH 1 33
ATOM     33  N   GLU B 137     -28.150  11.778   3.399  1.00 19.05 LIG-0.35  N 
ATOM     34  C   TYR B 136     -28.735  11.046   4.322  1.00 22.23 LIG 0.24  C 
ATOM     35 O    TYR B 136     -29.496  11.502   5.166  1.00 24.10 LIG-0.27  OA
ATOM     36 H    GLU B 137     -27.657  11.470   2.765  1.00 19.05 LIG 0.16  HD
BRANCH 34 37
ATOM     37  CA  TYR B 136     -28.441   9.589   4.254  1.00 22.42 LIG 0.18  C 
BRANCH 37 38
ATOM     38  CB  TYR B 136     -28.916   9.077   2.930  1.00 19.45 LIG 0.07  C 
BRANCH 38 39
ATOM     39  CG  TYR B 136     -27.749   8.844   1.998  1.00 15.32 LIG-0.06  A 
ATOM     40  CD1 TYR B 136     -27.832   9.129   0.618  1.00 18.49 LIG 0.01  A 
ATOM     41  CE1 TYR B 136     -26.773   8.787  -0.251  1.00 17.90 LIG 0.04  A 
ATOM     42  CZ  TYR B 136     -25.637   8.177   0.276  1.00 15.67 LIG 0.07  A 
ATOM     43  CE2 TYR B 136     -25.534   7.946   1.640  1.00 13.07 LIG 0.04  A 
ATOM     44  CD2 TYR B 136     -26.577   8.245   2.481  1.00 14.55 LIG 0.01  A 
BRANCH 42 45
ATOM     45 OH   TYR B 136     -24.615   7.874  -0.567  1.00 15.32 LIG-0.36  OA
ATOM     46 HH   TYR B 136     -24.591   8.435  -1.191  1.00 15.32 LIG 0.22  HD
ENDBRANCH 42 45
ENDBRANCH 38 39
ENDBRANCH 37 38
BRANCH 37 47
ATOM     47  N   TYR B 136     -29.146   8.882   5.298  1.00 26.32 LIG-0.34  N 
ATOM     48  C   ASP B 135     -28.540   7.939   6.006  1.00 34.01 LIG 0.26  C 
ATOM     49 O    ASP B 135     -27.465   7.433   5.660  1.00 37.29 LIG-0.27  OA
ATOM     50 H    TYR B 136     -29.964   9.124   5.409  1.00 26.32 LIG 0.16  HD
BRANCH 48 51
ATOM     51  CA  ASP B 135     -29.253   7.498   7.305  1.00 37.28 LIG 0.41  C 
ATOM     52  N   ASP B 135     -29.707   6.088   7.233  1.00 36.58 LIG 0.61  N 
BRANCH 51 53
ATOM     53  CB  ASP B 135     -28.330   7.692   8.517  1.00 38.83 LIG 0.16  C 
BRANCH 53 54
ATOM     54  CG  ASP B 135     -27.092   6.789   8.463  1.00 44.23 LIG 0.17  C 
ATOM     55 OD2  ASP B 135     -26.079   7.128   9.129  1.00 49.44 LIG-0.65  OA
ATOM     56 OD1  ASP B 135     -27.141   5.742   7.766  1.00 41.19 LIG-0.65  OA
ENDBRANCH 53 54
ENDBRANCH 51 53
ENDBRANCH 48 51
ENDBRANCH 37 47
ENDBRANCH 34 37
ENDBRANCH 1 33
TORSDOF 21
ENDMDL
MODEL 9
USER: ADFR SOLUTION from run 154
USER: SCORE 19.399983 LL:  -3.363 LR: -17.037 RR:   0.000 FEB: -10.773
USER: RMSD 10.835378
USER: SEED 153
USER: STATUS no improvement in best in 5 clusters for 5 generations
USER: GENES 23
USER: genes 0 Translation |==|  0.71976 0.38484 0.48874
USER: genes 1 Rotation |==|  0.79963 0.77441 0.62222 0.76454
USER: genes 2 Torsion [N]-CA--C-[N] |==|  0.06653
USER: genes 3 Torsion [N]-CA--C-[N] |==|  0.22868
USER: genes 4 Torsion [C]-N--CA-[CB] |==|  0.85271
USER: genes 5 Torsion [N]-CA--CB-[CG] |==|  0.45462
USER: genes 6 Torsion [CA]-CB--CG-[CD] |==|  0.32058
USER: genes 7 Torsion [CB]-CG--CD-[OE2] |==|  0.56228
USER: genes 8 Torsion [N]-CA--C-[N] |==|  0.37816
USER: genes 9 Torsion [C]-N--CA-[CB] |==|  0.80825
USER: genes 10 Torsion [N]-CA--C-[O] |==|  0.12220
USER: genes 11 Torsion [C]-CA--CB-[CG] |==|  0.91016
USER: genes 12 Torsion [CA]-CB--CG-[CD] |==|  0.57516
USER: genes 13 Torsion [CB]-CG--CD-[OE1] |==|  0.73882
USER: genes 14 Torsion [C]-CA--N-[C] |==|  0.60363
USER: genes 15 Torsion [N]-C--CA-[N] |==|  0.21900
USER: genes 16 Torsion [C]-CA--CB-[CG] |==|  0.17903
USER: genes 17 Torsion [CA]-CB--CG-[CD2] |==|  0.16792
USER: genes 18 Torsion [CE1]-CZ--OH-[HH] |==|  0.55961
USER: genes 19 Torsion [C]-CA--N-[C] |==|  0.63895
USER: genes 20 Torsion [N]-C--CA-[N] |==|  0.71154
USER: genes 21 Torsion [C]-CA--CB-[CG] |==|  0.23078
USER: genes 22 Torsion [CA]-CB--CG-[OD2] |==|  0.83822
ROOT
ATOM      1  CA  GLU B 137     -29.128  12.469   3.901  1.00 17.35 LIG 0.18  C 
ENDROOT
BRANCH 1 2
ATOM      2  C   GLU B 137     -30.114  12.974   2.829  1.00 17.61 LIG 0.24  C 
ATOM      3 O    GLU B 137     -29.864  14.003   2.208  1.00 18.66 LIG-0.27  OA
ATOM      4  N   PRO B 138     -31.253  12.275   2.624  1.00 16.89 LIG-0.34  N 
ATOM      5  CD  PRO B 138     -31.673  11.041   3.317  1.00 17.79 LIG 0.13  C 
ATOM      6  CA  PRO B 138     -32.259  12.772   1.679  1.00 17.53 LIG 0.18  C 
ATOM      7  CG  PRO B 138     -33.159  10.908   2.976  1.00 17.78 LIG 0.02  C 
ATOM      8  CB  PRO B 138     -33.285  11.628   1.605  1.00 16.48 LIG 0.04  C 
BRANCH 6 9
ATOM      9  C   PRO B 138     -32.947  14.030   2.211  1.00 16.18 LIG 0.24  C 
ATOM     10  N   GLU B 139     -32.287  15.152   2.014  1.00 18.61 LIG-0.35  N 
ATOM     11 H    GLU B 139     -31.476  15.202   1.731  1.00 18.61 LIG 0.16  HD
ATOM     12 O    PRO B 138     -34.068  13.966   2.740  1.00 15.80 LIG-0.27  OA
BRANCH 10 13
ATOM     13  CA  GLU B 139     -32.932  16.429   2.280  1.00 18.29 LIG 0.18  C 
BRANCH 13 14
ATOM     14  CB  GLU B 139     -34.270  16.520   1.536  1.00 20.66 LIG 0.04  C 
BRANCH 14 15
ATOM     15  CG  GLU B 139     -35.172  17.643   2.079  1.00 25.98 LIG 0.12  C 
BRANCH 15 16
ATOM     16  CD  GLU B 139     -35.428  18.752   1.052  1.00 26.03 LIG 0.17  C 
ATOM     17 OE2  GLU B 139     -35.766  19.892   1.462  1.00 30.93 LIG-0.65  OA
ATOM     18 OE1  GLU B 139     -35.349  18.469  -0.152  1.00 28.23 LIG-0.65  OA
ENDBRANCH 15 16
ENDBRANCH 14 15
ENDBRANCH 13 14
BRANCH 13 19
ATOM     19  C   GLU B 139     -33.079  16.631   3.786  1.00 18.24 LIG 0.24  C 
ATOM     20 O    GLU B 139     -33.503  15.733   4.545  1.00 18.84 LIG-0.27  OA
ATOM     21  N   ALA B 140     -32.767  17.841   4.217  1.00 17.91 LIG-0.34  N 
ATOM     22 H    ALA B 140     -32.556  18.502   3.708  1.00 17.91 LIG 0.16  HD
BRANCH 21 23
ATOM     23  CA  ALA B 140     -32.762  18.135   5.642  1.00 17.23 LIG 0.18  C 
ATOM     24  CB  ALA B 140     -34.170  18.123   6.223  1.00 16.99 LIG 0.04  C 
BRANCH 23 25
ATOM     25  C   ALA B 140     -31.855  17.173   6.405  1.00 18.72 LIG 0.20  C 
ATOM     26 O    ALA B 140     -30.725  16.878   5.962  1.00 21.33 LIG-0.65  OA
ATOM     27 OXT  ALA B 140     -32.261  16.738   7.497  1.00 18.51 LIG-0.65  OA
ENDBRANCH 23 25
ENDBRANCH 21 23
ENDBRANCH 13 19
ENDBRANCH 10 13
ENDBRANCH 6 9
ENDBRANCH 1 2
BRANCH 1 28
ATOM     28  CB  GLU B 137     -27.701  12.672   3.387  1.00 18.04 LIG 0.04  C 
BRANCH 28 29
ATOM     29  CG  GLU B 137     -27.616  12.526   1.883  1.00 15.54 LIG 0.12  C 
BRANCH 29 30
ATOM     30  CD  GLU B 137     -26.230  12.070   1.430  1.00 15.60 LIG 0.17  C 
ATOM     31 OE1  GLU B 137     -25.379  12.939   1.091  1.00 18.63 LIG-0.65  OA
ATOM     32 OE2  GLU B 137     -26.016  10.847   1.440  1.00 16.09 LIG-0.65  OA
ENDBRANCH 29 30
ENDBRANCH 28 29
ENDBRANCH 1 28
BRANCH 1 33
ATOM     33  N   GLU B 137     -29.309  11.050   4.122  1.00 19.05 LIG-0.35  N 
ATOM     34  C   TYR B 136     -29.194  10.561   5.337  1.00 22.23 LIG 0.24  C 
ATOM     35 O    TYR B 136     -29.018  11.253   6.332  1.00 24.10 LIG-0.27  OA
ATOM     36 H    GLU B 137     -29.488  10.588   3.419  1.00 19.05 LIG 0.16  HD
BRANCH 34 37
ATOM     37  CA  TYR B 136     -29.335   9.083   5.440  1.00 22.42 LIG 0.18  C 
BRANCH 37 38
ATOM     38  CB  TYR B 136     -29.609   8.738   6.870  1.00 19.45 LIG 0.07  C 
BRANCH 38 39
ATOM     39  CG  TYR B 136     -30.935   9.311   7.313  1.00 15.32 LIG-0.06  A 
ATOM     40  CD1 TYR B 136     -31.039  10.167   8.431  1.00 18.49 LIG 0.01  A 
ATOM     41  CE1 TYR B 136     -32.304  10.588   8.898  1.00 17.90 LIG 0.04  A 
ATOM     42  CZ  TYR B 136     -33.447  10.159   8.230  1.00 15.67 LIG 0.07  A 
ATOM     43  CE2 TYR B 136     -33.342   9.361   7.100  1.00 13.07 LIG 0.04  A 
ATOM     44  CD2 TYR B 136     -32.116   8.922   6.665  1.00 14.55 LIG 0.01  A 
BRANCH 42 45
ATOM     45 OH   TYR B 136     -34.658  10.590   8.674  1.00 15.32 LIG-0.36  OA
ATOM     46 HH   TYR B 136     -35.257  10.065   8.409  1.00 15.32 LIG 0.22  HD
ENDBRANCH 42 45
ENDBRANCH 38 39
ENDBRANCH 37 38
BRANCH 37 47
ATOM     47  N   TYR B 136     -28.112   8.430   5.038  1.00 26.32 LIG-0.34  N 
ATOM     48  C   ASP B 135     -28.130   7.441   4.155  1.00 34.01 LIG 0.26  C 
ATOM     49 O    ASP B 135     -29.171   6.855   3.833  1.00 37.29 LIG-0.27  OA
ATOM     50 H    TYR B 136     -27.399   8.734   5.412  1.00 26.32 LIG 0.16  HD
BRANCH 48 51
ATOM     51  CA  ASP B 135     -26.767   7.053   3.537  1.00 37.28 LIG 0.41  C 
ATOM     52  N   ASP B 135     -26.624   7.564   2.152  1.00 36.58 LIG 0.61  N 
BRANCH 51 53
ATOM     53  CB  ASP B 135     -25.614   7.571   4.410  1.00 38.83 LIG 0.16  C 
BRANCH 53 54
ATOM     54  CG  ASP B 135     -25.297   6.636   5.583  1.00 44.23 LIG 0.17  C 
ATOM     55 OD2  ASP B 135     -26.216   6.378   6.403  1.00 49.44 LIG-0.65  OA
ATOM     56 OD1  ASP B 135     -24.136   6.157   5.673  1.00 41.19 LIG-0.65  OA
ENDBRANCH 53 54
ENDBRANCH 51 53
ENDBRANCH 48 51
ENDBRANCH 37 47
ENDBRANCH 34 37
ENDBRANCH 1 33
TORSDOF 21
ENDMDL
MODEL 10
USER: ADFR SOLUTION from run 156
USER: SCORE 19.004296 LL:  -4.028 LR: -16.904 RR:   0.000 FEB: -10.640
USER: RMSD 4.746708
USER: SEED 155
USER: STATUS no improvement in best in 4 clusters for 5 generations
USER: GENES 23
USER: genes 0 Translation |==|  0.55734 0.62797 0.44542
USER: genes 1 Rotation |==|  0.49102 0.35879 0.43107 0.97458
USER: genes 2 Torsion [N]-CA--C-[N] |==|  0.30839
USER: genes 3 Torsion [N]-CA--C-[N] |==|  0.49556
USER: genes 4 Torsion [C]-N--CA-[CB] |==|  0.40762
USER: genes 5 Torsion [N]-CA--CB-[CG] |==|  0.72393
USER: genes 6 Torsion [CA]-CB--CG-[CD] |==|  0.20410
USER: genes 7 Torsion [CB]-CG--CD-[OE2] |==|  0.48513
USER: genes 8 Torsion [N]-CA--C-[N] |==|  0.18368
USER: genes 9 Torsion [C]-N--CA-[CB] |==|  0.82307
USER: genes 10 Torsion [N]-CA--C-[O] |==|  0.11942
USER: genes 11 Torsion [C]-CA--CB-[CG] |==|  0.30804
USER: genes 12 Torsion [CA]-CB--CG-[CD] |==|  0.66002
USER: genes 13 Torsion [CB]-CG--CD-[OE1] |==|  0.29099
USER: genes 14 Torsion [C]-CA--N-[C] |==|  0.76904
USER: genes 15 Torsion [N]-C--CA-[N] |==|  0.91461
USER: genes 16 Torsion [C]-CA--CB-[CG] |==|  0.20065
USER: genes 17 Torsion [CA]-CB--CG-[CD2] |==|  0.07509
USER: genes 18 Torsion [CE1]-CZ--OH-[HH] |==|  0.94971
USER: genes 19 Torsion [C]-CA--N-[C] |==|  0.79815
USER: genes 20 Torsion [N]-C--CA-[N] |==|  0.48968
USER: genes 21 Torsion [C]-CA--CB-[CG] |==|  0.71018
USER: genes 22 Torsion [CA]-CB--CG-[OD2] |==|  0.65869
ROOT
ATOM      1  CA  GLU B 137     -33.757  17.028   3.186  1.00 17.35 LIG 0.18  C 
ENDROOT
BRANCH 1 2
ATOM      2  C   GLU B 137     -33.332  15.594   2.809  1.00 17.61 LIG 0.24  C 
ATOM      3 O    GLU B 137     -33.890  14.636   3.336  1.00 18.66 LIG-0.27  OA
ATOM      4  N   PRO B 138     -32.327  15.435   1.919  1.00 16.89 LIG-0.34  N 
ATOM      5  CD  PRO B 138     -31.570  16.503   1.236  1.00 17.79 LIG 0.13  C 
ATOM      6  CA  PRO B 138     -31.832  14.091   1.603  1.00 17.53 LIG 0.18  C 
ATOM      7  CG  PRO B 138     -30.346  15.786   0.663  1.00 17.78 LIG 0.02  C 
ATOM      8  CB  PRO B 138     -30.843  14.330   0.450  1.00 16.48 LIG 0.04  C 
BRANCH 6 9
ATOM      9  C   PRO B 138     -31.083  13.481   2.789  1.00 16.18 LIG 0.24  C 
ATOM     10  N   GLU B 139     -30.635  12.259   2.597  1.00 18.61 LIG-0.35  N 
ATOM     11 H    GLU B 139     -30.836  11.761   1.924  1.00 18.61 LIG 0.16  HD
ATOM     12 O    PRO B 138     -30.889  14.139   3.824  1.00 15.80 LIG-0.27  OA
BRANCH 10 13
ATOM     13  CA  GLU B 139     -29.728  11.658   3.564  1.00 18.29 LIG 0.18  C 
BRANCH 13 14
ATOM     14  CB  GLU B 139     -29.968  10.146   3.657  1.00 20.66 LIG 0.04  C 
BRANCH 14 15
ATOM     15  CG  GLU B 139     -30.836   9.760   4.868  1.00 25.98 LIG 0.12  C 
BRANCH 15 16
ATOM     16  CD  GLU B 139     -32.314  10.128   4.684  1.00 26.03 LIG 0.17  C 
ATOM     17 OE2  GLU B 139     -33.141   9.772   5.562  1.00 30.93 LIG-0.65  OA
ATOM     18 OE1  GLU B 139     -32.649  10.715   3.646  1.00 28.23 LIG-0.65  OA
ENDBRANCH 15 16
ENDBRANCH 14 15
ENDBRANCH 13 14
BRANCH 13 19
ATOM     19  C   GLU B 139     -28.286  12.007   3.208  1.00 18.24 LIG 0.24  C 
ATOM     20 O    GLU B 139     -27.447  11.139   2.881  1.00 18.84 LIG-0.27  OA
ATOM     21  N   ALA B 140     -27.982  13.288   3.315  1.00 17.91 LIG-0.34  N 
ATOM     22 H    ALA B 140     -28.512  13.893   3.620  1.00 17.91 LIG 0.16  HD
BRANCH 21 23
ATOM     23  CA  ALA B 140     -26.672  13.770   2.904  1.00 17.23 LIG 0.18  C 
ATOM     24  CB  ALA B 140     -25.560  13.169   3.756  1.00 16.99 LIG 0.04  C 
BRANCH 23 25
ATOM     25  C   ALA B 140     -26.421  13.504   1.423  1.00 18.72 LIG 0.20  C 
ATOM     26 O    ALA B 140     -27.318  13.711   0.579  1.00 21.33 LIG-0.65  OA
ATOM     27 OXT  ALA B 140     -25.285  13.125   1.087  1.00 18.51 LIG-0.65  OA
ENDBRANCH 23 25
ENDBRANCH 21 23
ENDBRANCH 13 19
ENDBRANCH 10 13
ENDBRANCH 6 9
ENDBRANCH 1 2
BRANCH 1 28
ATOM     28  CB  GLU B 137     -33.843  17.126   4.711  1.00 18.04 LIG 0.04  C 
BRANCH 28 29
ATOM     29  CG  GLU B 137     -32.751  18.003   5.283  1.00 15.54 LIG 0.12  C 
BRANCH 29 30
ATOM     30  CD  GLU B 137     -31.892  17.255   6.301  1.00 15.60 LIG 0.17  C 
ATOM     31 OE1  GLU B 137     -30.734  16.878   5.967  1.00 18.63 LIG-0.65  OA
ATOM     32 OE2  GLU B 137     -32.390  17.075   7.425  1.00 16.09 LIG-0.65  OA
ENDBRANCH 29 30
ENDBRANCH 28 29
ENDBRANCH 1 28
BRANCH 1 33
ATOM     33  N   GLU B 137     -35.074  17.317   2.660  1.00 19.05 LIG-0.35  N 
ATOM     34  C   TYR B 136     -35.204  17.712   1.413  1.00 22.23 LIG 0.24  C 
ATOM     35 O    TYR B 136     -34.270  17.779   0.623  1.00 24.10 LIG-0.27  OA
ATOM     36 H    GLU B 137     -35.723  17.210   3.214  1.00 19.05 LIG 0.16  HD
BRANCH 34 37
ATOM     37  CA  TYR B 136     -36.593  18.044   0.996  1.00 22.42 LIG 0.18  C 
BRANCH 37 38
ATOM     38  CB  TYR B 136     -36.847  19.482   1.319  1.00 19.45 LIG 0.07  C 
BRANCH 38 39
ATOM     39  CG  TYR B 136     -36.088  20.384   0.374  1.00 15.32 LIG-0.06  A 
ATOM     40  CD1 TYR B 136     -35.766  21.716   0.715  1.00 18.49 LIG 0.01  A 
ATOM     41  CE1 TYR B 136     -35.167  22.575  -0.232  1.00 17.90 LIG 0.04  A 
ATOM     42  CZ  TYR B 136     -34.883  22.085  -1.504  1.00 15.67 LIG 0.07  A 
ATOM     43  CE2 TYR B 136     -35.151  20.761  -1.822  1.00 13.07 LIG 0.04  A 
ATOM     44  CD2 TYR B 136     -35.766  19.935  -0.914  1.00 14.55 LIG 0.01  A 
BRANCH 42 45
ATOM     45 OH   TYR B 136     -34.284  22.914  -2.399  1.00 15.32 LIG-0.36  OA
ATOM     46 HH   TYR B 136     -34.377  23.711  -2.149  1.00 15.32 LIG 0.22  HD
ENDBRANCH 42 45
ENDBRANCH 38 39
ENDBRANCH 37 38
BRANCH 37 47
ATOM     47  N   TYR B 136     -37.545  17.236   1.723  1.00 26.32 LIG-0.34  N 
ATOM     48  C   ASP B 135     -37.684  15.946   1.452  1.00 34.01 LIG 0.26  C 
ATOM     49 O    ASP B 135     -37.228  15.427   0.426  1.00 37.29 LIG-0.27  OA
ATOM     50 H    TYR B 136     -37.993  17.658   2.323  1.00 26.32 LIG 0.16  HD
BRANCH 48 51
ATOM     51  CA  ASP B 135     -38.456  15.109   2.499  1.00 37.28 LIG 0.41  C 
ATOM     52  N   ASP B 135     -38.632  13.704   2.060  1.00 36.58 LIG 0.61  N 
BRANCH 51 53
ATOM     53  CB  ASP B 135     -37.735  15.149   3.855  1.00 38.83 LIG 0.16  C 
BRANCH 53 54
ATOM     54  CG  ASP B 135     -36.982  13.849   4.160  1.00 44.23 LIG 0.17  C 
ATOM     55 OD2  ASP B 135     -37.267  13.230   5.218  1.00 49.44 LIG-0.65  OA
ATOM     56 OD1  ASP B 135     -36.118  13.448   3.337  1.00 41.19 LIG-0.65  OA
ENDBRANCH 53 54
ENDBRANCH 51 53
ENDBRANCH 48 51
ENDBRANCH 37 47
ENDBRANCH 34 37
ENDBRANCH 1 33
TORSDOF 21
ENDMDL
MODEL 11
USER: ADFR SOLUTION from run 125
USER: SCORE 20.677919 LL:  -4.329 LR: -16.866 RR:   0.000 FEB: -10.602
USER: RMSD 5.675345
USER: SEED 124
USER: STATUS searching
USER: GENES 23
USER: genes 0 Translation |==|  0.57349 0.58662 0.43422
USER: genes 1 Rotation |==|  0.52117 0.36525 0.46048 0.97941
USER: genes 2 Torsion [N]-CA--C-[N] |==|  0.31514
USER: genes 3 Torsion [N]-CA--C-[N] |==|  0.54592
USER: genes 4 Torsion [C]-N--CA-[CB] |==|  0.87711
USER: genes 5 Torsion [N]-CA--CB-[CG] |==|  0.71184
USER: genes 6 Torsion [CA]-CB--CG-[CD] |==|  0.00766
USER: genes 7 Torsion [CB]-CG--CD-[OE2] |==|  0.82389
USER: genes 8 Torsion [N]-CA--C-[N] |==|  0.89381
USER: genes 9 Torsion [C]-N--CA-[CB] |==|  0.21841
USER: genes 10 Torsion [N]-CA--C-[O] |==|  0.56798
USER: genes 11 Torsion [C]-CA--CB-[CG] |==|  0.35162
USER: genes 12 Torsion [CA]-CB--CG-[CD] |==|  0.62955
USER: genes 13 Torsion [CB]-CG--CD-[OE1] |==|  0.76425
USER: genes 14 Torsion [C]-CA--N-[C] |==|  0.73090
USER: genes 15 Torsion [N]-C--CA-[N] |==|  0.89198
USER: genes 16 Torsion [C]-CA--CB-[CG] |==|  0.20495
USER: genes 17 Torsion [CA]-CB--CG-[CD2] |==|  0.06417
USER: genes 18 Torsion [CE1]-CZ--OH-[HH] |==|  0.17775
USER: genes 19 Torsion [C]-CA--N-[C] |==|  0.82962
USER: genes 20 Torsion [N]-C--CA-[N] |==|  0.62962
USER: genes 21 Torsion [C]-CA--CB-[CG] |==|  0.74180
USER: genes 22 Torsion [CA]-CB--CG-[OD2] |==|  0.14376
ROOT
ATOM      1  CA  GLU B 137     -33.297  16.252   3.002  1.00 17.35 LIG 0.18  C 
ENDROOT
BRANCH 1 2
ATOM      2  C   GLU B 137     -32.675  14.934   2.498  1.00 17.61 LIG 0.24  C 
ATOM      3 O    GLU B 137     -33.104  13.861   2.913  1.00 18.66 LIG-0.27  OA
ATOM      4  N   PRO B 138     -31.643  15.002   1.627  1.00 16.89 LIG-0.34  N 
ATOM      5  CD  PRO B 138     -31.028  16.225   1.074  1.00 17.79 LIG 0.13  C 
ATOM      6  CA  PRO B 138     -30.965  13.775   1.196  1.00 17.53 LIG 0.18  C 
ATOM      7  CG  PRO B 138     -29.709  15.740   0.470  1.00 17.78 LIG 0.02  C 
ATOM      8  CB  PRO B 138     -29.999  14.259   0.101  1.00 16.48 LIG 0.04  C 
BRANCH 6 9
ATOM      9  C   PRO B 138     -30.159  13.155   2.338  1.00 16.18 LIG 0.24  C 
ATOM     10  N   GLU B 139     -29.261  12.265   1.969  1.00 18.61 LIG-0.35  N 
ATOM     11 H    GLU B 139     -29.192  11.937   1.177  1.00 18.61 LIG 0.16  HD
ATOM     12 O    PRO B 138     -30.331  13.524   3.511  1.00 15.80 LIG-0.27  OA
BRANCH 10 13
ATOM     13  CA  GLU B 139     -28.292  11.768   2.934  1.00 18.29 LIG 0.18  C 
BRANCH 13 14
ATOM     14  CB  GLU B 139     -27.722  12.924   3.765  1.00 20.66 LIG 0.04  C 
BRANCH 14 15
ATOM     15  CG  GLU B 139     -26.299  13.318   3.328  1.00 25.98 LIG 0.12  C 
BRANCH 15 16
ATOM     16  CD  GLU B 139     -25.802  12.514   2.121  1.00 26.03 LIG 0.17  C 
ATOM     17 OE2  GLU B 139     -25.658  11.270   2.239  1.00 30.93 LIG-0.65  OA
ATOM     18 OE1  GLU B 139     -25.504  13.128   1.087  1.00 28.23 LIG-0.65  OA
ENDBRANCH 15 16
ENDBRANCH 14 15
ENDBRANCH 13 14
BRANCH 13 19
ATOM     19  C   GLU B 139     -28.930  10.681   3.795  1.00 18.24 LIG 0.24  C 
ATOM     20 O    GLU B 139     -28.317   9.644   4.128  1.00 18.84 LIG-0.27  OA
ATOM     21  N   ALA B 140     -30.191  10.900   4.121  1.00 17.91 LIG-0.34  N 
ATOM     22 H    ALA B 140     -30.663  11.560   3.835  1.00 17.91 LIG 0.16  HD
BRANCH 21 23
ATOM     23  CA  ALA B 140     -30.884   9.994   5.025  1.00 17.23 LIG 0.18  C 
ATOM     24  CB  ALA B 140     -30.507  10.255   6.479  1.00 16.99 LIG 0.04  C 
BRANCH 23 25
ATOM     25  C   ALA B 140     -32.397  10.071   4.838  1.00 18.72 LIG 0.20  C 
ATOM     26 O    ALA B 140     -33.170   9.753   5.765  1.00 21.33 LIG-0.65  OA
ATOM     27 OXT  ALA B 140     -32.824  10.507   3.754  1.00 18.51 LIG-0.65  OA
ENDBRANCH 23 25
ENDBRANCH 21 23
ENDBRANCH 13 19
ENDBRANCH 10 13
ENDBRANCH 6 9
ENDBRANCH 1 2
BRANCH 1 28
ATOM     28  CB  GLU B 137     -33.363  16.209   4.530  1.00 18.04 LIG 0.04  C 
BRANCH 28 29
ATOM     29  CG  GLU B 137     -32.706  17.417   5.159  1.00 15.54 LIG 0.12  C 
BRANCH 29 30
ATOM     30  CD  GLU B 137     -31.774  17.029   6.306  1.00 15.60 LIG 0.17  C 
ATOM     31 OE1  GLU B 137     -32.258  16.864   7.460  1.00 18.63 LIG-0.65  OA
ATOM     32 OE2  GLU B 137     -30.574  16.880   6.022  1.00 16.09 LIG-0.65  OA
ENDBRANCH 29 30
ENDBRANCH 28 29
ENDBRANCH 1 28
BRANCH 1 33
ATOM     33  N   GLU B 137     -34.653  16.386   2.514  1.00 19.05 LIG-0.35  N 
ATOM     34  C   TYR B 136     -34.889  17.101   1.436  1.00 22.23 LIG 0.24  C 
ATOM     35 O    TYR B 136     -34.008  17.609   0.754  1.00 24.10 LIG-0.27  OA
ATOM     36 H    GLU B 137     -35.252  15.975   2.975  1.00 19.05 LIG 0.16  HD
BRANCH 34 37
ATOM     37  CA  TYR B 136     -36.324  17.225   1.062  1.00 22.42 LIG 0.18  C 
BRANCH 37 38
ATOM     38  CB  TYR B 136     -36.945  18.274   1.930  1.00 19.45 LIG 0.07  C 
BRANCH 38 39
ATOM     39  CG  TYR B 136     -36.498  19.653   1.503  1.00 15.32 LIG-0.06  A 
ATOM     40  CD1 TYR B 136     -36.610  20.769   2.361  1.00 18.49 LIG 0.01  A 
ATOM     41  CE1 TYR B 136     -36.302  22.066   1.896  1.00 17.90 LIG 0.04  A 
ATOM     42  CZ  TYR B 136     -35.869  22.227   0.582  1.00 15.67 LIG 0.07  A 
ATOM     43  CE2 TYR B 136     -35.708  21.124  -0.244  1.00 13.07 LIG 0.04  A 
ATOM     44  CD2 TYR B 136     -36.041  19.867   0.196  1.00 14.55 LIG 0.01  A 
BRANCH 42 45
ATOM     45 OH   TYR B 136     -35.553  23.478   0.153  1.00 15.32 LIG-0.36  OA
ATOM     46 HH   TYR B 136     -34.894  23.764   0.587  1.00 15.32 LIG 0.22  HD
ENDBRANCH 42 45
ENDBRANCH 38 39
ENDBRANCH 37 38
BRANCH 37 47
ATOM     47  N   TYR B 136     -37.015  15.977   1.287  1.00 26.32 LIG-0.34  N 
ATOM     48  C   ASP B 135     -36.655  14.878   0.639  1.00 34.01 LIG 0.26  C 
ATOM     49 O    ASP B 135     -35.918  14.900  -0.355  1.00 37.29 LIG-0.27  OA
ATOM     50 H    TYR B 136     -37.655  16.016   1.859  1.00 26.32 LIG 0.16  HD
BRANCH 48 51
ATOM     51  CA  ASP B 135     -37.209  13.546   1.196  1.00 37.28 LIG 0.41  C 
ATOM     52  N   ASP B 135     -36.152  12.511   1.305  1.00 36.58 LIG 0.61  N 
BRANCH 51 53
ATOM     53  CB  ASP B 135     -37.868  13.769   2.566  1.00 38.83 LIG 0.16  C 
BRANCH 53 54
ATOM     54  CG  ASP B 135     -36.899  13.535   3.730  1.00 44.23 LIG 0.17  C 
ATOM     55 OD2  ASP B 135     -35.791  14.131   3.711  1.00 49.44 LIG-0.65  OA
ATOM     56 OD1  ASP B 135     -37.253  12.765   4.662  1.00 41.19 LIG-0.65  OA
ENDBRANCH 53 54
ENDBRANCH 51 53
ENDBRANCH 48 51
ENDBRANCH 37 47
ENDBRANCH 34 37
ENDBRANCH 1 33
TORSDOF 21
ENDMDL
MODEL 12
USER: ADFR SOLUTION from run 192
USER: SCORE 20.925707 LL:  -4.909 LR: -16.740 RR:   0.000 FEB: -10.475
USER: RMSD 5.425114
USER: SEED 191
USER: STATUS no improvement in best in 4 clusters for 5 generations
USER: GENES 23
USER: genes 0 Translation |==|  0.59359 0.57671 0.42016
USER: genes 1 Rotation |==|  0.54345 0.39820 0.47920 0.98715
USER: genes 2 Torsion [N]-CA--C-[N] |==|  0.27070
USER: genes 3 Torsion [N]-CA--C-[N] |==|  0.21811
USER: genes 4 Torsion [C]-N--CA-[CB] |==|  0.18333
USER: genes 5 Torsion [N]-CA--CB-[CG] |==|  0.61832
USER: genes 6 Torsion [CA]-CB--CG-[CD] |==|  0.09586
USER: genes 7 Torsion [CB]-CG--CD-[OE2] |==|  0.78466
USER: genes 8 Torsion [N]-CA--C-[N] |==|  0.02516
USER: genes 9 Torsion [C]-N--CA-[CB] |==|  0.12638
USER: genes 10 Torsion [N]-CA--C-[O] |==|  0.55363
USER: genes 11 Torsion [C]-CA--CB-[CG] |==|  0.40661
USER: genes 12 Torsion [CA]-CB--CG-[CD] |==|  0.56839
USER: genes 13 Torsion [CB]-CG--CD-[OE1] |==|  0.70109
USER: genes 14 Torsion [C]-CA--N-[C] |==|  0.67476
USER: genes 15 Torsion [N]-C--CA-[N] |==|  0.90088
USER: genes 16 Torsion [C]-CA--CB-[CG] |==|  0.77781
USER: genes 17 Torsion [CA]-CB--CG-[CD2] |==|  0.75205
USER: genes 18 Torsion [CE1]-CZ--OH-[HH] |==|  0.75488
USER: genes 19 Torsion [C]-CA--N-[C] |==|  0.81041
USER: genes 20 Torsion [N]-C--CA-[N] |==|  0.69388
USER: genes 21 Torsion [C]-CA--CB-[CG] |==|  0.75615
USER: genes 22 Torsion [CA]-CB--CG-[OD2] |==|  0.58507
ROOT
ATOM      1  CA  GLU B 137     -32.724  16.066   2.770  1.00 17.35 LIG 0.18  C 
ENDROOT
BRANCH 1 2
ATOM      2  C   GLU B 137     -32.044  14.860   2.091  1.00 17.61 LIG 0.24  C 
ATOM      3 O    GLU B 137     -32.069  13.761   2.637  1.00 18.66 LIG-0.27  OA
ATOM      4  N   PRO B 138     -31.408  15.059   0.914  1.00 16.89 LIG-0.34  N 
ATOM      5  CD  PRO B 138     -31.292  16.331   0.173  1.00 17.79 LIG 0.13  C 
ATOM      6  CA  PRO B 138     -30.672  13.959   0.283  1.00 17.53 LIG 0.18  C 
ATOM      7  CG  PRO B 138     -30.185  16.068  -0.849  1.00 17.78 LIG 0.02  C 
ATOM      8  CB  PRO B 138     -30.261  14.534  -1.084  1.00 16.48 LIG 0.04  C 
BRANCH 6 9
ATOM      9  C   PRO B 138     -29.414  13.604   1.077  1.00 16.18 LIG 0.24  C 
ATOM     10  N   GLU B 139     -29.621  12.873   2.152  1.00 18.61 LIG-0.35  N 
ATOM     11 H    GLU B 139     -30.395  12.698   2.486  1.00 18.61 LIG 0.16  HD
ATOM     12 O    PRO B 138     -28.292  13.955   0.680  1.00 15.80 LIG-0.27  OA
BRANCH 10 13
ATOM     13  CA  GLU B 139     -28.492  12.295   2.865  1.00 18.29 LIG 0.18  C 
BRANCH 13 14
ATOM     14  CB  GLU B 139     -27.630  13.399   3.489  1.00 20.66 LIG 0.04  C 
BRANCH 14 15
ATOM     15  CG  GLU B 139     -26.122  13.139   3.313  1.00 25.98 LIG 0.12  C 
BRANCH 15 16
ATOM     16  CD  GLU B 139     -25.786  12.451   1.985  1.00 26.03 LIG 0.17  C 
ATOM     17 OE2  GLU B 139     -25.995  11.216   1.872  1.00 30.93 LIG-0.65  OA
ATOM     18 OE1  GLU B 139     -25.266  13.128   1.087  1.00 28.23 LIG-0.65  OA
ENDBRANCH 15 16
ENDBRANCH 14 15
ENDBRANCH 13 14
BRANCH 13 19
ATOM     19  C   GLU B 139     -28.991  11.283   3.892  1.00 18.24 LIG 0.24  C 
ATOM     20 O    GLU B 139     -28.231  10.738   4.722  1.00 18.84 LIG-0.27  OA
ATOM     21  N   ALA B 140     -30.278  10.995   3.808  1.00 17.91 LIG-0.34  N 
ATOM     22 H    ALA B 140     -30.805  11.287   3.194  1.00 17.91 LIG 0.16  HD
BRANCH 21 23
ATOM     23  CA  ALA B 140     -30.903  10.126   4.794  1.00 17.23 LIG 0.18  C 
ATOM     24  CB  ALA B 140     -30.491  10.500   6.213  1.00 16.99 LIG 0.04  C 
BRANCH 23 25
ATOM     25  C   ALA B 140     -32.422  10.130   4.654  1.00 18.72 LIG 0.20  C 
ATOM     26 O    ALA B 140     -33.149   9.753   5.598  1.00 21.33 LIG-0.65  OA
ATOM     27 OXT  ALA B 140     -32.905  10.566   3.594  1.00 18.51 LIG-0.65  OA
ENDBRANCH 23 25
ENDBRANCH 21 23
ENDBRANCH 13 19
ENDBRANCH 10 13
ENDBRANCH 6 9
ENDBRANCH 1 2
BRANCH 1 28
ATOM     28  CB  GLU B 137     -32.590  15.913   4.286  1.00 18.04 LIG 0.04  C 
BRANCH 28 29
ATOM     29  CG  GLU B 137     -32.446  17.250   4.979  1.00 15.54 LIG 0.12  C 
BRANCH 29 30
ATOM     30  CD  GLU B 137     -31.733  17.123   6.324  1.00 15.60 LIG 0.17  C 
ATOM     31 OE1  GLU B 137     -32.402  17.254   7.387  1.00 18.63 LIG-0.65  OA
ATOM     32 OE2  GLU B 137     -30.516  16.878   6.288  1.00 16.09 LIG-0.65  OA
ENDBRANCH 29 30
ENDBRANCH 28 29
ENDBRANCH 1 28
BRANCH 1 33
ATOM     33  N   GLU B 137     -34.138  16.086   2.461  1.00 19.05 LIG-0.35  N 
ATOM     34  C   TYR B 136     -34.643  17.094   1.785  1.00 22.23 LIG 0.24  C 
ATOM     35 O    TYR B 136     -33.967  18.003   1.319  1.00 24.10 LIG-0.27  OA
ATOM     36 H    GLU B 137     -34.587  15.411   2.748  1.00 19.05 LIG 0.16  HD
BRANCH 34 37
ATOM     37  CA  TYR B 136     -36.116  17.044   1.580  1.00 22.42 LIG 0.18  C 
BRANCH 37 38
ATOM     38  CB  TYR B 136     -36.777  17.588   2.807  1.00 19.45 LIG 0.07  C 
BRANCH 38 39
ATOM     39  CG  TYR B 136     -36.826  16.542   3.896  1.00 15.32 LIG-0.06  A 
ATOM     40  CD1 TYR B 136     -35.751  16.351   4.792  1.00 18.49 LIG 0.01  A 
ATOM     41  CE1 TYR B 136     -35.770  15.286   5.719  1.00 17.90 LIG 0.04  A 
ATOM     42  CZ  TYR B 136     -36.872  14.435   5.748  1.00 15.67 LIG 0.07  A 
ATOM     43  CE2 TYR B 136     -37.951  14.655   4.904  1.00 13.07 LIG 0.04  A 
ATOM     44  CD2 TYR B 136     -37.919  15.668   3.978  1.00 14.55 LIG 0.01  A 
BRANCH 42 45
ATOM     45 OH   TYR B 136     -36.890  13.428   6.661  1.00 15.32 LIG-0.36  OA
ATOM     46 HH   TYR B 136     -36.516  12.750   6.337  1.00 15.32 LIG 0.22  HD
ENDBRANCH 42 45
ENDBRANCH 38 39
ENDBRANCH 37 38
BRANCH 37 47
ATOM     47  N   TYR B 136     -36.553  15.681   1.390  1.00 26.32 LIG-0.34  N 
ATOM     48  C   ASP B 135     -36.218  15.008   0.299  1.00 34.01 LIG 0.26  C 
ATOM     49 O    ASP B 135     -35.758  15.559  -0.709  1.00 37.29 LIG-0.27  OA
ATOM     50 H    TYR B 136     -37.033  15.363   2.030  1.00 26.32 LIG 0.16  HD
BRANCH 48 51
ATOM     51  CA  ASP B 135     -36.431  13.478   0.349  1.00 37.28 LIG 0.41  C 
ATOM     52  N   ASP B 135     -35.143  12.742   0.384  1.00 36.58 LIG 0.61  N 
BRANCH 51 53
ATOM     53  CB  ASP B 135     -37.288  13.094   1.565  1.00 38.83 LIG 0.16  C 
BRANCH 53 54
ATOM     54  CG  ASP B 135     -36.449  12.862   2.827  1.00 44.23 LIG 0.17  C 
ATOM     55 OD2  ASP B 135     -36.864  12.029   3.673  1.00 49.44 LIG-0.65  OA
ATOM     56 OD1  ASP B 135     -35.375  13.506   2.961  1.00 41.19 LIG-0.65  OA
ENDBRANCH 53 54
ENDBRANCH 51 53
ENDBRANCH 48 51
ENDBRANCH 37 47
ENDBRANCH 34 37
ENDBRANCH 1 33
TORSDOF 21
ENDMDL
MODEL 13
USER: ADFR SOLUTION from run 188
USER: SCORE 19.345783 LL:  -4.183 LR: -16.682 RR:   0.000 FEB: -10.417
USER: RMSD 5.247230
USER: SEED 187
USER: STATUS 1 or 2 clusters left
USER: GENES 23
USER: genes 0 Translation |==|  0.56740 0.64619 0.44019
USER: genes 1 Rotation |==|  0.45367 0.53879 0.45315 0.99412
USER: genes 2 Torsion [N]-CA--C-[N] |==|  0.35413
USER: genes 3 Torsion [N]-CA--C-[N] |==|  0.54160
USER: genes 4 Torsion [C]-N--CA-[CB] |==|  0.83257
USER: genes 5 Torsion [N]-CA--CB-[CG] |==|  0.44579
USER: genes 6 Torsion [CA]-CB--CG-[CD] |==|  0.31043
USER: genes 7 Torsion [CB]-CG--CD-[OE2] |==|  0.25340
USER: genes 8 Torsion [N]-CA--C-[N] |==|  0.27236
USER: genes 9 Torsion [C]-N--CA-[CB] |==|  0.84739
USER: genes 10 Torsion [N]-CA--C-[O] |==|  0.56029
USER: genes 11 Torsion [C]-CA--CB-[CG] |==|  0.76795
USER: genes 12 Torsion [CA]-CB--CG-[CD] |==|  0.45324
USER: genes 13 Torsion [CB]-CG--CD-[OE1] |==|  0.45780
USER: genes 14 Torsion [C]-CA--N-[C] |==|  0.67846
USER: genes 15 Torsion [N]-C--CA-[N] |==|  0.95185
USER: genes 16 Torsion [C]-CA--CB-[CG] |==|  0.83166
USER: genes 17 Torsion [CA]-CB--CG-[CD2] |==|  0.26537
USER: genes 18 Torsion [CE1]-CZ--OH-[HH] |==|  0.57343
USER: genes 19 Torsion [C]-CA--N-[C] |==|  0.59198
USER: genes 20 Torsion [N]-C--CA-[N] |==|  0.66047
USER: genes 21 Torsion [C]-CA--CB-[CG] |==|  0.70221
USER: genes 22 Torsion [CA]-CB--CG-[OD2] |==|  0.26451
ROOT
ATOM      1  CA  GLU B 137     -33.470  17.369   3.100  1.00 17.35 LIG 0.18  C 
ENDROOT
BRANCH 1 2
ATOM      2  C   GLU B 137     -33.326  15.917   2.603  1.00 17.61 LIG 0.24  C 
ATOM      3 O    GLU B 137     -33.620  14.986   3.348  1.00 18.66 LIG-0.27  OA
ATOM      4  N   PRO B 138     -32.848  15.709   1.355  1.00 16.89 LIG-0.34  N 
ATOM      5  CD  PRO B 138     -32.445  16.739   0.378  1.00 17.79 LIG 0.13  C 
ATOM      6  CA  PRO B 138     -32.611  14.342   0.878  1.00 17.53 LIG 0.18  C 
ATOM      7  CG  PRO B 138     -31.651  15.964  -0.676  1.00 17.78 LIG 0.02  C 
ATOM      8  CB  PRO B 138     -32.251  14.532  -0.605  1.00 16.48 LIG 0.04  C 
BRANCH 6 9
ATOM      9  C   PRO B 138     -31.427  13.699   1.604  1.00 16.18 LIG 0.24  C 
ATOM     10  N   GLU B 139     -30.951  12.610   1.038  1.00 18.61 LIG-0.35  N 
ATOM     11 H    GLU B 139     -31.327  12.190   0.387  1.00 18.61 LIG 0.16  HD
ATOM     12 O    PRO B 138     -30.947  14.221   2.622  1.00 15.80 LIG-0.27  OA
BRANCH 10 13
ATOM     13  CA  GLU B 139     -29.702  12.034   1.510  1.00 18.29 LIG 0.18  C 
BRANCH 13 14
ATOM     14  CB  GLU B 139     -28.554  13.040   1.354  1.00 20.66 LIG 0.04  C 
BRANCH 14 15
ATOM     15  CG  GLU B 139     -27.347  12.699   2.246  1.00 25.98 LIG 0.12  C 
BRANCH 15 16
ATOM     16  CD  GLU B 139     -26.117  12.258   1.443  1.00 26.03 LIG 0.17  C 
ATOM     17 OE2  GLU B 139     -25.281  13.128   1.088  1.00 30.93 LIG-0.65  OA
ATOM     18 OE1  GLU B 139     -26.021  11.065   1.123  1.00 28.23 LIG-0.65  OA
ENDBRANCH 15 16
ENDBRANCH 14 15
ENDBRANCH 13 14
BRANCH 13 19
ATOM     19  C   GLU B 139     -29.867  11.545   2.946  1.00 18.24 LIG 0.24  C 
ATOM     20 O    GLU B 139     -29.744  12.304   3.932  1.00 18.84 LIG-0.27  OA
ATOM     21  N   ALA B 140     -30.106  10.251   3.068  1.00 17.91 LIG-0.34  N 
ATOM     22 H    ALA B 140     -30.110   9.691   2.415  1.00 17.91 LIG 0.16  HD
BRANCH 21 23
ATOM     23  CA  ALA B 140     -30.389   9.675   4.374  1.00 17.23 LIG 0.18  C 
ATOM     24  CB  ALA B 140     -29.288   9.994   5.379  1.00 16.99 LIG 0.04  C 
BRANCH 23 25
ATOM     25  C   ALA B 140     -31.748  10.130   4.900  1.00 18.72 LIG 0.20  C 
ATOM     26 O    ALA B 140     -32.002  10.092   6.122  1.00 21.33 LIG-0.65  OA
ATOM     27 OXT  ALA B 140     -32.564  10.584   4.078  1.00 18.51 LIG-0.65  OA
ENDBRANCH 23 25
ENDBRANCH 21 23
ENDBRANCH 13 19
ENDBRANCH 10 13
ENDBRANCH 6 9
ENDBRANCH 1 2
BRANCH 1 28
ATOM     28  CB  GLU B 137     -32.509  17.582   4.271  1.00 18.04 LIG 0.04  C 
BRANCH 28 29
ATOM     29  CG  GLU B 137     -33.100  17.108   5.581  1.00 15.54 LIG 0.12  C 
BRANCH 29 30
ATOM     30  CD  GLU B 137     -32.032  16.930   6.659  1.00 15.60 LIG 0.17  C 
ATOM     31 OE1  GLU B 137     -32.390  16.824   7.865  1.00 18.63 LIG-0.65  OA
ATOM     32 OE2  GLU B 137     -30.852  16.884   6.272  1.00 16.09 LIG-0.65  OA
ENDBRANCH 29 30
ENDBRANCH 28 29
ENDBRANCH 1 28
BRANCH 1 33
ATOM     33  N   GLU B 137     -34.810  17.601   3.594  1.00 19.05 LIG-0.35  N 
ATOM     34  C   TYR B 136     -35.589  18.467   2.984  1.00 22.23 LIG 0.24  C 
ATOM     35 O    TYR B 136     -35.276  19.048   1.952  1.00 24.10 LIG-0.27  OA
ATOM     36 H    GLU B 137     -35.033  17.141   4.287  1.00 19.05 LIG 0.16  HD
BRANCH 34 37
ATOM     37  CA  TYR B 136     -36.921  18.675   3.613  1.00 22.42 LIG 0.18  C 
BRANCH 37 38
ATOM     38  CB  TYR B 136     -36.875  19.950   4.394  1.00 19.45 LIG 0.07  C 
BRANCH 38 39
ATOM     39  CG  TYR B 136     -35.825  19.875   5.478  1.00 15.32 LIG-0.06  A 
ATOM     40  CD1 TYR B 136     -36.120  19.380   6.767  1.00 18.49 LIG 0.01  A 
ATOM     41  CE1 TYR B 136     -35.155  19.436   7.796  1.00 17.90 LIG 0.04  A 
ATOM     42  CZ  TYR B 136     -33.901  19.973   7.518  1.00 15.67 LIG 0.07  A 
ATOM     43  CE2 TYR B 136     -33.594  20.411   6.238  1.00 13.07 LIG 0.04  A 
ATOM     44  CD2 TYR B 136     -34.542  20.390   5.245  1.00 14.55 LIG 0.01  A 
BRANCH 42 45
ATOM     45 OH   TYR B 136     -32.973  20.000   8.510  1.00 15.32 LIG-0.36  OA
ATOM     46 HH   TYR B 136     -32.432  20.628   8.371  1.00 15.32 LIG 0.22  HD
ENDBRANCH 42 45
ENDBRANCH 38 39
ENDBRANCH 37 38
BRANCH 37 47
ATOM     47  N   TYR B 136     -37.225  17.593   4.521  1.00 26.32 LIG-0.34  N 
ATOM     48  C   ASP B 135     -38.473  17.180   4.689  1.00 34.01 LIG 0.26  C 
ATOM     49 O    ASP B 135     -39.450  17.836   4.306  1.00 37.29 LIG-0.27  OA
ATOM     50 H    TYR B 136     -36.543  17.258   4.924  1.00 26.32 LIG 0.16  HD
BRANCH 48 51
ATOM     51  CA  ASP B 135     -38.651  15.816   5.395  1.00 37.28 LIG 0.41  C 
ATOM     52  N   ASP B 135     -39.403  14.854   4.554  1.00 36.58 LIG 0.61  N 
BRANCH 51 53
ATOM     53  CB  ASP B 135     -37.284  15.225   5.774  1.00 38.83 LIG 0.16  C 
BRANCH 53 54
ATOM     54  CG  ASP B 135     -36.891  14.037   4.888  1.00 44.23 LIG 0.17  C 
ATOM     55 OD2  ASP B 135     -36.157  14.257   3.890  1.00 49.44 LIG-0.65  OA
ATOM     56 OD1  ASP B 135     -37.307  12.891   5.200  1.00 41.19 LIG-0.65  OA
ENDBRANCH 53 54
ENDBRANCH 51 53
ENDBRANCH 48 51
ENDBRANCH 37 47
ENDBRANCH 34 37
ENDBRANCH 1 33
TORSDOF 21
ENDMDL
MODEL 14
USER: ADFR SOLUTION from run 23
USER: SCORE 19.760886 LL:  -4.984 LR: -16.671 RR:   0.000 FEB: -10.407
USER: RMSD 3.976364
USER: SEED 22
USER: STATUS searching
USER: GENES 23
USER: genes 0 Translation |==|  0.57126 0.61870 0.40698
USER: genes 1 Rotation |==|  0.41609 0.50649 0.48442 0.99262
USER: genes 2 Torsion [N]-CA--C-[N] |==|  0.43918
USER: genes 3 Torsion [N]-CA--C-[N] |==|  0.49482
USER: genes 4 Torsion [C]-N--CA-[CB] |==|  0.41657
USER: genes 5 Torsion [N]-CA--CB-[CG] |==|  0.71103
USER: genes 6 Torsion [CA]-CB--CG-[CD] |==|  0.19043
USER: genes 7 Torsion [CB]-CG--CD-[OE2] |==|  0.99592
USER: genes 8 Torsion [N]-CA--C-[N] |==|  0.10334
USER: genes 9 Torsion [C]-N--CA-[CB] |==|  0.84569
USER: genes 10 Torsion [N]-CA--C-[O] |==|  0.90209
USER: genes 11 Torsion [C]-CA--CB-[CG] |==|  0.88480
USER: genes 12 Torsion [CA]-CB--CG-[CD] |==|  0.50394
USER: genes 13 Torsion [CB]-CG--CD-[OE1] |==|  0.30450
USER: genes 14 Torsion [C]-CA--N-[C] |==|  0.60098
USER: genes 15 Torsion [N]-C--CA-[N] |==|  0.90402
USER: genes 16 Torsion [C]-CA--CB-[CG] |==|  0.75124
USER: genes 17 Torsion [CA]-CB--CG-[CD2] |==|  0.73900
USER: genes 18 Torsion [CE1]-CZ--OH-[HH] |==|  0.73763
USER: genes 19 Torsion [C]-CA--N-[C] |==|  0.78525
USER: genes 20 Torsion [N]-C--CA-[N] |==|  0.72827
USER: genes 21 Torsion [C]-CA--CB-[CG] |==|  0.73617
USER: genes 22 Torsion [CA]-CB--CG-[OD2] |==|  0.59198
ROOT
ATOM      1  CA  GLU B 137     -33.360  16.854   2.552  1.00 17.35 LIG 0.18  C 
ENDROOT
BRANCH 1 2
ATOM      2  C   GLU B 137     -32.963  15.385   2.305  1.00 17.61 LIG 0.24  C 
ATOM      3 O    GLU B 137     -33.634  14.482   2.797  1.00 18.66 LIG-0.27  OA
ATOM      4  N   PRO B 138     -31.856  15.133   1.570  1.00 16.89 LIG-0.34  N 
ATOM      5  CD  PRO B 138     -30.961  16.128   0.946  1.00 17.79 LIG 0.13  C 
ATOM      6  CA  PRO B 138     -31.393  13.753   1.389  1.00 17.53 LIG 0.18  C 
ATOM      7  CG  PRO B 138     -29.709  15.327   0.581  1.00 17.78 LIG 0.02  C 
ATOM      8  CB  PRO B 138     -30.247  13.885   0.372  1.00 16.48 LIG 0.04  C 
BRANCH 6 9
ATOM      9  C   PRO B 138     -30.842  13.177   2.695  1.00 16.18 LIG 0.24  C 
ATOM     10  N   GLU B 139     -30.440  11.925   2.626  1.00 18.61 LIG-0.35  N 
ATOM     11 H    GLU B 139     -30.578  11.401   1.958  1.00 18.61 LIG 0.16  HD
ATOM     12 O    PRO B 138     -30.751  13.882   3.712  1.00 15.80 LIG-0.27  OA
BRANCH 10 13
ATOM     13  CA  GLU B 139     -29.704  11.338   3.735  1.00 18.29 LIG 0.18  C 
BRANCH 13 14
ATOM     14  CB  GLU B 139     -29.975   9.830   3.820  1.00 20.66 LIG 0.04  C 
BRANCH 14 15
ATOM     15  CG  GLU B 139     -30.940   9.469   4.964  1.00 25.98 LIG 0.12  C 
BRANCH 15 16
ATOM     16  CD  GLU B 139     -32.370   9.965   4.717  1.00 26.03 LIG 0.17  C 
ATOM     17 OE2  GLU B 139     -32.613  10.617   3.669  1.00 30.93 LIG-0.65  OA
ATOM     18 OE1  GLU B 139     -33.224   9.754   5.588  1.00 28.23 LIG-0.65  OA
ENDBRANCH 15 16
ENDBRANCH 14 15
ENDBRANCH 13 14
BRANCH 13 19
ATOM     19  C   GLU B 139     -28.219  11.664   3.602  1.00 18.24 LIG 0.24  C 
ATOM     20 O    GLU B 139     -27.323  10.865   3.948  1.00 18.84 LIG-0.27  OA
ATOM     21  N   ALA B 140     -27.956  12.872   3.136  1.00 17.91 LIG-0.34  N 
ATOM     22 H    ALA B 140     -28.550  13.473   2.972  1.00 17.91 LIG 0.16  HD
BRANCH 21 23
ATOM     23  CA  ALA B 140     -26.584  13.272   2.861  1.00 17.23 LIG 0.18  C 
ATOM     24  CB  ALA B 140     -25.695  13.105   4.087  1.00 16.99 LIG 0.04  C 
BRANCH 23 25
ATOM     25  C   ALA B 140     -26.011  12.509   1.670  1.00 18.72 LIG 0.20  C 
ATOM     26 O    ALA B 140     -26.327  11.318   1.467  1.00 21.33 LIG-0.65  OA
ATOM     27 OXT  ALA B 140     -25.266  13.128   0.890  1.00 18.51 LIG-0.65  OA
ENDBRANCH 23 25
ENDBRANCH 21 23
ENDBRANCH 13 19
ENDBRANCH 10 13
ENDBRANCH 6 9
ENDBRANCH 1 2
BRANCH 1 28
ATOM     28  CB  GLU B 137     -32.575  17.377   3.757  1.00 18.04 LIG 0.04  C 
BRANCH 28 29
ATOM     29  CG  GLU B 137     -32.498  16.354   4.869  1.00 15.54 LIG 0.12  C 
BRANCH 29 30
ATOM     30  CD  GLU B 137     -31.744  16.888   6.086  1.00 15.60 LIG 0.17  C 
ATOM     31 OE1  GLU B 137     -32.387  17.142   7.142  1.00 18.63 LIG-0.65  OA
ATOM     32 OE2  GLU B 137     -30.516  17.027   5.962  1.00 16.09 LIG-0.65  OA
ENDBRANCH 29 30
ENDBRANCH 28 29
ENDBRANCH 1 28
BRANCH 1 33
ATOM     33  N   GLU B 137     -34.766  16.945   2.881  1.00 19.05 LIG-0.35  N 
ATOM     34  C   TYR B 136     -35.470  17.970   2.452  1.00 22.23 LIG 0.24  C 
ATOM     35 O    TYR B 136     -35.023  18.834   1.708  1.00 24.10 LIG-0.27  OA
ATOM     36 H    GLU B 137     -35.076  16.300   3.358  1.00 19.05 LIG 0.16  HD
BRANCH 34 37
ATOM     37  CA  TYR B 136     -36.888  17.997   2.902  1.00 22.42 LIG 0.18  C 
BRANCH 37 38
ATOM     38  CB  TYR B 136     -36.935  18.619   4.262  1.00 19.45 LIG 0.07  C 
BRANCH 38 39
ATOM     39  CG  TYR B 136     -36.778  17.568   5.336  1.00 15.32 LIG-0.06  A 
ATOM     40  CD1 TYR B 136     -35.510  17.075   5.714  1.00 18.49 LIG 0.01  A 
ATOM     41  CE1 TYR B 136     -35.399  16.006   6.630  1.00 17.90 LIG 0.04  A 
ATOM     42  CZ  TYR B 136     -36.559  15.455   7.168  1.00 15.67 LIG 0.07  A 
ATOM     43  CE2 TYR B 136     -37.802  15.974   6.837  1.00 13.07 LIG 0.04  A 
ATOM     44  CD2 TYR B 136     -37.914  16.990   5.920  1.00 14.55 LIG 0.01  A 
BRANCH 42 45
ATOM     45 OH   TYR B 136     -36.439  14.442   8.067  1.00 15.32 LIG-0.36  OA
ATOM     46 HH   TYR B 136     -36.499  13.705   7.669  1.00 15.32 LIG 0.22  HD
ENDBRANCH 42 45
ENDBRANCH 38 39
ENDBRANCH 37 38
BRANCH 37 47
ATOM     47  N   TYR B 136     -37.414  16.655   2.994  1.00 26.32 LIG-0.34  N 
ATOM     48  C   ASP B 135     -37.775  15.993   1.904  1.00 34.01 LIG 0.26  C 
ATOM     49 O    ASP B 135     -37.935  16.548   0.809  1.00 37.29 LIG-0.27  OA
ATOM     50 H    TYR B 136     -37.468  16.342   3.794  1.00 26.32 LIG 0.16  HD
BRANCH 48 51
ATOM     51  CA  ASP B 135     -37.989  14.471   2.070  1.00 37.28 LIG 0.41  C 
ATOM     52  N   ASP B 135     -36.797  13.697   1.645  1.00 36.58 LIG 0.61  N 
BRANCH 51 53
ATOM     53  CB  ASP B 135     -38.341  14.134   3.527  1.00 38.83 LIG 0.16  C 
BRANCH 53 54
ATOM     54  CG  ASP B 135     -37.114  13.726   4.351  1.00 44.23 LIG 0.17  C 
ATOM     55 OD2  ASP B 135     -37.266  12.871   5.261  1.00 49.44 LIG-0.65  OA
ATOM     56 OD1  ASP B 135     -36.004  14.253   4.077  1.00 41.19 LIG-0.65  OA
ENDBRANCH 53 54
ENDBRANCH 51 53
ENDBRANCH 48 51
ENDBRANCH 37 47
ENDBRANCH 34 37
ENDBRANCH 1 33
TORSDOF 21
ENDMDL
