MODEL 1
USER: ADFR SOLUTION from run 129
USER: SCORE 16.137616 LL:  -2.656 LR: -14.629 RR:   0.000 FEB:  -9.558
USER: RMSD 2.772796
USER: SEED 128
USER: STATUS no improvement in best in 1 clusters for 5 generations
USER: GENES 19
USER: genes 0 Translation |==|  0.54897 0.43101 0.60436
USER: genes 1 Rotation |==|  0.54770 0.41691 0.46785 0.98968
USER: genes 2 Torsion [N]-C--CA-[N] |==|  0.34114
USER: genes 3 Torsion [C]-CA--N-[C] |==|  0.81393
USER: genes 4 Torsion [N]-C--CA-[N] |==|  0.44274
USER: genes 5 Torsion [C]-CA--CB-[CG2] |==|  0.62084
USER: genes 6 Torsion [CA]-CB--CG1-[CD1] |==|  0.32849
USER: genes 7 Torsion [C]-CA--N-[H3] |==|  0.90719
USER: genes 8 Torsion [C]-CA--CB-[CG] |==|  0.07385
USER: genes 9 Torsion [CA]-CB--CG-[CD] |==|  0.36182
USER: genes 10 Torsion [CB]-CG--CD-[OE2] |==|  0.94078
USER: genes 11 Torsion [C]-N--CA-[CB] |==|  0.45228
USER: genes 12 Torsion [N]-CA--C-[N] |==|  0.40563
USER: genes 13 Torsion [C]-N--CA-[C] |==|  0.76374
USER: genes 14 Torsion [N]-CA--CB-[CG] |==|  0.52481
USER: genes 15 Torsion [CA]-CB--CG-[OD1] |==|  0.49511
USER: genes 16 Torsion [N]-CA--C-[O] |==|  0.05481
USER: genes 17 Torsion [N]-CA--CB-[OG1] |==|  0.96318
USER: genes 18 Torsion [CA]-CB--OG1-[HG1] |==|  0.48148
ROOT
ATOM      1  C   GLU G   2      17.047   5.016 -34.359  1.00 25.53 LIG 0.24  C 
ATOM      2 O    GLU G   2      15.920   4.759 -34.763  1.00 27.72 LIG-0.27  OA
ATOM      3  N   THR G   3      17.394   6.213 -33.902  1.00 24.80 LIG-0.34  N 
ATOM      4 H    THR G   3      18.179   6.411 -33.612  1.00 24.80 LIG 0.16  HD
ENDROOT
BRANCH 1 5
ATOM      5  CA  GLU G   2      18.138   3.958 -34.359  1.00 28.49 LIG 0.18  C 
BRANCH 5 6
ATOM      6  N   GLU G   2      17.767   2.771 -33.592  1.00 29.38 LIG-0.35  N 
ATOM      7 H    GLU G   2      17.660   2.059 -34.063  1.00 29.38 LIG 0.16  HD
ATOM      8  C   ILE G   1      17.615   2.825 -32.272  1.00 32.49 LIG 0.25  C 
ATOM      9 O    ILE G   1      17.779   3.856 -31.628  1.00 35.08 LIG-0.27  OA
BRANCH 8 10
ATOM     10  CA  ILE G   1      17.207   1.529 -31.576  1.00 40.53 LIG 0.28  C 
BRANCH 10 11
ATOM     11  CB  ILE G   1      15.701   1.266 -31.797  1.00 45.86 LIG 0.02  C 
ATOM     12  CG2 ILE G   1      15.043   0.815 -30.524  1.00 44.63 LIG 0.01  C 
BRANCH 11 13
ATOM     13  CG1 ILE G   1      14.992   2.522 -32.304  1.00 53.07 LIG 0.00  C 
ATOM     14  CD1 ILE G   1      14.372   2.345 -33.678  1.00 50.29 LIG 0.01  C 
ENDBRANCH 11 13
ENDBRANCH 10 11
BRANCH 10 15
ATOM     15  N   ILE G   1      17.542   1.584 -30.160  1.00 42.16 LIG-0.07  N 
ATOM     16 H3   ILE G   1      18.286   2.060 -30.050  1.00 42.16 LIG 0.28  HD
ATOM     17 H1   ILE G   1      16.876   1.968 -29.712  1.00 42.16 LIG 0.28  HD
ATOM     18 H2   ILE G   1      17.668   0.758 -29.853  1.00 42.16 LIG 0.28  HD
ENDBRANCH 10 15
ENDBRANCH 8 10
ENDBRANCH 5 6
BRANCH 5 19
ATOM     19  CB  GLU G   2      18.482   3.581 -35.795  1.00 31.40 LIG 0.04  C 
BRANCH 19 20
ATOM     20  CG  GLU G   2      18.202   4.688 -36.778  1.00 29.13 LIG 0.12  C 
BRANCH 20 21
ATOM     21  CD  GLU G   2      19.371   4.957 -37.683  1.00 32.73 LIG 0.17  C 
ATOM     22 OE2  GLU G   2      20.501   4.590 -37.301  1.00 36.24 LIG-0.65  OA
ATOM     23 OE1  GLU G   2      19.161   5.537 -38.770  1.00 30.62 LIG-0.65  OA
ENDBRANCH 20 21
ENDBRANCH 19 20
ENDBRANCH 5 19
ENDBRANCH 1 5
BRANCH 3 24
ATOM     24  CA  THR G   3      16.439   7.308 -33.860  1.00 22.88 LIG 0.20  C 
BRANCH 24 25
ATOM     25  C   THR G   3      16.208   7.871 -35.253  1.00 24.60 LIG 0.24  C 
ATOM     26  N   ASP G   4      14.986   8.313 -35.509  1.00 24.15 LIG-0.35  N 
ATOM     27 H    ASP G   4      14.339   8.299 -34.943  1.00 24.15 LIG 0.16  HD
ATOM     28 O    THR G   3      17.117   7.908 -36.078  1.00 25.42 LIG-0.27  OA
BRANCH 26 29
ATOM     29  CA  ASP G   4      14.644   8.871 -36.811  1.00 27.29 LIG 0.17  C 
BRANCH 29 30
ATOM     30  CB  ASP G   4      13.176   8.607 -37.129  1.00 26.38 LIG 0.15  C 
BRANCH 30 31
ATOM     31  CG  ASP G   4      12.833   8.975 -38.552  1.00 24.82 LIG 0.17  C 
ATOM     32 OD2  ASP G   4      13.708   9.463 -39.299  1.00 25.35 LIG-0.65  OA
ATOM     33 OD1  ASP G   4      11.667   8.766 -38.923  1.00 26.55 LIG-0.65  OA
ENDBRANCH 30 31
ENDBRANCH 29 30
BRANCH 29 34
ATOM     34  C   ASP G   4      14.984  10.356 -36.933  1.00 29.06 LIG 0.22  C 
ATOM     35 O    ASP G   4      15.793  10.885 -36.178  1.00 23.21 LIG-0.29  OA
ENDBRANCH 29 34
ENDBRANCH 26 29
ENDBRANCH 24 25
BRANCH 24 36
ATOM     36  CB  THR G   3      16.909   8.435 -32.931  1.00 24.93 LIG 0.15  C 
ATOM     37  CG2 THR G   3      15.770   8.893 -32.035  1.00 25.23 LIG 0.04  C 
BRANCH 36 38
ATOM     38 OG1  THR G   3      17.999   7.970 -32.129  1.00 25.78 LIG-0.39  OA
ATOM     39 HG1  THR G   3      18.315   8.610 -31.687  1.00 25.78 LIG 0.21  HD
ENDBRANCH 36 38
ENDBRANCH 24 36
ENDBRANCH 3 24
TORSDOF 17
ENDMDL
MODEL 2
USER: ADFR SOLUTION from run 141
USER: SCORE 14.975830 LL:  -2.184 LR: -13.996 RR:   0.000 FEB:  -8.925
USER: RMSD 8.804603
USER: SEED 140
USER: STATUS no improvement in best in 8 clusters for 5 generations
USER: GENES 19
USER: genes 0 Translation |==|  0.49257 0.65159 0.49019
USER: genes 1 Rotation |==|  0.61808 0.69784 0.93554 0.58500
USER: genes 2 Torsion [N]-C--CA-[N] |==|  0.35019
USER: genes 3 Torsion [C]-CA--N-[C] |==|  0.81831
USER: genes 4 Torsion [N]-C--CA-[N] |==|  0.88729
USER: genes 5 Torsion [C]-CA--CB-[CG2] |==|  0.83493
USER: genes 6 Torsion [CA]-CB--CG1-[CD1] |==|  0.33902
USER: genes 7 Torsion [C]-CA--N-[H3] |==|  0.31718
USER: genes 8 Torsion [C]-CA--CB-[CG] |==|  0.33108
USER: genes 9 Torsion [CA]-CB--CG-[CD] |==|  0.52368
USER: genes 10 Torsion [CB]-CG--CD-[OE2] |==|  0.11916
USER: genes 11 Torsion [C]-N--CA-[CB] |==|  0.48345
USER: genes 12 Torsion [N]-CA--C-[N] |==|  0.31738
USER: genes 13 Torsion [C]-N--CA-[C] |==|  0.80141
USER: genes 14 Torsion [N]-CA--CB-[CG] |==|  0.77016
USER: genes 15 Torsion [CA]-CB--CG-[OD1] |==|  0.67149
USER: genes 16 Torsion [N]-CA--C-[O] |==|  0.74337
USER: genes 17 Torsion [N]-CA--CB-[OG1] |==|  0.02203
USER: genes 18 Torsion [CA]-CB--OG1-[HG1] |==|  0.14755
ROOT
ATOM      1  C   GLU G   2      16.032   9.648 -36.071  1.00 25.53 LIG 0.24  C 
ATOM      2 O    GLU G   2      17.056   9.404 -36.699  1.00 27.72 LIG-0.27  OA
ATOM      3  N   THR G   3      15.718   9.036 -34.937  1.00 24.80 LIG-0.34  N 
ATOM      4 H    THR G   3      15.006   9.196 -34.481  1.00 24.80 LIG 0.16  HD
ENDROOT
BRANCH 1 5
ATOM      5  CA  GLU G   2      15.041  10.688 -36.568  1.00 28.49 LIG 0.18  C 
BRANCH 5 6
ATOM      6  N   GLU G   2      15.667  11.984 -36.817  1.00 29.38 LIG-0.35  N 
ATOM      7 H    GLU G   2      15.666  12.230 -37.642  1.00 29.38 LIG 0.16  HD
ATOM      8  C   ILE G   1      16.186  12.700 -35.824  1.00 32.49 LIG 0.25  C 
ATOM      9 O    ILE G   1      16.168  12.324 -34.656  1.00 35.08 LIG-0.27  OA
BRANCH 8 10
ATOM     10  CA  ILE G   1      16.832  14.030 -36.203  1.00 40.53 LIG 0.28  C 
BRANCH 10 11
ATOM     11  CB  ILE G   1      15.749  15.126 -36.319  1.00 45.86 LIG 0.02  C 
ATOM     12  CG2 ILE G   1      14.730  14.764 -37.361  1.00 44.63 LIG 0.01  C 
BRANCH 11 13
ATOM     13  CG1 ILE G   1      15.039  15.341 -34.982  1.00 53.07 LIG 0.00  C 
ATOM     14  CD1 ILE G   1      15.136  16.768 -34.477  1.00 50.29 LIG 0.01  C 
ENDBRANCH 11 13
ENDBRANCH 10 11
BRANCH 10 15
ATOM     15  N   ILE G   1      17.594  13.894 -37.435  1.00 42.16 LIG-0.07  N 
ATOM     16 H3   ILE G   1      17.216  14.385 -38.074  1.00 42.16 LIG 0.28  HD
ATOM     17 H1   ILE G   1      18.428  14.174 -37.302  1.00 42.16 LIG 0.28  HD
ATOM     18 H2   ILE G   1      17.605  13.039 -37.684  1.00 42.16 LIG 0.28  HD
ENDBRANCH 10 15
ENDBRANCH 8 10
ENDBRANCH 5 6
BRANCH 5 19
ATOM     19  CB  GLU G   2      14.352  10.175 -37.826  1.00 31.40 LIG 0.04  C 
BRANCH 19 20
ATOM     20  CG  GLU G   2      12.860  10.046 -37.671  1.00 29.13 LIG 0.12  C 
BRANCH 20 21
ATOM     21  CD  GLU G   2      12.221   9.350 -38.839  1.00 32.73 LIG 0.17  C 
ATOM     22 OE2  GLU G   2      12.791   8.340 -39.299  1.00 36.24 LIG-0.65  OA
ATOM     23 OE1  GLU G   2      11.155   9.815 -39.299  1.00 30.62 LIG-0.65  OA
ENDBRANCH 20 21
ENDBRANCH 19 20
ENDBRANCH 5 19
ENDBRANCH 1 5
BRANCH 3 24
ATOM     24  CA  THR G   3      16.584   8.016 -34.367  1.00 22.88 LIG 0.20  C 
BRANCH 24 25
ATOM     25  C   THR G   3      16.675   6.813 -35.290  1.00 24.60 LIG 0.24  C 
ATOM     26  N   ASP G   4      17.862   6.576 -35.827  1.00 24.15 LIG-0.35  N 
ATOM     27 H    ASP G   4      18.562   7.054 -35.682  1.00 24.15 LIG 0.16  HD
ATOM     28 O    THR G   3      15.692   6.110 -35.511  1.00 25.42 LIG-0.27  OA
BRANCH 26 29
ATOM     29  CA  ASP G   4      18.070   5.453 -36.732  1.00 27.29 LIG 0.17  C 
BRANCH 29 30
ATOM     30  CB  ASP G   4      19.364   5.642 -37.519  1.00 26.38 LIG 0.15  C 
BRANCH 30 31
ATOM     31  CG  ASP G   4      19.166   6.535 -38.720  1.00 24.82 LIG 0.17  C 
ATOM     32 OD2  ASP G   4      18.805   7.721 -38.563  1.00 25.35 LIG-0.65  OA
ATOM     33 OD1  ASP G   4      19.381   6.035 -39.836  1.00 26.55 LIG-0.65  OA
ENDBRANCH 30 31
ENDBRANCH 29 30
BRANCH 29 34
ATOM     34  C   ASP G   4      18.041   4.101 -36.022  1.00 29.06 LIG 0.22  C 
ATOM     35 O    ASP G   4      19.071   3.581 -35.605  1.00 23.21 LIG-0.29  OA
ENDBRANCH 29 34
ENDBRANCH 26 29
ENDBRANCH 24 25
BRANCH 24 36
ATOM     36  CB  THR G   3      16.091   7.559 -32.988  1.00 24.93 LIG 0.15  C 
ATOM     37  CG2 THR G   3      17.073   7.980 -31.907  1.00 25.23 LIG 0.04  C 
BRANCH 36 38
ATOM     38 OG1  THR G   3      14.807   8.134 -32.725  1.00 25.78 LIG-0.39  OA
ATOM     39 HG1  THR G   3      14.287   7.963 -33.362  1.00 25.78 LIG 0.21  HD
ENDBRANCH 36 38
ENDBRANCH 24 36
ENDBRANCH 3 24
TORSDOF 17
ENDMDL
MODEL 3
USER: ADFR SOLUTION from run 125
USER: SCORE 14.935999 LL:  -2.127 LR: -13.917 RR:   0.000 FEB:  -8.846
USER: RMSD 7.717135
USER: SEED 124
USER: STATUS no improvement in best in 9 clusters for 5 generations
USER: GENES 19
USER: genes 0 Translation |==|  0.47006 0.50424 0.53848
USER: genes 1 Rotation |==|  0.78583 0.78355 0.78690 0.57477
USER: genes 2 Torsion [N]-C--CA-[N] |==|  0.13328
USER: genes 3 Torsion [C]-CA--N-[C] |==|  0.14957
USER: genes 4 Torsion [N]-C--CA-[N] |==|  0.32961
USER: genes 5 Torsion [C]-CA--CB-[CG2] |==|  0.43044
USER: genes 6 Torsion [CA]-CB--CG1-[CD1] |==|  0.58596
USER: genes 7 Torsion [C]-CA--N-[H3] |==|  0.31364
USER: genes 8 Torsion [C]-CA--CB-[CG] |==|  0.48092
USER: genes 9 Torsion [CA]-CB--CG-[CD] |==|  0.47221
USER: genes 10 Torsion [CB]-CG--CD-[OE2] |==|  0.35396
USER: genes 11 Torsion [C]-N--CA-[CB] |==|  0.81984
USER: genes 12 Torsion [N]-CA--C-[N] |==|  0.76241
USER: genes 13 Torsion [C]-N--CA-[C] |==|  0.19768
USER: genes 14 Torsion [N]-CA--CB-[CG] |==|  0.67027
USER: genes 15 Torsion [CA]-CB--CG-[OD1] |==|  0.92014
USER: genes 16 Torsion [N]-CA--C-[O] |==|  0.74516
USER: genes 17 Torsion [N]-CA--CB-[OG1] |==|  0.01411
USER: genes 18 Torsion [CA]-CB--OG1-[HG1] |==|  0.21565
ROOT
ATOM      1  C   GLU G   2      15.627   6.554 -35.347  1.00 25.53 LIG 0.24  C 
ATOM      2 O    GLU G   2      15.802   5.779 -36.279  1.00 27.72 LIG-0.27  OA
ATOM      3  N   THR G   3      16.248   6.431 -34.181  1.00 24.80 LIG-0.34  N 
ATOM      4 H    THR G   3      16.141   6.967 -33.517  1.00 24.80 LIG 0.16  HD
ENDROOT
BRANCH 1 5
ATOM      5  CA  GLU G   2      14.666   7.725 -35.474  1.00 28.49 LIG 0.18  C 
BRANCH 5 6
ATOM      6  N   GLU G   2      15.250   8.981 -35.011  1.00 29.38 LIG-0.35  N 
ATOM      7 H    GLU G   2      14.785   9.396 -34.418  1.00 29.38 LIG 0.16  HD
ATOM      8  C   ILE G   1      16.410   9.419 -35.491  1.00 32.49 LIG 0.25  C 
ATOM      9 O    ILE G   1      17.053   8.802 -36.336  1.00 35.08 LIG-0.27  OA
BRANCH 8 10
ATOM     10  CA  ILE G   1      16.916  10.754 -34.951  1.00 40.53 LIG 0.28  C 
BRANCH 10 11
ATOM     11  CB  ILE G   1      17.013  11.782 -36.100  1.00 45.86 LIG 0.02  C 
ATOM     12  CG2 ILE G   1      16.907  13.185 -35.574  1.00 44.63 LIG 0.01  C 
BRANCH 11 13
ATOM     13  CG1 ILE G   1      18.332  11.636 -36.859  1.00 53.07 LIG 0.00  C 
ATOM     14  CD1 ILE G   1      18.839  12.945 -37.434  1.00 50.29 LIG 0.01  C 
ENDBRANCH 11 13
ENDBRANCH 10 11
BRANCH 10 15
ATOM     15  N   ILE G   1      18.193  10.579 -34.276  1.00 42.16 LIG-0.07  N 
ATOM     16 H3   ILE G   1      18.832  10.993 -34.737  1.00 42.16 LIG 0.28  HD
ATOM     17 H1   ILE G   1      18.147  10.927 -33.458  1.00 42.16 LIG 0.28  HD
ATOM     18 H2   ILE G   1      18.382   9.711 -34.218  1.00 42.16 LIG 0.28  HD
ENDBRANCH 10 15
ENDBRANCH 8 10
ENDBRANCH 5 6
BRANCH 5 19
ATOM     19  CB  GLU G   2      14.204   7.850 -36.920  1.00 31.40 LIG 0.04  C 
BRANCH 19 20
ATOM     20  CG  GLU G   2      13.122   8.881 -37.106  1.00 29.13 LIG 0.12  C 
BRANCH 20 21
ATOM     21  CD  GLU G   2      12.847   9.165 -38.556  1.00 32.73 LIG 0.17  C 
ATOM     22 OE2  GLU G   2      11.666   9.085 -38.951  1.00 36.24 LIG-0.65  OA
ATOM     23 OE1  GLU G   2      13.808   9.464 -39.298  1.00 30.62 LIG-0.65  OA
ENDBRANCH 20 21
ENDBRANCH 19 20
ENDBRANCH 5 19
ENDBRANCH 1 5
BRANCH 3 24
ATOM     24  CA  THR G   3      17.185   5.346 -33.937  1.00 22.88 LIG 0.20  C 
BRANCH 24 25
ATOM     25  C   THR G   3      18.301   5.360 -34.968  1.00 24.60 LIG 0.24  C 
ATOM     26  N   ASP G   4      18.052   4.731 -36.107  1.00 24.15 LIG-0.35  N 
ATOM     27 H    ASP G   4      17.314   4.330 -36.286  1.00 24.15 LIG 0.16  HD
ATOM     28 O    THR G   3      19.365   5.931 -34.741  1.00 25.42 LIG-0.27  OA
BRANCH 26 29
ATOM     29  CA  ASP G   4      19.048   4.674 -37.169  1.00 27.29 LIG 0.17  C 
BRANCH 29 30
ATOM     30  CB  ASP G   4      19.512   6.081 -37.534  1.00 26.38 LIG 0.15  C 
BRANCH 30 31
ATOM     31  CG  ASP G   4      19.205   6.419 -38.973  1.00 24.82 LIG 0.17  C 
ATOM     32 OD2  ASP G   4      19.006   7.606 -39.307  1.00 25.35 LIG-0.65  OA
ATOM     33 OD1  ASP G   4      19.166   5.474 -39.778  1.00 26.55 LIG-0.65  OA
ENDBRANCH 30 31
ENDBRANCH 29 30
BRANCH 29 34
ATOM     34  C   ASP G   4      20.230   3.766 -36.834  1.00 29.06 LIG 0.22  C 
ATOM     35 O    ASP G   4      21.237   4.211 -36.294  1.00 23.21 LIG-0.29  OA
ENDBRANCH 29 34
ENDBRANCH 26 29
ENDBRANCH 24 25
BRANCH 24 36
ATOM     36  CB  THR G   3      16.489   3.979 -33.966  1.00 24.93 LIG 0.15  C 
ATOM     37  CG2 THR G   3      16.566   3.316 -32.601  1.00 25.23 LIG 0.04  C 
BRANCH 36 38
ATOM     38 OG1  THR G   3      15.118   4.149 -34.344  1.00 25.78 LIG-0.39  OA
ATOM     39 HG1  THR G   3      15.069   4.266 -35.174  1.00 25.78 LIG 0.21  HD
ENDBRANCH 36 38
ENDBRANCH 24 36
ENDBRANCH 3 24
TORSDOF 17
ENDMDL
MODEL 4
USER: ADFR SOLUTION from run 19
USER: SCORE 15.447551 LL:  -2.628 LR: -13.901 RR:   0.000 FEB:  -8.830
USER: RMSD 8.560463
USER: SEED 18
USER: STATUS no improvement in best in 6 clusters for 5 generations
USER: GENES 19
USER: genes 0 Translation |==|  0.47989 0.53764 0.53656
USER: genes 1 Rotation |==|  0.87672 0.82809 0.49935 0.52081
USER: genes 2 Torsion [N]-C--CA-[N] |==|  0.90317
USER: genes 3 Torsion [C]-CA--N-[C] |==|  0.83889
USER: genes 4 Torsion [N]-C--CA-[N] |==|  0.59489
USER: genes 5 Torsion [C]-CA--CB-[CG2] |==|  0.25712
USER: genes 6 Torsion [CA]-CB--CG1-[CD1] |==|  0.80509
USER: genes 7 Torsion [C]-CA--N-[H3] |==|  0.53799
USER: genes 8 Torsion [C]-CA--CB-[CG] |==|  0.32111
USER: genes 9 Torsion [CA]-CB--CG-[CD] |==|  0.56266
USER: genes 10 Torsion [CB]-CG--CD-[OE2] |==|  0.43342
USER: genes 11 Torsion [C]-N--CA-[CB] |==|  0.24114
USER: genes 12 Torsion [N]-CA--C-[N] |==|  0.37174
USER: genes 13 Torsion [C]-N--CA-[C] |==|  0.72075
USER: genes 14 Torsion [N]-CA--CB-[CG] |==|  0.59537
USER: genes 15 Torsion [CA]-CB--CG-[OD1] |==|  0.90414
USER: genes 16 Torsion [N]-CA--C-[O] |==|  0.08164
USER: genes 17 Torsion [N]-CA--CB-[OG1] |==|  0.82861
USER: genes 18 Torsion [CA]-CB--OG1-[HG1] |==|  0.85134
ROOT
ATOM      1  C   GLU G   2      15.804   7.255 -35.376  1.00 25.53 LIG 0.24  C 
ATOM      2 O    GLU G   2      15.212   6.183 -35.387  1.00 27.72 LIG-0.27  OA
ATOM      3  N   THR G   3      17.127   7.349 -35.420  1.00 24.80 LIG-0.34  N 
ATOM      4 H    THR G   3      17.559   8.093 -35.416  1.00 24.80 LIG 0.16  HD
ENDROOT
BRANCH 1 5
ATOM      5  CA  GLU G   2      15.041   8.568 -35.306  1.00 28.49 LIG 0.18  C 
BRANCH 5 6
ATOM      6  N   GLU G   2      15.744   9.584 -34.527  1.00 29.38 LIG-0.35  N 
ATOM      7 H    GLU G   2      15.917  10.309 -34.956  1.00 29.38 LIG 0.16  HD
ATOM      8  C   ILE G   1      16.076   9.370 -33.257  1.00 32.49 LIG 0.25  C 
ATOM      9 O    ILE G   1      15.811   8.325 -32.670  1.00 35.08 LIG-0.27  OA
BRANCH 8 10
ATOM     10  CA  ILE G   1      16.826  10.493 -32.545  1.00 40.53 LIG 0.28  C 
BRANCH 10 11
ATOM     11  CB  ILE G   1      17.518  11.402 -33.584  1.00 45.86 LIG 0.02  C 
ATOM     12  CG2 ILE G   1      16.634  12.558 -33.958  1.00 44.63 LIG 0.01  C 
BRANCH 11 13
ATOM     13  CG1 ILE G   1      18.843  11.944 -33.046  1.00 53.07 LIG 0.00  C 
ATOM     14  CD1 ILE G   1      18.664  12.963 -31.936  1.00 50.29 LIG 0.01  C 
ENDBRANCH 11 13
ENDBRANCH 10 11
BRANCH 10 15
ATOM     15  N   ILE G   1      17.778   9.944 -31.591  1.00 42.16 LIG-0.07  N 
ATOM     16 H3   ILE G   1      18.062  10.591 -31.049  1.00 42.16 LIG 0.28  HD
ATOM     17 H1   ILE G   1      17.385   9.307 -31.110  1.00 42.16 LIG 0.28  HD
ATOM     18 H2   ILE G   1      18.472   9.599 -32.029  1.00 42.16 LIG 0.28  HD
ENDBRANCH 10 15
ENDBRANCH 8 10
ENDBRANCH 5 6
BRANCH 5 19
ATOM     19  CB  GLU G   2      14.764   9.072 -36.717  1.00 31.40 LIG 0.04  C 
BRANCH 19 20
ATOM     20  CG  GLU G   2      13.296   9.118 -37.049  1.00 29.13 LIG 0.12  C 
BRANCH 20 21
ATOM     21  CD  GLU G   2      13.044   9.081 -38.530  1.00 32.73 LIG 0.17  C 
ATOM     22 OE2  GLU G   2      11.936   8.662 -38.922  1.00 36.24 LIG-0.65  OA
ATOM     23 OE1  GLU G   2      13.952   9.465 -39.299  1.00 30.62 LIG-0.65  OA
ENDBRANCH 20 21
ENDBRANCH 19 20
ENDBRANCH 5 19
ENDBRANCH 1 5
BRANCH 3 24
ATOM     24  CA  THR G   3      17.964   6.162 -35.480  1.00 22.88 LIG 0.20  C 
BRANCH 24 25
ATOM     25  C   THR G   3      19.316   6.427 -34.837  1.00 24.60 LIG 0.24  C 
ATOM     26  N   ASP G   4      19.756   5.500 -34.000  1.00 24.15 LIG-0.35  N 
ATOM     27 H    ASP G   4      19.329   4.779 -33.810  1.00 24.15 LIG 0.16  HD
ATOM     28 O    THR G   3      19.950   7.447 -35.095  1.00 25.42 LIG-0.27  OA
BRANCH 26 29
ATOM     29  CA  ASP G   4      21.037   5.645 -33.320  1.00 27.29 LIG 0.17  C 
BRANCH 29 30
ATOM     30  CB  ASP G   4      20.890   5.306 -31.840  1.00 26.38 LIG 0.15  C 
BRANCH 30 31
ATOM     31  CG  ASP G   4      21.792   6.155 -30.976  1.00 24.82 LIG 0.17  C 
ATOM     32 OD2  ASP G   4      21.416   6.508 -29.839  1.00 25.35 LIG-0.65  OA
ATOM     33 OD1  ASP G   4      22.896   6.467 -31.451  1.00 26.55 LIG-0.65  OA
ENDBRANCH 30 31
ENDBRANCH 29 30
BRANCH 29 34
ATOM     34  C   ASP G   4      22.155   4.833 -33.971  1.00 29.06 LIG 0.22  C 
ATOM     35 O    ASP G   4      22.144   4.590 -35.174  1.00 23.21 LIG-0.29  OA
ENDBRANCH 29 34
ENDBRANCH 26 29
ENDBRANCH 24 25
BRANCH 24 36
ATOM     36  CB  THR G   3      18.176   5.689 -36.923  1.00 24.93 LIG 0.15  C 
ATOM     37  CG2 THR G   3      19.106   4.488 -36.957  1.00 25.23 LIG 0.04  C 
BRANCH 36 38
ATOM     38 OG1  THR G   3      16.913   5.340 -37.501  1.00 25.78 LIG-0.39  OA
ATOM     39 HG1  THR G   3      16.521   4.787 -37.006  1.00 25.78 LIG 0.21  HD
ENDBRANCH 36 38
ENDBRANCH 24 36
ENDBRANCH 3 24
TORSDOF 17
ENDMDL
MODEL 5
USER: ADFR SOLUTION from run 44
USER: SCORE 14.798864 LL:  -2.891 LR: -13.895 RR:   0.000 FEB:  -8.823
USER: RMSD 4.676882
USER: SEED 43
USER: STATUS no improvement in best in 2 clusters for 5 generations
USER: GENES 19
USER: genes 0 Translation |==|  0.68343 0.55268 0.60509
USER: genes 1 Rotation |==|  0.76302 0.22580 0.81254 0.58915
USER: genes 2 Torsion [N]-C--CA-[N] |==|  0.17880
USER: genes 3 Torsion [C]-CA--N-[C] |==|  0.77412
USER: genes 4 Torsion [N]-C--CA-[N] |==|  0.25080
USER: genes 5 Torsion [C]-CA--CB-[CG2] |==|  0.48967
USER: genes 6 Torsion [CA]-CB--CG1-[CD1] |==|  0.53119
USER: genes 7 Torsion [C]-CA--N-[H3] |==|  0.72383
USER: genes 8 Torsion [C]-CA--CB-[CG] |==|  0.51630
USER: genes 9 Torsion [CA]-CB--CG-[CD] |==|  0.21688
USER: genes 10 Torsion [CB]-CG--CD-[OE2] |==|  0.19462
USER: genes 11 Torsion [C]-N--CA-[CB] |==|  0.42467
USER: genes 12 Torsion [N]-CA--C-[N] |==|  0.75806
USER: genes 13 Torsion [C]-N--CA-[C] |==|  0.80965
USER: genes 14 Torsion [N]-CA--CB-[CG] |==|  0.66886
USER: genes 15 Torsion [CA]-CB--CG-[OD1] |==|  0.97682
USER: genes 16 Torsion [N]-CA--C-[O] |==|  0.36674
USER: genes 17 Torsion [N]-CA--CB-[OG1] |==|  0.12620
USER: genes 18 Torsion [CA]-CB--OG1-[HG1] |==|  0.52941
ROOT
ATOM      1  C   GLU G   2      19.468   7.571 -34.348  1.00 25.53 LIG 0.24  C 
ATOM      2 O    GLU G   2      20.280   8.081 -35.110  1.00 27.72 LIG-0.27  OA
ATOM      3  N   THR G   3      18.377   6.945 -34.770  1.00 24.80 LIG-0.34  N 
ATOM      4 H    THR G   3      17.797   6.579 -34.250  1.00 24.80 LIG 0.16  HD
ENDROOT
BRANCH 1 5
ATOM      5  CA  GLU G   2      19.665   7.631 -32.842  1.00 28.49 LIG 0.18  C 
BRANCH 5 6
ATOM      6  N   GLU G   2      19.857   6.309 -32.250  1.00 29.38 LIG-0.35  N 
ATOM      7 H    GLU G   2      20.678   6.099 -32.100  1.00 29.38 LIG 0.16  HD
ATOM      8  C   ILE G   1      18.822   5.521 -31.976  1.00 32.49 LIG 0.25  C 
ATOM      9 O    ILE G   1      17.661   5.851 -32.197  1.00 35.08 LIG-0.27  OA
BRANCH 8 10
ATOM     10  CA  ILE G   1      19.141   4.153 -31.377  1.00 40.53 LIG 0.28  C 
BRANCH 10 11
ATOM     11  CB  ILE G   1      18.119   3.109 -31.878  1.00 45.86 LIG 0.02  C 
ATOM     12  CG2 ILE G   1      18.463   1.737 -31.375  1.00 44.63 LIG 0.01  C 
BRANCH 11 13
ATOM     13  CG1 ILE G   1      16.702   3.463 -31.424  1.00 53.07 LIG 0.00  C 
ATOM     14  CD1 ILE G   1      15.704   2.344 -31.652  1.00 50.29 LIG 0.01  C 
ENDBRANCH 11 13
ENDBRANCH 10 11
BRANCH 10 15
ATOM     15  N   ILE G   1      19.166   4.227 -29.924  1.00 42.16 LIG-0.07  N 
ATOM     16 H3   ILE G   1      20.009   4.286 -29.645  1.00 42.16 LIG 0.28  HD
ATOM     17 H1   ILE G   1      18.714   4.944 -29.655  1.00 42.16 LIG 0.28  HD
ATOM     18 H2   ILE G   1      18.791   3.495 -29.583  1.00 42.16 LIG 0.28  HD
ENDBRANCH 10 15
ENDBRANCH 8 10
ENDBRANCH 5 6
BRANCH 5 19
ATOM     19  CB  GLU G   2      20.845   8.539 -32.518  1.00 31.40 LIG 0.04  C 
BRANCH 19 20
ATOM     20  CG  GLU G   2      21.200   8.545 -31.055  1.00 29.13 LIG 0.12  C 
BRANCH 20 21
ATOM     21  CD  GLU G   2      21.977   7.325 -30.650  1.00 32.73 LIG 0.17  C 
ATOM     22 OE2  GLU G   2      23.149   7.216 -31.064  1.00 36.24 LIG-0.65  OA
ATOM     23 OE1  GLU G   2      21.416   6.475 -29.923  1.00 30.62 LIG-0.65  OA
ENDBRANCH 20 21
ENDBRANCH 19 20
ENDBRANCH 5 19
ENDBRANCH 1 5
BRANCH 3 24
ATOM     24  CA  THR G   3      18.075   6.831 -36.188  1.00 22.88 LIG 0.20  C 
BRANCH 24 25
ATOM     25  C   THR G   3      17.343   8.068 -36.681  1.00 24.60 LIG 0.24  C 
ATOM     26  N   ASP G   4      16.024   8.056 -36.553  1.00 24.15 LIG-0.35  N 
ATOM     27 H    ASP G   4      15.578   7.404 -36.214  1.00 24.15 LIG 0.16  HD
ATOM     28 O    THR G   3      17.956   9.016 -37.164  1.00 25.42 LIG-0.27  OA
BRANCH 26 29
ATOM     29  CA  ASP G   4      15.214   9.183 -36.994  1.00 27.29 LIG 0.17  C 
BRANCH 29 30
ATOM     30  CB  ASP G   4      13.743   8.783 -37.057  1.00 26.38 LIG 0.15  C 
BRANCH 30 31
ATOM     31  CG  ASP G   4      13.183   8.916 -38.453  1.00 24.82 LIG 0.17  C 
ATOM     32 OD2  ASP G   4      12.039   8.485 -38.710  1.00 25.35 LIG-0.65  OA
ATOM     33 OD1  ASP G   4      13.906   9.465 -39.300  1.00 26.55 LIG-0.65  OA
ENDBRANCH 30 31
ENDBRANCH 29 30
BRANCH 29 34
ATOM     34  C   ASP G   4      15.416  10.435 -36.141  1.00 29.06 LIG 0.22  C 
ATOM     35 O    ASP G   4      15.611  11.529 -36.659  1.00 23.21 LIG-0.29  OA
ENDBRANCH 29 34
ENDBRANCH 26 29
ENDBRANCH 24 25
BRANCH 24 36
ATOM     36  CB  THR G   3      17.228   5.589 -36.490  1.00 24.93 LIG 0.15  C 
ATOM     37  CG2 THR G   3      18.086   4.336 -36.433  1.00 25.23 LIG 0.04  C 
BRANCH 36 38
ATOM     38 OG1  THR G   3      16.166   5.491 -35.535  1.00 25.78 LIG-0.39  OA
ATOM     39 HG1  THR G   3      15.792   4.743 -35.607  1.00 25.78 LIG 0.21  HD
ENDBRANCH 36 38
ENDBRANCH 24 36
ENDBRANCH 3 24
TORSDOF 17
ENDMDL
MODEL 6
USER: ADFR SOLUTION from run 198
USER: SCORE 15.277274 LL:  -1.992 LR: -13.892 RR:   0.000 FEB:  -8.821
USER: RMSD 7.479957
USER: SEED 197
USER: STATUS no improvement in best in 3 clusters for 5 generations
USER: GENES 19
USER: genes 0 Translation |==|  0.48207 0.53374 0.51345
USER: genes 1 Rotation |==|  0.86671 0.78709 0.68159 0.51128
USER: genes 2 Torsion [N]-C--CA-[N] |==|  0.02615
USER: genes 3 Torsion [C]-CA--N-[C] |==|  0.76437
USER: genes 4 Torsion [N]-C--CA-[N] |==|  0.69086
USER: genes 5 Torsion [C]-CA--CB-[CG2] |==|  0.42383
USER: genes 6 Torsion [CA]-CB--CG1-[CD1] |==|  0.35855
USER: genes 7 Torsion [C]-CA--N-[H3] |==|  0.97636
USER: genes 8 Torsion [C]-CA--CB-[CG] |==|  0.24170
USER: genes 9 Torsion [CA]-CB--CG-[CD] |==|  0.52561
USER: genes 10 Torsion [CB]-CG--CD-[OE2] |==|  0.56198
USER: genes 11 Torsion [C]-N--CA-[CB] |==|  0.81419
USER: genes 12 Torsion [N]-CA--C-[N] |==|  0.28042
USER: genes 13 Torsion [C]-N--CA-[C] |==|  0.21517
USER: genes 14 Torsion [N]-CA--CB-[CG] |==|  0.69502
USER: genes 15 Torsion [CA]-CB--CG-[OD1] |==|  0.68340
USER: genes 16 Torsion [N]-CA--C-[O] |==|  0.08600
USER: genes 17 Torsion [N]-CA--CB-[OG1] |==|  0.06625
USER: genes 18 Torsion [CA]-CB--OG1-[HG1] |==|  0.23870
ROOT
ATOM      1  C   GLU G   2      15.843   7.174 -35.722  1.00 25.53 LIG 0.24  C 
ATOM      2 O    GLU G   2      15.419   6.362 -36.536  1.00 27.72 LIG-0.27  OA
ATOM      3  N   THR G   3      16.993   7.015 -35.078  1.00 24.80 LIG-0.34  N 
ATOM      4 H    THR G   3      17.308   7.576 -34.507  1.00 24.80 LIG 0.16  HD
ENDROOT
BRANCH 1 5
ATOM      5  CA  GLU G   2      15.060   8.434 -35.395  1.00 28.49 LIG 0.18  C 
BRANCH 5 6
ATOM      6  N   GLU G   2      15.824   9.372 -34.576  1.00 29.38 LIG-0.35  N 
ATOM      7 H    GLU G   2      16.233   9.985 -35.020  1.00 29.38 LIG 0.16  HD
ATOM      8  C   ILE G   1      15.862   9.255 -33.252  1.00 32.49 LIG 0.25  C 
ATOM      9 O    ILE G   1      15.264   8.371 -32.646  1.00 35.08 LIG-0.27  OA
BRANCH 8 10
ATOM     10  CA  ILE G   1      16.708  10.278 -32.498  1.00 40.53 LIG 0.28  C 
BRANCH 10 11
ATOM     11  CB  ILE G   1      17.100  11.434 -33.444  1.00 45.86 LIG 0.02  C 
ATOM     12  CG2 ILE G   1      17.320  12.706 -32.674  1.00 44.63 LIG 0.01  C 
BRANCH 11 13
ATOM     13  CG1 ILE G   1      18.372  11.100 -34.223  1.00 53.07 LIG 0.00  C 
ATOM     14  CD1 ILE G   1      18.228  11.308 -35.719  1.00 50.29 LIG 0.01  C 
ENDBRANCH 11 13
ENDBRANCH 10 11
BRANCH 10 15
ATOM     15  N   ILE G   1      17.878   9.640 -31.913  1.00 42.16 LIG-0.07  N 
ATOM     16 H3   ILE G   1      17.811   8.757 -32.003  1.00 42.16 LIG 0.28  HD
ATOM     17 H1   ILE G   1      18.611   9.925 -32.329  1.00 42.16 LIG 0.28  HD
ATOM     18 H2   ILE G   1      17.928   9.848 -31.049  1.00 42.16 LIG 0.28  HD
ENDBRANCH 10 15
ENDBRANCH 8 10
ENDBRANCH 5 6
BRANCH 5 19
ATOM     19  CB  GLU G   2      14.604   9.101 -36.687  1.00 31.40 LIG 0.04  C 
BRANCH 19 20
ATOM     20  CG  GLU G   2      13.288   8.570 -37.192  1.00 29.13 LIG 0.12  C 
BRANCH 20 21
ATOM     21  CD  GLU G   2      12.960   9.071 -38.570  1.00 32.73 LIG 0.17  C 
ATOM     22 OE2  GLU G   2      11.764   9.066 -38.923  1.00 36.24 LIG-0.65  OA
ATOM     23 OE1  GLU G   2      13.897   9.465 -39.299  1.00 30.62 LIG-0.65  OA
ENDBRANCH 20 21
ENDBRANCH 19 20
ENDBRANCH 5 19
ENDBRANCH 1 5
BRANCH 3 24
ATOM     24  CA  THR G   3      17.826   5.845 -35.301  1.00 22.88 LIG 0.20  C 
BRANCH 24 25
ATOM     25  C   THR G   3      18.147   5.690 -36.779  1.00 24.60 LIG 0.24  C 
ATOM     26  N   ASP G   4      19.347   6.099 -37.162  1.00 24.15 LIG-0.35  N 
ATOM     27 H    ASP G   4      19.934   6.435 -36.632  1.00 24.15 LIG 0.16  HD
ATOM     28 O    THR G   3      17.328   5.207 -37.557  1.00 25.42 LIG-0.27  OA
BRANCH 26 29
ATOM     29  CA  ASP G   4      19.767   6.004 -38.554  1.00 27.29 LIG 0.17  C 
BRANCH 29 30
ATOM     30  CB  ASP G   4      19.462   4.614 -39.104  1.00 26.38 LIG 0.15  C 
BRANCH 30 31
ATOM     31  CG  ASP G   4      20.720   3.814 -39.339  1.00 24.82 LIG 0.17  C 
ATOM     32 OD2  ASP G   4      21.429   3.465 -38.371  1.00 25.35 LIG-0.65  OA
ATOM     33 OD1  ASP G   4      20.996   3.531 -40.517  1.00 26.55 LIG-0.65  OA
ENDBRANCH 30 31
ENDBRANCH 29 30
BRANCH 29 34
ATOM     34  C   ASP G   4      19.166   7.098 -39.435  1.00 29.06 LIG 0.22  C 
ATOM     35 O    ASP G   4      18.908   8.208 -38.981  1.00 23.21 LIG-0.29  OA
ENDBRANCH 29 34
ENDBRANCH 26 29
ENDBRANCH 24 25
BRANCH 24 36
ATOM     36  CB  THR G   3      17.152   4.564 -34.794  1.00 24.93 LIG 0.15  C 
ATOM     37  CG2 THR G   3      17.658   4.213 -33.405  1.00 25.23 LIG 0.04  C 
BRANCH 36 38
ATOM     38 OG1  THR G   3      15.733   4.753 -34.758  1.00 25.78 LIG-0.39  OA
ATOM     39 HG1  THR G   3      15.407   4.577 -35.512  1.00 25.78 LIG 0.21  HD
ENDBRANCH 36 38
ENDBRANCH 24 36
ENDBRANCH 3 24
TORSDOF 17
ENDMDL
MODEL 7
USER: ADFR SOLUTION from run 145
USER: SCORE 15.568568 LL:  -2.683 LR: -13.839 RR:   0.000 FEB:  -8.768
USER: RMSD 4.542295
USER: SEED 144
USER: STATUS no improvement in best in 2 clusters for 5 generations
USER: GENES 19
USER: genes 0 Translation |==|  0.58391 0.51240 0.67788
USER: genes 1 Rotation |==|  0.59328 0.11589 0.73498 0.69633
USER: genes 2 Torsion [N]-C--CA-[N] |==|  0.35565
USER: genes 3 Torsion [C]-CA--N-[C] |==|  0.87220
USER: genes 4 Torsion [N]-C--CA-[N] |==|  0.97913
USER: genes 5 Torsion [C]-CA--CB-[CG2] |==|  0.15149
USER: genes 6 Torsion [CA]-CB--CG1-[CD1] |==|  0.41342
USER: genes 7 Torsion [C]-CA--N-[H3] |==|  0.40897
USER: genes 8 Torsion [C]-CA--CB-[CG] |==|  0.82551
USER: genes 9 Torsion [CA]-CB--CG-[CD] |==|  0.74031
USER: genes 10 Torsion [CB]-CG--CD-[OE2] |==|  0.66078
USER: genes 11 Torsion [C]-N--CA-[CB] |==|  0.19998
USER: genes 12 Torsion [N]-CA--C-[N] |==|  0.62778
USER: genes 13 Torsion [C]-N--CA-[C] |==|  0.60143
USER: genes 14 Torsion [N]-CA--CB-[CG] |==|  0.49378
USER: genes 15 Torsion [CA]-CB--CG-[OD1] |==|  0.79874
USER: genes 16 Torsion [N]-CA--C-[O] |==|  0.76181
USER: genes 17 Torsion [N]-CA--CB-[OG1] |==|  0.06409
USER: genes 18 Torsion [CA]-CB--OG1-[HG1] |==|  0.61772
ROOT
ATOM      1  C   GLU G   2      17.676   6.725 -33.256  1.00 25.53 LIG 0.24  C 
ATOM      2 O    GLU G   2      18.655   6.373 -33.903  1.00 27.72 LIG-0.27  OA
ATOM      3  N   THR G   3      16.609   7.286 -33.810  1.00 24.80 LIG-0.34  N 
ATOM      4 H    THR G   3      15.912   7.537 -33.372  1.00 24.80 LIG 0.16  HD
ENDROOT
BRANCH 1 5
ATOM      5  CA  GLU G   2      17.629   6.538 -31.748  1.00 28.49 LIG 0.18  C 
BRANCH 5 6
ATOM      6  N   GLU G   2      17.933   5.168 -31.344  1.00 29.38 LIG-0.35  N 
ATOM      7 H    GLU G   2      18.489   5.102 -30.691  1.00 29.38 LIG 0.16  HD
ATOM      8  C   ILE G   1      17.377   4.129 -31.961  1.00 32.49 LIG 0.25  C 
ATOM      9 O    ILE G   1      16.584   4.256 -32.889  1.00 35.08 LIG-0.27  OA
BRANCH 8 10
ATOM     10  CA  ILE G   1      17.783   2.742 -31.469  1.00 40.53 LIG 0.28  C 
BRANCH 10 11
ATOM     11  CB  ILE G   1      16.555   2.014 -30.879  1.00 45.86 LIG 0.02  C 
ATOM     12  CG2 ILE G   1      15.428   1.975 -31.870  1.00 44.63 LIG 0.01  C 
BRANCH 11 13
ATOM     13  CG1 ILE G   1      16.907   0.584 -30.470  1.00 53.07 LIG 0.00  C 
ATOM     14  CD1 ILE G   1      16.101   0.085 -29.285  1.00 50.29 LIG 0.01  C 
ENDBRANCH 11 13
ENDBRANCH 10 11
BRANCH 10 15
ATOM     15  N   ILE G   1      18.866   2.841 -30.501  1.00 42.16 LIG-0.07  N 
ATOM     16 H3   ILE G   1      18.788   2.190 -29.900  1.00 42.16 LIG 0.28  HD
ATOM     17 H1   ILE G   1      19.647   2.764 -30.921  1.00 42.16 LIG 0.28  HD
ATOM     18 H2   ILE G   1      18.826   3.631 -30.091  1.00 42.16 LIG 0.28  HD
ENDBRANCH 10 15
ENDBRANCH 8 10
ENDBRANCH 5 6
BRANCH 5 19
ATOM     19  CB  GLU G   2      18.587   7.518 -31.083  1.00 31.40 LIG 0.04  C 
BRANCH 19 20
ATOM     20  CG  GLU G   2      20.025   7.291 -31.468  1.00 29.13 LIG 0.12  C 
BRANCH 20 21
ATOM     21  CD  GLU G   2      20.743   6.398 -30.496  1.00 32.73 LIG 0.17  C 
ATOM     22 OE2  GLU G   2      21.764   6.847 -29.937  1.00 36.24 LIG-0.65  OA
ATOM     23 OE1  GLU G   2      20.290   5.250 -30.295  1.00 30.62 LIG-0.65  OA
ENDBRANCH 20 21
ENDBRANCH 19 20
ENDBRANCH 5 19
ENDBRANCH 1 5
BRANCH 3 24
ATOM     24  CA  THR G   3      16.541   7.525 -35.242  1.00 22.88 LIG 0.20  C 
BRANCH 24 25
ATOM     25  C   THR G   3      15.396   8.466 -35.575  1.00 24.60 LIG 0.24  C 
ATOM     26  N   ASP G   4      14.624   8.111 -36.592  1.00 24.15 LIG-0.35  N 
ATOM     27 H    ASP G   4      14.735   7.395 -37.055  1.00 24.15 LIG 0.16  HD
ATOM     28 O    THR G   3      15.211   9.492 -34.926  1.00 25.42 LIG-0.27  OA
BRANCH 26 29
ATOM     29  CA  ASP G   4      13.498   8.936 -37.007  1.00 27.29 LIG 0.17  C 
BRANCH 29 30
ATOM     30  CB  ASP G   4      13.938   9.932 -38.075  1.00 26.38 LIG 0.15  C 
BRANCH 30 31
ATOM     31  CG  ASP G   4      12.785  10.771 -38.572  1.00 24.82 LIG 0.17  C 
ATOM     32 OD2  ASP G   4      12.705  11.975 -38.251  1.00 25.35 LIG-0.65  OA
ATOM     33 OD1  ASP G   4      11.951  10.207 -39.299  1.00 26.55 LIG-0.65  OA
ENDBRANCH 30 31
ENDBRANCH 29 30
BRANCH 29 34
ATOM     34  C   ASP G   4      12.295   8.116 -37.470  1.00 29.06 LIG 0.22  C 
ATOM     35 O    ASP G   4      12.205   7.721 -38.628  1.00 23.21 LIG-0.29  OA
ENDBRANCH 29 34
ENDBRANCH 26 29
ENDBRANCH 24 25
BRANCH 24 36
ATOM     36  CB  THR G   3      16.366   6.218 -36.027  1.00 24.93 LIG 0.15  C 
ATOM     37  CG2 THR G   3      17.705   5.732 -36.554  1.00 25.23 LIG 0.04  C 
BRANCH 36 38
ATOM     38 OG1  THR G   3      15.790   5.223 -35.174  1.00 25.78 LIG-0.39  OA
ATOM     39 HG1  THR G   3      16.178   4.488 -35.299  1.00 25.78 LIG 0.21  HD
ENDBRANCH 36 38
ENDBRANCH 24 36
ENDBRANCH 3 24
TORSDOF 17
ENDMDL
MODEL 8
USER: ADFR SOLUTION from run 64
USER: SCORE 15.038247 LL:  -2.795 LR: -13.806 RR:   0.000 FEB:  -8.735
USER: RMSD 4.719132
USER: SEED 63
USER: STATUS no improvement in best in 6 clusters for 5 generations
USER: GENES 19
USER: genes 0 Translation |==|  0.57419 0.58160 0.76404
USER: genes 1 Rotation |==|  0.40223 0.36410 0.54485 0.96900
USER: genes 2 Torsion [N]-C--CA-[N] |==|  0.51097
USER: genes 3 Torsion [C]-CA--N-[C] |==|  0.19070
USER: genes 4 Torsion [N]-C--CA-[N] |==|  0.89400
USER: genes 5 Torsion [C]-CA--CB-[CG2] |==|  0.18886
USER: genes 6 Torsion [CA]-CB--CG1-[CD1] |==|  0.55587
USER: genes 7 Torsion [C]-CA--N-[H3] |==|  0.45862
USER: genes 8 Torsion [C]-CA--CB-[CG] |==|  0.37697
USER: genes 9 Torsion [CA]-CB--CG-[CD] |==|  0.26965
USER: genes 10 Torsion [CB]-CG--CD-[OE2] |==|  0.78772
USER: genes 11 Torsion [C]-N--CA-[CB] |==|  0.50828
USER: genes 12 Torsion [N]-CA--C-[N] |==|  0.36678
USER: genes 13 Torsion [C]-N--CA-[C] |==|  0.12806
USER: genes 14 Torsion [N]-CA--CB-[CG] |==|  0.57400
USER: genes 15 Torsion [CA]-CB--CG-[OD1] |==|  0.03536
USER: genes 16 Torsion [N]-CA--C-[O] |==|  0.17449
USER: genes 17 Torsion [N]-CA--CB-[OG1] |==|  0.22220
USER: genes 18 Torsion [CA]-CB--OG1-[HG1] |==|  0.92266
ROOT
ATOM      1  C   GLU G   2      17.501   8.179 -31.963  1.00 25.53 LIG 0.24  C 
ATOM      2 O    GLU G   2      16.547   7.481 -32.284  1.00 27.72 LIG-0.27  OA
ATOM      3  N   THR G   3      17.596   9.463 -32.285  1.00 24.80 LIG-0.34  N 
ATOM      4 H    THR G   3      18.256   9.969 -32.065  1.00 24.80 LIG 0.16  HD
ENDROOT
BRANCH 1 5
ATOM      5  CA  GLU G   2      18.658   7.601 -31.164  1.00 28.49 LIG 0.18  C 
BRANCH 5 6
ATOM      6  N   GLU G   2      18.518   6.165 -30.934  1.00 29.38 LIG-0.35  N 
ATOM      7 H    GLU G   2      18.369   5.946 -30.115  1.00 29.38 LIG 0.16  HD
ATOM      8  C   ILE G   1      18.618   5.295 -31.934  1.00 32.49 LIG 0.25  C 
ATOM      9 O    ILE G   1      18.827   5.639 -33.094  1.00 35.08 LIG-0.27  OA
BRANCH 8 10
ATOM     10  CA  ILE G   1      18.474   3.818 -31.575  1.00 40.53 LIG 0.28  C 
BRANCH 10 11
ATOM     11  CB  ILE G   1      16.981   3.424 -31.561  1.00 45.86 LIG 0.02  C 
ATOM     12  CG2 ILE G   1      16.402   3.466 -32.946  1.00 44.63 LIG 0.01  C 
BRANCH 11 13
ATOM     13  CG1 ILE G   1      16.787   2.021 -30.984  1.00 53.07 LIG 0.00  C 
ATOM     14  CD1 ILE G   1      15.463   1.392 -31.376  1.00 50.29 LIG 0.01  C 
ENDBRANCH 11 13
ENDBRANCH 10 11
BRANCH 10 15
ATOM     15  N   ILE G   1      19.116   3.539 -30.299  1.00 42.16 LIG-0.07  N 
ATOM     16 H3   ILE G   1      18.847   2.746 -29.998  1.00 42.16 LIG 0.28  HD
ATOM     17 H1   ILE G   1      19.999   3.531 -30.406  1.00 42.16 LIG 0.28  HD
ATOM     18 H2   ILE G   1      18.895   4.170 -29.711  1.00 42.16 LIG 0.28  HD
ENDBRANCH 10 15
ENDBRANCH 8 10
ENDBRANCH 5 6
BRANCH 5 19
ATOM     19  CB  GLU G   2      19.971   7.903 -31.876  1.00 31.40 LIG 0.04  C 
BRANCH 19 20
ATOM     20  CG  GLU G   2      21.052   8.380 -30.942  1.00 29.13 LIG 0.12  C 
BRANCH 20 21
ATOM     21  CD  GLU G   2      21.976   7.273 -30.524  1.00 32.73 LIG 0.17  C 
ATOM     22 OE2  GLU G   2      21.567   6.465 -29.666  1.00 36.24 LIG-0.65  OA
ATOM     23 OE1  GLU G   2      23.109   7.212 -31.049  1.00 30.62 LIG-0.65  OA
ENDBRANCH 20 21
ENDBRANCH 19 20
ENDBRANCH 5 19
ENDBRANCH 1 5
BRANCH 3 24
ATOM     24  CA  THR G   3      16.555  10.125 -33.055  1.00 22.88 LIG 0.20  C 
BRANCH 24 25
ATOM     25  C   THR G   3      16.301   9.385 -34.358  1.00 24.60 LIG 0.24  C 
ATOM     26  N   ASP G   4      15.033   9.139 -34.652  1.00 24.15 LIG-0.35  N 
ATOM     27 H    ASP G   4      14.369   9.371 -34.158  1.00 24.15 LIG 0.16  HD
ATOM     28 O    THR G   3      17.232   9.047 -35.085  1.00 25.42 LIG-0.27  OA
BRANCH 26 29
ATOM     29  CA  ASP G   4      14.666   8.433 -35.872  1.00 27.29 LIG 0.17  C 
BRANCH 29 30
ATOM     30  CB  ASP G   4      14.709   9.383 -37.065  1.00 26.38 LIG 0.15  C 
BRANCH 30 31
ATOM     31  CG  ASP G   4      13.772   8.947 -38.166  1.00 24.82 LIG 0.17  C 
ATOM     32 OD2  ASP G   4      13.856   9.466 -39.299  1.00 25.35 LIG-0.65  OA
ATOM     33 OD1  ASP G   4      12.942   8.067 -37.884  1.00 26.55 LIG-0.65  OA
ENDBRANCH 30 31
ENDBRANCH 29 30
BRANCH 29 34
ATOM     34  C   ASP G   4      15.514   7.187 -36.121  1.00 29.06 LIG 0.22  C 
ATOM     35 O    ASP G   4      15.497   6.242 -35.338  1.00 23.21 LIG-0.29  OA
ENDBRANCH 29 34
ENDBRANCH 26 29
ENDBRANCH 24 25
BRANCH 24 36
ATOM     36  CB  THR G   3      16.919  11.582 -33.364  1.00 24.93 LIG 0.15  C 
ATOM     37  CG2 THR G   3      17.561  12.237 -32.152  1.00 25.23 LIG 0.04  C 
BRANCH 36 38
ATOM     38 OG1  THR G   3      17.824  11.624 -34.473  1.00 25.78 LIG-0.39  OA
ATOM     39 HG1  THR G   3      18.268  10.912 -34.499  1.00 25.78 LIG 0.21  HD
ENDBRANCH 36 38
ENDBRANCH 24 36
ENDBRANCH 3 24
TORSDOF 17
ENDMDL
MODEL 9
USER: ADFR SOLUTION from run 165
USER: SCORE 15.183936 LL:  -2.569 LR: -13.783 RR:   0.000 FEB:  -8.712
USER: RMSD 8.626197
USER: SEED 164
USER: STATUS no improvement in best in 6 clusters for 5 generations
USER: GENES 19
USER: genes 0 Translation |==|  0.55146 0.69693 0.50344
USER: genes 1 Rotation |==|  0.42028 0.27101 0.06800 0.56774
USER: genes 2 Torsion [N]-C--CA-[N] |==|  0.40036
USER: genes 3 Torsion [C]-CA--N-[C] |==|  0.82408
USER: genes 4 Torsion [N]-C--CA-[N] |==|  0.37135
USER: genes 5 Torsion [C]-CA--CB-[CG2] |==|  0.62533
USER: genes 6 Torsion [CA]-CB--CG1-[CD1] |==|  0.30369
USER: genes 7 Torsion [C]-CA--N-[H3] |==|  0.80893
USER: genes 8 Torsion [C]-CA--CB-[CG] |==|  0.46794
USER: genes 9 Torsion [CA]-CB--CG-[CD] |==|  0.39828
USER: genes 10 Torsion [CB]-CG--CD-[OE2] |==|  0.92210
USER: genes 11 Torsion [C]-N--CA-[CB] |==|  0.51667
USER: genes 12 Torsion [N]-CA--C-[N] |==|  0.92020
USER: genes 13 Torsion [C]-N--CA-[C] |==|  0.71993
USER: genes 14 Torsion [N]-CA--CB-[CG] |==|  0.51572
USER: genes 15 Torsion [CA]-CB--CG-[OD1] |==|  0.26925
USER: genes 16 Torsion [N]-CA--C-[O] |==|  0.97574
USER: genes 17 Torsion [N]-CA--CB-[OG1] |==|  0.81355
USER: genes 18 Torsion [CA]-CB--OG1-[HG1] |==|  0.64411
ROOT
ATOM      1  C   GLU G   2      17.092  10.601 -35.872  1.00 25.53 LIG 0.24  C 
ATOM      2 O    GLU G   2      17.974  10.982 -36.633  1.00 27.72 LIG-0.27  OA
ATOM      3  N   THR G   3      17.346   9.963 -34.736  1.00 24.80 LIG-0.34  N 
ATOM      4 H    THR G   3      16.740   9.691 -34.189  1.00 24.80 LIG 0.16  HD
ENDROOT
BRANCH 1 5
ATOM      5  CA  GLU G   2      15.626  10.839 -36.195  1.00 28.49 LIG 0.18  C 
BRANCH 5 6
ATOM      6  N   GLU G   2      15.400  12.119 -36.860  1.00 29.38 LIG-0.35  N 
ATOM      7 H    GLU G   2      15.087  12.058 -37.660  1.00 29.38 LIG 0.16  HD
ATOM      8  C   ILE G   1      15.668  13.269 -36.249  1.00 32.49 LIG 0.25  C 
ATOM      9 O    ILE G   1      16.110  13.325 -35.105  1.00 35.08 LIG-0.27  OA
BRANCH 8 10
ATOM     10  CA  ILE G   1      15.412  14.546 -37.046  1.00 40.53 LIG 0.28  C 
BRANCH 10 11
ATOM     11  CB  ILE G   1      16.749  15.114 -37.571  1.00 45.86 LIG 0.02  C 
ATOM     12  CG2 ILE G   1      16.825  16.598 -37.352  1.00 44.63 LIG 0.01  C 
BRANCH 11 13
ATOM     13  CG1 ILE G   1      17.939  14.448 -36.879  1.00 53.07 LIG 0.00  C 
ATOM     14  CD1 ILE G   1      18.720  13.522 -37.792  1.00 50.29 LIG 0.01  C 
ENDBRANCH 11 13
ENDBRANCH 10 11
BRANCH 10 15
ATOM     15  N   ILE G   1      14.696  15.519 -36.235  1.00 42.16 LIG-0.07  N 
ATOM     16 H3   ILE G   1      13.867  15.229 -36.087  1.00 42.16 LIG 0.28  HD
ATOM     17 H1   ILE G   1      15.116  15.624 -35.458  1.00 42.16 LIG 0.28  HD
ATOM     18 H2   ILE G   1      14.666  16.298 -36.664  1.00 42.16 LIG 0.28  HD
ENDBRANCH 10 15
ENDBRANCH 8 10
ENDBRANCH 5 6
BRANCH 5 19
ATOM     19  CB  GLU G   2      15.099   9.692 -37.047  1.00 31.40 LIG 0.04  C 
BRANCH 19 20
ATOM     20  CG  GLU G   2      13.599   9.699 -37.184  1.00 29.13 LIG 0.12  C 
BRANCH 20 21
ATOM     21  CD  GLU G   2      13.147   9.261 -38.548  1.00 32.73 LIG 0.17  C 
ATOM     22 OE2  GLU G   2      13.916   9.460 -39.509  1.00 36.24 LIG-0.65  OA
ATOM     23 OE1  GLU G   2      12.024   8.722 -38.658  1.00 30.62 LIG-0.65  OA
ENDBRANCH 20 21
ENDBRANCH 19 20
ENDBRANCH 5 19
ENDBRANCH 1 5
BRANCH 3 24
ATOM     24  CA  THR G   3      18.709   9.670 -34.325  1.00 22.88 LIG 0.20  C 
BRANCH 24 25
ATOM     25  C   THR G   3      19.464   8.965 -35.439  1.00 24.60 LIG 0.24  C 
ATOM     26  N   ASP G   4      18.735   8.230 -36.265  1.00 24.15 LIG-0.35  N 
ATOM     27 H    ASP G   4      17.882   8.137 -36.204  1.00 24.15 LIG 0.16  HD
ATOM     28 O    THR G   3      20.682   9.084 -35.552  1.00 25.42 LIG-0.27  OA
BRANCH 26 29
ATOM     29  CA  ASP G   4      19.348   7.503 -37.369  1.00 27.29 LIG 0.17  C 
BRANCH 29 30
ATOM     30  CB  ASP G   4      18.814   6.075 -37.422  1.00 26.38 LIG 0.15  C 
BRANCH 30 31
ATOM     31  CG  ASP G   4      19.525   5.247 -38.466  1.00 24.82 LIG 0.17  C 
ATOM     32 OD2  ASP G   4      19.167   5.309 -39.661  1.00 25.35 LIG-0.65  OA
ATOM     33 OD1  ASP G   4      20.458   4.527 -38.075  1.00 26.55 LIG-0.65  OA
ENDBRANCH 30 31
ENDBRANCH 29 30
BRANCH 29 34
ATOM     34  C   ASP G   4      19.186   8.210 -38.714  1.00 29.06 LIG 0.22  C 
ATOM     35 O    ASP G   4      18.460   9.192 -38.830  1.00 23.21 LIG-0.29  OA
ENDBRANCH 29 34
ENDBRANCH 26 29
ENDBRANCH 24 25
BRANCH 24 36
ATOM     36  CB  THR G   3      18.746   8.803 -33.061  1.00 24.93 LIG 0.15  C 
ATOM     37  CG2 THR G   3      20.167   8.350 -32.770  1.00 25.23 LIG 0.04  C 
BRANCH 36 38
ATOM     38 OG1  THR G   3      18.241   9.553 -31.951  1.00 25.78 LIG-0.39  OA
ATOM     39 HG1  THR G   3      18.791   9.521 -31.317  1.00 25.78 LIG 0.21  HD
ENDBRANCH 36 38
ENDBRANCH 24 36
ENDBRANCH 3 24
TORSDOF 17
ENDMDL
MODEL 10
USER: ADFR SOLUTION from run 7
USER: SCORE 14.977934 LL:  -2.446 LR: -13.771 RR:   0.000 FEB:  -8.699
USER: RMSD 9.214107
USER: SEED 367256
USER: STATUS no improvement in best in 10 clusters for 5 generations
USER: GENES 19
USER: genes 0 Translation |==|  0.50032 0.61192 0.56197
USER: genes 1 Rotation |==|  0.51072 0.65533 0.96463 0.59938
USER: genes 2 Torsion [N]-C--CA-[N] |==|  0.44842
USER: genes 3 Torsion [C]-CA--N-[C] |==|  0.76926
USER: genes 4 Torsion [N]-C--CA-[N] |==|  0.88697
USER: genes 5 Torsion [C]-CA--CB-[CG2] |==|  0.06522
USER: genes 6 Torsion [CA]-CB--CG1-[CD1] |==|  0.58012
USER: genes 7 Torsion [C]-CA--N-[H3] |==|  0.30814
USER: genes 8 Torsion [C]-CA--CB-[CG] |==|  0.43464
USER: genes 9 Torsion [CA]-CB--CG-[CD] |==|  0.43788
USER: genes 10 Torsion [CB]-CG--CD-[OE2] |==|  0.87004
USER: genes 11 Torsion [C]-N--CA-[CB] |==|  0.80600
USER: genes 12 Torsion [N]-CA--C-[N] |==|  0.58887
USER: genes 13 Torsion [C]-N--CA-[C] |==|  0.81070
USER: genes 14 Torsion [N]-CA--CB-[CG] |==|  0.47147
USER: genes 15 Torsion [CA]-CB--CG-[OD1] |==|  0.72079
USER: genes 16 Torsion [N]-CA--C-[O] |==|  0.99358
USER: genes 17 Torsion [N]-CA--CB-[OG1] |==|  0.91452
USER: genes 18 Torsion [CA]-CB--OG1-[HG1] |==|  0.54236
ROOT
ATOM      1  C   GLU G   2      16.172   8.815 -34.994  1.00 25.53 LIG 0.24  C 
ATOM      2 O    GLU G   2      17.387   8.727 -35.118  1.00 27.72 LIG-0.27  OA
ATOM      3  N   THR G   3      15.472   8.042 -34.173  1.00 24.80 LIG-0.34  N 
ATOM      4 H    THR G   3      14.620   8.092 -34.071  1.00 24.80 LIG 0.16  HD
ENDROOT
BRANCH 1 5
ATOM      5  CA  GLU G   2      15.377   9.835 -35.794  1.00 28.49 LIG 0.18  C 
BRANCH 5 6
ATOM      6  N   GLU G   2      16.216  10.907 -36.325  1.00 29.38 LIG-0.35  N 
ATOM      7 H    GLU G   2      16.466  10.796 -37.141  1.00 29.38 LIG 0.16  HD
ATOM      8  C   ILE G   1      16.548  11.955 -35.577  1.00 32.49 LIG 0.25  C 
ATOM      9 O    ILE G   1      16.173  12.087 -34.416  1.00 35.08 LIG-0.27  OA
BRANCH 8 10
ATOM     10  CA  ILE G   1      17.445  13.005 -36.228  1.00 40.53 LIG 0.28  C 
BRANCH 10 11
ATOM     11  CB  ILE G   1      16.590  13.976 -37.071  1.00 45.86 LIG 0.02  C 
ATOM     12  CG2 ILE G   1      15.168  13.996 -36.589  1.00 44.63 LIG 0.01  C 
BRANCH 11 13
ATOM     13  CG1 ILE G   1      17.153  15.397 -37.015  1.00 53.07 LIG 0.00  C 
ATOM     14  CD1 ILE G   1      16.091  16.467 -37.188  1.00 50.29 LIG 0.01  C 
ENDBRANCH 11 13
ENDBRANCH 10 11
BRANCH 10 15
ATOM     15  N   ILE G   1      18.480  12.367 -37.027  1.00 42.16 LIG-0.07  N 
ATOM     16 H3   ILE G   1      18.327  12.522 -37.890  1.00 42.16 LIG 0.28  HD
ATOM     17 H1   ILE G   1      19.275  12.698 -36.803  1.00 42.16 LIG 0.28  HD
ATOM     18 H2   ILE G   1      18.472  11.489 -36.876  1.00 42.16 LIG 0.28  HD
ENDBRANCH 10 15
ENDBRANCH 8 10
ENDBRANCH 5 6
BRANCH 5 19
ATOM     19  CB  GLU G   2      14.632   9.131 -36.920  1.00 31.40 LIG 0.04  C 
BRANCH 19 20
ATOM     20  CG  GLU G   2      13.425   9.896 -37.398  1.00 29.13 LIG 0.12  C 
BRANCH 20 21
ATOM     21  CD  GLU G   2      13.022   9.514 -38.794  1.00 32.73 LIG 0.17  C 
ATOM     22 OE2  GLU G   2      13.916   9.446 -39.661  1.00 36.24 LIG-0.65  OA
ATOM     23 OE1  GLU G   2      11.814   9.287 -39.023  1.00 30.62 LIG-0.65  OA
ENDBRANCH 20 21
ENDBRANCH 19 20
ENDBRANCH 5 19
ENDBRANCH 1 5
BRANCH 3 24
ATOM     24  CA  THR G   3      16.121   7.024 -33.363  1.00 22.88 LIG 0.20  C 
BRANCH 24 25
ATOM     25  C   THR G   3      17.277   7.621 -32.577  1.00 24.60 LIG 0.24  C 
ATOM     26  N   ASP G   4      18.304   6.817 -32.348  1.00 24.15 LIG-0.35  N 
ATOM     27 H    ASP G   4      18.347   6.001 -32.614  1.00 24.15 LIG 0.16  HD
ATOM     28 O    THR G   3      17.243   8.786 -32.189  1.00 25.42 LIG-0.27  OA
BRANCH 26 29
ATOM     29  CA  ASP G   4      19.468   7.275 -31.602  1.00 27.29 LIG 0.17  C 
BRANCH 29 30
ATOM     30  CB  ASP G   4      20.334   6.088 -31.193  1.00 26.38 LIG 0.15  C 
BRANCH 30 31
ATOM     31  CG  ASP G   4      21.668   6.528 -30.639  1.00 24.82 LIG 0.17  C 
ATOM     32 OD2  ASP G   4      21.753   6.929 -29.459  1.00 25.35 LIG-0.65  OA
ATOM     33 OD1  ASP G   4      22.644   6.466 -31.405  1.00 26.55 LIG-0.65  OA
ENDBRANCH 30 31
ENDBRANCH 29 30
BRANCH 29 34
ATOM     34  C   ASP G   4      20.282   8.328 -32.352  1.00 29.06 LIG 0.22  C 
ATOM     35 O    ASP G   4      19.970   8.683 -33.484  1.00 23.21 LIG-0.29  OA
ENDBRANCH 29 34
ENDBRANCH 26 29
ENDBRANCH 24 25
BRANCH 24 36
ATOM     36  CB  THR G   3      16.639   5.863 -34.220  1.00 24.93 LIG 0.15  C 
ATOM     37  CG2 THR G   3      16.661   4.576 -33.411  1.00 25.23 LIG 0.04  C 
BRANCH 36 38
ATOM     38 OG1  THR G   3      15.795   5.700 -35.365  1.00 25.78 LIG-0.39  OA
ATOM     39 HG1  THR G   3      15.943   4.953 -35.719  1.00 25.78 LIG 0.21  HD
ENDBRANCH 36 38
ENDBRANCH 24 36
ENDBRANCH 3 24
TORSDOF 17
ENDMDL
MODEL 11
USER: ADFR SOLUTION from run 165
USER: SCORE 14.746605 LL:  -2.264 LR: -13.659 RR:   0.000 FEB:  -8.588
USER: RMSD 8.019379
USER: SEED 164
USER: STATUS no improvement in best in 6 clusters for 5 generations
USER: GENES 19
USER: genes 0 Translation |==|  0.46769 0.49990 0.54777
USER: genes 1 Rotation |==|  0.76851 0.74730 0.83293 0.57682
USER: genes 2 Torsion [N]-C--CA-[N] |==|  0.10570
USER: genes 3 Torsion [C]-CA--N-[C] |==|  0.14459
USER: genes 4 Torsion [N]-C--CA-[N] |==|  0.29539
USER: genes 5 Torsion [C]-CA--CB-[CG2] |==|  0.11929
USER: genes 6 Torsion [CA]-CB--CG1-[CD1] |==|  0.71610
USER: genes 7 Torsion [C]-CA--N-[H3] |==|  0.36027
USER: genes 8 Torsion [C]-CA--CB-[CG] |==|  0.42752
USER: genes 9 Torsion [CA]-CB--CG-[CD] |==|  0.57194
USER: genes 10 Torsion [CB]-CG--CD-[OE2] |==|  0.82672
USER: genes 11 Torsion [C]-N--CA-[CB] |==|  0.81111
USER: genes 12 Torsion [N]-CA--C-[N] |==|  0.73986
USER: genes 13 Torsion [C]-N--CA-[C] |==|  0.60078
USER: genes 14 Torsion [N]-CA--CB-[CG] |==|  0.60318
USER: genes 15 Torsion [CA]-CB--CG-[OD1] |==|  0.19860
USER: genes 16 Torsion [N]-CA--C-[O] |==|  0.34369
USER: genes 17 Torsion [N]-CA--CB-[OG1] |==|  0.94483
USER: genes 18 Torsion [CA]-CB--OG1-[HG1] |==|  0.39075
ROOT
ATOM      1  C   GLU G   2      15.584   6.463 -35.207  1.00 25.53 LIG 0.24  C 
ATOM      2 O    GLU G   2      15.912   5.851 -36.217  1.00 27.72 LIG-0.27  OA
ATOM      3  N   THR G   3      15.995   6.122 -33.992  1.00 24.80 LIG-0.34  N 
ATOM      4 H    THR G   3      15.778   6.541 -33.273  1.00 24.80 LIG 0.16  HD
ENDROOT
BRANCH 1 5
ATOM      5  CA  GLU G   2      14.666   7.672 -35.290  1.00 28.49 LIG 0.18  C 
BRANCH 5 6
ATOM      6  N   GLU G   2      15.041   8.725 -34.350  1.00 29.38 LIG-0.35  N 
ATOM      7 H    GLU G   2      14.399   9.003 -33.849  1.00 29.38 LIG 0.16  HD
ATOM      8  C   ILE G   1      16.285   9.192 -34.300  1.00 32.49 LIG 0.25  C 
ATOM      9 O    ILE G   1      17.181   8.771 -35.026  1.00 35.08 LIG-0.27  OA
BRANCH 8 10
ATOM     10  CA  ILE G   1      16.560  10.306 -33.293  1.00 40.53 LIG 0.28  C 
BRANCH 10 11
ATOM     11  CB  ILE G   1      17.292  11.474 -33.989  1.00 45.86 LIG 0.02  C 
ATOM     12  CG2 ILE G   1      16.685  11.764 -35.332  1.00 44.63 LIG 0.01  C 
BRANCH 11 13
ATOM     13  CG1 ILE G   1      17.240  12.743 -33.137  1.00 53.07 LIG 0.00  C 
ATOM     14  CD1 ILE G   1      16.211  13.747 -33.622  1.00 50.29 LIG 0.01  C 
ENDBRANCH 11 13
ENDBRANCH 10 11
BRANCH 10 15
ATOM     15  N   ILE G   1      17.317   9.794 -32.161  1.00 42.16 LIG-0.07  N 
ATOM     16 H3   ILE G   1      18.022  10.319 -32.013  1.00 42.16 LIG 0.28  HD
ATOM     17 H1   ILE G   1      16.800   9.784 -31.437  1.00 42.16 LIG 0.28  HD
ATOM     18 H2   ILE G   1      17.594   8.967 -32.339  1.00 42.16 LIG 0.28  HD
ENDBRANCH 10 15
ENDBRANCH 8 10
ENDBRANCH 5 6
BRANCH 5 19
ATOM     19  CB  GLU G   2      14.655   8.207 -36.716  1.00 31.40 LIG 0.04  C 
BRANCH 19 20
ATOM     20  CG  GLU G   2      13.387   8.943 -37.060  1.00 29.13 LIG 0.12  C 
BRANCH 20 21
ATOM     21  CD  GLU G   2      13.095   8.921 -38.533  1.00 32.73 LIG 0.17  C 
ATOM     22 OE2  GLU G   2      13.916   9.465 -39.299  1.00 36.24 LIG-0.65  OA
ATOM     23 OE1  GLU G   2      12.045   8.365 -38.924  1.00 30.62 LIG-0.65  OA
ENDBRANCH 20 21
ENDBRANCH 19 20
ENDBRANCH 5 19
ENDBRANCH 1 5
BRANCH 3 24
ATOM     24  CA  THR G   3      16.869   4.979 -33.787  1.00 22.88 LIG 0.20  C 
BRANCH 24 25
ATOM     25  C   THR G   3      18.111   5.091 -34.656  1.00 24.60 LIG 0.24  C 
ATOM     26  N   ASP G   4      18.057   4.486 -35.832  1.00 24.15 LIG-0.35  N 
ATOM     27 H    ASP G   4      17.375   4.049 -36.120  1.00 24.15 LIG 0.16  HD
ATOM     28 O    THR G   3      19.098   5.714 -34.272  1.00 25.42 LIG-0.27  OA
BRANCH 26 29
ATOM     29  CA  ASP G   4      19.188   4.520 -36.751  1.00 27.29 LIG 0.17  C 
BRANCH 29 30
ATOM     30  CB  ASP G   4      20.104   3.325 -36.505  1.00 26.38 LIG 0.15  C 
BRANCH 30 31
ATOM     31  CG  ASP G   4      21.560   3.689 -36.670  1.00 24.82 LIG 0.17  C 
ATOM     32 OD2  ASP G   4      22.199   3.275 -37.660  1.00 25.35 LIG-0.65  OA
ATOM     33 OD1  ASP G   4      22.065   4.405 -35.790  1.00 26.55 LIG-0.65  OA
ENDBRANCH 30 31
ENDBRANCH 29 30
BRANCH 29 34
ATOM     34  C   ASP G   4      18.766   4.609 -38.216  1.00 29.06 LIG 0.22  C 
ATOM     35 O    ASP G   4      19.164   5.518 -38.937  1.00 23.21 LIG-0.29  OA
ENDBRANCH 29 34
ENDBRANCH 26 29
ENDBRANCH 24 25
BRANCH 24 36
ATOM     36  CB  THR G   3      16.156   3.657 -34.094  1.00 24.93 LIG 0.15  C 
ATOM     37  CG2 THR G   3      16.557   2.591 -33.088  1.00 25.23 LIG 0.04  C 
BRANCH 36 38
ATOM     38 OG1  THR G   3      14.739   3.857 -34.048  1.00 25.78 LIG-0.39  OA
ATOM     39 HG1  THR G   3      14.373   3.419 -34.665  1.00 25.78 LIG 0.21  HD
ENDBRANCH 36 38
ENDBRANCH 24 36
ENDBRANCH 3 24
TORSDOF 17
ENDMDL
MODEL 12
USER: ADFR SOLUTION from run 192
USER: SCORE 15.165586 LL:  -2.880 LR: -13.527 RR:   0.000 FEB:  -8.456
USER: RMSD 8.502579
USER: SEED 191
USER: STATUS no improvement in best in 3 clusters for 5 generations
USER: GENES 19
USER: genes 0 Translation |==|  0.50461 0.60219 0.56837
USER: genes 1 Rotation |==|  0.52215 0.66840 0.96240 0.58566
USER: genes 2 Torsion [N]-C--CA-[N] |==|  0.43756
USER: genes 3 Torsion [C]-CA--N-[C] |==|  0.79475
USER: genes 4 Torsion [N]-C--CA-[N] |==|  0.52379
USER: genes 5 Torsion [C]-CA--CB-[CG2] |==|  0.54616
USER: genes 6 Torsion [CA]-CB--CG1-[CD1] |==|  0.36077
USER: genes 7 Torsion [C]-CA--N-[H3] |==|  0.60200
USER: genes 8 Torsion [C]-CA--CB-[CG] |==|  0.41437
USER: genes 9 Torsion [CA]-CB--CG-[CD] |==|  0.39843
USER: genes 10 Torsion [CB]-CG--CD-[OE2] |==|  0.90158
USER: genes 11 Torsion [C]-N--CA-[CB] |==|  0.79296
USER: genes 12 Torsion [N]-CA--C-[N] |==|  0.67844
USER: genes 13 Torsion [C]-N--CA-[C] |==|  0.73207
USER: genes 14 Torsion [N]-CA--CB-[CG] |==|  0.59797
USER: genes 15 Torsion [CA]-CB--CG-[OD1] |==|  0.23343
USER: genes 16 Torsion [N]-CA--C-[O] |==|  0.84592
USER: genes 17 Torsion [N]-CA--CB-[OG1] |==|  0.91291
USER: genes 18 Torsion [CA]-CB--OG1-[HG1] |==|  0.47332
ROOT
ATOM      1  C   GLU G   2      16.249   8.611 -34.898  1.00 25.53 LIG 0.24  C 
ATOM      2 O    GLU G   2      17.456   8.560 -35.104  1.00 27.72 LIG-0.27  OA
ATOM      3  N   THR G   3      15.638   7.850 -34.000  1.00 24.80 LIG-0.34  N 
ATOM      4 H    THR G   3      14.793   7.874 -33.840  1.00 24.80 LIG 0.16  HD
ENDROOT
BRANCH 1 5
ATOM      5  CA  GLU G   2      15.364   9.568 -35.680  1.00 28.49 LIG 0.18  C 
BRANCH 5 6
ATOM      6  N   GLU G   2      16.109  10.695 -36.235  1.00 29.38 LIG-0.35  N 
ATOM      7 H    GLU G   2      16.238  10.656 -37.084  1.00 29.38 LIG 0.16  HD
ATOM      8  C   ILE G   1      16.541  11.684 -35.457  1.00 32.49 LIG 0.25  C 
ATOM      9 O    ILE G   1      16.338  11.713 -34.247  1.00 35.08 LIG-0.27  OA
BRANCH 8 10
ATOM     10  CA  ILE G   1      17.327  12.800 -36.141  1.00 40.53 LIG 0.28  C 
BRANCH 10 11
ATOM     11  CB  ILE G   1      18.411  12.192 -37.059  1.00 45.86 LIG 0.02  C 
ATOM     12  CG2 ILE G   1      19.443  13.221 -37.424  1.00 44.63 LIG 0.01  C 
BRANCH 11 13
ATOM     13  CG1 ILE G   1      19.105  11.010 -36.383  1.00 53.07 LIG 0.00  C 
ATOM     14  CD1 ILE G   1      19.165   9.772 -37.258  1.00 50.29 LIG 0.01  C 
ENDBRANCH 11 13
ENDBRANCH 10 11
BRANCH 10 15
ATOM     15  N   ILE G   1      17.903  13.698 -35.151  1.00 42.16 LIG-0.07  N 
ATOM     16 H3   ILE G   1      17.876  14.533 -35.457  1.00 42.16 LIG 0.28  HD
ATOM     17 H1   ILE G   1      17.437  13.645 -34.395  1.00 42.16 LIG 0.28  HD
ATOM     18 H2   ILE G   1      18.748  13.465 -34.995  1.00 42.16 LIG 0.28  HD
ENDBRANCH 10 15
ENDBRANCH 8 10
ENDBRANCH 5 6
BRANCH 5 19
ATOM     19  CB  GLU G   2      14.642   8.808 -36.785  1.00 31.40 LIG 0.04  C 
BRANCH 19 20
ATOM     20  CG  GLU G   2      13.289   9.384 -37.111  1.00 29.13 LIG 0.12  C 
BRANCH 20 21
ATOM     21  CD  GLU G   2      12.975   9.309 -38.578  1.00 32.73 LIG 0.17  C 
ATOM     22 OE2  GLU G   2      13.914   9.465 -39.384  1.00 36.24 LIG-0.65  OA
ATOM     23 OE1  GLU G   2      11.791   9.099 -38.924  1.00 30.62 LIG-0.65  OA
ENDBRANCH 20 21
ENDBRANCH 19 20
ENDBRANCH 5 19
ENDBRANCH 1 5
BRANCH 3 24
ATOM     24  CA  THR G   3      16.378   6.890 -33.197  1.00 22.88 LIG 0.20  C 
BRANCH 24 25
ATOM     25  C   THR G   3      17.627   7.530 -32.613  1.00 24.60 LIG 0.24  C 
ATOM     26  N   ASP G   4      18.784   7.036 -33.025  1.00 24.15 LIG-0.35  N 
ATOM     27 H    ASP G   4      18.861   6.392 -33.589  1.00 24.15 LIG 0.16  HD
ATOM     28 O    THR G   3      17.546   8.455 -31.809  1.00 25.42 LIG-0.27  OA
BRANCH 26 29
ATOM     29  CA  ASP G   4      20.049   7.566 -32.532  1.00 27.29 LIG 0.17  C 
BRANCH 29 30
ATOM     30  CB  ASP G   4      21.021   6.427 -32.240  1.00 26.38 LIG 0.15  C 
BRANCH 30 31
ATOM     31  CG  ASP G   4      21.891   6.722 -31.042  1.00 24.82 LIG 0.17  C 
ATOM     32 OD2  ASP G   4      23.031   7.207 -31.203  1.00 25.35 LIG-0.65  OA
ATOM     33 OD1  ASP G   4      21.416   6.465 -29.924  1.00 26.55 LIG-0.65  OA
ENDBRANCH 30 31
ENDBRANCH 29 30
BRANCH 29 34
ATOM     34  C   ASP G   4      20.668   8.603 -33.467  1.00 29.06 LIG 0.22  C 
ATOM     35 O    ASP G   4      20.892   8.340 -34.645  1.00 23.21 LIG-0.29  OA
ENDBRANCH 29 34
ENDBRANCH 26 29
ENDBRANCH 24 25
BRANCH 24 36
ATOM     36  CB  THR G   3      16.780   5.656 -34.016  1.00 24.93 LIG 0.15  C 
ATOM     37  CG2 THR G   3      16.912   4.441 -33.113  1.00 25.23 LIG 0.04  C 
BRANCH 36 38
ATOM     38 OG1  THR G   3      15.791   5.408 -35.021  1.00 25.78 LIG-0.39  OA
ATOM     39 HG1  THR G   3      16.071   4.818 -35.550  1.00 25.78 LIG 0.21  HD
ENDBRANCH 36 38
ENDBRANCH 24 36
ENDBRANCH 3 24
TORSDOF 17
ENDMDL
MODEL 13
USER: ADFR SOLUTION from run 155
USER: SCORE 15.545381 LL:  -2.239 LR: -13.515 RR:   0.000 FEB:  -8.444
USER: RMSD 2.480767
USER: SEED 154
USER: STATUS 1 or 2 clusters left
USER: GENES 19
USER: genes 0 Translation |==|  0.59250 0.44984 0.53272
USER: genes 1 Rotation |==|  0.19248 0.87802 0.60965 0.52250
USER: genes 2 Torsion [N]-C--CA-[N] |==|  0.93102
USER: genes 3 Torsion [C]-CA--N-[C] |==|  0.79125
USER: genes 4 Torsion [N]-C--CA-[N] |==|  0.35392
USER: genes 5 Torsion [C]-CA--CB-[CG2] |==|  0.18157
USER: genes 6 Torsion [CA]-CB--CG1-[CD1] |==|  0.23060
USER: genes 7 Torsion [C]-CA--N-[H3] |==|  0.81503
USER: genes 8 Torsion [C]-CA--CB-[CG] |==|  0.18682
USER: genes 9 Torsion [CA]-CB--CG-[CD] |==|  0.63836
USER: genes 10 Torsion [CB]-CG--CD-[OE2] |==|  0.79815
USER: genes 11 Torsion [C]-N--CA-[CB] |==|  0.87215
USER: genes 12 Torsion [N]-CA--C-[N] |==|  0.36902
USER: genes 13 Torsion [C]-N--CA-[C] |==|  0.82942
USER: genes 14 Torsion [N]-CA--CB-[CG] |==|  0.65952
USER: genes 15 Torsion [CA]-CB--CG-[OD1] |==|  0.06233
USER: genes 16 Torsion [N]-CA--C-[O] |==|  0.57291
USER: genes 17 Torsion [N]-CA--CB-[OG1] |==|  0.86944
USER: genes 18 Torsion [CA]-CB--OG1-[HG1] |==|  0.11871
ROOT
ATOM      1  C   GLU G   2      17.831   5.412 -35.433  1.00 25.53 LIG 0.24  C 
ATOM      2 O    GLU G   2      18.513   6.405 -35.213  1.00 27.72 LIG-0.27  OA
ATOM      3  N   THR G   3      16.514   5.390 -35.267  1.00 24.80 LIG-0.34  N 
ATOM      4 H    THR G   3      16.019   4.703 -35.420  1.00 24.80 LIG 0.16  HD
ENDROOT
BRANCH 1 5
ATOM      5  CA  GLU G   2      18.467   4.118 -35.916  1.00 28.49 LIG 0.18  C 
BRANCH 5 6
ATOM      6  N   GLU G   2      17.670   2.942 -35.578  1.00 29.38 LIG-0.35  N 
ATOM      7 H    GLU G   2      17.240   2.598 -36.239  1.00 29.38 LIG 0.16  HD
ATOM      8  C   ILE G   1      17.636   2.468 -34.336  1.00 32.49 LIG 0.25  C 
ATOM      9 O    ILE G   1      18.265   2.979 -33.414  1.00 35.08 LIG-0.27  OA
BRANCH 8 10
ATOM     10  CA  ILE G   1      16.755   1.246 -34.092  1.00 40.53 LIG 0.28  C 
BRANCH 10 11
ATOM     11  CB  ILE G   1      15.512   1.651 -33.269  1.00 45.86 LIG 0.02  C 
ATOM     12  CG2 ILE G   1      14.634   2.588 -34.049  1.00 44.63 LIG 0.01  C 
BRANCH 11 13
ATOM     13  CG1 ILE G   1      14.694   0.423 -32.867  1.00 53.07 LIG 0.00  C 
ATOM     14  CD1 ILE G   1      15.222  -0.267 -31.623  1.00 50.29 LIG 0.01  C 
ENDBRANCH 11 13
ENDBRANCH 10 11
BRANCH 10 15
ATOM     15  N   ILE G   1      17.514   0.192 -33.436  1.00 42.16 LIG-0.07  N 
ATOM     16 H3   ILE G   1      18.141  -0.111 -33.991  1.00 42.16 LIG 0.28  HD
ATOM     17 H1   ILE G   1      17.899   0.515 -32.703  1.00 42.16 LIG 0.28  HD
ATOM     18 H2   ILE G   1      16.967  -0.474 -33.215  1.00 42.16 LIG 0.28  HD
ENDBRANCH 10 15
ENDBRANCH 8 10
ENDBRANCH 5 6
BRANCH 5 19
ATOM     19  CB  GLU G   2      18.697   4.195 -37.420  1.00 31.40 LIG 0.04  C 
BRANCH 19 20
ATOM     20  CG  GLU G   2      19.738   5.212 -37.807  1.00 29.13 LIG 0.12  C 
BRANCH 20 21
ATOM     21  CD  GLU G   2      19.262   6.132 -38.896  1.00 32.73 LIG 0.17  C 
ATOM     22 OE2  GLU G   2      19.168   5.668 -40.050  1.00 36.24 LIG-0.65  OA
ATOM     23 OE1  GLU G   2      18.986   7.315 -38.598  1.00 30.62 LIG-0.65  OA
ENDBRANCH 20 21
ENDBRANCH 19 20
ENDBRANCH 5 19
ENDBRANCH 1 5
BRANCH 3 24
ATOM     24  CA  THR G   3      15.795   6.564 -34.801  1.00 22.88 LIG 0.20  C 
BRANCH 24 25
ATOM     25  C   THR G   3      15.657   7.586 -35.918  1.00 24.60 LIG 0.24  C 
ATOM     26  N   ASP G   4      14.451   8.106 -36.088  1.00 24.15 LIG-0.35  N 
ATOM     27 H    ASP G   4      13.765   7.901 -35.611  1.00 24.15 LIG 0.16  HD
ATOM     28 O    THR G   3      16.622   7.901 -36.609  1.00 25.42 LIG-0.27  OA
BRANCH 26 29
ATOM     29  CA  ASP G   4      14.196   9.093 -37.129  1.00 27.29 LIG 0.17  C 
BRANCH 29 30
ATOM     30  CB  ASP G   4      12.703   9.395 -37.215  1.00 26.38 LIG 0.15  C 
BRANCH 30 31
ATOM     31  CG  ASP G   4      12.154   9.128 -38.596  1.00 24.82 LIG 0.17  C 
ATOM     32 OD2  ASP G   4      11.105   9.694 -38.971  1.00 25.35 LIG-0.65  OA
ATOM     33 OD1  ASP G   4      12.791   8.340 -39.313  1.00 26.55 LIG-0.65  OA
ENDBRANCH 30 31
ENDBRANCH 29 30
BRANCH 29 34
ATOM     34  C   ASP G   4      15.014  10.371 -36.955  1.00 29.06 LIG 0.22  C 
ATOM     35 O    ASP G   4      14.619  11.442 -37.403  1.00 23.21 LIG-0.29  OA
ENDBRANCH 29 34
ENDBRANCH 26 29
ENDBRANCH 24 25
BRANCH 24 36
ATOM     36  CB  THR G   3      16.492   7.217 -33.602  1.00 24.93 LIG 0.15  C 
ATOM     37  CG2 THR G   3      15.581   8.247 -32.955  1.00 25.23 LIG 0.04  C 
BRANCH 36 38
ATOM     38 OG1  THR G   3      16.841   6.211 -32.645  1.00 25.78 LIG-0.39  OA
ATOM     39 HG1  THR G   3      17.154   5.541 -33.044  1.00 25.78 LIG 0.21  HD
ENDBRANCH 36 38
ENDBRANCH 24 36
ENDBRANCH 3 24
TORSDOF 17
ENDMDL
MODEL 14
USER: ADFR SOLUTION from run 184
USER: SCORE 15.015543 LL:  -2.554 LR: -13.506 RR:   0.000 FEB:  -8.435
USER: RMSD 7.977766
USER: SEED 183
USER: STATUS no improvement in best in 3 clusters for 5 generations
USER: GENES 19
USER: genes 0 Translation |==|  0.48115 0.53474 0.50193
USER: genes 1 Rotation |==|  0.15132 0.16306 0.60891 0.55508
USER: genes 2 Torsion [N]-C--CA-[N] |==|  0.82419
USER: genes 3 Torsion [C]-CA--N-[C] |==|  0.76273
USER: genes 4 Torsion [N]-C--CA-[N] |==|  0.65400
USER: genes 5 Torsion [C]-CA--CB-[CG2] |==|  0.21389
USER: genes 6 Torsion [CA]-CB--CG1-[CD1] |==|  0.83580
USER: genes 7 Torsion [C]-CA--N-[H3] |==|  0.21139
USER: genes 8 Torsion [C]-CA--CB-[CG] |==|  0.28580
USER: genes 9 Torsion [CA]-CB--CG-[CD] |==|  0.57951
USER: genes 10 Torsion [CB]-CG--CD-[OE2] |==|  0.48742
USER: genes 11 Torsion [C]-N--CA-[CB] |==|  0.51667
USER: genes 12 Torsion [N]-CA--C-[N] |==|  0.37599
USER: genes 13 Torsion [C]-N--CA-[C] |==|  0.16911
USER: genes 14 Torsion [N]-CA--CB-[CG] |==|  0.89933
USER: genes 15 Torsion [CA]-CB--CG-[OD1] |==|  0.83890
USER: genes 16 Torsion [N]-CA--C-[O] |==|  0.09496
USER: genes 17 Torsion [N]-CA--CB-[OG1] |==|  0.90711
USER: genes 18 Torsion [CA]-CB--OG1-[HG1] |==|  0.77757
ROOT
ATOM      1  C   GLU G   2      15.827   7.195 -35.895  1.00 25.53 LIG 0.24  C 
ATOM      2 O    GLU G   2      15.415   6.089 -35.564  1.00 27.72 LIG-0.27  OA
ATOM      3  N   THR G   3      16.930   7.368 -36.612  1.00 24.80 LIG-0.34  N 
ATOM      4 H    THR G   3      17.232   8.135 -36.856  1.00 24.80 LIG 0.16  HD
ENDROOT
BRANCH 1 5
ATOM      5  CA  GLU G   2      15.083   8.458 -35.494  1.00 28.49 LIG 0.18  C 
BRANCH 5 6
ATOM      6  N   GLU G   2      15.874   9.319 -34.618  1.00 29.38 LIG-0.35  N 
ATOM      7 H    GLU G   2      16.311   9.940 -35.024  1.00 29.38 LIG 0.16  HD
ATOM      8  C   ILE G   1      15.895   9.129 -33.302  1.00 32.49 LIG 0.25  C 
ATOM      9 O    ILE G   1      15.257   8.237 -32.751  1.00 35.08 LIG-0.27  OA
BRANCH 8 10
ATOM     10  CA  ILE G   1      16.771  10.076 -32.486  1.00 40.53 LIG 0.28  C 
BRANCH 10 11
ATOM     11  CB  ILE G   1      17.484  11.073 -33.427  1.00 45.86 LIG 0.02  C 
ATOM     12  CG2 ILE G   1      16.541  12.151 -33.879  1.00 44.63 LIG 0.01  C 
BRANCH 11 13
ATOM     13  CG1 ILE G   1      18.684  11.721 -32.735  1.00 53.07 LIG 0.00  C 
ATOM     14  CD1 ILE G   1      18.310  12.477 -31.474  1.00 50.29 LIG 0.01  C 
ENDBRANCH 11 13
ENDBRANCH 10 11
BRANCH 10 15
ATOM     15  N   ILE G   1      17.721   9.324 -31.680  1.00 42.16 LIG-0.07  N 
ATOM     16 H3   ILE G   1      18.379   9.024 -32.199  1.00 42.16 LIG 0.28  HD
ATOM     17 H1   ILE G   1      18.059   9.852 -31.049  1.00 42.16 LIG 0.28  HD
ATOM     18 H2   ILE G   1      17.306   8.635 -31.299  1.00 42.16 LIG 0.28  HD
ENDBRANCH 10 15
ENDBRANCH 8 10
ENDBRANCH 5 6
BRANCH 5 19
ATOM     19  CB  GLU G   2      14.653   9.215 -36.744  1.00 31.40 LIG 0.04  C 
BRANCH 19 20
ATOM     20  CG  GLU G   2      13.192   9.044 -37.064  1.00 29.13 LIG 0.12  C 
BRANCH 20 21
ATOM     21  CD  GLU G   2      12.910   9.165 -38.534  1.00 32.73 LIG 0.17  C 
ATOM     22 OE2  GLU G   2      11.744   8.954 -38.924  1.00 36.24 LIG-0.65  OA
ATOM     23 OE1  GLU G   2      13.853   9.465 -39.299  1.00 30.62 LIG-0.65  OA
ENDBRANCH 20 21
ENDBRANCH 19 20
ENDBRANCH 5 19
ENDBRANCH 1 5
BRANCH 3 24
ATOM     24  CA  THR G   3      17.731   6.235 -37.047  1.00 22.88 LIG 0.20  C 
BRANCH 24 25
ATOM     25  C   THR G   3      18.071   5.336 -35.870  1.00 24.60 LIG 0.24  C 
ATOM     26  N   ASP G   4      17.931   4.034 -36.070  1.00 24.15 LIG-0.35  N 
ATOM     27 H    ASP G   4      17.667   3.684 -36.810  1.00 24.15 LIG 0.16  HD
ATOM     28 O    THR G   3      18.455   5.808 -34.803  1.00 25.42 LIG-0.27  OA
BRANCH 26 29
ATOM     29  CA  ASP G   4      18.223   3.073 -35.014  1.00 27.29 LIG 0.17  C 
BRANCH 29 30
ATOM     30  CB  ASP G   4      19.706   3.116 -34.658  1.00 26.38 LIG 0.15  C 
BRANCH 30 31
ATOM     31  CG  ASP G   4      20.570   3.357 -35.872  1.00 24.82 LIG 0.17  C 
ATOM     32 OD2  ASP G   4      21.339   4.341 -35.905  1.00 25.35 LIG-0.65  OA
ATOM     33 OD1  ASP G   4      20.474   2.541 -36.803  1.00 26.55 LIG-0.65  OA
ENDBRANCH 30 31
ENDBRANCH 29 30
BRANCH 29 34
ATOM     34  C   ASP G   4      17.345   3.258 -33.778  1.00 29.06 LIG 0.22  C 
ATOM     35 O    ASP G   4      16.181   3.631 -33.877  1.00 23.21 LIG-0.29  OA
ENDBRANCH 29 34
ENDBRANCH 26 29
ENDBRANCH 24 25
BRANCH 24 36
ATOM     36  CB  THR G   3      19.028   6.686 -37.729  1.00 24.93 LIG 0.15  C 
ATOM     37  CG2 THR G   3      19.517   5.620 -38.696  1.00 25.23 LIG 0.04  C 
BRANCH 36 38
ATOM     38 OG1  THR G   3      18.796   7.910 -38.435  1.00 25.78 LIG-0.39  OA
ATOM     39 HG1  THR G   3      18.426   7.743 -39.171  1.00 25.78 LIG 0.21  HD
ENDBRANCH 36 38
ENDBRANCH 24 36
ENDBRANCH 3 24
TORSDOF 17
ENDMDL
MODEL 15
USER: ADFR SOLUTION from run 75
USER: SCORE 15.389533 LL:  -2.513 LR: -13.407 RR:   0.000 FEB:  -8.335
USER: RMSD 7.267489
USER: SEED 74
USER: STATUS no improvement in best in 2 clusters for 5 generations
USER: GENES 19
USER: genes 0 Translation |==|  0.48018 0.54199 0.51688
USER: genes 1 Rotation |==|  0.87633 0.79015 0.65394 0.52224
USER: genes 2 Torsion [N]-C--CA-[N] |==|  0.01096
USER: genes 3 Torsion [C]-CA--N-[C] |==|  0.78332
USER: genes 4 Torsion [N]-C--CA-[N] |==|  0.63275
USER: genes 5 Torsion [C]-CA--CB-[CG2] |==|  0.42906
USER: genes 6 Torsion [CA]-CB--CG1-[CD1] |==|  0.35857
USER: genes 7 Torsion [C]-CA--N-[H3] |==|  0.90815
USER: genes 8 Torsion [C]-CA--CB-[CG] |==|  0.28416
USER: genes 9 Torsion [CA]-CB--CG-[CD] |==|  0.56067
USER: genes 10 Torsion [CB]-CG--CD-[OE2] |==|  0.99751
USER: genes 11 Torsion [C]-N--CA-[CB] |==|  0.79949
USER: genes 12 Torsion [N]-CA--C-[N] |==|  0.26601
USER: genes 13 Torsion [C]-N--CA-[C] |==|  0.71244
USER: genes 14 Torsion [N]-CA--CB-[CG] |==|  0.95709
USER: genes 15 Torsion [CA]-CB--CG-[OD1] |==|  0.17514
USER: genes 16 Torsion [N]-CA--C-[O] |==|  0.99686
USER: genes 17 Torsion [N]-CA--CB-[OG1] |==|  0.14409
USER: genes 18 Torsion [CA]-CB--OG1-[HG1] |==|  0.13588
ROOT
ATOM      1  C   GLU G   2      15.809   7.347 -35.671  1.00 25.53 LIG 0.24  C 
ATOM      2 O    GLU G   2      15.305   6.474 -36.368  1.00 27.72 LIG-0.27  OA
ATOM      3  N   THR G   3      16.997   7.212 -35.094  1.00 24.80 LIG-0.34  N 
ATOM      4 H    THR G   3      17.368   7.815 -34.605  1.00 24.80 LIG 0.16  HD
ENDROOT
BRANCH 1 5
ATOM      5  CA  GLU G   2      15.087   8.660 -35.419  1.00 28.49 LIG 0.18  C 
BRANCH 5 6
ATOM      6  N   GLU G   2      15.889   9.600 -34.640  1.00 29.38 LIG-0.35  N 
ATOM      7 H    GLU G   2      16.259  10.225 -35.102  1.00 29.38 LIG 0.16  HD
ATOM      8  C   ILE G   1      16.016   9.469 -33.323  1.00 32.49 LIG 0.25  C 
ATOM      9 O    ILE G   1      15.472   8.569 -32.690  1.00 35.08 LIG-0.27  OA
BRANCH 8 10
ATOM     10  CA  ILE G   1      16.894  10.497 -32.613  1.00 40.53 LIG 0.28  C 
BRANCH 10 11
ATOM     11  CB  ILE G   1      17.630  11.368 -33.656  1.00 45.86 LIG 0.02  C 
ATOM     12  CG2 ILE G   1      17.982  12.710 -33.081  1.00 44.63 LIG 0.01  C 
BRANCH 11 13
ATOM     13  CG1 ILE G   1      18.910  10.684 -34.139  1.00 53.07 LIG 0.00  C 
ATOM     14  CD1 ILE G   1      19.018  10.619 -35.651  1.00 50.29 LIG 0.01  C 
ENDBRANCH 11 13
ENDBRANCH 10 11
BRANCH 10 15
ATOM     15  N   ILE G   1      17.826   9.835 -31.711  1.00 42.16 LIG-0.07  N 
ATOM     16 H3   ILE G   1      17.444   9.105 -31.375  1.00 42.16 LIG 0.28  HD
ATOM     17 H1   ILE G   1      18.560   9.607 -32.158  1.00 42.16 LIG 0.28  HD
ATOM     18 H2   ILE G   1      18.041  10.390 -31.049  1.00 42.16 LIG 0.28  HD
ENDBRANCH 10 15
ENDBRANCH 8 10
ENDBRANCH 5 6
BRANCH 5 19
ATOM     19  CB  GLU G   2      14.677   9.280 -36.749  1.00 31.40 LIG 0.04  C 
BRANCH 19 20
ATOM     20  CG  GLU G   2      13.217   9.087 -37.064  1.00 29.13 LIG 0.12  C 
BRANCH 20 21
ATOM     21  CD  GLU G   2      12.928   9.211 -38.533  1.00 32.73 LIG 0.17  C 
ATOM     22 OE2  GLU G   2      13.882   9.465 -39.296  1.00 36.24 LIG-0.65  OA
ATOM     23 OE1  GLU G   2      11.750   9.057 -38.924  1.00 30.62 LIG-0.65  OA
ENDBRANCH 20 21
ENDBRANCH 19 20
ENDBRANCH 5 19
ENDBRANCH 1 5
BRANCH 3 24
ATOM     24  CA  THR G   3      17.779   5.997 -35.256  1.00 22.88 LIG 0.20  C 
BRANCH 24 25
ATOM     25  C   THR G   3      17.879   5.616 -36.723  1.00 24.60 LIG 0.24  C 
ATOM     26  N   ASP G   4      18.968   6.021 -37.359  1.00 24.15 LIG-0.35  N 
ATOM     27 H    ASP G   4      19.601   6.473 -36.994  1.00 24.15 LIG 0.16  HD
ATOM     28 O    THR G   3      16.991   4.965 -37.269  1.00 25.42 LIG-0.27  OA
BRANCH 26 29
ATOM     29  CA  ASP G   4      19.173   5.718 -38.770  1.00 27.29 LIG 0.17  C 
BRANCH 29 30
ATOM     30  CB  ASP G   4      19.570   6.981 -39.528  1.00 26.38 LIG 0.15  C 
BRANCH 30 31
ATOM     31  CG  ASP G   4      19.284   8.230 -38.730  1.00 24.82 LIG 0.17  C 
ATOM     32 OD2  ASP G   4      18.455   9.065 -39.152  1.00 25.35 LIG-0.65  OA
ATOM     33 OD1  ASP G   4      19.900   8.370 -37.661  1.00 26.55 LIG-0.65  OA
ENDBRANCH 30 31
ENDBRANCH 29 30
BRANCH 29 34
ATOM     34  C   ASP G   4      20.177   4.590 -38.999  1.00 29.06 LIG 0.22  C 
ATOM     35 O    ASP G   4      20.742   4.043 -38.057  1.00 23.21 LIG-0.29  OA
ENDBRANCH 29 34
ENDBRANCH 26 29
ENDBRANCH 24 25
BRANCH 24 36
ATOM     36  CB  THR G   3      17.176   4.827 -34.469  1.00 24.93 LIG 0.15  C 
ATOM     37  CG2 THR G   3      17.329   5.057 -32.975  1.00 25.23 LIG 0.04  C 
BRANCH 36 38
ATOM     38 OG1  THR G   3      15.789   4.693 -34.799  1.00 25.78 LIG-0.39  OA
ATOM     39 HG1  THR G   3      15.698   4.699 -35.634  1.00 25.78 LIG 0.21  HD
ENDBRANCH 36 38
ENDBRANCH 24 36
ENDBRANCH 3 24
TORSDOF 17
ENDMDL
MODEL 16
USER: ADFR SOLUTION from run 71
USER: SCORE 14.146411 LL:  -2.513 LR: -13.375 RR:   0.000 FEB:  -8.304
USER: RMSD 9.579855
USER: SEED 70
USER: STATUS no improvement in best in 7 clusters for 5 generations
USER: GENES 19
USER: genes 0 Translation |==|  0.55504 0.70922 0.52401
USER: genes 1 Rotation |==|  0.43511 0.21225 0.10014 0.55567
USER: genes 2 Torsion [N]-C--CA-[N] |==|  0.35760
USER: genes 3 Torsion [C]-CA--N-[C] |==|  0.84735
USER: genes 4 Torsion [N]-C--CA-[N] |==|  0.39021
USER: genes 5 Torsion [C]-CA--CB-[CG2] |==|  0.67149
USER: genes 6 Torsion [CA]-CB--CG1-[CD1] |==|  0.64267
USER: genes 7 Torsion [C]-CA--N-[H3] |==|  0.47383
USER: genes 8 Torsion [C]-CA--CB-[CG] |==|  0.45383
USER: genes 9 Torsion [CA]-CB--CG-[CD] |==|  0.36887
USER: genes 10 Torsion [CB]-CG--CD-[OE2] |==|  0.41315
USER: genes 11 Torsion [C]-N--CA-[CB] |==|  0.34348
USER: genes 12 Torsion [N]-CA--C-[N] |==|  0.66154
USER: genes 13 Torsion [C]-N--CA-[C] |==|  0.76632
USER: genes 14 Torsion [N]-CA--CB-[CG] |==|  0.66959
USER: genes 15 Torsion [CA]-CB--CG-[OD1] |==|  0.31392
USER: genes 16 Torsion [N]-CA--C-[O] |==|  0.15674
USER: genes 17 Torsion [N]-CA--CB-[OG1] |==|  0.14832
USER: genes 18 Torsion [CA]-CB--OG1-[HG1] |==|  0.26921
ROOT
ATOM      1  C   GLU G   2      17.157  10.859 -35.564  1.00 25.53 LIG 0.24  C 
ATOM      2 O    GLU G   2      18.091  11.076 -36.326  1.00 27.72 LIG-0.27  OA
ATOM      3  N   THR G   3      17.326  10.549 -34.285  1.00 24.80 LIG-0.34  N 
ATOM      4 H    THR G   3      16.682  10.396 -33.735  1.00 24.80 LIG 0.16  HD
ENDROOT
BRANCH 1 5
ATOM      5  CA  GLU G   2      15.719  10.931 -36.051  1.00 28.49 LIG 0.18  C 
BRANCH 5 6
ATOM      6  N   GLU G   2      15.427  12.178 -36.753  1.00 29.38 LIG-0.35  N 
ATOM      7 H    GLU G   2      15.107  12.078 -37.545  1.00 29.38 LIG 0.16  HD
ATOM      8  C   ILE G   1      15.652  13.358 -36.181  1.00 32.49 LIG 0.25  C 
ATOM      9 O    ILE G   1      16.106  13.469 -35.046  1.00 35.08 LIG-0.27  OA
BRANCH 8 10
ATOM     10  CA  ILE G   1      15.329  14.596 -37.013  1.00 40.53 LIG 0.28  C 
BRANCH 10 11
ATOM     11  CB  ILE G   1      16.608  15.106 -37.713  1.00 45.86 LIG 0.02  C 
ATOM     12  CG2 ILE G   1      16.950  16.497 -37.257  1.00 44.63 LIG 0.01  C 
BRANCH 11 13
ATOM     13  CG1 ILE G   1      17.795  14.185 -37.429  1.00 53.07 LIG 0.00  C 
ATOM     14  CD1 ILE G   1      19.018  14.926 -36.921  1.00 50.29 LIG 0.01  C 
ENDBRANCH 11 13
ENDBRANCH 10 11
BRANCH 10 15
ATOM     15  N   ILE G   1      14.723  15.625 -36.182  1.00 42.16 LIG-0.07  N 
ATOM     16 H3   ILE G   1      14.666  16.384 -36.643  1.00 42.16 LIG 0.28  HD
ATOM     17 H1   ILE G   1      13.908  15.367 -35.935  1.00 42.16 LIG 0.28  HD
ATOM     18 H2   ILE G   1      15.225  15.755 -35.458  1.00 42.16 LIG 0.28  HD
ENDBRANCH 10 15
ENDBRANCH 8 10
ENDBRANCH 5 6
BRANCH 5 19
ATOM     19  CB  GLU G   2      15.423   9.732 -36.945  1.00 31.40 LIG 0.04  C 
BRANCH 19 20
ATOM     20  CG  GLU G   2      13.949   9.499 -37.149  1.00 29.13 LIG 0.12  C 
BRANCH 20 21
ATOM     21  CD  GLU G   2      13.601   9.273 -38.593  1.00 32.73 LIG 0.17  C 
ATOM     22 OE2  GLU G   2      12.638   8.523 -38.850  1.00 36.24 LIG-0.65  OA
ATOM     23 OE1  GLU G   2      14.291   9.840 -39.468  1.00 30.62 LIG-0.65  OA
ENDBRANCH 20 21
ENDBRANCH 19 20
ENDBRANCH 5 19
ENDBRANCH 1 5
BRANCH 3 24
ATOM     24  CA  THR G   3      18.655  10.442 -33.706  1.00 22.88 LIG 0.20  C 
BRANCH 24 25
ATOM     25  C   THR G   3      18.940   9.011 -33.280  1.00 24.60 LIG 0.24  C 
ATOM     26  N   ASP G   4      19.236   8.830 -32.001  1.00 24.15 LIG-0.35  N 
ATOM     27 H    ASP G   4      19.271   9.462 -31.420  1.00 24.15 LIG 0.16  HD
ATOM     28 O    THR G   3      18.891   8.088 -34.089  1.00 25.42 LIG-0.27  OA
BRANCH 26 29
ATOM     29  CA  ASP G   4      19.532   7.503 -31.477  1.00 27.29 LIG 0.17  C 
BRANCH 29 30
ATOM     30  CB  ASP G   4      20.496   7.604 -30.299  1.00 26.38 LIG 0.15  C 
BRANCH 30 31
ATOM     31  CG  ASP G   4      21.791   6.875 -30.567  1.00 24.82 LIG 0.17  C 
ATOM     32 OD2  ASP G   4      21.795   5.630 -30.674  1.00 25.35 LIG-0.65  OA
ATOM     33 OD1  ASP G   4      22.816   7.567 -30.674  1.00 26.55 LIG-0.65  OA
ENDBRANCH 30 31
ENDBRANCH 29 30
BRANCH 29 34
ATOM     34  C   ASP G   4      18.278   6.713 -31.106  1.00 29.06 LIG 0.22  C 
ATOM     35 O    ASP G   4      17.394   6.505 -31.930  1.00 23.21 LIG-0.29  OA
ENDBRANCH 29 34
ENDBRANCH 26 29
ENDBRANCH 24 25
BRANCH 24 36
ATOM     36  CB  THR G   3      18.824  11.371 -32.497  1.00 24.93 LIG 0.15  C 
ATOM     37  CG2 THR G   3      18.795  12.825 -32.938  1.00 25.23 LIG 0.04  C 
BRANCH 36 38
ATOM     38 OG1  THR G   3      17.771  11.130 -31.558  1.00 25.78 LIG-0.39  OA
ATOM     39 HG1  THR G   3      18.042  10.606 -30.960  1.00 25.78 LIG 0.21  HD
ENDBRANCH 36 38
ENDBRANCH 24 36
ENDBRANCH 3 24
TORSDOF 17
ENDMDL
MODEL 17
USER: ADFR SOLUTION from run 62
USER: SCORE 15.382029 LL:  -3.811 LR: -13.291 RR:   0.000 FEB:  -8.220
USER: RMSD 8.083622
USER: SEED 61
USER: STATUS no improvement in best in 4 clusters for 5 generations
USER: GENES 19
USER: genes 0 Translation |==|  0.49580 0.53445 0.52548
USER: genes 1 Rotation |==|  0.13157 0.16216 0.50058 0.51128
USER: genes 2 Torsion [N]-C--CA-[N] |==|  0.91533
USER: genes 3 Torsion [C]-CA--N-[C] |==|  0.83333
USER: genes 4 Torsion [N]-C--CA-[N] |==|  0.51212
USER: genes 5 Torsion [C]-CA--CB-[CG2] |==|  0.89460
USER: genes 6 Torsion [CA]-CB--CG1-[CD1] |==|  0.08506
USER: genes 7 Torsion [C]-CA--N-[H3] |==|  0.97775
USER: genes 8 Torsion [C]-CA--CB-[CG] |==|  0.22876
USER: genes 9 Torsion [CA]-CB--CG-[CD] |==|  0.52166
USER: genes 10 Torsion [CB]-CG--CD-[OE2] |==|  0.02166
USER: genes 11 Torsion [C]-N--CA-[CB] |==|  0.35409
USER: genes 12 Torsion [N]-CA--C-[N] |==|  0.07830
USER: genes 13 Torsion [C]-N--CA-[C] |==|  0.55083
USER: genes 14 Torsion [N]-CA--CB-[CG] |==|  0.53349
USER: genes 15 Torsion [CA]-CB--CG-[OD1] |==|  0.81795
USER: genes 16 Torsion [N]-CA--C-[O] |==|  0.84485
USER: genes 17 Torsion [N]-CA--CB-[OG1] |==|  0.98631
USER: genes 18 Torsion [CA]-CB--OG1-[HG1] |==|  0.80268
ROOT
ATOM      1  C   GLU G   2      16.090   7.188 -35.542  1.00 25.53 LIG 0.24  C 
ATOM      2 O    GLU G   2      15.550   6.091 -35.608  1.00 27.72 LIG-0.27  OA
ATOM      3  N   THR G   3      17.399   7.359 -35.687  1.00 24.80 LIG-0.34  N 
ATOM      4 H    THR G   3      17.794   8.121 -35.646  1.00 24.80 LIG 0.16  HD
ENDROOT
BRANCH 1 5
ATOM      5  CA  GLU G   2      15.276   8.445 -35.282  1.00 28.49 LIG 0.18  C 
BRANCH 5 6
ATOM      6  N   GLU G   2      16.032   9.462 -34.555  1.00 29.38 LIG-0.35  N 
ATOM      7 H    GLU G   2      16.121  10.209 -34.973  1.00 29.38 LIG 0.16  HD
ATOM      8  C   ILE G   1      16.529   9.217 -33.346  1.00 32.49 LIG 0.25  C 
ATOM      9 O    ILE G   1      16.382   8.141 -32.774  1.00 35.08 LIG-0.27  OA
BRANCH 8 10
ATOM     10  CA  ILE G   1      17.320  10.346 -32.689  1.00 40.53 LIG 0.28  C 
BRANCH 10 11
ATOM     11  CB  ILE G   1      18.412  10.855 -33.656  1.00 45.86 LIG 0.02  C 
ATOM     12  CG2 ILE G   1      19.019   9.717 -34.426  1.00 44.63 LIG 0.01  C 
BRANCH 11 13
ATOM     13  CG1 ILE G   1      17.841  11.874 -34.643  1.00 53.07 LIG 0.00  C 
ATOM     14  CD1 ILE G   1      16.692  12.682 -34.070  1.00 50.29 LIG 0.01  C 
ENDBRANCH 11 13
ENDBRANCH 10 11
BRANCH 10 15
ATOM     15  N   ILE G   1      17.886   9.902 -31.424  1.00 42.16 LIG-0.07  N 
ATOM     16 H3   ILE G   1      17.567   9.096 -31.222  1.00 42.16 LIG 0.28  HD
ATOM     17 H1   ILE G   1      18.772   9.859 -31.493  1.00 42.16 LIG 0.28  HD
ATOM     18 H2   ILE G   1      17.666  10.478 -30.782  1.00 42.16 LIG 0.28  HD
ENDBRANCH 10 15
ENDBRANCH 8 10
ENDBRANCH 5 6
BRANCH 5 19
ATOM     19  CB  GLU G   2      14.762   9.002 -36.603  1.00 31.40 LIG 0.04  C 
BRANCH 19 20
ATOM     20  CG  GLU G   2      13.509   8.318 -37.084  1.00 29.13 LIG 0.12  C 
BRANCH 20 21
ATOM     21  CD  GLU G   2      13.120   8.745 -38.471  1.00 32.73 LIG 0.17  C 
ATOM     22 OE2  GLU G   2      13.918   9.465 -39.104  1.00 36.24 LIG-0.65  OA
ATOM     23 OE1  GLU G   2      12.018   8.366 -38.924  1.00 30.62 LIG-0.65  OA
ENDBRANCH 20 21
ENDBRANCH 19 20
ENDBRANCH 5 19
ENDBRANCH 1 5
BRANCH 3 24
ATOM     24  CA  THR G   3      18.282   6.230 -35.931  1.00 22.88 LIG 0.20  C 
BRANCH 24 25
ATOM     25  C   THR G   3      19.166   5.970 -34.722  1.00 24.60 LIG 0.24  C 
ATOM     26  N   ASP G   4      18.667   6.323 -33.547  1.00 24.15 LIG-0.35  N 
ATOM     27 H    ASP G   4      17.892   6.679 -33.439  1.00 24.15 LIG 0.16  HD
ATOM     28 O    THR G   3      20.275   5.458 -34.848  1.00 25.42 LIG-0.27  OA
BRANCH 26 29
ATOM     29  CA  ASP G   4      19.423   6.127 -32.318  1.00 27.29 LIG 0.17  C 
BRANCH 29 30
ATOM     30  CB  ASP G   4      20.566   7.134 -32.235  1.00 26.38 LIG 0.15  C 
BRANCH 30 31
ATOM     31  CG  ASP G   4      21.543   6.786 -31.137  1.00 24.82 LIG 0.17  C 
ATOM     32 OD2  ASP G   4      22.716   6.465 -31.424  1.00 25.35 LIG-0.65  OA
ATOM     33 OD1  ASP G   4      21.123   6.841 -29.970  1.00 26.55 LIG-0.65  OA
ENDBRANCH 30 31
ENDBRANCH 29 30
BRANCH 29 34
ATOM     34  C   ASP G   4      18.550   6.169 -31.065  1.00 29.06 LIG 0.22  C 
ATOM     35 O    ASP G   4      17.838   7.138 -30.821  1.00 23.21 LIG-0.29  OA
ENDBRANCH 29 34
ENDBRANCH 26 29
ENDBRANCH 24 25
BRANCH 24 36
ATOM     36  CB  THR G   3      19.166   6.459 -37.163  1.00 24.93 LIG 0.15  C 
ATOM     37  CG2 THR G   3      19.021   5.305 -38.142  1.00 25.23 LIG 0.04  C 
BRANCH 36 38
ATOM     38 OG1  THR G   3      18.790   7.684 -37.801  1.00 25.78 LIG-0.39  OA
ATOM     39 HG1  THR G   3      18.041   7.590 -38.170  1.00 25.78 LIG 0.21  HD
ENDBRANCH 36 38
ENDBRANCH 24 36
ENDBRANCH 3 24
TORSDOF 17
ENDMDL
MODEL 18
USER: ADFR SOLUTION from run 64
USER: SCORE 14.654960 LL:  -2.368 LR: -13.237 RR:   0.000 FEB:  -8.166
USER: RMSD 8.212632
USER: SEED 63
USER: STATUS no improvement in best in 6 clusters for 5 generations
USER: GENES 19
USER: genes 0 Translation |==|  0.49093 0.64908 0.48334
USER: genes 1 Rotation |==|  0.64920 0.71420 0.91583 0.59456
USER: genes 2 Torsion [N]-C--CA-[N] |==|  0.32251
USER: genes 3 Torsion [C]-CA--N-[C] |==|  0.82582
USER: genes 4 Torsion [N]-C--CA-[N] |==|  0.38628
USER: genes 5 Torsion [C]-CA--CB-[CG2] |==|  0.86481
USER: genes 6 Torsion [CA]-CB--CG1-[CD1] |==|  0.70183
USER: genes 7 Torsion [C]-CA--N-[H3] |==|  0.89154
USER: genes 8 Torsion [C]-CA--CB-[CG] |==|  0.33113
USER: genes 9 Torsion [CA]-CB--CG-[CD] |==|  0.54268
USER: genes 10 Torsion [CB]-CG--CD-[OE2] |==|  0.60664
USER: genes 11 Torsion [C]-N--CA-[CB] |==|  0.50753
USER: genes 12 Torsion [N]-CA--C-[N] |==|  0.35556
USER: genes 13 Torsion [C]-N--CA-[C] |==|  0.76071
USER: genes 14 Torsion [N]-CA--CB-[CG] |==|  0.78392
USER: genes 15 Torsion [CA]-CB--CG-[OD1] |==|  0.65901
USER: genes 16 Torsion [N]-CA--C-[O] |==|  0.66825
USER: genes 17 Torsion [N]-CA--CB-[OG1] |==|  0.05354
USER: genes 18 Torsion [CA]-CB--OG1-[HG1] |==|  0.08238
ROOT
ATOM      1  C   GLU G   2      16.003   9.596 -36.174  1.00 25.53 LIG 0.24  C 
ATOM      2 O    GLU G   2      16.918   9.221 -36.897  1.00 27.72 LIG-0.27  OA
ATOM      3  N   THR G   3      15.788   9.094 -34.964  1.00 24.80 LIG-0.34  N 
ATOM      4 H    THR G   3      15.153   9.346 -34.442  1.00 24.80 LIG 0.16  HD
ENDROOT
BRANCH 1 5
ATOM      5  CA  GLU G   2      15.038  10.678 -36.631  1.00 28.49 LIG 0.18  C 
BRANCH 5 6
ATOM      6  N   GLU G   2      15.697  11.965 -36.835  1.00 29.38 LIG-0.35  N 
ATOM      7 H    GLU G   2      15.670  12.258 -37.644  1.00 29.38 LIG 0.16  HD
ATOM      8  C   ILE G   1      16.283  12.606 -35.827  1.00 32.49 LIG 0.25  C 
ATOM      9 O    ILE G   1      16.301  12.165 -34.682  1.00 35.08 LIG-0.27  OA
BRANCH 8 10
ATOM     10  CA  ILE G   1      16.958  13.935 -36.160  1.00 40.53 LIG 0.28  C 
BRANCH 10 11
ATOM     11  CB  ILE G   1      18.472  13.715 -36.372  1.00 45.86 LIG 0.02  C 
ATOM     12  CG2 ILE G   1      19.059  12.904 -35.252  1.00 44.63 LIG 0.01  C 
BRANCH 11 13
ATOM     13  CG1 ILE G   1      18.744  13.001 -37.697  1.00 53.07 LIG 0.00  C 
ATOM     14  CD1 ILE G   1      19.175  11.557 -37.520  1.00 50.29 LIG 0.01  C 
ENDBRANCH 11 13
ENDBRANCH 10 11
BRANCH 10 15
ATOM     15  N   ILE G   1      16.698  14.914 -35.115  1.00 42.16 LIG-0.07  N 
ATOM     16 H3   ILE G   1      15.858  14.829 -34.831  1.00 42.16 LIG 0.28  HD
ATOM     17 H1   ILE G   1      17.255  14.778 -34.435  1.00 42.16 LIG 0.28  HD
ATOM     18 H2   ILE G   1      16.821  15.733 -35.439  1.00 42.16 LIG 0.28  HD
ENDBRANCH 10 15
ENDBRANCH 8 10
ENDBRANCH 5 6
BRANCH 5 19
ATOM     19  CB  GLU G   2      14.335  10.228 -37.905  1.00 31.40 LIG 0.04  C 
BRANCH 19 20
ATOM     20  CG  GLU G   2      12.840  10.133 -37.751  1.00 29.13 LIG 0.12  C 
BRANCH 20 21
ATOM     21  CD  GLU G   2      12.199   9.352 -38.864  1.00 32.73 LIG 0.17  C 
ATOM     22 OE2  GLU G   2      11.100   9.752 -39.298  1.00 36.24 LIG-0.65  OA
ATOM     23 OE1  GLU G   2      12.791   8.341 -39.299  1.00 30.62 LIG-0.65  OA
ENDBRANCH 20 21
ENDBRANCH 19 20
ENDBRANCH 5 19
ENDBRANCH 1 5
BRANCH 3 24
ATOM     24  CA  THR G   3      16.640   8.048 -34.422  1.00 22.88 LIG 0.20  C 
BRANCH 24 25
ATOM     25  C   THR G   3      16.688   6.855 -35.362  1.00 24.60 LIG 0.24  C 
ATOM     26  N   ASP G   4      17.895   6.425 -35.698  1.00 24.15 LIG-0.35  N 
ATOM     27 H    ASP G   4      18.628   6.775 -35.418  1.00 24.15 LIG 0.16  HD
ATOM     28 O    THR G   3      15.656   6.331 -35.773  1.00 25.42 LIG-0.27  OA
BRANCH 26 29
ATOM     29  CA  ASP G   4      18.068   5.291 -36.597  1.00 27.29 LIG 0.17  C 
BRANCH 29 30
ATOM     30  CB  ASP G   4      19.343   5.457 -37.417  1.00 26.38 LIG 0.15  C 
BRANCH 30 31
ATOM     31  CG  ASP G   4      19.159   6.436 -38.552  1.00 24.82 LIG 0.17  C 
ATOM     32 OD2  ASP G   4      18.791   7.606 -38.314  1.00 25.35 LIG-0.65  OA
ATOM     33 OD1  ASP G   4      19.392   6.019 -39.699  1.00 26.55 LIG-0.65  OA
ENDBRANCH 30 31
ENDBRANCH 29 30
BRANCH 29 34
ATOM     34  C   ASP G   4      18.040   3.945 -35.874  1.00 29.06 LIG 0.22  C 
ATOM     35 O    ASP G   4      19.006   3.189 -35.906  1.00 23.21 LIG-0.29  OA
ENDBRANCH 29 34
ENDBRANCH 26 29
ENDBRANCH 24 25
BRANCH 24 36
ATOM     36  CB  THR G   3      16.158   7.583 -33.042  1.00 24.93 LIG 0.15  C 
ATOM     37  CG2 THR G   3      17.011   8.201 -31.946  1.00 25.23 LIG 0.04  C 
BRANCH 36 38
ATOM     38 OG1  THR G   3      14.789   7.963 -32.861  1.00 25.78 LIG-0.39  OA
ATOM     39 HG1  THR G   3      14.403   7.982 -33.606  1.00 25.78 LIG 0.21  HD
ENDBRANCH 36 38
ENDBRANCH 24 36
ENDBRANCH 3 24
TORSDOF 17
ENDMDL
MODEL 19
USER: ADFR SOLUTION from run 190
USER: SCORE 14.395871 LL:  -2.478 LR: -13.231 RR:   0.000 FEB:  -8.159
USER: RMSD 8.467184
USER: SEED 189
USER: STATUS searching
USER: GENES 19
USER: genes 0 Translation |==|  0.53171 0.64955 0.50473
USER: genes 1 Rotation |==|  0.50076 0.45146 0.00237 0.50304
USER: genes 2 Torsion [N]-C--CA-[N] |==|  0.47776
USER: genes 3 Torsion [C]-CA--N-[C] |==|  0.79800
USER: genes 4 Torsion [N]-C--CA-[N] |==|  0.60732
USER: genes 5 Torsion [C]-CA--CB-[CG2] |==|  0.38525
USER: genes 6 Torsion [CA]-CB--CG1-[CD1] |==|  0.23932
USER: genes 7 Torsion [C]-CA--N-[H3] |==|  0.13026
USER: genes 8 Torsion [C]-CA--CB-[CG] |==|  0.45511
USER: genes 9 Torsion [CA]-CB--CG-[CD] |==|  0.55144
USER: genes 10 Torsion [CB]-CG--CD-[OE2] |==|  0.96285
USER: genes 11 Torsion [C]-N--CA-[CB] |==|  0.51672
USER: genes 12 Torsion [N]-CA--C-[N] |==|  0.74837
USER: genes 13 Torsion [C]-N--CA-[C] |==|  0.81188
USER: genes 14 Torsion [N]-CA--CB-[CG] |==|  0.46328
USER: genes 15 Torsion [CA]-CB--CG-[OD1] |==|  0.78953
USER: genes 16 Torsion [N]-CA--C-[O] |==|  0.02220
USER: genes 17 Torsion [N]-CA--CB-[OG1] |==|  0.05673
USER: genes 18 Torsion [CA]-CB--OG1-[HG1] |==|  0.33411
ROOT
ATOM      1  C   GLU G   2      16.737   9.605 -35.853  1.00 25.53 LIG 0.24  C 
ATOM      2 O    GLU G   2      17.873  10.062 -35.888  1.00 27.72 LIG-0.27  OA
ATOM      3  N   THR G   3      16.473   8.354 -35.498  1.00 24.80 LIG-0.34  N 
ATOM      4 H    THR G   3      15.682   8.018 -35.464  1.00 24.80 LIG 0.16  HD
ENDROOT
BRANCH 1 5
ATOM      5  CA  GLU G   2      15.539  10.464 -36.225  1.00 28.49 LIG 0.18  C 
BRANCH 5 6
ATOM      6  N   GLU G   2      15.894  11.867 -36.421  1.00 29.38 LIG-0.35  N 
ATOM      7 H    GLU G   2      15.889  12.127 -37.241  1.00 29.38 LIG 0.16  HD
ATOM      8  C   ILE G   1      16.197  12.650 -35.389  1.00 32.49 LIG 0.25  C 
ATOM      9 O    ILE G   1      16.192  12.250 -34.229  1.00 35.08 LIG-0.27  OA
BRANCH 8 10
ATOM     10  CA  ILE G   1      16.573  14.094 -35.712  1.00 40.53 LIG 0.28  C 
BRANCH 10 11
ATOM     11  CB  ILE G   1      16.944  14.218 -37.207  1.00 45.86 LIG 0.02  C 
ATOM     12  CG2 ILE G   1      16.373  15.475 -37.799  1.00 44.63 LIG 0.01  C 
BRANCH 11 13
ATOM     13  CG1 ILE G   1      18.461  14.224 -37.398  1.00 53.07 LIG 0.00  C 
ATOM     14  CD1 ILE G   1      19.056  12.832 -37.498  1.00 50.29 LIG 0.01  C 
ENDBRANCH 11 13
ENDBRANCH 10 11
BRANCH 10 15
ATOM     15  N   ILE G   1      17.655  14.544 -34.850  1.00 42.16 LIG-0.07  N 
ATOM     16 H3   ILE G   1      18.294  13.925 -34.828  1.00 42.16 LIG 0.28  HD
ATOM     17 H1   ILE G   1      17.991  15.305 -35.167  1.00 42.16 LIG 0.28  HD
ATOM     18 H2   ILE G   1      17.342  14.679 -34.027  1.00 42.16 LIG 0.28  HD
ENDBRANCH 10 15
ENDBRANCH 8 10
ENDBRANCH 5 6
BRANCH 5 19
ATOM     19  CB  GLU G   2      14.876   9.900 -37.475  1.00 31.40 LIG 0.04  C 
BRANCH 19 20
ATOM     20  CG  GLU G   2      13.485  10.433 -37.697  1.00 29.13 LIG 0.12  C 
BRANCH 20 21
ATOM     21  CD  GLU G   2      12.687   9.574 -38.637  1.00 32.73 LIG 0.17  C 
ATOM     22 OE2  GLU G   2      13.299   8.715 -39.304  1.00 36.24 LIG-0.65  OA
ATOM     23 OE1  GLU G   2      11.452   9.759 -38.710  1.00 30.62 LIG-0.65  OA
ENDBRANCH 20 21
ENDBRANCH 19 20
ENDBRANCH 5 19
ENDBRANCH 1 5
BRANCH 3 24
ATOM     24  CA  THR G   3      17.537   7.436 -35.129  1.00 22.88 LIG 0.20  C 
BRANCH 24 25
ATOM     25  C   THR G   3      18.612   7.403 -36.203  1.00 24.60 LIG 0.24  C 
ATOM     26  N   ASP G   4      18.458   6.497 -37.156  1.00 24.15 LIG-0.35  N 
ATOM     27 H    ASP G   4      17.799   5.946 -37.197  1.00 24.15 LIG 0.16  HD
ATOM     28 O    THR G   3      19.561   8.183 -36.172  1.00 25.42 LIG-0.27  OA
BRANCH 26 29
ATOM     29  CA  ASP G   4      19.426   6.368 -38.237  1.00 27.29 LIG 0.17  C 
BRANCH 29 30
ATOM     30  CB  ASP G   4      19.196   5.066 -38.999  1.00 26.38 LIG 0.15  C 
BRANCH 30 31
ATOM     31  CG  ASP G   4      19.952   5.037 -40.306  1.00 24.82 LIG 0.17  C 
ATOM     32 OD2  ASP G   4      20.990   4.351 -40.412  1.00 25.35 LIG-0.65  OA
ATOM     33 OD1  ASP G   4      19.490   5.714 -41.238  1.00 26.55 LIG-0.65  OA
ENDBRANCH 30 31
ENDBRANCH 29 30
BRANCH 29 34
ATOM     34  C   ASP G   4      19.435   7.571 -39.179  1.00 29.06 LIG 0.22  C 
ATOM     35 O    ASP G   4      18.792   8.583 -38.920  1.00 23.21 LIG-0.29  OA
ENDBRANCH 29 34
ENDBRANCH 26 29
ENDBRANCH 24 25
BRANCH 24 36
ATOM     36  CB  THR G   3      17.007   6.015 -34.902  1.00 24.93 LIG 0.15  C 
ATOM     37  CG2 THR G   3      16.851   5.738 -33.415  1.00 25.23 LIG 0.04  C 
BRANCH 36 38
ATOM     38 OG1  THR G   3      15.743   5.866 -35.556  1.00 25.78 LIG-0.39  OA
ATOM     39 HG1  THR G   3      15.791   5.250 -36.125  1.00 25.78 LIG 0.21  HD
ENDBRANCH 36 38
ENDBRANCH 24 36
ENDBRANCH 3 24
TORSDOF 17
ENDMDL
MODEL 20
USER: ADFR SOLUTION from run 79
USER: SCORE 14.416638 LL:  -2.119 LR: -13.188 RR:   0.000 FEB:  -8.117
USER: RMSD 5.186997
USER: SEED 78
USER: STATUS no improvement in best in 10 clusters for 5 generations
USER: GENES 19
USER: genes 0 Translation |==|  0.46876 0.61578 0.48683
USER: genes 1 Rotation |==|  0.59569 0.19048 0.22644 0.76497
USER: genes 2 Torsion [N]-C--CA-[N] |==|  0.93937
USER: genes 3 Torsion [C]-CA--N-[C] |==|  0.74002
USER: genes 4 Torsion [N]-C--CA-[N] |==|  0.37986
USER: genes 5 Torsion [C]-CA--CB-[CG2] |==|  0.08164
USER: genes 6 Torsion [CA]-CB--CG1-[CD1] |==|  0.08709
USER: genes 7 Torsion [C]-CA--N-[H3] |==|  0.71366
USER: genes 8 Torsion [C]-CA--CB-[CG] |==|  0.06219
USER: genes 9 Torsion [CA]-CB--CG-[CD] |==|  0.28549
USER: genes 10 Torsion [CB]-CG--CD-[OE2] |==|  0.25299
USER: genes 11 Torsion [C]-N--CA-[CB] |==|  0.57312
USER: genes 12 Torsion [N]-CA--C-[N] |==|  0.80757
USER: genes 13 Torsion [C]-N--CA-[C] |==|  0.10244
USER: genes 14 Torsion [N]-CA--CB-[CG] |==|  0.83399
USER: genes 15 Torsion [CA]-CB--CG-[OD1] |==|  0.98590
USER: genes 16 Torsion [N]-CA--C-[O] |==|  0.56134
USER: genes 17 Torsion [N]-CA--CB-[OG1] |==|  0.86993
USER: genes 18 Torsion [CA]-CB--OG1-[HG1] |==|  0.52408
ROOT
ATOM      1  C   GLU G   2      15.604   8.896 -36.122  1.00 25.53 LIG 0.24  C 
ATOM      2 O    GLU G   2      15.827   9.708 -37.012  1.00 27.72 LIG-0.27  OA
ATOM      3  N   THR G   3      15.852   9.144 -34.841  1.00 24.80 LIG-0.34  N 
ATOM      4 H    THR G   3      15.699   8.588 -34.203  1.00 24.80 LIG 0.16  HD
ENDROOT
BRANCH 1 5
ATOM      5  CA  GLU G   2      15.020   7.530 -36.439  1.00 28.49 LIG 0.18  C 
BRANCH 5 6
ATOM      6  N   GLU G   2      15.292   6.548 -35.392  1.00 29.38 LIG-0.35  N 
ATOM      7 H    GLU G   2      14.720   6.540 -34.749  1.00 29.38 LIG 0.16  HD
ATOM      8  C   ILE G   1      16.350   5.745 -35.460  1.00 32.49 LIG 0.25  C 
ATOM      9 O    ILE G   1      17.147   5.776 -36.393  1.00 35.08 LIG-0.27  OA
BRANCH 8 10
ATOM     10  CA  ILE G   1      16.548   4.771 -34.301  1.00 40.53 LIG 0.28  C 
BRANCH 10 11
ATOM     11  CB  ILE G   1      17.602   5.330 -33.320  1.00 45.86 LIG 0.02  C 
ATOM     12  CG2 ILE G   1      17.604   6.832 -33.333  1.00 44.63 LIG 0.01  C 
BRANCH 11 13
ATOM     13  CG1 ILE G   1      17.338   4.846 -31.894  1.00 53.07 LIG 0.00  C 
ATOM     14  CD1 ILE G   1      16.703   3.469 -31.838  1.00 50.29 LIG 0.01  C 
ENDBRANCH 11 13
ENDBRANCH 10 11
BRANCH 10 15
ATOM     15  N   ILE G   1      16.920   3.455 -34.799  1.00 42.16 LIG-0.07  N 
ATOM     16 H3   ILE G   1      16.214   2.913 -34.762  1.00 42.16 LIG 0.28  HD
ATOM     17 H1   ILE G   1      17.197   3.523 -35.642  1.00 42.16 LIG 0.28  HD
ATOM     18 H2   ILE G   1      17.576   3.123 -34.297  1.00 42.16 LIG 0.28  HD
ENDBRANCH 10 15
ENDBRANCH 8 10
ENDBRANCH 5 6
BRANCH 5 19
ATOM     19  CB  GLU G   2      13.520   7.658 -36.675  1.00 31.40 LIG 0.04  C 
BRANCH 19 20
ATOM     20  CG  GLU G   2      13.102   9.051 -37.067  1.00 29.13 LIG 0.12  C 
BRANCH 20 21
ATOM     21  CD  GLU G   2      12.830   9.173 -38.540  1.00 32.73 LIG 0.17  C 
ATOM     22 OE2  GLU G   2      11.664   8.973 -38.936  1.00 36.24 LIG-0.65  OA
ATOM     23 OE1  GLU G   2      13.780   9.465 -39.299  1.00 30.62 LIG-0.65  OA
ENDBRANCH 20 21
ENDBRANCH 19 20
ENDBRANCH 5 19
ENDBRANCH 1 5
BRANCH 3 24
ATOM     24  CA  THR G   3      16.419  10.413 -34.416  1.00 22.88 LIG 0.20  C 
BRANCH 24 25
ATOM     25  C   THR G   3      17.338  10.975 -35.488  1.00 24.60 LIG 0.24  C 
ATOM     26  N   ASP G   4      18.472  10.320 -35.687  1.00 24.15 LIG-0.35  N 
ATOM     27 H    ASP G   4      18.704   9.615 -35.254  1.00 24.15 LIG 0.16  HD
ATOM     28 O    THR G   3      17.028  11.978 -36.125  1.00 25.42 LIG-0.27  OA
BRANCH 26 29
ATOM     29  CA  ASP G   4      19.435  10.766 -36.685  1.00 27.29 LIG 0.17  C 
BRANCH 29 30
ATOM     30  CB  ASP G   4      19.120  10.139 -38.040  1.00 26.38 LIG 0.15  C 
BRANCH 30 31
ATOM     31  CG  ASP G   4      19.166   8.631 -37.987  1.00 24.82 LIG 0.17  C 
ATOM     32 OD2  ASP G   4      18.842   7.961 -38.990  1.00 25.35 LIG-0.65  OA
ATOM     33 OD1  ASP G   4      19.538   8.116 -36.920  1.00 26.55 LIG-0.65  OA
ENDBRANCH 30 31
ENDBRANCH 29 30
BRANCH 29 34
ATOM     34  C   ASP G   4      19.534  12.287 -36.783  1.00 29.06 LIG 0.22  C 
ATOM     35 O    ASP G   4      19.963  12.830 -37.796  1.00 23.21 LIG-0.29  OA
ENDBRANCH 29 34
ENDBRANCH 26 29
ENDBRANCH 24 25
BRANCH 24 36
ATOM     36  CB  THR G   3      17.199  10.275 -33.104  1.00 24.93 LIG 0.15  C 
ATOM     37  CG2 THR G   3      17.520  11.645 -32.530  1.00 25.23 LIG 0.04  C 
BRANCH 36 38
ATOM     38 OG1  THR G   3      16.422   9.526 -32.162  1.00 25.78 LIG-0.39  OA
ATOM     39 HG1  THR G   3      16.794   9.550 -31.409  1.00 25.78 LIG 0.21  HD
ENDBRANCH 36 38
ENDBRANCH 24 36
ENDBRANCH 3 24
TORSDOF 17
ENDMDL
MODEL 21
USER: ADFR SOLUTION from run 94
USER: SCORE 14.632101 LL:  -2.726 LR: -13.166 RR:   0.000 FEB:  -8.095
USER: RMSD 5.898470
USER: SEED 93
USER: STATUS no improvement in best in 6 clusters for 5 generations
USER: GENES 19
USER: genes 0 Translation |==|  0.47855 0.64315 0.50707
USER: genes 1 Rotation |==|  0.67982 0.28099 0.20073 0.78307
USER: genes 2 Torsion [N]-C--CA-[N] |==|  0.91975
USER: genes 3 Torsion [C]-CA--N-[C] |==|  0.77546
USER: genes 4 Torsion [N]-C--CA-[N] |==|  0.08831
USER: genes 5 Torsion [C]-CA--CB-[CG2] |==|  0.49198
USER: genes 6 Torsion [CA]-CB--CG1-[CD1] |==|  0.33688
USER: genes 7 Torsion [C]-CA--N-[H3] |==|  0.03643
USER: genes 8 Torsion [C]-CA--CB-[CG] |==|  0.14717
USER: genes 9 Torsion [CA]-CB--CG-[CD] |==|  0.25266
USER: genes 10 Torsion [CB]-CG--CD-[OE2] |==|  0.30530
USER: genes 11 Torsion [C]-N--CA-[CB] |==|  0.51432
USER: genes 12 Torsion [N]-CA--C-[N] |==|  0.90545
USER: genes 13 Torsion [C]-N--CA-[C] |==|  0.67136
USER: genes 14 Torsion [N]-CA--CB-[CG] |==|  0.16122
USER: genes 15 Torsion [CA]-CB--CG-[OD1] |==|  0.01226
USER: genes 16 Torsion [N]-CA--C-[O] |==|  0.34507
USER: genes 17 Torsion [N]-CA--CB-[OG1] |==|  0.38781
USER: genes 18 Torsion [CA]-CB--OG1-[HG1] |==|  0.48563
ROOT
ATOM      1  C   GLU G   2      15.780   9.471 -35.818  1.00 25.53 LIG 0.24  C 
ATOM      2 O    GLU G   2      15.689  10.600 -36.286  1.00 27.72 LIG-0.27  OA
ATOM      3  N   THR G   3      16.121   9.239 -34.556  1.00 24.80 LIG-0.34  N 
ATOM      4 H    THR G   3      16.186   8.454 -34.210  1.00 24.80 LIG 0.16  HD
ENDROOT
BRANCH 1 5
ATOM      5  CA  GLU G   2      15.504   8.246 -36.674  1.00 28.49 LIG 0.18  C 
BRANCH 5 6
ATOM      6  N   GLU G   2      16.263   7.076 -36.239  1.00 29.38 LIG-0.35  N 
ATOM      7 H    GLU G   2      15.820   6.522 -35.751  1.00 29.38 LIG 0.16  HD
ATOM      8  C   ILE G   1      17.536   6.914 -36.587  1.00 32.49 LIG 0.25  C 
ATOM      9 O    ILE G   1      18.140   7.720 -37.288  1.00 35.08 LIG-0.27  OA
BRANCH 8 10
ATOM     10  CA  ILE G   1      18.237   5.664 -36.059  1.00 40.53 LIG 0.28  C 
BRANCH 10 11
ATOM     11  CB  ILE G   1      19.416   5.293 -36.986  1.00 45.86 LIG 0.02  C 
ATOM     12  CG2 ILE G   1      20.166   4.107 -36.450  1.00 44.63 LIG 0.01  C 
BRANCH 11 13
ATOM     13  CG1 ILE G   1      18.927   4.974 -38.399  1.00 53.07 LIG 0.00  C 
ATOM     14  CD1 ILE G   1      19.541   5.867 -39.460  1.00 50.29 LIG 0.01  C 
ENDBRANCH 11 13
ENDBRANCH 10 11
BRANCH 10 15
ATOM     15  N   ILE G   1      17.291   4.567 -35.927  1.00 42.16 LIG-0.07  N 
ATOM     16 H3   ILE G   1      16.536   4.772 -36.352  1.00 42.16 LIG 0.28  HD
ATOM     17 H1   ILE G   1      17.639   3.829 -36.282  1.00 42.16 LIG 0.28  HD
ATOM     18 H2   ILE G   1      17.118   4.427 -35.064  1.00 42.16 LIG 0.28  HD
ENDBRANCH 10 15
ENDBRANCH 8 10
ENDBRANCH 5 6
BRANCH 5 19
ATOM     19  CB  GLU G   2      14.010   7.947 -36.669  1.00 31.40 LIG 0.04  C 
BRANCH 19 20
ATOM     20  CG  GLU G   2      13.169   9.136 -37.054  1.00 29.13 LIG 0.12  C 
BRANCH 20 21
ATOM     21  CD  GLU G   2      12.903   9.194 -38.532  1.00 32.73 LIG 0.17  C 
ATOM     22 OE2  GLU G   2      11.741   8.966 -38.924  1.00 36.24 LIG-0.65  OA
ATOM     23 OE1  GLU G   2      13.854   9.462 -39.298  1.00 30.62 LIG-0.65  OA
ENDBRANCH 20 21
ENDBRANCH 19 20
ENDBRANCH 5 19
ENDBRANCH 1 5
BRANCH 3 24
ATOM     24  CA  THR G   3      16.417  10.331 -33.643  1.00 22.88 LIG 0.20  C 
BRANCH 24 25
ATOM     25  C   THR G   3      17.467  11.255 -34.237  1.00 24.60 LIG 0.24  C 
ATOM     26  N   ASP G   4      18.393  10.680 -34.990  1.00 24.15 LIG-0.35  N 
ATOM     27 H    ASP G   4      18.426   9.837 -35.155  1.00 24.15 LIG 0.16  HD
ATOM     28 O    THR G   3      17.440  12.464 -34.021  1.00 25.42 LIG-0.27  OA
BRANCH 26 29
ATOM     29  CA  ASP G   4      19.454  11.463 -35.609  1.00 27.29 LIG 0.17  C 
BRANCH 29 30
ATOM     30  CB  ASP G   4      20.812  11.045 -35.053  1.00 26.38 LIG 0.15  C 
BRANCH 30 31
ATOM     31  CG  ASP G   4      21.081   9.576 -35.271  1.00 24.82 LIG 0.17  C 
ATOM     32 OD2  ASP G   4      22.113   9.053 -34.799  1.00 25.35 LIG-0.65  OA
ATOM     33 OD1  ASP G   4      20.239   8.940 -35.925  1.00 26.55 LIG-0.65  OA
ENDBRANCH 30 31
ENDBRANCH 29 30
BRANCH 29 34
ATOM     34  C   ASP G   4      19.432  11.399 -37.135  1.00 29.06 LIG 0.22  C 
ATOM     35 O    ASP G   4      19.370  12.420 -37.812  1.00 23.21 LIG-0.29  OA
ENDBRANCH 29 34
ENDBRANCH 26 29
ENDBRANCH 24 25
BRANCH 24 36
ATOM     36  CB  THR G   3      16.907   9.816 -32.284  1.00 24.93 LIG 0.15  C 
ATOM     37  CG2 THR G   3      17.382   8.377 -32.401  1.00 25.23 LIG 0.04  C 
BRANCH 36 38
ATOM     38 OG1  THR G   3      17.979  10.643 -31.819  1.00 25.78 LIG-0.39  OA
ATOM     39 HG1  THR G   3      18.200  10.406 -31.044  1.00 25.78 LIG 0.21  HD
ENDBRANCH 36 38
ENDBRANCH 24 36
ENDBRANCH 3 24
TORSDOF 17
ENDMDL
MODEL 22
USER: ADFR SOLUTION from run 108
USER: SCORE 14.417508 LL:  -2.150 LR: -13.020 RR:   0.000 FEB:  -7.949
USER: RMSD 4.465748
USER: SEED 107
USER: STATUS no improvement in best in 6 clusters for 5 generations
USER: GENES 19
USER: genes 0 Translation |==|  0.54186 0.44151 0.65445
USER: genes 1 Rotation |==|  0.25057 0.28925 0.45872 0.87638
USER: genes 2 Torsion [N]-C--CA-[N] |==|  0.67991
USER: genes 3 Torsion [C]-CA--N-[C] |==|  0.70556
USER: genes 4 Torsion [N]-C--CA-[N] |==|  0.28670
USER: genes 5 Torsion [C]-CA--CB-[CG2] |==|  0.76044
USER: genes 6 Torsion [CA]-CB--CG1-[CD1] |==|  0.21460
USER: genes 7 Torsion [C]-CA--N-[H3] |==|  0.48312
USER: genes 8 Torsion [C]-CA--CB-[CG] |==|  0.59519
USER: genes 9 Torsion [CA]-CB--CG-[CD] |==|  0.40871
USER: genes 10 Torsion [CB]-CG--CD-[OE2] |==|  0.34134
USER: genes 11 Torsion [C]-N--CA-[CB] |==|  0.83961
USER: genes 12 Torsion [N]-CA--C-[N] |==|  0.37611
USER: genes 13 Torsion [C]-N--CA-[C] |==|  0.19692
USER: genes 14 Torsion [N]-CA--CB-[CG] |==|  0.63103
USER: genes 15 Torsion [CA]-CB--CG-[OD1] |==|  0.07212
USER: genes 16 Torsion [N]-CA--C-[O] |==|  0.08122
USER: genes 17 Torsion [N]-CA--CB-[OG1] |==|  0.97024
USER: genes 18 Torsion [CA]-CB--OG1-[HG1] |==|  0.32846
ROOT
ATOM      1  C   GLU G   2      16.920   5.237 -33.607  1.00 25.53 LIG 0.24  C 
ATOM      2 O    GLU G   2      15.932   4.723 -34.118  1.00 27.72 LIG-0.27  OA
ATOM      3  N   THR G   3      17.740   6.040 -34.272  1.00 24.80 LIG-0.34  N 
ATOM      4 H    THR G   3      18.436   6.411 -33.930  1.00 24.80 LIG 0.16  HD
ENDROOT
BRANCH 1 5
ATOM      5  CA  GLU G   2      17.271   4.976 -32.152  1.00 28.49 LIG 0.18  C 
BRANCH 5 6
ATOM      6  N   GLU G   2      17.610   3.578 -31.899  1.00 29.38 LIG-0.35  N 
ATOM      7 H    GLU G   2      18.382   3.337 -32.193  1.00 29.38 LIG 0.16  HD
ATOM      8  C   ILE G   1      16.767   2.770 -31.262  1.00 32.49 LIG 0.25  C 
ATOM      9 O    ILE G   1      15.673   3.144 -30.851  1.00 35.08 LIG-0.27  OA
BRANCH 8 10
ATOM     10  CA  ILE G   1      17.216   1.323 -31.071  1.00 40.53 LIG 0.28  C 
BRANCH 10 11
ATOM     11  CB  ILE G   1      16.071   0.362 -31.462  1.00 45.86 LIG 0.02  C 
ATOM     12  CG2 ILE G   1      15.148   0.128 -30.300  1.00 44.63 LIG 0.01  C 
BRANCH 11 13
ATOM     13  CG1 ILE G   1      15.262   0.917 -32.634  1.00 53.07 LIG 0.00  C 
ATOM     14  CD1 ILE G   1      15.958   0.748 -33.973  1.00 50.29 LIG 0.01  C 
ENDBRANCH 11 13
ENDBRANCH 10 11
BRANCH 10 15
ATOM     15  N   ILE G   1      17.659   1.104 -29.703  1.00 42.16 LIG-0.07  N 
ATOM     16 H3   ILE G   1      17.834   0.240 -29.582  1.00 42.16 LIG 0.28  HD
ATOM     17 H1   ILE G   1      18.396   1.579 -29.549  1.00 42.16 LIG 0.28  HD
ATOM     18 H2   ILE G   1      17.019   1.359 -29.139  1.00 42.16 LIG 0.28  HD
ENDBRANCH 10 15
ENDBRANCH 8 10
ENDBRANCH 5 6
BRANCH 5 19
ATOM     19  CB  GLU G   2      18.416   5.889 -31.732  1.00 31.40 LIG 0.04  C 
BRANCH 19 20
ATOM     20  CG  GLU G   2      19.349   5.246 -30.740  1.00 29.13 LIG 0.12  C 
BRANCH 20 21
ATOM     21  CD  GLU G   2      20.769   5.707 -30.908  1.00 32.73 LIG 0.17  C 
ATOM     22 OE2  GLU G   2      21.333   6.228 -29.924  1.00 36.24 LIG-0.65  OA
ATOM     23 OE1  GLU G   2      21.318   5.553 -32.021  1.00 30.62 LIG-0.65  OA
ENDBRANCH 20 21
ENDBRANCH 19 20
ENDBRANCH 5 19
ENDBRANCH 1 5
BRANCH 3 24
ATOM     24  CA  THR G   3      17.513   6.357 -35.673  1.00 22.88 LIG 0.20  C 
BRANCH 24 25
ATOM     25  C   THR G   3      16.213   7.126 -35.843  1.00 24.60 LIG 0.24  C 
ATOM     26  N   ASP G   4      16.257   8.176 -36.649  1.00 24.15 LIG-0.35  N 
ATOM     27 H    ASP G   4      16.962   8.434 -37.068  1.00 24.15 LIG 0.16  HD
ATOM     28 O    THR G   3      15.190   6.775 -35.261  1.00 25.42 LIG-0.27  OA
BRANCH 26 29
ATOM     29  CA  ASP G   4      15.075   8.993 -36.888  1.00 27.29 LIG 0.17  C 
BRANCH 29 30
ATOM     30  CB  ASP G   4      13.919   8.122 -37.370  1.00 26.38 LIG 0.15  C 
BRANCH 30 31
ATOM     31  CG  ASP G   4      13.232   8.715 -38.576  1.00 24.82 LIG 0.17  C 
ATOM     32 OD2  ASP G   4      12.034   8.446 -38.807  1.00 25.35 LIG-0.65  OA
ATOM     33 OD1  ASP G   4      13.909   9.465 -39.298  1.00 26.55 LIG-0.65  OA
ENDBRANCH 30 31
ENDBRANCH 29 30
BRANCH 29 34
ATOM     34  C   ASP G   4      14.674   9.833 -35.676  1.00 29.06 LIG 0.22  C 
ATOM     35 O    ASP G   4      15.511  10.220 -34.868  1.00 23.21 LIG-0.29  OA
ENDBRANCH 29 34
ENDBRANCH 26 29
ENDBRANCH 24 25
BRANCH 24 36
ATOM     36  CB  THR G   3      17.469   5.093 -36.540  1.00 24.93 LIG 0.15  C 
ATOM     37  CG2 THR G   3      18.355   5.258 -37.764  1.00 25.23 LIG 0.04  C 
BRANCH 36 38
ATOM     38 OG1  THR G   3      17.912   3.969 -35.771  1.00 25.78 LIG-0.39  OA
ATOM     39 HG1  THR G   3      17.290   3.408 -35.711  1.00 25.78 LIG 0.21  HD
ENDBRANCH 36 38
ENDBRANCH 24 36
ENDBRANCH 3 24
TORSDOF 17
ENDMDL
MODEL 23
USER: ADFR SOLUTION from run 78
USER: SCORE 14.746351 LL:  -2.497 LR: -13.019 RR:   0.000 FEB:  -7.948
USER: RMSD 7.085102
USER: SEED 77
USER: STATUS no improvement in best in 5 clusters for 5 generations
USER: GENES 19
USER: genes 0 Translation |==|  0.52098 0.67729 0.52303
USER: genes 1 Rotation |==|  0.64782 0.40583 0.16396 0.82612
USER: genes 2 Torsion [N]-C--CA-[N] |==|  0.01984
USER: genes 3 Torsion [C]-CA--N-[C] |==|  0.75612
USER: genes 4 Torsion [N]-C--CA-[N] |==|  0.14097
USER: genes 5 Torsion [C]-CA--CB-[CG2] |==|  0.45218
USER: genes 6 Torsion [CA]-CB--CG1-[CD1] |==|  0.32067
USER: genes 7 Torsion [C]-CA--N-[H3] |==|  0.70855
USER: genes 8 Torsion [C]-CA--CB-[CG] |==|  0.50020
USER: genes 9 Torsion [CA]-CB--CG-[CD] |==|  0.69902
USER: genes 10 Torsion [CB]-CG--CD-[OE2] |==|  0.14712
USER: genes 11 Torsion [C]-N--CA-[CB] |==|  0.23207
USER: genes 12 Torsion [N]-CA--C-[N] |==|  0.84412
USER: genes 13 Torsion [C]-N--CA-[C] |==|  0.81079
USER: genes 14 Torsion [N]-CA--CB-[CG] |==|  0.54065
USER: genes 15 Torsion [CA]-CB--CG-[OD1] |==|  0.83073
USER: genes 16 Torsion [N]-CA--C-[O] |==|  0.01378
USER: genes 17 Torsion [N]-CA--CB-[OG1] |==|  0.43932
USER: genes 18 Torsion [CA]-CB--OG1-[HG1] |==|  0.68045
ROOT
ATOM      1  C   GLU G   2      16.544  10.188 -35.579  1.00 25.53 LIG 0.24  C 
ATOM      2 O    GLU G   2      16.145  11.345 -35.650  1.00 27.72 LIG-0.27  OA
ATOM      3  N   THR G   3      17.471   9.797 -34.713  1.00 24.80 LIG-0.34  N 
ATOM      4 H    THR G   3      17.760   8.990 -34.647  1.00 24.80 LIG 0.16  HD
ENDROOT
BRANCH 1 5
ATOM      5  CA  GLU G   2      15.989   9.113 -36.498  1.00 28.49 LIG 0.18  C 
BRANCH 5 6
ATOM      6  N   GLU G   2      16.467   7.777 -36.150  1.00 29.38 LIG-0.35  N 
ATOM      7 H    GLU G   2      15.957   7.343 -35.608  1.00 29.38 LIG 0.16  HD
ATOM      8  C   ILE G   1      17.604   7.301 -36.649  1.00 32.49 LIG 0.25  C 
ATOM      9 O    ILE G   1      18.308   7.943 -37.423  1.00 35.08 LIG-0.27  OA
BRANCH 8 10
ATOM     10  CA  ILE G   1      18.017   5.901 -36.201  1.00 40.53 LIG 0.28  C 
BRANCH 10 11
ATOM     11  CB  ILE G   1      19.275   5.452 -36.976  1.00 45.86 LIG 0.02  C 
ATOM     12  CG2 ILE G   1      19.944   4.296 -36.289  1.00 44.63 LIG 0.01  C 
BRANCH 11 13
ATOM     13  CG1 ILE G   1      18.924   5.044 -38.407  1.00 53.07 LIG 0.00  C 
ATOM     14  CD1 ILE G   1      19.549   5.944 -39.456  1.00 50.29 LIG 0.01  C 
ENDBRANCH 11 13
ENDBRANCH 10 11
BRANCH 10 15
ATOM     15  N   ILE G   1      16.916   4.966 -36.374  1.00 42.16 LIG-0.07  N 
ATOM     16 H3   ILE G   1      16.557   4.779 -35.581  1.00 42.16 LIG 0.28  HD
ATOM     17 H1   ILE G   1      16.297   5.328 -36.901  1.00 42.16 LIG 0.28  HD
ATOM     18 H2   ILE G   1      17.220   4.216 -36.746  1.00 42.16 LIG 0.28  HD
ENDBRANCH 10 15
ENDBRANCH 8 10
ENDBRANCH 5 6
BRANCH 5 19
ATOM     19  CB  GLU G   2      14.466   9.159 -36.476  1.00 31.40 LIG 0.04  C 
BRANCH 19 20
ATOM     20  CG  GLU G   2      13.831   8.120 -37.362  1.00 29.13 LIG 0.12  C 
BRANCH 20 21
ATOM     21  CD  GLU G   2      13.205   8.721 -38.589  1.00 32.73 LIG 0.17  C 
ATOM     22 OE2  GLU G   2      13.911   9.465 -39.299  1.00 36.24 LIG-0.65  OA
ATOM     23 OE1  GLU G   2      12.010   8.453 -38.839  1.00 30.62 LIG-0.65  OA
ENDBRANCH 20 21
ENDBRANCH 19 20
ENDBRANCH 5 19
ENDBRANCH 1 5
BRANCH 3 24
ATOM     24  CA  THR G   3      18.082  10.738 -33.788  1.00 22.88 LIG 0.20  C 
BRANCH 24 25
ATOM     25  C   THR G   3      19.464  10.261 -33.375  1.00 24.60 LIG 0.24  C 
ATOM     26  N   ASP G   4      19.529   9.051 -32.839  1.00 24.15 LIG-0.35  N 
ATOM     27 H    ASP G   4      18.849   8.539 -32.720  1.00 24.15 LIG 0.16  HD
ATOM     28 O    THR G   3      20.454  10.970 -33.540  1.00 25.42 LIG-0.27  OA
BRANCH 26 29
ATOM     29  CA  ASP G   4      20.799   8.488 -32.401  1.00 27.29 LIG 0.17  C 
BRANCH 29 30
ATOM     30  CB  ASP G   4      20.559   7.257 -31.532  1.00 26.38 LIG 0.15  C 
BRANCH 30 31
ATOM     31  CG  ASP G   4      21.799   6.853 -30.773  1.00 24.82 LIG 0.17  C 
ATOM     32 OD2  ASP G   4      21.791   6.840 -29.523  1.00 25.35 LIG-0.65  OA
ATOM     33 OD1  ASP G   4      22.795   6.541 -31.446  1.00 26.55 LIG-0.65  OA
ENDBRANCH 30 31
ENDBRANCH 29 30
BRANCH 29 34
ATOM     34  C   ASP G   4      21.747   8.178 -33.558  1.00 29.06 LIG 0.22  C 
ATOM     35 O    ASP G   4      21.460   8.482 -34.711  1.00 23.21 LIG-0.29  OA
ENDBRANCH 29 34
ENDBRANCH 26 29
ENDBRANCH 24 25
BRANCH 24 36
ATOM     36  CB  THR G   3      17.222  10.940 -32.535  1.00 24.93 LIG 0.15  C 
ATOM     37  CG2 THR G   3      16.570   9.631 -32.121  1.00 25.23 LIG 0.04  C 
BRANCH 36 38
ATOM     38 OG1  THR G   3      18.041  11.431 -31.468  1.00 25.78 LIG-0.39  OA
ATOM     39 HG1  THR G   3      18.072  10.860 -30.853  1.00 25.78 LIG 0.21  HD
ENDBRANCH 36 38
ENDBRANCH 24 36
ENDBRANCH 3 24
TORSDOF 17
ENDMDL
MODEL 24
USER: ADFR SOLUTION from run 131
USER: SCORE 14.996595 LL:  -2.508 LR: -13.000 RR:   0.000 FEB:  -7.929
USER: RMSD 4.179152
USER: SEED 130
USER: STATUS no improvement in best in 5 clusters for 5 generations
USER: GENES 19
USER: genes 0 Translation |==|  0.50168 0.43192 0.61725
USER: genes 1 Rotation |==|  0.57778 0.28906 0.38711 0.93210
USER: genes 2 Torsion [N]-C--CA-[N] |==|  0.00999
USER: genes 3 Torsion [C]-CA--N-[C] |==|  0.78333
USER: genes 4 Torsion [N]-C--CA-[N] |==|  0.87631
USER: genes 5 Torsion [C]-CA--CB-[CG2] |==|  0.44175
USER: genes 6 Torsion [CA]-CB--CG1-[CD1] |==|  0.67509
USER: genes 7 Torsion [C]-CA--N-[H3] |==|  0.48499
USER: genes 8 Torsion [C]-CA--CB-[CG] |==|  0.74367
USER: genes 9 Torsion [CA]-CB--CG-[CD] |==|  0.63855
USER: genes 10 Torsion [CB]-CG--CD-[OE2] |==|  0.83682
USER: genes 11 Torsion [C]-N--CA-[CB] |==|  0.54722
USER: genes 12 Torsion [N]-CA--C-[N] |==|  0.36400
USER: genes 13 Torsion [C]-N--CA-[C] |==|  0.80477
USER: genes 14 Torsion [N]-CA--CB-[CG] |==|  0.56625
USER: genes 15 Torsion [CA]-CB--CG-[OD1] |==|  0.87773
USER: genes 16 Torsion [N]-CA--C-[O] |==|  0.19185
USER: genes 17 Torsion [N]-CA--CB-[OG1] |==|  0.93092
USER: genes 18 Torsion [CA]-CB--OG1-[HG1] |==|  0.39729
ROOT
ATOM      1  C   GLU G   2      16.196   5.035 -34.165  1.00 25.53 LIG 0.24  C 
ATOM      2 O    GLU G   2      15.424   5.252 -35.091  1.00 27.72 LIG-0.27  OA
ATOM      3  N   THR G   3      16.596   5.980 -33.323  1.00 24.80 LIG-0.34  N 
ATOM      4 H    THR G   3      17.135   5.845 -32.666  1.00 24.80 LIG 0.16  HD
ENDROOT
BRANCH 1 5
ATOM      5  CA  GLU G   2      16.755   3.642 -33.924  1.00 28.49 LIG 0.18  C 
BRANCH 5 6
ATOM      6  N   GLU G   2      17.591   3.573 -32.728  1.00 29.38 LIG-0.35  N 
ATOM      7 H    GLU G   2      17.207   3.224 -32.042  1.00 29.38 LIG 0.16  HD
ATOM      8  C   ILE G   1      18.842   4.025 -32.736  1.00 32.49 LIG 0.25  C 
ATOM      9 O    ILE G   1      19.364   4.515 -33.733  1.00 35.08 LIG-0.27  OA
BRANCH 8 10
ATOM     10  CA  ILE G   1      19.616   3.921 -31.424  1.00 40.53 LIG 0.28  C 
BRANCH 10 11
ATOM     11  CB  ILE G   1      20.129   2.477 -31.230  1.00 45.86 LIG 0.02  C 
ATOM     12  CG2 ILE G   1      21.281   2.442 -30.267  1.00 44.63 LIG 0.01  C 
BRANCH 11 13
ATOM     13  CG1 ILE G   1      19.019   1.563 -30.711  1.00 53.07 LIG 0.00  C 
ATOM     14  CD1 ILE G   1      19.311   0.990 -29.336  1.00 50.29 LIG 0.01  C 
ENDBRANCH 11 13
ENDBRANCH 10 11
BRANCH 10 15
ATOM     15  N   ILE G   1      18.788   4.352 -30.308  1.00 42.16 LIG-0.07  N 
ATOM     16 H3   ILE G   1      19.223   4.212 -29.544  1.00 42.16 LIG 0.28  HD
ATOM     17 H1   ILE G   1      18.605   5.218 -30.390  1.00 42.16 LIG 0.28  HD
ATOM     18 H2   ILE G   1      18.028   3.888 -30.306  1.00 42.16 LIG 0.28  HD
ENDBRANCH 10 15
ENDBRANCH 8 10
ENDBRANCH 5 6
BRANCH 5 19
ATOM     19  CB  GLU G   2      15.610   2.642 -33.836  1.00 31.40 LIG 0.04  C 
BRANCH 19 20
ATOM     20  CG  GLU G   2      15.128   2.421 -32.426  1.00 29.13 LIG 0.12  C 
BRANCH 20 21
ATOM     21  CD  GLU G   2      15.035   0.962 -32.076  1.00 32.73 LIG 0.17  C 
ATOM     22 OE2  GLU G   2      14.291   0.242 -32.772  1.00 36.24 LIG-0.65  OA
ATOM     23 OE1  GLU G   2      15.701   0.539 -31.106  1.00 30.62 LIG-0.65  OA
ENDBRANCH 20 21
ENDBRANCH 19 20
ENDBRANCH 5 19
ENDBRANCH 1 5
BRANCH 3 24
ATOM     24  CA  THR G   3      16.136   7.352 -33.458  1.00 22.88 LIG 0.20  C 
BRANCH 24 25
ATOM     25  C   THR G   3      16.111   7.768 -34.920  1.00 24.60 LIG 0.24  C 
ATOM     26  N   ASP G   4      14.996   8.344 -35.344  1.00 24.15 LIG-0.35  N 
ATOM     27 H    ASP G   4      14.310   8.491 -34.848  1.00 24.15 LIG 0.16  HD
ATOM     28 O    THR G   3      17.080   7.574 -35.649  1.00 25.42 LIG-0.27  OA
BRANCH 26 29
ATOM     29  CA  ASP G   4      14.853   8.782 -36.726  1.00 27.29 LIG 0.17  C 
BRANCH 29 30
ATOM     30  CB  ASP G   4      13.384   9.042 -37.048  1.00 26.38 LIG 0.15  C 
BRANCH 30 31
ATOM     31  CG  ASP G   4      13.103   8.929 -38.527  1.00 24.82 LIG 0.17  C 
ATOM     32 OD2  ASP G   4      12.088   8.319 -38.924  1.00 25.35 LIG-0.65  OA
ATOM     33 OD1  ASP G   4      13.916   9.465 -39.297  1.00 26.55 LIG-0.65  OA
ENDBRANCH 30 31
ENDBRANCH 29 30
BRANCH 29 34
ATOM     34  C   ASP G   4      15.721   9.992 -37.064  1.00 29.06 LIG 0.22  C 
ATOM     35 O    ASP G   4      16.944   9.899 -37.117  1.00 23.21 LIG-0.29  OA
ENDBRANCH 29 34
ENDBRANCH 26 29
ENDBRANCH 24 25
BRANCH 24 36
ATOM     36  CB  THR G   3      17.021   8.327 -32.671  1.00 24.93 LIG 0.15  C 
ATOM     37  CG2 THR G   3      16.188   9.470 -32.115  1.00 25.23 LIG 0.04  C 
BRANCH 36 38
ATOM     38 OG1  THR G   3      17.664   7.630 -31.599  1.00 25.78 LIG-0.39  OA
ATOM     39 HG1  THR G   3      18.443   7.926 -31.498  1.00 25.78 LIG 0.21  HD
ENDBRANCH 36 38
ENDBRANCH 24 36
ENDBRANCH 3 24
TORSDOF 17
ENDMDL
MODEL 25
USER: ADFR SOLUTION from run 22
USER: SCORE 15.584353 LL:  -2.991 LR: -12.985 RR:   0.000 FEB:  -7.914
USER: RMSD 7.873610
USER: SEED 21
USER: STATUS 1 or 2 clusters left
USER: GENES 19
USER: genes 0 Translation |==|  0.48966 0.52261 0.53338
USER: genes 1 Rotation |==|  0.87482 0.81774 0.58936 0.52384
USER: genes 2 Torsion [N]-C--CA-[N] |==|  0.96552
USER: genes 3 Torsion [C]-CA--N-[C] |==|  0.81648
USER: genes 4 Torsion [N]-C--CA-[N] |==|  0.64081
USER: genes 5 Torsion [C]-CA--CB-[CG2] |==|  0.43955
USER: genes 6 Torsion [CA]-CB--CG1-[CD1] |==|  0.33284
USER: genes 7 Torsion [C]-CA--N-[H3] |==|  0.82220
USER: genes 8 Torsion [C]-CA--CB-[CG] |==|  0.28325
USER: genes 9 Torsion [CA]-CB--CG-[CD] |==|  0.52523
USER: genes 10 Torsion [CB]-CG--CD-[OE2] |==|  0.47178
USER: genes 11 Torsion [C]-N--CA-[CB] |==|  0.19977
USER: genes 12 Torsion [N]-CA--C-[N] |==|  0.09788
USER: genes 13 Torsion [C]-N--CA-[C] |==|  0.62107
USER: genes 14 Torsion [N]-CA--CB-[CG] |==|  0.82834
USER: genes 15 Torsion [CA]-CB--CG-[OD1] |==|  0.72495
USER: genes 16 Torsion [N]-CA--C-[O] |==|  0.42208
USER: genes 17 Torsion [N]-CA--CB-[OG1] |==|  0.87384
USER: genes 18 Torsion [CA]-CB--OG1-[HG1] |==|  0.81790
ROOT
ATOM      1  C   GLU G   2      15.980   6.940 -35.423  1.00 25.53 LIG 0.24  C 
ATOM      2 O    GLU G   2      15.437   5.923 -35.837  1.00 27.72 LIG-0.27  OA
ATOM      3  N   THR G   3      17.261   6.984 -35.080  1.00 24.80 LIG-0.34  N 
ATOM      4 H    THR G   3      17.660   7.690 -34.790  1.00 24.80 LIG 0.16  HD
ENDROOT
BRANCH 1 5
ATOM      5  CA  GLU G   2      15.200   8.236 -35.273  1.00 28.49 LIG 0.18  C 
BRANCH 5 6
ATOM      6  N   GLU G   2      15.928   9.241 -34.503  1.00 29.38 LIG-0.35  N 
ATOM      7 H    GLU G   2      16.161   9.938 -34.951  1.00 29.38 LIG 0.16  HD
ATOM      8  C   ILE G   1      16.193   9.060 -33.212  1.00 32.49 LIG 0.25  C 
ATOM      9 O    ILE G   1      15.844   8.056 -32.598  1.00 35.08 LIG-0.27  OA
BRANCH 8 10
ATOM     10  CA  ILE G   1      16.977  10.167 -32.511  1.00 40.53 LIG 0.28  C 
BRANCH 10 11
ATOM     11  CB  ILE G   1      17.420  11.229 -33.541  1.00 45.86 LIG 0.02  C 
ATOM     12  CG2 ILE G   1      17.708  12.541 -32.868  1.00 44.63 LIG 0.01  C 
BRANCH 11 13
ATOM     13  CG1 ILE G   1      18.668  10.775 -34.298  1.00 53.07 LIG 0.00  C 
ATOM     14  CD1 ILE G   1      18.451  10.667 -35.796  1.00 50.29 LIG 0.01  C 
ENDBRANCH 11 13
ENDBRANCH 10 11
BRANCH 10 15
ATOM     15  N   ILE G   1      18.112   9.609 -31.791  1.00 42.16 LIG-0.07  N 
ATOM     16 H3   ILE G   1      17.819   9.075 -31.143  1.00 42.16 LIG 0.28  HD
ATOM     17 H1   ILE G   1      18.620   9.142 -32.353  1.00 42.16 LIG 0.28  HD
ATOM     18 H2   ILE G   1      18.592  10.270 -31.437  1.00 42.16 LIG 0.28  HD
ENDBRANCH 10 15
ENDBRANCH 8 10
ENDBRANCH 5 6
BRANCH 5 19
ATOM     19  CB  GLU G   2      14.839   8.776 -36.651  1.00 31.40 LIG 0.04  C 
BRANCH 19 20
ATOM     20  CG  GLU G   2      13.407   8.508 -37.033  1.00 29.13 LIG 0.12  C 
BRANCH 20 21
ATOM     21  CD  GLU G   2      13.125   8.848 -38.469  1.00 32.73 LIG 0.17  C 
ATOM     22 OE2  GLU G   2      12.031   8.488 -38.949  1.00 36.24 LIG-0.65  OA
ATOM     23 OE1  GLU G   2      13.996   9.469 -39.116  1.00 30.62 LIG-0.65  OA
ENDBRANCH 20 21
ENDBRANCH 19 20
ENDBRANCH 5 19
ENDBRANCH 1 5
BRANCH 3 24
ATOM     24  CA  THR G   3      18.106   5.805 -35.172  1.00 22.88 LIG 0.20  C 
BRANCH 24 25
ATOM     25  C   THR G   3      19.408   6.019 -34.417  1.00 24.60 LIG 0.24  C 
ATOM     26  N   ASP G   4      19.329   6.743 -33.310  1.00 24.15 LIG-0.35  N 
ATOM     27 H    ASP G   4      18.600   7.084 -33.007  1.00 24.15 LIG 0.16  HD
ATOM     28 O    THR G   3      20.462   5.537 -34.824  1.00 25.42 LIG-0.27  OA
BRANCH 26 29
ATOM     29  CA  ASP G   4      20.510   7.018 -32.504  1.00 27.29 LIG 0.17  C 
BRANCH 29 30
ATOM     30  CB  ASP G   4      21.064   8.401 -32.834  1.00 26.38 LIG 0.15  C 
BRANCH 30 31
ATOM     31  CG  ASP G   4      21.499   8.503 -34.276  1.00 24.82 LIG 0.17  C 
ATOM     32 OD2  ASP G   4      20.652   8.715 -35.170  1.00 25.35 LIG-0.65  OA
ATOM     33 OD1  ASP G   4      22.711   8.371 -34.510  1.00 26.55 LIG-0.65  OA
ENDBRANCH 30 31
ENDBRANCH 29 30
BRANCH 29 34
ATOM     34  C   ASP G   4      20.262   6.860 -31.005  1.00 29.06 LIG 0.22  C 
ATOM     35 O    ASP G   4      21.171   6.550 -30.241  1.00 23.21 LIG-0.29  OA
ENDBRANCH 29 34
ENDBRANCH 26 29
ENDBRANCH 24 25
BRANCH 24 36
ATOM     36  CB  THR G   3      18.422   5.446 -36.629  1.00 24.93 LIG 0.15  C 
ATOM     37  CG2 THR G   3      19.011   4.048 -36.715  1.00 25.23 LIG 0.04  C 
BRANCH 36 38
ATOM     38 OG1  THR G   3      17.222   5.514 -37.408  1.00 25.78 LIG-0.39  OA
ATOM     39 HG1  THR G   3      16.687   4.921 -37.152  1.00 25.78 LIG 0.21  HD
ENDBRANCH 36 38
ENDBRANCH 24 36
ENDBRANCH 3 24
TORSDOF 17
ENDMDL
MODEL 26
USER: ADFR SOLUTION from run 20
USER: SCORE 15.203871 LL:  -2.856 LR: -12.958 RR:   0.000 FEB:  -7.887
USER: RMSD 7.430845
USER: SEED 19
USER: STATUS no improvement in best in 8 clusters for 5 generations
USER: GENES 19
USER: genes 0 Translation |==|  0.48888 0.52300 0.50786
USER: genes 1 Rotation |==|  0.83244 0.79809 0.71346 0.57112
USER: genes 2 Torsion [N]-C--CA-[N] |==|  0.20542
USER: genes 3 Torsion [C]-CA--N-[C] |==|  0.72996
USER: genes 4 Torsion [N]-C--CA-[N] |==|  0.46554
USER: genes 5 Torsion [C]-CA--CB-[CG2] |==|  0.50522
USER: genes 6 Torsion [CA]-CB--CG1-[CD1] |==|  0.67934
USER: genes 7 Torsion [C]-CA--N-[H3] |==|  0.58317
USER: genes 8 Torsion [C]-CA--CB-[CG] |==|  0.53606
USER: genes 9 Torsion [CA]-CB--CG-[CD] |==|  0.35249
USER: genes 10 Torsion [CB]-CG--CD-[OE2] |==|  0.30595
USER: genes 11 Torsion [C]-N--CA-[CB] |==|  0.87212
USER: genes 12 Torsion [N]-CA--C-[N] |==|  0.88393
USER: genes 13 Torsion [C]-N--CA-[C] |==|  0.63859
USER: genes 14 Torsion [N]-CA--CB-[CG] |==|  0.47309
USER: genes 15 Torsion [CA]-CB--CG-[OD1] |==|  0.79147
USER: genes 16 Torsion [N]-CA--C-[O] |==|  0.05006
USER: genes 17 Torsion [N]-CA--CB-[OG1] |==|  0.93443
USER: genes 18 Torsion [CA]-CB--OG1-[HG1] |==|  0.38466
ROOT
ATOM      1  C   GLU G   2      15.966   6.948 -35.806  1.00 25.53 LIG 0.24  C 
ATOM      2 O    GLU G   2      15.792   6.029 -36.598  1.00 27.72 LIG-0.27  OA
ATOM      3  N   THR G   3      16.892   6.916 -34.857  1.00 24.80 LIG-0.34  N 
ATOM      4 H    THR G   3      17.031   7.552 -34.295  1.00 24.80 LIG 0.16  HD
ENDROOT
BRANCH 1 5
ATOM      5  CA  GLU G   2      15.110   8.203 -35.866  1.00 28.49 LIG 0.18  C 
BRANCH 5 6
ATOM      6  N   GLU G   2      15.834   9.349 -36.411  1.00 29.38 LIG-0.35  N 
ATOM      7 H    GLU G   2      15.859   9.382 -37.270  1.00 29.38 LIG 0.16  HD
ATOM      8  C   ILE G   1      16.397  10.250 -35.611  1.00 32.49 LIG 0.25  C 
ATOM      9 O    ILE G   1      16.341  10.178 -34.387  1.00 35.08 LIG-0.27  OA
BRANCH 8 10
ATOM     10  CA  ILE G   1      17.145  11.395 -36.289  1.00 40.53 LIG 0.28  C 
BRANCH 10 11
ATOM     11  CB  ILE G   1      18.421  10.857 -36.973  1.00 45.86 LIG 0.02  C 
ATOM     12  CG2 ILE G   1      19.200  11.972 -37.610  1.00 44.63 LIG 0.01  C 
BRANCH 11 13
ATOM     13  CG1 ILE G   1      19.320  10.134 -35.970  1.00 53.07 LIG 0.00  C 
ATOM     14  CD1 ILE G   1      20.658  10.820 -35.763  1.00 50.29 LIG 0.01  C 
ENDBRANCH 11 13
ENDBRANCH 10 11
BRANCH 10 15
ATOM     15  N   ILE G   1      17.452  12.444 -35.327  1.00 42.16 LIG-0.07  N 
ATOM     16 H3   ILE G   1      17.473  13.231 -35.743  1.00 42.16 LIG 0.28  HD
ATOM     17 H1   ILE G   1      16.826  12.460 -34.695  1.00 42.16 LIG 0.28  HD
ATOM     18 H2   ILE G   1      18.245  12.283 -34.956  1.00 42.16 LIG 0.28  HD
ENDBRANCH 10 15
ENDBRANCH 8 10
ENDBRANCH 5 6
BRANCH 5 19
ATOM     19  CB  GLU G   2      13.854   7.925 -36.682  1.00 31.40 LIG 0.04  C 
BRANCH 19 20
ATOM     20  CG  GLU G   2      13.105   9.177 -37.056  1.00 29.13 LIG 0.12  C 
BRANCH 20 21
ATOM     21  CD  GLU G   2      12.843   9.267 -38.533  1.00 32.73 LIG 0.17  C 
ATOM     22 OE2  GLU G   2      11.666   9.135 -38.925  1.00 36.24 LIG-0.65  OA
ATOM     23 OE1  GLU G   2      13.811   9.465 -39.299  1.00 30.62 LIG-0.65  OA
ENDBRANCH 20 21
ENDBRANCH 19 20
ENDBRANCH 5 19
ENDBRANCH 1 5
BRANCH 3 24
ATOM     24  CA  THR G   3      17.766   5.765 -34.696  1.00 22.88 LIG 0.20  C 
BRANCH 24 25
ATOM     25  C   THR G   3      18.839   5.753 -35.771  1.00 24.60 LIG 0.24  C 
ATOM     26  N   ASP G   4      18.443   6.069 -36.995  1.00 24.15 LIG-0.35  N 
ATOM     27 H    ASP G   4      17.636   6.276 -37.203  1.00 24.15 LIG 0.16  HD
ATOM     28 O    THR G   3      20.003   5.466 -35.501  1.00 25.42 LIG-0.27  OA
BRANCH 26 29
ATOM     29  CA  ASP G   4      19.382   6.088 -38.110  1.00 27.29 LIG 0.17  C 
BRANCH 29 30
ATOM     30  CB  ASP G   4      19.182   4.857 -38.989  1.00 26.38 LIG 0.15  C 
BRANCH 30 31
ATOM     31  CG  ASP G   4      19.966   4.951 -40.276  1.00 24.82 LIG 0.17  C 
ATOM     32 OD2  ASP G   4      21.006   4.275 -40.424  1.00 25.35 LIG-0.65  OA
ATOM     33 OD1  ASP G   4      19.524   5.715 -41.149  1.00 26.55 LIG-0.65  OA
ENDBRANCH 30 31
ENDBRANCH 29 30
BRANCH 29 34
ATOM     34  C   ASP G   4      19.313   7.376 -38.928  1.00 29.06 LIG 0.22  C 
ATOM     35 O    ASP G   4      18.791   8.389 -38.473  1.00 23.21 LIG-0.29  OA
ENDBRANCH 29 34
ENDBRANCH 26 29
ENDBRANCH 24 25
BRANCH 24 36
ATOM     36  CB  THR G   3      16.983   4.447 -34.748  1.00 24.93 LIG 0.15  C 
ATOM     37  CG2 THR G   3      17.589   3.431 -33.794  1.00 25.23 LIG 0.04  C 
BRANCH 36 38
ATOM     38 OG1  THR G   3      15.617   4.689 -34.394  1.00 25.78 LIG-0.39  OA
ATOM     39 HG1  THR G   3      15.113   4.249 -34.902  1.00 25.78 LIG 0.21  HD
ENDBRANCH 36 38
ENDBRANCH 24 36
ENDBRANCH 3 24
TORSDOF 17
ENDMDL
MODEL 27
USER: ADFR SOLUTION from run 9
USER: SCORE 13.875000 LL:  -2.051 LR: -12.940 RR:   0.000 FEB:  -7.869
USER: RMSD 7.275459
USER: SEED 606475
USER: STATUS no improvement in best in 5 clusters for 5 generations
USER: GENES 19
USER: genes 0 Translation |==|  0.66306 0.60356 0.62055
USER: genes 1 Rotation |==|  0.71519 0.28670 0.82150 0.73417
USER: genes 2 Torsion [N]-C--CA-[N] |==|  0.89831
USER: genes 3 Torsion [C]-CA--N-[C] |==|  0.85000
USER: genes 4 Torsion [N]-C--CA-[N] |==|  0.05287
USER: genes 5 Torsion [C]-CA--CB-[CG2] |==|  0.90059
USER: genes 6 Torsion [CA]-CB--CG1-[CD1] |==|  0.49000
USER: genes 7 Torsion [C]-CA--N-[H3] |==|  0.76186
USER: genes 8 Torsion [C]-CA--CB-[CG] |==|  0.42873
USER: genes 9 Torsion [CA]-CB--CG-[CD] |==|  0.56141
USER: genes 10 Torsion [CB]-CG--CD-[OE2] |==|  0.78788
USER: genes 11 Torsion [C]-N--CA-[CB] |==|  0.27044
USER: genes 12 Torsion [N]-CA--C-[N] |==|  0.41577
USER: genes 13 Torsion [C]-N--CA-[C] |==|  0.66240
USER: genes 14 Torsion [N]-CA--CB-[CG] |==|  0.29546
USER: genes 15 Torsion [CA]-CB--CG-[OD1] |==|  0.77681
USER: genes 16 Torsion [N]-CA--C-[O] |==|  0.44260
USER: genes 17 Torsion [N]-CA--CB-[OG1] |==|  0.44175
USER: genes 18 Torsion [CA]-CB--OG1-[HG1] |==|  0.52143
ROOT
ATOM      1  C   GLU G   2      19.101   8.640 -34.116  1.00 25.53 LIG 0.24  C 
ATOM      2 O    GLU G   2      19.754   8.412 -35.127  1.00 27.72 LIG-0.27  OA
ATOM      3  N   THR G   3      17.811   8.347 -34.009  1.00 24.80 LIG-0.34  N 
ATOM      4 H    THR G   3      17.338   8.497 -33.307  1.00 24.80 LIG 0.16  HD
ENDROOT
BRANCH 1 5
ATOM      5  CA  GLU G   2      19.744   9.287 -32.900  1.00 28.49 LIG 0.18  C 
BRANCH 5 6
ATOM      6  N   GLU G   2      18.845  10.213 -32.217  1.00 29.38 LIG-0.35  N 
ATOM      7 H    GLU G   2      18.740  10.059 -31.377  1.00 29.38 LIG 0.16  HD
ATOM      8  C   ILE G   1      18.251  11.206 -32.874  1.00 32.49 LIG 0.25  C 
ATOM      9 O    ILE G   1      18.423  11.403 -34.073  1.00 35.08 LIG-0.27  OA
BRANCH 8 10
ATOM     10  CA  ILE G   1      17.315  12.101 -32.065  1.00 40.53 LIG 0.28  C 
BRANCH 10 11
ATOM     11  CB  ILE G   1      17.447  13.564 -32.541  1.00 45.86 LIG 0.02  C 
ATOM     12  CG2 ILE G   1      18.865  13.878 -32.925  1.00 44.63 LIG 0.01  C 
BRANCH 11 13
ATOM     13  CG1 ILE G   1      16.536  13.837 -33.739  1.00 53.07 LIG 0.00  C 
ATOM     14  CD1 ILE G   1      16.563  15.285 -34.192  1.00 50.29 LIG 0.01  C 
ENDBRANCH 11 13
ENDBRANCH 10 11
BRANCH 10 15
ATOM     15  N   ILE G   1      17.591  11.971 -30.642  1.00 42.16 LIG-0.07  N 
ATOM     16 H3   ILE G   1      17.139  11.279 -30.313  1.00 42.16 LIG 0.28  HD
ATOM     17 H1   ILE G   1      18.463  11.840 -30.519  1.00 42.16 LIG 0.28  HD
ATOM     18 H2   ILE G   1      17.341  12.716 -30.222  1.00 42.16 LIG 0.28  HD
ENDBRANCH 10 15
ENDBRANCH 8 10
ENDBRANCH 5 6
BRANCH 5 19
ATOM     19  CB  GLU G   2      20.226   8.205 -31.942  1.00 31.40 LIG 0.04  C 
BRANCH 19 20
ATOM     20  CG  GLU G   2      21.366   8.657 -31.067  1.00 29.13 LIG 0.12  C 
BRANCH 20 21
ATOM     21  CD  GLU G   2      22.168   7.505 -30.533  1.00 32.73 LIG 0.17  C 
ATOM     22 OE2  GLU G   2      21.684   6.844 -29.592  1.00 36.24 LIG-0.65  OA
ATOM     23 OE1  GLU G   2      23.281   7.264 -31.049  1.00 30.62 LIG-0.65  OA
ENDBRANCH 20 21
ENDBRANCH 19 20
ENDBRANCH 5 19
ENDBRANCH 1 5
BRANCH 3 24
ATOM     24  CA  THR G   3      17.085   7.734 -35.109  1.00 22.88 LIG 0.20  C 
BRANCH 24 25
ATOM     25  C   THR G   3      15.688   8.322 -35.223  1.00 24.60 LIG 0.24  C 
ATOM     26  N   ASP G   4      15.167   8.357 -36.440  1.00 24.15 LIG-0.35  N 
ATOM     27 H    ASP G   4      15.566   8.072 -37.145  1.00 24.15 LIG 0.16  HD
ATOM     28 O    THR G   3      15.092   8.732 -34.230  1.00 25.42 LIG-0.27  OA
BRANCH 26 29
ATOM     29  CA  ASP G   4      13.835   8.902 -36.674  1.00 27.29 LIG 0.17  C 
BRANCH 29 30
ATOM     30  CB  ASP G   4      13.927  10.186 -37.493  1.00 26.38 LIG 0.15  C 
BRANCH 30 31
ATOM     31  CG  ASP G   4      13.474   9.977 -38.918  1.00 24.82 LIG 0.17  C 
ATOM     32 OD2  ASP G   4      12.323  10.319 -39.264  1.00 25.35 LIG-0.65  OA
ATOM     33 OD1  ASP G   4      14.291   9.465 -39.700  1.00 26.55 LIG-0.65  OA
ENDBRANCH 30 31
ENDBRANCH 29 30
BRANCH 29 34
ATOM     34  C   ASP G   4      12.882   7.896 -37.317  1.00 29.06 LIG 0.22  C 
ATOM     35 O    ASP G   4      11.666   8.039 -37.243  1.00 23.21 LIG-0.29  OA
ENDBRANCH 29 34
ENDBRANCH 26 29
ENDBRANCH 24 25
BRANCH 24 36
ATOM     36  CB  THR G   3      16.981   6.213 -34.942  1.00 24.93 LIG 0.15  C 
ATOM     37  CG2 THR G   3      16.764   5.854 -33.481  1.00 25.23 LIG 0.04  C 
BRANCH 36 38
ATOM     38 OG1  THR G   3      15.891   5.719 -35.728  1.00 25.78 LIG-0.39  OA
ATOM     39 HG1  THR G   3      15.766   4.906 -35.556  1.00 25.78 LIG 0.21  HD
ENDBRANCH 36 38
ENDBRANCH 24 36
ENDBRANCH 3 24
TORSDOF 17
ENDMDL
MODEL 28
USER: ADFR SOLUTION from run 124
USER: SCORE 15.130556 LL:  -2.448 LR: -12.893 RR:   0.000 FEB:  -7.822
USER: RMSD 9.305772
USER: SEED 123
USER: STATUS no improvement in best in 4 clusters for 5 generations
USER: GENES 19
USER: genes 0 Translation |==|  0.53285 0.56738 0.48515
USER: genes 1 Rotation |==|  0.34715 0.38609 0.03777 0.50196
USER: genes 2 Torsion [N]-C--CA-[N] |==|  0.44989
USER: genes 3 Torsion [C]-CA--N-[C] |==|  0.72222
USER: genes 4 Torsion [N]-C--CA-[N] |==|  0.18286
USER: genes 5 Torsion [C]-CA--CB-[CG2] |==|  0.45244
USER: genes 6 Torsion [CA]-CB--CG1-[CD1] |==|  0.68177
USER: genes 7 Torsion [C]-CA--N-[H3] |==|  0.88572
USER: genes 8 Torsion [C]-CA--CB-[CG] |==|  0.56378
USER: genes 9 Torsion [CA]-CB--CG-[CD] |==|  0.33440
USER: genes 10 Torsion [CB]-CG--CD-[OE2] |==|  0.81993
USER: genes 11 Torsion [C]-N--CA-[CB] |==|  0.86653
USER: genes 12 Torsion [N]-CA--C-[N] |==|  0.35600
USER: genes 13 Torsion [C]-N--CA-[C] |==|  0.74017
USER: genes 14 Torsion [N]-CA--CB-[CG] |==|  0.54881
USER: genes 15 Torsion [CA]-CB--CG-[OD1] |==|  0.89985
USER: genes 16 Torsion [N]-CA--C-[O] |==|  0.99922
USER: genes 17 Torsion [N]-CA--CB-[OG1] |==|  0.86073
USER: genes 18 Torsion [CA]-CB--OG1-[HG1] |==|  0.90277
ROOT
ATOM      1  C   GLU G   2      16.757   7.880 -36.147  1.00 25.53 LIG 0.24  C 
ATOM      2 O    GLU G   2      17.649   8.145 -36.944  1.00 27.72 LIG-0.27  OA
ATOM      3  N   THR G   3      16.781   6.804 -35.370  1.00 24.80 LIG-0.34  N 
ATOM      4 H    THR G   3      16.166   6.603 -34.803  1.00 24.80 LIG 0.16  HD
ENDROOT
BRANCH 1 5
ATOM      5  CA  GLU G   2      15.546   8.786 -35.999  1.00 28.49 LIG 0.18  C 
BRANCH 5 6
ATOM      6  N   GLU G   2      15.776  10.121 -36.546  1.00 29.38 LIG-0.35  N 
ATOM      7 H    GLU G   2      15.698  10.177 -37.402  1.00 29.38 LIG 0.16  HD
ATOM      8  C   ILE G   1      16.079  11.146 -35.755  1.00 32.49 LIG 0.25  C 
ATOM      9 O    ILE G   1      16.178  11.036 -34.537  1.00 35.08 LIG-0.27  OA
BRANCH 8 10
ATOM     10  CA  ILE G   1      16.318  12.491 -36.437  1.00 40.53 LIG 0.28  C 
BRANCH 10 11
ATOM     11  CB  ILE G   1      16.886  13.503 -35.417  1.00 45.86 LIG 0.02  C 
ATOM     12  CG2 ILE G   1      17.512  14.675 -36.117  1.00 44.63 LIG 0.01  C 
BRANCH 11 13
ATOM     13  CG1 ILE G   1      15.792  14.011 -34.477  1.00 53.07 LIG 0.00  C 
ATOM     14  CD1 ILE G   1      15.505  15.492 -34.641  1.00 50.29 LIG 0.01  C 
ENDBRANCH 11 13
ENDBRANCH 10 11
BRANCH 10 15
ATOM     15  N   ILE G   1      15.090  12.977 -37.049  1.00 42.16 LIG-0.07  N 
ATOM     16 H3   ILE G   1      14.666  12.300 -37.441  1.00 42.16 LIG 0.28  HD
ATOM     17 H1   ILE G   1      14.566  13.332 -36.424  1.00 42.16 LIG 0.28  HD
ATOM     18 H2   ILE G   1      15.287  13.596 -37.657  1.00 42.16 LIG 0.28  HD
ENDBRANCH 10 15
ENDBRANCH 8 10
ENDBRANCH 5 6
BRANCH 5 19
ATOM     19  CB  GLU G   2      14.339   8.136 -36.664  1.00 31.40 LIG 0.04  C 
BRANCH 19 20
ATOM     20  CG  GLU G   2      13.277   9.128 -37.058  1.00 29.13 LIG 0.12  C 
BRANCH 20 21
ATOM     21  CD  GLU G   2      13.000   9.112 -38.535  1.00 32.73 LIG 0.17  C 
ATOM     22 OE2  GLU G   2      13.916   9.465 -39.304  1.00 36.24 LIG-0.65  OA
ATOM     23 OE1  GLU G   2      11.868   8.751 -38.924  1.00 30.62 LIG-0.65  OA
ENDBRANCH 20 21
ENDBRANCH 19 20
ENDBRANCH 5 19
ENDBRANCH 1 5
BRANCH 3 24
ATOM     24  CA  THR G   3      17.884   5.858 -35.428  1.00 22.88 LIG 0.20  C 
BRANCH 24 25
ATOM     25  C   THR G   3      19.122   6.439 -34.765  1.00 24.60 LIG 0.24  C 
ATOM     26  N   ASP G   4      19.699   5.683 -33.843  1.00 24.15 LIG-0.35  N 
ATOM     27 H    ASP G   4      19.418   4.905 -33.611  1.00 24.15 LIG 0.16  HD
ATOM     28 O    THR G   3      19.549   7.546 -35.083  1.00 25.42 LIG-0.27  OA
BRANCH 26 29
ATOM     29  CA  ASP G   4      20.891   6.135 -33.136  1.00 27.29 LIG 0.17  C 
BRANCH 29 30
ATOM     30  CB  ASP G   4      20.821   5.725 -31.669  1.00 26.38 LIG 0.15  C 
BRANCH 30 31
ATOM     31  CG  ASP G   4      21.788   6.512 -30.818  1.00 24.82 LIG 0.17  C 
ATOM     32 OD2  ASP G   4      21.473   6.839 -29.654  1.00 25.35 LIG-0.65  OA
ATOM     33 OD1  ASP G   4      22.882   6.801 -31.330  1.00 26.55 LIG-0.65  OA
ENDBRANCH 30 31
ENDBRANCH 29 30
BRANCH 29 34
ATOM     34  C   ASP G   4      22.189   5.660 -33.788  1.00 29.06 LIG 0.22  C 
ATOM     35 O    ASP G   4      22.173   4.966 -34.799  1.00 23.21 LIG-0.29  OA
ENDBRANCH 29 34
ENDBRANCH 26 29
ENDBRANCH 24 25
BRANCH 24 36
ATOM     36  CB  THR G   3      18.220   5.467 -36.872  1.00 24.93 LIG 0.15  C 
ATOM     37  CG2 THR G   3      19.219   4.322 -36.892  1.00 25.23 LIG 0.04  C 
BRANCH 36 38
ATOM     38 OG1  THR G   3      17.023   5.076 -37.553  1.00 25.78 LIG-0.39  OA
ATOM     39 HG1  THR G   3      16.511   4.682 -37.016  1.00 25.78 LIG 0.21  HD
ENDBRANCH 36 38
ENDBRANCH 24 36
ENDBRANCH 3 24
TORSDOF 17
ENDMDL
MODEL 29
USER: ADFR SOLUTION from run 141
USER: SCORE 15.255459 LL:  -2.559 LR: -12.878 RR:   0.000 FEB:  -7.807
USER: RMSD 8.768024
USER: SEED 140
USER: STATUS no improvement in best in 8 clusters for 5 generations
USER: GENES 19
USER: genes 0 Translation |==|  0.48358 0.64005 0.49690
USER: genes 1 Rotation |==|  0.59620 0.66339 0.95032 0.60612
USER: genes 2 Torsion [N]-C--CA-[N] |==|  0.37300
USER: genes 3 Torsion [C]-CA--N-[C] |==|  0.81268
USER: genes 4 Torsion [N]-C--CA-[N] |==|  0.90046
USER: genes 5 Torsion [C]-CA--CB-[CG2] |==|  0.83727
USER: genes 6 Torsion [CA]-CB--CG1-[CD1] |==|  0.45020
USER: genes 7 Torsion [C]-CA--N-[H3] |==|  0.02320
USER: genes 8 Torsion [C]-CA--CB-[CG] |==|  0.31256
USER: genes 9 Torsion [CA]-CB--CG-[CD] |==|  0.53402
USER: genes 10 Torsion [CB]-CG--CD-[OE2] |==|  0.11818
USER: genes 11 Torsion [C]-N--CA-[CB] |==|  0.86667
USER: genes 12 Torsion [N]-CA--C-[N] |==|  0.88745
USER: genes 13 Torsion [C]-N--CA-[C] |==|  0.77635
USER: genes 14 Torsion [N]-CA--CB-[CG] |==|  0.81891
USER: genes 15 Torsion [CA]-CB--CG-[OD1] |==|  0.68784
USER: genes 16 Torsion [N]-CA--C-[O] |==|  0.03429
USER: genes 17 Torsion [N]-CA--CB-[OG1] |==|  0.70751
USER: genes 18 Torsion [CA]-CB--OG1-[HG1] |==|  0.52908
ROOT
ATOM      1  C   GLU G   2      15.870   9.406 -35.971  1.00 25.53 LIG 0.24  C 
ATOM      2 O    GLU G   2      16.962   9.158 -36.469  1.00 27.72 LIG-0.27  OA
ATOM      3  N   THR G   3      15.358   8.702 -34.969  1.00 24.80 LIG-0.34  N 
ATOM      4 H    THR G   3      14.595   8.864 -34.605  1.00 24.80 LIG 0.16  HD
ENDROOT
BRANCH 1 5
ATOM      5  CA  GLU G   2      15.021  10.557 -36.484  1.00 28.49 LIG 0.18  C 
BRANCH 5 6
ATOM      6  N   GLU G   2      15.795  11.782 -36.675  1.00 29.38 LIG-0.35  N 
ATOM      7 H    GLU G   2      15.881  12.027 -37.495  1.00 29.38 LIG 0.16  HD
ATOM      8  C   ILE G   1      16.310  12.439 -35.640  1.00 32.49 LIG 0.25  C 
ATOM      9 O    ILE G   1      16.166  12.066 -34.479  1.00 35.08 LIG-0.27  OA
BRANCH 8 10
ATOM     10  CA  ILE G   1      17.117  13.695 -35.958  1.00 40.53 LIG 0.28  C 
BRANCH 10 11
ATOM     11  CB  ILE G   1      16.178  14.919 -36.027  1.00 45.86 LIG 0.02  C 
ATOM     12  CG2 ILE G   1      15.116  14.722 -37.071  1.00 44.63 LIG 0.01  C 
BRANCH 11 13
ATOM     13  CG1 ILE G   1      15.505  15.174 -34.677  1.00 53.07 LIG 0.00  C 
ATOM     14  CD1 ILE G   1      14.928  16.571 -34.552  1.00 50.29 LIG 0.01  C 
ENDBRANCH 11 13
ENDBRANCH 10 11
BRANCH 10 15
ATOM     15  N   ILE G   1      17.865  13.521 -37.194  1.00 42.16 LIG-0.07  N 
ATOM     16 H3   ILE G   1      17.615  12.763 -37.588  1.00 42.16 LIG 0.28  HD
ATOM     17 H1   ILE G   1      17.703  14.205 -37.739  1.00 42.16 LIG 0.28  HD
ATOM     18 H2   ILE G   1      18.736  13.487 -37.011  1.00 42.16 LIG 0.28  HD
ENDBRANCH 10 15
ENDBRANCH 8 10
ENDBRANCH 5 6
BRANCH 5 19
ATOM     19  CB  GLU G   2      14.338  10.148 -37.782  1.00 31.40 LIG 0.04  C 
BRANCH 19 20
ATOM     20  CG  GLU G   2      12.843  10.025 -37.649  1.00 29.13 LIG 0.12  C 
BRANCH 20 21
ATOM     21  CD  GLU G   2      12.217   9.345 -38.833  1.00 32.73 LIG 0.17  C 
ATOM     22 OE2  GLU G   2      12.791   8.340 -39.299  1.00 36.24 LIG-0.65  OA
ATOM     23 OE1  GLU G   2      11.156   9.816 -39.299  1.00 30.62 LIG-0.65  OA
ENDBRANCH 20 21
ENDBRANCH 19 20
ENDBRANCH 5 19
ENDBRANCH 1 5
BRANCH 3 24
ATOM     24  CA  THR G   3      16.074   7.572 -34.400  1.00 22.88 LIG 0.20  C 
BRANCH 24 25
ATOM     25  C   THR G   3      17.238   8.050 -33.548  1.00 24.60 LIG 0.24  C 
ATOM     26  N   ASP G   4      17.932   9.071 -34.027  1.00 24.15 LIG-0.35  N 
ATOM     27 H    ASP G   4      17.760   9.465 -34.771  1.00 24.15 LIG 0.16  HD
ATOM     28 O    THR G   3      17.502   7.508 -32.477  1.00 25.42 LIG-0.27  OA
BRANCH 26 29
ATOM     29  CA  ASP G   4      19.073   9.614 -33.301  1.00 27.29 LIG 0.17  C 
BRANCH 29 30
ATOM     30  CB  ASP G   4      20.045  10.281 -34.269  1.00 26.38 LIG 0.15  C 
BRANCH 30 31
ATOM     31  CG  ASP G   4      20.667   9.285 -35.218  1.00 24.82 LIG 0.17  C 
ATOM     32 OD2  ASP G   4      19.963   8.722 -36.083  1.00 25.35 LIG-0.65  OA
ATOM     33 OD1  ASP G   4      21.884   9.070 -35.091  1.00 26.55 LIG-0.65  OA
ENDBRANCH 30 31
ENDBRANCH 29 30
BRANCH 29 34
ATOM     34  C   ASP G   4      18.668  10.562 -32.174  1.00 29.06 LIG 0.22  C 
ATOM     35 O    ASP G   4      17.503  10.638 -31.797  1.00 23.21 LIG-0.29  OA
ENDBRANCH 29 34
ENDBRANCH 26 29
ENDBRANCH 24 25
BRANCH 24 36
ATOM     36  CB  THR G   3      16.598   6.627 -35.487  1.00 24.93 LIG 0.15  C 
ATOM     37  CG2 THR G   3      18.045   6.252 -35.212  1.00 25.23 LIG 0.04  C 
BRANCH 36 38
ATOM     38 OG1  THR G   3      15.791   5.445 -35.523  1.00 25.78 LIG-0.39  OA
ATOM     39 HG1  THR G   3      16.158   4.869 -36.013  1.00 25.78 LIG 0.21  HD
ENDBRANCH 36 38
ENDBRANCH 24 36
ENDBRANCH 3 24
TORSDOF 17
ENDMDL
MODEL 30
USER: ADFR SOLUTION from run 111
USER: SCORE 14.973991 LL:  -2.438 LR: -12.878 RR:   0.000 FEB:  -7.806
USER: RMSD 7.383321
USER: SEED 110
USER: STATUS no improvement in best in 8 clusters for 5 generations
USER: GENES 19
USER: genes 0 Translation |==|  0.47514 0.49754 0.53886
USER: genes 1 Rotation |==|  0.80546 0.75650 0.79148 0.57709
USER: genes 2 Torsion [N]-C--CA-[N] |==|  0.09036
USER: genes 3 Torsion [C]-CA--N-[C] |==|  0.15015
USER: genes 4 Torsion [N]-C--CA-[N] |==|  0.86938
USER: genes 5 Torsion [C]-CA--CB-[CG2] |==|  0.81529
USER: genes 6 Torsion [CA]-CB--CG1-[CD1] |==|  0.62451
USER: genes 7 Torsion [C]-CA--N-[H3] |==|  0.40804
USER: genes 8 Torsion [C]-CA--CB-[CG] |==|  0.40394
USER: genes 9 Torsion [CA]-CB--CG-[CD] |==|  0.55529
USER: genes 10 Torsion [CB]-CG--CD-[OE2] |==|  0.34052
USER: genes 11 Torsion [C]-N--CA-[CB] |==|  0.76233
USER: genes 12 Torsion [N]-CA--C-[N] |==|  0.17862
USER: genes 13 Torsion [C]-N--CA-[C] |==|  0.22358
USER: genes 14 Torsion [N]-CA--CB-[CG] |==|  0.71710
USER: genes 15 Torsion [CA]-CB--CG-[OD1] |==|  0.65449
USER: genes 16 Torsion [N]-CA--C-[O] |==|  0.48641
USER: genes 17 Torsion [N]-CA--CB-[OG1] |==|  0.06148
USER: genes 18 Torsion [CA]-CB--OG1-[HG1] |==|  0.16324
ROOT
ATOM      1  C   GLU G   2      15.719   6.413 -35.341  1.00 25.53 LIG 0.24  C 
ATOM      2 O    GLU G   2      15.799   5.700 -36.334  1.00 27.72 LIG-0.27  OA
ATOM      3  N   THR G   3      16.333   6.132 -34.199  1.00 24.80 LIG-0.34  N 
ATOM      4 H    THR G   3      16.290   6.622 -33.493  1.00 24.80 LIG 0.16  HD
ENDROOT
BRANCH 1 5
ATOM      5  CA  GLU G   2      14.890   7.687 -35.360  1.00 28.49 LIG 0.18  C 
BRANCH 5 6
ATOM      6  N   GLU G   2      15.448   8.731 -34.503  1.00 29.38 LIG-0.35  N 
ATOM      7 H    GLU G   2      14.898   9.052 -33.924  1.00 29.38 LIG 0.16  HD
ATOM      8  C   ILE G   1      16.710   9.128 -34.636  1.00 32.49 LIG 0.25  C 
ATOM      9 O    ILE G   1      17.472   8.648 -35.470  1.00 35.08 LIG-0.27  OA
BRANCH 8 10
ATOM     10  CA  ILE G   1      17.182  10.239 -33.701  1.00 40.53 LIG 0.28  C 
BRANCH 10 11
ATOM     11  CB  ILE G   1      17.445   9.663 -32.292  1.00 45.86 LIG 0.02  C 
ATOM     12  CG2 ILE G   1      16.166   9.197 -31.656  1.00 44.63 LIG 0.01  C 
BRANCH 11 13
ATOM     13  CG1 ILE G   1      18.425   8.492 -32.351  1.00 53.07 LIG 0.00  C 
ATOM     14  CD1 ILE G   1      17.993   7.308 -31.506  1.00 50.29 LIG 0.01  C 
ENDBRANCH 11 13
ENDBRANCH 10 11
BRANCH 10 15
ATOM     15  N   ILE G   1      16.211  11.322 -33.667  1.00 42.16 LIG-0.07  N 
ATOM     16 H3   ILE G   1      16.205  11.690 -32.856  1.00 42.16 LIG 0.28  HD
ATOM     17 H1   ILE G   1      16.431  11.939 -34.270  1.00 42.16 LIG 0.28  HD
ATOM     18 H2   ILE G   1      15.401  11.001 -33.853  1.00 42.16 LIG 0.28  HD
ENDBRANCH 10 15
ENDBRANCH 8 10
ENDBRANCH 5 6
BRANCH 5 19
ATOM     19  CB  GLU G   2      14.755   8.187 -36.793  1.00 31.40 LIG 0.04  C 
BRANCH 19 20
ATOM     20  CG  GLU G   2      13.424   8.835 -37.068  1.00 29.13 LIG 0.12  C 
BRANCH 20 21
ATOM     21  CD  GLU G   2      13.107   8.888 -38.536  1.00 32.73 LIG 0.17  C 
ATOM     22 OE2  GLU G   2      12.051   8.348 -38.924  1.00 36.24 LIG-0.65  OA
ATOM     23 OE1  GLU G   2      13.912   9.465 -39.299  1.00 30.62 LIG-0.65  OA
ENDBRANCH 20 21
ENDBRANCH 19 20
ENDBRANCH 5 19
ENDBRANCH 1 5
BRANCH 3 24
ATOM     24  CA  THR G   3      17.147   4.936 -34.057  1.00 22.88 LIG 0.20  C 
BRANCH 24 25
ATOM     25  C   THR G   3      17.892   4.639 -35.348  1.00 24.60 LIG 0.24  C 
ATOM     26  N   ASP G   4      18.787   5.540 -35.726  1.00 24.15 LIG-0.35  N 
ATOM     27 H    ASP G   4      18.962   6.259 -35.290  1.00 24.15 LIG 0.16  HD
ATOM     28 O    THR G   3      17.666   3.615 -35.989  1.00 25.42 LIG-0.27  OA
BRANCH 26 29
ATOM     29  CA  ASP G   4      19.561   5.366 -36.949  1.00 27.29 LIG 0.17  C 
BRANCH 29 30
ATOM     30  CB  ASP G   4      20.082   3.936 -37.045  1.00 26.38 LIG 0.15  C 
BRANCH 30 31
ATOM     31  CG  ASP G   4      21.539   3.840 -36.663  1.00 24.82 LIG 0.17  C 
ATOM     32 OD2  ASP G   4      21.921   4.257 -35.549  1.00 25.35 LIG-0.65  OA
ATOM     33 OD1  ASP G   4      22.308   3.334 -37.496  1.00 26.55 LIG-0.65  OA
ENDBRANCH 30 31
ENDBRANCH 29 30
BRANCH 29 34
ATOM     34  C   ASP G   4      18.791   5.767 -38.206  1.00 29.06 LIG 0.22  C 
ATOM     35 O    ASP G   4      19.331   5.765 -39.307  1.00 23.21 LIG-0.29  OA
ENDBRANCH 29 34
ENDBRANCH 26 29
ENDBRANCH 24 25
BRANCH 24 36
ATOM     36  CB  THR G   3      16.301   3.716 -33.671  1.00 24.93 LIG 0.15  C 
ATOM     37  CG2 THR G   3      16.385   3.465 -32.175  1.00 25.23 LIG 0.04  C 
BRANCH 36 38
ATOM     38 OG1  THR G   3      14.939   3.941 -34.049  1.00 25.78 LIG-0.39  OA
ATOM     39 HG1  THR G   3      14.895   4.078 -34.877  1.00 25.78 LIG 0.21  HD
ENDBRANCH 36 38
ENDBRANCH 24 36
ENDBRANCH 3 24
TORSDOF 17
ENDMDL
MODEL 31
USER: ADFR SOLUTION from run 197
USER: SCORE 14.905608 LL:  -2.458 LR: -12.873 RR:   0.000 FEB:  -7.802
USER: RMSD 8.948997
USER: SEED 196
USER: STATUS no improvement in best in 9 clusters for 5 generations
USER: GENES 19
USER: genes 0 Translation |==|  0.50792 0.64028 0.45307
USER: genes 1 Rotation |==|  0.32330 0.36370 0.05335 0.52654
USER: genes 2 Torsion [N]-C--CA-[N] |==|  0.43509
USER: genes 3 Torsion [C]-CA--N-[C] |==|  0.78362
USER: genes 4 Torsion [N]-C--CA-[N] |==|  0.12696
USER: genes 5 Torsion [C]-CA--CB-[CG2] |==|  0.48394
USER: genes 6 Torsion [CA]-CB--CG1-[CD1] |==|  0.71328
USER: genes 7 Torsion [C]-CA--N-[H3] |==|  0.11864
USER: genes 8 Torsion [C]-CA--CB-[CG] |==|  0.65667
USER: genes 9 Torsion [CA]-CB--CG-[CD] |==|  0.43297
USER: genes 10 Torsion [CB]-CG--CD-[OE2] |==|  0.40309
USER: genes 11 Torsion [C]-N--CA-[CB] |==|  0.75971
USER: genes 12 Torsion [N]-CA--C-[N] |==|  0.14444
USER: genes 13 Torsion [C]-N--CA-[C] |==|  0.71193
USER: genes 14 Torsion [N]-CA--CB-[CG] |==|  0.72556
USER: genes 15 Torsion [CA]-CB--CG-[OD1] |==|  0.57931
USER: genes 16 Torsion [N]-CA--C-[O] |==|  0.12070
USER: genes 17 Torsion [N]-CA--CB-[OG1] |==|  0.92548
USER: genes 18 Torsion [CA]-CB--OG1-[HG1] |==|  0.66395
ROOT
ATOM      1  C   GLU G   2      16.309   9.411 -36.628  1.00 25.53 LIG 0.24  C 
ATOM      2 O    GLU G   2      17.062   9.698 -37.551  1.00 27.72 LIG-0.27  OA
ATOM      3  N   THR G   3      16.538   8.401 -35.797  1.00 24.80 LIG-0.34  N 
ATOM      4 H    THR G   3      16.022   8.187 -35.143  1.00 24.80 LIG 0.16  HD
ENDROOT
BRANCH 1 5
ATOM      5  CA  GLU G   2      15.040  10.210 -36.377  1.00 28.49 LIG 0.18  C 
BRANCH 5 6
ATOM      6  N   GLU G   2      15.114  11.563 -36.924  1.00 29.38 LIG-0.35  N 
ATOM      7 H    GLU G   2      14.691  11.673 -37.666  1.00 29.38 LIG 0.16  HD
ATOM      8  C   ILE G   1      15.790  12.522 -36.299  1.00 32.49 LIG 0.25  C 
ATOM      9 O    ILE G   1      16.380  12.334 -35.240  1.00 35.08 LIG-0.27  OA
BRANCH 8 10
ATOM     10  CA  ILE G   1      15.816  13.892 -36.972  1.00 40.53 LIG 0.28  C 
BRANCH 10 11
ATOM     11  CB  ILE G   1      16.404  14.942 -36.002  1.00 45.86 LIG 0.02  C 
ATOM     12  CG2 ILE G   1      16.571  16.269 -36.686  1.00 44.63 LIG 0.01  C 
BRANCH 11 13
ATOM     13  CG1 ILE G   1      15.507  15.124 -34.778  1.00 53.07 LIG 0.00  C 
ATOM     14  CD1 ILE G   1      14.676  16.392 -34.829  1.00 50.29 LIG 0.01  C 
ENDBRANCH 11 13
ENDBRANCH 10 11
BRANCH 10 15
ATOM     15  N   ILE G   1      14.483  14.264 -37.423  1.00 42.16 LIG-0.07  N 
ATOM     16 H3   ILE G   1      13.888  14.056 -36.794  1.00 42.16 LIG 0.28  HD
ATOM     17 H1   ILE G   1      14.455  15.140 -37.578  1.00 42.16 LIG 0.28  HD
ATOM     18 H2   ILE G   1      14.290  13.824 -38.172  1.00 42.16 LIG 0.28  HD
ENDBRANCH 10 15
ENDBRANCH 8 10
ENDBRANCH 5 6
BRANCH 5 19
ATOM     19  CB  GLU G   2      13.845   9.463 -36.955  1.00 31.40 LIG 0.04  C 
BRANCH 19 20
ATOM     20  CG  GLU G   2      13.062  10.281 -37.947  1.00 29.13 LIG 0.12  C 
BRANCH 20 21
ATOM     21  CD  GLU G   2      12.290   9.425 -38.911  1.00 32.73 LIG 0.17  C 
ATOM     22 OE2  GLU G   2      11.179   9.840 -39.299  1.00 36.24 LIG-0.65  OA
ATOM     23 OE1  GLU G   2      12.791   8.340 -39.277  1.00 30.62 LIG-0.65  OA
ENDBRANCH 20 21
ENDBRANCH 19 20
ENDBRANCH 5 19
ENDBRANCH 1 5
BRANCH 3 24
ATOM     24  CA  THR G   3      17.714   7.559 -35.942  1.00 22.88 LIG 0.20  C 
BRANCH 24 25
ATOM     25  C   THR G   3      18.903   8.378 -36.417  1.00 24.60 LIG 0.24  C 
ATOM     26  N   ASP G   4      19.178   9.469 -35.718  1.00 24.15 LIG-0.35  N 
ATOM     27 H    ASP G   4      18.732   9.727 -35.030  1.00 24.15 LIG 0.16  HD
ATOM     28 O    THR G   3      19.562   8.030 -37.394  1.00 25.42 LIG-0.27  OA
BRANCH 26 29
ATOM     29  CA  ASP G   4      20.292  10.336 -36.079  1.00 27.29 LIG 0.17  C 
BRANCH 29 30
ATOM     30  CB  ASP G   4      19.833  11.790 -36.134  1.00 26.38 LIG 0.15  C 
BRANCH 30 31
ATOM     31  CG  ASP G   4      19.544  12.237 -37.546  1.00 24.82 LIG 0.17  C 
ATOM     32 OD2  ASP G   4      19.166  11.406 -38.399  1.00 25.35 LIG-0.65  OA
ATOM     33 OD1  ASP G   4      19.699  13.443 -37.799  1.00 26.55 LIG-0.65  OA
ENDBRANCH 30 31
ENDBRANCH 29 30
BRANCH 29 34
ATOM     34  C   ASP G   4      21.503  10.166 -35.164  1.00 29.06 LIG 0.22  C 
ATOM     35 O    ASP G   4      21.887   9.052 -34.822  1.00 23.21 LIG-0.29  OA
ENDBRANCH 29 34
ENDBRANCH 26 29
ENDBRANCH 24 25
BRANCH 24 36
ATOM     36  CB  THR G   3      17.470   6.408 -36.925  1.00 24.93 LIG 0.15  C 
ATOM     37  CG2 THR G   3      18.269   5.182 -36.515  1.00 25.23 LIG 0.04  C 
BRANCH 36 38
ATOM     38 OG1  THR G   3      16.074   6.089 -36.950  1.00 25.78 LIG-0.39  OA
ATOM     39 HG1  THR G   3      15.965   5.286 -36.728  1.00 25.78 LIG 0.21  HD
ENDBRANCH 36 38
ENDBRANCH 24 36
ENDBRANCH 3 24
TORSDOF 17
ENDMDL
MODEL 32
USER: ADFR SOLUTION from run 125
USER: SCORE 14.699534 LL:  -2.653 LR: -12.842 RR:   0.000 FEB:  -7.771
USER: RMSD 8.702876
USER: SEED 124
USER: STATUS no improvement in best in 9 clusters for 5 generations
USER: GENES 19
USER: genes 0 Translation |==|  0.47831 0.53612 0.54711
USER: genes 1 Rotation |==|  0.71003 0.78178 0.84525 0.58536
USER: genes 2 Torsion [N]-C--CA-[N] |==|  0.20498
USER: genes 3 Torsion [C]-CA--N-[C] |==|  0.18066
USER: genes 4 Torsion [N]-C--CA-[N] |==|  0.77673
USER: genes 5 Torsion [C]-CA--CB-[CG2] |==|  0.20371
USER: genes 6 Torsion [CA]-CB--CG1-[CD1] |==|  0.57935
USER: genes 7 Torsion [C]-CA--N-[H3] |==|  0.93307
USER: genes 8 Torsion [C]-CA--CB-[CG] |==|  0.43673
USER: genes 9 Torsion [CA]-CB--CG-[CD] |==|  0.39640
USER: genes 10 Torsion [CB]-CG--CD-[OE2] |==|  0.43043
USER: genes 11 Torsion [C]-N--CA-[CB] |==|  0.85555
USER: genes 12 Torsion [N]-CA--C-[N] |==|  0.35000
USER: genes 13 Torsion [C]-N--CA-[C] |==|  0.75354
USER: genes 14 Torsion [N]-CA--CB-[CG] |==|  0.28663
USER: genes 15 Torsion [CA]-CB--CG-[OD1] |==|  0.74882
USER: genes 16 Torsion [N]-CA--C-[O] |==|  0.21738
USER: genes 17 Torsion [N]-CA--CB-[OG1] |==|  0.93899
USER: genes 18 Torsion [CA]-CB--OG1-[HG1] |==|  0.30175
ROOT
ATOM      1  C   GLU G   2      15.776   7.224 -35.217  1.00 25.53 LIG 0.24  C 
ATOM      2 O    GLU G   2      16.381   6.580 -36.066  1.00 27.72 LIG-0.27  OA
ATOM      3  N   THR G   3      16.002   7.094 -33.916  1.00 24.80 LIG-0.34  N 
ATOM      4 H    THR G   3      15.589   7.539 -33.307  1.00 24.80 LIG 0.16  HD
ENDROOT
BRANCH 1 5
ATOM      5  CA  GLU G   2      14.706   8.227 -35.614  1.00 28.49 LIG 0.18  C 
BRANCH 5 6
ATOM      6  N   GLU G   2      15.151   9.610 -35.461  1.00 29.38 LIG-0.35  N 
ATOM      7 H    GLU G   2      14.723  10.061 -34.865  1.00 29.38 LIG 0.16  HD
ATOM      8  C   ILE G   1      16.141  10.100 -36.201  1.00 32.49 LIG 0.25  C 
ATOM      9 O    ILE G   1      16.735   9.431 -37.041  1.00 35.08 LIG-0.27  OA
BRANCH 8 10
ATOM     10  CA  ILE G   1      16.510  11.564 -35.971  1.00 40.53 LIG 0.28  C 
BRANCH 10 11
ATOM     11  CB  ILE G   1      16.541  11.865 -34.456  1.00 45.86 LIG 0.02  C 
ATOM     12  CG2 ILE G   1      17.753  11.254 -33.813  1.00 44.63 LIG 0.01  C 
BRANCH 11 13
ATOM     13  CG1 ILE G   1      16.547  13.371 -34.194  1.00 53.07 LIG 0.00  C 
ATOM     14  CD1 ILE G   1      17.241  13.750 -32.899  1.00 50.29 LIG 0.01  C 
ENDBRANCH 11 13
ENDBRANCH 10 11
BRANCH 10 15
ATOM     15  N   ILE G   1      15.584  12.440 -36.674  1.00 42.16 LIG-0.07  N 
ATOM     16 H3   ILE G   1      15.218  11.999 -37.356  1.00 42.16 LIG 0.28  HD
ATOM     17 H1   ILE G   1      14.944  12.705 -36.116  1.00 42.16 LIG 0.28  HD
ATOM     18 H2   ILE G   1      16.024  13.150 -36.981  1.00 42.16 LIG 0.28  HD
ENDBRANCH 10 15
ENDBRANCH 8 10
ENDBRANCH 5 6
BRANCH 5 19
ATOM     19  CB  GLU G   2      14.265   7.963 -37.049  1.00 31.40 LIG 0.04  C 
BRANCH 19 20
ATOM     20  CG  GLU G   2      12.892   8.500 -37.353  1.00 29.13 LIG 0.12  C 
BRANCH 20 21
ATOM     21  CD  GLU G   2      12.792   9.060 -38.743  1.00 32.73 LIG 0.17  C 
ATOM     22 OE2  GLU G   2      11.666   9.090 -39.280  1.00 36.24 LIG-0.65  OA
ATOM     23 OE1  GLU G   2      13.836   9.465 -39.299  1.00 30.62 LIG-0.65  OA
ENDBRANCH 20 21
ENDBRANCH 19 20
ENDBRANCH 5 19
ENDBRANCH 1 5
BRANCH 3 24
ATOM     24  CA  THR G   3      16.996   6.159 -33.415  1.00 22.88 LIG 0.20  C 
BRANCH 24 25
ATOM     25  C   THR G   3      18.399   6.634 -33.755  1.00 24.60 LIG 0.24  C 
ATOM     26  N   ASP G   4      19.242   6.739 -32.739  1.00 24.15 LIG-0.35  N 
ATOM     27 H    ASP G   4      19.042   6.555 -31.924  1.00 24.15 LIG 0.16  HD
ATOM     28 O    THR G   3      18.713   6.898 -34.913  1.00 25.42 LIG-0.27  OA
BRANCH 26 29
ATOM     29  CA  ASP G   4      20.613   7.188 -32.942  1.00 27.29 LIG 0.17  C 
BRANCH 29 30
ATOM     30  CB  ASP G   4      21.085   8.001 -31.740  1.00 26.38 LIG 0.15  C 
BRANCH 30 31
ATOM     31  CG  ASP G   4      22.004   7.203 -30.847  1.00 24.82 LIG 0.17  C 
ATOM     32 OD2  ASP G   4      23.237   7.215 -31.049  1.00 25.35 LIG-0.65  OA
ATOM     33 OD1  ASP G   4      21.476   6.558 -29.927  1.00 26.55 LIG-0.65  OA
ENDBRANCH 30 31
ENDBRANCH 29 30
BRANCH 29 34
ATOM     34  C   ASP G   4      21.577   6.045 -33.256  1.00 29.06 LIG 0.22  C 
ATOM     35 O    ASP G   4      21.629   5.550 -34.378  1.00 23.21 LIG-0.29  OA
ENDBRANCH 29 34
ENDBRANCH 26 29
ENDBRANCH 24 25
BRANCH 24 36
ATOM     36  CB  THR G   3      16.788   4.750 -33.985  1.00 24.93 LIG 0.15  C 
ATOM     37  CG2 THR G   3      17.099   3.700 -32.932  1.00 25.23 LIG 0.04  C 
BRANCH 36 38
ATOM     38 OG1  THR G   3      15.433   4.608 -34.424  1.00 25.78 LIG-0.39  OA
ATOM     39 HG1  THR G   3      15.410   4.589 -35.264  1.00 25.78 LIG 0.21  HD
ENDBRANCH 36 38
ENDBRANCH 24 36
ENDBRANCH 3 24
TORSDOF 17
ENDMDL
MODEL 33
USER: ADFR SOLUTION from run 48
USER: SCORE 13.932849 LL:  -2.351 LR: -12.796 RR:   0.000 FEB:  -7.725
USER: RMSD 9.204006
USER: SEED 47
USER: STATUS no improvement in best in 8 clusters for 5 generations
USER: GENES 19
USER: genes 0 Translation |==|  0.55209 0.68605 0.50089
USER: genes 1 Rotation |==|  0.37679 0.20180 0.11962 0.53478
USER: genes 2 Torsion [N]-C--CA-[N] |==|  0.33718
USER: genes 3 Torsion [C]-CA--N-[C] |==|  0.82478
USER: genes 4 Torsion [N]-C--CA-[N] |==|  0.21314
USER: genes 5 Torsion [C]-CA--CB-[CG2] |==|  0.29672
USER: genes 6 Torsion [CA]-CB--CG1-[CD1] |==|  0.25733
USER: genes 7 Torsion [C]-CA--N-[H3] |==|  0.85713
USER: genes 8 Torsion [C]-CA--CB-[CG] |==|  0.47865
USER: genes 9 Torsion [CA]-CB--CG-[CD] |==|  0.39475
USER: genes 10 Torsion [CB]-CG--CD-[OE2] |==|  0.41357
USER: genes 11 Torsion [C]-N--CA-[CB] |==|  0.53483
USER: genes 12 Torsion [N]-CA--C-[N] |==|  0.84444
USER: genes 13 Torsion [C]-N--CA-[C] |==|  0.70583
USER: genes 14 Torsion [N]-CA--CB-[CG] |==|  0.73039
USER: genes 15 Torsion [CA]-CB--CG-[OD1] |==|  0.77803
USER: genes 16 Torsion [N]-CA--C-[O] |==|  0.24601
USER: genes 17 Torsion [N]-CA--CB-[OG1] |==|  0.84916
USER: genes 18 Torsion [CA]-CB--OG1-[HG1] |==|  0.55981
ROOT
ATOM      1  C   GLU G   2      17.104  10.372 -35.911  1.00 25.53 LIG 0.24  C 
ATOM      2 O    GLU G   2      17.934  10.326 -36.810  1.00 27.72 LIG-0.27  OA
ATOM      3  N   THR G   3      17.410  10.166 -34.636  1.00 24.80 LIG-0.34  N 
ATOM      4 H    THR G   3      16.841  10.197 -33.991  1.00 24.80 LIG 0.16  HD
ENDROOT
BRANCH 1 5
ATOM      5  CA  GLU G   2      15.644  10.672 -36.209  1.00 28.49 LIG 0.18  C 
BRANCH 5 6
ATOM      6  N   GLU G   2      15.461  11.962 -36.870  1.00 29.38 LIG-0.35  N 
ATOM      7 H    GLU G   2      15.130  11.915 -37.663  1.00 29.38 LIG 0.16  HD
ATOM      8  C   ILE G   1      15.791  13.098 -36.263  1.00 32.49 LIG 0.25  C 
ATOM      9 O    ILE G   1      16.258  13.133 -35.129  1.00 35.08 LIG-0.27  OA
BRANCH 8 10
ATOM     10  CA  ILE G   1      15.575  14.386 -37.055  1.00 40.53 LIG 0.28  C 
BRANCH 10 11
ATOM     11  CB  ILE G   1      16.446  15.517 -36.465  1.00 45.86 LIG 0.02  C 
ATOM     12  CG2 ILE G   1      17.607  15.826 -37.366  1.00 44.63 LIG 0.01  C 
BRANCH 11 13
ATOM     13  CG1 ILE G   1      15.626  16.791 -36.257  1.00 53.07 LIG 0.00  C 
ATOM     14  CD1 ILE G   1      15.031  16.898 -34.866  1.00 50.29 LIG 0.01  C 
ENDBRANCH 11 13
ENDBRANCH 10 11
BRANCH 10 15
ATOM     15  N   ILE G   1      14.165  14.744 -37.071  1.00 42.16 LIG-0.07  N 
ATOM     16 H3   ILE G   1      13.684  14.044 -37.335  1.00 42.16 LIG 0.28  HD
ATOM     17 H1   ILE G   1      13.911  14.987 -36.254  1.00 42.16 LIG 0.28  HD
ATOM     18 H2   ILE G   1      14.038  15.422 -37.635  1.00 42.16 LIG 0.28  HD
ENDBRANCH 10 15
ENDBRANCH 8 10
ENDBRANCH 5 6
BRANCH 5 19
ATOM     19  CB  GLU G   2      15.056   9.549 -37.055  1.00 31.40 LIG 0.04  C 
BRANCH 19 20
ATOM     20  CG  GLU G   2      13.567   9.671 -37.244  1.00 29.13 LIG 0.12  C 
BRANCH 20 21
ATOM     21  CD  GLU G   2      13.130   9.265 -38.623  1.00 32.73 LIG 0.17  C 
ATOM     22 OE2  GLU G   2      11.997   8.759 -38.750  1.00 36.24 LIG-0.65  OA
ATOM     23 OE1  GLU G   2      13.919   9.449 -39.575  1.00 30.62 LIG-0.65  OA
ENDBRANCH 20 21
ENDBRANCH 19 20
ENDBRANCH 5 19
ENDBRANCH 1 5
BRANCH 3 24
ATOM     24  CA  THR G   3      18.772   9.862 -34.228  1.00 22.88 LIG 0.20  C 
BRANCH 24 25
ATOM     25  C   THR G   3      19.384   8.814 -35.143  1.00 24.60 LIG 0.24  C 
ATOM     26  N   ASP G   4      18.718   7.674 -35.253  1.00 24.15 LIG-0.35  N 
ATOM     27 H    ASP G   4      17.980   7.505 -34.846  1.00 24.15 LIG 0.16  HD
ATOM     28 O    THR G   3      20.434   9.032 -35.741  1.00 25.42 LIG-0.27  OA
BRANCH 26 29
ATOM     29  CA  ASP G   4      19.208   6.593 -36.098  1.00 27.29 LIG 0.17  C 
BRANCH 29 30
ATOM     30  CB  ASP G   4      19.251   5.287 -35.311  1.00 26.38 LIG 0.15  C 
BRANCH 30 31
ATOM     31  CG  ASP G   4      20.630   5.004 -34.764  1.00 24.82 LIG 0.17  C 
ATOM     32 OD2  ASP G   4      20.890   5.252 -33.568  1.00 25.35 LIG-0.65  OA
ATOM     33 OD1  ASP G   4      21.461   4.522 -35.552  1.00 26.55 LIG-0.65  OA
ENDBRANCH 30 31
ENDBRANCH 29 30
BRANCH 29 34
ATOM     34  C   ASP G   4      18.413   6.439 -37.393  1.00 29.06 LIG 0.22  C 
ATOM     35 O    ASP G   4      18.720   7.065 -38.403  1.00 23.21 LIG-0.29  OA
ENDBRANCH 29 34
ENDBRANCH 26 29
ENDBRANCH 24 25
BRANCH 24 36
ATOM     36  CB  THR G   3      18.832   9.364 -32.779  1.00 24.93 LIG 0.15  C 
ATOM     37  CG2 THR G   3      20.276   9.167 -32.346  1.00 25.23 LIG 0.04  C 
BRANCH 36 38
ATOM     38 OG1  THR G   3      18.195  10.316 -31.920  1.00 25.78 LIG-0.39  OA
ATOM     39 HG1  THR G   3      18.471  10.213 -31.133  1.00 25.78 LIG 0.21  HD
ENDBRANCH 36 38
ENDBRANCH 24 36
ENDBRANCH 3 24
TORSDOF 17
ENDMDL
MODEL 34
USER: ADFR SOLUTION from run 45
USER: SCORE 14.236642 LL:  -2.044 LR: -12.801 RR:   0.000 FEB:  -7.730
USER: RMSD 8.475596
USER: SEED 44
USER: STATUS no improvement in best in 7 clusters for 5 generations
USER: GENES 19
USER: genes 0 Translation |==|  0.49508 0.64101 0.57079
USER: genes 1 Rotation |==|  0.84418 0.79349 0.40621 0.69133
USER: genes 2 Torsion [N]-C--CA-[N] |==|  0.95623
USER: genes 3 Torsion [C]-CA--N-[C] |==|  0.80074
USER: genes 4 Torsion [N]-C--CA-[N] |==|  0.98464
USER: genes 5 Torsion [C]-CA--CB-[CG2] |==|  0.47562
USER: genes 6 Torsion [CA]-CB--CG1-[CD1] |==|  0.62545
USER: genes 7 Torsion [C]-CA--N-[H3] |==|  0.22953
USER: genes 8 Torsion [C]-CA--CB-[CG] |==|  0.31963
USER: genes 9 Torsion [CA]-CB--CG-[CD] |==|  0.44595
USER: genes 10 Torsion [CB]-CG--CD-[OE2] |==|  0.43149
USER: genes 11 Torsion [C]-N--CA-[CB] |==|  0.85987
USER: genes 12 Torsion [N]-CA--C-[N] |==|  0.96644
USER: genes 13 Torsion [C]-N--CA-[C] |==|  0.16018
USER: genes 14 Torsion [N]-CA--CB-[CG] |==|  0.80255
USER: genes 15 Torsion [CA]-CB--CG-[OD1] |==|  0.12077
USER: genes 16 Torsion [N]-CA--C-[O] |==|  0.18094
USER: genes 17 Torsion [N]-CA--CB-[OG1] |==|  0.80629
USER: genes 18 Torsion [CA]-CB--OG1-[HG1] |==|  0.67138
ROOT
ATOM      1  C   GLU G   2      16.077   9.426 -34.862  1.00 25.53 LIG 0.24  C 
ATOM      2 O    GLU G   2      15.392   8.639 -34.221  1.00 27.72 LIG-0.27  OA
ATOM      3  N   THR G   3      17.396   9.508 -34.732  1.00 24.80 LIG-0.34  N 
ATOM      4 H    THR G   3      17.893  10.052 -35.176  1.00 24.80 LIG 0.16  HD
ENDROOT
BRANCH 1 5
ATOM      5  CA  GLU G   2      15.443  10.377 -35.864  1.00 28.49 LIG 0.18  C 
BRANCH 5 6
ATOM      6  N   GLU G   2      16.338  11.466 -36.247  1.00 29.38 LIG-0.35  N 
ATOM      7 H    GLU G   2      16.648  11.411 -37.047  1.00 29.38 LIG 0.16  HD
ATOM      8  C   ILE G   1      16.629  12.448 -35.398  1.00 32.49 LIG 0.25  C 
ATOM      9 O    ILE G   1      16.168  12.502 -34.262  1.00 35.08 LIG-0.27  OA
BRANCH 8 10
ATOM     10  CA  ILE G   1      17.592  13.523 -35.898  1.00 40.53 LIG 0.28  C 
BRANCH 10 11
ATOM     11  CB  ILE G   1      16.884  14.896 -35.914  1.00 45.86 LIG 0.02  C 
ATOM     12  CG2 ILE G   1      17.862  16.000 -36.196  1.00 44.63 LIG 0.01  C 
BRANCH 11 13
ATOM     13  CG1 ILE G   1      15.777  14.932 -36.968  1.00 53.07 LIG 0.00  C 
ATOM     14  CD1 ILE G   1      15.785  16.201 -37.800  1.00 50.29 LIG 0.01  C 
ENDBRANCH 11 13
ENDBRANCH 10 11
BRANCH 10 15
ATOM     15  N   ILE G   1      18.112  13.171 -37.211  1.00 42.16 LIG-0.07  N 
ATOM     16 H3   ILE G   1      17.526  13.409 -37.836  1.00 42.16 LIG 0.28  HD
ATOM     17 H1   ILE G   1      18.882  13.595 -37.349  1.00 42.16 LIG 0.28  HD
ATOM     18 H2   ILE G   1      18.247  12.292 -37.250  1.00 42.16 LIG 0.28  HD
ENDBRANCH 10 15
ENDBRANCH 8 10
ENDBRANCH 5 6
BRANCH 5 19
ATOM     19  CB  GLU G   2      14.992   9.598 -37.092  1.00 31.40 LIG 0.04  C 
BRANCH 19 20
ATOM     20  CG  GLU G   2      13.498   9.604 -37.279  1.00 29.13 LIG 0.12  C 
BRANCH 20 21
ATOM     21  CD  GLU G   2      13.096   9.259 -38.685  1.00 32.73 LIG 0.17  C 
ATOM     22 OE2  GLU G   2      11.959   8.778 -38.865  1.00 36.24 LIG-0.65  OA
ATOM     23 OE1  GLU G   2      13.916   9.465 -39.606  1.00 30.62 LIG-0.65  OA
ENDBRANCH 20 21
ENDBRANCH 19 20
ENDBRANCH 5 19
ENDBRANCH 1 5
BRANCH 3 24
ATOM     24  CA  THR G   3      18.114   8.655 -33.799  1.00 22.88 LIG 0.20  C 
BRANCH 24 25
ATOM     25  C   THR G   3      18.141   7.220 -34.297  1.00 24.60 LIG 0.24  C 
ATOM     26  N   ASP G   4      17.334   6.937 -35.308  1.00 24.15 LIG-0.35  N 
ATOM     27 H    ASP G   4      16.813   7.508 -35.685  1.00 24.15 LIG 0.16  HD
ATOM     28 O    THR G   3      18.880   6.385 -33.781  1.00 25.42 LIG-0.27  OA
BRANCH 26 29
ATOM     29  CA  ASP G   4      17.270   5.594 -35.869  1.00 27.29 LIG 0.17  C 
BRANCH 29 30
ATOM     30  CB  ASP G   4      18.580   5.252 -36.572  1.00 26.38 LIG 0.15  C 
BRANCH 30 31
ATOM     31  CG  ASP G   4      18.751   6.031 -37.854  1.00 24.82 LIG 0.17  C 
ATOM     32 OD2  ASP G   4      19.166   5.456 -38.883  1.00 25.35 LIG-0.65  OA
ATOM     33 OD1  ASP G   4      18.458   7.237 -37.824  1.00 26.55 LIG-0.65  OA
ENDBRANCH 30 31
ENDBRANCH 29 30
BRANCH 29 34
ATOM     34  C   ASP G   4      16.897   4.531 -34.837  1.00 29.06 LIG 0.22  C 
ATOM     35 O    ASP G   4      15.794   4.531 -34.298  1.00 23.21 LIG-0.29  OA
ENDBRANCH 29 34
ENDBRANCH 26 29
ENDBRANCH 24 25
BRANCH 24 36
ATOM     36  CB  THR G   3      17.487   8.692 -32.399  1.00 24.93 LIG 0.15  C 
ATOM     37  CG2 THR G   3      18.086   7.605 -31.522  1.00 25.23 LIG 0.04  C 
BRANCH 36 38
ATOM     38 OG1  THR G   3      17.718   9.974 -31.806  1.00 25.78 LIG-0.39  OA
ATOM     39 HG1  THR G   3      18.176   9.882 -31.108  1.00 25.78 LIG 0.21  HD
ENDBRANCH 36 38
ENDBRANCH 24 36
ENDBRANCH 3 24
TORSDOF 17
ENDMDL
MODEL 35
USER: ADFR SOLUTION from run 156
USER: SCORE 14.793455 LL:  -3.237 LR: -12.743 RR:   0.000 FEB:  -7.672
USER: RMSD 8.475994
USER: SEED 155
USER: STATUS no improvement in best in 4 clusters for 5 generations
USER: GENES 19
USER: genes 0 Translation |==|  0.48065 0.52690 0.53368
USER: genes 1 Rotation |==|  0.83820 0.85659 0.42342 0.55095
USER: genes 2 Torsion [N]-C--CA-[N] |==|  0.95898
USER: genes 3 Torsion [C]-CA--N-[C] |==|  0.81296
USER: genes 4 Torsion [N]-C--CA-[N] |==|  0.54443
USER: genes 5 Torsion [C]-CA--CB-[CG2] |==|  0.48814
USER: genes 6 Torsion [CA]-CB--CG1-[CD1] |==|  0.42636
USER: genes 7 Torsion [C]-CA--N-[H3] |==|  0.95793
USER: genes 8 Torsion [C]-CA--CB-[CG] |==|  0.51896
USER: genes 9 Torsion [CA]-CB--CG-[CD] |==|  0.39990
USER: genes 10 Torsion [CB]-CG--CD-[OE2] |==|  0.82709
USER: genes 11 Torsion [C]-N--CA-[CB] |==|  0.27768
USER: genes 12 Torsion [N]-CA--C-[N] |==|  0.34717
USER: genes 13 Torsion [C]-N--CA-[C] |==|  0.67071
USER: genes 14 Torsion [N]-CA--CB-[CG] |==|  0.38850
USER: genes 15 Torsion [CA]-CB--CG-[OD1] |==|  0.67704
USER: genes 16 Torsion [N]-CA--C-[O] |==|  0.15900
USER: genes 17 Torsion [N]-CA--CB-[OG1] |==|  0.83939
USER: genes 18 Torsion [CA]-CB--OG1-[HG1] |==|  0.92357
ROOT
ATOM      1  C   GLU G   2      15.818   7.030 -35.419  1.00 25.53 LIG 0.24  C 
ATOM      2 O    GLU G   2      15.449   5.930 -35.026  1.00 27.72 LIG-0.27  OA
ATOM      3  N   THR G   3      17.081   7.301 -35.722  1.00 24.80 LIG-0.34  N 
ATOM      4 H    THR G   3      17.357   8.066 -36.002  1.00 24.80 LIG 0.16  HD
ENDROOT
BRANCH 1 5
ATOM      5  CA  GLU G   2      14.829   8.173 -35.582  1.00 28.49 LIG 0.18  C 
BRANCH 5 6
ATOM      6  N   GLU G   2      15.489   9.469 -35.718  1.00 29.38 LIG-0.35  N 
ATOM      7 H    GLU G   2      15.402   9.836 -36.491  1.00 29.38 LIG 0.16  HD
ATOM      8  C   ILE G   1      16.162  10.008 -34.705  1.00 32.49 LIG 0.25  C 
ATOM      9 O    ILE G   1      16.265   9.461 -33.612  1.00 35.08 LIG-0.27  OA
BRANCH 8 10
ATOM     10  CA  ILE G   1      16.829  11.356 -34.966  1.00 40.53 LIG 0.28  C 
BRANCH 10 11
ATOM     11  CB  ILE G   1      17.454  11.369 -36.378  1.00 45.86 LIG 0.02  C 
ATOM     12  CG2 ILE G   1      18.026  12.720 -36.699  1.00 44.63 LIG 0.01  C 
BRANCH 11 13
ATOM     13  CG1 ILE G   1      18.559  10.320 -36.501  1.00 53.07 LIG 0.00  C 
ATOM     14  CD1 ILE G   1      18.765   9.832 -37.922  1.00 50.29 LIG 0.01  C 
ENDBRANCH 11 13
ENDBRANCH 10 11
BRANCH 10 15
ATOM     15  N   ILE G   1      17.818  11.643 -33.937  1.00 42.16 LIG-0.07  N 
ATOM     16 H3   ILE G   1      17.694  11.096 -33.246  1.00 42.16 LIG 0.28  HD
ATOM     17 H1   ILE G   1      18.635  11.520 -34.268  1.00 42.16 LIG 0.28  HD
ATOM     18 H2   ILE G   1      17.730  12.487 -33.668  1.00 42.16 LIG 0.28  HD
ENDBRANCH 10 15
ENDBRANCH 8 10
ENDBRANCH 5 6
BRANCH 5 19
ATOM     19  CB  GLU G   2      13.930   7.902 -36.781  1.00 31.40 LIG 0.04  C 
BRANCH 19 20
ATOM     20  CG  GLU G   2      13.027   9.060 -37.116  1.00 29.13 LIG 0.12  C 
BRANCH 20 21
ATOM     21  CD  GLU G   2      12.823   9.217 -38.596  1.00 32.73 LIG 0.17  C 
ATOM     22 OE2  GLU G   2      13.824   9.465 -39.299  1.00 36.24 LIG-0.65  OA
ATOM     23 OE1  GLU G   2      11.666   9.097 -39.054  1.00 30.62 LIG-0.65  OA
ENDBRANCH 20 21
ENDBRANCH 19 20
ENDBRANCH 5 19
ENDBRANCH 1 5
BRANCH 3 24
ATOM     24  CA  THR G   3      18.119   6.291 -35.598  1.00 22.88 LIG 0.20  C 
BRANCH 24 25
ATOM     25  C   THR G   3      19.379   6.888 -34.994  1.00 24.60 LIG 0.24  C 
ATOM     26  N   ASP G   4      19.847   6.289 -33.909  1.00 24.15 LIG-0.35  N 
ATOM     27 H    ASP G   4      19.486   5.600 -33.544  1.00 24.15 LIG 0.16  HD
ATOM     28 O    THR G   3      19.919   7.869 -35.499  1.00 25.42 LIG-0.27  OA
BRANCH 26 29
ATOM     29  CA  ASP G   4      21.047   6.774 -33.239  1.00 27.29 LIG 0.17  C 
BRANCH 29 30
ATOM     30  CB  ASP G   4      20.706   7.261 -31.834  1.00 26.38 LIG 0.15  C 
BRANCH 30 31
ATOM     31  CG  ASP G   4      21.762   6.865 -30.830  1.00 24.82 LIG 0.17  C 
ATOM     32 OD2  ASP G   4      22.922   7.318 -30.933  1.00 25.35 LIG-0.65  OA
ATOM     33 OD1  ASP G   4      21.416   6.090 -29.924  1.00 26.55 LIG-0.65  OA
ENDBRANCH 30 31
ENDBRANCH 29 30
BRANCH 29 34
ATOM     34  C   ASP G   4      22.176   5.745 -33.215  1.00 29.06 LIG 0.22  C 
ATOM     35 O    ASP G   4      22.616   5.263 -34.254  1.00 23.21 LIG-0.29  OA
ENDBRANCH 29 34
ENDBRANCH 26 29
ENDBRANCH 24 25
BRANCH 24 36
ATOM     36  CB  THR G   3      18.459   5.658 -36.953  1.00 24.93 LIG 0.15  C 
ATOM     37  CG2 THR G   3      19.524   4.586 -36.785  1.00 25.23 LIG 0.04  C 
BRANCH 36 38
ATOM     38 OG1  THR G   3      17.278   5.082 -37.522  1.00 25.78 LIG-0.39  OA
ATOM     39 HG1  THR G   3      16.751   4.859 -36.907  1.00 25.78 LIG 0.21  HD
ENDBRANCH 36 38
ENDBRANCH 24 36
ENDBRANCH 3 24
TORSDOF 17
ENDMDL
MODEL 36
USER: ADFR SOLUTION from run 150
USER: SCORE 13.725756 LL:  -2.100 LR: -12.739 RR:   0.000 FEB:  -7.668
USER: RMSD 9.023949
USER: SEED 149
USER: STATUS no improvement in best in 9 clusters for 5 generations
USER: GENES 19
USER: genes 0 Translation |==|  0.54036 0.66993 0.46254
USER: genes 1 Rotation |==|  0.35590 0.37668 0.04122 0.55957
USER: genes 2 Torsion [N]-C--CA-[N] |==|  0.46779
USER: genes 3 Torsion [C]-CA--N-[C] |==|  0.75996
USER: genes 4 Torsion [N]-C--CA-[N] |==|  0.37556
USER: genes 5 Torsion [C]-CA--CB-[CG2] |==|  0.65611
USER: genes 6 Torsion [CA]-CB--CG1-[CD1] |==|  0.58407
USER: genes 7 Torsion [C]-CA--N-[H3] |==|  0.37845
USER: genes 8 Torsion [C]-CA--CB-[CG] |==|  0.63532
USER: genes 9 Torsion [CA]-CB--CG-[CD] |==|  0.39561
USER: genes 10 Torsion [CB]-CG--CD-[OE2] |==|  0.82601
USER: genes 11 Torsion [C]-N--CA-[CB] |==|  0.25556
USER: genes 12 Torsion [N]-CA--C-[N] |==|  0.43005
USER: genes 13 Torsion [C]-N--CA-[C] |==|  0.65553
USER: genes 14 Torsion [N]-CA--CB-[CG] |==|  0.12137
USER: genes 15 Torsion [CA]-CB--CG-[OD1] |==|  0.25431
USER: genes 16 Torsion [N]-CA--C-[O] |==|  0.90474
USER: genes 17 Torsion [N]-CA--CB-[OG1] |==|  0.61299
USER: genes 18 Torsion [CA]-CB--OG1-[HG1] |==|  0.97108
ROOT
ATOM      1  C   GLU G   2      16.892  10.033 -36.486  1.00 25.53 LIG 0.24  C 
ATOM      2 O    GLU G   2      17.676  10.521 -37.291  1.00 27.72 LIG-0.27  OA
ATOM      3  N   THR G   3      17.185   8.969 -35.749  1.00 24.80 LIG-0.34  N 
ATOM      4 H    THR G   3      16.649   8.616 -35.177  1.00 24.80 LIG 0.16  HD
ENDROOT
BRANCH 1 5
ATOM      5  CA  GLU G   2      15.509  10.630 -36.282  1.00 28.49 LIG 0.18  C 
BRANCH 5 6
ATOM      6  N   GLU G   2      15.364  11.937 -36.918  1.00 29.38 LIG-0.35  N 
ATOM      7 H    GLU G   2      15.037  11.915 -37.713  1.00 29.38 LIG 0.16  HD
ATOM      8  C   ILE G   1      15.721  13.053 -36.287  1.00 32.49 LIG 0.25  C 
ATOM      9 O    ILE G   1      16.182  13.053 -35.150  1.00 35.08 LIG-0.27  OA
BRANCH 8 10
ATOM     10  CA  ILE G   1      15.544  14.361 -37.054  1.00 40.53 LIG 0.28  C 
BRANCH 10 11
ATOM     11  CB  ILE G   1      16.905  14.825 -37.620  1.00 45.86 LIG 0.02  C 
ATOM     12  CG2 ILE G   1      17.234  16.214 -37.152  1.00 44.63 LIG 0.01  C 
BRANCH 11 13
ATOM     13  CG1 ILE G   1      18.029  13.879 -37.197  1.00 53.07 LIG 0.00  C 
ATOM     14  CD1 ILE G   1      19.371  14.571 -37.057  1.00 50.29 LIG 0.01  C 
ENDBRANCH 11 13
ENDBRANCH 10 11
BRANCH 10 15
ATOM     15  N   ILE G   1      14.942  15.374 -36.201  1.00 42.16 LIG-0.07  N 
ATOM     16 H3   ILE G   1      15.366  16.149 -36.315  1.00 42.16 LIG 0.28  HD
ATOM     17 H1   ILE G   1      14.084  15.473 -36.416  1.00 42.16 LIG 0.28  HD
ATOM     18 H2   ILE G   1      15.007  15.122 -35.350  1.00 42.16 LIG 0.28  HD
ENDBRANCH 10 15
ENDBRANCH 8 10
ENDBRANCH 5 6
BRANCH 5 19
ATOM     19  CB  GLU G   2      14.455   9.662 -36.803  1.00 31.40 LIG 0.04  C 
BRANCH 19 20
ATOM     20  CG  GLU G   2      13.442  10.320 -37.703  1.00 29.13 LIG 0.12  C 
BRANCH 20 21
ATOM     21  CD  GLU G   2      13.032   9.435 -38.845  1.00 32.73 LIG 0.17  C 
ATOM     22 OE2  GLU G   2      13.909   9.098 -39.665  1.00 36.24 LIG-0.65  OA
ATOM     23 OE1  GLU G   2      11.835   9.081 -38.924  1.00 30.62 LIG-0.65  OA
ENDBRANCH 20 21
ENDBRANCH 19 20
ENDBRANCH 5 19
ENDBRANCH 1 5
BRANCH 3 24
ATOM     24  CA  THR G   3      18.474   8.307 -35.862  1.00 22.88 LIG 0.20  C 
BRANCH 24 25
ATOM     25  C   THR G   3      18.327   6.809 -35.647  1.00 24.60 LIG 0.24  C 
ATOM     26  N   ASP G   4      19.253   6.045 -36.207  1.00 24.15 LIG-0.35  N 
ATOM     27 H    ASP G   4      19.912   6.346 -36.670  1.00 24.15 LIG 0.16  HD
ATOM     28 O    THR G   3      17.397   6.353 -34.986  1.00 25.42 LIG-0.27  OA
BRANCH 26 29
ATOM     29  CA  ASP G   4      19.215   4.595 -36.074  1.00 27.29 LIG 0.17  C 
BRANCH 29 30
ATOM     30  CB  ASP G   4      18.877   3.950 -37.415  1.00 26.38 LIG 0.15  C 
BRANCH 30 31
ATOM     31  CG  ASP G   4      19.639   4.585 -38.553  1.00 24.82 LIG 0.17  C 
ATOM     32 OD2  ASP G   4      19.168   5.580 -39.143  1.00 25.35 LIG-0.65  OA
ATOM     33 OD1  ASP G   4      20.731   4.075 -38.853  1.00 26.55 LIG-0.65  OA
ENDBRANCH 30 31
ENDBRANCH 29 30
BRANCH 29 34
ATOM     34  C   ASP G   4      20.499   4.015 -35.484  1.00 29.06 LIG 0.22  C 
ATOM     35 O    ASP G   4      21.591   4.517 -35.727  1.00 23.21 LIG-0.29  OA
ENDBRANCH 29 34
ENDBRANCH 26 29
ENDBRANCH 24 25
BRANCH 24 36
ATOM     36  CB  THR G   3      19.488   8.864 -34.855  1.00 24.93 LIG 0.15  C 
ATOM     37  CG2 THR G   3      19.596   7.947 -33.648  1.00 25.23 LIG 0.04  C 
BRANCH 36 38
ATOM     38 OG1  THR G   3      20.768   8.987 -35.485  1.00 25.78 LIG-0.39  OA
ATOM     39 HG1  THR G   3      20.752   8.601 -36.231  1.00 25.78 LIG 0.21  HD
ENDBRANCH 36 38
ENDBRANCH 24 36
ENDBRANCH 3 24
TORSDOF 17
ENDMDL
MODEL 37
USER: ADFR SOLUTION from run 169
USER: SCORE 15.351336 LL:  -3.309 LR: -12.715 RR:   0.000 FEB:  -7.644
USER: RMSD 5.850208
USER: SEED 168
USER: STATUS no improvement in best in 2 clusters for 5 generations
USER: GENES 19
USER: genes 0 Translation |==|  0.59385 0.55840 0.71824
USER: genes 1 Rotation |==|  0.81778 0.23233 0.74739 0.62716
USER: genes 2 Torsion [N]-C--CA-[N] |==|  0.16410
USER: genes 3 Torsion [C]-CA--N-[C] |==|  0.11667
USER: genes 4 Torsion [N]-C--CA-[N] |==|  0.96022
USER: genes 5 Torsion [C]-CA--CB-[CG2] |==|  0.54843
USER: genes 6 Torsion [CA]-CB--CG1-[CD1] |==|  0.39724
USER: genes 7 Torsion [C]-CA--N-[H3] |==|  0.45915
USER: genes 8 Torsion [C]-CA--CB-[CG] |==|  0.76519
USER: genes 9 Torsion [CA]-CB--CG-[CD] |==|  0.72385
USER: genes 10 Torsion [CB]-CG--CD-[OE2] |==|  0.63350
USER: genes 11 Torsion [C]-N--CA-[CB] |==|  0.87552
USER: genes 12 Torsion [N]-CA--C-[N] |==|  0.87611
USER: genes 13 Torsion [C]-N--CA-[C] |==|  0.51453
USER: genes 14 Torsion [N]-CA--CB-[CG] |==|  0.25684
USER: genes 15 Torsion [CA]-CB--CG-[OD1] |==|  0.81707
USER: genes 16 Torsion [N]-CA--C-[O] |==|  0.43040
USER: genes 17 Torsion [N]-CA--CB-[OG1] |==|  0.80571
USER: genes 18 Torsion [CA]-CB--OG1-[HG1] |==|  0.73566
ROOT
ATOM      1  C   GLU G   2      17.855   7.691 -32.650  1.00 25.53 LIG 0.24  C 
ATOM      2 O    GLU G   2      18.356   8.270 -33.607  1.00 27.72 LIG-0.27  OA
ATOM      3  N   THR G   3      16.671   7.095 -32.707  1.00 24.80 LIG-0.34  N 
ATOM      4 H    THR G   3      16.306   6.681 -32.047  1.00 24.80 LIG 0.16  HD
ENDROOT
BRANCH 1 5
ATOM      5  CA  GLU G   2      18.577   7.623 -31.314  1.00 28.49 LIG 0.18  C 
BRANCH 5 6
ATOM      6  N   GLU G   2      18.827   6.251 -30.882  1.00 29.38 LIG-0.35  N 
ATOM      7 H    GLU G   2      18.685   6.106 -30.046  1.00 29.38 LIG 0.16  HD
ATOM      8  C   ILE G   1      19.240   5.323 -31.741  1.00 32.49 LIG 0.25  C 
ATOM      9 O    ILE G   1      19.430   5.559 -32.930  1.00 35.08 LIG-0.27  OA
BRANCH 8 10
ATOM     10  CA  ILE G   1      19.489   3.927 -31.175  1.00 40.53 LIG 0.28  C 
BRANCH 10 11
ATOM     11  CB  ILE G   1      18.401   2.954 -31.681  1.00 45.86 LIG 0.02  C 
ATOM     12  CG2 ILE G   1      18.358   1.713 -30.837  1.00 44.63 LIG 0.01  C 
BRANCH 11 13
ATOM     13  CG1 ILE G   1      17.022   3.614 -31.664  1.00 53.07 LIG 0.00  C 
ATOM     14  CD1 ILE G   1      16.150   3.207 -32.837  1.00 50.29 LIG 0.01  C 
ENDBRANCH 11 13
ENDBRANCH 10 11
BRANCH 10 15
ATOM     15  N   ILE G   1      19.541   3.968 -29.722  1.00 42.16 LIG-0.07  N 
ATOM     16 H3   ILE G   1      19.472   3.141 -29.399  1.00 42.16 LIG 0.28  HD
ATOM     17 H1   ILE G   1      20.314   4.323 -29.462  1.00 42.16 LIG 0.28  HD
ATOM     18 H2   ILE G   1      18.869   4.464 -29.415  1.00 42.16 LIG 0.28  HD
ENDBRANCH 10 15
ENDBRANCH 8 10
ENDBRANCH 5 6
BRANCH 5 19
ATOM     19  CB  GLU G   2      19.882   8.404 -31.399  1.00 31.40 LIG 0.04  C 
BRANCH 19 20
ATOM     20  CG  GLU G   2      21.017   7.595 -31.970  1.00 29.13 LIG 0.12  C 
BRANCH 20 21
ATOM     21  CD  GLU G   2      21.921   7.045 -30.903  1.00 32.73 LIG 0.17  C 
ATOM     22 OE2  GLU G   2      23.151   7.191 -31.049  1.00 36.24 LIG-0.65  OA
ATOM     23 OE1  GLU G   2      21.402   6.466 -29.924  1.00 30.62 LIG-0.65  OA
ENDBRANCH 20 21
ENDBRANCH 19 20
ENDBRANCH 5 19
ENDBRANCH 1 5
BRANCH 3 24
ATOM     24  CA  THR G   3      15.883   7.100 -33.929  1.00 22.88 LIG 0.20  C 
BRANCH 24 25
ATOM     25  C   THR G   3      16.433   6.092 -34.925  1.00 24.60 LIG 0.24  C 
ATOM     26  N   ASP G   4      17.748   6.078 -35.075  1.00 24.15 LIG-0.35  N 
ATOM     27 H    ASP G   4      18.289   6.593 -34.650  1.00 24.15 LIG 0.16  HD
ATOM     28 O    THR G   3      15.683   5.340 -35.542  1.00 25.42 LIG-0.27  OA
BRANCH 26 29
ATOM     29  CA  ASP G   4      18.391   5.157 -36.005  1.00 27.29 LIG 0.17  C 
BRANCH 29 30
ATOM     30  CB  ASP G   4      17.885   5.401 -37.423  1.00 26.38 LIG 0.15  C 
BRANCH 30 31
ATOM     31  CG  ASP G   4      18.762   6.373 -38.174  1.00 24.82 LIG 0.17  C 
ATOM     32 OD2  ASP G   4      19.413   5.988 -39.168  1.00 25.35 LIG-0.65  OA
ATOM     33 OD1  ASP G   4      18.791   7.543 -37.758  1.00 26.55 LIG-0.65  OA
ENDBRANCH 30 31
ENDBRANCH 29 30
BRANCH 29 34
ATOM     34  C   ASP G   4      19.916   5.209 -35.939  1.00 29.06 LIG 0.22  C 
ATOM     35 O    ASP G   4      20.597   4.246 -36.277  1.00 23.21 LIG-0.29  OA
ENDBRANCH 29 34
ENDBRANCH 26 29
ENDBRANCH 24 25
BRANCH 24 36
ATOM     36  CB  THR G   3      15.855   8.489 -34.579  1.00 24.93 LIG 0.15  C 
ATOM     37  CG2 THR G   3      15.260   8.409 -35.976  1.00 25.23 LIG 0.04  C 
BRANCH 36 38
ATOM     38 OG1  THR G   3      15.077   9.379 -33.772  1.00 25.78 LIG-0.39  OA
ATOM     39 HG1  THR G   3      14.289   9.405 -34.062  1.00 25.78 LIG 0.21  HD
ENDBRANCH 36 38
ENDBRANCH 24 36
ENDBRANCH 3 24
TORSDOF 17
ENDMDL
MODEL 38
USER: ADFR SOLUTION from run 132
USER: SCORE 14.639080 LL:  -2.495 LR: -12.688 RR:   0.000 FEB:  -7.617
USER: RMSD 7.917149
USER: SEED 131
USER: STATUS no improvement in best in 10 clusters for 5 generations
USER: GENES 19
USER: genes 0 Translation |==|  0.48843 0.50846 0.52071
USER: genes 1 Rotation |==|  0.83060 0.78767 0.72290 0.59092
USER: genes 2 Torsion [N]-C--CA-[N] |==|  0.20342
USER: genes 3 Torsion [C]-CA--N-[C] |==|  0.74563
USER: genes 4 Torsion [N]-C--CA-[N] |==|  0.44522
USER: genes 5 Torsion [C]-CA--CB-[CG2] |==|  0.21675
USER: genes 6 Torsion [CA]-CB--CG1-[CD1] |==|  0.84877
USER: genes 7 Torsion [C]-CA--N-[H3] |==|  0.31638
USER: genes 8 Torsion [C]-CA--CB-[CG] |==|  0.52605
USER: genes 9 Torsion [CA]-CB--CG-[CD] |==|  0.37172
USER: genes 10 Torsion [CB]-CG--CD-[OE2] |==|  0.26976
USER: genes 11 Torsion [C]-N--CA-[CB] |==|  0.78316
USER: genes 12 Torsion [N]-CA--C-[N] |==|  0.22124
USER: genes 13 Torsion [C]-N--CA-[C] |==|  0.16905
USER: genes 14 Torsion [N]-CA--CB-[CG] |==|  0.74834
USER: genes 15 Torsion [CA]-CB--CG-[OD1] |==|  0.66129
USER: genes 16 Torsion [N]-CA--C-[O] |==|  0.29541
USER: genes 17 Torsion [N]-CA--CB-[OG1] |==|  0.07601
USER: genes 18 Torsion [CA]-CB--OG1-[HG1] |==|  0.19318
ROOT
ATOM      1  C   GLU G   2      15.958   6.643 -35.613  1.00 25.53 LIG 0.24  C 
ATOM      2 O    GLU G   2      15.801   5.722 -36.406  1.00 27.72 LIG-0.27  OA
ATOM      3  N   THR G   3      16.801   6.578 -34.591  1.00 24.80 LIG-0.34  N 
ATOM      4 H    THR G   3      16.927   7.215 -34.027  1.00 24.80 LIG 0.16  HD
ENDROOT
BRANCH 1 5
ATOM      5  CA  GLU G   2      15.176   7.939 -35.757  1.00 28.49 LIG 0.18  C 
BRANCH 5 6
ATOM      6  N   GLU G   2      16.005   9.041 -36.238  1.00 29.38 LIG-0.35  N 
ATOM      7 H    GLU G   2      16.048   9.111 -37.094  1.00 29.38 LIG 0.16  HD
ATOM      8  C   ILE G   1      16.628   9.854 -35.389  1.00 32.49 LIG 0.25  C 
ATOM      9 O    ILE G   1      16.544   9.733 -34.171  1.00 35.08 LIG-0.27  OA
BRANCH 8 10
ATOM     10  CA  ILE G   1      17.483  10.961 -36.003  1.00 40.53 LIG 0.28  C 
BRANCH 10 11
ATOM     11  CB  ILE G   1      18.808  10.368 -36.531  1.00 45.86 LIG 0.02  C 
ATOM     12  CG2 ILE G   1      18.599   9.674 -37.846  1.00 44.63 LIG 0.01  C 
BRANCH 11 13
ATOM     13  CG1 ILE G   1      19.867  11.458 -36.707  1.00 53.07 LIG 0.00  C 
ATOM     14  CD1 ILE G   1      19.401  12.607 -37.581  1.00 50.29 LIG 0.01  C 
ENDBRANCH 11 13
ENDBRANCH 10 11
BRANCH 10 15
ATOM     15  N   ILE G   1      17.716  12.021 -35.034  1.00 42.16 LIG-0.07  N 
ATOM     16 H3   ILE G   1      18.581  12.050 -34.827  1.00 42.16 LIG 0.28  HD
ATOM     17 H1   ILE G   1      17.469  12.802 -35.382  1.00 42.16 LIG 0.28  HD
ATOM     18 H2   ILE G   1      17.240  11.861 -34.299  1.00 42.16 LIG 0.28  HD
ENDBRANCH 10 15
ENDBRANCH 8 10
ENDBRANCH 5 6
BRANCH 5 19
ATOM     19  CB  GLU G   2      13.988   7.717 -36.684  1.00 31.40 LIG 0.04  C 
BRANCH 19 20
ATOM     20  CG  GLU G   2      13.289   8.997 -37.062  1.00 29.13 LIG 0.12  C 
BRANCH 20 21
ATOM     21  CD  GLU G   2      13.001   9.078 -38.534  1.00 32.73 LIG 0.17  C 
ATOM     22 OE2  GLU G   2      11.862   8.750 -38.924  1.00 36.24 LIG-0.65  OA
ATOM     23 OE1  GLU G   2      13.912   9.465 -39.299  1.00 30.62 LIG-0.65  OA
ENDBRANCH 20 21
ENDBRANCH 19 20
ENDBRANCH 5 19
ENDBRANCH 1 5
BRANCH 3 24
ATOM     24  CA  THR G   3      17.598   5.387 -34.346  1.00 22.88 LIG 0.20  C 
BRANCH 24 25
ATOM     25  C   THR G   3      18.186   4.860 -35.645  1.00 24.60 LIG 0.24  C 
ATOM     26  N   ASP G   4      19.266   5.483 -36.091  1.00 24.15 LIG-0.35  N 
ATOM     27 H    ASP G   4      19.639   6.147 -35.694  1.00 24.15 LIG 0.16  HD
ATOM     28 O    THR G   3      17.677   3.907 -36.229  1.00 25.42 LIG-0.27  OA
BRANCH 26 29
ATOM     29  CA  ASP G   4      19.917   5.070 -37.328  1.00 27.29 LIG 0.17  C 
BRANCH 29 30
ATOM     30  CB  ASP G   4      20.481   3.660 -37.182  1.00 26.38 LIG 0.15  C 
BRANCH 30 31
ATOM     31  CG  ASP G   4      21.906   3.673 -36.682  1.00 24.82 LIG 0.17  C 
ATOM     32 OD2  ASP G   4      22.180   4.215 -35.590  1.00 25.35 LIG-0.65  OA
ATOM     33 OD1  ASP G   4      22.759   3.125 -37.399  1.00 26.55 LIG-0.65  OA
ENDBRANCH 30 31
ENDBRANCH 29 30
BRANCH 29 34
ATOM     34  C   ASP G   4      19.007   5.184 -38.550  1.00 29.06 LIG 0.22  C 
ATOM     35 O    ASP G   4      19.166   6.076 -39.377  1.00 23.21 LIG-0.29  OA
ENDBRANCH 29 34
ENDBRANCH 26 29
ENDBRANCH 24 25
BRANCH 24 36
ATOM     36  CB  THR G   3      16.771   4.279 -33.680  1.00 24.93 LIG 0.15  C 
ATOM     37  CG2 THR G   3      16.916   4.346 -32.169  1.00 25.23 LIG 0.04  C 
BRANCH 36 38
ATOM     38 OG1  THR G   3      15.394   4.428 -34.042  1.00 25.78 LIG-0.39  OA
ATOM     39 HG1  THR G   3      15.296   4.244 -34.855  1.00 25.78 LIG 0.21  HD
ENDBRANCH 36 38
ENDBRANCH 24 36
ENDBRANCH 3 24
TORSDOF 17
ENDMDL
MODEL 39
USER: ADFR SOLUTION from run 126
USER: SCORE 13.899697 LL:  -2.714 LR: -12.693 RR:   0.000 FEB:  -7.622
USER: RMSD 7.678021
USER: SEED 125
USER: STATUS searching
USER: GENES 19
USER: genes 0 Translation |==|  0.45739 0.54655 0.49773
USER: genes 1 Rotation |==|  0.88360 0.67919 0.76178 0.54703
USER: genes 2 Torsion [N]-C--CA-[N] |==|  0.11033
USER: genes 3 Torsion [C]-CA--N-[C] |==|  0.74384
USER: genes 4 Torsion [N]-C--CA-[N] |==|  0.44343
USER: genes 5 Torsion [C]-CA--CB-[CG2] |==|  0.39571
USER: genes 6 Torsion [CA]-CB--CG1-[CD1] |==|  0.20117
USER: genes 7 Torsion [C]-CA--N-[H3] |==|  0.08952
USER: genes 8 Torsion [C]-CA--CB-[CG] |==|  0.22067
USER: genes 9 Torsion [CA]-CB--CG-[CD] |==|  0.64944
USER: genes 10 Torsion [CB]-CG--CD-[OE2] |==|  0.93257
USER: genes 11 Torsion [C]-N--CA-[CB] |==|  0.25370
USER: genes 12 Torsion [N]-CA--C-[N] |==|  0.44986
USER: genes 13 Torsion [C]-N--CA-[C] |==|  0.57062
USER: genes 14 Torsion [N]-CA--CB-[CG] |==|  0.20320
USER: genes 15 Torsion [CA]-CB--CG-[OD1] |==|  0.25927
USER: genes 16 Torsion [N]-CA--C-[O] |==|  0.97344
USER: genes 17 Torsion [N]-CA--CB-[OG1] |==|  0.57398
USER: genes 18 Torsion [CA]-CB--OG1-[HG1] |==|  0.97843
ROOT
ATOM      1  C   GLU G   2      15.399   7.442 -35.958  1.00 25.53 LIG 0.24  C 
ATOM      2 O    GLU G   2      15.020   7.033 -37.049  1.00 27.72 LIG-0.27  OA
ATOM      3  N   THR G   3      16.131   6.710 -35.128  1.00 24.80 LIG-0.34  N 
ATOM      4 H    THR G   3      16.408   6.982 -34.360  1.00 24.80 LIG 0.16  HD
ENDROOT
BRANCH 1 5
ATOM      5  CA  GLU G   2      15.043   8.841 -35.482  1.00 28.49 LIG 0.18  C 
BRANCH 5 6
ATOM      6  N   GLU G   2      16.149   9.495 -34.787  1.00 29.38 LIG-0.35  N 
ATOM      7 H    GLU G   2      16.690   9.926 -35.298  1.00 29.38 LIG 0.16  HD
ATOM      8  C   ILE G   1      16.278   9.409 -33.466  1.00 32.49 LIG 0.25  C 
ATOM      9 O    ILE G   1      15.487   8.789 -32.761  1.00 35.08 LIG-0.27  OA
BRANCH 8 10
ATOM     10  CA  ILE G   1      17.483  10.114 -32.847  1.00 40.53 LIG 0.28  C 
BRANCH 10 11
ATOM     11  CB  ILE G   1      18.760   9.281 -33.091  1.00 45.86 LIG 0.02  C 
ATOM     12  CG2 ILE G   1      19.937  10.173 -33.367  1.00 44.63 LIG 0.01  C 
BRANCH 11 13
ATOM     13  CG1 ILE G   1      19.080   8.397 -31.884  1.00 53.07 LIG 0.00  C 
ATOM     14  CD1 ILE G   1      18.129   7.224 -31.734  1.00 50.29 LIG 0.01  C 
ENDBRANCH 11 13
ENDBRANCH 10 11
BRANCH 10 15
ATOM     15  N   ILE G   1      17.259  10.355 -31.430  1.00 42.16 LIG-0.07  N 
ATOM     16 H3   ILE G   1      16.758   9.701 -31.092  1.00 42.16 LIG 0.28  HD
ATOM     17 H1   ILE G   1      18.041  10.377 -31.005  1.00 42.16 LIG 0.28  HD
ATOM     18 H2   ILE G   1      16.842  11.134 -31.323  1.00 42.16 LIG 0.28  HD
ENDBRANCH 10 15
ENDBRANCH 8 10
ENDBRANCH 5 6
BRANCH 5 19
ATOM     19  CB  GLU G   2      14.584   9.682 -36.667  1.00 31.40 LIG 0.04  C 
BRANCH 19 20
ATOM     20  CG  GLU G   2      13.158   9.409 -37.066  1.00 29.13 LIG 0.12  C 
BRANCH 20 21
ATOM     21  CD  GLU G   2      13.028   9.060 -38.522  1.00 32.73 LIG 0.17  C 
ATOM     22 OE2  GLU G   2      13.916   9.465 -39.299  1.00 36.24 LIG-0.65  OA
ATOM     23 OE1  GLU G   2      12.040   8.387 -38.888  1.00 30.62 LIG-0.65  OA
ENDBRANCH 20 21
ENDBRANCH 19 20
ENDBRANCH 5 19
ENDBRANCH 1 5
BRANCH 3 24
ATOM     24  CA  THR G   3      16.527   5.354 -35.470  1.00 22.88 LIG 0.20  C 
BRANCH 24 25
ATOM     25  C   THR G   3      16.594   4.485 -34.224  1.00 24.60 LIG 0.24  C 
ATOM     26  N   ASP G   4      16.576   3.176 -34.424  1.00 24.15 LIG-0.35  N 
ATOM     27 H    ASP G   4      16.532   2.806 -35.199  1.00 24.15 LIG 0.16  HD
ATOM     28 O    THR G   3      16.663   4.988 -33.106  1.00 25.42 LIG-0.27  OA
BRANCH 26 29
ATOM     29  CA  ASP G   4      16.631   2.243 -33.307  1.00 27.29 LIG 0.17  C 
BRANCH 29 30
ATOM     30  CB  ASP G   4      15.253   2.104 -32.666  1.00 26.38 LIG 0.15  C 
BRANCH 30 31
ATOM     31  CG  ASP G   4      14.309   1.304 -33.531  1.00 24.82 LIG 0.17  C 
ATOM     32 OD2  ASP G   4      13.647   1.873 -34.424  1.00 25.35 LIG-0.65  OA
ATOM     33 OD1  ASP G   4      14.237   0.084 -33.307  1.00 26.55 LIG-0.65  OA
ENDBRANCH 30 31
ENDBRANCH 29 30
BRANCH 29 34
ATOM     34  C   ASP G   4      17.207   0.881 -33.693  1.00 29.06 LIG 0.22  C 
ATOM     35 O    ASP G   4      17.409   0.589 -34.867  1.00 23.21 LIG-0.29  OA
ENDBRANCH 29 34
ENDBRANCH 26 29
ENDBRANCH 24 25
BRANCH 24 36
ATOM     36  CB  THR G   3      17.886   5.322 -36.181  1.00 24.93 LIG 0.15  C 
ATOM     37  CG2 THR G   3      19.016   5.293 -35.165  1.00 25.23 LIG 0.04  C 
BRANCH 36 38
ATOM     38 OG1  THR G   3      17.959   4.164 -37.020  1.00 25.78 LIG-0.39  OA
ATOM     39 HG1  THR G   3      17.291   3.674 -36.880  1.00 25.78 LIG 0.21  HD
ENDBRANCH 36 38
ENDBRANCH 24 36
ENDBRANCH 3 24
TORSDOF 17
ENDMDL
MODEL 40
USER: ADFR SOLUTION from run 55
USER: SCORE 14.629190 LL:  -2.906 LR: -12.692 RR:   0.000 FEB:  -7.621
USER: RMSD 6.750387
USER: SEED 54
USER: STATUS no improvement in best in 1 clusters for 5 generations
USER: GENES 19
USER: genes 0 Translation |==|  0.49492 0.63005 0.52683
USER: genes 1 Rotation |==|  0.66186 0.43089 0.20257 0.86133
USER: genes 2 Torsion [N]-C--CA-[N] |==|  0.03909
USER: genes 3 Torsion [C]-CA--N-[C] |==|  0.20000
USER: genes 4 Torsion [N]-C--CA-[N] |==|  0.92664
USER: genes 5 Torsion [C]-CA--CB-[CG2] |==|  0.26209
USER: genes 6 Torsion [CA]-CB--CG1-[CD1] |==|  0.28975
USER: genes 7 Torsion [C]-CA--N-[H3] |==|  0.94002
USER: genes 8 Torsion [C]-CA--CB-[CG] |==|  0.16604
USER: genes 9 Torsion [CA]-CB--CG-[CD] |==|  0.28294
USER: genes 10 Torsion [CB]-CG--CD-[OE2] |==|  0.23135
USER: genes 11 Torsion [C]-N--CA-[CB] |==|  0.21975
USER: genes 12 Torsion [N]-CA--C-[N] |==|  0.86593
USER: genes 13 Torsion [C]-N--CA-[C] |==|  0.78772
USER: genes 14 Torsion [N]-CA--CB-[CG] |==|  0.53176
USER: genes 15 Torsion [CA]-CB--CG-[OD1] |==|  0.31984
USER: genes 16 Torsion [N]-CA--C-[O] |==|  0.00838
USER: genes 17 Torsion [N]-CA--CB-[OG1] |==|  0.42211
USER: genes 18 Torsion [CA]-CB--OG1-[HG1] |==|  0.84491
ROOT
ATOM      1  C   GLU G   2      16.075   9.196 -35.522  1.00 25.53 LIG 0.24  C 
ATOM      2 O    GLU G   2      15.416  10.229 -35.552  1.00 27.72 LIG-0.27  OA
ATOM      3  N   THR G   3      17.078   9.005 -34.674  1.00 24.80 LIG-0.34  N 
ATOM      4 H    THR G   3      17.549   8.287 -34.637  1.00 24.80 LIG 0.16  HD
ENDROOT
BRANCH 1 5
ATOM      5  CA  GLU G   2      15.775   8.051 -36.474  1.00 28.49 LIG 0.18  C 
BRANCH 5 6
ATOM      6  N   GLU G   2      16.432   6.807 -36.079  1.00 29.38 LIG-0.35  N 
ATOM      7 H    GLU G   2      17.090   6.574 -36.581  1.00 29.38 LIG 0.16  HD
ATOM      8  C   ILE G   1      16.017   6.116 -35.021  1.00 32.49 LIG 0.25  C 
ATOM      9 O    ILE G   1      15.076   6.477 -34.321  1.00 35.08 LIG-0.27  OA
BRANCH 8 10
ATOM     10  CA  ILE G   1      16.765   4.821 -34.712  1.00 40.53 LIG 0.28  C 
BRANCH 10 11
ATOM     11  CB  ILE G   1      17.831   5.077 -33.624  1.00 45.86 LIG 0.02  C 
ATOM     12  CG2 ILE G   1      17.291   4.759 -32.259  1.00 44.63 LIG 0.01  C 
BRANCH 11 13
ATOM     13  CG1 ILE G   1      19.083   4.235 -33.872  1.00 53.07 LIG 0.00  C 
ATOM     14  CD1 ILE G   1      20.241   5.038 -34.434  1.00 50.29 LIG 0.01  C 
ENDBRANCH 11 13
ENDBRANCH 10 11
BRANCH 10 15
ATOM     15  N   ILE G   1      17.353   4.271 -35.924  1.00 42.16 LIG-0.07  N 
ATOM     16 H3   ILE G   1      16.926   4.594 -36.635  1.00 42.16 LIG 0.28  HD
ATOM     17 H1   ILE G   1      18.212   4.499 -35.967  1.00 42.16 LIG 0.28  HD
ATOM     18 H2   ILE G   1      17.282   3.384 -35.912  1.00 42.16 LIG 0.28  HD
ENDBRANCH 10 15
ENDBRANCH 8 10
ENDBRANCH 5 6
BRANCH 5 19
ATOM     19  CB  GLU G   2      14.268   7.852 -36.574  1.00 31.40 LIG 0.04  C 
BRANCH 19 20
ATOM     20  CG  GLU G   2      13.544   9.072 -37.080  1.00 29.13 LIG 0.12  C 
BRANCH 20 21
ATOM     21  CD  GLU G   2      13.164   8.952 -38.529  1.00 32.73 LIG 0.17  C 
ATOM     22 OE2  GLU G   2      12.113   8.340 -38.807  1.00 36.24 LIG-0.65  OA
ATOM     23 OE1  GLU G   2      13.916   9.465 -39.386  1.00 30.62 LIG-0.65  OA
ENDBRANCH 20 21
ENDBRANCH 19 20
ENDBRANCH 5 19
ENDBRANCH 1 5
BRANCH 3 24
ATOM     24  CA  THR G   3      17.464  10.033 -33.721  1.00 22.88 LIG 0.20  C 
BRANCH 24 25
ATOM     25  C   THR G   3      18.891   9.815 -33.247  1.00 24.60 LIG 0.24  C 
ATOM     26  N   ASP G   4      19.198   8.585 -32.862  1.00 24.15 LIG-0.35  N 
ATOM     27 H    ASP G   4      18.647   7.926 -32.868  1.00 24.15 LIG 0.16  HD
ATOM     28 O    THR G   3      19.701  10.739 -33.233  1.00 25.42 LIG-0.27  OA
BRANCH 26 29
ATOM     29  CA  ASP G   4      20.534   8.256 -32.384  1.00 27.29 LIG 0.17  C 
BRANCH 29 30
ATOM     30  CB  ASP G   4      20.492   6.997 -31.524  1.00 26.38 LIG 0.15  C 
BRANCH 30 31
ATOM     31  CG  ASP G   4      21.791   6.775 -30.787  1.00 24.82 LIG 0.17  C 
ATOM     32 OD2  ASP G   4      22.840   6.543 -31.425  1.00 25.35 LIG-0.65  OA
ATOM     33 OD1  ASP G   4      21.753   6.840 -29.547  1.00 26.55 LIG-0.65  OA
ENDBRANCH 30 31
ENDBRANCH 29 30
BRANCH 29 34
ATOM     34  C   ASP G   4      21.558   8.129 -33.511  1.00 29.06 LIG 0.22  C 
ATOM     35 O    ASP G   4      21.247   8.350 -34.677  1.00 23.21 LIG-0.29  OA
ENDBRANCH 29 34
ENDBRANCH 26 29
ENDBRANCH 24 25
BRANCH 24 36
ATOM     36  CB  THR G   3      16.528  10.059 -32.506  1.00 24.93 LIG 0.15  C 
ATOM     37  CG2 THR G   3      15.991   8.667 -32.219  1.00 25.23 LIG 0.04  C 
BRANCH 36 38
ATOM     38 OG1  THR G   3      17.240  10.548 -31.365  1.00 25.78 LIG-0.39  OA
ATOM     39 HG1  THR G   3      17.924  10.078 -31.238  1.00 25.78 LIG 0.21  HD
ENDBRANCH 36 38
ENDBRANCH 24 36
ENDBRANCH 3 24
TORSDOF 17
ENDMDL
MODEL 41
USER: ADFR SOLUTION from run 1
USER: SCORE 13.805222 LL:  -1.858 LR: -12.658 RR:   0.000 FEB:  -7.587
USER: RMSD 8.229312
USER: SEED 174688
USER: STATUS no improvement in best in 13 clusters for 5 generations
USER: GENES 19
USER: genes 0 Translation |==|  0.49764 0.57347 0.55246
USER: genes 1 Rotation |==|  0.73242 0.74914 0.86171 0.55551
USER: genes 2 Torsion [N]-C--CA-[N] |==|  0.16667
USER: genes 3 Torsion [C]-CA--N-[C] |==|  0.15665
USER: genes 4 Torsion [N]-C--CA-[N] |==|  0.36434
USER: genes 5 Torsion [C]-CA--CB-[CG2] |==|  0.03499
USER: genes 6 Torsion [CA]-CB--CG1-[CD1] |==|  0.54930
USER: genes 7 Torsion [C]-CA--N-[H3] |==|  0.36606
USER: genes 8 Torsion [C]-CA--CB-[CG] |==|  0.34550
USER: genes 9 Torsion [CA]-CB--CG-[CD] |==|  0.53925
USER: genes 10 Torsion [CB]-CG--CD-[OE2] |==|  0.45348
USER: genes 11 Torsion [C]-N--CA-[CB] |==|  0.56249
USER: genes 12 Torsion [N]-CA--C-[N] |==|  0.35793
USER: genes 13 Torsion [C]-N--CA-[C] |==|  0.55006
USER: genes 14 Torsion [N]-CA--CB-[CG] |==|  0.19537
USER: genes 15 Torsion [CA]-CB--CG-[OD1] |==|  0.78074
USER: genes 16 Torsion [N]-CA--C-[O] |==|  0.99401
USER: genes 17 Torsion [N]-CA--CB-[OG1] |==|  0.76996
USER: genes 18 Torsion [CA]-CB--OG1-[HG1] |==|  0.52151
ROOT
ATOM      1  C   GLU G   2      16.123   8.008 -35.137  1.00 25.53 LIG 0.24  C 
ATOM      2 O    GLU G   2      16.649   7.537 -36.139  1.00 27.72 LIG-0.27  OA
ATOM      3  N   THR G   3      16.448   7.630 -33.907  1.00 24.80 LIG-0.34  N 
ATOM      4 H    THR G   3      16.092   7.951 -33.193  1.00 24.80 LIG 0.16  HD
ENDROOT
BRANCH 1 5
ATOM      5  CA  GLU G   2      15.045   9.074 -35.248  1.00 28.49 LIG 0.18  C 
BRANCH 5 6
ATOM      6  N   GLU G   2      15.416  10.317 -34.576  1.00 29.38 LIG-0.35  N 
ATOM      7 H    GLU G   2      14.857  10.581 -33.978  1.00 29.38 LIG 0.16  HD
ATOM      8  C   ILE G   1      16.535  10.962 -34.892  1.00 32.49 LIG 0.25  C 
ATOM      9 O    ILE G   1      17.314  10.558 -35.749  1.00 35.08 LIG-0.27  OA
BRANCH 8 10
ATOM     10  CA  ILE G   1      16.812  12.262 -34.140  1.00 40.53 LIG 0.28  C 
BRANCH 10 11
ATOM     11  CB  ILE G   1      16.538  13.470 -35.063  1.00 45.86 LIG 0.02  C 
ATOM     12  CG2 ILE G   1      15.800  13.044 -36.300  1.00 44.63 LIG 0.01  C 
BRANCH 11 13
ATOM     13  CG1 ILE G   1      15.718  14.540 -34.340  1.00 53.07 LIG 0.00  C 
ATOM     14  CD1 ILE G   1      15.061  15.529 -35.284  1.00 50.29 LIG 0.01  C 
ENDBRANCH 11 13
ENDBRANCH 10 11
BRANCH 10 15
ATOM     15  N   ILE G   1      18.174  12.274 -33.628  1.00 42.16 LIG-0.07  N 
ATOM     16 H3   ILE G   1      18.562  13.048 -33.835  1.00 42.16 LIG 0.28  HD
ATOM     17 H1   ILE G   1      18.160  12.177 -32.744  1.00 42.16 LIG 0.28  HD
ATOM     18 H2   ILE G   1      18.634  11.605 -33.993  1.00 42.16 LIG 0.28  HD
ENDBRANCH 10 15
ENDBRANCH 8 10
ENDBRANCH 5 6
BRANCH 5 19
ATOM     19  CB  GLU G   2      14.733   9.331 -36.717  1.00 31.40 LIG 0.04  C 
BRANCH 19 20
ATOM     20  CG  GLU G   2      13.274   9.154 -37.049  1.00 29.13 LIG 0.12  C 
BRANCH 20 21
ATOM     21  CD  GLU G   2      13.031   9.075 -38.529  1.00 32.73 LIG 0.17  C 
ATOM     22 OE2  GLU G   2      11.937   8.617 -38.916  1.00 36.24 LIG-0.65  OA
ATOM     23 OE1  GLU G   2      13.932   9.465 -39.303  1.00 30.62 LIG-0.65  OA
ENDBRANCH 20 21
ENDBRANCH 19 20
ENDBRANCH 5 19
ENDBRANCH 1 5
BRANCH 3 24
ATOM     24  CA  THR G   3      17.459   6.612 -33.675  1.00 22.88 LIG 0.20  C 
BRANCH 24 25
ATOM     25  C   THR G   3      17.405   5.546 -34.756  1.00 24.60 LIG 0.24  C 
ATOM     26  N   ASP G   4      18.552   5.259 -35.352  1.00 24.15 LIG-0.35  N 
ATOM     27 H    ASP G   4      19.302   5.633 -35.162  1.00 24.15 LIG 0.16  HD
ATOM     28 O    THR G   3      16.347   4.990 -35.044  1.00 25.42 LIG-0.27  OA
BRANCH 26 29
ATOM     29  CA  ASP G   4      18.624   4.257 -36.407  1.00 27.29 LIG 0.17  C 
BRANCH 29 30
ATOM     30  CB  ASP G   4      17.984   4.789 -37.686  1.00 26.38 LIG 0.15  C 
BRANCH 30 31
ATOM     31  CG  ASP G   4      18.816   5.877 -38.321  1.00 24.82 LIG 0.17  C 
ATOM     32 OD2  ASP G   4      19.541   5.615 -39.304  1.00 25.35 LIG-0.65  OA
ATOM     33 OD1  ASP G   4      18.735   7.012 -37.823  1.00 26.55 LIG-0.65  OA
ENDBRANCH 30 31
ENDBRANCH 29 30
BRANCH 29 34
ATOM     34  C   ASP G   4      20.045   3.756 -36.661  1.00 29.06 LIG 0.22  C 
ATOM     35 O    ASP G   4      20.999   4.215 -36.041  1.00 23.21 LIG-0.29  OA
ENDBRANCH 29 34
ENDBRANCH 26 29
ENDBRANCH 24 25
BRANCH 24 36
ATOM     36  CB  THR G   3      17.291   5.948 -32.302  1.00 24.93 LIG 0.15  C 
ATOM     37  CG2 THR G   3      17.921   4.565 -32.301  1.00 25.23 LIG 0.04  C 
BRANCH 36 38
ATOM     38 OG1  THR G   3      17.908   6.761 -31.299  1.00 25.78 LIG-0.39  OA
ATOM     39 HG1  THR G   3      17.910   6.351 -30.566  1.00 25.78 LIG 0.21  HD
ENDBRANCH 36 38
ENDBRANCH 24 36
ENDBRANCH 3 24
TORSDOF 17
ENDMDL
