MODEL 1
USER: ADFR SOLUTION from run 47
USER: SCORE 20.067690 LL:  -4.086 LR: -20.601 RR:   0.000 FEB: -13.441
USER: RMSD 8.901461
USER: SEED 46
USER: STATUS no improvement in best in 1 clusters for 5 generations
USER: GENES 26
USER: genes 0 Translation |==|  0.39869 0.52731 0.34724
USER: genes 1 Rotation |==|  0.24247 0.90500 0.45249 0.63188
USER: genes 2 Torsion [N]-C--CA-[N] |==|  0.97459
USER: genes 3 Torsion [C]-CA--N-[C] |==|  0.19451
USER: genes 4 Torsion [N]-C--CA-[N] |==|  0.83640
USER: genes 5 Torsion [C]-CA--CB-[CG] |==|  0.36449
USER: genes 6 Torsion [CA]-CB--CG-[CD] |==|  0.33587
USER: genes 7 Torsion [CB]-CG--CD-[CE] |==|  0.66954
USER: genes 8 Torsion [CG]-CD--CE-[NZ] |==|  0.49040
USER: genes 9 Torsion [CD]-CE--NZ-[HZ1] |==|  0.64264
USER: genes 10 Torsion [C]-CA--N-[C] |==|  0.77198
USER: genes 11 Torsion [N]-C--CA-[N] |==|  0.31488
USER: genes 12 Torsion [C]-CA--CB-[CG] |==|  0.51813
USER: genes 13 Torsion [CA]-CB--CG-[CD] |==|  0.89634
USER: genes 14 Torsion [CB]-CG--CD-[NE2] |==|  0.88117
USER: genes 15 Torsion [C]-N--CA-[CB] |==|  0.17026
USER: genes 16 Torsion [N]-CA--C-[N] |==|  0.39328
USER: genes 17 Torsion [C]-N--CA-[C] |==|  0.20647
USER: genes 18 Torsion [N]-CA--C-[N] |==|  0.40181
USER: genes 19 Torsion [C]-N--CA-[CB] |==|  0.41672
USER: genes 20 Torsion [N]-CA--C-[N] |==|  0.40059
USER: genes 21 Torsion [C]-N--CA-[CB] |==|  0.32705
USER: genes 22 Torsion [N]-CA--CB-[CG2] |==|  0.25562
USER: genes 23 Torsion [N]-CA--C-[OXT] |==|  0.56637
USER: genes 24 Torsion [N]-CA--CB-[CG] |==|  0.69077
USER: genes 25 Torsion [CA]-CB--CG-[OD1] |==|  0.73323
ROOT
ATOM      1  C   GLN B  14      -5.349  33.137 -11.825  1.00 10.58 LIG 0.24  C 
ATOM      2 O    GLN B  14      -5.009  34.260 -11.433  1.00 11.08 LIG-0.27  OA
ATOM      3  N   ALA B  15      -5.030  31.988 -11.177  1.00  8.59 LIG-0.35  N 
ATOM      4 H    ALA B  15      -5.237  31.196 -11.439  1.00  8.59 LIG 0.16  HD
ENDROOT
BRANCH 1 5
ATOM      5  CA  GLN B  14      -6.168  32.989 -13.122  1.00 10.91 LIG 0.18  C 
BRANCH 5 6
ATOM      6  N   GLN B  14      -6.259  31.570 -13.519  1.00 11.57 LIG-0.35  N 
ATOM      7 H    GLN B  14      -5.815  31.357 -14.224  1.00 11.57 LIG 0.16  HD
ATOM      8  C   LYS B  13      -6.991  30.724 -12.801  0.75 12.06 LIG 0.24  C 
ATOM      9 O    LYS B  13      -7.598  31.025 -11.761  0.75 12.45 LIG-0.27  OA
BRANCH 8 10
ATOM     10  CA  LYS B  13      -6.989  29.283 -13.331  0.75 15.41 LIG 0.18  C 
BRANCH 10 11
ATOM     11  CB  LYS B  13      -5.604  28.599 -13.267  0.75 17.54 LIG 0.04  C 
BRANCH 11 12
ATOM     12  CG  LYS B  13      -5.487  27.194 -12.660  0.75 22.88 LIG 0.00  C 
BRANCH 12 13
ATOM     13  CD  LYS B  13      -4.905  26.179 -13.690  0.75 30.51 LIG 0.03  C 
BRANCH 13 14
ATOM     14  CE  LYS B  13      -5.878  25.022 -14.007  0.75 32.79 LIG 0.23  C 
BRANCH 14 15
ATOM     15  NZ  LYS B  13      -5.435  24.053 -15.038  0.75 35.43 LIG-0.08  N 
ATOM     16 HZ1  LYS B  13      -6.075  23.956 -15.648  0.75 35.43 LIG 0.27  HD
ATOM     17 HZ2  LYS B  13      -4.695  24.354 -15.430  0.75 35.43 LIG 0.27  HD
ATOM     18 HZ3  LYS B  13      -5.269  23.267 -14.655  0.75 35.43 LIG 0.27  HD
ENDBRANCH 14 15
ENDBRANCH 13 14
ENDBRANCH 12 13
ENDBRANCH 11 12
ENDBRANCH 10 11
BRANCH 10 19
ATOM     19  N   LYS B  13      -7.500  29.272 -14.706  0.75 16.03 LIG-0.35  N 
ATOM     20  C   ALA B  12      -8.835  29.278 -14.903  0.50 20.56 LIG 0.26  C 
ATOM     21 O    ALA B  12      -9.621  29.277 -13.978  0.50 22.07 LIG-0.27  OA
ATOM     22 H    LYS B  13      -6.905  29.262 -15.326  0.75 16.03 LIG 0.16  HD
BRANCH 20 23
ATOM     23  CA  ALA B  12      -9.411  29.346 -16.315  0.50 23.14 LIG 0.40  C 
ATOM     24  N   ALA B  12     -10.121  28.127 -16.711  0.50 24.66 LIG 0.61  N 
ATOM     25  CB  ALA B  12     -10.279  30.610 -16.496  0.50 23.20 LIG 0.06  C 
ENDBRANCH 20 23
ENDBRANCH 10 19
ENDBRANCH 8 10
ENDBRANCH 5 6
BRANCH 5 26
ATOM     26  CB  GLN B  14      -7.557  33.589 -12.932  1.00 11.50 LIG 0.04  C 
BRANCH 26 27
ATOM     27  CG  GLN B  14      -8.548  33.364 -14.123  1.00 13.46 LIG 0.10  C 
BRANCH 27 28
ATOM     28  CD  GLN B  14      -7.924  33.434 -15.465  1.00 12.39 LIG 0.21  C 
ATOM     29 OE1  GLN B  14      -8.226  32.640 -16.326  1.00 14.45 LIG-0.27  OA
ATOM     30  NE2 GLN B  14      -7.053  34.403 -15.661  1.00 17.10 LIG-0.37  N 
ATOM     31 22HE GLN B  14      -6.673  34.492 -16.428  1.00 17.10 LIG 0.16  HD
ATOM     32 21HE GLN B  14      -6.864  34.948 -15.023  1.00 17.10 LIG 0.16  HD
ENDBRANCH 27 28
ENDBRANCH 26 27
ENDBRANCH 5 26
ENDBRANCH 1 5
BRANCH 3 33
ATOM     33  CA  ALA B  15      -4.282  32.063  -9.942  1.00  7.39 LIG 0.17  C 
ATOM     34  CB  ALA B  15      -5.135  32.887  -8.862  1.00  8.95 LIG 0.04  C 
BRANCH 33 35
ATOM     35  C   ALA B  15      -3.967  30.626  -9.491  1.00  7.55 LIG 0.24  C 
ATOM     36  N   GLY B  16      -2.783  30.389  -8.950  1.00  7.69 LIG-0.35  N 
ATOM     37 H    GLY B  16      -2.185  30.995  -8.827  1.00  7.69 LIG 0.16  HD
ATOM     38 O    ALA B  15      -4.808  29.746  -9.618  1.00  7.87 LIG-0.27  OA
BRANCH 36 39
ATOM     39  CA  GLY B  16      -2.376  29.039  -8.503  1.00  6.73 LIG 0.23  C 
BRANCH 39 40
ATOM     40  C   GLY B  16      -2.040  28.103  -9.616  1.00  7.46 LIG 0.24  C 
ATOM     41 O    GLY B  16      -2.676  28.114 -10.658  1.00  8.30 LIG-0.27  OA
ATOM     42  N   ASP B  17      -1.062  27.261  -9.359  1.00  6.73 LIG-0.35  N 
ATOM     43 H    ASP B  17      -0.586  27.285  -8.644  1.00  6.73 LIG 0.16  HD
BRANCH 42 44
ATOM     44  CA  ASP B  17      -0.704  26.205 -10.279  1.00  7.41 LIG 0.19  C 
BRANCH 44 45
ATOM     45  C   ASP B  17      -1.455  24.942  -9.995  1.00  8.52 LIG 0.24  C 
ATOM     46  N   VAL B  18      -1.771  24.272 -11.079  1.00  7.60 LIG-0.34  N 
ATOM     47 H    VAL B  18      -1.790  24.594 -11.876  1.00  7.60 LIG 0.16  HD
ATOM     48 O    ASP B  17      -1.656  24.524  -8.844  1.00  9.78 LIG-0.27  OA
BRANCH 46 49
ATOM     49  CA  VAL B  18      -2.138  22.812 -10.955  1.00  7.37 LIG 0.19  C 
BRANCH 49 50
ATOM     50  CB  VAL B  18      -3.624  22.684 -11.447  1.00  7.62 LIG 0.01  C 
ATOM     51  CG2 VAL B  18      -3.779  22.363 -12.928  1.00  8.69 LIG 0.01  C 
ATOM     52  CG1 VAL B  18      -4.495  23.842 -10.962  1.00  8.94 LIG 0.01  C 
ENDBRANCH 49 50
BRANCH 49 53
ATOM     53  C   VAL B  18      -1.137  21.810 -11.633  1.00  8.71 LIG 0.20  C 
ATOM     54 OXT  VAL B  18      -1.423  20.745 -11.987  1.00  9.21 LIG-0.65  OA
ATOM     55 O    VAL B  18      -0.003  22.403 -11.813  1.00  8.10 LIG-0.65  OA
ENDBRANCH 49 53
ENDBRANCH 46 49
ENDBRANCH 44 45
BRANCH 44 56
ATOM     56  CB  ASP B  17       0.798  25.848 -10.195  1.00  8.76 LIG 0.15  C 
BRANCH 56 57
ATOM     57  CG  ASP B  17       1.579  26.230 -11.408  1.00  8.08 LIG 0.17  C 
ATOM     58 OD1  ASP B  17       1.816  25.461 -12.294  1.00  9.66 LIG-0.65  OA
ATOM     59 OD2  ASP B  17       1.921  27.468 -11.440  1.00  7.95 LIG-0.65  OA
ENDBRANCH 56 57
ENDBRANCH 44 56
ENDBRANCH 42 44
ENDBRANCH 39 40
ENDBRANCH 36 39
ENDBRANCH 33 35
ENDBRANCH 3 33
TORSDOF 24
ENDMDL
MODEL 2
USER: ADFR SOLUTION from run 124
USER: SCORE 21.561457 LL:  -3.377 LR: -20.330 RR:   0.000 FEB: -13.171
USER: RMSD 8.141842
USER: SEED 123
USER: STATUS no improvement in best in 1 clusters for 5 generations
USER: GENES 26
USER: genes 0 Translation |==|  0.43358 0.49590 0.41445
USER: genes 1 Rotation |==|  0.09974 0.54716 0.73047 0.68561
USER: genes 2 Torsion [N]-C--CA-[N] |==|  0.46727
USER: genes 3 Torsion [C]-CA--N-[C] |==|  0.64367
USER: genes 4 Torsion [N]-C--CA-[N] |==|  0.05636
USER: genes 5 Torsion [C]-CA--CB-[CG] |==|  0.70451
USER: genes 6 Torsion [CA]-CB--CG-[CD] |==|  0.40632
USER: genes 7 Torsion [CB]-CG--CD-[CE] |==|  0.10139
USER: genes 8 Torsion [CG]-CD--CE-[NZ] |==|  0.15962
USER: genes 9 Torsion [CD]-CE--NZ-[HZ1] |==|  0.32888
USER: genes 10 Torsion [C]-CA--N-[C] |==|  0.68978
USER: genes 11 Torsion [N]-C--CA-[N] |==|  0.40077
USER: genes 12 Torsion [C]-CA--CB-[CG] |==|  0.66780
USER: genes 13 Torsion [CA]-CB--CG-[CD] |==|  0.71057
USER: genes 14 Torsion [CB]-CG--CD-[NE2] |==|  0.74220
USER: genes 15 Torsion [C]-N--CA-[CB] |==|  0.87900
USER: genes 16 Torsion [N]-CA--C-[N] |==|  0.87807
USER: genes 17 Torsion [C]-N--CA-[C] |==|  0.70574
USER: genes 18 Torsion [N]-CA--C-[N] |==|  0.38029
USER: genes 19 Torsion [C]-N--CA-[CB] |==|  0.44753
USER: genes 20 Torsion [N]-CA--C-[N] |==|  0.38926
USER: genes 21 Torsion [C]-N--CA-[CB] |==|  0.35240
USER: genes 22 Torsion [N]-CA--CB-[CG2] |==|  0.24146
USER: genes 23 Torsion [N]-CA--C-[OXT] |==|  0.03727
USER: genes 24 Torsion [N]-CA--CB-[CG] |==|  0.79770
USER: genes 25 Torsion [CA]-CB--CG-[OD1] |==|  0.41403
ROOT
ATOM      1  C   GLN B  14      -4.643  32.148 -10.666  1.00 10.58 LIG 0.24  C 
ATOM      2 O    GLN B  14      -5.355  31.847  -9.699  1.00 11.08 LIG-0.27  OA
ATOM      3  N   ALA B  15      -3.396  32.669 -10.545  1.00  8.59 LIG-0.35  N 
ATOM      4 H    ALA B  15      -2.890  32.905 -11.199  1.00  8.59 LIG 0.16  HD
ENDROOT
BRANCH 1 5
ATOM      5  CA  GLN B  14      -5.169  31.950 -12.100  1.00 10.91 LIG 0.18  C 
BRANCH 5 6
ATOM      6  N   GLN B  14      -6.397  31.128 -12.094  1.00 11.57 LIG-0.35  N 
ATOM      7 H    GLN B  14      -7.013  31.396 -11.557  1.00 11.57 LIG 0.16  HD
ATOM      8  C   LYS B  13      -6.487  30.062 -12.881  0.75 12.06 LIG 0.24  C 
ATOM      9 O    LYS B  13      -5.612  29.702 -13.684  0.75 12.45 LIG-0.27  OA
BRANCH 8 10
ATOM     10  CA  LYS B  13      -7.821  29.309 -12.770  0.75 15.41 LIG 0.18  C 
BRANCH 10 11
ATOM     11  CB  LYS B  13      -8.316  28.721 -14.112  0.75 17.54 LIG 0.04  C 
BRANCH 11 12
ATOM     12  CG  LYS B  13      -9.497  29.387 -14.832  0.75 22.88 LIG 0.00  C 
BRANCH 12 13
ATOM     13  CD  LYS B  13      -9.343  29.291 -16.380  0.75 30.51 LIG 0.03  C 
BRANCH 13 14
ATOM     14  CE  LYS B  13      -8.712  27.959 -16.839  0.75 32.79 LIG 0.23  C 
BRANCH 14 15
ATOM     15  NZ  LYS B  13      -9.416  26.721 -16.427  0.75 35.43 LIG-0.08  N 
ATOM     16 HZ1  LYS B  13      -9.682  26.277 -17.150  0.75 35.43 LIG 0.27  HD
ATOM     17 HZ2  LYS B  13      -8.864  26.209 -15.952  0.75 35.43 LIG 0.27  HD
ATOM     18 HZ3  LYS B  13     -10.124  26.932 -15.932  0.75 35.43 LIG 0.27  HD
ENDBRANCH 14 15
ENDBRANCH 13 14
ENDBRANCH 12 13
ENDBRANCH 11 12
ENDBRANCH 10 11
BRANCH 10 19
ATOM     19  N   LYS B  13      -8.835  30.202 -12.199  0.75 16.03 LIG-0.35  N 
ATOM     20  C   ALA B  12      -9.307  29.943 -10.962  0.50 20.56 LIG 0.26  C 
ATOM     21 O    ALA B  12      -8.929  28.985 -10.317  0.50 22.07 LIG-0.27  OA
ATOM     22 H    LYS B  13      -9.078  30.858 -12.698  0.75 16.03 LIG 0.16  HD
BRANCH 20 23
ATOM     23  CA  ALA B  12     -10.304  30.887 -10.297  0.50 23.14 LIG 0.40  C 
ATOM     24  N   ALA B  12     -11.300  30.195  -9.475  0.50 24.66 LIG 0.61  N 
ATOM     25  CB  ALA B  12      -9.573  31.998  -9.514  0.50 23.20 LIG 0.06  C 
ENDBRANCH 20 23
ENDBRANCH 10 19
ENDBRANCH 8 10
ENDBRANCH 5 6
BRANCH 5 26
ATOM     26  CB  GLN B  14      -5.427  33.304 -12.751  1.00 11.50 LIG 0.04  C 
BRANCH 26 27
ATOM     27  CG  GLN B  14      -6.907  33.559 -13.195  1.00 13.46 LIG 0.10  C 
BRANCH 27 28
ATOM     28  CD  GLN B  14      -7.141  33.445 -14.652  1.00 12.39 LIG 0.21  C 
ATOM     29 OE1  GLN B  14      -7.413  32.377 -15.151  1.00 14.45 LIG-0.27  OA
ATOM     30  NE2 GLN B  14      -7.055  34.558 -15.354  1.00 17.10 LIG-0.37  N 
ATOM     31 22HE GLN B  14      -7.194  34.544 -16.202  1.00 17.10 LIG 0.16  HD
ATOM     32 21HE GLN B  14      -6.859  35.299 -14.962  1.00 17.10 LIG 0.16  HD
ENDBRANCH 27 28
ENDBRANCH 26 27
ENDBRANCH 5 26
ENDBRANCH 1 5
BRANCH 3 33
ATOM     33  CA  ALA B  15      -2.839  32.858  -9.225  1.00  7.39 LIG 0.17  C 
ATOM     34  CB  ALA B  15      -3.961  33.485  -8.266  1.00  8.95 LIG 0.04  C 
BRANCH 33 35
ATOM     35  C   ALA B  15      -2.318  31.496  -8.731  1.00  7.55 LIG 0.24  C 
ATOM     36  N   GLY B  16      -3.080  30.432  -8.923  1.00  7.69 LIG-0.35  N 
ATOM     37 H    GLY B  16      -3.843  30.457  -9.319  1.00  7.69 LIG 0.16  HD
ATOM     38 O    ALA B  15      -1.219  31.418  -8.196  1.00  7.87 LIG-0.27  OA
BRANCH 36 39
ATOM     39  CA  GLY B  16      -2.678  29.083  -8.468  1.00  6.73 LIG 0.23  C 
BRANCH 39 40
ATOM     40  C   GLY B  16      -2.242  28.172  -9.567  1.00  7.46 LIG 0.24  C 
ATOM     41 O    GLY B  16      -2.884  28.086 -10.602  1.00  8.30 LIG-0.27  OA
ATOM     42  N   ASP B  17      -1.167  27.459  -9.305  1.00  6.73 LIG-0.35  N 
ATOM     43 H    ASP B  17      -0.690  27.555  -8.596  1.00  6.73 LIG 0.16  HD
BRANCH 42 44
ATOM     44  CA  ASP B  17      -0.692  26.436 -10.210  1.00  7.41 LIG 0.19  C 
BRANCH 44 45
ATOM     45  C   ASP B  17      -1.473  25.167 -10.071  1.00  8.52 LIG 0.24  C 
ATOM     46  N   VAL B  18      -1.719  24.581 -11.220  1.00  7.60 LIG-0.34  N 
ATOM     47 H    VAL B  18      -1.680  24.961 -11.991  1.00  7.60 LIG 0.16  HD
ATOM     48 O    ASP B  17      -1.756  24.669  -8.970  1.00  9.78 LIG-0.27  OA
BRANCH 46 49
ATOM     49  CA  VAL B  18      -2.106  23.122 -11.229  1.00  7.37 LIG 0.19  C 
BRANCH 49 50
ATOM     50  CB  VAL B  18      -3.447  23.023 -12.041  1.00  7.62 LIG 0.01  C 
ATOM     51  CG2 VAL B  18      -3.270  22.873 -13.546  1.00  8.69 LIG 0.01  C 
ATOM     52  CG1 VAL B  18      -4.452  24.100 -11.632  1.00  8.94 LIG 0.01  C 
ENDBRANCH 49 50
BRANCH 49 53
ATOM     53  C   VAL B  18      -0.982  22.133 -11.702  1.00  8.71 LIG 0.20  C 
ATOM     54 OXT  VAL B  18       0.134  22.422 -11.815  1.00  9.21 LIG-0.65  OA
ATOM     55 O    VAL B  18      -1.490  20.952 -11.839  1.00  8.10 LIG-0.65  OA
ENDBRANCH 49 53
ENDBRANCH 46 49
ENDBRANCH 44 45
BRANCH 44 56
ATOM     56  CB  ASP B  17       0.787  26.071  -9.947  1.00  8.76 LIG 0.15  C 
BRANCH 56 57
ATOM     57  CG  ASP B  17       1.755  27.118 -10.388  1.00  8.08 LIG 0.17  C 
ATOM     58 OD1  ASP B  17       2.803  27.303  -9.839  1.00  9.66 LIG-0.65  OA
ATOM     59 OD2  ASP B  17       1.389  27.757 -11.440  1.00  7.95 LIG-0.65  OA
ENDBRANCH 56 57
ENDBRANCH 44 56
ENDBRANCH 42 44
ENDBRANCH 39 40
ENDBRANCH 36 39
ENDBRANCH 33 35
ENDBRANCH 3 33
TORSDOF 24
ENDMDL
MODEL 3
USER: ADFR SOLUTION from run 137
USER: SCORE 21.256147 LL:  -3.576 LR: -20.254 RR:   0.000 FEB: -13.095
USER: RMSD 7.670013
USER: SEED 136
USER: STATUS 1 or 2 clusters left
USER: GENES 26
USER: genes 0 Translation |==|  0.40518 0.48402 0.34890
USER: genes 1 Rotation |==|  0.77572 0.12330 0.67894 0.50742
USER: genes 2 Torsion [N]-C--CA-[N] |==|  0.44750
USER: genes 3 Torsion [C]-CA--N-[C] |==|  0.59982
USER: genes 4 Torsion [N]-C--CA-[N] |==|  0.93523
USER: genes 5 Torsion [C]-CA--CB-[CG] |==|  0.06659
USER: genes 6 Torsion [CA]-CB--CG-[CD] |==|  0.29958
USER: genes 7 Torsion [CB]-CG--CD-[CE] |==|  0.57330
USER: genes 8 Torsion [CG]-CD--CE-[NZ] |==|  0.86642
USER: genes 9 Torsion [CD]-CE--NZ-[HZ1] |==|  0.82695
USER: genes 10 Torsion [C]-CA--N-[C] |==|  0.68670
USER: genes 11 Torsion [N]-C--CA-[N] |==|  0.52953
USER: genes 12 Torsion [C]-CA--CB-[CG] |==|  0.21411
USER: genes 13 Torsion [CA]-CB--CG-[CD] |==|  0.53135
USER: genes 14 Torsion [CB]-CG--CD-[NE2] |==|  0.61805
USER: genes 15 Torsion [C]-N--CA-[CB] |==|  0.27128
USER: genes 16 Torsion [N]-CA--C-[N] |==|  0.97300
USER: genes 17 Torsion [C]-N--CA-[C] |==|  0.63335
USER: genes 18 Torsion [N]-CA--C-[N] |==|  0.34824
USER: genes 19 Torsion [C]-N--CA-[CB] |==|  0.55918
USER: genes 20 Torsion [N]-CA--C-[N] |==|  0.31667
USER: genes 21 Torsion [C]-N--CA-[CB] |==|  0.41963
USER: genes 22 Torsion [N]-CA--CB-[CG2] |==|  0.71194
USER: genes 23 Torsion [N]-CA--C-[OXT] |==|  0.49836
USER: genes 24 Torsion [N]-CA--CB-[CG] |==|  0.82377
USER: genes 25 Torsion [CA]-CB--CG-[OD1] |==|  0.42478
ROOT
ATOM      1  C   GLN B  14      -5.218  31.774 -11.796  1.00 10.58 LIG 0.24  C 
ATOM      2 O    GLN B  14      -4.803  32.807 -12.336  1.00 11.08 LIG-0.27  OA
ATOM      3  N   ALA B  15      -4.803  31.346 -10.577  1.00  8.59 LIG-0.35  N 
ATOM      4 H    ALA B  15      -5.060  30.622 -10.190  1.00  8.59 LIG 0.16  HD
ENDROOT
BRANCH 1 5
ATOM      5  CA  GLN B  14      -6.250  30.888 -12.521  1.00 10.91 LIG 0.18  C 
BRANCH 5 6
ATOM      6  N   GLN B  14      -6.941  31.655 -13.578  1.00 11.57 LIG-0.35  N 
ATOM      7 H    GLN B  14      -6.452  32.228 -13.993  1.00 11.57 LIG 0.16  HD
ATOM      8  C   LYS B  13      -8.227  31.435 -13.827  0.75 12.06 LIG 0.24  C 
ATOM      9 O    LYS B  13      -8.919  30.578 -13.255  0.75 12.45 LIG-0.27  OA
BRANCH 8 10
ATOM     10  CA  LYS B  13      -8.808  32.302 -14.953  0.75 15.41 LIG 0.18  C 
BRANCH 10 11
ATOM     11  CB  LYS B  13      -8.924  31.565 -16.308  0.75 17.54 LIG 0.04  C 
BRANCH 11 12
ATOM     12  CG  LYS B  13      -9.017  30.033 -16.323  0.75 22.88 LIG 0.00  C 
BRANCH 12 13
ATOM     13  CD  LYS B  13     -10.452  29.556 -16.700  0.75 30.51 LIG 0.03  C 
BRANCH 13 14
ATOM     14  CE  LYS B  13     -10.791  28.164 -16.128  0.75 32.79 LIG 0.23  C 
BRANCH 14 15
ATOM     15  NZ  LYS B  13      -9.776  27.103 -16.332  0.75 35.43 LIG-0.08  N 
ATOM     16 HZ1  LYS B  13      -9.667  26.959 -17.203  0.75 35.43 LIG 0.27  HD
ATOM     17 HZ2  LYS B  13      -9.003  27.360 -15.975  0.75 35.43 LIG 0.27  HD
ATOM     18 HZ3  LYS B  13     -10.048  26.352 -15.940  0.75 35.43 LIG 0.27  HD
ENDBRANCH 14 15
ENDBRANCH 13 14
ENDBRANCH 12 13
ENDBRANCH 11 12
ENDBRANCH 10 11
BRANCH 10 19
ATOM     19  N   LYS B  13      -7.994  33.514 -15.100  0.75 16.03 LIG-0.35  N 
ATOM     20  C   ALA B  12      -8.540  34.705 -14.782  0.50 20.56 LIG 0.26  C 
ATOM     21 O    ALA B  12      -9.686  34.805 -14.394  0.50 22.07 LIG-0.27  OA
ATOM     22 H    LYS B  13      -7.193  33.393 -15.388  0.75 16.03 LIG 0.16  HD
BRANCH 20 23
ATOM     23  CA  ALA B  12      -7.707  35.983 -14.845  0.50 23.14 LIG 0.40  C 
ATOM     24  N   ALA B  12      -8.371  37.139 -14.238  0.50 24.66 LIG 0.61  N 
ATOM     25  CB  ALA B  12      -6.296  35.751 -14.262  0.50 23.20 LIG 0.06  C 
ENDBRANCH 20 23
ENDBRANCH 10 19
ENDBRANCH 8 10
ENDBRANCH 5 6
BRANCH 5 26
ATOM     26  CB  GLN B  14      -5.563  29.659 -13.105  1.00 11.50 LIG 0.04  C 
BRANCH 26 27
ATOM     27  CG  GLN B  14      -5.218  28.534 -12.072  1.00 13.46 LIG 0.10  C 
BRANCH 27 28
ATOM     28  CD  GLN B  14      -4.326  27.473 -12.593  1.00 12.39 LIG 0.21  C 
ATOM     29 OE1  GLN B  14      -3.360  27.754 -13.264  1.00 14.45 LIG-0.27  OA
ATOM     30  NE2 GLN B  14      -4.634  26.232 -12.271  1.00 17.10 LIG-0.37  N 
ATOM     31 22HE GLN B  14      -4.139  25.582 -12.540  1.00 17.10 LIG 0.16  HD
ATOM     32 21HE GLN B  14      -5.330  26.072 -11.791  1.00 17.10 LIG 0.16  HD
ENDBRANCH 27 28
ENDBRANCH 26 27
ENDBRANCH 5 26
ENDBRANCH 1 5
BRANCH 3 33
ATOM     33  CA  ALA B  15      -3.852  32.145  -9.839  1.00  7.39 LIG 0.17  C 
ATOM     34  CB  ALA B  15      -4.641  33.048  -8.773  1.00  8.95 LIG 0.04  C 
BRANCH 33 35
ATOM     35  C   ALA B  15      -2.837  31.190  -9.184  1.00  7.55 LIG 0.24  C 
ATOM     36  N   GLY B  16      -3.091  29.893  -9.220  1.00  7.69 LIG-0.35  N 
ATOM     37 H    GLY B  16      -3.785  29.553  -9.597  1.00  7.69 LIG 0.16  HD
ATOM     38 O    ALA B  15      -1.820  31.638  -8.670  1.00  7.87 LIG-0.27  OA
BRANCH 36 39
ATOM     39  CA  GLY B  16      -2.189  28.896  -8.603  1.00  6.73 LIG 0.23  C 
BRANCH 39 40
ATOM     40  C   GLY B  16      -1.862  27.738  -9.487  1.00  7.46 LIG 0.24  C 
ATOM     41 O    GLY B  16      -2.746  27.039  -9.956  1.00  8.30 LIG-0.27  OA
ATOM     42  N   ASP B  17      -0.577  27.519  -9.664  1.00  6.73 LIG-0.35  N 
ATOM     43 H    ASP B  17       0.042  28.039  -9.372  1.00  6.73 LIG 0.16  HD
BRANCH 42 44
ATOM     44  CA  ASP B  17      -0.093  26.361 -10.382  1.00  7.41 LIG 0.19  C 
BRANCH 44 45
ATOM     45  C   ASP B  17      -0.894  25.137 -10.066  1.00  8.52 LIG 0.24  C 
ATOM     46  N   VAL B  18      -1.573  24.681 -11.094  1.00  7.60 LIG-0.34  N 
ATOM     47 H    VAL B  18      -1.765  25.130 -11.802  1.00  7.60 LIG 0.16  HD
ATOM     48 O    ASP B  17      -0.827  24.556  -8.972  1.00  9.78 LIG-0.27  OA
BRANCH 46 49
ATOM     49  CA  VAL B  18      -2.074  23.257 -11.065  1.00  7.37 LIG 0.19  C 
BRANCH 49 50
ATOM     50  CB  VAL B  18      -3.378  23.228 -11.940  1.00  7.62 LIG 0.01  C 
ATOM     51  CG2 VAL B  18      -4.676  23.176 -11.144  1.00  8.69 LIG 0.01  C 
ATOM     52  CG1 VAL B  18      -3.294  22.203 -13.070  1.00  8.94 LIG 0.01  C 
ENDBRANCH 49 50
BRANCH 49 53
ATOM     53  C   VAL B  18      -1.011  22.165 -11.442  1.00  8.71 LIG 0.20  C 
ATOM     54 OXT  VAL B  18      -1.226  21.027 -11.460  1.00  9.21 LIG-0.65  OA
ATOM     55 O    VAL B  18       0.080  22.749 -11.815  1.00  8.10 LIG-0.65  OA
ENDBRANCH 49 53
ENDBRANCH 46 49
ENDBRANCH 44 45
BRANCH 44 56
ATOM     56  CB  ASP B  17       1.373  26.029 -10.026  1.00  8.76 LIG 0.15  C 
BRANCH 56 57
ATOM     57  CG  ASP B  17       2.345  27.095 -10.409  1.00  8.08 LIG 0.17  C 
ATOM     58 OD1  ASP B  17       3.384  27.261  -9.837  1.00  9.66 LIG-0.65  OA
ATOM     59 OD2  ASP B  17       1.992  27.777 -11.439  1.00  7.95 LIG-0.65  OA
ENDBRANCH 56 57
ENDBRANCH 44 56
ENDBRANCH 42 44
ENDBRANCH 39 40
ENDBRANCH 36 39
ENDBRANCH 33 35
ENDBRANCH 3 33
TORSDOF 24
ENDMDL
MODEL 4
USER: ADFR SOLUTION from run 141
USER: SCORE 19.837226 LL:  -2.989 LR: -19.384 RR:   0.000 FEB: -12.225
USER: RMSD 1.555490
USER: SEED 140
USER: STATUS no improvement in best in 2 clusters for 5 generations
USER: GENES 26
USER: genes 0 Translation |==|  0.49900 0.58643 0.55078
USER: genes 1 Rotation |==|  0.46529 0.42375 0.48595 0.99273
USER: genes 2 Torsion [N]-C--CA-[N] |==|  0.42226
USER: genes 3 Torsion [C]-CA--N-[C] |==|  0.69495
USER: genes 4 Torsion [N]-C--CA-[N] |==|  0.43927
USER: genes 5 Torsion [C]-CA--CB-[CG] |==|  0.43451
USER: genes 6 Torsion [CA]-CB--CG-[CD] |==|  0.40723
USER: genes 7 Torsion [CB]-CG--CD-[CE] |==|  0.17008
USER: genes 8 Torsion [CG]-CD--CE-[NZ] |==|  0.38216
USER: genes 9 Torsion [CD]-CE--NZ-[HZ1] |==|  0.69981
USER: genes 10 Torsion [C]-CA--N-[C] |==|  0.59565
USER: genes 11 Torsion [N]-C--CA-[N] |==|  0.48776
USER: genes 12 Torsion [C]-CA--CB-[CG] |==|  0.24010
USER: genes 13 Torsion [CA]-CB--CG-[CD] |==|  0.31691
USER: genes 14 Torsion [CB]-CG--CD-[NE2] |==|  0.24570
USER: genes 15 Torsion [C]-N--CA-[CB] |==|  0.20758
USER: genes 16 Torsion [N]-CA--C-[N] |==|  0.43044
USER: genes 17 Torsion [C]-N--CA-[C] |==|  0.68743
USER: genes 18 Torsion [N]-CA--C-[N] |==|  0.41689
USER: genes 19 Torsion [C]-N--CA-[CB] |==|  0.48333
USER: genes 20 Torsion [N]-CA--C-[N] |==|  0.48438
USER: genes 21 Torsion [C]-N--CA-[CB] |==|  0.26532
USER: genes 22 Torsion [N]-CA--CB-[CG2] |==|  0.11228
USER: genes 23 Torsion [N]-CA--C-[OXT] |==|  0.54270
USER: genes 24 Torsion [N]-CA--CB-[CG] |==|  0.82292
USER: genes 25 Torsion [CA]-CB--CG-[OD1] |==|  0.38548
ROOT
ATOM      1  C   GLN B  14      -3.318  35.000  -8.314  1.00 10.58 LIG 0.24  C 
ATOM      2 O    GLN B  14      -4.483  35.111  -8.717  1.00 11.08 LIG-0.27  OA
ATOM      3  N   ALA B  15      -2.582  33.868  -8.453  1.00  8.59 LIG-0.35  N 
ATOM      4 H    ALA B  15      -1.779  33.758  -8.164  1.00  8.59 LIG 0.16  HD
ENDROOT
BRANCH 1 5
ATOM      5  CA  GLN B  14      -2.635  36.179  -7.597  1.00 10.91 LIG 0.18  C 
BRANCH 5 6
ATOM      6  N   GLN B  14      -3.190  37.465  -8.068  1.00 11.57 LIG-0.35  N 
ATOM      7 H    GLN B  14      -3.998  37.627  -7.822  1.00 11.57 LIG 0.16  HD
ATOM      8  C   LYS B  13      -2.450  38.274  -8.818  0.75 12.06 LIG 0.24  C 
ATOM      9 O    LYS B  13      -1.271  38.056  -9.138  0.75 12.45 LIG-0.27  OA
BRANCH 8 10
ATOM     10  CA  LYS B  13      -3.157  39.573  -9.230  0.75 15.41 LIG 0.18  C 
BRANCH 10 11
ATOM     11  CB  LYS B  13      -4.159  39.394 -10.394  0.75 17.54 LIG 0.04  C 
BRANCH 11 12
ATOM     12  CG  LYS B  13      -5.305  40.403 -10.561  0.75 22.88 LIG 0.00  C 
BRANCH 12 13
ATOM     13  CD  LYS B  13      -5.656  40.616 -12.064  0.75 30.51 LIG 0.03  C 
BRANCH 13 14
ATOM     14  CE  LYS B  13      -6.131  39.322 -12.759  0.75 32.79 LIG 0.23  C 
BRANCH 14 15
ATOM     15  NZ  LYS B  13      -7.293  39.452 -13.671  0.75 35.43 LIG-0.08  N 
ATOM     16 HZ1  LYS B  13      -8.007  39.078 -13.296  0.75 35.43 LIG 0.27  HD
ATOM     17 HZ2  LYS B  13      -7.455  40.313 -13.824  0.75 35.43 LIG 0.27  HD
ATOM     18 HZ3  LYS B  13      -7.114  39.043 -14.440  0.75 35.43 LIG 0.27  HD
ENDBRANCH 14 15
ENDBRANCH 13 14
ENDBRANCH 12 13
ENDBRANCH 11 12
ENDBRANCH 10 11
BRANCH 10 19
ATOM     19  N   LYS B  13      -2.150  40.583  -9.575  0.75 16.03 LIG-0.35  N 
ATOM     20  C   ALA B  12      -2.403  41.877  -9.289  0.50 20.56 LIG 0.26  C 
ATOM     21 O    ALA B  12      -3.443  42.230  -8.770  0.50 22.07 LIG-0.27  OA
ATOM     22 H    LYS B  13      -1.436  40.285  -9.950  0.75 16.03 LIG 0.16  HD
BRANCH 20 23
ATOM     23  CA  ALA B  12      -1.353  42.951  -9.559  0.50 23.14 LIG 0.40  C 
ATOM     24  N   ALA B  12      -1.829  44.310  -9.287  0.50 24.66 LIG 0.61  N 
ATOM     25  CB  ALA B  12      -0.038  42.636  -8.816  0.50 23.20 LIG 0.06  C 
ENDBRANCH 20 23
ENDBRANCH 10 19
ENDBRANCH 8 10
ENDBRANCH 5 6
BRANCH 5 26
ATOM     26  CB  GLN B  14      -2.803  36.039  -6.088  1.00 11.50 LIG 0.04  C 
BRANCH 26 27
ATOM     27  CG  GLN B  14      -1.715  35.166  -5.375  1.00 13.46 LIG 0.10  C 
BRANCH 27 28
ATOM     28  CD  GLN B  14      -0.842  35.912  -4.442  1.00 12.39 LIG 0.21  C 
ATOM     29 OE1  GLN B  14       0.193  36.406  -4.828  1.00 14.45 LIG-0.27  OA
ATOM     30  NE2 GLN B  14      -1.262  36.017  -3.196  1.00 17.10 LIG-0.37  N 
ATOM     31 22HE GLN B  14      -0.794  36.452  -2.620  1.00 17.10 LIG 0.16  HD
ATOM     32 21HE GLN B  14      -2.003  35.652  -2.960  1.00 17.10 LIG 0.16  HD
ENDBRANCH 27 28
ENDBRANCH 26 27
ENDBRANCH 5 26
ENDBRANCH 1 5
BRANCH 3 33
ATOM     33  CA  ALA B  15      -3.161  32.733  -9.137  1.00  7.39 LIG 0.17  C 
ATOM     34  CB  ALA B  15      -3.181  33.026 -10.714  1.00  8.95 LIG 0.04  C 
BRANCH 33 35
ATOM     35  C   ALA B  15      -2.337  31.486  -8.767  1.00  7.55 LIG 0.24  C 
ATOM     36  N   GLY B  16      -2.930  30.306  -8.840  1.00  7.69 LIG-0.35  N 
ATOM     37 H    GLY B  16      -3.744  30.196  -9.093  1.00  7.69 LIG 0.16  HD
ATOM     38 O    ALA B  15      -1.164  31.603  -8.438  1.00  7.87 LIG-0.27  OA
BRANCH 36 39
ATOM     39  CA  GLY B  16      -2.231  29.051  -8.487  1.00  6.73 LIG 0.23  C 
BRANCH 39 40
ATOM     40  C   GLY B  16      -1.988  28.141  -9.645  1.00  7.46 LIG 0.24  C 
ATOM     41 O    GLY B  16      -2.772  28.091 -10.579  1.00  8.30 LIG-0.27  OA
ATOM     42  N   ASP B  17      -0.914  27.387  -9.544  1.00  6.73 LIG-0.35  N 
ATOM     43 H    ASP B  17      -0.338  27.456  -8.909  1.00  6.73 LIG 0.16  HD
BRANCH 42 44
ATOM     44  CA  ASP B  17      -0.609  26.360 -10.516  1.00  7.41 LIG 0.19  C 
BRANCH 44 45
ATOM     45  C   ASP B  17      -1.609  25.248 -10.480  1.00  8.52 LIG 0.24  C 
ATOM     46  N   VAL B  18      -1.428  24.357 -11.428  1.00  7.60 LIG-0.34  N 
ATOM     47 H    VAL B  18      -0.972  24.480 -12.146  1.00  7.60 LIG 0.16  HD
ATOM     48 O    ASP B  17      -2.449  25.129  -9.574  1.00  9.78 LIG-0.27  OA
BRANCH 46 49
ATOM     49  CA  VAL B  18      -2.058  22.993 -11.279  1.00  7.37 LIG 0.19  C 
BRANCH 49 50
ATOM     50  CB  VAL B  18      -3.419  23.045 -12.060  1.00  7.62 LIG 0.01  C 
ATOM     51  CG2 VAL B  18      -3.364  23.795 -13.385  1.00  8.69 LIG 0.01  C 
ATOM     52  CG1 VAL B  18      -4.588  23.446 -11.161  1.00  8.94 LIG 0.01  C 
ENDBRANCH 49 50
BRANCH 49 53
ATOM     53  C   VAL B  18      -1.133  21.783 -11.658  1.00  8.71 LIG 0.20  C 
ATOM     54 OXT  VAL B  18      -1.516  20.706 -11.849  1.00  9.21 LIG-0.65  OA
ATOM     55 O    VAL B  18       0.077  22.209 -11.815  1.00  8.10 LIG-0.65  OA
ENDBRANCH 49 53
ENDBRANCH 46 49
ENDBRANCH 44 45
BRANCH 44 56
ATOM     56  CB  ASP B  17       0.773  25.716 -10.263  1.00  8.76 LIG 0.15  C 
BRANCH 56 57
ATOM     57  CG  ASP B  17       1.918  26.662 -10.410  1.00  8.08 LIG 0.17  C 
ATOM     58 OD1  ASP B  17       2.852  26.669  -9.662  1.00  9.66 LIG-0.65  OA
ATOM     59 OD2  ASP B  17       1.836  27.425 -11.440  1.00  7.95 LIG-0.65  OA
ENDBRANCH 56 57
ENDBRANCH 44 56
ENDBRANCH 42 44
ENDBRANCH 39 40
ENDBRANCH 36 39
ENDBRANCH 33 35
ENDBRANCH 3 33
TORSDOF 24
ENDMDL
MODEL 5
USER: ADFR SOLUTION from run 141
USER: SCORE 18.460132 LL:  -3.040 LR: -19.002 RR:   0.000 FEB: -11.843
USER: RMSD 3.674136
USER: SEED 140
USER: STATUS no improvement in best in 2 clusters for 5 generations
USER: GENES 26
USER: genes 0 Translation |==|  0.50255 0.57772 0.62675
USER: genes 1 Rotation |==|  0.55943 0.42506 0.50778 0.99071
USER: genes 2 Torsion [N]-C--CA-[N] |==|  0.23194
USER: genes 3 Torsion [C]-CA--N-[C] |==|  0.71202
USER: genes 4 Torsion [N]-C--CA-[N] |==|  0.97467
USER: genes 5 Torsion [C]-CA--CB-[CG] |==|  0.45654
USER: genes 6 Torsion [CA]-CB--CG-[CD] |==|  0.13096
USER: genes 7 Torsion [CB]-CG--CD-[CE] |==|  0.67991
USER: genes 8 Torsion [CG]-CD--CE-[NZ] |==|  0.12454
USER: genes 9 Torsion [CD]-CE--NZ-[HZ1] |==|  0.77204
USER: genes 10 Torsion [C]-CA--N-[C] |==|  0.81490
USER: genes 11 Torsion [N]-C--CA-[N] |==|  0.71206
USER: genes 12 Torsion [C]-CA--CB-[CG] |==|  0.46015
USER: genes 13 Torsion [CA]-CB--CG-[CD] |==|  0.57961
USER: genes 14 Torsion [CB]-CG--CD-[NE2] |==|  0.32931
USER: genes 15 Torsion [C]-N--CA-[CB] |==|  0.27359
USER: genes 16 Torsion [N]-CA--C-[N] |==|  0.37244
USER: genes 17 Torsion [C]-N--CA-[C] |==|  0.71161
USER: genes 18 Torsion [N]-CA--C-[N] |==|  0.37565
USER: genes 19 Torsion [C]-N--CA-[CB] |==|  0.47694
USER: genes 20 Torsion [N]-CA--C-[N] |==|  0.48653
USER: genes 21 Torsion [C]-N--CA-[CB] |==|  0.26803
USER: genes 22 Torsion [N]-CA--CB-[CG2] |==|  0.11314
USER: genes 23 Torsion [N]-CA--C-[OXT] |==|  0.54548
USER: genes 24 Torsion [N]-CA--CB-[CG] |==|  0.81948
USER: genes 25 Torsion [CA]-CB--CG-[OD1] |==|  0.38170
ROOT
ATOM      1  C   GLN B  14      -3.246  34.725  -7.004  1.00 10.58 LIG 0.24  C 
ATOM      2 O    GLN B  14      -4.425  34.807  -7.372  1.00 11.08 LIG-0.27  OA
ATOM      3  N   ALA B  15      -2.363  33.829  -7.511  1.00  8.59 LIG-0.35  N 
ATOM      4 H    ALA B  15      -1.545  33.738  -7.258  1.00  8.59 LIG 0.16  HD
ENDROOT
BRANCH 1 5
ATOM      5  CA  GLN B  14      -2.718  35.662  -5.901  1.00 10.91 LIG 0.18  C 
BRANCH 5 6
ATOM      6  N   GLN B  14      -2.023  36.822  -6.494  1.00 11.57 LIG-0.35  N 
ATOM      7 H    GLN B  14      -2.537  37.428  -6.824  1.00 11.57 LIG 0.16  HD
ATOM      8  C   LYS B  13      -0.695  36.874  -6.492  0.75 12.06 LIG 0.24  C 
ATOM      9 O    LYS B  13       0.043  36.018  -5.979  0.75 12.45 LIG-0.27  OA
BRANCH 8 10
ATOM     10  CA  LYS B  13      -0.114  38.140  -7.140  0.75 15.41 LIG 0.18  C 
BRANCH 10 11
ATOM     11  CB  LYS B  13       0.643  39.053  -6.148  0.75 17.54 LIG 0.04  C 
BRANCH 11 12
ATOM     12  CG  LYS B  13       1.573  40.146  -6.693  0.75 22.88 LIG 0.00  C 
BRANCH 12 13
ATOM     13  CD  LYS B  13       0.884  40.960  -7.830  0.75 30.51 LIG 0.03  C 
BRANCH 13 14
ATOM     14  CE  LYS B  13       1.578  40.786  -9.198  0.75 32.79 LIG 0.23  C 
BRANCH 14 15
ATOM     15  NZ  LYS B  13       1.950  39.402  -9.576  0.75 35.43 LIG-0.08  N 
ATOM     16 HZ1  LYS B  13       2.721  39.186  -9.189  0.75 35.43 LIG 0.27  HD
ATOM     17 HZ2  LYS B  13       1.316  38.840  -9.306  0.75 35.43 LIG 0.27  HD
ATOM     18 HZ3  LYS B  13       2.038  39.349 -10.460  0.75 35.43 LIG 0.27  HD
ENDBRANCH 14 15
ENDBRANCH 13 14
ENDBRANCH 12 13
ENDBRANCH 11 12
ENDBRANCH 10 11
BRANCH 10 19
ATOM     19  N   LYS B  13      -1.192  38.885  -7.799  0.75 16.03 LIG-0.35  N 
ATOM     20  C   ALA B  12      -1.798  38.337  -8.873  0.50 20.56 LIG 0.26  C 
ATOM     21 O    ALA B  12      -1.467  37.256  -9.316  0.50 22.07 LIG-0.27  OA
ATOM     22 H    LYS B  13      -1.382  39.649  -7.455  0.75 16.03 LIG 0.16  HD
BRANCH 20 23
ATOM     23  CA  ALA B  12      -2.975  39.040  -9.543  0.50 23.14 LIG 0.40  C 
ATOM     24  N   ALA B  12      -4.271  38.439  -9.220  0.50 24.66 LIG 0.61  N 
ATOM     25  CB  ALA B  12      -2.948  40.556  -9.254  0.50 23.20 LIG 0.06  C 
ENDBRANCH 20 23
ENDBRANCH 10 19
ENDBRANCH 8 10
ENDBRANCH 5 6
BRANCH 5 26
ATOM     26  CB  GLN B  14      -3.869  36.118  -5.010  1.00 11.50 LIG 0.04  C 
BRANCH 26 27
ATOM     27  CG  GLN B  14      -3.442  36.779  -3.656  1.00 13.46 LIG 0.10  C 
BRANCH 27 28
ATOM     28  CD  GLN B  14      -4.419  36.616  -2.556  1.00 12.39 LIG 0.21  C 
ATOM     29 OE1  GLN B  14      -5.541  37.055  -2.659  1.00 14.45 LIG-0.27  OA
ATOM     30  NE2 GLN B  14      -4.004  35.961  -1.490  1.00 17.10 LIG-0.37  N 
ATOM     31 22HE GLN B  14      -4.540  35.830  -0.830  1.00 17.10 LIG 0.16  HD
ATOM     32 21HE GLN B  14      -3.198  35.663  -1.454  1.00 17.10 LIG 0.16  HD
ENDBRANCH 27 28
ENDBRANCH 26 27
ENDBRANCH 5 26
ENDBRANCH 1 5
BRANCH 3 33
ATOM     33  CA  ALA B  15      -2.793  32.938  -8.564  1.00  7.39 LIG 0.17  C 
ATOM     34  CB  ALA B  15      -2.316  33.526  -9.978  1.00  8.95 LIG 0.04  C 
BRANCH 33 35
ATOM     35  C   ALA B  15      -2.216  31.541  -8.269  1.00  7.55 LIG 0.24  C 
ATOM     36  N   GLY B  16      -3.023  30.499  -8.380  1.00  7.69 LIG-0.35  N 
ATOM     37 H    GLY B  16      -3.847  30.557  -8.619  1.00  7.69 LIG 0.16  HD
ATOM     38 O    ALA B  15      -1.038  31.418  -7.962  1.00  7.87 LIG-0.27  OA
BRANCH 36 39
ATOM     39  CA  GLY B  16      -2.571  29.119  -8.099  1.00  6.73 LIG 0.23  C 
BRANCH 39 40
ATOM     40  C   GLY B  16      -2.324  28.296  -9.320  1.00  7.46 LIG 0.24  C 
ATOM     41 O    GLY B  16      -3.137  28.266 -10.230  1.00  8.30 LIG-0.27  OA
ATOM     42  N   ASP B  17      -1.212  27.592  -9.301  1.00  6.73 LIG-0.35  N 
ATOM     43 H    ASP B  17      -0.619  27.650  -8.681  1.00  6.73 LIG 0.16  HD
BRANCH 42 44
ATOM     44  CA  ASP B  17      -0.892  26.645 -10.345  1.00  7.41 LIG 0.19  C 
BRANCH 44 45
ATOM     45  C   ASP B  17      -1.801  25.457 -10.315  1.00  8.52 LIG 0.24  C 
ATOM     46  N   VAL B  18      -1.603  24.625 -11.312  1.00  7.60 LIG-0.34  N 
ATOM     47 H    VAL B  18      -1.195  24.816 -12.045  1.00  7.60 LIG 0.16  HD
ATOM     48 O    ASP B  17      -2.582  25.233  -9.377  1.00  9.78 LIG-0.27  OA
BRANCH 46 49
ATOM     49  CA  VAL B  18      -2.118  23.211 -11.199  1.00  7.37 LIG 0.19  C 
BRANCH 49 50
ATOM     50  CB  VAL B  18      -3.507  23.185 -11.933  1.00  7.62 LIG 0.01  C 
ATOM     51  CG2 VAL B  18      -3.555  23.980 -13.230  1.00  8.69 LIG 0.01  C 
ATOM     52  CG1 VAL B  18      -4.670  23.465 -10.981  1.00  8.94 LIG 0.01  C 
ENDBRANCH 49 50
BRANCH 49 53
ATOM     53  C   VAL B  18      -1.116  22.093 -11.657  1.00  8.71 LIG 0.20  C 
ATOM     54 OXT  VAL B  18      -1.423  21.002 -11.895  1.00  9.21 LIG-0.65  OA
ATOM     55 O    VAL B  18       0.055  22.616 -11.815  1.00  8.10 LIG-0.65  OA
ENDBRANCH 49 53
ENDBRANCH 46 49
ENDBRANCH 44 45
BRANCH 44 56
ATOM     56  CB  ASP B  17       0.547  26.098 -10.211  1.00  8.76 LIG 0.15  C 
BRANCH 56 57
ATOM     57  CG  ASP B  17       1.607  27.132 -10.398  1.00  8.08 LIG 0.17  C 
ATOM     58 OD1  ASP B  17       2.577  27.200  -9.700  1.00  9.66 LIG-0.65  OA
ATOM     59 OD2  ASP B  17       1.412  27.902 -11.408  1.00  7.95 LIG-0.65  OA
ENDBRANCH 56 57
ENDBRANCH 44 56
ENDBRANCH 42 44
ENDBRANCH 39 40
ENDBRANCH 36 39
ENDBRANCH 33 35
ENDBRANCH 3 33
TORSDOF 24
ENDMDL
MODEL 6
USER: ADFR SOLUTION from run 22
USER: SCORE 18.410537 LL:  -3.753 LR: -18.906 RR:   0.000 FEB: -11.746
USER: RMSD 7.610394
USER: SEED 21
USER: STATUS 1 or 2 clusters left
USER: GENES 26
USER: genes 0 Translation |==|  0.44188 0.51214 0.44086
USER: genes 1 Rotation |==|  0.58825 0.12202 0.76651 0.66827
USER: genes 2 Torsion [N]-C--CA-[N] |==|  0.60084
USER: genes 3 Torsion [C]-CA--N-[C] |==|  0.21988
USER: genes 4 Torsion [N]-C--CA-[N] |==|  0.93692
USER: genes 5 Torsion [C]-CA--CB-[CG] |==|  0.42457
USER: genes 6 Torsion [CA]-CB--CG-[CD] |==|  0.99878
USER: genes 7 Torsion [CB]-CG--CD-[CE] |==|  0.52548
USER: genes 8 Torsion [CG]-CD--CE-[NZ] |==|  0.48966
USER: genes 9 Torsion [CD]-CE--NZ-[HZ1] |==|  0.56211
USER: genes 10 Torsion [C]-CA--N-[C] |==|  0.83200
USER: genes 11 Torsion [N]-C--CA-[N] |==|  0.64286
USER: genes 12 Torsion [C]-CA--CB-[CG] |==|  0.42558
USER: genes 13 Torsion [CA]-CB--CG-[CD] |==|  0.64661
USER: genes 14 Torsion [CB]-CG--CD-[NE2] |==|  0.70027
USER: genes 15 Torsion [C]-N--CA-[CB] |==|  0.40621
USER: genes 16 Torsion [N]-CA--C-[N] |==|  0.99393
USER: genes 17 Torsion [C]-N--CA-[C] |==|  0.73013
USER: genes 18 Torsion [N]-CA--C-[N] |==|  0.40006
USER: genes 19 Torsion [C]-N--CA-[CB] |==|  0.45823
USER: genes 20 Torsion [N]-CA--C-[N] |==|  0.48889
USER: genes 21 Torsion [C]-N--CA-[CB] |==|  0.28699
USER: genes 22 Torsion [N]-CA--CB-[CG2] |==|  0.35051
USER: genes 23 Torsion [N]-CA--C-[OXT] |==|  0.46796
USER: genes 24 Torsion [N]-CA--CB-[CG] |==|  0.72270
USER: genes 25 Torsion [CA]-CB--CG-[OD1] |==|  0.01761
ROOT
ATOM      1  C   GLN B  14      -4.475  32.659 -10.210  1.00 10.58 LIG 0.24  C 
ATOM      2 O    GLN B  14      -3.636  32.590 -11.117  1.00 11.08 LIG-0.27  OA
ATOM      3  N   ALA B  15      -4.152  32.813  -8.901  1.00  8.59 LIG-0.35  N 
ATOM      4 H    ALA B  15      -4.714  32.843  -8.250  1.00  8.59 LIG 0.16  HD
ENDROOT
BRANCH 1 5
ATOM      5  CA  GLN B  14      -5.976  32.554 -10.540  1.00 10.91 LIG 0.18  C 
BRANCH 5 6
ATOM      6  N   GLN B  14      -6.198  31.603 -11.648  1.00 11.57 LIG-0.35  N 
ATOM      7 H    GLN B  14      -6.327  31.962 -12.419  1.00 11.57 LIG 0.16  HD
ATOM      8  C   LYS B  13      -6.191  30.295 -11.413  0.75 12.06 LIG 0.24  C 
ATOM      9 O    LYS B  13      -5.963  29.779 -10.307  0.75 12.45 LIG-0.27  OA
BRANCH 8 10
ATOM     10  CA  LYS B  13      -6.432  29.430 -12.659  0.75 15.41 LIG 0.18  C 
BRANCH 10 11
ATOM     11  CB  LYS B  13      -5.140  28.821 -13.252  0.75 17.54 LIG 0.04  C 
BRANCH 11 12
ATOM     12  CG  LYS B  13      -5.223  27.506 -14.039  0.75 22.88 LIG 0.00  C 
BRANCH 12 13
ATOM     13  CD  LYS B  13      -6.687  26.973 -14.099  0.75 30.51 LIG 0.03  C 
BRANCH 13 14
ATOM     14  CE  LYS B  13      -6.783  25.548 -14.683  0.75 32.79 LIG 0.23  C 
BRANCH 14 15
ATOM     15  NZ  LYS B  13      -8.131  24.931 -14.697  0.75 35.43 LIG-0.08  N 
ATOM     16 HZ1  LYS B  13      -8.052  24.046 -14.734  0.75 35.43 LIG 0.27  HD
ATOM     17 HZ2  LYS B  13      -8.569  25.158 -13.957  0.75 35.43 LIG 0.27  HD
ATOM     18 HZ3  LYS B  13      -8.582  25.218 -15.408  0.75 35.43 LIG 0.27  HD
ENDBRANCH 14 15
ENDBRANCH 13 14
ENDBRANCH 12 13
ENDBRANCH 11 12
ENDBRANCH 10 11
BRANCH 10 19
ATOM     19  N   LYS B  13      -7.133  30.226 -13.672  0.75 16.03 LIG-0.35  N 
ATOM     20  C   ALA B  12      -8.347  30.733 -13.375  0.50 20.56 LIG 0.26  C 
ATOM     21 O    ALA B  12      -8.881  30.536 -12.302  0.50 22.07 LIG-0.27  OA
ATOM     22 H    LYS B  13      -6.719  30.328 -14.419  0.75 16.03 LIG 0.16  HD
BRANCH 20 23
ATOM     23  CA  ALA B  12      -9.079  31.631 -14.369  0.50 23.14 LIG 0.40  C 
ATOM     24  N   ALA B  12      -9.539  32.892 -13.783  0.50 24.66 LIG 0.61  N 
ATOM     25  CB  ALA B  12      -8.229  31.855 -15.638  0.50 23.20 LIG 0.06  C 
ENDBRANCH 20 23
ENDBRANCH 10 19
ENDBRANCH 8 10
ENDBRANCH 5 6
BRANCH 5 26
ATOM     26  CB  GLN B  14      -6.754  32.131  -9.298  1.00 11.50 LIG 0.04  C 
BRANCH 26 27
ATOM     27  CG  GLN B  14      -8.248  32.596  -9.258  1.00 13.46 LIG 0.10  C 
BRANCH 27 28
ATOM     28  CD  GLN B  14      -8.634  33.320  -8.026  1.00 12.39 LIG 0.21  C 
ATOM     29 OE1  GLN B  14      -8.255  34.452  -7.832  1.00 14.45 LIG-0.27  OA
ATOM     30  NE2 GLN B  14      -9.414  32.675  -7.181  1.00 17.10 LIG-0.37  N 
ATOM     31 22HE GLN B  14      -9.675  33.059  -6.456  1.00 17.10 LIG 0.16  HD
ATOM     32 21HE GLN B  14      -9.663  31.870  -7.354  1.00 17.10 LIG 0.16  HD
ENDBRANCH 27 28
ENDBRANCH 26 27
ENDBRANCH 5 26
ENDBRANCH 1 5
BRANCH 3 33
ATOM     33  CA  ALA B  15      -2.761  32.939  -8.531  1.00  7.39 LIG 0.17  C 
ATOM     34  CB  ALA B  15      -2.640  33.923  -7.270  1.00  8.95 LIG 0.04  C 
BRANCH 33 35
ATOM     35  C   ALA B  15      -2.215  31.527  -8.247  1.00  7.55 LIG 0.24  C 
ATOM     36  N   GLY B  16      -3.053  30.508  -8.334  1.00  7.69 LIG-0.35  N 
ATOM     37 H    GLY B  16      -3.882  30.589  -8.551  1.00  7.69 LIG 0.16  HD
ATOM     38 O    ALA B  15      -1.033  31.373  -7.971  1.00  7.87 LIG-0.27  OA
BRANCH 36 39
ATOM     39  CA  GLY B  16      -2.632  29.116  -8.061  1.00  6.73 LIG 0.23  C 
BRANCH 39 40
ATOM     40  C   GLY B  16      -2.290  28.331  -9.283  1.00  7.46 LIG 0.24  C 
ATOM     41 O    GLY B  16      -2.936  28.458 -10.311  1.00  8.30 LIG-0.27  OA
ATOM     42  N   ASP B  17      -1.294  27.483  -9.139  1.00  6.73 LIG-0.35  N 
ATOM     43 H    ASP B  17      -0.811  27.428  -8.430  1.00  6.73 LIG 0.16  HD
BRANCH 42 44
ATOM     44  CA  ASP B  17      -0.925  26.555 -10.185  1.00  7.41 LIG 0.19  C 
BRANCH 44 45
ATOM     45  C   ASP B  17      -1.886  25.412 -10.277  1.00  8.52 LIG 0.24  C 
ATOM     46  N   VAL B  18      -1.626  24.595 -11.272  1.00  7.60 LIG-0.34  N 
ATOM     47 H    VAL B  18      -1.139  24.781 -11.955  1.00  7.60 LIG 0.16  HD
ATOM     48 O    ASP B  17      -2.767  25.205  -9.427  1.00  9.78 LIG-0.27  OA
BRANCH 46 49
ATOM     49  CA  VAL B  18      -2.215  23.204 -11.249  1.00  7.37 LIG 0.19  C 
BRANCH 49 50
ATOM     50  CB  VAL B  18      -3.419  23.215 -12.257  1.00  7.62 LIG 0.01  C 
ATOM     51  CG2 VAL B  18      -3.366  22.129 -13.323  1.00  8.69 LIG 0.01  C 
ATOM     52  CG1 VAL B  18      -3.706  24.614 -12.801  1.00  8.94 LIG 0.01  C 
ENDBRANCH 49 50
BRANCH 49 53
ATOM     53  C   VAL B  18      -1.188  22.038 -11.470  1.00  8.71 LIG 0.20  C 
ATOM     54 OXT  VAL B  18      -1.427  20.918 -11.295  1.00  9.21 LIG-0.65  OA
ATOM     55 O    VAL B  18      -0.098  22.524 -11.966  1.00  8.10 LIG-0.65  OA
ENDBRANCH 49 53
ENDBRANCH 46 49
ENDBRANCH 44 45
BRANCH 44 56
ATOM     56  CB  ASP B  17       0.470  25.936  -9.944  1.00  8.76 LIG 0.15  C 
BRANCH 56 57
ATOM     57  CG  ASP B  17       1.561  26.575 -10.739  1.00  8.08 LIG 0.17  C 
ATOM     58 OD1  ASP B  17       1.387  27.552 -11.407  1.00  9.66 LIG-0.65  OA
ATOM     59 OD2  ASP B  17       2.708  26.016 -10.594  1.00  7.95 LIG-0.65  OA
ENDBRANCH 56 57
ENDBRANCH 44 56
ENDBRANCH 42 44
ENDBRANCH 39 40
ENDBRANCH 36 39
ENDBRANCH 33 35
ENDBRANCH 3 33
TORSDOF 24
ENDMDL
MODEL 7
USER: ADFR SOLUTION from run 104
USER: SCORE 18.918276 LL:  -3.312 LR: -18.731 RR:   0.000 FEB: -11.571
USER: RMSD 6.709093
USER: SEED 103
USER: STATUS no improvement in best in 1 clusters for 5 generations
USER: GENES 26
USER: genes 0 Translation |==|  0.42789 0.52239 0.37444
USER: genes 1 Rotation |==|  0.59581 0.05219 0.66537 0.61376
USER: genes 2 Torsion [N]-C--CA-[N] |==|  0.44379
USER: genes 3 Torsion [C]-CA--N-[C] |==|  0.74043
USER: genes 4 Torsion [N]-C--CA-[N] |==|  0.23479
USER: genes 5 Torsion [C]-CA--CB-[CG] |==|  0.73577
USER: genes 6 Torsion [CA]-CB--CG-[CD] |==|  0.41840
USER: genes 7 Torsion [CB]-CG--CD-[CE] |==|  0.39114
USER: genes 8 Torsion [CG]-CD--CE-[NZ] |==|  0.08015
USER: genes 9 Torsion [CD]-CE--NZ-[HZ1] |==|  0.28618
USER: genes 10 Torsion [C]-CA--N-[C] |==|  0.76034
USER: genes 11 Torsion [N]-C--CA-[N] |==|  0.57751
USER: genes 12 Torsion [C]-CA--CB-[CG] |==|  0.53283
USER: genes 13 Torsion [CA]-CB--CG-[CD] |==|  0.32608
USER: genes 14 Torsion [CB]-CG--CD-[NE2] |==|  0.20971
USER: genes 15 Torsion [C]-N--CA-[CB] |==|  0.29438
USER: genes 16 Torsion [N]-CA--C-[N] |==|  0.43392
USER: genes 17 Torsion [C]-N--CA-[C] |==|  0.26523
USER: genes 18 Torsion [N]-CA--C-[N] |==|  0.28716
USER: genes 19 Torsion [C]-N--CA-[CB] |==|  0.51111
USER: genes 20 Torsion [N]-CA--C-[N] |==|  0.37515
USER: genes 21 Torsion [C]-N--CA-[CB] |==|  0.36281
USER: genes 22 Torsion [N]-CA--CB-[CG2] |==|  0.17474
USER: genes 23 Torsion [N]-CA--C-[OXT] |==|  0.59163
USER: genes 24 Torsion [N]-CA--CB-[CG] |==|  0.88520
USER: genes 25 Torsion [CA]-CB--CG-[OD1] |==|  0.34938
ROOT
ATOM      1  C   GLN B  14      -4.758  32.982 -11.356  1.00 10.58 LIG 0.24  C 
ATOM      2 O    GLN B  14      -3.773  33.285 -12.040  1.00 11.08 LIG-0.27  OA
ATOM      3  N   ALA B  15      -4.672  32.458 -10.107  1.00  8.59 LIG-0.35  N 
ATOM      4 H    ALA B  15      -5.340  32.220  -9.620  1.00  8.59 LIG 0.16  HD
ENDROOT
BRANCH 1 5
ATOM      5  CA  GLN B  14      -6.178  33.181 -11.921  1.00 10.91 LIG 0.18  C 
BRANCH 5 6
ATOM      6  N   GLN B  14      -6.164  34.166 -13.022  1.00 11.57 LIG-0.35  N 
ATOM      7 H    GLN B  14      -5.992  33.843 -13.800  1.00 11.57 LIG 0.16  HD
ATOM      8  C   LYS B  13      -6.408  35.447 -12.771  0.75 12.06 LIG 0.24  C 
ATOM      9 O    LYS B  13      -6.698  35.905 -11.654  0.75 12.45 LIG-0.27  OA
BRANCH 8 10
ATOM     10  CA  LYS B  13      -6.364  36.352 -14.012  0.75 15.41 LIG 0.18  C 
BRANCH 10 11
ATOM     11  CB  LYS B  13      -5.959  37.811 -13.703  0.75 17.54 LIG 0.04  C 
BRANCH 11 12
ATOM     12  CG  LYS B  13      -7.054  38.864 -13.483  0.75 22.88 LIG 0.00  C 
BRANCH 12 13
ATOM     13  CD  LYS B  13      -6.572  39.989 -12.516  0.75 30.51 LIG 0.03  C 
BRANCH 13 14
ATOM     14  CE  LYS B  13      -7.053  41.392 -12.942  0.75 32.79 LIG 0.23  C 
BRANCH 14 15
ATOM     15  NZ  LYS B  13      -8.332  41.452 -13.690  0.75 35.43 LIG-0.08  N 
ATOM     16 HZ1  LYS B  13      -8.981  41.725 -13.147  0.75 35.43 LIG 0.27  HD
ATOM     17 HZ2  LYS B  13      -8.253  42.022 -14.368  0.75 35.43 LIG 0.27  HD
ATOM     18 HZ3  LYS B  13      -8.530  40.643 -14.004  0.75 35.43 LIG 0.27  HD
ENDBRANCH 14 15
ENDBRANCH 13 14
ENDBRANCH 12 13
ENDBRANCH 11 12
ENDBRANCH 10 11
BRANCH 10 19
ATOM     19  N   LYS B  13      -7.669  36.316 -14.683  0.75 16.03 LIG-0.35  N 
ATOM     20  C   ALA B  12      -7.911  35.338 -15.579  0.50 20.56 LIG 0.26  C 
ATOM     21 O    ALA B  12      -7.078  34.499 -15.857  0.50 22.07 LIG-0.27  OA
ATOM     22 H    LYS B  13      -8.220  36.937 -14.461  0.75 16.03 LIG 0.16  HD
BRANCH 20 23
ATOM     23  CA  ALA B  12      -9.280  35.215 -16.244  0.50 23.14 LIG 0.40  C 
ATOM     24  N   ALA B  12      -9.610  33.845 -16.644  0.50 24.66 LIG 0.61  N 
ATOM     25  CB  ALA B  12     -10.379  35.845 -15.362  0.50 23.20 LIG 0.06  C 
ENDBRANCH 20 23
ENDBRANCH 10 19
ENDBRANCH 8 10
ENDBRANCH 5 6
BRANCH 5 26
ATOM     26  CB  GLN B  14      -6.741  31.846 -12.395  1.00 11.50 LIG 0.04  C 
BRANCH 26 27
ATOM     27  CG  GLN B  14      -8.049  31.941 -13.250  1.00 13.46 LIG 0.10  C 
BRANCH 27 28
ATOM     28  CD  GLN B  14      -7.916  31.438 -14.637  1.00 12.39 LIG 0.21  C 
ATOM     29 OE1  GLN B  14      -7.826  32.207 -15.565  1.00 14.45 LIG-0.27  OA
ATOM     30  NE2 GLN B  14      -7.883  30.128 -14.789  1.00 17.10 LIG-0.37  N 
ATOM     31 22HE GLN B  14      -7.795  29.789 -15.574  1.00 17.10 LIG 0.16  HD
ATOM     32 21HE GLN B  14      -7.950  29.614 -14.103  1.00 17.10 LIG 0.16  HD
ENDBRANCH 27 28
ENDBRANCH 26 27
ENDBRANCH 5 26
ENDBRANCH 1 5
BRANCH 3 33
ATOM     33  CA  ALA B  15      -3.367  32.268  -9.514  1.00  7.39 LIG 0.17  C 
ATOM     34  CB  ALA B  15      -3.135  33.385  -8.387  1.00  8.95 LIG 0.04  C 
BRANCH 33 35
ATOM     35  C   ALA B  15      -3.302  30.832  -8.961  1.00  7.55 LIG 0.24  C 
ATOM     36  N   GLY B  16      -2.112  30.276  -8.814  1.00  7.69 LIG-0.35  N 
ATOM     37 H    GLY B  16      -1.373  30.674  -9.000  1.00  7.69 LIG 0.16  HD
ATOM     38 O    ALA B  15      -4.333  30.249  -8.651  1.00  7.87 LIG-0.27  OA
BRANCH 36 39
ATOM     39  CA  GLY B  16      -1.944  28.895  -8.310  1.00  6.73 LIG 0.23  C 
BRANCH 39 40
ATOM     40  C   GLY B  16      -1.811  27.865  -9.382  1.00  7.46 LIG 0.24  C 
ATOM     41 O    GLY B  16      -2.792  27.449  -9.977  1.00  8.30 LIG-0.27  OA
ATOM     42  N   ASP B  17      -0.587  27.427  -9.583  1.00  6.73 LIG-0.35  N 
ATOM     43 H    ASP B  17       0.108  27.753  -9.196  1.00  6.73 LIG 0.16  HD
BRANCH 42 44
ATOM     44  CA  ASP B  17      -0.307  26.336 -10.490  1.00  7.41 LIG 0.19  C 
BRANCH 44 45
ATOM     45  C   ASP B  17      -1.073  25.103 -10.130  1.00  8.52 LIG 0.24  C 
ATOM     46  N   VAL B  18      -1.628  24.515 -11.165  1.00  7.60 LIG-0.34  N 
ATOM     47 H    VAL B  18      -1.773  24.884 -11.928  1.00  7.60 LIG 0.16  HD
ATOM     48 O    ASP B  17      -1.083  24.630  -8.982  1.00  9.78 LIG-0.27  OA
BRANCH 46 49
ATOM     49  CA  VAL B  18      -2.059  23.074 -11.043  1.00  7.37 LIG 0.19  C 
BRANCH 49 50
ATOM     50  CB  VAL B  18      -3.535  23.005 -11.574  1.00  7.62 LIG 0.01  C 
ATOM     51  CG2 VAL B  18      -3.701  23.376 -13.043  1.00  8.69 LIG 0.01  C 
ATOM     52  CG1 VAL B  18      -4.521  23.703 -10.637  1.00  8.94 LIG 0.01  C 
ENDBRANCH 49 50
BRANCH 49 53
ATOM     53  C   VAL B  18      -1.084  22.026 -11.687  1.00  8.71 LIG 0.20  C 
ATOM     54 OXT  VAL B  18      -1.427  21.034 -12.179  1.00  9.21 LIG-0.65  OA
ATOM     55 O    VAL B  18       0.119  22.498 -11.664  1.00  8.10 LIG-0.65  OA
ENDBRANCH 49 53
ENDBRANCH 46 49
ENDBRANCH 44 45
BRANCH 44 56
ATOM     56  CB  ASP B  17       1.188  25.942 -10.479  1.00  8.76 LIG 0.15  C 
BRANCH 56 57
ATOM     57  CG  ASP B  17       2.120  27.107 -10.439  1.00  8.08 LIG 0.17  C 
ATOM     58 OD1  ASP B  17       2.973  27.225  -9.607  1.00  9.66 LIG-0.65  OA
ATOM     59 OD2  ASP B  17       1.962  27.936 -11.407  1.00  7.95 LIG-0.65  OA
ENDBRANCH 56 57
ENDBRANCH 44 56
ENDBRANCH 42 44
ENDBRANCH 39 40
ENDBRANCH 36 39
ENDBRANCH 33 35
ENDBRANCH 3 33
TORSDOF 24
ENDMDL
MODEL 8
USER: ADFR SOLUTION from run 84
USER: SCORE 19.212396 LL:  -3.244 LR: -18.633 RR:   0.000 FEB: -11.474
USER: RMSD 7.087327
USER: SEED 83
USER: STATUS 1 or 2 clusters left
USER: GENES 26
USER: genes 0 Translation |==|  0.43619 0.53301 0.44343
USER: genes 1 Rotation |==|  0.74176 0.06977 0.54740 0.56490
USER: genes 2 Torsion [N]-C--CA-[N] |==|  0.66777
USER: genes 3 Torsion [C]-CA--N-[C] |==|  0.65403
USER: genes 4 Torsion [N]-C--CA-[N] |==|  0.24758
USER: genes 5 Torsion [C]-CA--CB-[CG] |==|  0.22424
USER: genes 6 Torsion [CA]-CB--CG-[CD] |==|  0.73567
USER: genes 7 Torsion [CB]-CG--CD-[CE] |==|  0.87867
USER: genes 8 Torsion [CG]-CD--CE-[NZ] |==|  0.65584
USER: genes 9 Torsion [CD]-CE--NZ-[HZ1] |==|  0.66098
USER: genes 10 Torsion [C]-CA--N-[C] |==|  0.78210
USER: genes 11 Torsion [N]-C--CA-[N] |==|  0.78970
USER: genes 12 Torsion [C]-CA--CB-[CG] |==|  0.41768
USER: genes 13 Torsion [CA]-CB--CG-[CD] |==|  0.34525
USER: genes 14 Torsion [CB]-CG--CD-[NE2] |==|  0.41468
USER: genes 15 Torsion [C]-N--CA-[CB] |==|  0.19140
USER: genes 16 Torsion [N]-CA--C-[N] |==|  0.04723
USER: genes 17 Torsion [C]-N--CA-[C] |==|  0.73748
USER: genes 18 Torsion [N]-CA--C-[N] |==|  0.59972
USER: genes 19 Torsion [C]-N--CA-[CB] |==|  0.22209
USER: genes 20 Torsion [N]-CA--C-[N] |==|  0.35000
USER: genes 21 Torsion [C]-N--CA-[CB] |==|  0.45998
USER: genes 22 Torsion [N]-CA--CB-[CG2] |==|  0.91350
USER: genes 23 Torsion [N]-CA--C-[OXT] |==|  0.91941
USER: genes 24 Torsion [N]-CA--CB-[CG] |==|  0.73866
USER: genes 25 Torsion [CA]-CB--CG-[OD1] |==|  0.43902
ROOT
ATOM      1  C   GLN B  14      -4.590  33.317 -10.166  1.00 10.58 LIG 0.24  C 
ATOM      2 O    GLN B  14      -4.034  34.357 -10.540  1.00 11.08 LIG-0.27  OA
ATOM      3  N   ALA B  15      -3.975  32.365  -9.420  1.00  8.59 LIG-0.35  N 
ATOM      4 H    ALA B  15      -4.332  31.625  -9.165  1.00  8.59 LIG 0.16  HD
ENDROOT
BRANCH 1 5
ATOM      5  CA  GLN B  14      -6.054  33.042 -10.560  1.00 10.91 LIG 0.18  C 
BRANCH 5 6
ATOM      6  N   GLN B  14      -6.196  32.999 -12.030  1.00 11.57 LIG-0.35  N 
ATOM      7 H    GLN B  14      -5.682  32.438 -12.431  1.00 11.57 LIG 0.16  HD
ATOM      8  C   LYS B  13      -7.071  33.794 -12.637  0.75 12.06 LIG 0.24  C 
ATOM      9 O    LYS B  13      -7.840  34.573 -12.051  0.75 12.45 LIG-0.27  OA
BRANCH 8 10
ATOM     10  CA  LYS B  13      -7.111  33.637 -14.164  0.75 15.41 LIG 0.18  C 
BRANCH 10 11
ATOM     11  CB  LYS B  13      -7.431  34.950 -14.915  0.75 17.54 LIG 0.04  C 
BRANCH 11 12
ATOM     12  CG  LYS B  13      -6.309  35.971 -15.154  0.75 22.88 LIG 0.00  C 
BRANCH 12 13
ATOM     13  CD  LYS B  13      -6.297  37.068 -14.046  0.75 30.51 LIG 0.03  C 
BRANCH 13 14
ATOM     14  CE  LYS B  13      -7.709  37.586 -13.700  0.75 32.79 LIG 0.23  C 
BRANCH 14 15
ATOM     15  NZ  LYS B  13      -7.923  39.047 -13.824  0.75 35.43 LIG-0.08  N 
ATOM     16 HZ1  LYS B  13      -8.191  39.376 -13.042  0.75 35.43 LIG 0.27  HD
ATOM     17 HZ2  LYS B  13      -7.162  39.440 -14.065  0.75 35.43 LIG 0.27  HD
ATOM     18 HZ3  LYS B  13      -8.546  39.205 -14.440  0.75 35.43 LIG 0.27  HD
ENDBRANCH 14 15
ENDBRANCH 13 14
ENDBRANCH 12 13
ENDBRANCH 11 12
ENDBRANCH 10 11
BRANCH 10 19
ATOM     19  N   LYS B  13      -8.082  32.597 -14.518  0.75 16.03 LIG-0.35  N 
ATOM     20  C   ALA B  12      -7.726  31.303 -14.385  0.50 20.56 LIG 0.26  C 
ATOM     21 O    ALA B  12      -6.623  30.976 -13.996  0.50 22.07 LIG-0.27  OA
ATOM     22 H    LYS B  13      -8.845  32.878 -14.798  0.75 16.03 LIG 0.16  HD
BRANCH 20 23
ATOM     23  CA  ALA B  12      -8.730  30.188 -14.667  0.50 23.14 LIG 0.40  C 
ATOM     24  N   ALA B  12      -9.721  30.014 -13.602  0.50 24.66 LIG 0.61  N 
ATOM     25  CB  ALA B  12      -9.390  30.377 -16.050  0.50 23.20 LIG 0.06  C 
ENDBRANCH 20 23
ENDBRANCH 10 19
ENDBRANCH 8 10
ENDBRANCH 5 6
BRANCH 5 26
ATOM     26  CB  GLN B  14      -6.525  31.734  -9.933  1.00 11.50 LIG 0.04  C 
BRANCH 26 27
ATOM     27  CG  GLN B  14      -8.056  31.663  -9.612  1.00 13.46 LIG 0.10  C 
BRANCH 27 28
ATOM     28  CD  GLN B  14      -8.760  30.515 -10.227  1.00 12.39 LIG 0.21  C 
ATOM     29 OE1  GLN B  14      -8.381  30.050 -11.277  1.00 14.45 LIG-0.27  OA
ATOM     30  NE2 GLN B  14      -9.793  30.031  -9.565  1.00 17.10 LIG-0.37  N 
ATOM     31 22HE GLN B  14     -10.227  29.357  -9.877  1.00 17.10 LIG 0.16  HD
ATOM     32 21HE GLN B  14     -10.032  30.390  -8.821  1.00 17.10 LIG 0.16  HD
ENDBRANCH 27 28
ENDBRANCH 26 27
ENDBRANCH 5 26
ENDBRANCH 1 5
BRANCH 3 33
ATOM     33  CA  ALA B  15      -2.608  32.576  -9.000  1.00  7.39 LIG 0.17  C 
ATOM     34  CB  ALA B  15      -2.568  33.763  -7.922  1.00  8.95 LIG 0.04  C 
BRANCH 33 35
ATOM     35  C   ALA B  15      -2.070  31.243  -8.447  1.00  7.55 LIG 0.24  C 
ATOM     36  N   GLY B  16      -2.727  30.135  -8.748  1.00  7.69 LIG-0.35  N 
ATOM     37 H    GLY B  16      -3.431  30.117  -9.242  1.00  7.69 LIG 0.16  HD
ATOM     38 O    ALA B  15      -1.051  31.229  -7.770  1.00  7.87 LIG-0.27  OA
BRANCH 36 39
ATOM     39  CA  GLY B  16      -2.303  28.809  -8.250  1.00  6.73 LIG 0.23  C 
BRANCH 39 40
ATOM     40  C   GLY B  16      -1.432  28.051  -9.196  1.00  7.46 LIG 0.24  C 
ATOM     41 O    GLY B  16      -0.643  28.633  -9.923  1.00  8.30 LIG-0.27  OA
ATOM     42  N   ASP B  17      -1.622  26.750  -9.207  1.00  6.73 LIG-0.35  N 
ATOM     43 H    ASP B  17      -2.144  26.337  -8.662  1.00  6.73 LIG 0.16  HD
BRANCH 42 44
ATOM     44  CA  ASP B  17      -0.955  25.890 -10.159  1.00  7.41 LIG 0.19  C 
BRANCH 44 45
ATOM     45  C   ASP B  17      -1.648  24.571 -10.297  1.00  8.52 LIG 0.24  C 
ATOM     46  N   VAL B  18      -1.956  24.274 -11.538  1.00  7.60 LIG-0.34  N 
ATOM     47 H    VAL B  18      -2.003  24.836 -12.187  1.00  7.60 LIG 0.16  HD
ATOM     48 O    ASP B  17      -1.808  23.794  -9.343  1.00  9.78 LIG-0.27  OA
BRANCH 46 49
ATOM     49  CA  VAL B  18      -2.259  22.838 -11.893  1.00  7.37 LIG 0.19  C 
BRANCH 49 50
ATOM     50  CB  VAL B  18      -2.940  22.865 -13.308  1.00  7.62 LIG 0.01  C 
ATOM     51  CG2 VAL B  18      -3.762  24.115 -13.595  1.00  8.69 LIG 0.01  C 
ATOM     52  CG1 VAL B  18      -3.659  21.555 -13.630  1.00  8.94 LIG 0.01  C 
ENDBRANCH 49 50
BRANCH 49 53
ATOM     53  C   VAL B  18      -1.048  21.847 -11.771  1.00  8.71 LIG 0.20  C 
ATOM     54 OXT  VAL B  18       0.060  22.153 -11.913  1.00  9.21 LIG-0.65  OA
ATOM     55 O    VAL B  18      -1.485  20.691 -11.393  1.00  8.10 LIG-0.65  OA
ENDBRANCH 49 53
ENDBRANCH 46 49
ENDBRANCH 44 45
BRANCH 44 56
ATOM     56  CB  ASP B  17       0.500  25.579  -9.738  1.00  8.76 LIG 0.15  C 
BRANCH 56 57
ATOM     57  CG  ASP B  17       1.513  26.496 -10.338  1.00  8.08 LIG 0.17  C 
ATOM     58 OD1  ASP B  17       2.596  26.666  -9.859  1.00  9.66 LIG-0.65  OA
ATOM     59 OD2  ASP B  17       1.137  27.038 -11.440  1.00  7.95 LIG-0.65  OA
ENDBRANCH 56 57
ENDBRANCH 44 56
ENDBRANCH 42 44
ENDBRANCH 39 40
ENDBRANCH 36 39
ENDBRANCH 33 35
ENDBRANCH 3 33
TORSDOF 24
ENDMDL
