MODEL 1
USER: ADFR SOLUTION from run 6
USER: SCORE 18.385118 LL:  -2.826 LR: -18.196 RR:   0.000 FEB: -12.230
USER: RMSD 4.865131
USER: SEED 608673
USER: STATUS no improvement in best in 1 clusters for 5 generations
USER: GENES 22
USER: genes 0 Translation |==|  0.40535 0.52697 0.50965
USER: genes 1 Rotation |==|  0.45046 0.52715 0.42850 0.99163
USER: genes 2 Torsion [N]-C--CA-[N] |==|  0.73987
USER: genes 3 Torsion [C]-CA--N-[C] |==|  0.66118
USER: genes 4 Torsion [N]-C--CA-[N] |==|  0.51688
USER: genes 5 Torsion [C]-CA--N-[C] |==|  0.66576
USER: genes 6 Torsion [N]-C--CA-[N] |==|  0.41185
USER: genes 7 Torsion [C]-CA--CB-[OG] |==|  0.11836
USER: genes 8 Torsion [CA]-CB--OG-[HG] |==|  0.07122
USER: genes 9 Torsion [C]-CA--CB-[CG] |==|  0.26889
USER: genes 10 Torsion [CA]-CB--CG-[CD] |==|  0.64859
USER: genes 11 Torsion [CB]-CG--CD-[CE] |==|  0.44243
USER: genes 12 Torsion [CG]-CD--CE-[NZ] |==|  0.45250
USER: genes 13 Torsion [CD]-CE--NZ-[HZ1] |==|  0.93910
USER: genes 14 Torsion [C]-N--CA-[CB] |==|  0.36096
USER: genes 15 Torsion [N]-CA--CB-[CG2] |==|  0.75563
USER: genes 16 Torsion [N]-CA--C-[N] |==|  0.30819
USER: genes 17 Torsion [N]-CA--C-[N] |==|  0.47968
USER: genes 18 Torsion [C]-N--CA-[C] |==|  0.78094
USER: genes 19 Torsion [N]-CA--C-[OXT] |==|  0.61916
USER: genes 20 Torsion [N]-CA--CB-[CG] |==|  0.78221
USER: genes 21 Torsion [CA]-CB--CG-[CD2] |==|  0.29246
ROOT
ATOM      1  C   LYS B   4     -29.430 -25.723  12.997  1.00 44.81 LIG 0.24  C 
ATOM      2 O    LYS B   4     -30.465 -25.319  13.500  1.00 44.64 LIG-0.27  OA
ATOM      3  N   VAL B   5     -28.323 -25.947  13.693  1.00 42.75 LIG-0.35  N 
ATOM      4 H    VAL B   5     -27.596 -26.249  13.346  1.00 42.75 LIG 0.16  HD
ENDROOT
BRANCH 1 5
ATOM      5  CA  LYS B   4     -29.367 -26.012  11.506  1.00 46.85 LIG 0.18  C 
BRANCH 5 6
ATOM      6  N   LYS B   4     -29.023 -24.787  10.788  1.00 49.38 LIG-0.35  N 
ATOM      7 H    LYS B   4     -28.278 -24.436  11.032  1.00 49.38 LIG 0.16  HD
ATOM      8  C   GLY B   3     -29.804 -24.270   9.841  1.00 51.92 LIG 0.24  C 
ATOM      9 O    GLY B   3     -30.667 -24.915   9.268  1.00 51.73 LIG-0.27  OA
BRANCH 8 10
ATOM     10  CA  GLY B   3     -29.570 -22.805   9.493  1.00 54.27 LIG 0.23  C 
BRANCH 10 11
ATOM     11  N   GLY B   3     -30.516 -22.204   8.554  1.00 57.77 LIG-0.35  N 
ATOM     12  C   SER B   2     -30.119 -21.684   7.386  1.00 59.92 LIG 0.26  C 
ATOM     13 O    SER B   2     -28.978 -21.856   6.928  1.00 61.15 LIG-0.27  OA
ATOM     14 H    GLY B   3     -31.334 -22.217   8.820  1.00 57.77 LIG 0.16  HD
BRANCH 12 15
ATOM     15  CA  SER B   2     -31.154 -20.858   6.581  1.00 60.93 LIG 0.42  C 
ATOM     16  N   SER B   2     -30.508 -19.762   5.790  1.00 61.12 LIG 0.62  N 
BRANCH 15 17
ATOM     17  CB  SER B   2     -32.036 -21.749   5.667  1.00 61.55 LIG 0.21  C 
BRANCH 17 18
ATOM     18 OG   SER B   2     -32.470 -22.952   6.309  1.00 63.00 LIG-0.40  OA
ATOM     19 HG   SER B   2     -32.487 -22.837   7.141  1.00 63.00 LIG 0.21  HD
ENDBRANCH 17 18
ENDBRANCH 15 17
ENDBRANCH 12 15
ENDBRANCH 10 11
ENDBRANCH 8 10
ENDBRANCH 5 6
BRANCH 5 20
ATOM     20  CB  LYS B   4     -28.342 -27.108  11.225  1.00 46.79 LIG 0.04  C 
BRANCH 20 21
ATOM     21  CG  LYS B   4     -28.974 -28.479  11.101  1.00 47.63 LIG 0.00  C 
BRANCH 21 22
ATOM     22  CD  LYS B   4     -28.334 -29.511  12.027  1.00 49.12 LIG 0.03  C 
BRANCH 22 23
ATOM     23  CE  LYS B   4     -29.304 -30.668  12.234  1.00 51.72 LIG 0.23  C 
BRANCH 23 24
ATOM     24  NZ  LYS B   4     -28.647 -31.894  12.773  1.00 54.70 LIG-0.08  N 
ATOM     25 HZ3  LYS B   4     -29.005 -32.615  12.394  1.00 54.70 LIG 0.27  HD
ATOM     26 HZ2  LYS B   4     -28.767 -31.933  13.654  1.00 54.70 LIG 0.27  HD
ATOM     27 HZ1  LYS B   4     -27.775 -31.867  12.593  1.00 54.70 LIG 0.27  HD
ENDBRANCH 23 24
ENDBRANCH 22 23
ENDBRANCH 21 22
ENDBRANCH 20 21
ENDBRANCH 5 20
ENDBRANCH 1 5
BRANCH 3 28
ATOM     28  CA  VAL B   5     -28.238 -25.697  15.114  1.00 41.28 LIG 0.18  C 
BRANCH 28 29
ATOM     29  CB  VAL B   5     -27.656 -26.905  15.945  1.00 41.63 LIG 0.01  C 
ATOM     30  CG2 VAL B   5     -28.764 -27.868  16.359  1.00 40.80 LIG 0.01  C 
ATOM     31  CG1 VAL B   5     -26.860 -26.410  17.209  1.00 37.84 LIG 0.01  C 
ENDBRANCH 28 29
BRANCH 28 32
ATOM     32  C   VAL B   5     -27.366 -24.480  15.296  1.00 41.69 LIG 0.24  C 
ATOM     33  N   PRO B   6     -27.979 -23.364  15.734  1.00 42.18 LIG-0.34  N 
ATOM     34  CD  PRO B   6     -29.415 -23.199  16.049  1.00 41.81 LIG 0.13  C 
ATOM     35  CA  PRO B   6     -27.211 -22.142  15.957  1.00 41.75 LIG 0.18  C 
ATOM     36  CG  PRO B   6     -29.573 -21.730  16.110  1.00 42.56 LIG 0.02  C 
ATOM     37  CB  PRO B   6     -28.223 -21.235  16.632  1.00 42.23 LIG 0.04  C 
ATOM     38 O    VAL B   5     -26.161 -24.524  15.036  1.00 40.76 LIG-0.27  OA
BRANCH 35 39
ATOM     39  C   PRO B   6     -26.012 -22.421  16.876  1.00 41.76 LIG 0.24  C 
ATOM     40 O    PRO B   6     -25.861 -23.530  17.362  1.00 42.44 LIG-0.27  OA
ATOM     41  N   LEU B   7     -25.129 -21.445  17.057  1.00 41.16 LIG-0.34  N 
ATOM     42 H    LEU B   7     -25.129 -20.702  16.623  1.00 41.16 LIG 0.16  HD
BRANCH 41 43
ATOM     43  CA  LEU B   7     -24.058 -21.580  18.048  1.00 40.72 LIG 0.18  C 
BRANCH 43 44
ATOM     44  C   LEU B   7     -24.530 -21.322  19.475  1.00 41.28 LIG 0.20  C 
ATOM     45 OXT  LEU B   7     -23.847 -20.644  20.262  1.00 40.17 LIG-0.65  OA
ATOM     46 O    LEU B   7     -25.616 -21.823  19.839  1.00 41.30 LIG-0.65  OA
ENDBRANCH 43 44
BRANCH 43 47
ATOM     47  CB  LEU B   7     -22.892 -20.644  17.728  1.00 40.49 LIG 0.04  C 
BRANCH 47 48
ATOM     48  CG  LEU B   7     -21.947 -21.106  16.619  1.00 39.74 LIG-0.02  C 
ATOM     49  CD2 LEU B   7     -22.199 -20.304  15.365  1.00 36.73 LIG 0.01  C 
ATOM     50  CD1 LEU B   7     -22.210 -22.568  16.346  1.00 40.10 LIG 0.01  C 
ENDBRANCH 47 48
ENDBRANCH 43 47
ENDBRANCH 41 43
ENDBRANCH 35 39
ENDBRANCH 28 32
ENDBRANCH 3 28
TORSDOF 20
ENDMDL
MODEL 2
USER: ADFR SOLUTION from run 43
USER: SCORE 19.287048 LL:  -2.715 LR: -17.932 RR:   0.000 FEB: -11.966
USER: RMSD 3.159048
USER: SEED 42
USER: STATUS no improvement in best in 2 clusters for 5 generations
USER: GENES 22
USER: genes 0 Translation |==|  0.40960 0.51215 0.48365
USER: genes 1 Rotation |==|  0.41659 0.46124 0.55657 0.98820
USER: genes 2 Torsion [N]-C--CA-[N] |==|  0.35174
USER: genes 3 Torsion [C]-CA--N-[C] |==|  0.64294
USER: genes 4 Torsion [N]-C--CA-[N] |==|  0.53866
USER: genes 5 Torsion [C]-CA--N-[C] |==|  0.24303
USER: genes 6 Torsion [N]-C--CA-[N] |==|  0.56862
USER: genes 7 Torsion [C]-CA--CB-[OG] |==|  0.32658
USER: genes 8 Torsion [CA]-CB--OG-[HG] |==|  0.11882
USER: genes 9 Torsion [C]-CA--CB-[CG] |==|  0.11723
USER: genes 10 Torsion [CA]-CB--CG-[CD] |==|  0.59113
USER: genes 11 Torsion [CB]-CG--CD-[CE] |==|  0.74826
USER: genes 12 Torsion [CG]-CD--CE-[NZ] |==|  0.45760
USER: genes 13 Torsion [CD]-CE--NZ-[HZ1] |==|  0.47639
USER: genes 14 Torsion [C]-N--CA-[CB] |==|  0.25484
USER: genes 15 Torsion [N]-CA--CB-[CG2] |==|  0.26257
USER: genes 16 Torsion [N]-CA--C-[N] |==|  0.37792
USER: genes 17 Torsion [N]-CA--C-[N] |==|  0.46978
USER: genes 18 Torsion [C]-N--CA-[C] |==|  0.75384
USER: genes 19 Torsion [N]-CA--C-[OXT] |==|  0.66152
USER: genes 20 Torsion [N]-CA--CB-[CG] |==|  0.85391
USER: genes 21 Torsion [CA]-CB--CG-[CD2] |==|  0.72812
ROOT
ATOM      1  C   LYS B   4     -29.347 -26.023  12.393  1.00 44.81 LIG 0.24  C 
ATOM      2 O    LYS B   4     -30.527 -26.180  12.659  1.00 44.64 LIG-0.27  OA
ATOM      3  N   VAL B   5     -28.459 -25.570  13.267  1.00 42.75 LIG-0.35  N 
ATOM      4 H    VAL B   5     -27.622 -25.475  13.090  1.00 42.75 LIG 0.16  HD
ENDROOT
BRANCH 1 5
ATOM      5  CA  LYS B   4     -28.824 -26.366  11.007  1.00 46.85 LIG 0.18  C 
BRANCH 5 6
ATOM      6  N   LYS B   4     -29.213 -27.732  10.665  1.00 49.38 LIG-0.35  N 
ATOM      7 H    LYS B   4     -30.051 -27.893  10.768  1.00 49.38 LIG 0.16  HD
ATOM      8  C   GLY B   3     -28.337 -28.638  10.235  1.00 51.92 LIG 0.24  C 
ATOM      9 O    GLY B   3     -27.245 -28.340   9.779  1.00 51.73 LIG-0.27  OA
BRANCH 8 10
ATOM     10  CA  GLY B   3     -28.765 -30.097  10.337  1.00 54.27 LIG 0.23  C 
BRANCH 10 11
ATOM     11  N   GLY B   3     -27.709 -31.094  10.167  1.00 57.77 LIG-0.35  N 
ATOM     12  C   SER B   2     -26.966 -31.520  11.197  1.00 59.92 LIG 0.26  C 
ATOM     13 O    SER B   2     -27.249 -31.264  12.380  1.00 61.15 LIG-0.27  OA
ATOM     14 H    GLY B   3     -27.613 -31.374   9.360  1.00 57.77 LIG 0.16  HD
BRANCH 12 15
ATOM     15  CA  SER B   2     -25.722 -32.385  10.874  1.00 60.93 LIG 0.42  C 
ATOM     16  N   SER B   2     -25.333 -33.264  12.023  1.00 61.12 LIG 0.62  N 
BRANCH 15 17
ATOM     17  CB  SER B   2     -25.906 -33.221   9.581  1.00 61.55 LIG 0.21  C 
BRANCH 17 18
ATOM     18 OG   SER B   2     -24.967 -32.879   8.555  1.00 63.00 LIG-0.40  OA
ATOM     19 HG   SER B   2     -24.204 -32.782   8.893  1.00 63.00 LIG 0.21  HD
ENDBRANCH 17 18
ENDBRANCH 15 17
ENDBRANCH 12 15
ENDBRANCH 10 11
ENDBRANCH 8 10
ENDBRANCH 5 6
BRANCH 5 20
ATOM     20  CB  LYS B   4     -29.370 -25.377   9.979  1.00 46.79 LIG 0.04  C 
BRANCH 20 21
ATOM     21  CG  LYS B   4     -29.351 -23.948  10.480  1.00 47.63 LIG 0.00  C 
BRANCH 21 22
ATOM     22  CD  LYS B   4     -30.509 -23.115   9.936  1.00 49.12 LIG 0.03  C 
BRANCH 22 23
ATOM     23  CE  LYS B   4     -30.078 -22.444   8.637  1.00 51.72 LIG 0.23  C 
BRANCH 23 24
ATOM     24  NZ  LYS B   4     -31.225 -21.911   7.845  1.00 54.70 LIG-0.08  N 
ATOM     25 HZ3  LYS B   4     -31.733 -21.400   8.366  1.00 54.70 LIG 0.27  HD
ATOM     26 HZ2  LYS B   4     -31.709 -22.587   7.530  1.00 54.70 LIG 0.27  HD
ATOM     27 HZ1  LYS B   4     -30.916 -21.425   7.165  1.00 54.70 LIG 0.27  HD
ENDBRANCH 23 24
ENDBRANCH 22 23
ENDBRANCH 21 22
ENDBRANCH 20 21
ENDBRANCH 5 20
ENDBRANCH 1 5
BRANCH 3 28
ATOM     28  CA  VAL B   5     -28.823 -25.190  14.613  1.00 41.28 LIG 0.18  C 
BRANCH 28 29
ATOM     29  CB  VAL B   5     -28.696 -26.357  15.667  1.00 41.63 LIG 0.01  C 
ATOM     30  CG2 VAL B   5     -27.344 -26.314  16.370  1.00 40.80 LIG 0.01  C 
ATOM     31  CG1 VAL B   5     -28.923 -27.765  15.004  1.00 37.84 LIG 0.01  C 
ENDBRANCH 28 29
BRANCH 28 32
ATOM     32  C   VAL B   5     -27.924 -24.043  15.006  1.00 41.69 LIG 0.24  C 
ATOM     33  N   PRO B   6     -28.514 -23.008  15.633  1.00 42.18 LIG-0.34  N 
ATOM     34  CD  PRO B   6     -29.947 -22.869  15.975  1.00 41.81 LIG 0.13  C 
ATOM     35  CA  PRO B   6     -27.720 -21.861  16.067  1.00 41.75 LIG 0.18  C 
ATOM     36  CG  PRO B   6     -30.073 -21.431  16.293  1.00 42.56 LIG 0.02  C 
ATOM     37  CB  PRO B   6     -28.714 -21.064  16.891  1.00 42.23 LIG 0.04  C 
ATOM     38 O    VAL B   5     -26.720 -24.067  14.740  1.00 40.76 LIG-0.27  OA
BRANCH 35 39
ATOM     39  C   PRO B   6     -26.530 -22.324  16.921  1.00 41.76 LIG 0.24  C 
ATOM     40 O    PRO B   6     -26.440 -23.493  17.259  1.00 42.44 LIG-0.27  OA
ATOM     41  N   LEU B   7     -25.589 -21.431  17.209  1.00 41.16 LIG-0.34  N 
ATOM     42 H    LEU B   7     -25.549 -20.640  16.873  1.00 41.16 LIG 0.16  HD
BRANCH 41 43
ATOM     43  CA  LEU B   7     -24.517 -21.753  18.155  1.00 40.72 LIG 0.18  C 
BRANCH 43 44
ATOM     44  C   LEU B   7     -24.881 -21.428  19.600  1.00 41.28 LIG 0.20  C 
ATOM     45 OXT  LEU B   7     -24.189 -20.644  20.273  1.00 40.17 LIG-0.65  OA
ATOM     46 O    LEU B   7     -25.885 -21.983  20.097  1.00 41.30 LIG-0.65  OA
ENDBRANCH 43 44
BRANCH 43 47
ATOM     47  CB  LEU B   7     -23.223 -21.027  17.788  1.00 40.49 LIG 0.04  C 
BRANCH 47 48
ATOM     48  CG  LEU B   7     -22.741 -21.205  16.347  1.00 39.74 LIG-0.02  C 
ATOM     49  CD2 LEU B   7     -21.683 -22.280  16.291  1.00 36.73 LIG 0.01  C 
ATOM     50  CD1 LEU B   7     -22.158 -19.895  15.874  1.00 40.10 LIG 0.01  C 
ENDBRANCH 47 48
ENDBRANCH 43 47
ENDBRANCH 41 43
ENDBRANCH 35 39
ENDBRANCH 28 32
ENDBRANCH 3 28
TORSDOF 20
ENDMDL
MODEL 3
USER: ADFR SOLUTION from run 135
USER: SCORE 18.348609 LL:  -3.074 LR: -17.429 RR:   0.000 FEB: -11.463
USER: RMSD 2.742145
USER: SEED 134
USER: STATUS no improvement in best in 2 clusters for 5 generations
USER: GENES 22
USER: genes 0 Translation |==|  0.42118 0.59598 0.47905
USER: genes 1 Rotation |==|  0.50384 0.50659 0.29123 0.95427
USER: genes 2 Torsion [N]-C--CA-[N] |==|  0.18393
USER: genes 3 Torsion [C]-CA--N-[C] |==|  0.79891
USER: genes 4 Torsion [N]-C--CA-[N] |==|  0.59138
USER: genes 5 Torsion [C]-CA--N-[C] |==|  0.77597
USER: genes 6 Torsion [N]-C--CA-[N] |==|  0.57601
USER: genes 7 Torsion [C]-CA--CB-[OG] |==|  0.31259
USER: genes 8 Torsion [CA]-CB--OG-[HG] |==|  0.28148
USER: genes 9 Torsion [C]-CA--CB-[CG] |==|  0.54393
USER: genes 10 Torsion [CA]-CB--CG-[CD] |==|  0.48880
USER: genes 11 Torsion [CB]-CG--CD-[CE] |==|  0.31380
USER: genes 12 Torsion [CG]-CD--CE-[NZ] |==|  0.13925
USER: genes 13 Torsion [CD]-CE--NZ-[HZ1] |==|  0.47112
USER: genes 14 Torsion [C]-N--CA-[CB] |==|  0.45107
USER: genes 15 Torsion [N]-CA--CB-[CG2] |==|  0.83827
USER: genes 16 Torsion [N]-CA--C-[N] |==|  0.30946
USER: genes 17 Torsion [N]-CA--C-[N] |==|  0.42584
USER: genes 18 Torsion [C]-N--CA-[C] |==|  0.79098
USER: genes 19 Torsion [N]-CA--C-[OXT] |==|  0.64372
USER: genes 20 Torsion [N]-CA--CB-[CG] |==|  0.87285
USER: genes 21 Torsion [CA]-CB--CG-[CD2] |==|  0.70955
ROOT
ATOM      1  C   LYS B   4     -29.121 -24.325  12.286  1.00 44.81 LIG 0.24  C 
ATOM      2 O    LYS B   4     -29.863 -23.472  12.743  1.00 44.64 LIG-0.27  OA
ATOM      3  N   VAL B   5     -28.456 -25.191  13.040  1.00 42.75 LIG-0.35  N 
ATOM      4 H    VAL B   5     -27.947 -25.806  12.722  1.00 42.75 LIG 0.16  HD
ENDROOT
BRANCH 1 5
ATOM      5  CA  LYS B   4     -28.933 -24.448  10.782  1.00 46.85 LIG 0.18  C 
BRANCH 5 6
ATOM      6  N   LYS B   4     -29.501 -25.713  10.323  1.00 49.38 LIG-0.35  N 
ATOM      7 H    LYS B   4     -30.233 -25.628   9.880  1.00 49.38 LIG 0.16  HD
ATOM      8  C   GLY B   3     -28.926 -26.887  10.575  1.00 51.92 LIG 0.24  C 
ATOM      9 O    GLY B   3     -27.755 -26.997  10.898  1.00 51.73 LIG-0.27  OA
BRANCH 8 10
ATOM     10  CA  GLY B   3     -29.813 -28.119  10.438  1.00 54.27 LIG 0.23  C 
BRANCH 10 11
ATOM     11  N   GLY B   3     -29.524 -29.227  11.347  1.00 57.77 LIG-0.35  N 
ATOM     12  C   SER B   2     -28.533 -30.096  11.111  1.00 59.92 LIG 0.26  C 
ATOM     13 O    SER B   2     -27.672 -29.910  10.235  1.00 61.15 LIG-0.27  OA
ATOM     14 H    GLY B   3     -30.041 -29.266  12.034  1.00 57.77 LIG 0.16  HD
BRANCH 12 15
ATOM     15  CA  SER B   2     -28.467 -31.366  11.996  1.00 60.93 LIG 0.42  C 
ATOM     16  N   SER B   2     -27.071 -31.894  12.122  1.00 61.12 LIG 0.62  N 
BRANCH 15 17
ATOM     17  CB  SER B   2     -29.097 -31.142  13.396  1.00 61.55 LIG 0.21  C 
BRANCH 17 18
ATOM     18 OG   SER B   2     -30.299 -31.894  13.596  1.00 63.00 LIG-0.40  OA
ATOM     19 HG   SER B   2     -30.131 -32.573  14.061  1.00 63.00 LIG 0.21  HD
ENDBRANCH 17 18
ENDBRANCH 15 17
ENDBRANCH 12 15
ENDBRANCH 10 11
ENDBRANCH 8 10
ENDBRANCH 5 6
BRANCH 5 20
ATOM     20  CB  LYS B   4     -29.595 -23.269  10.072  1.00 46.79 LIG 0.04  C 
BRANCH 20 21
ATOM     21  CG  LYS B   4     -29.781 -23.514   8.589  1.00 47.63 LIG 0.00  C 
BRANCH 21 22
ATOM     22  CD  LYS B   4     -30.530 -22.381   7.892  1.00 49.12 LIG 0.03  C 
BRANCH 22 23
ATOM     23  CE  LYS B   4     -29.584 -21.672   6.929  1.00 51.72 LIG 0.23  C 
BRANCH 23 24
ATOM     24  NZ  LYS B   4     -28.859 -22.610   6.023  1.00 54.70 LIG-0.08  N 
ATOM     25 HZ3  LYS B   4     -29.441 -23.169   5.647  1.00 54.70 LIG 0.27  HD
ATOM     26 HZ2  LYS B   4     -28.263 -23.075   6.492  1.00 54.70 LIG 0.27  HD
ATOM     27 HZ1  LYS B   4     -28.441 -22.146   5.388  1.00 54.70 LIG 0.27  HD
ENDBRANCH 23 24
ENDBRANCH 22 23
ENDBRANCH 21 22
ENDBRANCH 20 21
ENDBRANCH 5 20
ENDBRANCH 1 5
BRANCH 3 28
ATOM     28  CA  VAL B   5     -28.531 -25.175  14.483  1.00 41.28 LIG 0.18  C 
BRANCH 28 29
ATOM     29  CB  VAL B   5     -28.044 -26.511  15.167  1.00 41.63 LIG 0.01  C 
ATOM     30  CG2 VAL B   5     -28.857 -27.704  14.675  1.00 40.80 LIG 0.01  C 
ATOM     31  CG1 VAL B   5     -28.106 -26.416  16.736  1.00 37.84 LIG 0.01  C 
ENDBRANCH 28 29
BRANCH 28 32
ATOM     32  C   VAL B   5     -27.684 -24.019  14.955  1.00 41.69 LIG 0.24  C 
ATOM     33  N   PRO B   6     -28.342 -22.982  15.507  1.00 42.18 LIG-0.34  N 
ATOM     34  CD  PRO B   6     -29.804 -22.848  15.695  1.00 41.81 LIG 0.13  C 
ATOM     35  CA  PRO B   6     -27.604 -21.825  16.008  1.00 41.75 LIG 0.18  C 
ATOM     36  CG  PRO B   6     -29.970 -21.407  15.983  1.00 42.56 LIG 0.02  C 
ATOM     37  CB  PRO B   6     -28.683 -21.027  16.716  1.00 42.23 LIG 0.04  C 
ATOM     38 O    VAL B   5     -26.459 -24.038  14.817  1.00 40.76 LIG-0.27  OA
BRANCH 35 39
ATOM     39  C   PRO B   6     -26.507 -22.272  16.987  1.00 41.76 LIG 0.24  C 
ATOM     40 O    PRO B   6     -26.606 -23.340  17.568  1.00 42.44 LIG-0.27  OA
ATOM     41  N   LEU B   7     -25.437 -21.494  17.116  1.00 41.16 LIG-0.34  N 
ATOM     42 H    LEU B   7     -25.270 -20.810  16.623  1.00 41.16 LIG 0.16  HD
BRANCH 41 43
ATOM     43  CA  LEU B   7     -24.435 -21.767  18.151  1.00 40.72 LIG 0.18  C 
BRANCH 43 44
ATOM     44  C   LEU B   7     -24.898 -21.368  19.548  1.00 41.28 LIG 0.20  C 
ATOM     45 OXT  LEU B   7     -24.194 -20.644  20.273  1.00 40.17 LIG-0.65  OA
ATOM     46 O    LEU B   7     -25.998 -21.803  19.953  1.00 41.30 LIG-0.65  OA
ENDBRANCH 43 44
BRANCH 43 47
ATOM     47  CB  LEU B   7     -23.116 -21.059  17.838  1.00 40.49 LIG 0.04  C 
BRANCH 47 48
ATOM     48  CG  LEU B   7     -22.618 -21.177  16.398  1.00 39.74 LIG-0.02  C 
ATOM     49  CD2 LEU B   7     -21.474 -22.160  16.331  1.00 36.73 LIG 0.01  C 
ATOM     50  CD1 LEU B   7     -22.143 -19.817  15.944  1.00 40.10 LIG 0.01  C 
ENDBRANCH 47 48
ENDBRANCH 43 47
ENDBRANCH 41 43
ENDBRANCH 35 39
ENDBRANCH 28 32
ENDBRANCH 3 28
TORSDOF 20
ENDMDL
MODEL 4
USER: ADFR SOLUTION from run 146
USER: SCORE 18.329369 LL:  -2.702 LR: -16.714 RR:   0.000 FEB: -10.748
USER: RMSD 5.100352
USER: SEED 145
USER: STATUS 1 or 2 clusters left
USER: GENES 22
USER: genes 0 Translation |==|  0.46188 0.51283 0.56798
USER: genes 1 Rotation |==|  0.60988 0.54988 0.98057 0.56705
USER: genes 2 Torsion [N]-C--CA-[N] |==|  0.29731
USER: genes 3 Torsion [C]-CA--N-[C] |==|  0.61867
USER: genes 4 Torsion [N]-C--CA-[N] |==|  0.30972
USER: genes 5 Torsion [C]-CA--N-[C] |==|  0.33108
USER: genes 6 Torsion [N]-C--CA-[N] |==|  0.43359
USER: genes 7 Torsion [C]-CA--CB-[OG] |==|  0.23313
USER: genes 8 Torsion [CA]-CB--OG-[HG] |==|  0.38934
USER: genes 9 Torsion [C]-CA--CB-[CG] |==|  0.12653
USER: genes 10 Torsion [CA]-CB--CG-[CD] |==|  0.37094
USER: genes 11 Torsion [CB]-CG--CD-[CE] |==|  0.23046
USER: genes 12 Torsion [CG]-CD--CE-[NZ] |==|  0.35666
USER: genes 13 Torsion [CD]-CE--NZ-[HZ1] |==|  0.14928
USER: genes 14 Torsion [C]-N--CA-[CB] |==|  0.87778
USER: genes 15 Torsion [N]-CA--CB-[CG2] |==|  0.77770
USER: genes 16 Torsion [N]-CA--C-[N] |==|  0.34656
USER: genes 17 Torsion [N]-CA--C-[N] |==|  0.43332
USER: genes 18 Torsion [C]-N--CA-[C] |==|  0.80531
USER: genes 19 Torsion [N]-CA--C-[OXT] |==|  0.01462
USER: genes 20 Torsion [N]-CA--CB-[CG] |==|  0.60328
USER: genes 21 Torsion [CA]-CB--CG-[CD2] |==|  0.39236
ROOT
ATOM      1  C   LYS B   4     -28.327 -26.009  14.354  1.00 44.81 LIG 0.24  C 
ATOM      2 O    LYS B   4     -27.144 -26.292  14.273  1.00 44.64 LIG-0.27  OA
ATOM      3  N   VAL B   5     -28.886 -25.529  15.456  1.00 42.75 LIG-0.35  N 
ATOM      4 H    VAL B   5     -29.716 -25.311  15.513  1.00 42.75 LIG 0.16  HD
ENDROOT
BRANCH 1 5
ATOM      5  CA  LYS B   4     -29.239 -26.185  13.149  1.00 46.85 LIG 0.18  C 
BRANCH 5 6
ATOM      6  N   LYS B   4     -28.937 -25.154  12.158  1.00 49.38 LIG-0.35  N 
ATOM      7 H    LYS B   4     -28.097 -25.015  12.042  1.00 49.38 LIG 0.16  HD
ATOM      8  C   GLY B   3     -29.889 -24.496  11.500  1.00 51.92 LIG 0.24  C 
ATOM      9 O    GLY B   3     -31.036 -24.903  11.410  1.00 51.73 LIG-0.27  OA
BRANCH 8 10
ATOM     10  CA  GLY B   3     -29.478 -23.182  10.846  1.00 54.27 LIG 0.23  C 
BRANCH 10 11
ATOM     11  N   GLY B   3     -29.460 -23.165   9.385  1.00 57.77 LIG-0.35  N 
ATOM     12  C   SER B   2     -30.236 -22.334   8.677  1.00 59.92 LIG 0.26  C 
ATOM     13 O    SER B   2     -30.860 -21.393   9.196  1.00 61.15 LIG-0.27  OA
ATOM     14 H    GLY B   3     -28.914 -23.728   9.031  1.00 57.77 LIG 0.16  HD
BRANCH 12 15
ATOM     15  CA  SER B   2     -30.323 -22.562   7.147  1.00 60.93 LIG 0.42  C 
ATOM     16  N   SER B   2     -31.585 -22.004   6.565  1.00 61.12 LIG 0.62  N 
BRANCH 15 17
ATOM     17  CB  SER B   2     -29.082 -22.011   6.398  1.00 61.55 LIG 0.21  C 
BRANCH 17 18
ATOM     18 OG   SER B   2     -27.981 -22.927   6.388  1.00 63.00 LIG-0.40  OA
ATOM     19 HG   SER B   2     -27.607 -22.908   5.636  1.00 63.00 LIG 0.21  HD
ENDBRANCH 17 18
ENDBRANCH 15 17
ENDBRANCH 12 15
ENDBRANCH 10 11
ENDBRANCH 8 10
ENDBRANCH 5 6
BRANCH 5 20
ATOM     20  CB  LYS B   4     -29.057 -27.578  12.551  1.00 46.79 LIG 0.04  C 
BRANCH 20 21
ATOM     21  CG  LYS B   4     -29.040 -28.666  13.605  1.00 47.63 LIG 0.00  C 
BRANCH 21 22
ATOM     22  CD  LYS B   4     -29.925 -29.856  13.241  1.00 49.12 LIG 0.03  C 
BRANCH 22 23
ATOM     23  CE  LYS B   4     -29.156 -30.787  12.312  1.00 51.72 LIG 0.23  C 
BRANCH 23 24
ATOM     24  NZ  LYS B   4     -29.159 -32.207  12.773  1.00 54.70 LIG-0.08  N 
ATOM     25 HZ3  LYS B   4     -28.703 -32.272  13.535  1.00 54.70 LIG 0.27  HD
ATOM     26 HZ2  LYS B   4     -28.777 -32.720  12.155  1.00 54.70 LIG 0.27  HD
ATOM     27 HZ1  LYS B   4     -29.998 -32.475  12.905  1.00 54.70 LIG 0.27  HD
ENDBRANCH 23 24
ENDBRANCH 22 23
ENDBRANCH 21 22
ENDBRANCH 20 21
ENDBRANCH 5 20
ENDBRANCH 1 5
BRANCH 3 28
ATOM     28  CA  VAL B   5     -28.140 -25.330  16.678  1.00 41.28 LIG 0.18  C 
BRANCH 28 29
ATOM     29  CB  VAL B   5     -27.178 -26.525  17.046  1.00 41.63 LIG 0.01  C 
ATOM     30  CG2 VAL B   5     -27.949 -27.665  17.701  1.00 40.80 LIG 0.01  C 
ATOM     31  CG1 VAL B   5     -25.999 -26.055  17.977  1.00 37.84 LIG 0.01  C 
ENDBRANCH 28 29
BRANCH 28 32
ATOM     32  C   VAL B   5     -27.341 -24.062  16.503  1.00 41.69 LIG 0.24  C 
ATOM     33  N   PRO B   6     -27.516 -23.110  17.439  1.00 42.18 LIG-0.34  N 
ATOM     34  CD  PRO B   6     -28.410 -23.169  18.617  1.00 41.81 LIG 0.13  C 
ATOM     35  CA  PRO B   6     -26.771 -21.857  17.362  1.00 41.75 LIG 0.18  C 
ATOM     36  CG  PRO B   6     -28.475 -21.757  19.053  1.00 42.56 LIG 0.02  C 
ATOM     37  CB  PRO B   6     -27.101 -21.194  18.687  1.00 42.23 LIG 0.04  C 
ATOM     38 O    VAL B   5     -26.587 -23.921  15.537  1.00 40.76 LIG-0.27  OA
BRANCH 35 39
ATOM     39  C   PRO B   6     -25.265 -22.134  17.237  1.00 41.76 LIG 0.24  C 
ATOM     40 O    PRO B   6     -24.812 -23.212  17.583  1.00 42.44 LIG-0.27  OA
ATOM     41  N   LEU B   7     -24.505 -21.194  16.682  1.00 41.16 LIG-0.34  N 
ATOM     42 H    LEU B   7     -24.809 -20.485  16.302  1.00 41.16 LIG 0.16  HD
BRANCH 41 43
ATOM     43  CA  LEU B   7     -23.045 -21.317  16.683  1.00 40.72 LIG 0.18  C 
BRANCH 43 44
ATOM     44  C   LEU B   7     -22.434 -21.143  18.070  1.00 41.28 LIG 0.20  C 
ATOM     45 OXT  LEU B   7     -23.154 -21.019  19.076  1.00 40.17 LIG-0.65  OA
ATOM     46 O    LEU B   7     -21.188 -21.113  18.168  1.00 41.30 LIG-0.65  OA
ENDBRANCH 43 44
BRANCH 43 47
ATOM     47  CB  LEU B   7     -22.408 -20.309  15.725  1.00 40.49 LIG 0.04  C 
BRANCH 47 48
ATOM     48  CG  LEU B   7     -21.182 -20.800  14.956  1.00 39.74 LIG-0.02  C 
ATOM     49  CD2 LEU B   7     -21.218 -20.269  13.543  1.00 36.73 LIG 0.01  C 
ATOM     50  CD1 LEU B   7     -21.207 -22.309  14.930  1.00 40.10 LIG 0.01  C 
ENDBRANCH 47 48
ENDBRANCH 43 47
ENDBRANCH 41 43
ENDBRANCH 35 39
ENDBRANCH 28 32
ENDBRANCH 3 28
TORSDOF 20
ENDMDL
MODEL 5
USER: ADFR SOLUTION from run 133
USER: SCORE 18.393105 LL:  -2.995 LR: -16.704 RR:   0.000 FEB: -10.738
USER: RMSD 3.286140
USER: SEED 132
USER: STATUS 1 or 2 clusters left
USER: GENES 22
USER: genes 0 Translation |==|  0.41669 0.48988 0.48898
USER: genes 1 Rotation |==|  0.41250 0.46687 0.60377 0.98008
USER: genes 2 Torsion [N]-C--CA-[N] |==|  0.36973
USER: genes 3 Torsion [C]-CA--N-[C] |==|  0.60841
USER: genes 4 Torsion [N]-C--CA-[N] |==|  0.00281
USER: genes 5 Torsion [C]-CA--N-[C] |==|  0.75228
USER: genes 6 Torsion [N]-C--CA-[N] |==|  0.21365
USER: genes 7 Torsion [C]-CA--CB-[OG] |==|  0.60630
USER: genes 8 Torsion [CA]-CB--OG-[HG] |==|  0.21893
USER: genes 9 Torsion [C]-CA--CB-[CG] |==|  0.21708
USER: genes 10 Torsion [CA]-CB--CG-[CD] |==|  0.75154
USER: genes 11 Torsion [CB]-CG--CD-[CE] |==|  0.91197
USER: genes 12 Torsion [CG]-CD--CE-[NZ] |==|  0.76571
USER: genes 13 Torsion [CD]-CE--NZ-[HZ1] |==|  0.39699
USER: genes 14 Torsion [C]-N--CA-[CB] |==|  0.23625
USER: genes 15 Torsion [N]-CA--CB-[CG2] |==|  0.23704
USER: genes 16 Torsion [N]-CA--C-[N] |==|  0.37222
USER: genes 17 Torsion [N]-CA--C-[N] |==|  0.46769
USER: genes 18 Torsion [C]-N--CA-[C] |==|  0.74195
USER: genes 19 Torsion [N]-CA--C-[OXT] |==|  0.60731
USER: genes 20 Torsion [N]-CA--CB-[CG] |==|  0.83812
USER: genes 21 Torsion [CA]-CB--CG-[CD2] |==|  0.76497
ROOT
ATOM      1  C   LYS B   4     -29.209 -26.474  12.517  1.00 44.81 LIG 0.24  C 
ATOM      2 O    LYS B   4     -30.326 -26.831  12.850  1.00 44.64 LIG-0.27  OA
ATOM      3  N   VAL B   5     -28.380 -25.830  13.328  1.00 42.75 LIG-0.35  N 
ATOM      4 H    VAL B   5     -27.584 -25.593  13.104  1.00 42.75 LIG 0.16  HD
ENDROOT
BRANCH 1 5
ATOM      5  CA  LYS B   4     -28.695 -26.775  11.117  1.00 46.85 LIG 0.18  C 
BRANCH 5 6
ATOM      6  N   LYS B   4     -28.983 -28.169  10.785  1.00 49.38 LIG-0.35  N 
ATOM      7 H    LYS B   4     -29.748 -28.444  11.062  1.00 49.38 LIG 0.16  HD
ATOM      8  C   GLY B   3     -28.126 -28.934  10.111  1.00 51.92 LIG 0.24  C 
ATOM      9 O    GLY B   3     -27.214 -28.477   9.442  1.00 51.73 LIG-0.27  OA
BRANCH 8 10
ATOM     10  CA  GLY B   3     -28.337 -30.440  10.212  1.00 54.27 LIG 0.23  C 
BRANCH 10 11
ATOM     11  N   GLY B   3     -29.473 -30.881  11.020  1.00 57.77 LIG-0.35  N 
ATOM     12  C   SER B   2     -29.359 -31.111  12.335  1.00 59.92 LIG 0.26  C 
ATOM     13 O    SER B   2     -28.359 -30.774  12.991  1.00 61.15 LIG-0.27  OA
ATOM     14 H    GLY B   3     -30.205 -30.976  10.579  1.00 57.77 LIG 0.16  HD
BRANCH 12 15
ATOM     15  CA  SER B   2     -30.547 -31.806  13.047  1.00 60.93 LIG 0.42  C 
ATOM     16  N   SER B   2     -30.584 -33.278  12.775  1.00 61.12 LIG 0.62  N 
BRANCH 15 17
ATOM     17  CB  SER B   2     -30.562 -31.529  14.573  1.00 61.55 LIG 0.21  C 
BRANCH 17 18
ATOM     18 OG   SER B   2     -30.959 -32.668  15.344  1.00 63.00 LIG-0.40  OA
ATOM     19 HG   SER B   2     -30.312 -33.199  15.415  1.00 63.00 LIG 0.21  HD
ENDBRANCH 17 18
ENDBRANCH 15 17
ENDBRANCH 12 15
ENDBRANCH 10 11
ENDBRANCH 8 10
ENDBRANCH 5 6
BRANCH 5 20
ATOM     20  CB  LYS B   4     -29.344 -25.834  10.105  1.00 46.79 LIG 0.04  C 
BRANCH 20 21
ATOM     21  CG  LYS B   4     -28.721 -24.454  10.111  1.00 47.63 LIG 0.00  C 
BRANCH 21 22
ATOM     22  CD  LYS B   4     -29.394 -23.505  11.100  1.00 49.12 LIG 0.03  C 
BRANCH 22 23
ATOM     23  CE  LYS B   4     -30.871 -23.865  11.214  1.00 51.72 LIG 0.23  C 
BRANCH 23 24
ATOM     24  NZ  LYS B   4     -31.709 -23.243  10.148  1.00 54.70 LIG-0.08  N 
ATOM     25 HZ3  LYS B   4     -31.199 -23.045   9.447  1.00 54.70 LIG 0.27  HD
ATOM     26 HZ2  LYS B   4     -32.084 -22.499  10.461  1.00 54.70 LIG 0.27  HD
ATOM     27 HZ1  LYS B   4     -32.345 -23.814   9.899  1.00 54.70 LIG 0.27  HD
ENDBRANCH 23 24
ENDBRANCH 22 23
ENDBRANCH 21 22
ENDBRANCH 20 21
ENDBRANCH 5 20
ENDBRANCH 1 5
BRANCH 3 28
ATOM     28  CA  VAL B   5     -28.746 -25.465  14.677  1.00 41.28 LIG 0.18  C 
BRANCH 28 29
ATOM     29  CB  VAL B   5     -28.513 -26.609  15.738  1.00 41.63 LIG 0.01  C 
ATOM     30  CG2 VAL B   5     -27.077 -26.596  16.250  1.00 40.80 LIG 0.01  C 
ATOM     31  CG1 VAL B   5     -28.873 -28.025  15.154  1.00 37.84 LIG 0.01  C 
ENDBRANCH 28 29
BRANCH 28 32
ATOM     32  C   VAL B   5     -27.928 -24.251  15.043  1.00 41.69 LIG 0.24  C 
ATOM     33  N   PRO B   6     -28.590 -23.239  15.634  1.00 42.18 LIG-0.34  N 
ATOM     34  CD  PRO B   6     -30.032 -23.185  15.960  1.00 41.81 LIG 0.13  C 
ATOM     35  CA  PRO B   6     -27.877 -22.031  16.040  1.00 41.75 LIG 0.18  C 
ATOM     36  CG  PRO B   6     -30.255 -21.749  16.234  1.00 42.56 LIG 0.02  C 
ATOM     37  CB  PRO B   6     -28.929 -21.277  16.832  1.00 42.23 LIG 0.04  C 
ATOM     38 O    VAL B   5     -26.722 -24.204  14.787  1.00 40.76 LIG-0.27  OA
BRANCH 35 39
ATOM     39  C   PRO B   6     -26.668 -22.390  16.916  1.00 41.76 LIG 0.24  C 
ATOM     40 O    PRO B   6     -26.512 -23.537  17.301  1.00 42.44 LIG-0.27  OA
ATOM     41  N   LEU B   7     -25.781 -21.433  17.173  1.00 41.16 LIG-0.34  N 
ATOM     42 H    LEU B   7     -25.786 -20.655  16.806  1.00 41.16 LIG 0.16  HD
BRANCH 41 43
ATOM     43  CA  LEU B   7     -24.699 -21.655  18.136  1.00 40.72 LIG 0.18  C 
BRANCH 43 44
ATOM     44  C   LEU B   7     -25.054 -21.197  19.547  1.00 41.28 LIG 0.20  C 
ATOM     45 OXT  LEU B   7     -24.209 -20.644  20.272  1.00 40.17 LIG-0.65  OA
ATOM     46 O    LEU B   7     -26.214 -21.407  19.963  1.00 41.30 LIG-0.65  OA
ENDBRANCH 43 44
BRANCH 43 47
ATOM     47  CB  LEU B   7     -23.415 -20.955  17.690  1.00 40.49 LIG 0.04  C 
BRANCH 47 48
ATOM     48  CG  LEU B   7     -22.869 -21.365  16.322  1.00 39.74 LIG-0.02  C 
ATOM     49  CD2 LEU B   7     -22.021 -22.606  16.461  1.00 36.73 LIG 0.01  C 
ATOM     50  CD1 LEU B   7     -22.026 -20.233  15.785  1.00 40.10 LIG 0.01  C 
ENDBRANCH 47 48
ENDBRANCH 43 47
ENDBRANCH 41 43
ENDBRANCH 35 39
ENDBRANCH 28 32
ENDBRANCH 3 28
TORSDOF 20
ENDMDL
