MODEL 1
USER: ADFR SOLUTION from run 195
USER: SCORE 20.807296 LL:  -4.993 LR: -18.793 RR:   0.000 FEB: -10.739
USER: RMSD 4.110409
USER: SEED 194
USER: STATUS no improvement in best in 4 clusters for 5 generations
USER: GENES 29
USER: genes 0 Translation |==|  0.54822 0.52576 0.55795
USER: genes 1 Rotation |==|  0.62144 0.45725 0.67108 0.95184
USER: genes 2 Torsion [C]-N--CA-[CB] |==|  0.48366
USER: genes 3 Torsion [N]-CA--C-[N] |==|  0.49919
USER: genes 4 Torsion [C]-N--CA-[C] |==|  0.67634
USER: genes 5 Torsion [N]-CA--C-[N] |==|  0.82718
USER: genes 6 Torsion [C]-N--CA-[C] |==|  0.53338
USER: genes 7 Torsion [N]-CA--C-[N] |==|  0.74476
USER: genes 8 Torsion [C]-N--CA-[C] |==|  0.16141
USER: genes 9 Torsion [N]-CA--C-[O] |==|  0.15712
USER: genes 10 Torsion [N]-CA--CB-[OG] |==|  0.93111
USER: genes 11 Torsion [CA]-CB--OG-[HG] |==|  0.94257
USER: genes 12 Torsion [N]-CA--CB-[CG] |==|  0.67167
USER: genes 13 Torsion [CA]-CB--CG-[CD2] |==|  0.36975
USER: genes 14 Torsion [N]-CA--CB-[CG] |==|  0.76706
USER: genes 15 Torsion [CA]-CB--CG-[CD2] |==|  0.21231
USER: genes 16 Torsion [N]-CA--CB-[OG1] |==|  0.05816
USER: genes 17 Torsion [CA]-CB--OG1-[HG1] |==|  0.95355
USER: genes 18 Torsion [N]-C--CA-[N] |==|  0.14824
USER: genes 19 Torsion [C]-CA--CB-[CG] |==|  0.33336
USER: genes 20 Torsion [CA]-CB--CG-[CD2] |==|  0.90201
USER: genes 21 Torsion [C]-CA--N-[C] |==|  0.79920
USER: genes 22 Torsion [N]-C--CA-[N] |==|  0.93606
USER: genes 23 Torsion [C]-CA--CB-[CG] |==|  0.18173
USER: genes 24 Torsion [CA]-CB--CG-[OD1] |==|  0.55561
USER: genes 25 Torsion [C]-CA--N-[C] |==|  0.79288
USER: genes 26 Torsion [N]-C--CA-[N] |==|  0.05733
USER: genes 27 Torsion [C]-CA--CB-[CG] |==|  0.82326
USER: genes 28 Torsion [CA]-CB--CG-[OD2] |==|  0.47113
ROOT
ATOM      1  C   TRP D 340      24.358  36.405  81.673  1.00 16.52 LIG 0.24  C 
ATOM      2 O    TRP D 340      23.258  36.210  82.194  1.00 16.60 LIG-0.27  OA
ATOM      3  N   THR D 341      24.504  36.883  80.444  1.00 13.22 LIG-0.34  N 
ATOM      4 H    THR D 341      25.273  37.027  80.086  1.00 13.22 LIG 0.16  HD
ENDROOT
BRANCH 3 5
ATOM      5  CA  THR D 341      23.387  37.214  79.571  1.00 12.53 LIG 0.20  C 
BRANCH 5 6
ATOM      6  C   THR D 341      22.582  35.957  79.245  1.00 12.10 LIG 0.24  C 
ATOM      7 O    THR D 341      22.891  34.864  79.716  1.00 10.92 LIG-0.27  OA
ATOM      8  N   HIS D 342      21.526  36.118  78.458  1.00 12.26 LIG-0.35  N 
ATOM      9 H    HIS D 342      21.268  36.875  78.142  1.00 12.26 LIG 0.16  HD
BRANCH 8 10
ATOM     10  CA  HIS D 342      20.700  34.982  78.060  1.00 12.78 LIG 0.18  C 
BRANCH 10 11
ATOM     11  C   HIS D 342      20.785  34.810  76.558  1.00 14.51 LIG 0.24  C 
ATOM     12  N   LEU D 343      20.337  35.816  75.812  1.00 15.48 LIG-0.35  N 
ATOM     13 H    LEU D 343      20.072  36.568  76.133  1.00 15.48 LIG 0.16  HD
ATOM     14 O    HIS D 342      21.270  33.771  76.074  1.00 16.02 LIG-0.27  OA
BRANCH 12 15
ATOM     15  CA  LEU D 343      20.258  35.722  74.352  1.00 16.72 LIG 0.18  C 
BRANCH 15 16
ATOM     16  C   LEU D 343      19.999  37.057  73.657  1.00 19.19 LIG 0.24  C 
ATOM     17  N   SER D 344      18.716  37.376  73.423  1.00 21.37 LIG-0.34  N 
ATOM     18 H    SER D 344      18.075  36.805  73.469  1.00 21.37 LIG 0.16  HD
ATOM     19 O    LEU D 343      20.934  37.778  73.352  1.00 19.56 LIG-0.27  OA
BRANCH 17 20
ATOM     20  CA  SER D 344      18.267  38.741  73.063  1.00 23.14 LIG 0.19  C 
BRANCH 20 21
ATOM     21  C   SER D 344      18.965  39.233  71.788  1.00 24.18 LIG 0.22  C 
ATOM     22 O    SER D 344      18.895  38.587  70.727  1.00 25.35 LIG-0.29  OA
ENDBRANCH 20 21
BRANCH 20 23
ATOM     23  CB  SER D 344      18.534  39.737  74.194  1.00 23.66 LIG 0.20  C 
BRANCH 23 24
ATOM     24 OG   SER D 344      18.597  39.080  75.460  1.00 25.03 LIG-0.40  OA
ATOM     25 HG   SER D 344      18.209  38.336  75.410  1.00 25.03 LIG 0.21  HD
ENDBRANCH 23 24
ENDBRANCH 20 23
ENDBRANCH 17 20
ENDBRANCH 15 16
BRANCH 15 26
ATOM     26  CB  LEU D 343      19.145  34.746  73.932  1.00 15.83 LIG 0.04  C 
BRANCH 26 27
ATOM     27  CG  LEU D 343      19.574  33.523  73.147  1.00 14.86 LIG-0.02  C 
ATOM     28  CD1 LEU D 343      21.090  33.404  73.159  1.00 12.95 LIG 0.01  C 
ATOM     29  CD2 LEU D 343      18.909  32.251  73.732  1.00 12.95 LIG 0.01  C 
ENDBRANCH 26 27
ENDBRANCH 15 26
ENDBRANCH 12 15
ENDBRANCH 10 11
BRANCH 10 30
ATOM     30  CB  HIS D 342      19.237  35.220  78.463  1.00 12.90 LIG 0.10  C 
BRANCH 30 31
ATOM     31  CG  HIS D 342      18.936  34.853  79.879  1.00 12.99 LIG 0.06  A 
ATOM     32  CD2 HIS D 342      19.222  35.501  81.034  1.00 12.88 LIG 0.14  A 
ATOM     33 NE2  HIS D 342      18.729  34.736  82.061  1.00 14.80 LIG-0.25  NA
ATOM     34  CE1 HIS D 342      18.165  33.654  81.561  1.00 13.21 LIG 0.23  A 
ATOM     35 ND1  HIS D 342      18.283  33.695  80.246  1.00 14.49 LIG-0.24  NA
ENDBRANCH 30 31
ENDBRANCH 10 30
ENDBRANCH 8 10
ENDBRANCH 5 6
BRANCH 5 36
ATOM     36  CB  THR D 341      23.892  37.882  78.270  1.00 12.70 LIG 0.15  C 
ATOM     37  CG2 THR D 341      23.718  39.412  78.316  1.00 14.15 LIG 0.04  C 
BRANCH 36 38
ATOM     38 OG1  THR D 341      25.272  37.548  78.076  1.00 14.08 LIG-0.39  OA
ATOM     39 HG1  THR D 341      25.594  37.259  78.796  1.00 14.08 LIG 0.21  HD
ENDBRANCH 36 38
ENDBRANCH 5 36
ENDBRANCH 3 5
BRANCH 1 40
ATOM     40  CA  TRP D 340      25.643  36.050  82.412  1.00 18.72 LIG 0.18  C 
BRANCH 40 41
ATOM     41  CB  TRP D 340      25.270  35.640  83.836  1.00 19.00 LIG 0.07  C 
BRANCH 41 42
ATOM     42  CG  TRP D 340      25.662  34.255  84.212  1.00 19.22 LIG-0.03  A 
ATOM     43  CD2 TRP D 340      25.666  33.115  83.356  1.00 20.18 LIG-0.00  A 
ATOM     44  CE3 TRP D 340      25.369  32.921  82.001  1.00 18.70 LIG 0.01  A 
ATOM     45  CE2 TRP D 340      26.066  32.007  84.136  1.00 18.84 LIG 0.04  A 
ATOM     46  CZ3 TRP D 340      25.477  31.637  81.471  1.00 20.55 LIG 0.00  A 
ATOM     47  CH2 TRP D 340      25.885  30.559  82.278  1.00 19.52 LIG 0.00  A 
ATOM     48  CZ2 TRP D 340      26.179  30.720  83.607  1.00 19.79 LIG 0.03  A 
ATOM     49  NE1 TRP D 340      26.298  32.458  85.411  1.00 21.77 LIG-0.36  N 
ATOM     50  CD1 TRP D 340      26.036  33.810  85.447  1.00 20.48 LIG 0.10  A 
ATOM     51 HE1  TRP D 340      26.562  31.979  86.074  1.00 21.77 LIG 0.17  HD
ENDBRANCH 41 42
ENDBRANCH 40 41
BRANCH 40 52
ATOM     52  N   TRP D 340      26.588  37.172  82.431  1.00 22.23 LIG-0.35  N 
ATOM     53  C   ASP D 339      27.261  37.567  81.351  1.00 26.49 LIG 0.24  C 
ATOM     54 O    ASP D 339      27.140  37.028  80.238  1.00 27.22 LIG-0.27  OA
ATOM     55 H    TRP D 340      26.666  37.548  83.200  1.00 22.23 LIG 0.16  HD
BRANCH 53 56
ATOM     56  CA  ASP D 339      28.221  38.746  81.542  1.00 29.46 LIG 0.19  C 
BRANCH 56 57
ATOM     57  CB  ASP D 339      29.645  38.217  81.734  1.00 30.27 LIG 0.15  C 
BRANCH 57 58
ATOM     58  CG  ASP D 339      30.197  37.510  80.493  1.00 32.94 LIG 0.17  C 
ATOM     59 OD1  ASP D 339      31.157  36.726  80.648  1.00 36.53 LIG-0.65  OA
ATOM     60 OD2  ASP D 339      29.688  37.742  79.367  1.00 35.99 LIG-0.65  OA
ENDBRANCH 57 58
ENDBRANCH 56 57
BRANCH 56 61
ATOM     61  N   ASP D 339      27.843  39.554  82.698  1.00 31.22 LIG-0.34  N 
ATOM     62  C   ASP D 338      26.804  40.388  82.706  1.00 32.92 LIG 0.26  C 
ATOM     63 O    ASP D 338      25.935  40.409  81.827  1.00 33.60 LIG-0.27  OA
ATOM     64 H    ASP D 339      28.357  39.441  83.377  1.00 31.22 LIG 0.16  HD
BRANCH 62 65
ATOM     65  CA  ASP D 338      26.721  41.324  83.911  1.00 33.82 LIG 0.41  C 
ATOM     66  N   ASP D 338      28.058  41.462  84.573  1.00 34.02 LIG 0.61  N 
BRANCH 65 67
ATOM     67  CB  ASP D 338      26.186  42.699  83.478  1.00 34.49 LIG 0.16  C 
BRANCH 67 68
ATOM     68  CG  ASP D 338      27.111  43.415  82.502  1.00 35.92 LIG 0.17  C 
ATOM     69 OD2  ASP D 338      26.689  44.442  81.935  1.00 39.23 LIG-0.65  OA
ATOM     70 OD1  ASP D 338      28.258  42.953  82.289  1.00 38.97 LIG-0.65  OA
ENDBRANCH 67 68
ENDBRANCH 65 67
ENDBRANCH 62 65
ENDBRANCH 56 61
ENDBRANCH 53 56
ENDBRANCH 40 52
ENDBRANCH 1 40
TORSDOF 27
ENDMDL
MODEL 2
USER: ADFR SOLUTION from run 32
USER: SCORE 22.318364 LL:  -5.723 LR: -18.743 RR:   0.000 FEB: -10.689
USER: RMSD 12.705466
USER: SEED 31
USER: STATUS no improvement in best in 8 clusters for 5 generations
USER: GENES 29
USER: genes 0 Translation |==|  0.43299 0.46148 0.44765
USER: genes 1 Rotation |==|  0.33952 0.04450 0.59715 0.58562
USER: genes 2 Torsion [C]-N--CA-[CB] |==|  0.27964
USER: genes 3 Torsion [N]-CA--C-[N] |==|  0.38889
USER: genes 4 Torsion [C]-N--CA-[C] |==|  0.81045
USER: genes 5 Torsion [N]-CA--C-[N] |==|  0.39493
USER: genes 6 Torsion [C]-N--CA-[C] |==|  0.68420
USER: genes 7 Torsion [N]-CA--C-[N] |==|  0.70261
USER: genes 8 Torsion [C]-N--CA-[C] |==|  0.77764
USER: genes 9 Torsion [N]-CA--C-[O] |==|  0.85679
USER: genes 10 Torsion [N]-CA--CB-[OG] |==|  0.06997
USER: genes 11 Torsion [CA]-CB--OG-[HG] |==|  0.14073
USER: genes 12 Torsion [N]-CA--CB-[CG] |==|  0.90703
USER: genes 13 Torsion [CA]-CB--CG-[CD2] |==|  0.81459
USER: genes 14 Torsion [N]-CA--CB-[CG] |==|  0.49281
USER: genes 15 Torsion [CA]-CB--CG-[CD2] |==|  0.29633
USER: genes 16 Torsion [N]-CA--CB-[OG1] |==|  0.71498
USER: genes 17 Torsion [CA]-CB--OG1-[HG1] |==|  0.92653
USER: genes 18 Torsion [N]-C--CA-[N] |==|  0.06626
USER: genes 19 Torsion [C]-CA--CB-[CG] |==|  0.28464
USER: genes 20 Torsion [CA]-CB--CG-[CD2] |==|  0.71347
USER: genes 21 Torsion [C]-CA--N-[C] |==|  0.68926
USER: genes 22 Torsion [N]-C--CA-[N] |==|  0.29023
USER: genes 23 Torsion [C]-CA--CB-[CG] |==|  0.80214
USER: genes 24 Torsion [CA]-CB--CG-[OD1] |==|  0.80371
USER: genes 25 Torsion [C]-CA--N-[C] |==|  0.76667
USER: genes 26 Torsion [N]-C--CA-[N] |==|  0.53679
USER: genes 27 Torsion [C]-CA--CB-[CG] |==|  0.82589
USER: genes 28 Torsion [CA]-CB--CG-[OD2] |==|  0.93740
ROOT
ATOM      1  C   TRP D 340      21.160  35.152  78.694  1.00 16.52 LIG 0.24  C 
ATOM      2 O    TRP D 340      21.907  35.091  77.715  1.00 16.60 LIG-0.27  OA
ATOM      3  N   THR D 341      21.604  35.281  79.938  1.00 13.22 LIG-0.34  N 
ATOM      4 H    THR D 341      21.080  35.333  80.618  1.00 13.22 LIG 0.16  HD
ENDROOT
BRANCH 3 5
ATOM      5  CA  THR D 341      23.016  35.350  80.287  1.00 12.53 LIG 0.20  C 
BRANCH 5 6
ATOM      6  C   THR D 341      23.297  34.492  81.519  1.00 12.10 LIG 0.24  C 
ATOM      7 O    THR D 341      22.499  34.440  82.453  1.00 10.92 LIG-0.27  OA
ATOM      8  N   HIS D 342      24.425  33.792  81.510  1.00 12.26 LIG-0.35  N 
ATOM      9 H    HIS D 342      24.983  33.784  80.856  1.00 12.26 LIG 0.16  HD
BRANCH 8 10
ATOM     10  CA  HIS D 342      24.807  32.960  82.646  1.00 12.78 LIG 0.18  C 
BRANCH 10 11
ATOM     11  C   HIS D 342      25.138  33.852  83.824  1.00 14.51 LIG 0.24  C 
ATOM     12  N   LEU D 343      24.763  33.423  85.026  1.00 15.48 LIG-0.35  N 
ATOM     13 H    LEU D 343      24.412  32.652  85.171  1.00 15.48 LIG 0.16  HD
ATOM     14 O    HIS D 342      25.746  34.923  83.645  1.00 16.02 LIG-0.27  OA
BRANCH 12 15
ATOM     15  CA  LEU D 343      24.922  34.247  86.226  1.00 16.72 LIG 0.18  C 
BRANCH 15 16
ATOM     16  C   LEU D 343      25.928  33.693  87.232  1.00 19.19 LIG 0.24  C 
ATOM     17  N   SER D 344      25.426  33.159  88.357  1.00 21.37 LIG-0.34  N 
ATOM     18 H    SER D 344      24.614  33.284  88.613  1.00 21.37 LIG 0.16  HD
ATOM     19 O    LEU D 343      27.123  33.739  86.989  1.00 19.56 LIG-0.27  OA
BRANCH 17 20
ATOM     20  CA  SER D 344      26.210  32.301  89.275  1.00 23.14 LIG 0.19  C 
BRANCH 20 21
ATOM     21  C   SER D 344      26.295  30.862  88.747  1.00 24.18 LIG 0.22  C 
ATOM     22 O    SER D 344      25.273  30.238  88.413  1.00 25.35 LIG-0.29  OA
ENDBRANCH 20 21
BRANCH 20 23
ATOM     23  CB  SER D 344      25.607  32.281  90.681  1.00 23.66 LIG 0.20  C 
BRANCH 23 24
ATOM     24 OG   SER D 344      24.209  32.574  90.649  1.00 25.03 LIG-0.40  OA
ATOM     25 HG   SER D 344      23.832  32.081  90.082  1.00 25.03 LIG 0.21  HD
ENDBRANCH 23 24
ENDBRANCH 20 23
ENDBRANCH 17 20
ENDBRANCH 15 16
BRANCH 15 26
ATOM     26  CB  LEU D 343      23.574  34.415  86.949  1.00 15.83 LIG 0.04  C 
BRANCH 26 27
ATOM     27  CG  LEU D 343      22.337  34.470  86.076  1.00 14.86 LIG-0.02  C 
ATOM     28  CD1 LEU D 343      21.088  34.399  86.940  1.00 12.95 LIG 0.01  C 
ATOM     29  CD2 LEU D 343      22.347  35.758  85.214  1.00 12.95 LIG 0.01  C 
ENDBRANCH 26 27
ENDBRANCH 15 26
ENDBRANCH 12 15
ENDBRANCH 10 11
BRANCH 10 30
ATOM     30  CB  HIS D 342      26.036  32.108  82.291  1.00 12.90 LIG 0.10  C 
BRANCH 30 31
ATOM     31  CG  HIS D 342      26.532  31.269  83.423  1.00 12.99 LIG 0.06  A 
ATOM     32  CD2 HIS D 342      26.446  29.932  83.627  1.00 12.88 LIG 0.14  A 
ATOM     33 NE2  HIS D 342      27.060  29.666  84.825  1.00 14.80 LIG-0.25  NA
ATOM     34  CE1 HIS D 342      27.503  30.794  85.344  1.00 13.21 LIG 0.23  A 
ATOM     35 ND1  HIS D 342      27.192  31.778  84.521  1.00 14.49 LIG-0.24  NA
ENDBRANCH 30 31
ENDBRANCH 10 30
ENDBRANCH 8 10
ENDBRANCH 5 6
BRANCH 5 36
ATOM     36  CB  THR D 341      23.444  36.814  80.541  1.00 12.70 LIG 0.15  C 
ATOM     37  CG2 THR D 341      24.319  36.936  81.803  1.00 14.15 LIG 0.04  C 
BRANCH 36 38
ATOM     38 OG1  THR D 341      24.159  37.300  79.397  1.00 14.08 LIG-0.39  OA
ATOM     39 HG1  THR D 341      24.516  36.654  78.996  1.00 14.08 LIG 0.21  HD
ENDBRANCH 36 38
ENDBRANCH 5 36
ENDBRANCH 3 5
BRANCH 1 40
ATOM     40  CA  TRP D 340      19.651  35.025  78.530  1.00 18.72 LIG 0.18  C 
BRANCH 40 41
ATOM     41  CB  TRP D 340      19.258  35.722  77.228  1.00 19.00 LIG 0.07  C 
BRANCH 41 42
ATOM     42  CG  TRP D 340      18.984  34.807  76.086  1.00 19.22 LIG-0.03  A 
ATOM     43  CD2 TRP D 340      19.852  34.543  74.987  1.00 20.18 LIG-0.00  A 
ATOM     44  CE3 TRP D 340      21.140  34.974  74.645  1.00 18.70 LIG 0.01  A 
ATOM     45  CE2 TRP D 340      19.176  33.651  74.124  1.00 18.84 LIG 0.04  A 
ATOM     46  CZ3 TRP D 340      21.708  34.509  73.462  1.00 20.55 LIG 0.00  A 
ATOM     47  CH2 TRP D 340      21.007  33.616  72.630  1.00 19.52 LIG 0.00  A 
ATOM     48  CZ2 TRP D 340      19.744  33.180  72.940  1.00 19.79 LIG 0.03  A 
ATOM     49  NE1 TRP D 340      17.951  33.385  74.680  1.00 21.77 LIG-0.36  N 
ATOM     50  CD1 TRP D 340      17.841  34.098  75.853  1.00 20.48 LIG 0.10  A 
ATOM     51 HE1  TRP D 340      17.353  32.861  74.353  1.00 21.77 LIG 0.17  HD
ENDBRANCH 41 42
ENDBRANCH 40 41
BRANCH 40 52
ATOM     52  N   TRP D 340      18.928  35.613  79.664  1.00 22.23 LIG-0.35  N 
ATOM     53  C   ASP D 339      18.233  34.881  80.534  1.00 26.49 LIG 0.24  C 
ATOM     54 O    ASP D 339      18.145  33.643  80.465  1.00 27.22 LIG-0.27  OA
ATOM     55 H    TRP D 340      18.995  36.468  79.714  1.00 22.23 LIG 0.16  HD
BRANCH 53 56
ATOM     56  CA  ASP D 339      17.523  35.648  81.655  1.00 29.46 LIG 0.19  C 
BRANCH 56 57
ATOM     57  CB  ASP D 339      17.767  34.940  82.990  1.00 30.27 LIG 0.15  C 
BRANCH 57 58
ATOM     58  CG  ASP D 339      17.017  33.611  83.113  1.00 32.94 LIG 0.17  C 
ATOM     59 OD1  ASP D 339      15.774  33.653  83.239  1.00 36.53 LIG-0.65  OA
ATOM     60 OD2  ASP D 339      17.659  32.531  83.099  1.00 35.99 LIG-0.65  OA
ENDBRANCH 57 58
ENDBRANCH 56 57
BRANCH 56 61
ATOM     61  N   ASP D 339      16.087  35.734  81.406  1.00 31.22 LIG-0.34  N 
ATOM     62  C   ASP D 338      15.527  36.663  80.633  1.00 32.92 LIG 0.26  C 
ATOM     63 O    ASP D 338      16.168  37.407  79.882  1.00 33.60 LIG-0.27  OA
ATOM     64 H    ASP D 339      15.632  35.125  81.809  1.00 31.22 LIG 0.16  HD
BRANCH 62 65
ATOM     65  CA  ASP D 338      14.002  36.743  80.698  1.00 33.82 LIG 0.41  C 
ATOM     66  N   ASP D 338      13.463  37.577  79.576  1.00 34.02 LIG 0.61  N 
BRANCH 65 67
ATOM     67  CB  ASP D 338      13.395  35.331  80.664  1.00 34.49 LIG 0.16  C 
BRANCH 67 68
ATOM     68  CG  ASP D 338      13.701  34.584  79.372  1.00 35.92 LIG 0.17  C 
ATOM     69 OD2  ASP D 338      13.990  35.252  78.359  1.00 39.23 LIG-0.65  OA
ATOM     70 OD1  ASP D 338      13.645  33.331  79.357  1.00 38.97 LIG-0.65  OA
ENDBRANCH 67 68
ENDBRANCH 65 67
ENDBRANCH 62 65
ENDBRANCH 56 61
ENDBRANCH 53 56
ENDBRANCH 40 52
ENDBRANCH 1 40
TORSDOF 27
ENDMDL
MODEL 3
USER: ADFR SOLUTION from run 195
USER: SCORE 21.356276 LL:  -5.441 LR: -18.721 RR:   0.000 FEB: -10.667
USER: RMSD 2.993918
USER: SEED 194
USER: STATUS no improvement in best in 4 clusters for 5 generations
USER: GENES 29
USER: genes 0 Translation |==|  0.54503 0.51695 0.56214
USER: genes 1 Rotation |==|  0.61802 0.44283 0.66281 0.95420
USER: genes 2 Torsion [C]-N--CA-[CB] |==|  0.48333
USER: genes 3 Torsion [N]-CA--C-[N] |==|  0.49918
USER: genes 4 Torsion [C]-N--CA-[C] |==|  0.67619
USER: genes 5 Torsion [N]-CA--C-[N] |==|  0.81234
USER: genes 6 Torsion [C]-N--CA-[C] |==|  0.53481
USER: genes 7 Torsion [N]-CA--C-[N] |==|  0.76323
USER: genes 8 Torsion [C]-N--CA-[C] |==|  0.16172
USER: genes 9 Torsion [N]-CA--C-[O] |==|  0.15376
USER: genes 10 Torsion [N]-CA--CB-[OG] |==|  0.92998
USER: genes 11 Torsion [CA]-CB--OG-[HG] |==|  0.94287
USER: genes 12 Torsion [N]-CA--CB-[CG] |==|  0.66470
USER: genes 13 Torsion [CA]-CB--CG-[CD2] |==|  0.37178
USER: genes 14 Torsion [N]-CA--CB-[CG] |==|  0.77050
USER: genes 15 Torsion [CA]-CB--CG-[CD2] |==|  0.24548
USER: genes 16 Torsion [N]-CA--CB-[OG1] |==|  0.04714
USER: genes 17 Torsion [CA]-CB--OG1-[HG1] |==|  0.94006
USER: genes 18 Torsion [N]-C--CA-[N] |==|  0.17222
USER: genes 19 Torsion [C]-CA--CB-[CG] |==|  0.35005
USER: genes 20 Torsion [CA]-CB--CG-[CD2] |==|  0.87613
USER: genes 21 Torsion [C]-CA--N-[C] |==|  0.77671
USER: genes 22 Torsion [N]-C--CA-[N] |==|  0.31643
USER: genes 23 Torsion [C]-CA--CB-[CG] |==|  0.54932
USER: genes 24 Torsion [CA]-CB--CG-[OD1] |==|  0.67263
USER: genes 25 Torsion [C]-CA--N-[C] |==|  0.77222
USER: genes 26 Torsion [N]-C--CA-[N] |==|  0.35045
USER: genes 27 Torsion [C]-CA--CB-[CG] |==|  0.72515
USER: genes 28 Torsion [CA]-CB--CG-[OD2] |==|  0.30556
ROOT
ATOM      1  C   TRP D 340      24.269  36.233  81.786  1.00 16.52 LIG 0.24  C 
ATOM      2 O    TRP D 340      23.137  36.088  82.253  1.00 16.60 LIG-0.27  OA
ATOM      3  N   THR D 341      24.497  36.712  80.570  1.00 13.22 LIG-0.34  N 
ATOM      4 H    THR D 341      25.288  36.821  80.250  1.00 13.22 LIG 0.16  HD
ENDROOT
BRANCH 3 5
ATOM      5  CA  THR D 341      23.441  37.103  79.647  1.00 12.53 LIG 0.20  C 
BRANCH 5 6
ATOM      6  C   THR D 341      22.594  35.888  79.270  1.00 12.10 LIG 0.24  C 
ATOM      7 O    THR D 341      22.829  34.778  79.744  1.00 10.92 LIG-0.27  OA
ATOM      8  N   HIS D 342      21.586  36.104  78.434  1.00 12.26 LIG-0.35  N 
ATOM      9 H    HIS D 342      21.380  36.876  78.115  1.00 12.26 LIG 0.16  HD
BRANCH 8 10
ATOM     10  CA  HIS D 342      20.729  35.012  77.985  1.00 12.78 LIG 0.18  C 
BRANCH 10 11
ATOM     11  C   HIS D 342      20.878  34.850  76.487  1.00 14.51 LIG 0.24  C 
ATOM     12  N   LEU D 343      20.412  35.837  75.727  1.00 15.48 LIG-0.35  N 
ATOM     13 H    LEU D 343      20.101  36.575  76.039  1.00 15.48 LIG 0.16  HD
ATOM     14 O    HIS D 342      21.428  33.836  76.020  1.00 16.02 LIG-0.27  OA
BRANCH 12 15
ATOM     15  CA  LEU D 343      20.393  35.745  74.265  1.00 16.72 LIG 0.18  C 
BRANCH 15 16
ATOM     16  C   LEU D 343      20.111  37.071  73.563  1.00 19.19 LIG 0.24  C 
ATOM     17  N   SER D 344      18.821  37.408  73.404  1.00 21.37 LIG-0.34  N 
ATOM     18 H    SER D 344      18.175  36.849  73.501  1.00 21.37 LIG 0.16  HD
ATOM     19 O    LEU D 343      21.036  37.771  73.186  1.00 19.56 LIG-0.27  OA
BRANCH 17 20
ATOM     20  CA  SER D 344      18.372  38.774  73.048  1.00 23.14 LIG 0.19  C 
BRANCH 20 21
ATOM     21  C   SER D 344      18.993  39.231  71.721  1.00 24.18 LIG 0.22  C 
ATOM     22 O    SER D 344      18.863  38.556  70.684  1.00 25.35 LIG-0.29  OA
ENDBRANCH 20 21
BRANCH 20 23
ATOM     23  CB  SER D 344      18.727  39.786  74.139  1.00 23.66 LIG 0.20  C 
BRANCH 23 24
ATOM     24 OG   SER D 344      18.853  39.152  75.414  1.00 25.03 LIG-0.40  OA
ATOM     25 HG   SER D 344      18.448  38.416  75.402  1.00 25.03 LIG 0.21  HD
ENDBRANCH 23 24
ENDBRANCH 20 23
ENDBRANCH 17 20
ENDBRANCH 15 16
BRANCH 15 26
ATOM     26  CB  LEU D 343      19.333  34.730  73.801  1.00 15.83 LIG 0.04  C 
BRANCH 26 27
ATOM     27  CG  LEU D 343      19.829  33.557  72.980  1.00 14.86 LIG-0.02  C 
ATOM     28  CD1 LEU D 343      21.348  33.501  73.019  1.00 12.95 LIG 0.01  C 
ATOM     29  CD2 LEU D 343      19.208  32.237  73.504  1.00 12.95 LIG 0.01  C 
ENDBRANCH 26 27
ENDBRANCH 15 26
ENDBRANCH 12 15
ENDBRANCH 10 11
BRANCH 10 30
ATOM     30  CB  HIS D 342      19.261  35.316  78.321  1.00 12.90 LIG 0.10  C 
BRANCH 30 31
ATOM     31  CG  HIS D 342      18.883  34.977  79.726  1.00 12.99 LIG 0.06  A 
ATOM     32  CD2 HIS D 342      18.954  35.720  80.857  1.00 12.88 LIG 0.14  A 
ATOM     33 NE2  HIS D 342      18.486  34.939  81.884  1.00 14.80 LIG-0.25  NA
ATOM     34  CE1 HIS D 342      18.144  33.758  81.408  1.00 13.21 LIG 0.23  A 
ATOM     35 ND1  HIS D 342      18.380  33.751  80.108  1.00 14.49 LIG-0.24  NA
ENDBRANCH 30 31
ENDBRANCH 10 30
ENDBRANCH 8 10
ENDBRANCH 5 6
BRANCH 5 36
ATOM     36  CB  THR D 341      24.039  37.756  78.379  1.00 12.70 LIG 0.15  C 
ATOM     37  CG2 THR D 341      23.847  39.285  78.388  1.00 14.15 LIG 0.04  C 
BRANCH 36 38
ATOM     38 OG1  THR D 341      25.434  37.435  78.299  1.00 14.08 LIG-0.39  OA
ATOM     39 HG1  THR D 341      25.717  37.224  79.061  1.00 14.08 LIG 0.21  HD
ENDBRANCH 36 38
ENDBRANCH 5 36
ENDBRANCH 3 5
BRANCH 1 40
ATOM     40  CA  TRP D 340      25.498  35.811  82.582  1.00 18.72 LIG 0.18  C 
BRANCH 40 41
ATOM     41  CB  TRP D 340      25.021  35.208  83.903  1.00 19.00 LIG 0.07  C 
BRANCH 41 42
ATOM     42  CG  TRP D 340      25.541  33.844  84.193  1.00 19.22 LIG-0.03  A 
ATOM     43  CD2 TRP D 340      25.615  32.755  83.276  1.00 20.18 LIG-0.00  A 
ATOM     44  CE3 TRP D 340      25.293  32.606  81.921  1.00 18.70 LIG 0.01  A 
ATOM     45  CE2 TRP D 340      26.132  31.647  83.984  1.00 18.84 LIG 0.04  A 
ATOM     46  CZ3 TRP D 340      25.493  31.366  81.320  1.00 20.55 LIG 0.00  A 
ATOM     47  CH2 TRP D 340      26.017  30.286  82.055  1.00 19.52 LIG 0.00  A 
ATOM     48  CZ2 TRP D 340      26.338  30.404  83.383  1.00 19.79 LIG 0.03  A 
ATOM     49  NE1 TRP D 340      26.365  32.050  85.274  1.00 21.77 LIG-0.36  N 
ATOM     50  CD1 TRP D 340      25.991  33.371  85.391  1.00 20.48 LIG 0.10  A 
ATOM     51 HE1  TRP D 340      26.690  31.562  85.903  1.00 21.77 LIG 0.17  HD
ENDBRANCH 41 42
ENDBRANCH 40 41
BRANCH 40 52
ATOM     52  N   TRP D 340      26.401  36.941  82.831  1.00 22.23 LIG-0.35  N 
ATOM     53  C   ASP D 339      27.262  37.391  81.919  1.00 26.49 LIG 0.24  C 
ATOM     54 O    ASP D 339      27.369  36.899  80.782  1.00 27.22 LIG-0.27  OA
ATOM     55 H    TRP D 340      26.321  37.284  83.615  1.00 22.23 LIG 0.16  HD
BRANCH 53 56
ATOM     56  CA  ASP D 339      28.145  38.570  82.341  1.00 29.46 LIG 0.19  C 
BRANCH 56 57
ATOM     57  CB  ASP D 339      27.984  39.712  81.334  1.00 30.27 LIG 0.15  C 
BRANCH 57 58
ATOM     58  CG  ASP D 339      29.114  40.743  81.407  1.00 32.94 LIG 0.17  C 
ATOM     59 OD1  ASP D 339      28.813  41.916  81.716  1.00 36.53 LIG-0.65  OA
ATOM     60 OD2  ASP D 339      30.292  40.394  81.145  1.00 35.99 LIG-0.65  OA
ENDBRANCH 57 58
ENDBRANCH 56 57
BRANCH 56 61
ATOM     61  N   ASP D 339      29.550  38.179  82.410  1.00 31.22 LIG-0.34  N 
ATOM     62  C   ASP D 338      30.092  37.559  83.457  1.00 32.92 LIG 0.26  C 
ATOM     63 O    ASP D 338      29.432  37.063  84.377  1.00 33.60 LIG-0.27  OA
ATOM     64 H    ASP D 339      29.999  38.388  81.707  1.00 31.22 LIG 0.16  HD
BRANCH 62 65
ATOM     65  CA  ASP D 338      31.617  37.460  83.448  1.00 33.82 LIG 0.41  C 
ATOM     66  N   ASP D 338      32.195  38.010  84.716  1.00 34.02 LIG 0.61  N 
BRANCH 65 67
ATOM     67  CB  ASP D 338      32.052  36.000  83.242  1.00 34.49 LIG 0.16  C 
BRANCH 67 68
ATOM     68  CG  ASP D 338      32.426  35.303  84.545  1.00 35.92 LIG 0.17  C 
ATOM     69 OD2  ASP D 338      31.669  34.410  84.974  1.00 39.23 LIG-0.65  OA
ATOM     70 OD1  ASP D 338      33.468  35.649  85.151  1.00 38.97 LIG-0.65  OA
ENDBRANCH 67 68
ENDBRANCH 65 67
ENDBRANCH 62 65
ENDBRANCH 56 61
ENDBRANCH 53 56
ENDBRANCH 40 52
ENDBRANCH 1 40
TORSDOF 27
ENDMDL
MODEL 4
USER: ADFR SOLUTION from run 133
USER: SCORE 21.920480 LL:  -5.032 LR: -18.577 RR:   0.000 FEB: -10.523
USER: RMSD 2.327021
USER: SEED 132
USER: STATUS no improvement in best in 4 clusters for 5 generations
USER: GENES 29
USER: genes 0 Translation |==|  0.52638 0.52756 0.55228
USER: genes 1 Rotation |==|  0.59911 0.42480 0.67544 0.95138
USER: genes 2 Torsion [C]-N--CA-[CB] |==|  0.50323
USER: genes 3 Torsion [N]-CA--C-[N] |==|  0.45065
USER: genes 4 Torsion [C]-N--CA-[C] |==|  0.64655
USER: genes 5 Torsion [N]-CA--C-[N] |==|  0.41637
USER: genes 6 Torsion [C]-N--CA-[C] |==|  0.64613
USER: genes 7 Torsion [N]-CA--C-[N] |==|  0.25932
USER: genes 8 Torsion [C]-N--CA-[C] |==|  0.55669
USER: genes 9 Torsion [N]-CA--C-[O] |==|  0.17174
USER: genes 10 Torsion [N]-CA--CB-[OG] |==|  0.50185
USER: genes 11 Torsion [CA]-CB--OG-[HG] |==|  0.54489
USER: genes 12 Torsion [N]-CA--CB-[CG] |==|  0.81610
USER: genes 13 Torsion [CA]-CB--CG-[CD2] |==|  0.81613
USER: genes 14 Torsion [N]-CA--CB-[CG] |==|  0.77203
USER: genes 15 Torsion [CA]-CB--CG-[CD2] |==|  0.17126
USER: genes 16 Torsion [N]-CA--CB-[OG1] |==|  0.97700
USER: genes 17 Torsion [CA]-CB--OG1-[HG1] |==|  0.21726
USER: genes 18 Torsion [N]-C--CA-[N] |==|  0.19527
USER: genes 19 Torsion [C]-CA--CB-[CG] |==|  0.36718
USER: genes 20 Torsion [CA]-CB--CG-[CD2] |==|  0.85827
USER: genes 21 Torsion [C]-CA--N-[C] |==|  0.77219
USER: genes 22 Torsion [N]-C--CA-[N] |==|  0.14649
USER: genes 23 Torsion [C]-CA--CB-[CG] |==|  0.37202
USER: genes 24 Torsion [CA]-CB--CG-[OD1] |==|  0.47433
USER: genes 25 Torsion [C]-CA--N-[C] |==|  0.75941
USER: genes 26 Torsion [N]-C--CA-[N] |==|  0.35615
USER: genes 27 Torsion [C]-CA--CB-[CG] |==|  0.17411
USER: genes 28 Torsion [CA]-CB--CG-[OD2] |==|  0.81400
ROOT
ATOM      1  C   TRP D 340      23.752  36.440  81.520  1.00 16.52 LIG 0.24  C 
ATOM      2 O    TRP D 340      22.581  36.287  81.874  1.00 16.60 LIG-0.27  OA
ATOM      3  N   THR D 341      24.094  36.867  80.311  1.00 13.22 LIG-0.34  N 
ATOM      4 H    THR D 341      24.912  36.982  80.070  1.00 13.22 LIG 0.16  HD
ENDROOT
BRANCH 3 5
ATOM      5  CA  THR D 341      23.131  37.186  79.267  1.00 12.53 LIG 0.20  C 
BRANCH 5 6
ATOM      6  C   THR D 341      22.235  35.980  78.990  1.00 12.10 LIG 0.24  C 
ATOM      7 O    THR D 341      22.547  34.854  79.374  1.00 10.92 LIG-0.27  OA
ATOM      8  N   HIS D 342      21.101  36.220  78.345  1.00 12.26 LIG-0.35  N 
ATOM      9 H    HIS D 342      20.842  37.002  78.095  1.00 12.26 LIG 0.16  HD
BRANCH 8 10
ATOM     10  CA  HIS D 342      20.181  35.139  78.004  1.00 12.78 LIG 0.18  C 
BRANCH 10 11
ATOM     11  C   HIS D 342      19.870  35.202  76.523  1.00 14.51 LIG 0.24  C 
ATOM     12  N   LEU D 343      19.598  34.050  75.917  1.00 15.48 LIG-0.35  N 
ATOM     13 H    LEU D 343      19.525  33.298  76.328  1.00 15.48 LIG 0.16  HD
ATOM     14 O    HIS D 342      19.863  36.297  75.932  1.00 16.02 LIG-0.27  OA
BRANCH 12 15
ATOM     15  CA  LEU D 343      19.396  33.966  74.468  1.00 16.72 LIG 0.18  C 
BRANCH 15 16
ATOM     16  C   LEU D 343      18.095  33.278  74.061  1.00 19.19 LIG 0.24  C 
ATOM     17  N   SER D 344      17.033  34.073  73.850  1.00 21.37 LIG-0.34  N 
ATOM     18 H    SER D 344      17.002  34.892  74.109  1.00 21.37 LIG 0.16  HD
ATOM     19 O    LEU D 343      18.059  32.066  73.933  1.00 19.56 LIG-0.27  OA
BRANCH 17 20
ATOM     20  CA  SER D 344      15.806  33.626  73.151  1.00 23.14 LIG 0.19  C 
BRANCH 20 21
ATOM     21  C   SER D 344      15.007  34.824  72.620  1.00 24.18 LIG 0.22  C 
ATOM     22 O    SER D 344      15.493  35.599  71.777  1.00 25.35 LIG-0.29  OA
ENDBRANCH 20 21
BRANCH 20 23
ATOM     23  CB  SER D 344      14.907  32.793  74.067  1.00 23.66 LIG 0.20  C 
BRANCH 23 24
ATOM     24 OG   SER D 344      13.734  32.353  73.381  1.00 25.03 LIG-0.40  OA
ATOM     25 HG   SER D 344      13.162  32.097  73.941  1.00 25.03 LIG 0.21  HD
ENDBRANCH 23 24
ENDBRANCH 20 23
ENDBRANCH 17 20
ENDBRANCH 15 16
BRANCH 15 26
ATOM     26  CB  LEU D 343      20.560  33.209  73.804  1.00 15.83 LIG 0.04  C 
BRANCH 26 27
ATOM     27  CG  LEU D 343      21.920  33.876  73.851  1.00 14.86 LIG-0.02  C 
ATOM     28  CD1 LEU D 343      22.988  32.913  73.357  1.00 12.95 LIG 0.01  C 
ATOM     29  CD2 LEU D 343      21.907  35.177  73.009  1.00 12.95 LIG 0.01  C 
ENDBRANCH 26 27
ENDBRANCH 15 26
ENDBRANCH 12 15
ENDBRANCH 10 11
BRANCH 10 30
ATOM     30  CB  HIS D 342      18.877  35.278  78.804  1.00 12.90 LIG 0.10  C 
BRANCH 30 31
ATOM     31  CG  HIS D 342      18.962  34.727  80.191  1.00 12.99 LIG 0.06  A 
ATOM     32  CD2 HIS D 342      19.751  35.087  81.231  1.00 12.88 LIG 0.14  A 
ATOM     33 NE2  HIS D 342      19.437  34.262  82.281  1.00 14.80 LIG-0.25  NA
ATOM     34  CE1 HIS D 342      18.495  33.421  81.904  1.00 13.21 LIG 0.23  A 
ATOM     35 ND1  HIS D 342      18.194  33.675  80.643  1.00 14.49 LIG-0.24  NA
ENDBRANCH 30 31
ENDBRANCH 10 30
ENDBRANCH 8 10
ENDBRANCH 5 6
BRANCH 5 36
ATOM     36  CB  THR D 341      23.856  37.626  77.973  1.00 12.70 LIG 0.15  C 
ATOM     37  CG2 THR D 341      23.280  38.944  77.424  1.00 14.15 LIG 0.04  C 
BRANCH 36 38
ATOM     38 OG1  THR D 341      25.255  37.775  78.247  1.00 14.08 LIG-0.39  OA
ATOM     39 HG1  THR D 341      25.619  37.018  78.266  1.00 14.08 LIG 0.21  HD
ENDBRANCH 36 38
ENDBRANCH 5 36
ENDBRANCH 3 5
BRANCH 1 40
ATOM     40  CA  TRP D 340      24.901  36.088  82.458  1.00 18.72 LIG 0.18  C 
BRANCH 40 41
ATOM     41  CB  TRP D 340      24.318  35.347  83.660  1.00 19.00 LIG 0.07  C 
BRANCH 41 42
ATOM     42  CG  TRP D 340      25.033  34.095  84.031  1.00 19.22 LIG-0.03  A 
ATOM     43  CD2 TRP D 340      25.371  33.023  83.154  1.00 20.18 LIG-0.00  A 
ATOM     44  CE3 TRP D 340      25.202  32.805  81.781  1.00 18.70 LIG 0.01  A 
ATOM     45  CE2 TRP D 340      26.003  32.029  83.934  1.00 18.84 LIG 0.04  A 
ATOM     46  CZ3 TRP D 340      25.661  31.610  81.233  1.00 20.55 LIG 0.00  A 
ATOM     47  CH2 TRP D 340      26.293  30.645  82.040  1.00 19.52 LIG 0.00  A 
ATOM     48  CZ2 TRP D 340      26.469  30.832  83.386  1.00 19.79 LIG 0.03  A 
ATOM     49  NE1 TRP D 340      26.048  32.482  85.227  1.00 21.77 LIG-0.36  N 
ATOM     50  CD1 TRP D 340      25.447  33.720  85.276  1.00 20.48 LIG 0.10  A 
ATOM     51 HE1  TRP D 340      26.393  32.064  85.895  1.00 21.77 LIG 0.17  HD
ENDBRANCH 41 42
ENDBRANCH 40 41
BRANCH 40 52
ATOM     52  N   TRP D 340      25.630  37.283  82.897  1.00 22.23 LIG-0.35  N 
ATOM     53  C   ASP D 339      26.575  37.864  82.158  1.00 26.49 LIG 0.24  C 
ATOM     54 O    ASP D 339      26.912  37.450  81.035  1.00 27.22 LIG-0.27  OA
ATOM     55 H    TRP D 340      25.392  37.572  83.671  1.00 22.23 LIG 0.16  HD
BRANCH 53 56
ATOM     56  CA  ASP D 339      27.254  39.096  82.766  1.00 29.46 LIG 0.19  C 
BRANCH 56 57
ATOM     57  CB  ASP D 339      28.409  39.538  81.863  1.00 30.27 LIG 0.15  C 
BRANCH 57 58
ATOM     58  CG  ASP D 339      28.428  41.048  81.608  1.00 32.94 LIG 0.17  C 
ATOM     59 OD1  ASP D 339      29.428  41.528  81.032  1.00 36.53 LIG-0.65  OA
ATOM     60 OD2  ASP D 339      27.463  41.756  81.991  1.00 35.99 LIG-0.65  OA
ENDBRANCH 57 58
ENDBRANCH 56 57
BRANCH 56 61
ATOM     61  N   ASP D 339      27.764  38.811  84.104  1.00 31.22 LIG-0.34  N 
ATOM     62  C   ASP D 338      27.033  38.923  85.211  1.00 32.92 LIG 0.26  C 
ATOM     63 O    ASP D 338      25.805  39.069  85.210  1.00 33.60 LIG-0.27  OA
ATOM     64 H    ASP D 339      28.587  38.562  84.110  1.00 31.22 LIG 0.16  HD
BRANCH 62 65
ATOM     65  CA  ASP D 338      27.808  38.827  86.525  1.00 33.82 LIG 0.41  C 
ATOM     66  N   ASP D 338      27.493  39.989  87.416  1.00 34.02 LIG 0.61  N 
BRANCH 65 67
ATOM     67  CB  ASP D 338      27.490  37.500  87.232  1.00 34.49 LIG 0.16  C 
BRANCH 67 68
ATOM     68  CG  ASP D 338      27.918  36.280  86.425  1.00 35.92 LIG 0.17  C 
ATOM     69 OD2  ASP D 338      27.325  36.043  85.354  1.00 39.23 LIG-0.65  OA
ATOM     70 OD1  ASP D 338      28.838  35.546  86.860  1.00 38.97 LIG-0.65  OA
ENDBRANCH 67 68
ENDBRANCH 65 67
ENDBRANCH 62 65
ENDBRANCH 56 61
ENDBRANCH 53 56
ENDBRANCH 40 52
ENDBRANCH 1 40
TORSDOF 27
ENDMDL
MODEL 5
USER: ADFR SOLUTION from run 123
USER: SCORE 22.109325 LL:  -5.401 LR: -18.536 RR:   0.000 FEB: -10.482
USER: RMSD 2.854932
USER: SEED 122
USER: STATUS no improvement in best in 5 clusters for 5 generations
USER: GENES 29
USER: genes 0 Translation |==|  0.54376 0.51749 0.55487
USER: genes 1 Rotation |==|  0.59549 0.51564 0.58246 0.98357
USER: genes 2 Torsion [C]-N--CA-[CB] |==|  0.43333
USER: genes 3 Torsion [N]-CA--C-[N] |==|  0.42528
USER: genes 4 Torsion [C]-N--CA-[C] |==|  0.71677
USER: genes 5 Torsion [N]-CA--C-[N] |==|  0.40142
USER: genes 6 Torsion [C]-N--CA-[C] |==|  0.65251
USER: genes 7 Torsion [N]-CA--C-[N] |==|  0.48088
USER: genes 8 Torsion [C]-N--CA-[C] |==|  0.75777
USER: genes 9 Torsion [N]-CA--C-[O] |==|  0.05366
USER: genes 10 Torsion [N]-CA--CB-[OG] |==|  0.97915
USER: genes 11 Torsion [CA]-CB--OG-[HG] |==|  0.82856
USER: genes 12 Torsion [N]-CA--CB-[CG] |==|  0.81912
USER: genes 13 Torsion [CA]-CB--CG-[CD2] |==|  0.84519
USER: genes 14 Torsion [N]-CA--CB-[CG] |==|  0.73197
USER: genes 15 Torsion [CA]-CB--CG-[CD2] |==|  0.30820
USER: genes 16 Torsion [N]-CA--CB-[OG1] |==|  0.98427
USER: genes 17 Torsion [CA]-CB--OG1-[HG1] |==|  0.14267
USER: genes 18 Torsion [N]-C--CA-[N] |==|  0.26663
USER: genes 19 Torsion [C]-CA--CB-[CG] |==|  0.30688
USER: genes 20 Torsion [CA]-CB--CG-[CD2] |==|  0.37837
USER: genes 21 Torsion [C]-CA--N-[C] |==|  0.76196
USER: genes 22 Torsion [N]-C--CA-[N] |==|  0.38896
USER: genes 23 Torsion [C]-CA--CB-[CG] |==|  0.59131
USER: genes 24 Torsion [CA]-CB--CG-[OD1] |==|  0.37144
USER: genes 25 Torsion [C]-CA--N-[C] |==|  0.71243
USER: genes 26 Torsion [N]-C--CA-[N] |==|  0.21900
USER: genes 27 Torsion [C]-CA--CB-[CG] |==|  0.52840
USER: genes 28 Torsion [CA]-CB--CG-[OD2] |==|  0.94775
ROOT
ATOM      1  C   TRP D 340      24.234  36.244  81.590  1.00 16.52 LIG 0.24  C 
ATOM      2 O    TRP D 340      23.327  36.492  82.387  1.00 16.60 LIG-0.27  OA
ATOM      3  N   THR D 341      24.143  36.487  80.289  1.00 13.22 LIG-0.34  N 
ATOM      4 H    THR D 341      24.781  36.322  79.736  1.00 13.22 LIG 0.16  HD
ENDROOT
BRANCH 3 5
ATOM      5  CA  THR D 341      22.962  37.056  79.656  1.00 12.53 LIG 0.20  C 
BRANCH 5 6
ATOM      6  C   THR D 341      21.922  35.965  79.404  1.00 12.10 LIG 0.24  C 
ATOM      7 O    THR D 341      22.253  34.788  79.274  1.00 10.92 LIG-0.27  OA
ATOM      8  N   HIS D 342      20.653  36.354  79.364  1.00 12.26 LIG-0.35  N 
ATOM      9 H    HIS D 342      20.391  37.164  79.486  1.00 12.26 LIG 0.16  HD
BRANCH 8 10
ATOM     10  CA  HIS D 342      19.579  35.401  79.103  1.00 12.78 LIG 0.18  C 
BRANCH 10 11
ATOM     11  C   HIS D 342      19.133  35.540  77.663  1.00 14.51 LIG 0.24  C 
ATOM     12  N   LEU D 343      18.767  34.425  77.037  1.00 15.48 LIG-0.35  N 
ATOM     13 H    LEU D 343      18.707  33.658  77.421  1.00 15.48 LIG 0.16  HD
ATOM     14 O    HIS D 342      19.107  36.661  77.122  1.00 16.02 LIG-0.27  OA
BRANCH 12 15
ATOM     15  CA  LEU D 343      18.428  34.412  75.612  1.00 16.72 LIG 0.18  C 
BRANCH 15 16
ATOM     16  C   LEU D 343      17.048  33.833  75.307  1.00 19.19 LIG 0.24  C 
ATOM     17  N   SER D 344      16.623  33.925  74.036  1.00 21.37 LIG-0.34  N 
ATOM     18 H    SER D 344      16.989  34.443  73.456  1.00 21.37 LIG 0.16  HD
ATOM     19 O    LEU D 343      16.396  33.310  76.194  1.00 19.56 LIG-0.27  OA
BRANCH 17 20
ATOM     20  CA  SER D 344      15.481  33.149  73.499  1.00 23.14 LIG 0.19  C 
BRANCH 20 21
ATOM     21  C   SER D 344      15.940  31.777  72.986  1.00 24.18 LIG 0.22  C 
ATOM     22 O    SER D 344      17.022  31.282  73.351  1.00 25.35 LIG-0.29  OA
ENDBRANCH 20 21
BRANCH 20 23
ATOM     23  CB  SER D 344      14.776  33.895  72.365  1.00 23.66 LIG 0.20  C 
BRANCH 23 24
ATOM     24 OG   SER D 344      15.285  35.223  72.224  1.00 25.03 LIG-0.40  OA
ATOM     25 HG   SER D 344      15.143  35.655  72.930  1.00 25.03 LIG 0.21  HD
ENDBRANCH 23 24
ENDBRANCH 20 23
ENDBRANCH 17 20
ENDBRANCH 15 16
BRANCH 15 26
ATOM     26  CB  LEU D 343      19.467  33.604  74.816  1.00 15.83 LIG 0.04  C 
BRANCH 26 27
ATOM     27  CG  LEU D 343      20.877  34.159  74.779  1.00 14.86 LIG-0.02  C 
ATOM     28  CD1 LEU D 343      21.765  33.266  73.927  1.00 12.95 LIG 0.01  C 
ATOM     29  CD2 LEU D 343      20.865  35.613  74.239  1.00 12.95 LIG 0.01  C 
ENDBRANCH 26 27
ENDBRANCH 15 26
ENDBRANCH 12 15
ENDBRANCH 10 11
BRANCH 10 30
ATOM     30  CB  HIS D 342      18.388  35.675  80.034  1.00 12.90 LIG 0.10  C 
BRANCH 30 31
ATOM     31  CG  HIS D 342      18.371  34.818  81.257  1.00 12.99 LIG 0.06  A 
ATOM     32  CD2 HIS D 342      18.570  35.142  82.558  1.00 12.88 LIG 0.14  A 
ATOM     33 NE2  HIS D 342      18.450  33.985  83.285  1.00 14.80 LIG-0.25  NA
ATOM     34  CE1 HIS D 342      18.193  32.983  82.467  1.00 13.21 LIG 0.23  A 
ATOM     35 ND1  HIS D 342      18.147  33.458  81.235  1.00 14.49 LIG-0.24  NA
ENDBRANCH 30 31
ENDBRANCH 10 30
ENDBRANCH 8 10
ENDBRANCH 5 6
BRANCH 5 36
ATOM     36  CB  THR D 341      23.337  37.758  78.330  1.00 12.70 LIG 0.15  C 
ATOM     37  CG2 THR D 341      22.805  39.202  78.285  1.00 14.15 LIG 0.04  C 
BRANCH 36 38
ATOM     38 OG1  THR D 341      24.764  37.752  78.185  1.00 14.08 LIG-0.39  OA
ATOM     39 HG1  THR D 341      25.053  36.971  78.291  1.00 14.08 LIG 0.21  HD
ENDBRANCH 36 38
ENDBRANCH 5 36
ENDBRANCH 3 5
BRANCH 1 40
ATOM     40  CA  TRP D 340      25.523  35.579  82.060  1.00 18.72 LIG 0.18  C 
BRANCH 40 41
ATOM     41  CB  TRP D 340      25.165  34.586  83.164  1.00 19.00 LIG 0.07  C 
BRANCH 41 42
ATOM     42  CG  TRP D 340      25.322  33.153  82.793  1.00 19.22 LIG-0.03  A 
ATOM     43  CD2 TRP D 340      25.908  32.131  83.595  1.00 20.18 LIG-0.00  A 
ATOM     44  CE3 TRP D 340      26.453  32.105  84.885  1.00 18.70 LIG 0.01  A 
ATOM     45  CE2 TRP D 340      25.885  30.939  82.836  1.00 18.84 LIG 0.04  A 
ATOM     46  CZ3 TRP D 340      26.956  30.902  85.373  1.00 20.55 LIG 0.00  A 
ATOM     47  CH2 TRP D 340      26.910  29.733  84.592  1.00 19.52 LIG 0.00  A 
ATOM     48  CZ2 TRP D 340      26.385  29.731  83.325  1.00 19.79 LIG 0.03  A 
ATOM     49  NE1 TRP D 340      25.306  31.227  81.627  1.00 21.77 LIG-0.36  N 
ATOM     50  CD1 TRP D 340      24.985  32.567  81.607  1.00 20.48 LIG 0.10  A 
ATOM     51 HE1  TRP D 340      25.166  30.667  80.990  1.00 21.77 LIG 0.17  HD
ENDBRANCH 41 42
ENDBRANCH 40 41
BRANCH 40 52
ATOM     52  N   TRP D 340      26.495  36.563  82.550  1.00 22.23 LIG-0.35  N 
ATOM     53  C   ASP D 339      27.343  37.202  81.745  1.00 26.49 LIG 0.24  C 
ATOM     54 O    ASP D 339      27.377  37.028  80.515  1.00 27.22 LIG-0.27  OA
ATOM     55 H    TRP D 340      26.466  36.687  83.400  1.00 22.23 LIG 0.16  HD
BRANCH 53 56
ATOM     56  CA  ASP D 339      28.306  38.188  82.416  1.00 29.46 LIG 0.19  C 
BRANCH 56 57
ATOM     57  CB  ASP D 339      27.763  39.612  82.266  1.00 30.27 LIG 0.15  C 
BRANCH 57 58
ATOM     58  CG  ASP D 339      28.866  40.666  82.138  1.00 32.94 LIG 0.17  C 
ATOM     59 OD1  ASP D 339      28.747  41.528  81.241  1.00 36.53 LIG-0.65  OA
ATOM     60 OD2  ASP D 339      29.854  40.630  82.914  1.00 35.99 LIG-0.65  OA
ENDBRANCH 57 58
ENDBRANCH 56 57
BRANCH 56 61
ATOM     61  N   ASP D 339      29.638  38.111  81.822  1.00 31.22 LIG-0.34  N 
ATOM     62  C   ASP D 338      30.669  37.500  82.402  1.00 32.92 LIG 0.26  C 
ATOM     63 O    ASP D 338      30.562  36.759  83.386  1.00 33.60 LIG-0.27  OA
ATOM     64 H    ASP D 339      29.694  38.500  81.057  1.00 31.22 LIG 0.16  HD
BRANCH 62 65
ATOM     65  CA  ASP D 338      32.030  37.742  81.750  1.00 33.82 LIG 0.41  C 
ATOM     66  N   ASP D 338      32.581  39.078  82.146  1.00 34.02 LIG 0.61  N 
BRANCH 65 67
ATOM     67  CB  ASP D 338      33.007  36.618  82.130  1.00 34.49 LIG 0.16  C 
BRANCH 67 68
ATOM     68  CG  ASP D 338      34.445  36.920  81.723  1.00 35.92 LIG 0.17  C 
ATOM     69 OD2  ASP D 338      34.642  37.793  80.855  1.00 39.23 LIG-0.65  OA
ATOM     70 OD1  ASP D 338      35.382  36.280  82.257  1.00 38.97 LIG-0.65  OA
ENDBRANCH 67 68
ENDBRANCH 65 67
ENDBRANCH 62 65
ENDBRANCH 56 61
ENDBRANCH 53 56
ENDBRANCH 40 52
ENDBRANCH 1 40
TORSDOF 27
ENDMDL
MODEL 6
USER: ADFR SOLUTION from run 29
USER: SCORE 22.565293 LL:  -5.413 LR: -18.521 RR:   0.000 FEB: -10.467
USER: RMSD 3.306630
USER: SEED 28
USER: STATUS no improvement in best in 4 clusters for 5 generations
USER: GENES 29
USER: genes 0 Translation |==|  0.54013 0.49145 0.56049
USER: genes 1 Rotation |==|  0.67463 0.49036 0.65427 0.94228
USER: genes 2 Torsion [C]-N--CA-[CB] |==|  0.51667
USER: genes 3 Torsion [N]-CA--C-[N] |==|  0.28342
USER: genes 4 Torsion [C]-N--CA-[C] |==|  0.78878
USER: genes 5 Torsion [N]-CA--C-[N] |==|  0.23691
USER: genes 6 Torsion [C]-N--CA-[C] |==|  0.80514
USER: genes 7 Torsion [N]-CA--C-[N] |==|  0.39973
USER: genes 8 Torsion [C]-N--CA-[C] |==|  0.14324
USER: genes 9 Torsion [N]-CA--C-[O] |==|  0.13212
USER: genes 10 Torsion [N]-CA--CB-[OG] |==|  0.80116
USER: genes 11 Torsion [CA]-CB--OG-[HG] |==|  0.71656
USER: genes 12 Torsion [N]-CA--CB-[CG] |==|  0.90087
USER: genes 13 Torsion [CA]-CB--CG-[CD2] |==|  0.77612
USER: genes 14 Torsion [N]-CA--CB-[CG] |==|  0.95670
USER: genes 15 Torsion [CA]-CB--CG-[CD2] |==|  0.72893
USER: genes 16 Torsion [N]-CA--CB-[OG1] |==|  0.03679
USER: genes 17 Torsion [CA]-CB--OG1-[HG1] |==|  0.07426
USER: genes 18 Torsion [N]-C--CA-[N] |==|  0.20021
USER: genes 19 Torsion [C]-CA--CB-[CG] |==|  0.26913
USER: genes 20 Torsion [CA]-CB--CG-[CD2] |==|  0.39909
USER: genes 21 Torsion [C]-CA--N-[C] |==|  0.76648
USER: genes 22 Torsion [N]-C--CA-[N] |==|  0.01559
USER: genes 23 Torsion [C]-CA--CB-[CG] |==|  0.20041
USER: genes 24 Torsion [CA]-CB--CG-[OD1] |==|  0.23504
USER: genes 25 Torsion [C]-CA--N-[C] |==|  0.76106
USER: genes 26 Torsion [N]-C--CA-[N] |==|  0.42391
USER: genes 27 Torsion [C]-CA--CB-[CG] |==|  0.18270
USER: genes 28 Torsion [CA]-CB--CG-[OD2] |==|  0.60316
ROOT
ATOM      1  C   TRP D 340      24.134  35.736  81.741  1.00 16.52 LIG 0.24  C 
ATOM      2 O    TRP D 340      23.160  35.438  82.438  1.00 16.60 LIG-0.27  OA
ATOM      3  N   THR D 341      24.032  36.408  80.602  1.00 13.22 LIG-0.34  N 
ATOM      4 H    THR D 341      24.714  36.622  80.123  1.00 13.22 LIG 0.16  HD
ENDROOT
BRANCH 3 5
ATOM      5  CA  THR D 341      22.766  36.853  80.039  1.00 12.53 LIG 0.20  C 
BRANCH 5 6
ATOM      6  C   THR D 341      21.784  35.685  79.960  1.00 12.10 LIG 0.24  C 
ATOM      7 O    THR D 341      21.885  34.828  79.084  1.00 10.92 LIG-0.27  OA
ATOM      8  N   HIS D 342      20.847  35.633  80.898  1.00 12.26 LIG-0.35  N 
ATOM      9 H    HIS D 342      20.775  36.200  81.541  1.00 12.26 LIG 0.16  HD
BRANCH 8 10
ATOM     10  CA  HIS D 342      19.841  34.576  80.904  1.00 12.78 LIG 0.18  C 
BRANCH 10 11
ATOM     11  C   HIS D 342      18.810  34.869  79.835  1.00 14.51 LIG 0.24  C 
ATOM     12  N   LEU D 343      19.087  34.453  78.602  1.00 15.48 LIG-0.35  N 
ATOM     13 H    LEU D 343      19.776  33.978  78.401  1.00 15.48 LIG 0.16  HD
ATOM     14 O    HIS D 342      17.754  35.459  80.129  1.00 16.02 LIG-0.27  OA
BRANCH 12 15
ATOM     15  CA  LEU D 343      18.226  34.777  77.463  1.00 16.72 LIG 0.18  C 
BRANCH 15 16
ATOM     16  C   LEU D 343      16.878  34.060  77.480  1.00 19.19 LIG 0.24  C 
ATOM     17  N   SER D 344      15.821  34.751  77.022  1.00 21.37 LIG-0.34  N 
ATOM     18 H    SER D 344      15.833  35.602  76.906  1.00 21.37 LIG 0.16  HD
ATOM     19 O    LEU D 343      16.801  32.913  77.887  1.00 19.56 LIG-0.27  OA
BRANCH 17 20
ATOM     20  CA  SER D 344      14.527  34.122  76.667  1.00 23.14 LIG 0.19  C 
BRANCH 20 21
ATOM     21  C   SER D 344      14.011  33.238  77.810  1.00 24.18 LIG 0.22  C 
ATOM     22 O    SER D 344      13.992  33.650  78.983  1.00 25.35 LIG-0.29  OA
ENDBRANCH 20 21
BRANCH 20 23
ATOM     23  CB  SER D 344      14.641  33.278  75.396  1.00 23.66 LIG 0.20  C 
BRANCH 23 24
ATOM     24 OG   SER D 344      14.789  34.102  74.237  1.00 25.03 LIG-0.40  OA
ATOM     25 HG   SER D 344      14.054  34.150  73.832  1.00 25.03 LIG 0.21  HD
ENDBRANCH 23 24
ENDBRANCH 20 23
ENDBRANCH 17 20
ENDBRANCH 15 16
BRANCH 15 26
ATOM     26  CB  LEU D 343      18.928  34.432  76.138  1.00 15.83 LIG 0.04  C 
BRANCH 26 27
ATOM     27  CG  LEU D 343      20.426  34.655  76.086  1.00 14.86 LIG-0.02  C 
ATOM     28  CD1 LEU D 343      21.045  33.775  75.011  1.00 12.95 LIG 0.01  C 
ATOM     29  CD2 LEU D 343      20.736  36.152  75.828  1.00 12.95 LIG 0.01  C 
ENDBRANCH 26 27
ENDBRANCH 15 26
ENDBRANCH 12 15
ENDBRANCH 10 11
BRANCH 10 30
ATOM     30  CB  HIS D 342      19.149  34.509  82.274  1.00 12.90 LIG 0.10  C 
BRANCH 30 31
ATOM     31  CG  HIS D 342      19.880  35.238  83.354  1.00 12.99 LIG 0.06  A 
ATOM     32  CD2 HIS D 342      20.735  34.778  84.299  1.00 12.88 LIG 0.14  A 
ATOM     33 NE2  HIS D 342      21.126  35.858  85.050  1.00 14.80 LIG-0.25  NA
ATOM     34  CE1 HIS D 342      20.532  36.942  84.592  1.00 13.21 LIG 0.23  A 
ATOM     35 ND1  HIS D 342      19.768  36.595  83.571  1.00 14.49 LIG-0.24  NA
ENDBRANCH 30 31
ENDBRANCH 10 30
ENDBRANCH 8 10
ENDBRANCH 5 6
BRANCH 5 36
ATOM     36  CB  THR D 341      22.979  37.471  78.638  1.00 12.70 LIG 0.15  C 
ATOM     37  CG2 THR D 341      22.786  38.999  78.659  1.00 14.15 LIG 0.04  C 
BRANCH 36 38
ATOM     38 OG1  THR D 341      24.298  37.148  78.178  1.00 14.08 LIG-0.39  OA
ATOM     39 HG1  THR D 341      24.552  36.433  78.537  1.00 14.08 LIG 0.21  HD
ENDBRANCH 36 38
ENDBRANCH 5 36
ENDBRANCH 3 5
BRANCH 1 40
ATOM     40  CA  TRP D 340      25.537  35.292  82.136  1.00 18.72 LIG 0.18  C 
BRANCH 40 41
ATOM     41  CB  TRP D 340      25.408  34.263  83.259  1.00 19.00 LIG 0.07  C 
BRANCH 41 42
ATOM     42  CG  TRP D 340      25.460  32.843  82.816  1.00 19.22 LIG-0.03  A 
ATOM     43  CD2 TRP D 340      26.064  31.760  83.519  1.00 20.18 LIG-0.00  A 
ATOM     44  CE3 TRP D 340      26.718  31.651  84.752  1.00 18.70 LIG 0.01  A 
ATOM     45  CE2 TRP D 340      25.914  30.605  82.717  1.00 18.84 LIG 0.04  A 
ATOM     46  CZ3 TRP D 340      27.203  30.405  85.143  1.00 20.55 LIG 0.00  A 
ATOM     47  CH2 TRP D 340      27.030  29.276  84.321  1.00 19.52 LIG 0.00  A 
ATOM     48  CZ2 TRP D 340      26.395  29.355  83.109  1.00 19.79 LIG 0.03  A 
ATOM     49  NE1 TRP D 340      25.245  30.975  81.579  1.00 21.77 LIG-0.36  N 
ATOM     50  CD1 TRP D 340      24.990  32.327  81.643  1.00 20.48 LIG 0.10  A 
ATOM     51 HE1  TRP D 340      25.021  30.451  80.934  1.00 21.77 LIG 0.17  HD
ENDBRANCH 41 42
ENDBRANCH 40 41
BRANCH 40 52
ATOM     52  N   TRP D 340      26.364  36.423  82.570  1.00 22.23 LIG-0.35  N 
ATOM     53  C   ASP D 339      27.026  37.203  81.716  1.00 26.49 LIG 0.24  C 
ATOM     54 O    ASP D 339      26.992  37.045  80.483  1.00 27.22 LIG-0.27  OA
ATOM     55 H    TRP D 340      26.382  36.535  83.422  1.00 22.23 LIG 0.16  HD
BRANCH 53 56
ATOM     56  CA  ASP D 339      27.858  38.334  82.331  1.00 29.46 LIG 0.19  C 
BRANCH 56 57
ATOM     57  CB  ASP D 339      29.295  38.249  81.810  1.00 30.27 LIG 0.15  C 
BRANCH 57 58
ATOM     58  CG  ASP D 339      29.429  38.667  80.343  1.00 32.94 LIG 0.17  C 
ATOM     59 OD1  ASP D 339      29.553  39.884  80.093  1.00 36.53 LIG-0.65  OA
ATOM     60 OD2  ASP D 339      29.397  37.791  79.442  1.00 35.99 LIG-0.65  OA
ENDBRANCH 57 58
ENDBRANCH 56 57
BRANCH 56 61
ATOM     61  N   ASP D 339      27.864  38.252  83.789  1.00 31.22 LIG-0.34  N 
ATOM     62  C   ASP D 338      26.921  38.790  84.560  1.00 32.92 LIG 0.26  C 
ATOM     63 O    ASP D 338      25.846  39.223  84.129  1.00 33.60 LIG-0.27  OA
ATOM     64 H    ASP D 339      28.537  37.822  84.105  1.00 31.22 LIG 0.16  HD
BRANCH 62 65
ATOM     65  CA  ASP D 338      27.231  38.818  86.057  1.00 33.82 LIG 0.41  C 
ATOM     66  N   ASP D 338      26.519  39.952  86.729  1.00 34.02 LIG 0.61  N 
BRANCH 65 67
ATOM     67  CB  ASP D 338      26.847  37.478  86.703  1.00 34.49 LIG 0.16  C 
BRANCH 67 68
ATOM     68  CG  ASP D 338      27.696  36.314  86.205  1.00 35.92 LIG 0.17  C 
ATOM     69 OD2  ASP D 338      27.145  35.207  86.046  1.00 39.23 LIG-0.65  OA
ATOM     70 OD1  ASP D 338      28.917  36.495  85.981  1.00 38.97 LIG-0.65  OA
ENDBRANCH 67 68
ENDBRANCH 65 67
ENDBRANCH 62 65
ENDBRANCH 56 61
ENDBRANCH 53 56
ENDBRANCH 40 52
ENDBRANCH 1 40
TORSDOF 27
ENDMDL
MODEL 7
USER: ADFR SOLUTION from run 151
USER: SCORE 21.616469 LL:  -5.007 LR: -18.200 RR:   0.000 FEB: -10.146
USER: RMSD 11.849538
USER: SEED 150
USER: STATUS searching
USER: GENES 29
USER: genes 0 Translation |==|  0.42007 0.45872 0.43165
USER: genes 1 Rotation |==|  0.34055 0.07608 0.70348 0.55881
USER: genes 2 Torsion [C]-N--CA-[CB] |==|  0.23759
USER: genes 3 Torsion [N]-CA--C-[N] |==|  0.03883
USER: genes 4 Torsion [C]-N--CA-[C] |==|  0.79918
USER: genes 5 Torsion [N]-CA--C-[N] |==|  0.98945
USER: genes 6 Torsion [C]-N--CA-[C] |==|  0.90818
USER: genes 7 Torsion [N]-CA--C-[N] |==|  0.36090
USER: genes 8 Torsion [C]-N--CA-[C] |==|  0.73297
USER: genes 9 Torsion [N]-CA--C-[O] |==|  0.18262
USER: genes 10 Torsion [N]-CA--CB-[OG] |==|  0.37693
USER: genes 11 Torsion [CA]-CB--OG-[HG] |==|  0.63335
USER: genes 12 Torsion [N]-CA--CB-[CG] |==|  0.61640
USER: genes 13 Torsion [CA]-CB--CG-[CD2] |==|  0.88997
USER: genes 14 Torsion [N]-CA--CB-[CG] |==|  0.41885
USER: genes 15 Torsion [CA]-CB--CG-[CD2] |==|  0.74102
USER: genes 16 Torsion [N]-CA--CB-[OG1] |==|  0.52716
USER: genes 17 Torsion [CA]-CB--OG1-[HG1] |==|  0.94579
USER: genes 18 Torsion [N]-C--CA-[N] |==|  0.00876
USER: genes 19 Torsion [C]-CA--CB-[CG] |==|  0.24318
USER: genes 20 Torsion [CA]-CB--CG-[CD2] |==|  0.73148
USER: genes 21 Torsion [C]-CA--N-[C] |==|  0.72406
USER: genes 22 Torsion [N]-C--CA-[N] |==|  0.22331
USER: genes 23 Torsion [C]-CA--CB-[CG] |==|  0.80154
USER: genes 24 Torsion [CA]-CB--CG-[OD1] |==|  0.30652
USER: genes 25 Torsion [C]-CA--N-[C] |==|  0.75015
USER: genes 26 Torsion [N]-C--CA-[N] |==|  0.55431
USER: genes 27 Torsion [C]-CA--CB-[CG] |==|  0.82562
USER: genes 28 Torsion [CA]-CB--CG-[OD2] |==|  0.95237
ROOT
ATOM      1  C   TRP D 340      20.802  35.098  78.262  1.00 16.52 LIG 0.24  C 
ATOM      2 O    TRP D 340      21.504  34.648  77.354  1.00 16.60 LIG-0.27  OA
ATOM      3  N   THR D 341      21.293  35.775  79.292  1.00 13.22 LIG-0.34  N 
ATOM      4 H    THR D 341      20.800  36.096  79.919  1.00 13.22 LIG 0.16  HD
ENDROOT
BRANCH 3 5
ATOM      5  CA  THR D 341      22.712  36.047  79.474  1.00 12.53 LIG 0.20  C 
BRANCH 5 6
ATOM      6  C   THR D 341      23.034  36.194  80.960  1.00 12.10 LIG 0.24  C 
ATOM      7 O    THR D 341      24.093  36.697  81.334  1.00 10.92 LIG-0.27  OA
ATOM      8  N   HIS D 342      22.105  35.781  81.812  1.00 12.26 LIG-0.35  N 
ATOM      9 H    HIS D 342      21.343  35.457  81.578  1.00 12.26 LIG 0.16  HD
BRANCH 8 10
ATOM     10  CA  HIS D 342      22.318  35.849  83.254  1.00 12.78 LIG 0.18  C 
BRANCH 10 11
ATOM     11  C   HIS D 342      23.324  34.791  83.657  1.00 14.51 LIG 0.24  C 
ATOM     12  N   LEU D 343      23.753  33.975  82.698  1.00 15.48 LIG-0.35  N 
ATOM     13 H    LEU D 343      23.545  34.060  81.868  1.00 15.48 LIG 0.16  HD
ATOM     14 O    HIS D 342      23.722  34.723  84.834  1.00 16.02 LIG-0.27  OA
BRANCH 12 15
ATOM     15  CA  LEU D 343      24.635  32.840  82.984  1.00 16.72 LIG 0.18  C 
BRANCH 15 16
ATOM     16  C   LEU D 343      25.610  33.086  84.133  1.00 19.19 LIG 0.24  C 
ATOM     17  N   SER D 344      25.665  32.145  85.090  1.00 21.37 LIG-0.34  N 
ATOM     18 H    SER D 344      25.067  31.534  85.181  1.00 21.37 LIG 0.16  HD
ATOM     19 O    LEU D 343      26.298  34.094  84.146  1.00 19.56 LIG-0.27  OA
BRANCH 17 20
ATOM     20  CA  SER D 344      26.758  32.056  86.086  1.00 23.14 LIG 0.19  C 
BRANCH 20 21
ATOM     21  C   SER D 344      27.830  31.051  85.641  1.00 24.18 LIG 0.22  C 
ATOM     22 O    SER D 344      28.526  31.258  84.632  1.00 25.35 LIG-0.29  OA
ENDBRANCH 20 21
BRANCH 20 23
ATOM     23  CB  SER D 344      26.232  31.648  87.463  1.00 23.66 LIG 0.20  C 
BRANCH 23 24
ATOM     24 OG   SER D 344      27.065  30.653  88.062  1.00 25.03 LIG-0.40  OA
ATOM     25 HG   SER D 344      26.588  30.027  88.356  1.00 25.03 LIG 0.21  HD
ENDBRANCH 23 24
ENDBRANCH 20 23
ENDBRANCH 17 20
ENDBRANCH 15 16
BRANCH 15 26
ATOM     26  CB  LEU D 343      25.457  32.467  81.738  1.00 15.83 LIG 0.04  C 
BRANCH 26 27
ATOM     27  CG  LEU D 343      25.614  30.988  81.446  1.00 14.86 LIG-0.02  C 
ATOM     28  CD1 LEU D 343      26.770  30.769  80.483  1.00 12.95 LIG 0.01  C 
ATOM     29  CD2 LEU D 343      25.830  30.202  82.766  1.00 12.95 LIG 0.01  C 
ENDBRANCH 26 27
ENDBRANCH 15 26
ENDBRANCH 12 15
ENDBRANCH 10 11
BRANCH 10 30
ATOM     30  CB  HIS D 342      20.997  35.605  83.999  1.00 12.90 LIG 0.10  C 
BRANCH 30 31
ATOM     31  CG  HIS D 342      21.171  34.984  85.346  1.00 12.99 LIG 0.06  A 
ATOM     32  CD2 HIS D 342      21.151  33.682  85.722  1.00 12.88 LIG 0.14  A 
ATOM     33 NE2  HIS D 342      21.359  33.649  87.077  1.00 14.80 LIG-0.25  NA
ATOM     34  CE1 HIS D 342      21.497  34.881  87.524  1.00 13.21 LIG 0.23  A 
ATOM     35 ND1  HIS D 342      21.381  35.708  86.500  1.00 14.49 LIG-0.24  NA
ENDBRANCH 30 31
ENDBRANCH 10 30
ENDBRANCH 8 10
ENDBRANCH 5 6
BRANCH 5 36
ATOM     36  CB  THR D 341      23.124  37.324  78.705  1.00 12.70 LIG 0.15  C 
ATOM     37  CG2 THR D 341      22.490  38.585  79.322  1.00 14.15 LIG 0.04  C 
BRANCH 36 38
ATOM     38 OG1  THR D 341      24.554  37.436  78.714  1.00 14.08 LIG-0.39  OA
ATOM     39 HG1  THR D 341      24.867  36.965  79.335  1.00 14.08 LIG 0.21  HD
ENDBRANCH 36 38
ENDBRANCH 5 36
ENDBRANCH 3 5
BRANCH 1 40
ATOM     40  CA  TRP D 340      19.298  34.849  78.278  1.00 18.72 LIG 0.18  C 
BRANCH 40 41
ATOM     41  CB  TRP D 340      18.717  35.389  76.972  1.00 19.00 LIG 0.07  C 
BRANCH 41 42
ATOM     42  CG  TRP D 340      18.724  34.426  75.838  1.00 19.22 LIG-0.03  A 
ATOM     43  CD2 TRP D 340      19.705  34.340  74.808  1.00 20.18 LIG-0.00  A 
ATOM     44  CE3 TRP D 340      20.895  35.030  74.544  1.00 18.70 LIG 0.01  A 
ATOM     45  CE2 TRP D 340      19.295  33.316  73.924  1.00 18.84 LIG 0.04  A 
ATOM     46  CZ3 TRP D 340      21.631  34.683  73.414  1.00 20.55 LIG 0.00  A 
ATOM     47  CH2 TRP D 340      21.195  33.653  72.559  1.00 19.52 LIG 0.00  A 
ATOM     48  CZ2 TRP D 340      20.033  32.964  72.793  1.00 19.79 LIG 0.03  A 
ATOM     49  NE1 TRP D 340      18.116  32.802  74.402  1.00 21.77 LIG-0.36  N 
ATOM     50  CD1 TRP D 340      17.775  33.489  75.546  1.00 20.48 LIG 0.10  A 
ATOM     51 HE1  TRP D 340      17.667  32.161  74.047  1.00 21.77 LIG 0.17  HD
ENDBRANCH 41 42
ENDBRANCH 40 41
BRANCH 40 52
ATOM     52  N   TRP D 340      18.653  35.489  79.430  1.00 22.23 LIG-0.35  N 
ATOM     53  C   ASP D 339      18.332  34.824  80.539  1.00 26.49 LIG 0.24  C 
ATOM     54 O    ASP D 339      18.559  33.612  80.696  1.00 27.22 LIG-0.27  OA
ATOM     55 H    TRP D 340      18.502  36.329  79.323  1.00 22.23 LIG 0.16  HD
BRANCH 53 56
ATOM     56  CA  ASP D 339      17.649  35.634  81.646  1.00 29.46 LIG 0.19  C 
BRANCH 56 57
ATOM     57  CB  ASP D 339      17.829  34.918  82.987  1.00 30.27 LIG 0.15  C 
BRANCH 57 58
ATOM     58  CG  ASP D 339      16.995  33.638  83.101  1.00 32.94 LIG 0.17  C 
ATOM     59 OD1  ASP D 339      17.602  32.546  83.100  1.00 36.53 LIG-0.65  OA
ATOM     60 OD2  ASP D 339      15.744  33.716  83.176  1.00 35.99 LIG-0.65  OA
ENDBRANCH 57 58
ENDBRANCH 56 57
BRANCH 56 61
ATOM     61  N   ASP D 339      16.225  35.804  81.373  1.00 31.22 LIG-0.34  N 
ATOM     62  C   ASP D 338      15.724  36.827  80.683  1.00 32.92 LIG 0.26  C 
ATOM     63 O    ASP D 338      16.414  37.615  80.026  1.00 33.60 LIG-0.27  OA
ATOM     64 H    ASP D 339      15.736  35.178  81.702  1.00 31.22 LIG 0.16  HD
BRANCH 62 65
ATOM     65  CA  ASP D 338      14.202  36.963  80.719  1.00 33.82 LIG 0.41  C 
ATOM     66  N   ASP D 338      13.714  37.804  79.579  1.00 34.02 LIG 0.61  N 
BRANCH 65 67
ATOM     67  CB  ASP D 338      13.544  35.575  80.688  1.00 34.49 LIG 0.16  C 
BRANCH 67 68
ATOM     68  CG  ASP D 338      13.844  34.804  79.408  1.00 35.92 LIG 0.17  C 
ATOM     69 OD2  ASP D 338      14.272  35.439  78.424  1.00 39.23 LIG-0.65  OA
ATOM     70 OD1  ASP D 338      13.645  33.566  79.374  1.00 38.97 LIG-0.65  OA
ENDBRANCH 67 68
ENDBRANCH 65 67
ENDBRANCH 62 65
ENDBRANCH 56 61
ENDBRANCH 53 56
ENDBRANCH 40 52
ENDBRANCH 1 40
TORSDOF 27
ENDMDL
MODEL 8
USER: ADFR SOLUTION from run 2
USER: SCORE 22.017413 LL:  -5.353 LR: -18.114 RR:   0.000 FEB: -10.060
USER: RMSD 3.777675
USER: SEED 133618
USER: STATUS no improvement in best in 17 clusters for 5 generations
USER: GENES 29
USER: genes 0 Translation |==|  0.53149 0.46042 0.54122
USER: genes 1 Rotation |==|  0.79208 0.38670 0.80675 0.74033
USER: genes 2 Torsion [C]-N--CA-[CB] |==|  0.77667
USER: genes 3 Torsion [N]-CA--C-[N] |==|  0.24330
USER: genes 4 Torsion [C]-N--CA-[C] |==|  0.87196
USER: genes 5 Torsion [N]-CA--C-[N] |==|  0.88206
USER: genes 6 Torsion [C]-N--CA-[C] |==|  0.66674
USER: genes 7 Torsion [N]-CA--C-[N] |==|  0.16749
USER: genes 8 Torsion [C]-N--CA-[C] |==|  0.16376
USER: genes 9 Torsion [N]-CA--C-[O] |==|  0.50034
USER: genes 10 Torsion [N]-CA--CB-[OG] |==|  0.89954
USER: genes 11 Torsion [CA]-CB--OG-[HG] |==|  0.92064
USER: genes 12 Torsion [N]-CA--CB-[CG] |==|  0.67669
USER: genes 13 Torsion [CA]-CB--CG-[CD2] |==|  0.94219
USER: genes 14 Torsion [N]-CA--CB-[CG] |==|  0.48375
USER: genes 15 Torsion [CA]-CB--CG-[CD2] |==|  0.17146
USER: genes 16 Torsion [N]-CA--CB-[OG1] |==|  0.90996
USER: genes 17 Torsion [CA]-CB--OG1-[HG1] |==|  0.08563
USER: genes 18 Torsion [N]-C--CA-[N] |==|  0.04246
USER: genes 19 Torsion [C]-CA--CB-[CG] |==|  0.24347
USER: genes 20 Torsion [CA]-CB--CG-[CD2] |==|  0.39158
USER: genes 21 Torsion [C]-CA--N-[C] |==|  0.69352
USER: genes 22 Torsion [N]-C--CA-[N] |==|  0.17815
USER: genes 23 Torsion [C]-CA--CB-[CG] |==|  0.33894
USER: genes 24 Torsion [CA]-CB--CG-[OD1] |==|  0.95578
USER: genes 25 Torsion [C]-CA--N-[C] |==|  0.78332
USER: genes 26 Torsion [N]-C--CA-[N] |==|  0.56783
USER: genes 27 Torsion [C]-CA--CB-[CG] |==|  0.83181
USER: genes 28 Torsion [CA]-CB--CG-[OD2] |==|  0.49209
ROOT
ATOM      1  C   TRP D 340      23.894  35.131  81.221  1.00 16.52 LIG 0.24  C 
ATOM      2 O    TRP D 340      23.368  34.082  80.841  1.00 16.60 LIG-0.27  OA
ATOM      3  N   THR D 341      23.460  36.332  80.861  1.00 13.22 LIG-0.34  N 
ATOM      4 H    THR D 341      23.823  37.062  81.135  1.00 13.22 LIG 0.16  HD
ENDROOT
BRANCH 3 5
ATOM      5  CA  THR D 341      22.330  36.546  79.968  1.00 12.53 LIG 0.20  C 
BRANCH 5 6
ATOM      6  C   THR D 341      21.197  35.580  80.310  1.00 12.10 LIG 0.24  C 
ATOM      7 O    THR D 341      21.114  34.480  79.766  1.00 10.92 LIG-0.27  OA
ATOM      8  N   HIS D 342      20.337  35.980  81.238  1.00 12.26 LIG-0.35  N 
ATOM      9 H    HIS D 342      20.391  36.729  81.657  1.00 12.26 LIG 0.16  HD
BRANCH 8 10
ATOM     10  CA  HIS D 342      19.201  35.149  81.623  1.00 12.78 LIG 0.18  C 
BRANCH 10 11
ATOM     11  C   HIS D 342      18.524  34.624  80.374  1.00 14.51 LIG 0.24  C 
ATOM     12  N   LEU D 343      18.366  35.483  79.371  1.00 15.48 LIG-0.35  N 
ATOM     13 H    LEU D 343      18.683  36.283  79.371  1.00 15.48 LIG 0.16  HD
ATOM     14 O    HIS D 342      18.158  33.436  80.313  1.00 16.02 LIG-0.27  OA
BRANCH 12 15
ATOM     15  CA  LEU D 343      17.625  35.129  78.158  1.00 16.72 LIG 0.18  C 
BRANCH 15 16
ATOM     16  C   LEU D 343      18.453  35.211  76.878  1.00 19.19 LIG 0.24  C 
ATOM     17  N   SER D 344      19.535  34.419  76.807  1.00 21.37 LIG-0.34  N 
ATOM     18 H    SER D 344      19.876  34.029  77.494  1.00 21.37 LIG 0.16  HD
ATOM     19 O    LEU D 343      18.114  35.963  75.979  1.00 19.56 LIG-0.27  OA
BRANCH 17 20
ATOM     20  CA  SER D 344      20.254  34.130  75.545  1.00 23.14 LIG 0.19  C 
BRANCH 20 21
ATOM     21  C   SER D 344      20.770  35.422  74.896  1.00 24.18 LIG 0.22  C 
ATOM     22 O    SER D 344      21.400  35.396  73.825  1.00 25.35 LIG-0.29  OA
ENDBRANCH 20 21
BRANCH 20 23
ATOM     23  CB  SER D 344      19.362  33.392  74.545  1.00 23.66 LIG 0.20  C 
BRANCH 23 24
ATOM     24 OG   SER D 344      18.490  32.473  75.207  1.00 25.03 LIG-0.40  OA
ATOM     25 HG   SER D 344      18.851  32.208  75.918  1.00 25.03 LIG 0.21  HD
ENDBRANCH 23 24
ENDBRANCH 20 23
ENDBRANCH 17 20
ENDBRANCH 15 16
BRANCH 15 26
ATOM     26  CB  LEU D 343      16.399  36.043  77.988  1.00 15.83 LIG 0.04  C 
BRANCH 26 27
ATOM     27  CG  LEU D 343      15.040  35.375  78.045  1.00 14.86 LIG-0.02  C 
ATOM     28  CD1 LEU D 343      14.091  36.043  77.062  1.00 12.95 LIG 0.01  C 
ATOM     29  CD2 LEU D 343      15.176  33.860  77.747  1.00 12.95 LIG 0.01  C 
ENDBRANCH 26 27
ENDBRANCH 15 26
ENDBRANCH 12 15
ENDBRANCH 10 11
BRANCH 10 30
ATOM     30  CB  HIS D 342      18.193  35.972  82.441  1.00 12.90 LIG 0.10  C 
BRANCH 30 31
ATOM     31  CG  HIS D 342      16.933  35.235  82.759  1.00 12.99 LIG 0.06  A 
ATOM     32  CD2 HIS D 342      16.736  34.104  83.478  1.00 12.88 LIG 0.14  A 
ATOM     33 NE2  HIS D 342      15.388  33.846  83.465  1.00 14.80 LIG-0.25  NA
ATOM     34  CE1 HIS D 342      14.776  34.778  82.761  1.00 13.21 LIG 0.23  A 
ATOM     35 ND1  HIS D 342      15.687  35.626  82.317  1.00 14.49 LIG-0.24  NA
ENDBRANCH 30 31
ENDBRANCH 10 30
ENDBRANCH 8 10
ENDBRANCH 5 6
BRANCH 5 36
ATOM     36  CB  THR D 341      22.760  36.370  78.493  1.00 12.70 LIG 0.15  C 
ATOM     37  CG2 THR D 341      21.851  37.169  77.540  1.00 14.15 LIG 0.04  C 
BRANCH 36 38
ATOM     38 OG1  THR D 341      24.122  36.795  78.347  1.00 14.08 LIG-0.39  OA
ATOM     39 HG1  THR D 341      24.538  36.653  79.063  1.00 14.08 LIG 0.21  HD
ENDBRANCH 36 38
ENDBRANCH 5 36
ENDBRANCH 3 5
BRANCH 1 40
ATOM     40  CA  TRP D 340      25.134  35.103  82.106  1.00 18.72 LIG 0.18  C 
BRANCH 40 41
ATOM     41  CB  TRP D 340      24.906  34.067  83.205  1.00 19.00 LIG 0.07  C 
BRANCH 41 42
ATOM     42  CG  TRP D 340      25.302  32.677  82.849  1.00 19.22 LIG-0.03  A 
ATOM     43  CD2 TRP D 340      25.935  31.731  83.707  1.00 20.18 LIG-0.00  A 
ATOM     44  CE3 TRP D 340      26.334  31.757  85.049  1.00 18.70 LIG 0.01  A 
ATOM     45  CE2 TRP D 340      26.162  30.562  82.946  1.00 18.84 LIG 0.04  A 
ATOM     46  CZ3 TRP D 340      26.946  30.626  85.586  1.00 20.55 LIG 0.00  A 
ATOM     47  CH2 TRP D 340      27.149  29.477  84.799  1.00 19.52 LIG 0.00  A 
ATOM     48  CZ2 TRP D 340      26.770  29.426  83.483  1.00 19.79 LIG 0.03  A 
ATOM     49  NE1 TRP D 340      25.683  30.790  81.681  1.00 21.77 LIG-0.36  N 
ATOM     50  CD1 TRP D 340      25.181  32.072  81.631  1.00 20.48 LIG 0.10  A 
ATOM     51 HE1  TRP D 340      25.693  30.228  81.030  1.00 21.77 LIG 0.17  HD
ENDBRANCH 41 42
ENDBRANCH 40 41
BRANCH 40 52
ATOM     52  N   TRP D 340      25.416  36.419  82.691  1.00 22.23 LIG-0.35  N 
ATOM     53  C   ASP D 339      26.462  37.160  82.331  1.00 26.49 LIG 0.24  C 
ATOM     54 O    ASP D 339      27.282  36.806  81.465  1.00 27.22 LIG-0.27  OA
ATOM     55 H    TRP D 340      24.845  36.665  83.285  1.00 22.23 LIG 0.16  HD
BRANCH 53 56
ATOM     56  CA  ASP D 339      26.624  38.504  83.048  1.00 29.46 LIG 0.19  C 
BRANCH 56 57
ATOM     57  CB  ASP D 339      27.792  39.275  82.428  1.00 30.27 LIG 0.15  C 
BRANCH 57 58
ATOM     58  CG  ASP D 339      27.385  40.647  81.881  1.00 32.94 LIG 0.17  C 
ATOM     59 OD1  ASP D 339      26.167  40.868  81.711  1.00 36.53 LIG-0.65  OA
ATOM     60 OD2  ASP D 339      28.270  41.495  81.608  1.00 35.99 LIG-0.65  OA
ENDBRANCH 57 58
ENDBRANCH 56 57
BRANCH 56 61
ATOM     61  N   ASP D 339      26.871  38.315  84.475  1.00 31.22 LIG-0.34  N 
ATOM     62  C   ASP D 338      25.916  38.018  85.355  1.00 32.92 LIG 0.26  C 
ATOM     63 O    ASP D 338      24.775  37.666  85.036  1.00 33.60 LIG-0.27  OA
ATOM     64 H    ASP D 339      27.696  38.413  84.696  1.00 31.22 LIG 0.16  HD
BRANCH 62 65
ATOM     65  CA  ASP D 338      26.324  38.108  86.825  1.00 33.82 LIG 0.41  C 
ATOM     66  N   ASP D 338      25.454  37.234  87.675  1.00 34.02 LIG 0.61  N 
BRANCH 65 67
ATOM     67  CB  ASP D 338      27.803  37.724  86.989  1.00 34.49 LIG 0.16  C 
BRANCH 67 68
ATOM     68  CG  ASP D 338      28.101  36.301  86.533  1.00 35.92 LIG 0.17  C 
ATOM     69 OD2  ASP D 338      29.282  35.903  86.572  1.00 39.23 LIG-0.65  OA
ATOM     70 OD1  ASP D 338      27.161  35.577  86.124  1.00 38.97 LIG-0.65  OA
ENDBRANCH 67 68
ENDBRANCH 65 67
ENDBRANCH 62 65
ENDBRANCH 56 61
ENDBRANCH 53 56
ENDBRANCH 40 52
ENDBRANCH 1 40
TORSDOF 27
ENDMDL
MODEL 9
USER: ADFR SOLUTION from run 77
USER: SCORE 22.419809 LL:  -5.576 LR: -18.098 RR:   0.000 FEB: -10.044
USER: RMSD 3.658157
USER: SEED 76
USER: STATUS no improvement in best in 8 clusters for 5 generations
USER: GENES 29
USER: genes 0 Translation |==|  0.53722 0.49948 0.56214
USER: genes 1 Rotation |==|  0.62351 0.52441 0.63475 0.96475
USER: genes 2 Torsion [C]-N--CA-[CB] |==|  0.53346
USER: genes 3 Torsion [N]-CA--C-[N] |==|  0.33218
USER: genes 4 Torsion [C]-N--CA-[C] |==|  0.83853
USER: genes 5 Torsion [N]-CA--C-[N] |==|  0.93073
USER: genes 6 Torsion [C]-N--CA-[C] |==|  0.61035
USER: genes 7 Torsion [N]-CA--C-[N] |==|  0.37161
USER: genes 8 Torsion [C]-N--CA-[C] |==|  0.57833
USER: genes 9 Torsion [N]-CA--C-[O] |==|  0.95363
USER: genes 10 Torsion [N]-CA--CB-[OG] |==|  0.52276
USER: genes 11 Torsion [CA]-CB--OG-[HG] |==|  0.84192
USER: genes 12 Torsion [N]-CA--CB-[CG] |==|  0.90150
USER: genes 13 Torsion [CA]-CB--CG-[CD2] |==|  0.68447
USER: genes 14 Torsion [N]-CA--CB-[CG] |==|  0.49174
USER: genes 15 Torsion [CA]-CB--CG-[CD2] |==|  0.12999
USER: genes 16 Torsion [N]-CA--CB-[OG1] |==|  0.92726
USER: genes 17 Torsion [CA]-CB--OG1-[HG1] |==|  0.13771
USER: genes 18 Torsion [N]-C--CA-[N] |==|  0.24508
USER: genes 19 Torsion [C]-CA--CB-[CG] |==|  0.26849
USER: genes 20 Torsion [CA]-CB--CG-[CD2] |==|  0.40298
USER: genes 21 Torsion [C]-CA--N-[C] |==|  0.73926
USER: genes 22 Torsion [N]-C--CA-[N] |==|  0.30044
USER: genes 23 Torsion [C]-CA--CB-[CG] |==|  0.62927
USER: genes 24 Torsion [CA]-CB--CG-[OD1] |==|  0.66316
USER: genes 25 Torsion [C]-CA--N-[C] |==|  0.73894
USER: genes 26 Torsion [N]-C--CA-[N] |==|  0.37028
USER: genes 27 Torsion [C]-CA--CB-[CG] |==|  0.72086
USER: genes 28 Torsion [CA]-CB--CG-[OD2] |==|  0.31989
ROOT
ATOM      1  C   TRP D 340      24.053  35.893  81.786  1.00 16.52 LIG 0.24  C 
ATOM      2 O    TRP D 340      23.136  35.840  82.609  1.00 16.60 LIG-0.27  OA
ATOM      3  N   THR D 341      23.875  36.266  80.525  1.00 13.22 LIG-0.34  N 
ATOM      4 H    THR D 341      24.518  36.311  79.956  1.00 13.22 LIG 0.16  HD
ENDROOT
BRANCH 3 5
ATOM      5  CA  THR D 341      22.582  36.637  79.970  1.00 12.53 LIG 0.20  C 
BRANCH 5 6
ATOM      6  C   THR D 341      21.516  35.626  80.393  1.00 12.10 LIG 0.24  C 
ATOM      7 O    THR D 341      21.622  34.435  80.109  1.00 10.92 LIG-0.27  OA
ATOM      8  N   HIS D 342      20.499  36.099  81.101  1.00 12.26 LIG-0.35  N 
ATOM      9 H    HIS D 342      20.417  36.921  81.342  1.00 12.26 LIG 0.16  HD
BRANCH 8 10
ATOM     10  CA  HIS D 342      19.411  35.229  81.535  1.00 12.78 LIG 0.18  C 
BRANCH 10 11
ATOM     11  C   HIS D 342      18.775  34.587  80.320  1.00 14.51 LIG 0.24  C 
ATOM     12  N   LEU D 343      18.896  35.236  79.165  1.00 15.48 LIG-0.35  N 
ATOM     13 H    LEU D 343      19.364  35.951  79.065  1.00 15.48 LIG 0.16  HD
ATOM     14 O    HIS D 342      18.188  33.495  80.425  1.00 16.02 LIG-0.27  OA
BRANCH 12 15
ATOM     15  CA  LEU D 343      18.227  34.777  77.945  1.00 16.72 LIG 0.18  C 
BRANCH 15 16
ATOM     16  C   LEU D 343      19.075  34.914  76.683  1.00 19.19 LIG 0.24  C 
ATOM     17  N   SER D 344      19.107  33.854  75.859  1.00 21.37 LIG-0.34  N 
ATOM     18 H    SER D 344      18.841  33.071  76.094  1.00 21.37 LIG 0.16  HD
ATOM     19 O    LEU D 343      19.674  35.953  76.459  1.00 19.56 LIG-0.27  OA
BRANCH 17 20
ATOM     20  CA  SER D 344      19.600  33.919  74.464  1.00 23.14 LIG 0.19  C 
BRANCH 20 21
ATOM     21  C   SER D 344      18.917  32.860  73.588  1.00 24.18 LIG 0.22  C 
ATOM     22 O    SER D 344      18.313  31.898  74.094  1.00 25.35 LIG-0.29  OA
ENDBRANCH 20 21
BRANCH 20 23
ATOM     23  CB  SER D 344      21.116  33.723  74.393  1.00 23.66 LIG 0.20  C 
BRANCH 23 24
ATOM     24 OG   SER D 344      21.609  33.973  73.076  1.00 25.03 LIG-0.40  OA
ATOM     25 HG   SER D 344      21.215  33.472  72.529  1.00 25.03 LIG 0.21  HD
ENDBRANCH 23 24
ENDBRANCH 20 23
ENDBRANCH 17 20
ENDBRANCH 15 16
BRANCH 15 26
ATOM     26  CB  LEU D 343      16.918  35.554  77.722  1.00 15.83 LIG 0.04  C 
BRANCH 26 27
ATOM     27  CG  LEU D 343      16.134  35.936  78.961  1.00 14.86 LIG-0.02  C 
ATOM     28  CD1 LEU D 343      15.916  37.440  78.995  1.00 12.95 LIG 0.01  C 
ATOM     29  CD2 LEU D 343      14.783  35.175  78.996  1.00 12.95 LIG 0.01  C 
ENDBRANCH 26 27
ENDBRANCH 15 26
ENDBRANCH 12 15
ENDBRANCH 10 11
BRANCH 10 30
ATOM     30  CB  HIS D 342      18.350  36.041  82.295  1.00 12.90 LIG 0.10  C 
BRANCH 30 31
ATOM     31  CG  HIS D 342      17.164  35.237  82.715  1.00 12.99 LIG 0.06  A 
ATOM     32  CD2 HIS D 342      17.094  34.026  83.318  1.00 12.88 LIG 0.14  A 
ATOM     33 NE2  HIS D 342      15.764  33.733  83.483  1.00 14.80 LIG-0.25  NA
ATOM     34  CE1 HIS D 342      15.039  34.720  82.995  1.00 13.21 LIG 0.23  A 
ATOM     35 ND1  HIS D 342      15.860  35.639  82.518  1.00 14.49 LIG-0.24  NA
ENDBRANCH 30 31
ENDBRANCH 10 30
ENDBRANCH 8 10
ENDBRANCH 5 6
BRANCH 5 36
ATOM     36  CB  THR D 341      22.656  36.726  78.428  1.00 12.70 LIG 0.15  C 
ATOM     37  CG2 THR D 341      21.694  37.796  77.877  1.00 14.15 LIG 0.04  C 
BRANCH 36 38
ATOM     38 OG1  THR D 341      24.003  37.026  78.039  1.00 14.08 LIG-0.39  OA
ATOM     39 HG1  THR D 341      24.530  36.501  78.429  1.00 14.08 LIG 0.21  HD
ENDBRANCH 36 38
ENDBRANCH 5 36
ENDBRANCH 3 5
BRANCH 1 40
ATOM     40  CA  TRP D 340      25.467  35.472  82.168  1.00 18.72 LIG 0.18  C 
BRANCH 40 41
ATOM     41  CB  TRP D 340      25.364  34.433  83.284  1.00 19.00 LIG 0.07  C 
BRANCH 41 42
ATOM     42  CG  TRP D 340      25.435  33.017  82.831  1.00 19.22 LIG-0.03  A 
ATOM     43  CD2 TRP D 340      26.038  31.933  83.533  1.00 20.18 LIG-0.00  A 
ATOM     44  CE3 TRP D 340      26.676  31.820  84.774  1.00 18.70 LIG 0.01  A 
ATOM     45  CE2 TRP D 340      25.909  30.785  82.720  1.00 18.84 LIG 0.04  A 
ATOM     46  CZ3 TRP D 340      27.166  30.575  85.162  1.00 20.55 LIG 0.00  A 
ATOM     47  CH2 TRP D 340      27.014  29.451  84.328  1.00 19.52 LIG 0.00  A 
ATOM     48  CZ2 TRP D 340      26.395  29.535  83.108  1.00 19.79 LIG 0.03  A 
ATOM     49  NE1 TRP D 340      25.252  31.158  81.575  1.00 21.77 LIG-0.36  N 
ATOM     50  CD1 TRP D 340      24.986  32.507  81.647  1.00 20.48 LIG 0.10  A 
ATOM     51 HE1  TRP D 340      25.042  30.638  80.923  1.00 21.77 LIG 0.17  HD
ENDBRANCH 41 42
ENDBRANCH 40 41
BRANCH 40 52
ATOM     52  N   TRP D 340      26.276  36.616  82.605  1.00 22.23 LIG-0.35  N 
ATOM     53  C   ASP D 339      27.067  37.297  81.778  1.00 26.49 LIG 0.24  C 
ATOM     54 O    ASP D 339      27.180  37.030  80.569  1.00 27.22 LIG-0.27  OA
ATOM     55 H    TRP D 340      26.192  36.803  83.440  1.00 22.23 LIG 0.16  HD
BRANCH 53 56
ATOM     56  CA  ASP D 339      27.858  38.457  82.393  1.00 29.46 LIG 0.19  C 
BRANCH 56 57
ATOM     57  CB  ASP D 339      27.682  39.708  81.530  1.00 30.27 LIG 0.15  C 
BRANCH 57 58
ATOM     58  CG  ASP D 339      29.001  40.433  81.243  1.00 32.94 LIG 0.17  C 
ATOM     59 OD1  ASP D 339      29.102  41.623  81.608  1.00 36.53 LIG-0.65  OA
ATOM     60 OD2  ASP D 339      29.925  39.827  80.646  1.00 35.99 LIG-0.65  OA
ENDBRANCH 57 58
ENDBRANCH 56 57
BRANCH 56 61
ATOM     61  N   ASP D 339      29.278  38.132  82.493  1.00 31.22 LIG-0.34  N 
ATOM     62  C   ASP D 338      29.841  37.615  83.585  1.00 32.92 LIG 0.26  C 
ATOM     63 O    ASP D 338      29.199  37.163  84.539  1.00 33.60 LIG-0.27  OA
ATOM     64 H    ASP D 339      29.721  38.306  81.777  1.00 31.22 LIG 0.16  HD
BRANCH 62 65
ATOM     65  CA  ASP D 338      31.369  37.581  83.584  1.00 33.82 LIG 0.41  C 
ATOM     66  N   ASP D 338      31.915  38.092  84.883  1.00 34.02 LIG 0.61  N 
BRANCH 65 67
ATOM     67  CB  ASP D 338      31.867  36.153  83.311  1.00 34.49 LIG 0.16  C 
BRANCH 67 68
ATOM     68  CG  ASP D 338      32.296  35.422  84.577  1.00 35.92 LIG 0.17  C 
ATOM     69 OD2  ASP D 338      31.645  34.417  84.927  1.00 39.23 LIG-0.65  OA
ATOM     70 OD1  ASP D 338      33.275  35.850  85.234  1.00 38.97 LIG-0.65  OA
ENDBRANCH 67 68
ENDBRANCH 65 67
ENDBRANCH 62 65
ENDBRANCH 56 61
ENDBRANCH 53 56
ENDBRANCH 40 52
ENDBRANCH 1 40
TORSDOF 27
ENDMDL
MODEL 10
USER: ADFR SOLUTION from run 195
USER: SCORE 21.856799 LL:  -5.133 LR: -18.035 RR:   0.000 FEB:  -9.981
USER: RMSD 3.680400
USER: SEED 194
USER: STATUS no improvement in best in 4 clusters for 5 generations
USER: GENES 29
USER: genes 0 Translation |==|  0.54888 0.53290 0.55740
USER: genes 1 Rotation |==|  0.61766 0.46465 0.64942 0.96106
USER: genes 2 Torsion [C]-N--CA-[CB] |==|  0.48897
USER: genes 3 Torsion [N]-CA--C-[N] |==|  0.46164
USER: genes 4 Torsion [C]-N--CA-[C] |==|  0.66213
USER: genes 5 Torsion [N]-CA--C-[N] |==|  0.45239
USER: genes 6 Torsion [C]-N--CA-[C] |==|  0.63211
USER: genes 7 Torsion [N]-CA--C-[N] |==|  0.45797
USER: genes 8 Torsion [C]-N--CA-[C] |==|  0.17116
USER: genes 9 Torsion [N]-CA--C-[O] |==|  0.15039
USER: genes 10 Torsion [N]-CA--CB-[OG] |==|  0.94324
USER: genes 11 Torsion [CA]-CB--OG-[HG] |==|  0.34429
USER: genes 12 Torsion [N]-CA--CB-[CG] |==|  0.68362
USER: genes 13 Torsion [CA]-CB--CG-[CD2] |==|  0.39545
USER: genes 14 Torsion [N]-CA--CB-[CG] |==|  0.73320
USER: genes 15 Torsion [CA]-CB--CG-[CD2] |==|  0.22266
USER: genes 16 Torsion [N]-CA--CB-[OG1] |==|  0.04517
USER: genes 17 Torsion [CA]-CB--OG1-[HG1] |==|  0.94968
USER: genes 18 Torsion [N]-C--CA-[N] |==|  0.16223
USER: genes 19 Torsion [C]-CA--CB-[CG] |==|  0.33751
USER: genes 20 Torsion [CA]-CB--CG-[CD2] |==|  0.89924
USER: genes 21 Torsion [C]-CA--N-[C] |==|  0.78889
USER: genes 22 Torsion [N]-C--CA-[N] |==|  0.93730
USER: genes 23 Torsion [C]-CA--CB-[CG] |==|  0.18899
USER: genes 24 Torsion [CA]-CB--CG-[OD1] |==|  0.55416
USER: genes 25 Torsion [C]-CA--N-[C] |==|  0.79589
USER: genes 26 Torsion [N]-C--CA-[N] |==|  0.06837
USER: genes 27 Torsion [C]-CA--CB-[CG] |==|  0.81988
USER: genes 28 Torsion [CA]-CB--CG-[OD2] |==|  0.46954
ROOT
ATOM      1  C   TRP D 340      24.377  36.545  81.658  1.00 16.52 LIG 0.24  C 
ATOM      2 O    TRP D 340      23.289  36.456  82.233  1.00 16.60 LIG-0.27  OA
ATOM      3  N   THR D 341      24.504  36.980  80.411  1.00 13.22 LIG-0.34  N 
ATOM      4 H    THR D 341      25.265  37.049  80.016  1.00 13.22 LIG 0.16  HD
ENDROOT
BRANCH 3 5
ATOM      5  CA  THR D 341      23.380  37.384  79.580  1.00 12.53 LIG 0.20  C 
BRANCH 5 6
ATOM      6  C   THR D 341      22.432  36.205  79.364  1.00 12.10 LIG 0.24  C 
ATOM      7 O    THR D 341      22.765  35.059  79.662  1.00 10.92 LIG-0.27  OA
ATOM      8  N   HIS D 342      21.234  36.491  78.871  1.00 12.26 LIG-0.35  N 
ATOM      9 H    HIS D 342      20.964  37.286  78.686  1.00 12.26 LIG 0.16  HD
BRANCH 8 10
ATOM     10  CA  HIS D 342      20.259  35.439  78.599  1.00 12.78 LIG 0.18  C 
BRANCH 10 11
ATOM     11  C   HIS D 342      19.877  35.484  77.135  1.00 14.51 LIG 0.24  C 
ATOM     12  N   LEU D 343      19.283  34.404  76.635  1.00 15.48 LIG-0.35  N 
ATOM     13 H    LEU D 343      19.048  33.725  77.108  1.00 15.48 LIG 0.16  HD
ATOM     14 O    HIS D 342      20.109  36.503  76.459  1.00 16.02 LIG-0.27  OA
BRANCH 12 15
ATOM     15  CA  LEU D 343      18.972  34.281  75.209  1.00 16.72 LIG 0.18  C 
BRANCH 15 16
ATOM     16  C   LEU D 343      17.548  33.808  74.923  1.00 19.19 LIG 0.24  C 
ATOM     17  N   SER D 344      17.099  33.972  73.667  1.00 21.37 LIG-0.34  N 
ATOM     18 H    SER D 344      17.487  34.482  73.094  1.00 21.37 LIG 0.16  HD
ATOM     19 O    LEU D 343      16.882  33.302  75.810  1.00 19.56 LIG-0.27  OA
BRANCH 17 20
ATOM     20  CA  SER D 344      15.894  33.294  73.137  1.00 23.14 LIG 0.19  C 
BRANCH 20 21
ATOM     21  C   SER D 344      14.640  33.704  73.921  1.00 24.18 LIG 0.22  C 
ATOM     22 O    SER D 344      14.334  34.901  74.065  1.00 25.35 LIG-0.29  OA
ENDBRANCH 20 21
BRANCH 20 23
ATOM     23  CB  SER D 344      16.037  31.772  73.185  1.00 23.66 LIG 0.20  C 
BRANCH 23 24
ATOM     24 OG   SER D 344      17.410  31.382  73.272  1.00 25.03 LIG-0.40  OA
ATOM     25 HG   SER D 344      17.521  30.898  73.949  1.00 25.03 LIG 0.21  HD
ENDBRANCH 23 24
ENDBRANCH 20 23
ENDBRANCH 17 20
ENDBRANCH 15 16
BRANCH 15 26
ATOM     26  CB  LEU D 343      19.942  33.301  74.527  1.00 15.83 LIG 0.04  C 
BRANCH 26 27
ATOM     27  CG  LEU D 343      20.887  33.886  73.497  1.00 14.86 LIG-0.02  C 
ATOM     28  CD1 LEU D 343      21.005  35.389  73.696  1.00 12.95 LIG 0.01  C 
ATOM     29  CD2 LEU D 343      22.274  33.199  73.592  1.00 12.95 LIG 0.01  C 
ENDBRANCH 26 27
ENDBRANCH 15 26
ENDBRANCH 12 15
ENDBRANCH 10 11
BRANCH 10 30
ATOM     30  CB  HIS D 342      19.002  35.645  79.459  1.00 12.90 LIG 0.10  C 
BRANCH 30 31
ATOM     31  CG  HIS D 342      18.999  34.846  80.721  1.00 12.99 LIG 0.06  A 
ATOM     32  CD2 HIS D 342      19.614  35.075  81.907  1.00 12.88 LIG 0.14  A 
ATOM     33 NE2  HIS D 342      19.292  34.032  82.738  1.00 14.80 LIG-0.25  NA
ATOM     34  CE1 HIS D 342      18.514  33.187  82.090  1.00 13.21 LIG 0.23  A 
ATOM     35 ND1  HIS D 342      18.327  33.651  80.867  1.00 14.49 LIG-0.24  NA
ENDBRANCH 30 31
ENDBRANCH 10 30
ENDBRANCH 8 10
ENDBRANCH 5 6
BRANCH 5 36
ATOM     36  CB  THR D 341      23.876  37.931  78.221  1.00 12.70 LIG 0.15  C 
ATOM     37  CG2 THR D 341      23.754  39.465  78.151  1.00 14.15 LIG 0.04  C 
BRANCH 36 38
ATOM     38 OG1  THR D 341      25.240  37.535  78.025  1.00 14.08 LIG-0.39  OA
ATOM     39 HG1  THR D 341      25.574  37.310  78.761  1.00 14.08 LIG 0.21  HD
ENDBRANCH 36 38
ENDBRANCH 5 36
ENDBRANCH 3 5
BRANCH 1 40
ATOM     40  CA  TRP D 340      25.660  36.098  82.348  1.00 18.72 LIG 0.18  C 
BRANCH 40 41
ATOM     41  CB  TRP D 340      25.300  35.636  83.759  1.00 19.00 LIG 0.07  C 
BRANCH 41 42
ATOM     42  CG  TRP D 340      25.670  34.228  84.071  1.00 19.22 LIG-0.03  A 
ATOM     43  CD2 TRP D 340      25.619  33.122  83.172  1.00 20.18 LIG-0.00  A 
ATOM     44  CE3 TRP D 340      25.277  32.987  81.822  1.00 18.70 LIG 0.01  A 
ATOM     45  CE2 TRP D 340      26.017  31.976  83.897  1.00 18.84 LIG 0.04  A 
ATOM     46  CZ3 TRP D 340      25.337  31.722  81.240  1.00 20.55 LIG 0.00  A 
ATOM     47  CH2 TRP D 340      25.744  30.605  81.992  1.00 19.52 LIG 0.00  A 
ATOM     48  CZ2 TRP D 340      26.082  30.708  83.316  1.00 19.79 LIG 0.03  A 
ATOM     49  NE1 TRP D 340      26.299  32.373  85.180  1.00 21.77 LIG-0.36  N 
ATOM     50  CD1 TRP D 340      26.071  33.728  85.275  1.00 20.48 LIG 0.10  A 
ATOM     51 HE1  TRP D 340      26.572  31.862  85.816  1.00 21.77 LIG 0.17  HD
ENDBRANCH 41 42
ENDBRANCH 40 41
BRANCH 40 52
ATOM     52  N   TRP D 340      26.654  37.176  82.399  1.00 22.23 LIG-0.35  N 
ATOM     53  C   ASP D 339      27.372  37.546  81.340  1.00 26.49 LIG 0.24  C 
ATOM     54 O    ASP D 339      27.256  37.019  80.220  1.00 27.22 LIG-0.27  OA
ATOM     55 H    TRP D 340      26.729  37.544  83.173  1.00 22.23 LIG 0.16  HD
BRANCH 53 56
ATOM     56  CA  ASP D 339      28.380  38.679  81.562  1.00 29.46 LIG 0.19  C 
BRANCH 56 57
ATOM     57  CB  ASP D 339      29.774  38.085  81.777  1.00 30.27 LIG 0.15  C 
BRANCH 57 58
ATOM     58  CG  ASP D 339      30.346  37.422  80.520  1.00 32.94 LIG 0.17  C 
ATOM     59 OD1  ASP D 339      31.277  36.602  80.666  1.00 36.53 LIG-0.65  OA
ATOM     60 OD2  ASP D 339      29.882  37.726  79.392  1.00 35.99 LIG-0.65  OA
ENDBRANCH 57 58
ENDBRANCH 56 57
BRANCH 56 61
ATOM     61  N   ASP D 339      28.014  39.491  82.720  1.00 31.22 LIG-0.34  N 
ATOM     62  C   ASP D 338      27.000  40.354  82.723  1.00 32.92 LIG 0.26  C 
ATOM     63 O    ASP D 338      26.140  40.407  81.837  1.00 33.60 LIG-0.27  OA
ATOM     64 H    ASP D 339      28.518  39.358  83.404  1.00 31.22 LIG 0.16  HD
BRANCH 62 65
ATOM     65  CA  ASP D 338      26.933  41.286  83.933  1.00 33.82 LIG 0.41  C 
ATOM     66  N   ASP D 338      28.287  41.457  84.552  1.00 34.02 LIG 0.61  N 
BRANCH 65 67
ATOM     67  CB  ASP D 338      26.349  42.647  83.523  1.00 34.49 LIG 0.16  C 
BRANCH 67 68
ATOM     68  CG  ASP D 338      27.237  43.402  82.542  1.00 35.92 LIG 0.17  C 
ATOM     69 OD2  ASP D 338      26.772  44.415  81.983  1.00 39.23 LIG-0.65  OA
ATOM     70 OD1  ASP D 338      28.399  42.984  82.316  1.00 38.97 LIG-0.65  OA
ENDBRANCH 67 68
ENDBRANCH 65 67
ENDBRANCH 62 65
ENDBRANCH 56 61
ENDBRANCH 53 56
ENDBRANCH 40 52
ENDBRANCH 1 40
TORSDOF 27
ENDMDL
MODEL 11
USER: ADFR SOLUTION from run 133
USER: SCORE 21.200801 LL:  -4.709 LR: -18.032 RR:   0.000 FEB:  -9.978
USER: RMSD 2.963209
USER: SEED 132
USER: STATUS no improvement in best in 4 clusters for 5 generations
USER: GENES 29
USER: genes 0 Translation |==|  0.51516 0.50481 0.53032
USER: genes 1 Rotation |==|  0.69659 0.36104 0.78022 0.83693
USER: genes 2 Torsion [C]-N--CA-[CB] |==|  0.60320
USER: genes 3 Torsion [N]-CA--C-[N] |==|  0.33356
USER: genes 4 Torsion [C]-N--CA-[C] |==|  0.74601
USER: genes 5 Torsion [N]-CA--C-[N] |==|  0.27126
USER: genes 6 Torsion [C]-N--CA-[C] |==|  0.16702
USER: genes 7 Torsion [N]-CA--C-[N] |==|  0.63000
USER: genes 8 Torsion [C]-N--CA-[C] |==|  0.61369
USER: genes 9 Torsion [N]-CA--C-[O] |==|  0.08408
USER: genes 10 Torsion [N]-CA--CB-[OG] |==|  0.25564
USER: genes 11 Torsion [CA]-CB--OG-[HG] |==|  0.55091
USER: genes 12 Torsion [N]-CA--CB-[CG] |==|  0.81055
USER: genes 13 Torsion [CA]-CB--CG-[CD2] |==|  0.81001
USER: genes 14 Torsion [N]-CA--CB-[CG] |==|  0.80567
USER: genes 15 Torsion [CA]-CB--CG-[CD2] |==|  0.15610
USER: genes 16 Torsion [N]-CA--CB-[OG1] |==|  0.03164
USER: genes 17 Torsion [CA]-CB--OG1-[HG1] |==|  0.16306
USER: genes 18 Torsion [N]-C--CA-[N] |==|  0.08241
USER: genes 19 Torsion [C]-CA--CB-[CG] |==|  0.37395
USER: genes 20 Torsion [CA]-CB--CG-[CD2] |==|  0.84219
USER: genes 21 Torsion [C]-CA--N-[C] |==|  0.68625
USER: genes 22 Torsion [N]-C--CA-[N] |==|  0.25259
USER: genes 23 Torsion [C]-CA--CB-[CG] |==|  0.42588
USER: genes 24 Torsion [CA]-CB--CG-[OD1] |==|  0.50057
USER: genes 25 Torsion [C]-CA--N-[C] |==|  0.76101
USER: genes 26 Torsion [N]-C--CA-[N] |==|  0.36575
USER: genes 27 Torsion [C]-CA--CB-[CG] |==|  0.16068
USER: genes 28 Torsion [CA]-CB--CG-[OD2] |==|  0.74759
ROOT
ATOM      1  C   TRP D 340      23.441  35.997  80.927  1.00 16.52 LIG 0.24  C 
ATOM      2 O    TRP D 340      22.531  35.181  80.760  1.00 16.60 LIG-0.27  OA
ATOM      3  N   THR D 341      23.600  37.071  80.165  1.00 13.22 LIG-0.34  N 
ATOM      4 H    THR D 341      24.230  37.644  80.290  1.00 13.22 LIG 0.16  HD
ENDROOT
BRANCH 3 5
ATOM      5  CA  THR D 341      22.734  37.399  79.043  1.00 12.53 LIG 0.20  C 
BRANCH 5 6
ATOM      6  C   THR D 341      21.995  36.150  78.565  1.00 12.10 LIG 0.24  C 
ATOM      7 O    THR D 341      22.609  35.154  78.186  1.00 10.92 LIG-0.27  OA
ATOM      8  N   HIS D 342      20.669  36.192  78.610  1.00 12.26 LIG-0.35  N 
ATOM      9 H    HIS D 342      20.216  36.862  78.902  1.00 12.26 LIG 0.16  HD
BRANCH 8 10
ATOM     10  CA  HIS D 342      19.862  35.065  78.153  1.00 12.78 LIG 0.18  C 
BRANCH 10 11
ATOM     11  C   HIS D 342      19.530  35.256  76.688  1.00 14.51 LIG 0.24  C 
ATOM     12  N   LEU D 343      20.296  34.615  75.810  1.00 15.48 LIG-0.35  N 
ATOM     13 H    LEU D 343      20.912  34.057  76.031  1.00 15.48 LIG 0.16  HD
ATOM     14 O    HIS D 342      18.570  35.973  76.353  1.00 16.02 LIG-0.27  OA
BRANCH 12 15
ATOM     15  CA  LEU D 343      20.149  34.810  74.366  1.00 16.72 LIG 0.18  C 
BRANCH 15 16
ATOM     16  C   LEU D 343      20.375  36.249  73.908  1.00 19.19 LIG 0.24  C 
ATOM     17  N   SER D 344      19.468  36.762  73.060  1.00 21.37 LIG-0.34  N 
ATOM     18 H    SER D 344      18.901  36.278  72.632  1.00 21.37 LIG 0.16  HD
ATOM     19 O    LEU D 343      21.336  36.878  74.320  1.00 19.56 LIG-0.27  OA
BRANCH 17 20
ATOM     20  CA  SER D 344      19.347  38.210  72.772  1.00 23.14 LIG 0.19  C 
BRANCH 20 21
ATOM     21  C   SER D 344      17.875  38.635  72.691  1.00 24.18 LIG 0.22  C 
ATOM     22 O    SER D 344      17.000  38.053  73.356  1.00 25.35 LIG-0.29  OA
ENDBRANCH 20 21
BRANCH 20 23
ATOM     23  CB  SER D 344      20.047  38.584  71.463  1.00 23.66 LIG 0.20  C 
BRANCH 23 24
ATOM     24 OG   SER D 344      19.144  38.528  70.358  1.00 25.03 LIG-0.40  OA
ATOM     25 HG   SER D 344      19.580  38.487  69.641  1.00 25.03 LIG 0.21  HD
ENDBRANCH 23 24
ENDBRANCH 20 23
ENDBRANCH 17 20
ENDBRANCH 15 16
BRANCH 15 26
ATOM     26  CB  LEU D 343      18.746  34.381  73.902  1.00 15.83 LIG 0.04  C 
BRANCH 26 27
ATOM     27  CG  LEU D 343      18.433  32.899  73.969  1.00 14.86 LIG-0.02  C 
ATOM     28  CD1 LEU D 343      16.945  32.673  73.747  1.00 12.95 LIG 0.01  C 
ATOM     29  CD2 LEU D 343      19.277  32.126  72.924  1.00 12.95 LIG 0.01  C 
ENDBRANCH 26 27
ENDBRANCH 15 26
ENDBRANCH 12 15
ENDBRANCH 10 11
BRANCH 10 30
ATOM     30  CB  HIS D 342      18.559  34.982  78.964  1.00 12.90 LIG 0.10  C 
BRANCH 30 31
ATOM     31  CG  HIS D 342      18.759  34.562  80.383  1.00 12.99 LIG 0.06  A 
ATOM     32  CD2 HIS D 342      19.534  35.100  81.356  1.00 12.88 LIG 0.14  A 
ATOM     33 NE2  HIS D 342      19.362  34.333  82.480  1.00 14.80 LIG-0.25  NA
ATOM     34  CE1 HIS D 342      18.520  33.354  82.212  1.00 13.21 LIG 0.23  A 
ATOM     35 ND1  HIS D 342      18.146  33.465  80.950  1.00 14.49 LIG-0.24  NA
ENDBRANCH 30 31
ENDBRANCH 10 30
ENDBRANCH 8 10
ENDBRANCH 5 6
BRANCH 5 36
ATOM     36  CB  THR D 341      23.552  38.016  77.884  1.00 12.70 LIG 0.15  C 
ATOM     37  CG2 THR D 341      23.233  39.511  77.700  1.00 14.15 LIG 0.04  C 
BRANCH 36 38
ATOM     38 OG1  THR D 341      24.950  37.839  78.151  1.00 14.08 LIG-0.39  OA
ATOM     39 HG1  THR D 341      25.118  37.020  78.231  1.00 14.08 LIG 0.21  HD
ENDBRANCH 36 38
ENDBRANCH 5 36
ENDBRANCH 3 5
BRANCH 1 40
ATOM     40  CA  TRP D 340      24.489  35.781  82.012  1.00 18.72 LIG 0.18  C 
BRANCH 40 41
ATOM     41  CB  TRP D 340      23.828  35.024  83.163  1.00 19.00 LIG 0.07  C 
BRANCH 41 42
ATOM     42  CG  TRP D 340      24.624  33.891  83.707  1.00 19.22 LIG-0.03  A 
ATOM     43  CD2 TRP D 340      25.117  32.773  82.971  1.00 20.18 LIG-0.00  A 
ATOM     44  CE3 TRP D 340      25.063  32.403  81.622  1.00 18.70 LIG 0.01  A 
ATOM     45  CE2 TRP D 340      25.780  31.928  83.889  1.00 18.84 LIG 0.04  A 
ATOM     46  CZ3 TRP D 340      25.664  31.208  81.233  1.00 20.55 LIG 0.00  A 
ATOM     47  CH2 TRP D 340      26.322  30.395  82.174  1.00 19.52 LIG 0.00  A 
ATOM     48  CZ2 TRP D 340      26.387  30.732  83.501  1.00 19.79 LIG 0.03  A 
ATOM     49  NE1 TRP D 340      25.695  32.511  85.127  1.00 21.77 LIG-0.36  N 
ATOM     50  CD1 TRP D 340      24.984  33.685  85.007  1.00 20.48 LIG 0.10  A 
ATOM     51 HE1  TRP D 340      26.029  32.198  85.855  1.00 21.77 LIG 0.17  HD
ENDBRANCH 41 42
ENDBRANCH 40 41
BRANCH 40 52
ATOM     52  N   TRP D 340      25.048  37.051  82.488  1.00 22.23 LIG-0.35  N 
ATOM     53  C   ASP D 339      26.316  37.404  82.280  1.00 26.49 LIG 0.24  C 
ATOM     54 O    ASP D 339      27.128  36.695  81.660  1.00 27.22 LIG-0.27  OA
ATOM     55 H    TRP D 340      24.485  37.543  82.911  1.00 22.23 LIG 0.16  HD
BRANCH 53 56
ATOM     56  CA  ASP D 339      26.750  38.757  82.855  1.00 29.46 LIG 0.19  C 
BRANCH 56 57
ATOM     57  CB  ASP D 339      27.821  39.374  81.952  1.00 30.27 LIG 0.15  C 
BRANCH 57 58
ATOM     58  CG  ASP D 339      27.858  40.904  82.022  1.00 32.94 LIG 0.17  C 
ATOM     59 OD1  ASP D 339      28.699  41.499  81.314  1.00 36.53 LIG-0.65  OA
ATOM     60 OD2  ASP D 339      27.066  41.511  82.786  1.00 35.99 LIG-0.65  OA
ENDBRANCH 57 58
ENDBRANCH 56 57
BRANCH 56 61
ATOM     61  N   ASP D 339      27.280  38.610  84.207  1.00 31.22 LIG-0.34  N 
ATOM     62  C   ASP D 338      26.520  38.610  85.301  1.00 32.92 LIG 0.26  C 
ATOM     63 O    ASP D 338      25.287  38.519  85.280  1.00 33.60 LIG-0.27  OA
ATOM     64 H    ASP D 339      28.135  38.523  84.232  1.00 31.22 LIG 0.16  HD
BRANCH 62 65
ATOM     65  CA  ASP D 338      27.275  38.698  86.627  1.00 33.82 LIG 0.41  C 
ATOM     66  N   ASP D 338      26.675  39.746  87.514  1.00 34.02 LIG 0.61  N 
BRANCH 65 67
ATOM     67  CB  ASP D 338      27.276  37.330  87.329  1.00 34.49 LIG 0.16  C 
BRANCH 67 68
ATOM     68  CG  ASP D 338      27.894  36.227  86.478  1.00 35.92 LIG 0.17  C 
ATOM     69 OD2  ASP D 338      27.145  35.568  85.731  1.00 39.23 LIG-0.65  OA
ATOM     70 OD1  ASP D 338      29.127  36.006  86.559  1.00 38.97 LIG-0.65  OA
ENDBRANCH 67 68
ENDBRANCH 65 67
ENDBRANCH 62 65
ENDBRANCH 56 61
ENDBRANCH 53 56
ENDBRANCH 40 52
ENDBRANCH 1 40
TORSDOF 27
ENDMDL
MODEL 12
USER: ADFR SOLUTION from run 32
USER: SCORE 21.163115 LL:  -5.569 LR: -18.012 RR:   0.000 FEB:  -9.958
USER: RMSD 12.433451
USER: SEED 31
USER: STATUS no improvement in best in 8 clusters for 5 generations
USER: GENES 29
USER: genes 0 Translation |==|  0.43238 0.45881 0.44580
USER: genes 1 Rotation |==|  0.33568 0.04799 0.61045 0.58054
USER: genes 2 Torsion [C]-N--CA-[CB] |==|  0.29926
USER: genes 3 Torsion [N]-CA--C-[N] |==|  0.35172
USER: genes 4 Torsion [C]-N--CA-[C] |==|  0.82778
USER: genes 5 Torsion [N]-CA--C-[N] |==|  0.35817
USER: genes 6 Torsion [C]-N--CA-[C] |==|  0.10173
USER: genes 7 Torsion [N]-CA--C-[N] |==|  0.65383
USER: genes 8 Torsion [C]-N--CA-[C] |==|  0.86535
USER: genes 9 Torsion [N]-CA--C-[O] |==|  0.86154
USER: genes 10 Torsion [N]-CA--CB-[OG] |==|  0.07559
USER: genes 11 Torsion [CA]-CB--OG-[HG] |==|  0.10105
USER: genes 12 Torsion [N]-CA--CB-[CG] |==|  0.79455
USER: genes 13 Torsion [CA]-CB--CG-[CD2] |==|  0.81114
USER: genes 14 Torsion [N]-CA--CB-[CG] |==|  0.46438
USER: genes 15 Torsion [CA]-CB--CG-[CD2] |==|  0.27100
USER: genes 16 Torsion [N]-CA--CB-[OG1] |==|  0.70052
USER: genes 17 Torsion [CA]-CB--OG1-[HG1] |==|  0.82757
USER: genes 18 Torsion [N]-C--CA-[N] |==|  0.05856
USER: genes 19 Torsion [C]-CA--CB-[CG] |==|  0.27520
USER: genes 20 Torsion [CA]-CB--CG-[CD2] |==|  0.71355
USER: genes 21 Torsion [C]-CA--N-[C] |==|  0.69043
USER: genes 22 Torsion [N]-C--CA-[N] |==|  0.28993
USER: genes 23 Torsion [C]-CA--CB-[CG] |==|  0.80201
USER: genes 24 Torsion [CA]-CB--CG-[OD1] |==|  0.80374
USER: genes 25 Torsion [C]-CA--N-[C] |==|  0.76630
USER: genes 26 Torsion [N]-C--CA-[N] |==|  0.53634
USER: genes 27 Torsion [C]-CA--CB-[CG] |==|  0.82626
USER: genes 28 Torsion [CA]-CB--CG-[OD2] |==|  0.93734
ROOT
ATOM      1  C   TRP D 340      21.144  35.100  78.645  1.00 16.52 LIG 0.24  C 
ATOM      2 O    TRP D 340      21.892  34.976  77.672  1.00 16.60 LIG-0.27  OA
ATOM      3  N   THR D 341      21.585  35.302  79.879  1.00 13.22 LIG-0.34  N 
ATOM      4 H    THR D 341      21.061  35.397  80.554  1.00 13.22 LIG 0.16  HD
ENDROOT
BRANCH 3 5
ATOM      5  CA  THR D 341      22.997  35.383  80.226  1.00 12.53 LIG 0.20  C 
BRANCH 5 6
ATOM      6  C   THR D 341      23.304  34.461  81.405  1.00 12.10 LIG 0.24  C 
ATOM      7 O    THR D 341      22.645  34.513  82.441  1.00 10.92 LIG-0.27  OA
ATOM      8  N   HIS D 342      24.293  33.592  81.235  1.00 12.26 LIG-0.35  N 
ATOM      9 H    HIS D 342      24.748  33.512  80.509  1.00 12.26 LIG 0.16  HD
BRANCH 8 10
ATOM     10  CA  HIS D 342      24.691  32.682  82.304  1.00 12.78 LIG 0.18  C 
BRANCH 10 11
ATOM     11  C   HIS D 342      25.177  33.491  83.488  1.00 14.51 LIG 0.24  C 
ATOM     12  N   LEU D 343      24.643  33.203  84.672  1.00 15.48 LIG-0.35  N 
ATOM     13 H    LEU D 343      24.100  32.551  84.806  1.00 15.48 LIG 0.16  HD
ATOM     14 O    HIS D 342      26.047  34.366  83.332  1.00 16.02 LIG-0.27  OA
BRANCH 12 15
ATOM     15  CA  LEU D 343      24.945  33.991  85.870  1.00 16.72 LIG 0.18  C 
BRANCH 15 16
ATOM     16  C   LEU D 343      25.104  35.487  85.605  1.00 19.19 LIG 0.24  C 
ATOM     17  N   SER D 344      26.255  36.051  86.006  1.00 21.37 LIG-0.34  N 
ATOM     18 H    SER D 344      26.799  35.670  86.551  1.00 21.37 LIG 0.16  HD
ATOM     19 O    LEU D 343      24.213  36.106  85.047  1.00 19.56 LIG-0.27  OA
BRANCH 17 20
ATOM     20  CA  SER D 344      26.709  37.386  85.553  1.00 23.14 LIG 0.19  C 
BRANCH 20 21
ATOM     21  C   SER D 344      26.607  37.516  84.027  1.00 24.18 LIG 0.22  C 
ATOM     22 O    SER D 344      27.079  36.645  83.274  1.00 25.35 LIG-0.29  OA
ENDBRANCH 20 21
BRANCH 20 23
ATOM     23  CB  SER D 344      28.152  37.665  85.981  1.00 23.66 LIG 0.20  C 
BRANCH 23 24
ATOM     24 OG   SER D 344      28.893  36.452  86.127  1.00 25.03 LIG-0.40  OA
ATOM     25 HG   SER D 344      28.651  35.903  85.539  1.00 25.03 LIG 0.21  HD
ENDBRANCH 23 24
ENDBRANCH 20 23
ENDBRANCH 17 20
ENDBRANCH 15 16
BRANCH 15 26
ATOM     26  CB  LEU D 343      26.238  33.489  86.536  1.00 15.83 LIG 0.04  C 
BRANCH 26 27
ATOM     27  CG  LEU D 343      26.150  32.175  87.286  1.00 14.86 LIG-0.02  C 
ATOM     28  CD1 LEU D 343      27.544  31.690  87.650  1.00 12.95 LIG 0.01  C 
ATOM     29  CD2 LEU D 343      25.268  32.339  88.550  1.00 12.95 LIG 0.01  C 
ENDBRANCH 26 27
ENDBRANCH 15 26
ENDBRANCH 12 15
ENDBRANCH 10 11
BRANCH 10 30
ATOM     30  CB  HIS D 342      25.818  31.756  81.822  1.00 12.90 LIG 0.10  C 
BRANCH 30 31
ATOM     31  CG  HIS D 342      26.492  31.005  82.924  1.00 12.99 LIG 0.06  A 
ATOM     32  CD2 HIS D 342      26.296  29.741  83.371  1.00 12.88 LIG 0.14  A 
ATOM     33 NE2  HIS D 342      27.172  29.539  84.408  1.00 14.80 LIG-0.25  NA
ATOM     34  CE1 HIS D 342      27.877  30.636  84.599  1.00 13.21 LIG 0.23  A 
ATOM     35 ND1  HIS D 342      27.482  31.540  83.720  1.00 14.49 LIG-0.24  NA
ENDBRANCH 30 31
ENDBRANCH 10 30
ENDBRANCH 8 10
ENDBRANCH 5 6
BRANCH 5 36
ATOM     36  CB  THR D 341      23.391  36.840  80.566  1.00 12.70 LIG 0.15  C 
ATOM     37  CG2 THR D 341      24.159  36.921  81.898  1.00 14.15 LIG 0.04  C 
BRANCH 36 38
ATOM     38 OG1  THR D 341      24.193  37.369  79.501  1.00 14.08 LIG-0.39  OA
ATOM     39 HG1  THR D 341      24.898  36.919  79.432  1.00 14.08 LIG 0.21  HD
ENDBRANCH 36 38
ENDBRANCH 5 36
ENDBRANCH 3 5
BRANCH 1 40
ATOM     40  CA  TRP D 340      19.633  34.972  78.484  1.00 18.72 LIG 0.18  C 
BRANCH 40 41
ATOM     41  CB  TRP D 340      19.238  35.652  77.175  1.00 19.00 LIG 0.07  C 
BRANCH 41 42
ATOM     42  CG  TRP D 340      19.039  34.729  76.024  1.00 19.22 LIG-0.03  A 
ATOM     43  CD2 TRP D 340      19.947  34.513  74.947  1.00 20.18 LIG-0.00  A 
ATOM     44  CE3 TRP D 340      21.219  35.009  74.639  1.00 18.70 LIG 0.01  A 
ATOM     45  CE2 TRP D 340      19.337  33.591  74.065  1.00 18.84 LIG 0.04  A 
ATOM     46  CZ3 TRP D 340      21.839  34.576  73.469  1.00 20.55 LIG 0.00  A 
ATOM     47  CH2 TRP D 340      21.205  33.652  72.618  1.00 19.52 LIG 0.00  A 
ATOM     48  CZ2 TRP D 340      19.958  33.153  72.895  1.00 19.79 LIG 0.03  A 
ATOM     49  NE1 TRP D 340      18.114  33.261  74.590  1.00 21.77 LIG-0.36  N 
ATOM     50  CD1 TRP D 340      17.939  33.965  75.761  1.00 20.48 LIG 0.10  A 
ATOM     51 HE1  TRP D 340      17.551  32.709  74.246  1.00 21.77 LIG 0.17  HD
ENDBRANCH 41 42
ENDBRANCH 40 41
BRANCH 40 52
ATOM     52  N   TRP D 340      18.913  35.573  79.613  1.00 22.23 LIG-0.35  N 
ATOM     53  C   ASP D 339      18.227  34.852  80.498  1.00 26.49 LIG 0.24  C 
ATOM     54 O    ASP D 339      18.145  33.612  80.449  1.00 27.22 LIG-0.27  OA
ATOM     55 H    TRP D 340      18.976  36.430  79.649  1.00 22.23 LIG 0.16  HD
BRANCH 53 56
ATOM     56  CA  ASP D 339      17.518  35.633  81.610  1.00 29.46 LIG 0.19  C 
BRANCH 56 57
ATOM     57  CB  ASP D 339      17.770  34.946  82.954  1.00 30.27 LIG 0.15  C 
BRANCH 57 58
ATOM     58  CG  ASP D 339      17.025  33.616  83.101  1.00 32.94 LIG 0.17  C 
ATOM     59 OD1  ASP D 339      15.783  33.657  83.232  1.00 36.53 LIG-0.65  OA
ATOM     60 OD2  ASP D 339      17.670  32.539  83.101  1.00 35.99 LIG-0.65  OA
ENDBRANCH 57 58
ENDBRANCH 56 57
BRANCH 56 61
ATOM     61  N   ASP D 339      16.080  35.710  81.366  1.00 31.22 LIG-0.34  N 
ATOM     62  C   ASP D 338      15.514  36.625  80.582  1.00 32.92 LIG 0.26  C 
ATOM     63 O    ASP D 338      16.148  37.363  79.820  1.00 33.60 LIG-0.27  OA
ATOM     64 H    ASP D 339      15.630  35.104  81.779  1.00 31.22 LIG 0.16  HD
BRANCH 62 65
ATOM     65  CA  ASP D 338      13.988  36.700  80.653  1.00 33.82 LIG 0.41  C 
ATOM     66  N   ASP D 338      13.441  37.520  79.525  1.00 34.02 LIG 0.61  N 
BRANCH 65 67
ATOM     67  CB  ASP D 338      13.387  35.285  80.636  1.00 34.49 LIG 0.16  C 
BRANCH 67 68
ATOM     68  CG  ASP D 338      13.695  34.525  79.351  1.00 35.92 LIG 0.17  C 
ATOM     69 OD2  ASP D 338      13.978  35.183  78.330  1.00 39.23 LIG-0.65  OA
ATOM     70 OD1  ASP D 338      13.644  33.272  79.350  1.00 38.97 LIG-0.65  OA
ENDBRANCH 67 68
ENDBRANCH 65 67
ENDBRANCH 62 65
ENDBRANCH 56 61
ENDBRANCH 53 56
ENDBRANCH 40 52
ENDBRANCH 1 40
TORSDOF 27
ENDMDL
MODEL 13
USER: ADFR SOLUTION from run 29
USER: SCORE 22.155480 LL:  -5.519 LR: -17.959 RR:   0.000 FEB:  -9.905
USER: RMSD 3.628451
USER: SEED 28
USER: STATUS no improvement in best in 4 clusters for 5 generations
USER: GENES 29
USER: genes 0 Translation |==|  0.53915 0.49574 0.56008
USER: genes 1 Rotation |==|  0.67808 0.48471 0.66668 0.93620
USER: genes 2 Torsion [C]-N--CA-[CB] |==|  0.52307
USER: genes 3 Torsion [N]-CA--C-[N] |==|  0.28420
USER: genes 4 Torsion [C]-N--CA-[C] |==|  0.78219
USER: genes 5 Torsion [N]-CA--C-[N] |==|  0.23885
USER: genes 6 Torsion [C]-N--CA-[C] |==|  0.80848
USER: genes 7 Torsion [N]-CA--C-[N] |==|  0.39838
USER: genes 8 Torsion [C]-N--CA-[C] |==|  0.14310
USER: genes 9 Torsion [N]-CA--C-[O] |==|  0.13300
USER: genes 10 Torsion [N]-CA--CB-[OG] |==|  0.80019
USER: genes 11 Torsion [CA]-CB--OG-[HG] |==|  0.71641
USER: genes 12 Torsion [N]-CA--CB-[CG] |==|  0.89831
USER: genes 13 Torsion [CA]-CB--CG-[CD2] |==|  0.77650
USER: genes 14 Torsion [N]-CA--CB-[CG] |==|  0.95903
USER: genes 15 Torsion [CA]-CB--CG-[CD2] |==|  0.72627
USER: genes 16 Torsion [N]-CA--CB-[OG1] |==|  0.01664
USER: genes 17 Torsion [CA]-CB--OG1-[HG1] |==|  0.11213
USER: genes 18 Torsion [N]-C--CA-[N] |==|  0.19607
USER: genes 19 Torsion [C]-CA--CB-[CG] |==|  0.26261
USER: genes 20 Torsion [CA]-CB--CG-[CD2] |==|  0.40132
USER: genes 21 Torsion [C]-CA--N-[C] |==|  0.76476
USER: genes 22 Torsion [N]-C--CA-[N] |==|  0.36967
USER: genes 23 Torsion [C]-CA--CB-[CG] |==|  0.53208
USER: genes 24 Torsion [CA]-CB--CG-[OD1] |==|  0.76733
USER: genes 25 Torsion [C]-CA--N-[C] |==|  0.75711
USER: genes 26 Torsion [N]-C--CA-[N] |==|  0.63595
USER: genes 27 Torsion [C]-CA--CB-[CG] |==|  0.78390
USER: genes 28 Torsion [CA]-CB--CG-[OD2] |==|  0.63930
ROOT
ATOM      1  C   TRP D 340      24.106  35.820  81.730  1.00 16.52 LIG 0.24  C 
ATOM      2 O    TRP D 340      23.125  35.461  82.385  1.00 16.60 LIG-0.27  OA
ATOM      3  N   THR D 341      24.013  36.517  80.606  1.00 13.22 LIG-0.34  N 
ATOM      4 H    THR D 341      24.700  36.774  80.156  1.00 13.22 LIG 0.16  HD
ENDROOT
BRANCH 3 5
ATOM      5  CA  THR D 341      22.747  36.922  80.012  1.00 12.53 LIG 0.20  C 
BRANCH 5 6
ATOM      6  C   THR D 341      21.801  35.727  79.922  1.00 12.10 LIG 0.24  C 
ATOM      7 O    THR D 341      21.947  34.863  79.058  1.00 10.92 LIG-0.27  OA
ATOM      8  N   HIS D 342      20.841  35.660  80.836  1.00 12.26 LIG-0.35  N 
ATOM      9 H    HIS D 342      20.737  36.231  81.471  1.00 12.26 LIG 0.16  HD
BRANCH 8 10
ATOM     10  CA  HIS D 342      19.864  34.575  80.829  1.00 12.78 LIG 0.18  C 
BRANCH 10 11
ATOM     11  C   HIS D 342      18.820  34.857  79.769  1.00 14.51 LIG 0.24  C 
ATOM     12  N   LEU D 343      19.097  34.457  78.531  1.00 15.48 LIG-0.35  N 
ATOM     13 H    LEU D 343      19.793  33.997  78.322  1.00 15.48 LIG 0.16  HD
ATOM     14 O    HIS D 342      17.756  35.424  80.076  1.00 16.02 LIG-0.27  OA
BRANCH 12 15
ATOM     15  CA  LEU D 343      18.221  34.774  77.401  1.00 16.72 LIG 0.18  C 
BRANCH 15 16
ATOM     16  C   LEU D 343      16.876  34.053  77.437  1.00 19.19 LIG 0.24  C 
ATOM     17  N   SER D 344      15.810  34.743  76.997  1.00 21.37 LIG-0.34  N 
ATOM     18 H    SER D 344      15.817  35.595  76.884  1.00 21.37 LIG 0.16  HD
ATOM     19 O    LEU D 343      16.809  32.904  77.841  1.00 19.56 LIG-0.27  OA
BRANCH 17 20
ATOM     20  CA  SER D 344      14.512  34.112  76.660  1.00 23.14 LIG 0.19  C 
BRANCH 20 21
ATOM     21  C   SER D 344      14.017  33.222  77.808  1.00 24.18 LIG 0.22  C 
ATOM     22 O    SER D 344      14.010  33.631  78.983  1.00 25.35 LIG-0.29  OA
ENDBRANCH 20 21
BRANCH 20 23
ATOM     23  CB  SER D 344      14.608  33.274  75.384  1.00 23.66 LIG 0.20  C 
BRANCH 23 24
ATOM     24 OG   SER D 344      14.727  34.103  74.227  1.00 25.03 LIG-0.40  OA
ATOM     25 HG   SER D 344      13.984  34.146  73.835  1.00 25.03 LIG 0.21  HD
ENDBRANCH 23 24
ENDBRANCH 20 23
ENDBRANCH 17 20
ENDBRANCH 15 16
BRANCH 15 26
ATOM     26  CB  LEU D 343      18.909  34.426  76.069  1.00 15.83 LIG 0.04  C 
BRANCH 26 27
ATOM     27  CG  LEU D 343      20.402  34.672  75.991  1.00 14.86 LIG-0.02  C 
ATOM     28  CD1 LEU D 343      21.018  33.793  74.915  1.00 12.95 LIG 0.01  C 
ATOM     29  CD2 LEU D 343      20.683  36.172  75.716  1.00 12.95 LIG 0.01  C 
ENDBRANCH 26 27
ENDBRANCH 15 26
ENDBRANCH 12 15
ENDBRANCH 10 11
BRANCH 10 30
ATOM     30  CB  HIS D 342      19.181  34.466  82.201  1.00 12.90 LIG 0.10  C 
BRANCH 30 31
ATOM     31  CG  HIS D 342      19.887  35.213  83.285  1.00 12.99 LIG 0.06  A 
ATOM     32  CD2 HIS D 342      20.751  34.776  84.233  1.00 12.88 LIG 0.14  A 
ATOM     33 NE2  HIS D 342      21.108  35.865  84.988  1.00 14.80 LIG-0.25  NA
ATOM     34  CE1 HIS D 342      20.485  36.932  84.529  1.00 13.21 LIG 0.23  A 
ATOM     35 ND1  HIS D 342      19.735  36.566  83.505  1.00 14.49 LIG-0.24  NA
ENDBRANCH 30 31
ENDBRANCH 10 30
ENDBRANCH 8 10
ENDBRANCH 5 6
BRANCH 5 36
ATOM     36  CB  THR D 341      22.974  37.536  78.610  1.00 12.70 LIG 0.15  C 
ATOM     37  CG2 THR D 341      22.566  39.020  78.570  1.00 14.15 LIG 0.04  C 
BRANCH 36 38
ATOM     38 OG1  THR D 341      24.356  37.394  78.254  1.00 14.08 LIG-0.39  OA
ATOM     39 HG1  THR D 341      24.631  36.639  78.496  1.00 14.08 LIG 0.21  HD
ENDBRANCH 36 38
ENDBRANCH 5 36
ENDBRANCH 3 5
BRANCH 1 40
ATOM     40  CA  TRP D 340      25.514  35.426  82.161  1.00 18.72 LIG 0.18  C 
BRANCH 40 41
ATOM     41  CB  TRP D 340      25.393  34.390  83.278  1.00 19.00 LIG 0.07  C 
BRANCH 41 42
ATOM     42  CG  TRP D 340      25.455  32.973  82.826  1.00 19.22 LIG-0.03  A 
ATOM     43  CD2 TRP D 340      26.053  31.886  83.529  1.00 20.18 LIG-0.00  A 
ATOM     44  CE3 TRP D 340      26.693  31.771  84.769  1.00 18.70 LIG 0.01  A 
ATOM     45  CE2 TRP D 340      25.915  30.737  82.718  1.00 18.84 LIG 0.04  A 
ATOM     46  CZ3 TRP D 340      27.176  30.524  85.158  1.00 20.55 LIG 0.00  A 
ATOM     47  CH2 TRP D 340      27.015  29.400  84.327  1.00 19.52 LIG 0.00  A 
ATOM     48  CZ2 TRP D 340      26.395  29.485  83.107  1.00 19.79 LIG 0.03  A 
ATOM     49  NE1 TRP D 340      25.259  31.112  81.574  1.00 21.77 LIG-0.36  N 
ATOM     50  CD1 TRP D 340      25.000  32.463  81.644  1.00 20.48 LIG 0.10  A 
ATOM     51 HE1  TRP D 340      25.045  30.592  80.923  1.00 21.77 LIG 0.17  HD
ENDBRANCH 41 42
ENDBRANCH 40 41
BRANCH 40 52
ATOM     52  N   TRP D 340      26.288  36.586  82.619  1.00 22.23 LIG-0.35  N 
ATOM     53  C   ASP D 339      26.952  37.385  81.786  1.00 26.49 LIG 0.24  C 
ATOM     54 O    ASP D 339      26.967  37.223  80.553  1.00 27.22 LIG-0.27  OA
ATOM     55 H    TRP D 340      26.272  36.700  83.471  1.00 22.23 LIG 0.16  HD
BRANCH 53 56
ATOM     56  CA  ASP D 339      27.724  38.544  82.424  1.00 29.46 LIG 0.19  C 
BRANCH 56 57
ATOM     57  CB  ASP D 339      26.981  39.857  82.162  1.00 30.27 LIG 0.15  C 
BRANCH 57 58
ATOM     58  CG  ASP D 339      27.807  41.097  82.513  1.00 32.94 LIG 0.17  C 
ATOM     59 OD1  ASP D 339      27.812  41.476  83.703  1.00 36.53 LIG-0.65  OA
ATOM     60 OD2  ASP D 339      28.437  41.701  81.608  1.00 35.99 LIG-0.65  OA
ENDBRANCH 57 58
ENDBRANCH 56 57
BRANCH 56 61
ATOM     61  N   ASP D 339      29.078  38.637  81.886  1.00 31.22 LIG-0.34  N 
ATOM     62  C   ASP D 338      30.115  37.964  82.382  1.00 32.92 LIG 0.26  C 
ATOM     63 O    ASP D 338      30.009  37.043  83.198  1.00 33.60 LIG-0.27  OA
ATOM     64 H    ASP D 339      29.144  39.170  81.215  1.00 31.22 LIG 0.16  HD
BRANCH 62 65
ATOM     65  CA  ASP D 338      31.486  38.383  81.849  1.00 33.82 LIG 0.41  C 
ATOM     66  N   ASP D 338      32.278  37.187  81.416  1.00 34.02 LIG 0.61  N 
BRANCH 65 67
ATOM     67  CB  ASP D 338      31.323  39.375  80.687  1.00 34.49 LIG 0.16  C 
BRANCH 67 68
ATOM     68  CG  ASP D 338      30.939  38.696  79.377  1.00 35.92 LIG 0.17  C 
ATOM     69 OD2  ASP D 338      31.600  38.968  78.356  1.00 39.23 LIG-0.65  OA
ATOM     70 OD1  ASP D 338      29.971  37.899  79.358  1.00 38.97 LIG-0.65  OA
ENDBRANCH 67 68
ENDBRANCH 65 67
ENDBRANCH 62 65
ENDBRANCH 56 61
ENDBRANCH 53 56
ENDBRANCH 40 52
ENDBRANCH 1 40
TORSDOF 27
ENDMDL
MODEL 14
USER: ADFR SOLUTION from run 82
USER: SCORE 21.139768 LL:  -5.491 LR: -17.952 RR:   0.000 FEB:  -9.898
USER: RMSD 3.943781
USER: SEED 81
USER: STATUS 1 or 2 clusters left
USER: GENES 29
USER: genes 0 Translation |==|  0.54790 0.42702 0.55548
USER: genes 1 Rotation |==|  0.78781 0.41720 0.88382 0.61398
USER: genes 2 Torsion [C]-N--CA-[CB] |==|  0.24261
USER: genes 3 Torsion [N]-CA--C-[N] |==|  0.42337
USER: genes 4 Torsion [C]-N--CA-[C] |==|  0.57814
USER: genes 5 Torsion [N]-CA--C-[N] |==|  0.97222
USER: genes 6 Torsion [C]-N--CA-[C] |==|  0.66836
USER: genes 7 Torsion [N]-CA--C-[N] |==|  0.96984
USER: genes 8 Torsion [C]-N--CA-[C] |==|  0.94581
USER: genes 9 Torsion [N]-CA--C-[O] |==|  0.43326
USER: genes 10 Torsion [N]-CA--CB-[OG] |==|  0.77350
USER: genes 11 Torsion [CA]-CB--OG-[HG] |==|  0.15817
USER: genes 12 Torsion [N]-CA--CB-[CG] |==|  0.24504
USER: genes 13 Torsion [CA]-CB--CG-[CD2] |==|  0.60558
USER: genes 14 Torsion [N]-CA--CB-[CG] |==|  0.86228
USER: genes 15 Torsion [CA]-CB--CG-[CD2] |==|  0.26287
USER: genes 16 Torsion [N]-CA--CB-[OG1] |==|  0.48675
USER: genes 17 Torsion [CA]-CB--OG1-[HG1] |==|  0.28850
USER: genes 18 Torsion [N]-C--CA-[N] |==|  0.93255
USER: genes 19 Torsion [C]-CA--CB-[CG] |==|  0.31375
USER: genes 20 Torsion [CA]-CB--CG-[CD2] |==|  0.81484
USER: genes 21 Torsion [C]-CA--N-[C] |==|  0.76081
USER: genes 22 Torsion [N]-C--CA-[N] |==|  0.15977
USER: genes 23 Torsion [C]-CA--CB-[CG] |==|  0.49058
USER: genes 24 Torsion [CA]-CB--CG-[OD1] |==|  0.94887
USER: genes 25 Torsion [C]-CA--N-[C] |==|  0.14756
USER: genes 26 Torsion [N]-C--CA-[N] |==|  0.14783
USER: genes 27 Torsion [C]-CA--CB-[CG] |==|  0.84421
USER: genes 28 Torsion [CA]-CB--CG-[OD2] |==|  0.39855
ROOT
ATOM      1  C   TRP D 340      24.349  34.480  81.606  1.00 16.52 LIG 0.24  C 
ATOM      2 O    TRP D 340      24.532  33.408  81.024  1.00 16.60 LIG-0.27  OA
ATOM      3  N   THR D 341      23.436  35.365  81.227  1.00 13.22 LIG-0.34  N 
ATOM      4 H    THR D 341      23.305  36.107  81.641  1.00 13.22 LIG 0.16  HD
ENDROOT
BRANCH 3 5
ATOM      5  CA  THR D 341      22.562  35.179  80.078  1.00 12.53 LIG 0.20  C 
BRANCH 5 6
ATOM      6  C   THR D 341      22.193  36.533  79.473  1.00 12.10 LIG 0.24  C 
ATOM      7 O    THR D 341      22.188  37.555  80.156  1.00 10.92 LIG-0.27  OA
ATOM      8  N   HIS D 342      21.909  36.544  78.176  1.00 12.26 LIG-0.35  N 
ATOM      9 H    HIS D 342      21.937  35.851  77.669  1.00 12.26 LIG 0.16  HD
BRANCH 8 10
ATOM     10  CA  HIS D 342      21.517  37.777  77.500  1.00 12.78 LIG 0.18  C 
BRANCH 10 11
ATOM     11  C   HIS D 342      20.627  37.434  76.324  1.00 14.51 LIG 0.24  C 
ATOM     12  N   LEU D 343      20.534  36.149  75.995  1.00 15.48 LIG-0.35  N 
ATOM     13 H    LEU D 343      20.891  35.512  76.449  1.00 15.48 LIG 0.16  HD
ATOM     14 O    HIS D 342      20.012  38.334  75.723  1.00 16.02 LIG-0.27  OA
BRANCH 12 15
ATOM     15  CA  LEU D 343      19.799  35.704  74.808  1.00 16.72 LIG 0.18  C 
BRANCH 15 16
ATOM     16  C   LEU D 343      18.631  34.769  75.115  1.00 19.19 LIG 0.24  C 
ATOM     17  N   SER D 344      18.554  34.291  76.368  1.00 21.37 LIG-0.34  N 
ATOM     18 H    SER D 344      19.207  34.331  76.925  1.00 21.37 LIG 0.16  HD
ATOM     19 O    LEU D 343      17.821  34.498  74.245  1.00 19.56 LIG-0.27  OA
BRANCH 17 20
ATOM     20  CA  SER D 344      17.340  33.649  76.923  1.00 23.14 LIG 0.19  C 
BRANCH 20 21
ATOM     21  C   SER D 344      16.095  34.024  76.107  1.00 24.18 LIG 0.22  C 
ATOM     22 O    SER D 344      15.088  33.294  76.098  1.00 25.35 LIG-0.29  OA
ENDBRANCH 20 21
BRANCH 20 23
ATOM     23  CB  SER D 344      17.115  34.040  78.385  1.00 23.66 LIG 0.20  C 
BRANCH 23 24
ATOM     24 OG   SER D 344      17.922  33.252  79.262  1.00 25.03 LIG-0.40  OA
ATOM     25 HG   SER D 344      18.731  33.336  79.050  1.00 25.03 LIG 0.21  HD
ENDBRANCH 23 24
ENDBRANCH 20 23
ENDBRANCH 17 20
ENDBRANCH 15 16
BRANCH 15 26
ATOM     26  CB  LEU D 343      20.740  34.981  73.829  1.00 15.83 LIG 0.04  C 
BRANCH 26 27
ATOM     27  CG  LEU D 343      20.916  33.490  74.032  1.00 14.86 LIG-0.02  C 
ATOM     28  CD1 LEU D 343      19.960  32.726  73.130  1.00 12.95 LIG 0.01  C 
ATOM     29  CD2 LEU D 343      22.387  33.083  73.759  1.00 12.95 LIG 0.01  C 
ENDBRANCH 26 27
ENDBRANCH 15 26
ENDBRANCH 12 15
ENDBRANCH 10 11
BRANCH 10 30
ATOM     30  CB  HIS D 342      22.761  38.525  76.996  1.00 12.90 LIG 0.10  C 
BRANCH 30 31
ATOM     31  CG  HIS D 342      23.823  38.694  78.033  1.00 12.99 LIG 0.06  A 
ATOM     32  CD2 HIS D 342      24.916  37.939  78.300  1.00 12.88 LIG 0.14  A 
ATOM     33 NE2  HIS D 342      25.564  38.526  79.357  1.00 14.80 LIG-0.25  NA
ATOM     34  CE1 HIS D 342      24.895  39.598  79.734  1.00 13.21 LIG 0.23  A 
ATOM     35 ND1  HIS D 342      23.835  39.718  78.955  1.00 14.49 LIG-0.24  NA
ENDBRANCH 30 31
ENDBRANCH 10 30
ENDBRANCH 8 10
ENDBRANCH 5 6
BRANCH 5 36
ATOM     36  CB  THR D 341      21.287  34.405  80.483  1.00 12.70 LIG 0.15  C 
ATOM     37  CG2 THR D 341      20.576  35.070  81.677  1.00 14.15 LIG 0.04  C 
BRANCH 36 38
ATOM     38 OG1  THR D 341      20.401  34.338  79.357  1.00 14.08 LIG-0.39  OA
ATOM     39 HG1  THR D 341      20.433  33.569  79.021  1.00 14.08 LIG 0.21  HD
ENDBRANCH 36 38
ENDBRANCH 5 36
ENDBRANCH 3 5
BRANCH 1 40
ATOM     40  CA  TRP D 340      25.221  34.879  82.791  1.00 18.72 LIG 0.18  C 
BRANCH 40 41
ATOM     41  CB  TRP D 340      24.629  34.242  84.048  1.00 19.00 LIG 0.07  C 
BRANCH 41 42
ATOM     42  CG  TRP D 340      25.474  33.189  84.673  1.00 19.22 LIG-0.03  A 
ATOM     43  CD2 TRP D 340      25.796  31.918  84.112  1.00 20.18 LIG-0.00  A 
ATOM     44  CE3 TRP D 340      25.495  31.293  82.896  1.00 18.70 LIG 0.01  A 
ATOM     45  CE2 TRP D 340      26.585  31.229  85.061  1.00 18.84 LIG 0.04  A 
ATOM     46  CZ3 TRP D 340      25.982  30.008  82.668  1.00 20.55 LIG 0.00  A 
ATOM     47  CH2 TRP D 340      26.770  29.356  83.633  1.00 19.52 LIG 0.00  A 
ATOM     48  CZ2 TRP D 340      27.078  29.944  84.833  1.00 19.79 LIG 0.03  A 
ATOM     49  NE1 TRP D 340      26.736  32.050  86.150  1.00 21.77 LIG-0.36  N 
ATOM     50  CD1 TRP D 340      26.050  33.221  85.910  1.00 20.48 LIG 0.10  A 
ATOM     51 HE1  TRP D 340      27.183  31.866  86.861  1.00 21.77 LIG 0.17  HD
ENDBRANCH 41 42
ENDBRANCH 40 41
BRANCH 40 52
ATOM     52  N   TRP D 340      25.299  36.336  82.943  1.00 22.23 LIG-0.35  N 
ATOM     53  C   ASP D 339      26.189  37.083  82.291  1.00 26.49 LIG 0.24  C 
ATOM     54 O    ASP D 339      27.019  36.613  81.494  1.00 27.22 LIG-0.27  OA
ATOM     55 H    TRP D 340      24.720  36.661  83.489  1.00 22.23 LIG 0.16  HD
BRANCH 53 56
ATOM     56  CA  ASP D 339      26.149  38.589  82.571  1.00 29.46 LIG 0.19  C 
BRANCH 56 57
ATOM     57  CB  ASP D 339      27.255  39.284  81.772  1.00 30.27 LIG 0.15  C 
BRANCH 57 58
ATOM     58  CG  ASP D 339      27.241  40.808  81.926  1.00 32.94 LIG 0.17  C 
ATOM     59 OD1  ASP D 339      26.194  41.341  82.350  1.00 36.53 LIG-0.65  OA
ATOM     60 OD2  ASP D 339      28.260  41.474  81.613  1.00 35.99 LIG-0.65  OA
ENDBRANCH 57 58
ENDBRANCH 56 57
BRANCH 56 61
ATOM     61  N   ASP D 339      26.330  38.866  83.993  1.00 31.22 LIG-0.34  N 
ATOM     62  C   ASP D 338      27.350  38.398  84.711  1.00 32.92 LIG 0.26  C 
ATOM     63 O    ASP D 338      28.350  37.867  84.217  1.00 33.60 LIG-0.27  OA
ATOM     64 H    ASP D 339      25.713  39.363  84.326  1.00 31.22 LIG 0.16  HD
BRANCH 62 65
ATOM     65  CA  ASP D 338      27.230  38.585  86.224  1.00 33.82 LIG 0.41  C 
ATOM     66  N   ASP D 338      25.933  38.032  86.729  1.00 34.02 LIG 0.61  N 
BRANCH 65 67
ATOM     67  CB  ASP D 338      28.418  37.918  86.935  1.00 34.49 LIG 0.16  C 
BRANCH 67 68
ATOM     68  CG  ASP D 338      28.560  36.439  86.593  1.00 35.92 LIG 0.17  C 
ATOM     69 OD2  ASP D 338      29.709  35.967  86.486  1.00 39.23 LIG-0.65  OA
ATOM     70 OD1  ASP D 338      27.530  35.746  86.420  1.00 38.97 LIG-0.65  OA
ENDBRANCH 67 68
ENDBRANCH 65 67
ENDBRANCH 62 65
ENDBRANCH 56 61
ENDBRANCH 53 56
ENDBRANCH 40 52
ENDBRANCH 1 40
TORSDOF 27
ENDMDL
MODEL 15
USER: ADFR SOLUTION from run 148
USER: SCORE 21.512111 LL:  -5.400 LR: -17.882 RR:   0.000 FEB:  -9.828
USER: RMSD 4.512421
USER: SEED 147
USER: STATUS no improvement in best in 5 clusters for 5 generations
USER: GENES 29
USER: genes 0 Translation |==|  0.52589 0.49138 0.55946
USER: genes 1 Rotation |==|  0.34078 0.68220 0.49161 0.93747
USER: genes 2 Torsion [C]-N--CA-[CB] |==|  0.81507
USER: genes 3 Torsion [N]-CA--C-[N] |==|  0.13755
USER: genes 4 Torsion [C]-N--CA-[C] |==|  0.67547
USER: genes 5 Torsion [N]-CA--C-[N] |==|  0.04818
USER: genes 6 Torsion [C]-N--CA-[C] |==|  0.66755
USER: genes 7 Torsion [N]-CA--C-[N] |==|  0.75773
USER: genes 8 Torsion [C]-N--CA-[C] |==|  0.11624
USER: genes 9 Torsion [N]-CA--C-[O] |==|  0.30279
USER: genes 10 Torsion [N]-CA--CB-[OG] |==|  0.81086
USER: genes 11 Torsion [CA]-CB--OG-[HG] |==|  0.13647
USER: genes 12 Torsion [N]-CA--CB-[CG] |==|  0.57338
USER: genes 13 Torsion [CA]-CB--CG-[CD2] |==|  0.41566
USER: genes 14 Torsion [N]-CA--CB-[CG] |==|  0.69768
USER: genes 15 Torsion [CA]-CB--CG-[CD2] |==|  0.31252
USER: genes 16 Torsion [N]-CA--CB-[OG1] |==|  0.96214
USER: genes 17 Torsion [CA]-CB--OG1-[HG1] |==|  0.34443
USER: genes 18 Torsion [N]-C--CA-[N] |==|  0.46314
USER: genes 19 Torsion [C]-CA--CB-[CG] |==|  0.29321
USER: genes 20 Torsion [CA]-CB--CG-[CD2] |==|  0.41148
USER: genes 21 Torsion [C]-CA--N-[C] |==|  0.82154
USER: genes 22 Torsion [N]-C--CA-[N] |==|  0.92667
USER: genes 23 Torsion [C]-CA--CB-[CG] |==|  0.18141
USER: genes 24 Torsion [CA]-CB--CG-[OD1] |==|  0.84448
USER: genes 25 Torsion [C]-CA--N-[C] |==|  0.83394
USER: genes 26 Torsion [N]-C--CA-[N] |==|  0.54533
USER: genes 27 Torsion [C]-CA--CB-[CG] |==|  0.84664
USER: genes 28 Torsion [CA]-CB--CG-[OD2] |==|  0.90702
ROOT
ATOM      1  C   TRP D 340      23.739  35.735  81.713  1.00 16.52 LIG 0.24  C 
ATOM      2 O    TRP D 340      23.358  36.865  82.029  1.00 16.60 LIG-0.27  OA
ATOM      3  N   THR D 341      22.939  34.825  81.172  1.00 13.22 LIG-0.34  N 
ATOM      4 H    THR D 341      23.210  34.041  80.944  1.00 13.22 LIG 0.16  HD
ENDROOT
BRANCH 3 5
ATOM      5  CA  THR D 341      21.527  35.052  80.904  1.00 12.53 LIG 0.20  C 
BRANCH 5 6
ATOM      6  C   THR D 341      21.348  36.288  80.024  1.00 12.10 LIG 0.24  C 
ATOM      7 O    THR D 341      20.564  37.183  80.337  1.00 10.92 LIG-0.27  OA
ATOM      8  N   HIS D 342      22.100  36.352  78.932  1.00 12.26 LIG-0.35  N 
ATOM      9 H    HIS D 342      22.679  35.757  78.708  1.00 12.26 LIG 0.16  HD
BRANCH 8 10
ATOM     10  CA  HIS D 342      21.992  37.475  78.006  1.00 12.78 LIG 0.18  C 
BRANCH 10 11
ATOM     11  C   HIS D 342      21.513  36.965  76.663  1.00 14.51 LIG 0.24  C 
ATOM     12  N   LEU D 343      20.952  35.758  76.644  1.00 15.48 LIG-0.35  N 
ATOM     13 H    LEU D 343      20.790  35.295  77.350  1.00 15.48 LIG 0.16  HD
ATOM     14 O    HIS D 342      21.639  37.670  75.646  1.00 16.02 LIG-0.27  OA
BRANCH 12 15
ATOM     15  CA  LEU D 343      20.556  35.109  75.392  1.00 16.72 LIG 0.18  C 
BRANCH 15 16
ATOM     16  C   LEU D 343      19.065  34.795  75.300  1.00 19.19 LIG 0.24  C 
ATOM     17  N   SER D 344      18.663  33.620  75.812  1.00 21.37 LIG-0.34  N 
ATOM     18 H    SER D 344      19.206  32.983  76.005  1.00 21.37 LIG 0.16  HD
ATOM     19 O    LEU D 343      18.302  35.598  74.789  1.00 19.56 LIG-0.27  OA
BRANCH 17 20
ATOM     20  CA  SER D 344      17.246  33.297  76.099  1.00 23.14 LIG 0.19  C 
BRANCH 20 21
ATOM     21  C   SER D 344      16.328  33.790  74.971  1.00 24.18 LIG 0.22  C 
ATOM     22 O    SER D 344      15.774  32.991  74.197  1.00 25.35 LIG-0.29  OA
ENDBRANCH 20 21
BRANCH 20 23
ATOM     23  CB  SER D 344      16.785  33.912  77.422  1.00 23.66 LIG 0.20  C 
BRANCH 23 24
ATOM     24 OG   SER D 344      17.435  33.294  78.535  1.00 25.03 LIG-0.40  OA
ATOM     25 HG   SER D 344      18.263  33.266  78.396  1.00 25.03 LIG 0.21  HD
ENDBRANCH 23 24
ENDBRANCH 20 23
ENDBRANCH 17 20
ENDBRANCH 15 16
BRANCH 15 26
ATOM     26  CB  LEU D 343      21.330  33.793  75.198  1.00 15.83 LIG 0.04  C 
BRANCH 26 27
ATOM     27  CG  LEU D 343      21.527  33.324  73.770  1.00 14.86 LIG-0.02  C 
ATOM     28  CD1 LEU D 343      21.513  34.516  72.826  1.00 12.95 LIG 0.01  C 
ATOM     29  CD2 LEU D 343      22.852  32.528  73.646  1.00 12.95 LIG 0.01  C 
ENDBRANCH 26 27
ENDBRANCH 15 26
ENDBRANCH 12 15
ENDBRANCH 10 11
BRANCH 10 30
ATOM     30  CB  HIS D 342      23.359  38.155  77.834  1.00 12.90 LIG 0.10  C 
BRANCH 30 31
ATOM     31  CG  HIS D 342      23.445  39.502  78.476  1.00 12.99 LIG 0.06  A 
ATOM     32  CD2 HIS D 342      24.173  39.922  79.538  1.00 12.88 LIG 0.14  A 
ATOM     33 NE2  HIS D 342      23.888  41.252  79.723  1.00 14.80 LIG-0.25  NA
ATOM     34  CE1 HIS D 342      23.014  41.637  78.814  1.00 13.21 LIG 0.23  A 
ATOM     35 ND1  HIS D 342      22.724  40.598  78.052  1.00 14.49 LIG-0.24  NA
ENDBRANCH 30 31
ENDBRANCH 10 30
ENDBRANCH 8 10
ENDBRANCH 5 6
BRANCH 5 36
ATOM     36  CB  THR D 341      20.740  35.214  82.226  1.00 12.70 LIG 0.15  C 
ATOM     37  CG2 THR D 341      19.425  34.412  82.203  1.00 14.15 LIG 0.04  C 
BRANCH 36 38
ATOM     38 OG1  THR D 341      21.563  34.782  83.317  1.00 14.08 LIG-0.39  OA
ATOM     39 HG1  THR D 341      21.632  35.402  83.879  1.00 14.08 LIG 0.21  HD
ENDBRANCH 36 38
ENDBRANCH 5 36
ENDBRANCH 3 5
BRANCH 1 40
ATOM     40  CA  TRP D 340      25.172  35.293  81.985  1.00 18.72 LIG 0.18  C 
BRANCH 40 41
ATOM     41  CB  TRP D 340      25.150  34.315  83.159  1.00 19.00 LIG 0.07  C 
BRANCH 41 42
ATOM     42  CG  TRP D 340      25.352  32.888  82.789  1.00 19.22 LIG-0.03  A 
ATOM     43  CD2 TRP D 340      25.989  31.890  83.584  1.00 20.18 LIG-0.00  A 
ATOM     44  CE3 TRP D 340      26.556  31.889  84.864  1.00 18.70 LIG 0.01  A 
ATOM     45  CE2 TRP D 340      25.996  30.696  82.829  1.00 18.84 LIG 0.04  A 
ATOM     46  CZ3 TRP D 340      27.111  30.706  85.347  1.00 20.55 LIG 0.00  A 
ATOM     47  CH2 TRP D 340      27.094  29.534  84.569  1.00 19.52 LIG 0.00  A 
ATOM     48  CZ2 TRP D 340      26.548  29.508  83.312  1.00 19.79 LIG 0.03  A 
ATOM     49  NE1 TRP D 340      25.386  30.959  81.629  1.00 21.77 LIG-0.36  N 
ATOM     50  CD1 TRP D 340      25.017  32.286  81.611  1.00 20.48 LIG 0.10  A 
ATOM     51 HE1  TRP D 340      25.256  30.392  80.995  1.00 21.77 LIG 0.17  HD
ENDBRANCH 41 42
ENDBRANCH 40 41
BRANCH 40 52
ATOM     52  N   TRP D 340      26.045  36.434  82.284  1.00 22.23 LIG-0.35  N 
ATOM     53  C   ASP D 339      26.312  37.391  81.396  1.00 26.49 LIG 0.24  C 
ATOM     54 O    ASP D 339      25.840  37.404  80.246  1.00 27.22 LIG-0.27  OA
ATOM     55 H    TRP D 340      26.366  36.427  83.081  1.00 22.23 LIG 0.16  HD
BRANCH 53 56
ATOM     56  CA  ASP D 339      27.256  38.506  81.859  1.00 29.46 LIG 0.19  C 
BRANCH 56 57
ATOM     57  CB  ASP D 339      28.688  38.170  81.434  1.00 30.27 LIG 0.15  C 
BRANCH 57 58
ATOM     58  CG  ASP D 339      28.876  38.155  79.914  1.00 32.94 LIG 0.17  C 
ATOM     59 OD1  ASP D 339      28.137  37.403  79.243  1.00 36.53 LIG-0.65  OA
ATOM     60 OD2  ASP D 339      29.763  38.874  79.390  1.00 35.99 LIG-0.65  OA
ENDBRANCH 57 58
ENDBRANCH 56 57
BRANCH 56 61
ATOM     61  N   ASP D 339      27.206  38.671  83.309  1.00 31.22 LIG-0.34  N 
ATOM     62  C   ASP D 338      26.097  38.982  83.977  1.00 32.92 LIG 0.26  C 
ATOM     63 O    ASP D 338      24.966  38.955  83.480  1.00 33.60 LIG-0.27  OA
ATOM     64 H    ASP D 339      27.965  38.547  83.694  1.00 31.22 LIG 0.16  HD
BRANCH 62 65
ATOM     65  CA  ASP D 338      26.296  39.356  85.446  1.00 33.82 LIG 0.41  C 
ATOM     66  N   ASP D 338      24.998  39.301  86.192  1.00 34.02 LIG 0.61  N 
BRANCH 65 67
ATOM     67  CB  ASP D 338      27.334  38.426  86.094  1.00 34.49 LIG 0.16  C 
BRANCH 67 68
ATOM     68  CG  ASP D 338      26.981  36.951  85.948  1.00 35.92 LIG 0.17  C 
ATOM     69 OD2  ASP D 338      25.777  36.628  85.958  1.00 39.23 LIG-0.65  OA
ATOM     70 OD1  ASP D 338      27.902  36.106  85.835  1.00 38.97 LIG-0.65  OA
ENDBRANCH 67 68
ENDBRANCH 65 67
ENDBRANCH 62 65
ENDBRANCH 56 61
ENDBRANCH 53 56
ENDBRANCH 40 52
ENDBRANCH 1 40
TORSDOF 27
ENDMDL
MODEL 16
USER: ADFR SOLUTION from run 46
USER: SCORE 21.894354 LL:  -5.453 LR: -17.865 RR:   0.000 FEB:  -9.811
USER: RMSD 4.177859
USER: SEED 45
USER: STATUS searching
USER: GENES 29
USER: genes 0 Translation |==|  0.51595 0.48697 0.55322
USER: genes 1 Rotation |==|  0.63491 0.49003 0.64241 0.95980
USER: genes 2 Torsion [C]-N--CA-[CB] |==|  0.54789
USER: genes 3 Torsion [N]-CA--C-[N] |==|  0.31872
USER: genes 4 Torsion [C]-N--CA-[C] |==|  0.83368
USER: genes 5 Torsion [N]-CA--C-[N] |==|  0.89021
USER: genes 6 Torsion [C]-N--CA-[C] |==|  0.16696
USER: genes 7 Torsion [N]-CA--C-[N] |==|  0.08190
USER: genes 8 Torsion [C]-N--CA-[C] |==|  0.59030
USER: genes 9 Torsion [N]-CA--C-[O] |==|  0.33381
USER: genes 10 Torsion [N]-CA--CB-[OG] |==|  0.85011
USER: genes 11 Torsion [CA]-CB--OG-[HG] |==|  0.85757
USER: genes 12 Torsion [N]-CA--CB-[CG] |==|  0.72369
USER: genes 13 Torsion [CA]-CB--CG-[CD2] |==|  0.58618
USER: genes 14 Torsion [N]-CA--CB-[CG] |==|  0.53452
USER: genes 15 Torsion [CA]-CB--CG-[CD2] |==|  0.64294
USER: genes 16 Torsion [N]-CA--CB-[OG1] |==|  0.91093
USER: genes 17 Torsion [CA]-CB--OG1-[HG1] |==|  0.14592
USER: genes 18 Torsion [N]-C--CA-[N] |==|  0.12739
USER: genes 19 Torsion [C]-CA--CB-[CG] |==|  0.39322
USER: genes 20 Torsion [CA]-CB--CG-[CD2] |==|  0.90350
USER: genes 21 Torsion [C]-CA--N-[C] |==|  0.17147
USER: genes 22 Torsion [N]-C--CA-[N] |==|  0.56583
USER: genes 23 Torsion [C]-CA--CB-[CG] |==|  0.32549
USER: genes 24 Torsion [CA]-CB--CG-[OD1] |==|  0.95474
USER: genes 25 Torsion [C]-CA--N-[C] |==|  0.55556
USER: genes 26 Torsion [N]-C--CA-[N] |==|  0.34108
USER: genes 27 Torsion [C]-CA--CB-[CG] |==|  0.81064
USER: genes 28 Torsion [CA]-CB--CG-[OD2] |==|  0.43739
ROOT
ATOM      1  C   TRP D 340      23.463  35.649  81.545  1.00 16.52 LIG 0.24  C 
ATOM      2 O    TRP D 340      22.453  35.533  82.243  1.00 16.60 LIG-0.27  OA
ATOM      3  N   THR D 341      23.438  36.129  80.309  1.00 13.22 LIG-0.34  N 
ATOM      4 H    THR D 341      24.146  36.218  79.828  1.00 13.22 LIG 0.16  HD
ENDROOT
BRANCH 3 5
ATOM      5  CA  THR D 341      22.221  36.556  79.634  1.00 12.53 LIG 0.20  C 
BRANCH 5 6
ATOM      6  C   THR D 341      21.080  35.588  79.942  1.00 12.10 LIG 0.24  C 
ATOM      7 O    THR D 341      21.128  34.414  79.580  1.00 10.92 LIG-0.27  OA
ATOM      8  N   HIS D 342      20.062  36.075  80.640  1.00 12.26 LIG-0.35  N 
ATOM      9 H    HIS D 342      20.019  36.882  80.934  1.00 12.26 LIG 0.16  HD
BRANCH 8 10
ATOM     10  CA  HIS D 342      18.906  35.247  80.968  1.00 12.78 LIG 0.18  C 
BRANCH 10 11
ATOM     11  C   HIS D 342      18.263  34.765  79.685  1.00 14.51 LIG 0.24  C 
ATOM     12  N   LEU D 343      18.199  35.635  78.680  1.00 15.48 LIG-0.35  N 
ATOM     13 H    LEU D 343      18.557  36.416  78.701  1.00 15.48 LIG 0.16  HD
ATOM     14 O    HIS D 342      17.837  33.598  79.599  1.00 16.02 LIG-0.27  OA
BRANCH 12 15
ATOM     15  CA  LEU D 343      17.498  35.326  77.432  1.00 16.72 LIG 0.18  C 
BRANCH 15 16
ATOM     16  C   LEU D 343      16.012  35.024  77.611  1.00 19.19 LIG 0.24  C 
ATOM     17  N   SER D 344      15.394  35.626  78.640  1.00 21.37 LIG-0.34  N 
ATOM     18 H    SER D 344      15.819  36.003  79.286  1.00 21.37 LIG 0.16  HD
ATOM     19 O    LEU D 343      15.443  34.275  76.834  1.00 19.56 LIG-0.27  OA
BRANCH 17 20
ATOM     20  CA  SER D 344      13.921  35.707  78.773  1.00 23.14 LIG 0.19  C 
BRANCH 20 21
ATOM     21  C   SER D 344      13.501  37.008  79.472  1.00 24.18 LIG 0.22  C 
ATOM     22 O    SER D 344      12.761  37.832  78.906  1.00 25.35 LIG-0.29  OA
ENDBRANCH 20 21
BRANCH 20 23
ATOM     23  CB  SER D 344      13.360  34.517  79.554  1.00 23.66 LIG 0.20  C 
BRANCH 23 24
ATOM     24 OG   SER D 344      13.781  33.277  78.983  1.00 25.03 LIG-0.40  OA
ATOM     25 HG   SER D 344      13.615  33.277  78.159  1.00 25.03 LIG 0.21  HD
ENDBRANCH 23 24
ENDBRANCH 20 23
ENDBRANCH 17 20
ENDBRANCH 15 16
BRANCH 15 26
ATOM     26  CB  LEU D 343      18.145  34.117  76.733  1.00 15.83 LIG 0.04  C 
BRANCH 26 27
ATOM     27  CG  LEU D 343      19.101  34.421  75.597  1.00 14.86 LIG-0.02  C 
ATOM     28  CD1 LEU D 343      20.508  34.615  76.140  1.00 12.95 LIG 0.01  C 
ATOM     29  CD2 LEU D 343      19.061  33.282  74.545  1.00 12.95 LIG 0.01  C 
ENDBRANCH 26 27
ENDBRANCH 15 26
ENDBRANCH 12 15
ENDBRANCH 10 11
BRANCH 10 30
ATOM     30  CB  HIS D 342      17.882  36.059  81.776  1.00 12.90 LIG 0.10  C 
BRANCH 30 31
ATOM     31  CG  HIS D 342      16.813  35.225  82.403  1.00 12.99 LIG 0.06  A 
ATOM     32  CD2 HIS D 342      15.464  35.351  82.360  1.00 12.88 LIG 0.14  A 
ATOM     33 NE2  HIS D 342      14.939  34.327  83.108  1.00 14.80 LIG-0.25  NA
ATOM     34  CE1 HIS D 342      15.924  33.600  83.599  1.00 13.21 LIG 0.23  A 
ATOM     35 ND1  HIS D 342      17.067  34.125  83.194  1.00 14.49 LIG-0.24  NA
ENDBRANCH 30 31
ENDBRANCH 10 30
ENDBRANCH 8 10
ENDBRANCH 5 6
BRANCH 5 36
ATOM     36  CB  THR D 341      22.449  36.651  78.107  1.00 12.70 LIG 0.15  C 
ATOM     37  CG2 THR D 341      21.486  37.661  77.454  1.00 14.15 LIG 0.04  C 
BRANCH 36 38
ATOM     38 OG1  THR D 341      23.808  37.033  77.858  1.00 14.08 LIG-0.39  OA
ATOM     39 HG1  THR D 341      24.325  36.516  78.271  1.00 14.08 LIG 0.21  HD
ENDBRANCH 36 38
ENDBRANCH 5 36
ENDBRANCH 3 5
BRANCH 1 40
ATOM     40  CA  TRP D 340      24.821  35.186  82.059  1.00 18.72 LIG 0.18  C 
BRANCH 40 41
ATOM     41  CB  TRP D 340      24.705  34.969  83.567  1.00 19.00 LIG 0.07  C 
BRANCH 41 42
ATOM     42  CG  TRP D 340      25.452  33.793  84.090  1.00 19.22 LIG-0.03  A 
ATOM     43  CD2 TRP D 340      25.648  32.550  83.420  1.00 20.18 LIG-0.00  A 
ATOM     44  CE3 TRP D 340      25.280  32.060  82.162  1.00 18.70 LIG 0.01  A 
ATOM     45  CE2 TRP D 340      26.376  31.713  84.296  1.00 18.84 LIG 0.04  A 
ATOM     46  CZ3 TRP D 340      25.641  30.759  81.819  1.00 20.55 LIG 0.00  A 
ATOM     47  CH2 TRP D 340      26.372  29.957  82.715  1.00 19.52 LIG 0.00  A 
ATOM     48  CZ2 TRP D 340      26.743  30.410  83.954  1.00 19.79 LIG 0.03  A 
ATOM     49  NE1 TRP D 340      26.613  32.421  85.447  1.00 21.77 LIG-0.36  N 
ATOM     50  CD1 TRP D 340      26.039  33.667  85.316  1.00 20.48 LIG 0.10  A 
ATOM     51 HE1  TRP D 340      27.046  32.137  86.133  1.00 21.77 LIG 0.17  HD
ENDBRANCH 41 42
ENDBRANCH 40 41
BRANCH 40 52
ATOM     52  N   TRP D 340      25.877  36.160  81.761  1.00 22.23 LIG-0.35  N 
ATOM     53  C   ASP D 339      25.867  37.404  82.238  1.00 26.49 LIG 0.24  C 
ATOM     54 O    ASP D 339      24.971  37.841  82.981  1.00 27.22 LIG-0.27  OA
ATOM     55 H    TRP D 340      26.498  35.854  81.252  1.00 22.23 LIG 0.16  HD
BRANCH 53 56
ATOM     56  CA  ASP D 339      27.036  38.303  81.820  1.00 29.46 LIG 0.19  C 
BRANCH 56 57
ATOM     57  CB  ASP D 339      28.312  37.463  81.718  1.00 30.27 LIG 0.15  C 
BRANCH 57 58
ATOM     58  CG  ASP D 339      28.894  37.424  80.302  1.00 32.94 LIG 0.17  C 
ATOM     59 OD1  ASP D 339      28.155  37.778  79.358  1.00 36.53 LIG-0.65  OA
ATOM     60 OD2  ASP D 339      30.073  37.028  80.125  1.00 35.99 LIG-0.65  OA
ENDBRANCH 57 58
ENDBRANCH 56 57
BRANCH 56 61
ATOM     61  N   ASP D 339      27.241  39.383  82.781  1.00 31.22 LIG-0.34  N 
ATOM     62  C   ASP D 338      27.901  40.505  82.499  1.00 32.92 LIG 0.26  C 
ATOM     63 O    ASP D 338      28.221  40.843  81.354  1.00 33.60 LIG-0.27  OA
ATOM     64 H    ASP D 339      26.893  39.226  83.552  1.00 31.22 LIG 0.16  HD
BRANCH 62 65
ATOM     65  CA  ASP D 338      28.226  41.396  83.697  1.00 33.82 LIG 0.41  C 
ATOM     66  N   ASP D 338      29.701  41.639  83.797  1.00 34.02 LIG 0.61  N 
BRANCH 65 67
ATOM     67  CB  ASP D 338      27.464  42.727  83.590  1.00 34.49 LIG 0.16  C 
BRANCH 67 68
ATOM     68  CG  ASP D 338      27.955  43.601  82.442  1.00 35.92 LIG 0.17  C 
ATOM     69 OD2  ASP D 338      27.181  44.466  81.987  1.00 39.23 LIG-0.65  OA
ATOM     70 OD1  ASP D 338      29.109  43.423  81.983  1.00 38.97 LIG-0.65  OA
ENDBRANCH 67 68
ENDBRANCH 65 67
ENDBRANCH 62 65
ENDBRANCH 56 61
ENDBRANCH 53 56
ENDBRANCH 40 52
ENDBRANCH 1 40
TORSDOF 27
ENDMDL
MODEL 17
USER: ADFR SOLUTION from run 187
USER: SCORE 20.924801 LL:  -5.283 LR: -17.841 RR:   0.000 FEB:  -9.787
USER: RMSD 3.043120
USER: SEED 186
USER: STATUS no improvement in best in 7 clusters for 5 generations
USER: GENES 29
USER: genes 0 Translation |==|  0.54290 0.53494 0.56158
USER: genes 1 Rotation |==|  0.58695 0.51184 0.55820 0.98879
USER: genes 2 Torsion [C]-N--CA-[CB] |==|  0.51696
USER: genes 3 Torsion [N]-CA--C-[N] |==|  0.88110
USER: genes 4 Torsion [C]-N--CA-[C] |==|  0.16283
USER: genes 5 Torsion [N]-CA--C-[N] |==|  0.20354
USER: genes 6 Torsion [C]-N--CA-[C] |==|  0.81091
USER: genes 7 Torsion [N]-CA--C-[N] |==|  0.42437
USER: genes 8 Torsion [C]-N--CA-[C] |==|  0.17888
USER: genes 9 Torsion [N]-CA--C-[O] |==|  0.68262
USER: genes 10 Torsion [N]-CA--CB-[OG] |==|  0.85044
USER: genes 11 Torsion [CA]-CB--OG-[HG] |==|  0.09738
USER: genes 12 Torsion [N]-CA--CB-[CG] |==|  0.81052
USER: genes 13 Torsion [CA]-CB--CG-[CD2] |==|  0.33387
USER: genes 14 Torsion [N]-CA--CB-[CG] |==|  0.48232
USER: genes 15 Torsion [CA]-CB--CG-[CD2] |==|  0.14485
USER: genes 16 Torsion [N]-CA--CB-[OG1] |==|  0.92401
USER: genes 17 Torsion [CA]-CB--OG1-[HG1] |==|  0.15899
USER: genes 18 Torsion [N]-C--CA-[N] |==|  0.28993
USER: genes 19 Torsion [C]-CA--CB-[CG] |==|  0.31070
USER: genes 20 Torsion [CA]-CB--CG-[CD2] |==|  0.34997
USER: genes 21 Torsion [C]-CA--N-[C] |==|  0.76409
USER: genes 22 Torsion [N]-C--CA-[N] |==|  0.34444
USER: genes 23 Torsion [C]-CA--CB-[CG] |==|  0.76749
USER: genes 24 Torsion [CA]-CB--CG-[OD1] |==|  0.55070
USER: genes 25 Torsion [C]-CA--N-[C] |==|  0.64932
USER: genes 26 Torsion [N]-C--CA-[N] |==|  0.41048
USER: genes 27 Torsion [C]-CA--CB-[CG] |==|  0.74750
USER: genes 28 Torsion [CA]-CB--CG-[OD2] |==|  0.26183
ROOT
ATOM      1  C   TRP D 340      24.210  36.584  81.771  1.00 16.52 LIG 0.24  C 
ATOM      2 O    TRP D 340      23.332  36.951  82.555  1.00 16.60 LIG-0.27  OA
ATOM      3  N   THR D 341      24.144  36.786  80.461  1.00 13.22 LIG-0.34  N 
ATOM      4 H    THR D 341      24.763  36.538  79.918  1.00 13.22 LIG 0.16  HD
ENDROOT
BRANCH 3 5
ATOM      5  CA  THR D 341      23.026  37.445  79.803  1.00 12.53 LIG 0.20  C 
BRANCH 5 6
ATOM      6  C   THR D 341      21.709  36.796  80.225  1.00 12.10 LIG 0.24  C 
ATOM      7 O    THR D 341      20.715  37.476  80.472  1.00 10.92 LIG-0.27  OA
ATOM      8  N   HIS D 342      21.692  35.470  80.282  1.00 12.26 LIG-0.35  N 
ATOM      9 H    HIS D 342      22.363  34.969  80.082  1.00 12.26 LIG 0.16  HD
BRANCH 8 10
ATOM     10  CA  HIS D 342      20.496  34.746  80.699  1.00 12.78 LIG 0.18  C 
BRANCH 10 11
ATOM     11  C   HIS D 342      19.353  35.102  79.772  1.00 14.51 LIG 0.24  C 
ATOM     12  N   LEU D 343      19.391  34.587  78.546  1.00 15.48 LIG-0.35  N 
ATOM     13 H    LEU D 343      19.982  34.021  78.283  1.00 15.48 LIG 0.16  HD
ATOM     14 O    HIS D 342      18.428  35.832  80.172  1.00 16.02 LIG-0.27  OA
BRANCH 12 15
ATOM     15  CA  LEU D 343      18.407  34.950  77.523  1.00 16.72 LIG 0.18  C 
BRANCH 15 16
ATOM     16  C   LEU D 343      16.995  34.448  77.814  1.00 19.19 LIG 0.24  C 
ATOM     17  N   SER D 344      15.982  35.160  77.293  1.00 21.37 LIG-0.34  N 
ATOM     18 H    SER D 344      16.081  35.955  76.981  1.00 21.37 LIG 0.16  HD
ATOM     19 O    LEU D 343      16.830  33.440  78.481  1.00 19.56 LIG-0.27  OA
BRANCH 17 20
ATOM     20  CA  SER D 344      14.593  34.655  77.198  1.00 23.14 LIG 0.19  C 
BRANCH 20 21
ATOM     21  C   SER D 344      13.994  34.422  78.592  1.00 24.18 LIG 0.22  C 
ATOM     22 O    SER D 344      13.702  33.278  78.983  1.00 25.35 LIG-0.29  OA
ENDBRANCH 20 21
BRANCH 20 23
ATOM     23  CB  SER D 344      14.522  33.351  76.400  1.00 23.66 LIG 0.20  C 
BRANCH 23 24
ATOM     24 OG   SER D 344      15.133  33.494  75.116  1.00 25.03 LIG-0.40  OA
ATOM     25 HG   SER D 344      15.793  34.011  75.176  1.00 25.03 LIG 0.21  HD
ENDBRANCH 23 24
ENDBRANCH 20 23
ENDBRANCH 17 20
ENDBRANCH 15 16
BRANCH 15 26
ATOM     26  CB  LEU D 343      18.830  34.403  76.148  1.00 15.83 LIG 0.04  C 
BRANCH 26 27
ATOM     27  CG  LEU D 343      20.060  35.025  75.519  1.00 14.86 LIG-0.02  C 
ATOM     28  CD1 LEU D 343      20.586  36.145  76.403  1.00 12.95 LIG 0.01  C 
ATOM     29  CD2 LEU D 343      21.146  33.944  75.282  1.00 12.95 LIG 0.01  C 
ENDBRANCH 26 27
ENDBRANCH 15 26
ENDBRANCH 12 15
ENDBRANCH 10 11
BRANCH 10 30
ATOM     30  CB  HIS D 342      20.120  35.126  82.140  1.00 12.90 LIG 0.10  C 
BRANCH 30 31
ATOM     31  CG  HIS D 342      18.822  34.545  82.596  1.00 12.99 LIG 0.06  A 
ATOM     32  CD2 HIS D 342      18.378  33.265  82.576  1.00 12.88 LIG 0.14  A 
ATOM     33 NE2  HIS D 342      17.113  33.267  83.108  1.00 14.80 LIG-0.25  NA
ATOM     34  CE1 HIS D 342      16.785  34.501  83.438  1.00 13.21 LIG 0.23  A 
ATOM     35 ND1  HIS D 342      17.796  35.294  83.133  1.00 14.49 LIG-0.24  NA
ENDBRANCH 30 31
ENDBRANCH 10 30
ENDBRANCH 8 10
ENDBRANCH 5 6
BRANCH 5 36
ATOM     36  CB  THR D 341      23.186  37.385  78.266  1.00 12.70 LIG 0.15  C 
ATOM     37  CG2 THR D 341      22.551  38.612  77.584  1.00 14.15 LIG 0.04  C 
BRANCH 36 38
ATOM     38 OG1  THR D 341      24.580  37.307  77.942  1.00 14.08 LIG-0.39  OA
ATOM     39 HG1  THR D 341      24.918  36.637  78.318  1.00 14.08 LIG 0.21  HD
ENDBRANCH 36 38
ENDBRANCH 5 36
ENDBRANCH 3 5
BRANCH 1 40
ATOM     40  CA  TRP D 340      25.426  35.814  82.271  1.00 18.72 LIG 0.18  C 
BRANCH 40 41
ATOM     41  CB  TRP D 340      24.940  34.755  83.260  1.00 19.00 LIG 0.07  C 
BRANCH 41 42
ATOM     42  CG  TRP D 340      25.083  33.349  82.794  1.00 19.22 LIG-0.03  A 
ATOM     43  CD2 TRP D 340      25.745  32.292  83.484  1.00 20.18 LIG-0.00  A 
ATOM     44  CE3 TRP D 340      26.395  32.202  84.721  1.00 18.70 LIG 0.01  A 
ATOM     45  CE2 TRP D 340      25.673  31.146  82.661  1.00 18.84 LIG 0.04  A 
ATOM     46  CZ3 TRP D 340      26.952  30.981  85.095  1.00 20.55 LIG 0.00  A 
ATOM     47  CH2 TRP D 340      26.854  29.858  84.252  1.00 19.52 LIG 0.00  A 
ATOM     48  CZ2 TRP D 340      26.226  29.920  83.035  1.00 19.79 LIG 0.03  A 
ATOM     49  NE1 TRP D 340      24.992  31.494  81.522  1.00 21.77 LIG-0.36  N 
ATOM     50  CD1 TRP D 340      24.655  32.827  81.608  1.00 20.48 LIG 0.10  A 
ATOM     51 HE1  TRP D 340      24.807  30.969  80.867  1.00 21.77 LIG 0.17  HD
ENDBRANCH 41 42
ENDBRANCH 40 41
BRANCH 40 52
ATOM     52  N   TRP D 340      26.407  36.699  82.909  1.00 22.23 LIG-0.35  N 
ATOM     53  C   ASP D 339      27.333  37.365  82.220  1.00 26.49 LIG 0.24  C 
ATOM     54 O    ASP D 339      27.440  37.300  80.983  1.00 27.22 LIG-0.27  OA
ATOM     55 H    TRP D 340      26.329  36.748  83.763  1.00 22.23 LIG 0.16  HD
BRANCH 53 56
ATOM     56  CA  ASP D 339      28.293  38.237  83.036  1.00 29.46 LIG 0.19  C 
BRANCH 56 57
ATOM     57  CB  ASP D 339      28.078  39.709  82.673  1.00 30.27 LIG 0.15  C 
BRANCH 57 58
ATOM     58  CG  ASP D 339      28.842  40.137  81.418  1.00 32.94 LIG 0.17  C 
ATOM     59 OD1  ASP D 339      29.020  41.360  81.233  1.00 36.53 LIG-0.65  OA
ATOM     60 OD2  ASP D 339      29.251  39.265  80.611  1.00 35.99 LIG-0.65  OA
ENDBRANCH 57 58
ENDBRANCH 56 57
BRANCH 56 61
ATOM     61  N   ASP D 339      29.684  37.873  82.780  1.00 31.22 LIG-0.34  N 
ATOM     62  C   ASP D 338      30.552  37.561  83.740  1.00 32.92 LIG 0.26  C 
ATOM     63 O    ASP D 338      30.229  37.340  84.913  1.00 33.60 LIG-0.27  OA
ATOM     64 H    ASP D 339      29.891  37.879  81.946  1.00 31.22 LIG 0.16  HD
BRANCH 62 65
ATOM     65  CA  ASP D 338      32.012  37.455  83.299  1.00 33.82 LIG 0.41  C 
ATOM     66  N   ASP D 338      32.935  37.875  84.403  1.00 34.02 LIG 0.61  N 
BRANCH 65 67
ATOM     67  CB  ASP D 338      32.327  36.021  82.846  1.00 34.49 LIG 0.16  C 
BRANCH 67 68
ATOM     68  CG  ASP D 338      32.842  35.140  83.978  1.00 35.92 LIG 0.17  C 
ATOM     69 OD2  ASP D 338      32.020  34.437  84.598  1.00 39.23 LIG-0.65  OA
ATOM     70 OD1  ASP D 338      34.064  35.153  84.260  1.00 38.97 LIG-0.65  OA
ENDBRANCH 67 68
ENDBRANCH 65 67
ENDBRANCH 62 65
ENDBRANCH 56 61
ENDBRANCH 53 56
ENDBRANCH 40 52
ENDBRANCH 1 40
TORSDOF 27
ENDMDL
MODEL 18
USER: ADFR SOLUTION from run 155
USER: SCORE 21.301862 LL:  -5.308 LR: -17.816 RR:   0.000 FEB:  -9.762
USER: RMSD 3.563135
USER: SEED 154
USER: STATUS 1 or 2 clusters left
USER: GENES 29
USER: genes 0 Translation |==|  0.52846 0.51421 0.54196
USER: genes 1 Rotation |==|  0.63626 0.45555 0.66088 0.95119
USER: genes 2 Torsion [C]-N--CA-[CB] |==|  0.49471
USER: genes 3 Torsion [N]-CA--C-[N] |==|  0.47276
USER: genes 4 Torsion [C]-N--CA-[C] |==|  0.66531
USER: genes 5 Torsion [N]-CA--C-[N] |==|  0.41021
USER: genes 6 Torsion [C]-N--CA-[C] |==|  0.63975
USER: genes 7 Torsion [N]-CA--C-[N] |==|  0.23579
USER: genes 8 Torsion [C]-N--CA-[C] |==|  0.58062
USER: genes 9 Torsion [N]-CA--C-[O] |==|  0.15198
USER: genes 10 Torsion [N]-CA--CB-[OG] |==|  0.53611
USER: genes 11 Torsion [CA]-CB--OG-[HG] |==|  0.04063
USER: genes 12 Torsion [N]-CA--CB-[CG] |==|  0.82234
USER: genes 13 Torsion [CA]-CB--CG-[CD2] |==|  0.83175
USER: genes 14 Torsion [N]-CA--CB-[CG] |==|  0.43889
USER: genes 15 Torsion [CA]-CB--CG-[CD2] |==|  0.20344
USER: genes 16 Torsion [N]-CA--CB-[OG1] |==|  0.00068
USER: genes 17 Torsion [CA]-CB--OG1-[HG1] |==|  0.13001
USER: genes 18 Torsion [N]-C--CA-[N] |==|  0.21088
USER: genes 19 Torsion [C]-CA--CB-[CG] |==|  0.28625
USER: genes 20 Torsion [CA]-CB--CG-[CD2] |==|  0.36062
USER: genes 21 Torsion [C]-CA--N-[C] |==|  0.80965
USER: genes 22 Torsion [N]-C--CA-[N] |==|  0.35348
USER: genes 23 Torsion [C]-CA--CB-[CG] |==|  0.55052
USER: genes 24 Torsion [CA]-CB--CG-[OD1] |==|  0.71841
USER: genes 25 Torsion [C]-CA--N-[C] |==|  0.76934
USER: genes 26 Torsion [N]-C--CA-[N] |==|  0.59929
USER: genes 27 Torsion [C]-CA--CB-[CG] |==|  0.78747
USER: genes 28 Torsion [CA]-CB--CG-[OD2] |==|  0.14818
ROOT
ATOM      1  C   TRP D 340      23.810  36.180  81.241  1.00 16.52 LIG 0.24  C 
ATOM      2 O    TRP D 340      22.716  35.989  81.777  1.00 16.60 LIG-0.27  OA
ATOM      3  N   THR D 341      23.943  36.726  80.040  1.00 13.22 LIG-0.34  N 
ATOM      4 H    THR D 341      24.708  36.867  79.672  1.00 13.22 LIG 0.16  HD
ENDROOT
BRANCH 3 5
ATOM      5  CA  THR D 341      22.819  37.145  79.216  1.00 12.53 LIG 0.20  C 
BRANCH 5 6
ATOM      6  C   THR D 341      21.911  35.953  78.918  1.00 12.10 LIG 0.24  C 
ATOM      7 O    THR D 341      22.244  34.808  79.221  1.00 10.92 LIG-0.27  OA
ATOM      8  N   HIS D 342      20.744  36.224  78.347  1.00 12.26 LIG-0.35  N 
ATOM      9 H    HIS D 342      20.472  37.018  78.156  1.00 12.26 LIG 0.16  HD
BRANCH 8 10
ATOM     10  CA  HIS D 342      19.810  35.160  77.993  1.00 12.78 LIG 0.18  C 
BRANCH 10 11
ATOM     11  C   HIS D 342      19.551  35.204  76.502  1.00 14.51 LIG 0.24  C 
ATOM     12  N   LEU D 343      19.315  34.041  75.899  1.00 15.48 LIG-0.35  N 
ATOM     13 H    LEU D 343      19.237  33.294  76.316  1.00 15.48 LIG 0.16  HD
ATOM     14 O    HIS D 342      19.551  36.292  75.899  1.00 16.02 LIG-0.27  OA
BRANCH 12 15
ATOM     15  CA  LEU D 343      19.167  33.939  74.446  1.00 16.72 LIG 0.18  C 
BRANCH 15 16
ATOM     16  C   LEU D 343      17.918  33.182  74.000  1.00 19.19 LIG 0.24  C 
ATOM     17  N   SER D 344      16.780  33.891  73.918  1.00 21.37 LIG-0.34  N 
ATOM     18 H    SER D 344      16.685  34.668  74.273  1.00 21.37 LIG 0.16  HD
ATOM     19 O    LEU D 343      17.987  31.995  73.731  1.00 19.56 LIG-0.27  OA
BRANCH 17 20
ATOM     20  CA  SER D 344      15.570  33.413  73.209  1.00 23.14 LIG 0.19  C 
BRANCH 20 21
ATOM     21  C   SER D 344      14.750  34.590  72.662  1.00 24.18 LIG 0.22  C 
ATOM     22 O    SER D 344      15.267  35.444  71.921  1.00 25.35 LIG-0.29  OA
ENDBRANCH 20 21
BRANCH 20 23
ATOM     23  CB  SER D 344      14.681  32.566  74.121  1.00 23.66 LIG 0.20  C 
BRANCH 23 24
ATOM     24 OG   SER D 344      13.686  31.867  73.371  1.00 25.03 LIG-0.40  OA
ATOM     25 HG   SER D 344      13.886  31.884  72.556  1.00 25.03 LIG 0.21  HD
ENDBRANCH 23 24
ENDBRANCH 20 23
ENDBRANCH 17 20
ENDBRANCH 15 16
BRANCH 15 26
ATOM     26  CB  LEU D 343      20.390  33.241  73.825  1.00 15.83 LIG 0.04  C 
BRANCH 26 27
ATOM     27  CG  LEU D 343      21.720  33.955  73.959  1.00 14.86 LIG-0.02  C 
ATOM     28  CD1 LEU D 343      22.830  33.098  73.371  1.00 12.95 LIG 0.01  C 
ATOM     29  CD2 LEU D 343      21.657  35.340  73.266  1.00 12.95 LIG 0.01  C 
ENDBRANCH 26 27
ENDBRANCH 15 26
ENDBRANCH 12 15
ENDBRANCH 10 11
BRANCH 10 30
ATOM     30  CB  HIS D 342      18.483  35.346  78.746  1.00 12.90 LIG 0.10  C 
BRANCH 30 31
ATOM     31  CG  HIS D 342      17.323  34.662  78.098  1.00 12.99 LIG 0.06  A 
ATOM     32  CD2 HIS D 342      17.007  33.347  78.030  1.00 12.88 LIG 0.14  A 
ATOM     33 NE2  HIS D 342      15.839  33.248  77.317  1.00 14.80 LIG-0.25  NA
ATOM     34  CE1 HIS D 342      15.452  34.454  76.952  1.00 13.21 LIG 0.23  A 
ATOM     35 ND1  HIS D 342      16.334  35.327  77.405  1.00 14.49 LIG-0.24  NA
ENDBRANCH 30 31
ENDBRANCH 10 30
ENDBRANCH 8 10
ENDBRANCH 5 6
BRANCH 5 36
ATOM     36  CB  THR D 341      23.316  37.784  77.898  1.00 12.70 LIG 0.15  C 
ATOM     37  CG2 THR D 341      22.801  39.227  77.740  1.00 14.15 LIG 0.04  C 
BRANCH 36 38
ATOM     38 OG1  THR D 341      24.750  37.768  77.881  1.00 14.08 LIG-0.39  OA
ATOM     39 HG1  THR D 341      25.024  37.008  78.109  1.00 14.08 LIG 0.21  HD
ENDBRANCH 36 38
ENDBRANCH 5 36
ENDBRANCH 3 5
BRANCH 1 40
ATOM     40  CA  TRP D 340      25.099  35.740  81.926  1.00 18.72 LIG 0.18  C 
BRANCH 40 41
ATOM     41  CB  TRP D 340      24.730  34.767  83.045  1.00 19.00 LIG 0.07  C 
BRANCH 41 42
ATOM     42  CG  TRP D 340      24.977  33.332  82.734  1.00 19.22 LIG-0.03  A 
ATOM     43  CD2 TRP D 340      25.680  32.399  83.551  1.00 20.18 LIG-0.00  A 
ATOM     44  CE3 TRP D 340      26.290  32.481  84.808  1.00 18.70 LIG 0.01  A 
ATOM     45  CE2 TRP D 340      25.708  31.171  82.853  1.00 18.84 LIG 0.04  A 
ATOM     46  CZ3 TRP D 340      26.909  31.345  85.325  1.00 20.55 LIG 0.00  A 
ATOM     47  CH2 TRP D 340      26.912  30.137  84.604  1.00 19.52 LIG 0.00  A 
ATOM     48  CZ2 TRP D 340      26.324  30.030  83.371  1.00 19.79 LIG 0.03  A 
ATOM     49  NE1 TRP D 340      25.047  31.353  81.665  1.00 21.77 LIG-0.36  N 
ATOM     50  CD1 TRP D 340      24.625  32.662  81.599  1.00 20.48 LIG 0.10  A 
ATOM     51 HE1  TRP D 340      24.918  30.752  81.064  1.00 21.77 LIG 0.17  HD
ENDBRANCH 41 42
ENDBRANCH 40 41
BRANCH 40 52
ATOM     52  N   TRP D 340      25.846  36.882  82.464  1.00 22.23 LIG-0.35  N 
ATOM     53  C   ASP D 339      26.435  37.790  81.687  1.00 26.49 LIG 0.24  C 
ATOM     54 O    ASP D 339      26.395  37.752  80.445  1.00 27.22 LIG-0.27  OA
ATOM     55 H    TRP D 340      25.868  36.910  83.323  1.00 22.23 LIG 0.16  HD
BRANCH 53 56
ATOM     56  CA  ASP D 339      27.191  38.913  82.405  1.00 29.46 LIG 0.19  C 
BRANCH 56 57
ATOM     57  CB  ASP D 339      26.457  40.239  82.188  1.00 30.27 LIG 0.15  C 
BRANCH 57 58
ATOM     58  CG  ASP D 339      27.331  41.464  82.471  1.00 32.94 LIG 0.17  C 
ATOM     59 OD1  ASP D 339      27.174  42.052  83.563  1.00 36.53 LIG-0.65  OA
ATOM     60 OD2  ASP D 339      28.158  41.850  81.608  1.00 35.99 LIG-0.65  OA
ENDBRANCH 57 58
ENDBRANCH 56 57
BRANCH 56 61
ATOM     61  N   ASP D 339      28.559  39.029  81.910  1.00 31.22 LIG-0.34  N 
ATOM     62  C   ASP D 338      29.565  38.270  82.341  1.00 32.92 LIG 0.26  C 
ATOM     63 O    ASP D 338      29.413  37.260  83.036  1.00 33.60 LIG-0.27  OA
ATOM     64 H    ASP D 339      28.656  39.638  81.310  1.00 31.22 LIG 0.16  HD
BRANCH 62 65
ATOM     65  CA  ASP D 338      30.960  38.708  81.892  1.00 33.82 LIG 0.41  C 
ATOM     66  N   ASP D 338      31.835  37.519  81.635  1.00 34.02 LIG 0.61  N 
BRANCH 65 67
ATOM     67  CB  ASP D 338      30.860  39.590  80.637  1.00 34.49 LIG 0.16  C 
BRANCH 67 68
ATOM     68  CG  ASP D 338      30.591  38.789  79.369  1.00 35.92 LIG 0.17  C 
ATOM     69 OD2  ASP D 338      29.616  38.011  79.358  1.00 39.23 LIG-0.65  OA
ATOM     70 OD1  ASP D 338      31.355  38.923  78.383  1.00 38.97 LIG-0.65  OA
ENDBRANCH 67 68
ENDBRANCH 65 67
ENDBRANCH 62 65
ENDBRANCH 56 61
ENDBRANCH 53 56
ENDBRANCH 40 52
ENDBRANCH 1 40
TORSDOF 27
ENDMDL
MODEL 19
USER: ADFR SOLUTION from run 30
USER: SCORE 21.992877 LL:  -6.298 LR: -17.774 RR:   0.000 FEB:  -9.720
USER: RMSD 13.009226
USER: SEED 29
USER: STATUS no improvement in best in 5 clusters for 5 generations
USER: GENES 29
USER: genes 0 Translation |==|  0.28913 0.44217 0.38873
USER: genes 1 Rotation |==|  0.80769 0.21126 0.26274 0.62516
USER: genes 2 Torsion [C]-N--CA-[CB] |==|  0.22762
USER: genes 3 Torsion [N]-CA--C-[N] |==|  0.43889
USER: genes 4 Torsion [C]-N--CA-[C] |==|  0.61718
USER: genes 5 Torsion [N]-CA--C-[N] |==|  0.30955
USER: genes 6 Torsion [C]-N--CA-[C] |==|  0.75556
USER: genes 7 Torsion [N]-CA--C-[N] |==|  0.02307
USER: genes 8 Torsion [C]-N--CA-[C] |==|  0.84023
USER: genes 9 Torsion [N]-CA--C-[O] |==|  0.18253
USER: genes 10 Torsion [N]-CA--CB-[OG] |==|  0.72111
USER: genes 11 Torsion [CA]-CB--OG-[HG] |==|  0.48437
USER: genes 12 Torsion [N]-CA--CB-[CG] |==|  0.24296
USER: genes 13 Torsion [CA]-CB--CG-[CD2] |==|  0.70717
USER: genes 14 Torsion [N]-CA--CB-[CG] |==|  0.98144
USER: genes 15 Torsion [CA]-CB--CG-[CD2] |==|  0.71301
USER: genes 16 Torsion [N]-CA--CB-[OG1] |==|  0.03655
USER: genes 17 Torsion [CA]-CB--OG1-[HG1] |==|  0.08193
USER: genes 18 Torsion [N]-C--CA-[N] |==|  0.65023
USER: genes 19 Torsion [C]-CA--CB-[CG] |==|  0.80233
USER: genes 20 Torsion [CA]-CB--CG-[CD2] |==|  0.47538
USER: genes 21 Torsion [C]-CA--N-[C] |==|  0.69861
USER: genes 22 Torsion [N]-C--CA-[N] |==|  0.00095
USER: genes 23 Torsion [C]-CA--CB-[CG] |==|  0.59925
USER: genes 24 Torsion [CA]-CB--CG-[OD1] |==|  0.33100
USER: genes 25 Torsion [C]-CA--N-[C] |==|  0.77574
USER: genes 26 Torsion [N]-C--CA-[N] |==|  0.55798
USER: genes 27 Torsion [C]-CA--CB-[CG] |==|  0.51803
USER: genes 28 Torsion [CA]-CB--CG-[OD2] |==|  0.71383
ROOT
ATOM      1  C   TRP D 340      17.168  34.775  77.104  1.00 16.52 LIG 0.24  C 
ATOM      2 O    TRP D 340      16.412  35.471  77.787  1.00 16.60 LIG-0.27  OA
ATOM      3  N   THR D 341      18.426  34.524  77.441  1.00 13.22 LIG-0.34  N 
ATOM      4 H    THR D 341      18.948  34.031  76.968  1.00 13.22 LIG 0.16  HD
ENDROOT
BRANCH 3 5
ATOM      5  CA  THR D 341      19.059  35.051  78.642  1.00 12.53 LIG 0.20  C 
BRANCH 5 6
ATOM      6  C   THR D 341      20.575  35.105  78.459  1.00 12.10 LIG 0.24  C 
ATOM      7 O    THR D 341      21.137  34.418  77.609  1.00 10.92 LIG-0.27  OA
ATOM      8  N   HIS D 342      21.236  35.949  79.241  1.00 12.26 LIG-0.35  N 
ATOM      9 H    HIS D 342      20.864  36.466  79.820  1.00 12.26 LIG 0.16  HD
BRANCH 8 10
ATOM     10  CA  HIS D 342      22.689  36.063  79.171  1.00 12.78 LIG 0.18  C 
BRANCH 10 11
ATOM     11  C   HIS D 342      23.247  36.154  80.576  1.00 14.51 LIG 0.24  C 
ATOM     12  N   LEU D 343      23.959  35.116  81.008  1.00 15.48 LIG-0.35  N 
ATOM     13 H    LEU D 343      24.170  34.443  80.516  1.00 15.48 LIG 0.16  HD
ATOM     14 O    HIS D 342      23.046  37.171  81.264  1.00 16.02 LIG-0.27  OA
BRANCH 12 15
ATOM     15  CA  LEU D 343      24.452  35.035  82.385  1.00 16.72 LIG 0.18  C 
BRANCH 15 16
ATOM     16  C   LEU D 343      25.815  35.689  82.596  1.00 19.19 LIG 0.24  C 
ATOM     17  N   SER D 344      26.310  36.397  81.568  1.00 21.37 LIG-0.34  N 
ATOM     18 H    SER D 344      26.000  36.341  80.768  1.00 21.37 LIG 0.16  HD
ATOM     19 O    LEU D 343      26.393  35.564  83.663  1.00 19.56 LIG-0.27  OA
BRANCH 17 20
ATOM     20  CA  SER D 344      27.438  37.348  81.701  1.00 23.14 LIG 0.19  C 
BRANCH 20 21
ATOM     21  C   SER D 344      27.126  38.434  82.739  1.00 24.18 LIG 0.22  C 
ATOM     22 O    SER D 344      26.989  38.153  83.943  1.00 25.35 LIG-0.29  OA
ENDBRANCH 20 21
BRANCH 20 23
ATOM     23  CB  SER D 344      27.771  38.016  80.365  1.00 23.66 LIG 0.20  C 
BRANCH 23 24
ATOM     24 OG   SER D 344      28.904  37.403  79.747  1.00 25.03 LIG-0.40  OA
ATOM     25 HG   SER D 344      29.020  37.734  78.983  1.00 25.03 LIG 0.21  HD
ENDBRANCH 23 24
ENDBRANCH 20 23
ENDBRANCH 17 20
ENDBRANCH 15 16
BRANCH 15 26
ATOM     26  CB  LEU D 343      24.556  33.567  82.836  1.00 15.83 LIG 0.04  C 
BRANCH 26 27
ATOM     27  CG  LEU D 343      25.855  32.851  82.523  1.00 14.86 LIG-0.02  C 
ATOM     28  CD1 LEU D 343      26.363  32.132  83.763  1.00 12.95 LIG 0.01  C 
ATOM     29  CD2 LEU D 343      25.650  31.861  81.347  1.00 12.95 LIG 0.01  C 
ENDBRANCH 26 27
ENDBRANCH 15 26
ENDBRANCH 12 15
ENDBRANCH 10 11
BRANCH 10 30
ATOM     30  CB  HIS D 342      23.086  37.321  78.383  1.00 12.90 LIG 0.10  C 
BRANCH 30 31
ATOM     31  CG  HIS D 342      21.930  38.026  77.753  1.00 12.99 LIG 0.06  A 
ATOM     32  CD2 HIS D 342      21.512  38.048  76.464  1.00 12.88 LIG 0.14  A 
ATOM     33 NE2  HIS D 342      20.401  38.851  76.413  1.00 14.80 LIG-0.25  NA
ATOM     34  CE1 HIS D 342      20.145  39.314  77.621  1.00 13.21 LIG 0.23  A 
ATOM     35 ND1  HIS D 342      21.057  38.836  78.448  1.00 14.49 LIG-0.24  NA
ENDBRANCH 30 31
ENDBRANCH 10 30
ENDBRANCH 8 10
ENDBRANCH 5 6
BRANCH 5 36
ATOM     36  CB  THR D 341      18.696  34.188  79.873  1.00 12.70 LIG 0.15  C 
ATOM     37  CG2 THR D 341      17.732  34.929  80.818  1.00 14.15 LIG 0.04  C 
BRANCH 36 38
ATOM     38 OG1  THR D 341      18.104  32.961  79.427  1.00 14.08 LIG-0.39  OA
ATOM     39 HG1  THR D 341      18.413  32.758  78.674  1.00 14.08 LIG 0.21  HD
ENDBRANCH 36 38
ENDBRANCH 5 36
ENDBRANCH 3 5
BRANCH 1 40
ATOM     40  CA  TRP D 340      16.701  34.195  75.774  1.00 18.72 LIG 0.18  C 
BRANCH 40 41
ATOM     41  CB  TRP D 340      17.901  33.529  75.102  1.00 19.00 LIG 0.07  C 
BRANCH 41 42
ATOM     42  CG  TRP D 340      18.931  34.469  74.584  1.00 19.22 LIG-0.03  A 
ATOM     43  CD2 TRP D 340      20.217  34.119  74.078  1.00 20.18 LIG-0.00  A 
ATOM     44  CE3 TRP D 340      20.882  32.903  73.881  1.00 18.70 LIG 0.01  A 
ATOM     45  CE2 TRP D 340      20.874  35.323  73.736  1.00 18.84 LIG 0.04  A 
ATOM     46  CZ3 TRP D 340      22.172  32.924  73.355  1.00 20.55 LIG 0.00  A 
ATOM     47  CH2 TRP D 340      22.791  34.142  73.019  1.00 19.52 LIG 0.00  A 
ATOM     48  CZ2 TRP D 340      22.164  35.347  73.205  1.00 19.79 LIG 0.03  A 
ATOM     49  NE1 TRP D 340      20.019  36.358  74.019  1.00 21.77 LIG-0.36  N 
ATOM     50  CD1 TRP D 340      18.858  35.831  74.543  1.00 20.48 LIG 0.10  A 
ATOM     51 HE1  TRP D 340      20.179  37.193  73.892  1.00 21.77 LIG 0.17  HD
ENDBRANCH 41 42
ENDBRANCH 40 41
BRANCH 40 52
ATOM     52  N   TRP D 340      16.132  35.228  74.900  1.00 22.23 LIG-0.35  N 
ATOM     53  C   ASP D 339      14.829  35.311  74.636  1.00 26.49 LIG 0.24  C 
ATOM     54 O    ASP D 339      13.986  34.532  75.112  1.00 27.22 LIG-0.27  OA
ATOM     55 H    TRP D 340      16.715  35.770  74.576  1.00 22.23 LIG 0.16  HD
BRANCH 53 56
ATOM     56  CA  ASP D 339      14.397  36.438  73.691  1.00 29.46 LIG 0.19  C 
BRANCH 56 57
ATOM     57  CB  ASP D 339      13.685  35.838  72.476  1.00 30.27 LIG 0.15  C 
BRANCH 57 58
ATOM     58  CG  ASP D 339      13.971  36.597  71.176  1.00 32.94 LIG 0.17  C 
ATOM     59 OD1  ASP D 339      14.526  35.973  70.247  1.00 36.53 LIG-0.65  OA
ATOM     60 OD2  ASP D 339      13.659  37.811  71.084  1.00 35.99 LIG-0.65  OA
ENDBRANCH 57 58
ENDBRANCH 56 57
BRANCH 56 61
ATOM     61  N   ASP D 339      15.545  37.222  73.244  1.00 31.22 LIG-0.34  N 
ATOM     62  C   ASP D 338      16.108  38.184  73.972  1.00 32.92 LIG 0.26  C 
ATOM     63 O    ASP D 338      15.864  38.372  75.169  1.00 33.60 LIG-0.27  OA
ATOM     64 H    ASP D 339      15.825  37.002  72.462  1.00 31.22 LIG 0.16  HD
BRANCH 62 65
ATOM     65  CA  ASP D 338      17.129  39.053  73.238  1.00 33.82 LIG 0.41  C 
ATOM     66  N   ASP D 338      18.046  39.735  74.208  1.00 34.02 LIG 0.61  N 
BRANCH 65 67
ATOM     67  CB  ASP D 338      17.931  38.201  72.241  1.00 34.49 LIG 0.16  C 
BRANCH 67 68
ATOM     68  CG  ASP D 338      19.073  38.971  71.587  1.00 35.92 LIG 0.17  C 
ATOM     69 OD2  ASP D 338      18.920  39.371  70.416  1.00 39.23 LIG-0.65  OA
ATOM     70 OD1  ASP D 338      20.130  39.169  72.233  1.00 38.97 LIG-0.65  OA
ENDBRANCH 67 68
ENDBRANCH 65 67
ENDBRANCH 62 65
ENDBRANCH 56 61
ENDBRANCH 53 56
ENDBRANCH 40 52
ENDBRANCH 1 40
TORSDOF 27
ENDMDL
MODEL 20
USER: ADFR SOLUTION from run 46
USER: SCORE 21.644842 LL:  -5.358 LR: -17.730 RR:   0.000 FEB:  -9.676
USER: RMSD 4.144846
USER: SEED 45
USER: STATUS searching
USER: GENES 29
USER: genes 0 Translation |==|  0.52868 0.49313 0.56100
USER: genes 1 Rotation |==|  0.65497 0.48634 0.64796 0.95156
USER: genes 2 Torsion [C]-N--CA-[CB] |==|  0.54483
USER: genes 3 Torsion [N]-CA--C-[N] |==|  0.34562
USER: genes 4 Torsion [C]-N--CA-[C] |==|  0.84133
USER: genes 5 Torsion [N]-CA--C-[N] |==|  0.94378
USER: genes 6 Torsion [C]-N--CA-[C] |==|  0.68552
USER: genes 7 Torsion [N]-CA--C-[N] |==|  0.44152
USER: genes 8 Torsion [C]-N--CA-[C] |==|  0.85825
USER: genes 9 Torsion [N]-CA--C-[O] |==|  0.92080
USER: genes 10 Torsion [N]-CA--CB-[OG] |==|  0.00886
USER: genes 11 Torsion [CA]-CB--OG-[HG] |==|  0.77067
USER: genes 12 Torsion [N]-CA--CB-[CG] |==|  0.13022
USER: genes 13 Torsion [CA]-CB--CG-[CD2] |==|  0.72205
USER: genes 14 Torsion [N]-CA--CB-[CG] |==|  0.55993
USER: genes 15 Torsion [CA]-CB--CG-[CD2] |==|  0.59881
USER: genes 16 Torsion [N]-CA--CB-[OG1] |==|  0.94887
USER: genes 17 Torsion [CA]-CB--OG1-[HG1] |==|  0.14733
USER: genes 18 Torsion [N]-C--CA-[N] |==|  0.10940
USER: genes 19 Torsion [C]-CA--CB-[CG] |==|  0.35764
USER: genes 20 Torsion [CA]-CB--CG-[CD2] |==|  0.93479
USER: genes 21 Torsion [C]-CA--N-[C] |==|  0.17016
USER: genes 22 Torsion [N]-C--CA-[N] |==|  0.56771
USER: genes 23 Torsion [C]-CA--CB-[CG] |==|  0.32676
USER: genes 24 Torsion [CA]-CB--CG-[OD1] |==|  0.95479
USER: genes 25 Torsion [C]-CA--N-[C] |==|  0.56197
USER: genes 26 Torsion [N]-C--CA-[N] |==|  0.34144
USER: genes 27 Torsion [C]-CA--CB-[CG] |==|  0.81162
USER: genes 28 Torsion [CA]-CB--CG-[OD2] |==|  0.43856
ROOT
ATOM      1  C   TRP D 340      23.816  35.769  81.755  1.00 16.52 LIG 0.24  C 
ATOM      2 O    TRP D 340      22.812  35.565  82.442  1.00 16.60 LIG-0.27  OA
ATOM      3  N   THR D 341      23.774  36.354  80.565  1.00 13.22 LIG-0.34  N 
ATOM      4 H    THR D 341      24.477  36.503  80.092  1.00 13.22 LIG 0.16  HD
ENDROOT
BRANCH 3 5
ATOM      5  CA  THR D 341      22.543  36.804  79.931  1.00 12.53 LIG 0.20  C 
BRANCH 5 6
ATOM      6  C   THR D 341      21.437  35.769  80.133  1.00 12.10 LIG 0.24  C 
ATOM      7 O    THR D 341      21.600  34.594  79.809  1.00 10.92 LIG-0.27  OA
ATOM      8  N   HIS D 342      20.317  36.201  80.699  1.00 12.26 LIG-0.35  N 
ATOM      9 H    HIS D 342      20.190  37.008  80.965  1.00 12.26 LIG 0.16  HD
BRANCH 8 10
ATOM     10  CA  HIS D 342      19.186  35.305  80.915  1.00 12.78 LIG 0.18  C 
BRANCH 10 11
ATOM     11  C   HIS D 342      18.768  34.706  79.588  1.00 14.51 LIG 0.24  C 
ATOM     12  N   LEU D 343      19.151  35.351  78.490  1.00 15.48 LIG-0.35  N 
ATOM     13 H    LEU D 343      19.669  36.038  78.495  1.00 15.48 LIG 0.16  HD
ATOM     14 O    HIS D 342      18.111  33.649  79.559  1.00 16.02 LIG-0.27  OA
BRANCH 12 15
ATOM     15  CA  LEU D 343      18.713  34.937  77.155  1.00 16.72 LIG 0.18  C 
BRANCH 15 16
ATOM     16  C   LEU D 343      19.837  34.403  76.270  1.00 19.19 LIG 0.24  C 
ATOM     17  N   SER D 344      19.474  33.621  75.240  1.00 21.37 LIG-0.34  N 
ATOM     18 H    SER D 344      18.694  33.266  75.174  1.00 21.37 LIG 0.16  HD
ATOM     19 O    LEU D 343      20.996  34.700  76.509  1.00 19.56 LIG-0.27  OA
BRANCH 17 20
ATOM     20  CA  SER D 344      20.375  33.288  74.112  1.00 23.14 LIG 0.19  C 
BRANCH 20 21
ATOM     21  C   SER D 344      21.001  34.555  73.514  1.00 24.18 LIG 0.22  C 
ATOM     22 O    SER D 344      20.412  35.649  73.562  1.00 25.35 LIG-0.29  OA
ENDBRANCH 20 21
BRANCH 20 23
ATOM     23  CB  SER D 344      19.636  32.527  73.009  1.00 23.66 LIG 0.20  C 
BRANCH 23 24
ATOM     24 OG   SER D 344      18.246  32.394  73.311  1.00 25.03 LIG-0.40  OA
ATOM     25 HG   SER D 344      18.134  31.741  73.828  1.00 25.03 LIG 0.21  HD
ENDBRANCH 23 24
ENDBRANCH 20 23
ENDBRANCH 17 20
ENDBRANCH 15 16
BRANCH 15 26
ATOM     26  CB  LEU D 343      18.046  36.110  76.417  1.00 15.83 LIG 0.04  C 
BRANCH 26 27
ATOM     27  CG  LEU D 343      18.773  37.439  76.454  1.00 14.86 LIG-0.02  C 
ATOM     28  CD1 LEU D 343      18.741  38.088  75.079  1.00 12.95 LIG 0.01  C 
ATOM     29  CD2 LEU D 343      18.141  38.365  77.524  1.00 12.95 LIG 0.01  C 
ENDBRANCH 26 27
ENDBRANCH 15 26
ENDBRANCH 12 15
ENDBRANCH 10 11
BRANCH 10 30
ATOM     30  CB  HIS D 342      18.003  36.078  81.518  1.00 12.90 LIG 0.10  C 
BRANCH 30 31
ATOM     31  CG  HIS D 342      17.019  35.211  82.233  1.00 12.99 LIG 0.06  A 
ATOM     32  CD2 HIS D 342      15.671  35.306  82.326  1.00 12.88 LIG 0.14  A 
ATOM     33 NE2  HIS D 342      15.244  34.259  83.104  1.00 14.80 LIG-0.25  NA
ATOM     34  CE1 HIS D 342      16.288  33.548  83.483  1.00 13.21 LIG 0.23  A 
ATOM     35 ND1  HIS D 342      17.374  34.105  82.977  1.00 14.49 LIG-0.24  NA
ENDBRANCH 30 31
ENDBRANCH 10 30
ENDBRANCH 8 10
ENDBRANCH 5 6
BRANCH 5 36
ATOM     36  CB  THR D 341      22.769  37.062  78.424  1.00 12.70 LIG 0.15  C 
ATOM     37  CG2 THR D 341      22.019  38.321  77.947  1.00 14.15 LIG 0.04  C 
BRANCH 36 38
ATOM     38 OG1  THR D 341      24.175  37.203  78.177  1.00 14.08 LIG-0.39  OA
ATOM     39 HG1  THR D 341      24.582  36.540  78.492  1.00 14.08 LIG 0.21  HD
ENDBRANCH 36 38
ENDBRANCH 5 36
ENDBRANCH 3 5
BRANCH 1 40
ATOM     40  CA  TRP D 340      25.188  35.301  82.226  1.00 18.72 LIG 0.18  C 
BRANCH 40 41
ATOM     41  CB  TRP D 340      25.127  35.107  83.740  1.00 19.00 LIG 0.07  C 
BRANCH 41 42
ATOM     42  CG  TRP D 340      25.619  33.788  84.223  1.00 19.22 LIG-0.03  A 
ATOM     43  CD2 TRP D 340      25.685  32.582  83.467  1.00 20.18 LIG-0.00  A 
ATOM     44  CE3 TRP D 340      25.377  32.252  82.142  1.00 18.70 LIG 0.01  A 
ATOM     45  CE2 TRP D 340      26.175  31.574  84.329  1.00 18.84 LIG 0.04  A 
ATOM     46  CZ3 TRP D 340      25.562  30.937  81.721  1.00 20.55 LIG 0.00  A 
ATOM     47  CH2 TRP D 340      26.058  29.962  82.605  1.00 19.52 LIG 0.00  A 
ATOM     48  CZ2 TRP D 340      26.365  30.257  83.908  1.00 19.79 LIG 0.03  A 
ATOM     49  NE1 TRP D 340      26.399  32.149  85.554  1.00 21.77 LIG-0.36  N 
ATOM     50  CD1 TRP D 340      26.046  33.479  85.482  1.00 20.48 LIG 0.10  A 
ATOM     51 HE1  TRP D 340      26.708  31.747  86.249  1.00 21.77 LIG 0.17  HD
ENDBRANCH 41 42
ENDBRANCH 40 41
BRANCH 40 52
ATOM     52  N   TRP D 340      26.241  36.261  81.873  1.00 22.23 LIG-0.35  N 
ATOM     53  C   ASP D 339      26.255  37.514  82.325  1.00 26.49 LIG 0.24  C 
ATOM     54 O    ASP D 339      25.387  37.974  83.087  1.00 27.22 LIG-0.27  OA
ATOM     55 H    TRP D 340      26.844  35.940  81.351  1.00 22.23 LIG 0.16  HD
BRANCH 53 56
ATOM     56  CA  ASP D 339      27.416  38.395  81.852  1.00 29.46 LIG 0.19  C 
BRANCH 56 57
ATOM     57  CB  ASP D 339      28.678  37.541  81.710  1.00 30.27 LIG 0.15  C 
BRANCH 57 58
ATOM     58  CG  ASP D 339      29.211  37.488  80.275  1.00 32.94 LIG 0.17  C 
ATOM     59 OD1  ASP D 339      28.445  37.846  79.356  1.00 36.53 LIG-0.65  OA
ATOM     60 OD2  ASP D 339      30.379  37.077  80.060  1.00 35.99 LIG-0.65  OA
ENDBRANCH 57 58
ENDBRANCH 56 57
BRANCH 56 61
ATOM     61  N   ASP D 339      27.669  39.484  82.791  1.00 31.22 LIG-0.34  N 
ATOM     62  C   ASP D 338      28.291  40.614  82.459  1.00 32.92 LIG 0.26  C 
ATOM     63 O    ASP D 338      28.527  40.950  81.293  1.00 33.60 LIG-0.27  OA
ATOM     64 H    ASP D 339      27.377  39.326  83.584  1.00 31.22 LIG 0.16  HD
BRANCH 62 65
ATOM     65  CA  ASP D 338      28.683  41.518  83.627  1.00 33.82 LIG 0.41  C 
ATOM     66  N   ASP D 338      30.158  41.786  83.623  1.00 34.02 LIG 0.61  N 
BRANCH 65 67
ATOM     67  CB  ASP D 338      27.893  42.834  83.568  1.00 34.49 LIG 0.16  C 
BRANCH 67 68
ATOM     68  CG  ASP D 338      28.281  43.707  82.380  1.00 35.92 LIG 0.17  C 
ATOM     69 OD2  ASP D 338      27.464  44.560  81.983  1.00 39.23 LIG-0.65  OA
ATOM     70 OD1  ASP D 338      29.397  43.538  81.832  1.00 38.97 LIG-0.65  OA
ENDBRANCH 67 68
ENDBRANCH 65 67
ENDBRANCH 62 65
ENDBRANCH 56 61
ENDBRANCH 53 56
ENDBRANCH 40 52
ENDBRANCH 1 40
TORSDOF 27
ENDMDL
MODEL 21
USER: ADFR SOLUTION from run 148
USER: SCORE 21.342625 LL:  -5.516 LR: -17.691 RR:   0.000 FEB:  -9.637
USER: RMSD 4.389370
USER: SEED 147
USER: STATUS no improvement in best in 5 clusters for 5 generations
USER: GENES 29
USER: genes 0 Translation |==|  0.52399 0.49511 0.55683
USER: genes 1 Rotation |==|  0.31644 0.67985 0.47687 0.92828
USER: genes 2 Torsion [C]-N--CA-[CB] |==|  0.79433
USER: genes 3 Torsion [N]-CA--C-[N] |==|  0.13119
USER: genes 4 Torsion [C]-N--CA-[C] |==|  0.69282
USER: genes 5 Torsion [N]-CA--C-[N] |==|  0.04874
USER: genes 6 Torsion [C]-N--CA-[C] |==|  0.65280
USER: genes 7 Torsion [N]-CA--C-[N] |==|  0.76016
USER: genes 8 Torsion [C]-N--CA-[C] |==|  0.12511
USER: genes 9 Torsion [N]-CA--C-[O] |==|  0.30065
USER: genes 10 Torsion [N]-CA--CB-[OG] |==|  0.81216
USER: genes 11 Torsion [CA]-CB--OG-[HG] |==|  0.13394
USER: genes 12 Torsion [N]-CA--CB-[CG] |==|  0.59238
USER: genes 13 Torsion [CA]-CB--CG-[CD2] |==|  0.46160
USER: genes 14 Torsion [N]-CA--CB-[CG] |==|  0.68926
USER: genes 15 Torsion [CA]-CB--CG-[CD2] |==|  0.28520
USER: genes 16 Torsion [N]-CA--CB-[OG1] |==|  0.96320
USER: genes 17 Torsion [CA]-CB--OG1-[HG1] |==|  0.47502
USER: genes 18 Torsion [N]-C--CA-[N] |==|  0.48925
USER: genes 19 Torsion [C]-CA--CB-[CG] |==|  0.28654
USER: genes 20 Torsion [CA]-CB--CG-[CD2] |==|  0.40904
USER: genes 21 Torsion [C]-CA--N-[C] |==|  0.80099
USER: genes 22 Torsion [N]-C--CA-[N] |==|  0.30699
USER: genes 23 Torsion [C]-CA--CB-[CG] |==|  0.52284
USER: genes 24 Torsion [CA]-CB--CG-[OD1] |==|  0.70038
USER: genes 25 Torsion [C]-CA--N-[C] |==|  0.69853
USER: genes 26 Torsion [N]-C--CA-[N] |==|  0.41923
USER: genes 27 Torsion [C]-CA--CB-[CG] |==|  0.67963
USER: genes 28 Torsion [CA]-CB--CG-[OD2] |==|  0.18586
ROOT
ATOM      1  C   TRP D 340      23.686  35.808  81.642  1.00 16.52 LIG 0.24  C 
ATOM      2 O    TRP D 340      23.318  36.972  81.817  1.00 16.60 LIG-0.27  OA
ATOM      3  N   THR D 341      22.879  34.851  81.202  1.00 13.22 LIG-0.34  N 
ATOM      4 H    THR D 341      23.141  34.042  81.072  1.00 13.22 LIG 0.16  HD
ENDROOT
BRANCH 3 5
ATOM      5  CA  THR D 341      21.473  35.062  80.891  1.00 12.53 LIG 0.20  C 
BRANCH 5 6
ATOM      6  C   THR D 341      21.307  36.303  80.015  1.00 12.10 LIG 0.24  C 
ATOM      7 O    THR D 341      20.474  37.166  80.287  1.00 10.92 LIG-0.27  OA
ATOM      8  N   HIS D 342      22.124  36.408  78.975  1.00 12.26 LIG-0.35  N 
ATOM      9 H    HIS D 342      22.737  35.837  78.782  1.00 12.26 LIG 0.16  HD
BRANCH 8 10
ATOM     10  CA  HIS D 342      22.036  37.538  78.056  1.00 12.78 LIG 0.18  C 
BRANCH 10 11
ATOM     11  C   HIS D 342      21.513  37.051  76.721  1.00 14.51 LIG 0.24  C 
ATOM     12  N   LEU D 343      20.908  35.867  76.708  1.00 15.48 LIG-0.35  N 
ATOM     13 H    LEU D 343      20.743  35.407  77.415  1.00 15.48 LIG 0.16  HD
ATOM     14 O    HIS D 342      21.646  37.756  75.703  1.00 16.02 LIG-0.27  OA
BRANCH 12 15
ATOM     15  CA  LEU D 343      20.465  35.237  75.462  1.00 16.72 LIG 0.18  C 
BRANCH 15 16
ATOM     16  C   LEU D 343      18.985  34.862  75.448  1.00 19.19 LIG 0.24  C 
ATOM     17  N   SER D 344      18.661  33.664  75.962  1.00 21.37 LIG-0.34  N 
ATOM     18 H    SER D 344      19.240  33.048  76.114  1.00 21.37 LIG 0.16  HD
ATOM     19 O    LEU D 343      18.162  35.640  74.993  1.00 19.56 LIG-0.27  OA
BRANCH 17 20
ATOM     20  CA  SER D 344      17.277  33.278  76.322  1.00 23.14 LIG 0.19  C 
BRANCH 20 21
ATOM     21  C   SER D 344      16.288  33.678  75.218  1.00 24.18 LIG 0.22  C 
ATOM     22 O    SER D 344      15.757  32.822  74.489  1.00 25.35 LIG-0.29  OA
ENDBRANCH 20 21
BRANCH 20 23
ATOM     23  CB  SER D 344      16.839  33.918  77.641  1.00 23.66 LIG 0.20  C 
BRANCH 23 24
ATOM     24 OG   SER D 344      17.574  33.387  78.745  1.00 25.03 LIG-0.40  OA
ATOM     25 HG   SER D 344      18.395  33.391  78.562  1.00 25.03 LIG 0.21  HD
ENDBRANCH 23 24
ENDBRANCH 20 23
ENDBRANCH 17 20
ENDBRANCH 15 16
BRANCH 15 26
ATOM     26  CB  LEU D 343      21.279  33.961  75.182  1.00 15.83 LIG 0.04  C 
BRANCH 26 27
ATOM     27  CG  LEU D 343      21.545  33.631  73.727  1.00 14.86 LIG-0.02  C 
ATOM     28  CD1 LEU D 343      21.942  34.890  72.972  1.00 12.95 LIG 0.01  C 
ATOM     29  CD2 LEU D 343      22.645  32.544  73.617  1.00 12.95 LIG 0.01  C 
ENDBRANCH 26 27
ENDBRANCH 15 26
ENDBRANCH 12 15
ENDBRANCH 10 11
BRANCH 10 30
ATOM     30  CB  HIS D 342      23.421  38.173  77.860  1.00 12.90 LIG 0.10  C 
BRANCH 30 31
ATOM     31  CG  HIS D 342      23.543  39.543  78.443  1.00 12.99 LIG 0.06  A 
ATOM     32  CD2 HIS D 342      24.136  39.959  79.588  1.00 12.88 LIG 0.14  A 
ATOM     33 NE2  HIS D 342      23.962  41.318  79.663  1.00 14.80 LIG-0.25  NA
ATOM     34  CE1 HIS D 342      23.283  41.726  78.609  1.00 13.21 LIG 0.23  A 
ATOM     35 ND1  HIS D 342      23.011  40.673  77.859  1.00 14.49 LIG-0.24  NA
ENDBRANCH 30 31
ENDBRANCH 10 30
ENDBRANCH 8 10
ENDBRANCH 5 6
BRANCH 5 36
ATOM     36  CB  THR D 341      20.644  35.205  82.188  1.00 12.70 LIG 0.15  C 
ATOM     37  CG2 THR D 341      19.345  34.379  82.122  1.00 14.15 LIG 0.04  C 
BRANCH 36 38
ATOM     38 OG1  THR D 341      21.440  34.782  83.303  1.00 14.08 LIG-0.39  OA
ATOM     39 HG1  THR D 341      21.043  34.971  84.019  1.00 14.08 LIG 0.21  HD
ENDBRANCH 36 38
ENDBRANCH 5 36
ENDBRANCH 3 5
BRANCH 1 40
ATOM     40  CA  TRP D 340      25.109  35.383  81.983  1.00 18.72 LIG 0.18  C 
BRANCH 40 41
ATOM     41  CB  TRP D 340      25.039  34.363  83.118  1.00 19.00 LIG 0.07  C 
BRANCH 41 42
ATOM     42  CG  TRP D 340      25.236  32.948  82.703  1.00 19.22 LIG-0.03  A 
ATOM     43  CD2 TRP D 340      25.851  31.918  83.473  1.00 20.18 LIG-0.00  A 
ATOM     44  CE3 TRP D 340      26.396  31.868  84.761  1.00 18.70 LIG 0.01  A 
ATOM     45  CE2 TRP D 340      25.861  30.750  82.677  1.00 18.84 LIG 0.04  A 
ATOM     46  CZ3 TRP D 340      26.934  30.664  85.213  1.00 20.55 LIG 0.00  A 
ATOM     47  CH2 TRP D 340      26.920  29.519  84.395  1.00 19.52 LIG 0.00  A 
ATOM     48  CZ2 TRP D 340      26.395  29.542  83.129  1.00 19.79 LIG 0.03  A 
ATOM     49  NE1 TRP D 340      25.273  31.060  81.478  1.00 21.77 LIG-0.36  N 
ATOM     50  CD1 TRP D 340      24.915  32.390  81.499  1.00 20.48 LIG 0.10  A 
ATOM     51 HE1  TRP D 340      25.149  30.516  80.823  1.00 21.77 LIG 0.17  HD
ENDBRANCH 41 42
ENDBRANCH 40 41
BRANCH 40 52
ATOM     52  N   TRP D 340      25.941  36.528  82.372  1.00 22.23 LIG-0.35  N 
ATOM     53  C   ASP D 339      26.358  37.445  81.501  1.00 26.49 LIG 0.24  C 
ATOM     54 O    ASP D 339      26.074  37.415  80.291  1.00 27.22 LIG-0.27  OA
ATOM     55 H    TRP D 340      26.131  36.550  83.210  1.00 22.23 LIG 0.16  HD
BRANCH 53 56
ATOM     56  CA  ASP D 339      27.232  38.571  82.064  1.00 29.46 LIG 0.19  C 
BRANCH 56 57
ATOM     57  CB  ASP D 339      26.658  39.924  81.637  1.00 30.27 LIG 0.15  C 
BRANCH 57 58
ATOM     58  CG  ASP D 339      27.573  41.103  81.983  1.00 32.94 LIG 0.17  C 
ATOM     59 OD1  ASP D 339      27.221  41.859  82.913  1.00 36.53 LIG-0.65  OA
ATOM     60 OD2  ASP D 339      28.627  41.285  81.324  1.00 35.99 LIG-0.65  OA
ENDBRANCH 57 58
ENDBRANCH 56 57
BRANCH 56 61
ATOM     61  N   ASP D 339      28.609  38.457  81.592  1.00 31.22 LIG-0.34  N 
ATOM     62  C   ASP D 338      29.626  38.088  82.369  1.00 32.92 LIG 0.26  C 
ATOM     63 O    ASP D 338      29.488  37.604  83.497  1.00 33.60 LIG-0.27  OA
ATOM     64 H    ASP D 339      28.703  38.651  80.759  1.00 31.22 LIG 0.16  HD
BRANCH 62 65
ATOM     65  CA  ASP D 338      31.018  38.271  81.762  1.00 33.82 LIG 0.41  C 
ATOM     66  N   ASP D 338      32.038  38.518  82.831  1.00 34.02 LIG 0.61  N 
BRANCH 65 67
ATOM     67  CB  ASP D 338      31.397  37.039  80.925  1.00 34.49 LIG 0.16  C 
BRANCH 67 68
ATOM     68  CG  ASP D 338      32.589  36.279  81.495  1.00 35.92 LIG 0.17  C 
ATOM     69 OD2  ASP D 338      32.452  35.700  82.590  1.00 39.23 LIG-0.65  OA
ATOM     70 OD1  ASP D 338      33.670  36.264  80.858  1.00 38.97 LIG-0.65  OA
ENDBRANCH 67 68
ENDBRANCH 65 67
ENDBRANCH 62 65
ENDBRANCH 56 61
ENDBRANCH 53 56
ENDBRANCH 40 52
ENDBRANCH 1 40
TORSDOF 27
ENDMDL
MODEL 22
USER: ADFR SOLUTION from run 105
USER: SCORE 21.738948 LL:  -6.169 LR: -17.639 RR:   0.000 FEB:  -9.585
USER: RMSD 12.031680
USER: SEED 104
USER: STATUS searching
USER: GENES 29
USER: genes 0 Translation |==|  0.55341 0.55507 0.55516
USER: genes 1 Rotation |==|  0.55301 0.47138 0.17845 0.87812
USER: genes 2 Torsion [C]-N--CA-[CB] |==|  0.80355
USER: genes 3 Torsion [N]-CA--C-[N] |==|  0.20656
USER: genes 4 Torsion [C]-N--CA-[C] |==|  0.16509
USER: genes 5 Torsion [N]-CA--C-[N] |==|  0.63688
USER: genes 6 Torsion [C]-N--CA-[C] |==|  0.18287
USER: genes 7 Torsion [N]-CA--C-[N] |==|  0.09975
USER: genes 8 Torsion [C]-N--CA-[C] |==|  0.54711
USER: genes 9 Torsion [N]-CA--C-[O] |==|  0.90856
USER: genes 10 Torsion [N]-CA--CB-[OG] |==|  0.74352
USER: genes 11 Torsion [CA]-CB--OG-[HG] |==|  0.62128
USER: genes 12 Torsion [N]-CA--CB-[CG] |==|  0.77781
USER: genes 13 Torsion [CA]-CB--CG-[CD2] |==|  0.37161
USER: genes 14 Torsion [N]-CA--CB-[CG] |==|  0.56837
USER: genes 15 Torsion [CA]-CB--CG-[CD2] |==|  0.91497
USER: genes 16 Torsion [N]-CA--CB-[OG1] |==|  0.20917
USER: genes 17 Torsion [CA]-CB--OG1-[HG1] |==|  0.98642
USER: genes 18 Torsion [N]-C--CA-[N] |==|  0.84939
USER: genes 19 Torsion [C]-CA--CB-[CG] |==|  0.29796
USER: genes 20 Torsion [CA]-CB--CG-[CD2] |==|  0.45180
USER: genes 21 Torsion [C]-CA--N-[C] |==|  0.22222
USER: genes 22 Torsion [N]-C--CA-[N] |==|  0.48519
USER: genes 23 Torsion [C]-CA--CB-[CG] |==|  0.54804
USER: genes 24 Torsion [CA]-CB--CG-[OD1] |==|  0.25629
USER: genes 25 Torsion [C]-CA--N-[C] |==|  0.78882
USER: genes 26 Torsion [N]-C--CA-[N] |==|  0.21141
USER: genes 27 Torsion [C]-CA--CB-[CG] |==|  0.78572
USER: genes 28 Torsion [CA]-CB--CG-[OD2] |==|  0.00212
ROOT
ATOM      1  C   TRP D 340      24.502  36.977  81.597  1.00 16.52 LIG 0.24  C 
ATOM      2 O    TRP D 340      25.021  37.811  82.344  1.00 16.60 LIG-0.27  OA
ATOM      3  N   THR D 341      24.547  37.060  80.274  1.00 13.22 LIG-0.34  N 
ATOM      4 H    THR D 341      24.193  36.472  79.756  1.00 13.22 LIG 0.16  HD
ENDROOT
BRANCH 3 5
ATOM      5  CA  THR D 341      25.196  38.149  79.557  1.00 12.53 LIG 0.20  C 
BRANCH 5 6
ATOM      6  C   THR D 341      26.622  38.341  80.069  1.00 12.10 LIG 0.24  C 
ATOM      7 O    THR D 341      26.910  39.277  80.813  1.00 10.92 LIG-0.27  OA
ATOM      8  N   HIS D 342      27.514  37.433  79.693  1.00 12.26 LIG-0.35  N 
ATOM      9 H    HIS D 342      27.333  36.751  79.202  1.00 12.26 LIG 0.16  HD
BRANCH 8 10
ATOM     10  CA  HIS D 342      28.912  37.533  80.101  1.00 12.78 LIG 0.18  C 
BRANCH 10 11
ATOM     11  C   HIS D 342      28.989  37.517  81.613  1.00 14.51 LIG 0.24  C 
ATOM     12  N   LEU D 343      29.723  38.467  82.187  1.00 15.48 LIG-0.35  N 
ATOM     13 H    LEU D 343      30.090  39.114  81.756  1.00 15.48 LIG 0.16  HD
ATOM     14 O    HIS D 342      28.371  36.653  82.261  1.00 16.02 LIG-0.27  OA
BRANCH 12 15
ATOM     15  CA  LEU D 343      29.969  38.488  83.631  1.00 16.72 LIG 0.18  C 
BRANCH 15 16
ATOM     16  C   LEU D 343      30.807  37.316  84.136  1.00 19.19 LIG 0.24  C 
ATOM     17  N   SER D 344      31.784  36.879  83.325  1.00 21.37 LIG-0.34  N 
ATOM     18 H    SER D 344      31.832  37.091  82.493  1.00 21.37 LIG 0.16  HD
ATOM     19 O    LEU D 343      30.580  36.831  85.232  1.00 19.56 LIG-0.27  OA
BRANCH 17 20
ATOM     20  CA  SER D 344      32.879  35.989  83.773  1.00 23.14 LIG 0.19  C 
BRANCH 20 21
ATOM     21  C   SER D 344      34.044  36.000  82.773  1.00 24.18 LIG 0.22  C 
ATOM     22 O    SER D 344      33.843  36.142  81.553  1.00 25.35 LIG-0.29  OA
ENDBRANCH 20 21
BRANCH 20 23
ATOM     23  CB  SER D 344      32.395  34.549  83.958  1.00 23.66 LIG 0.20  C 
BRANCH 23 24
ATOM     24 OG   SER D 344      31.978  34.312  85.304  1.00 25.03 LIG-0.40  OA
ATOM     25 HG   SER D 344      32.275  33.570  85.563  1.00 25.03 LIG 0.21  HD
ENDBRANCH 23 24
ENDBRANCH 20 23
ENDBRANCH 17 20
ENDBRANCH 15 16
BRANCH 15 26
ATOM     26  CB  LEU D 343      28.639  38.488  84.406  1.00 15.83 LIG 0.04  C 
BRANCH 26 27
ATOM     27  CG  LEU D 343      27.922  39.818  84.526  1.00 14.86 LIG-0.02  C 
ATOM     28  CD1 LEU D 343      28.566  40.840  83.603  1.00 12.95 LIG 0.01  C 
ATOM     29  CD2 LEU D 343      26.416  39.645  84.204  1.00 12.95 LIG 0.01  C 
ENDBRANCH 26 27
ENDBRANCH 15 26
ENDBRANCH 12 15
ENDBRANCH 10 11
BRANCH 10 30
ATOM     30  CB  HIS D 342      29.528  38.838  79.573  1.00 12.90 LIG 0.10  C 
BRANCH 30 31
ATOM     31  CG  HIS D 342      31.012  38.783  79.417  1.00 12.99 LIG 0.06  A 
ATOM     32  CD2 HIS D 342      31.942  38.083  80.111  1.00 12.88 LIG 0.14  A 
ATOM     33 NE2  HIS D 342      33.165  38.389  79.571  1.00 14.80 LIG-0.25  NA
ATOM     34  CE1 HIS D 342      33.000  39.249  78.585  1.00 13.21 LIG 0.23  A 
ATOM     35 ND1  HIS D 342      31.709  39.509  78.475  1.00 14.49 LIG-0.24  NA
ENDBRANCH 30 31
ENDBRANCH 10 30
ENDBRANCH 8 10
ENDBRANCH 5 6
BRANCH 5 36
ATOM     36  CB  THR D 341      24.389  39.459  79.709  1.00 12.70 LIG 0.15  C 
ATOM     37  CG2 THR D 341      22.885  39.229  79.466  1.00 14.15 LIG 0.04  C 
BRANCH 36 38
ATOM     38 OG1  THR D 341      24.600  39.990  81.024  1.00 14.08 LIG-0.39  OA
ATOM     39 HG1  THR D 341      25.064  39.453  81.472  1.00 14.08 LIG 0.21  HD
ENDBRANCH 36 38
ENDBRANCH 5 36
ENDBRANCH 3 5
BRANCH 1 40
ATOM     40  CA  TRP D 340      23.717  35.803  82.170  1.00 18.72 LIG 0.18  C 
BRANCH 40 41
ATOM     41  CB  TRP D 340      24.467  34.518  81.822  1.00 19.00 LIG 0.07  C 
BRANCH 41 42
ATOM     42  CG  TRP D 340      25.160  33.867  82.967  1.00 19.22 LIG-0.03  A 
ATOM     43  CD2 TRP D 340      25.628  32.522  83.018  1.00 20.18 LIG-0.00  A 
ATOM     44  CE3 TRP D 340      25.633  31.463  82.102  1.00 18.70 LIG 0.01  A 
ATOM     45  CE2 TRP D 340      26.183  32.320  84.302  1.00 18.84 LIG 0.04  A 
ATOM     46  CZ3 TRP D 340      26.184  30.245  82.492  1.00 20.55 LIG 0.00  A 
ATOM     47  CH2 TRP D 340      26.734  30.083  83.777  1.00 19.52 LIG 0.00  A 
ATOM     48  CZ2 TRP D 340      26.739  31.102  84.694  1.00 19.79 LIG 0.03  A 
ATOM     49  NE1 TRP D 340      26.058  33.496  84.998  1.00 21.77 LIG-0.36  N 
ATOM     50  CD1 TRP D 340      25.427  34.415  84.188  1.00 20.48 LIG 0.10  A 
ATOM     51 HE1  TRP D 340      26.328  33.636  85.802  1.00 21.77 LIG 0.17  HD
ENDBRANCH 41 42
ENDBRANCH 40 41
BRANCH 40 52
ATOM     52  N   TRP D 340      22.347  35.756  81.644  1.00 22.23 LIG-0.35  N 
ATOM     53  C   ASP D 339      22.052  35.256  80.445  1.00 26.49 LIG 0.24  C 
ATOM     54 O    ASP D 339      22.905  34.780  79.676  1.00 27.22 LIG-0.27  OA
ATOM     55 H    TRP D 340      21.758  36.079  82.179  1.00 22.23 LIG 0.16  HD
BRANCH 53 56
ATOM     56  CA  ASP D 339      20.575  35.294  80.037  1.00 29.46 LIG 0.19  C 
BRANCH 56 57
ATOM     57  CB  ASP D 339      19.763  34.402  80.980  1.00 30.27 LIG 0.15  C 
BRANCH 57 58
ATOM     58  CG  ASP D 339      18.384  34.037  80.423  1.00 32.94 LIG 0.17  C 
ATOM     59 OD1  ASP D 339      18.282  32.977  79.770  1.00 36.53 LIG-0.65  OA
ATOM     60 OD2  ASP D 339      17.410  34.807  80.621  1.00 35.99 LIG-0.65  OA
ENDBRANCH 57 58
ENDBRANCH 56 57
BRANCH 56 61
ATOM     61  N   ASP D 339      20.396  34.836  78.662  1.00 31.22 LIG-0.34  N 
ATOM     62  C   ASP D 338      20.693  35.576  77.594  1.00 32.92 LIG 0.26  C 
ATOM     63 O    ASP D 338      21.341  36.627  77.647  1.00 33.60 LIG-0.27  OA
ATOM     64 H    ASP D 339      20.079  34.039  78.605  1.00 31.22 LIG 0.16  HD
BRANCH 62 65
ATOM     65  CA  ASP D 338      20.204  35.026  76.255  1.00 33.82 LIG 0.41  C 
ATOM     66  N   ASP D 338      18.731  35.250  76.092  1.00 34.02 LIG 0.61  N 
BRANCH 65 67
ATOM     67  CB  ASP D 338      20.982  35.674  75.099  1.00 34.49 LIG 0.16  C 
BRANCH 67 68
ATOM     68  CG  ASP D 338      20.514  37.091  74.789  1.00 35.92 LIG 0.17  C 
ATOM     69 OD2  ASP D 338      19.596  37.573  75.481  1.00 39.23 LIG-0.65  OA
ATOM     70 OD1  ASP D 338      21.051  37.725  73.849  1.00 38.97 LIG-0.65  OA
ENDBRANCH 67 68
ENDBRANCH 65 67
ENDBRANCH 62 65
ENDBRANCH 56 61
ENDBRANCH 53 56
ENDBRANCH 40 52
ENDBRANCH 1 40
TORSDOF 27
ENDMDL
MODEL 23
USER: ADFR SOLUTION from run 152
USER: SCORE 20.066521 LL:  -5.258 LR: -17.624 RR:   0.000 FEB:  -9.570
USER: RMSD 12.266539
USER: SEED 151
USER: STATUS no improvement in best in 6 clusters for 5 generations
USER: GENES 29
USER: genes 0 Translation |==|  0.41847 0.48062 0.42662
USER: genes 1 Rotation |==|  0.68394 0.84127 0.18613 0.53437
USER: genes 2 Torsion [C]-N--CA-[CB] |==|  0.39437
USER: genes 3 Torsion [N]-CA--C-[N] |==|  0.40844
USER: genes 4 Torsion [C]-N--CA-[C] |==|  0.65356
USER: genes 5 Torsion [N]-CA--C-[N] |==|  0.84271
USER: genes 6 Torsion [C]-N--CA-[C] |==|  0.61751
USER: genes 7 Torsion [N]-CA--C-[N] |==|  0.41528
USER: genes 8 Torsion [C]-N--CA-[C] |==|  0.81181
USER: genes 9 Torsion [N]-CA--C-[O] |==|  0.41791
USER: genes 10 Torsion [N]-CA--CB-[OG] |==|  0.68661
USER: genes 11 Torsion [CA]-CB--OG-[HG] |==|  0.87099
USER: genes 12 Torsion [N]-CA--CB-[CG] |==|  0.45344
USER: genes 13 Torsion [CA]-CB--CG-[CD2] |==|  0.69468
USER: genes 14 Torsion [N]-CA--CB-[CG] |==|  0.54423
USER: genes 15 Torsion [CA]-CB--CG-[CD2] |==|  0.49030
USER: genes 16 Torsion [N]-CA--CB-[OG1] |==|  0.93964
USER: genes 17 Torsion [CA]-CB--OG1-[HG1] |==|  0.14104
USER: genes 18 Torsion [N]-C--CA-[N] |==|  0.90000
USER: genes 19 Torsion [C]-CA--CB-[CG] |==|  0.04620
USER: genes 20 Torsion [CA]-CB--CG-[CD2] |==|  0.22232
USER: genes 21 Torsion [C]-CA--N-[C] |==|  0.67082
USER: genes 22 Torsion [N]-C--CA-[N] |==|  0.32301
USER: genes 23 Torsion [C]-CA--CB-[CG] |==|  0.78403
USER: genes 24 Torsion [CA]-CB--CG-[OD1] |==|  0.29332
USER: genes 25 Torsion [C]-CA--N-[C] |==|  0.80173
USER: genes 26 Torsion [N]-C--CA-[N] |==|  0.52143
USER: genes 27 Torsion [C]-CA--CB-[CG] |==|  0.75986
USER: genes 28 Torsion [CA]-CB--CG-[OD2] |==|  0.75605
ROOT
ATOM      1  C   TRP D 340      20.758  35.525  78.127  1.00 16.52 LIG 0.24  C 
ATOM      2 O    TRP D 340      21.585  34.670  77.804  1.00 16.60 LIG-0.27  OA
ATOM      3  N   THR D 341      21.094  36.718  78.600  1.00 13.22 LIG-0.34  N 
ATOM      4 H    THR D 341      20.514  37.316  78.816  1.00 13.22 LIG 0.16  HD
ENDROOT
BRANCH 3 5
ATOM      5  CA  THR D 341      22.470  37.144  78.806  1.00 12.53 LIG 0.20  C 
BRANCH 5 6
ATOM      6  C   THR D 341      22.884  36.908  80.258  1.00 12.10 LIG 0.24  C 
ATOM      7 O    THR D 341      22.065  36.984  81.172  1.00 10.92 LIG-0.27  OA
ATOM      8  N   HIS D 342      24.156  36.592  80.468  1.00 12.26 LIG-0.35  N 
ATOM      9 H    HIS D 342      24.740  36.500  79.844  1.00 12.26 LIG 0.16  HD
BRANCH 8 10
ATOM     10  CA  HIS D 342      24.666  36.372  81.817  1.00 12.78 LIG 0.18  C 
BRANCH 10 11
ATOM     11  C   HIS D 342      25.850  37.286  82.054  1.00 14.51 LIG 0.24  C 
ATOM     12  N   LEU D 343      26.865  37.189  81.199  1.00 15.48 LIG-0.35  N 
ATOM     13 H    LEU D 343      26.852  36.694  80.496  1.00 15.48 LIG 0.16  HD
ATOM     14 O    HIS D 342      25.838  38.090  83.004  1.00 16.02 LIG-0.27  OA
BRANCH 12 15
ATOM     15  CA  LEU D 343      28.111  37.935  81.389  1.00 16.72 LIG 0.18  C 
BRANCH 15 16
ATOM     16  C   LEU D 343      28.668  38.550  80.108  1.00 19.19 LIG 0.24  C 
ATOM     17  N   SER D 344      29.364  39.691  80.239  1.00 21.37 LIG-0.34  N 
ATOM     18 H    SER D 344      29.346  40.171  80.952  1.00 21.37 LIG 0.16  HD
ATOM     19 O    LEU D 343      28.482  38.000  79.035  1.00 19.56 LIG-0.27  OA
BRANCH 17 20
ATOM     20  CA  SER D 344      30.234  40.244  79.176  1.00 23.14 LIG 0.19  C 
BRANCH 20 21
ATOM     21  C   SER D 344      31.460  39.348  78.945  1.00 24.18 LIG 0.22  C 
ATOM     22 O    SER D 344      32.005  39.279  77.829  1.00 25.35 LIG-0.29  OA
ENDBRANCH 20 21
BRANCH 20 23
ATOM     23  CB  SER D 344      30.707  41.659  79.513  1.00 23.66 LIG 0.20  C 
BRANCH 23 24
ATOM     24 OG   SER D 344      30.145  42.621  78.619  1.00 25.03 LIG-0.40  OA
ATOM     25 HG   SER D 344      30.219  42.345  77.828  1.00 25.03 LIG 0.21  HD
ENDBRANCH 23 24
ENDBRANCH 20 23
ENDBRANCH 17 20
ENDBRANCH 15 16
BRANCH 15 26
ATOM     26  CB  LEU D 343      29.198  37.026  81.990  1.00 15.83 LIG 0.04  C 
BRANCH 26 27
ATOM     27  CG  LEU D 343      30.628  37.517  81.886  1.00 14.86 LIG-0.02  C 
ATOM     28  CD1 LEU D 343      31.283  37.504  83.258  1.00 12.95 LIG 0.01  C 
ATOM     29  CD2 LEU D 343      31.421  36.644  80.879  1.00 12.95 LIG 0.01  C 
ENDBRANCH 26 27
ENDBRANCH 15 26
ENDBRANCH 12 15
ENDBRANCH 10 11
BRANCH 10 30
ATOM     30  CB  HIS D 342      25.110  34.910  81.985  1.00 12.90 LIG 0.10  C 
BRANCH 30 31
ATOM     31  CG  HIS D 342      25.290  34.496  83.409  1.00 12.99 LIG 0.06  A 
ATOM     32  CD2 HIS D 342      25.606  33.289  83.939  1.00 12.88 LIG 0.14  A 
ATOM     33 NE2  HIS D 342      25.643  33.444  85.302  1.00 14.80 LIG-0.25  NA
ATOM     34  CE1 HIS D 342      25.355  34.694  85.604  1.00 13.21 LIG 0.23  A 
ATOM     35 ND1  HIS D 342      25.130  35.350  84.479  1.00 14.49 LIG-0.24  NA
ENDBRANCH 30 31
ENDBRANCH 10 30
ENDBRANCH 8 10
ENDBRANCH 5 6
BRANCH 5 36
ATOM     36  CB  THR D 341      22.641  38.635  78.434  1.00 12.70 LIG 0.15  C 
ATOM     37  CG2 THR D 341      24.008  38.901  77.777  1.00 14.15 LIG 0.04  C 
BRANCH 36 38
ATOM     38 OG1  THR D 341      21.584  39.021  77.545  1.00 14.08 LIG-0.39  OA
ATOM     39 HG1  THR D 341      20.845  38.791  77.872  1.00 14.08 LIG 0.21  HD
ENDBRANCH 36 38
ENDBRANCH 5 36
ENDBRANCH 3 5
BRANCH 1 40
ATOM     40  CA  TRP D 340      19.264  35.231  78.047  1.00 18.72 LIG 0.18  C 
BRANCH 40 41
ATOM     41  CB  TRP D 340      18.745  35.781  76.720  1.00 19.00 LIG 0.07  C 
BRANCH 41 42
ATOM     42  CG  TRP D 340      19.798  36.083  75.711  1.00 19.22 LIG-0.03  A 
ATOM     43  CD2 TRP D 340      20.450  35.141  74.863  1.00 20.18 LIG-0.00  A 
ATOM     44  CE3 TRP D 340      20.325  33.760  74.673  1.00 18.70 LIG 0.01  A 
ATOM     45  CE2 TRP D 340      21.401  35.855  74.099  1.00 18.84 LIG 0.04  A 
ATOM     46  CZ3 TRP D 340      21.147  33.137  73.737  1.00 20.55 LIG 0.00  A 
ATOM     47  CH2 TRP D 340      22.078  33.882  72.989  1.00 19.52 LIG 0.00  A 
ATOM     48  CZ2 TRP D 340      22.223  35.234  73.157  1.00 19.79 LIG 0.03  A 
ATOM     49  NE1 TRP D 340      21.324  37.174  74.468  1.00 21.77 LIG-0.36  N 
ATOM     50  CD1 TRP D 340      20.366  37.296  75.450  1.00 20.48 LIG 0.10  A 
ATOM     51 HE1  TRP D 340      21.794  37.816  74.141  1.00 21.77 LIG 0.17  HD
ENDBRANCH 41 42
ENDBRANCH 40 41
BRANCH 40 52
ATOM     52  N   TRP D 340      18.531  35.825  79.171  1.00 22.23 LIG-0.35  N 
ATOM     53  C   ASP D 339      17.848  35.097  80.052  1.00 26.49 LIG 0.24  C 
ATOM     54 O    ASP D 339      17.780  33.856  80.004  1.00 27.22 LIG-0.27  OA
ATOM     55 H    TRP D 340      18.584  36.682  79.206  1.00 22.23 LIG 0.16  HD
BRANCH 53 56
ATOM     56  CA  ASP D 339      17.124  35.871  81.160  1.00 29.46 LIG 0.19  C 
BRANCH 56 57
ATOM     57  CB  ASP D 339      17.608  35.378  82.525  1.00 30.27 LIG 0.15  C 
BRANCH 57 58
ATOM     58  CG  ASP D 339      16.984  34.041  82.938  1.00 32.94 LIG 0.17  C 
ATOM     59 OD1  ASP D 339      17.702  33.020  82.878  1.00 36.53 LIG-0.65  OA
ATOM     60 OD2  ASP D 339      15.783  34.003  83.306  1.00 35.99 LIG-0.65  OA
ENDBRANCH 57 58
ENDBRANCH 56 57
BRANCH 56 61
ATOM     61  N   ASP D 339      15.677  35.697  81.065  1.00 31.22 LIG-0.34  N 
ATOM     62  C   ASP D 338      14.931  36.243  80.107  1.00 32.92 LIG 0.26  C 
ATOM     63 O    ASP D 338      15.397  36.768  79.090  1.00 33.60 LIG-0.27  OA
ATOM     64 H    ASP D 339      15.350  35.206  81.691  1.00 31.22 LIG 0.16  HD
BRANCH 62 65
ATOM     65  CA  ASP D 338      13.420  36.157  80.320  1.00 33.82 LIG 0.41  C 
ATOM     66  N   ASP D 338      12.681  36.630  79.105  1.00 34.02 LIG 0.61  N 
BRANCH 65 67
ATOM     67  CB  ASP D 338      13.015  34.717  80.674  1.00 34.49 LIG 0.16  C 
BRANCH 67 68
ATOM     68  CG  ASP D 338      12.767  33.851  79.445  1.00 35.92 LIG 0.17  C 
ATOM     69 OD2  ASP D 338      11.623  33.846  78.948  1.00 39.23 LIG-0.65  OA
ATOM     70 OD1  ASP D 338      13.706  33.165  78.975  1.00 38.97 LIG-0.65  OA
ENDBRANCH 67 68
ENDBRANCH 65 67
ENDBRANCH 62 65
ENDBRANCH 56 61
ENDBRANCH 53 56
ENDBRANCH 40 52
ENDBRANCH 1 40
TORSDOF 27
ENDMDL
MODEL 24
USER: ADFR SOLUTION from run 188
USER: SCORE 22.227822 LL:  -6.131 LR: -17.599 RR:   0.000 FEB:  -9.544
USER: RMSD 11.963450
USER: SEED 187
USER: STATUS 1 or 2 clusters left
USER: GENES 29
USER: genes 0 Translation |==|  0.50928 0.53756 0.51998
USER: genes 1 Rotation |==|  0.60742 0.41504 0.20713 0.88140
USER: genes 2 Torsion [C]-N--CA-[CB] |==|  0.76306
USER: genes 3 Torsion [N]-CA--C-[N] |==|  0.14764
USER: genes 4 Torsion [C]-N--CA-[C] |==|  0.67598
USER: genes 5 Torsion [N]-CA--C-[N] |==|  0.50931
USER: genes 6 Torsion [C]-N--CA-[C] |==|  0.61672
USER: genes 7 Torsion [N]-CA--C-[N] |==|  0.33560
USER: genes 8 Torsion [C]-N--CA-[C] |==|  0.18258
USER: genes 9 Torsion [N]-CA--C-[O] |==|  0.03936
USER: genes 10 Torsion [N]-CA--CB-[OG] |==|  0.87488
USER: genes 11 Torsion [CA]-CB--OG-[HG] |==|  0.15231
USER: genes 12 Torsion [N]-CA--CB-[CG] |==|  0.63109
USER: genes 13 Torsion [CA]-CB--CG-[CD2] |==|  0.28673
USER: genes 14 Torsion [N]-CA--CB-[CG] |==|  0.54825
USER: genes 15 Torsion [CA]-CB--CG-[CD2] |==|  0.10217
USER: genes 16 Torsion [N]-CA--CB-[OG1] |==|  0.15264
USER: genes 17 Torsion [CA]-CB--OG1-[HG1] |==|  0.72081
USER: genes 18 Torsion [N]-C--CA-[N] |==|  0.85000
USER: genes 19 Torsion [C]-CA--CB-[CG] |==|  0.21827
USER: genes 20 Torsion [CA]-CB--CG-[CD2] |==|  0.46772
USER: genes 21 Torsion [C]-CA--N-[C] |==|  0.86912
USER: genes 22 Torsion [N]-C--CA-[N] |==|  0.91311
USER: genes 23 Torsion [C]-CA--CB-[CG] |==|  0.72674
USER: genes 24 Torsion [CA]-CB--CG-[OD1] |==|  0.75330
USER: genes 25 Torsion [C]-CA--N-[C] |==|  0.77273
USER: genes 26 Torsion [N]-C--CA-[N] |==|  0.16587
USER: genes 27 Torsion [C]-CA--CB-[CG] |==|  0.52045
USER: genes 28 Torsion [CA]-CB--CG-[OD2] |==|  0.64280
ROOT
ATOM      1  C   TRP D 340      23.277  36.635  80.648  1.00 16.52 LIG 0.24  C 
ATOM      2 O    TRP D 340      23.460  37.489  81.519  1.00 16.60 LIG-0.27  OA
ATOM      3  N   THR D 341      23.732  36.755  79.407  1.00 13.22 LIG-0.34  N 
ATOM      4 H    THR D 341      23.611  36.154  78.804  1.00 13.22 LIG 0.16  HD
ENDROOT
BRANCH 3 5
ATOM      5  CA  THR D 341      24.480  37.910  78.931  1.00 12.53 LIG 0.20  C 
BRANCH 5 6
ATOM      6  C   THR D 341      25.409  38.425  80.029  1.00 12.10 LIG 0.24  C 
ATOM      7 O    THR D 341      25.371  39.599  80.395  1.00 10.92 LIG-0.27  OA
ATOM      8  N   HIS D 342      26.228  37.537  80.579  1.00 12.26 LIG-0.35  N 
ATOM      9 H    HIS D 342      26.251  36.704  80.366  1.00 12.26 LIG 0.16  HD
BRANCH 8 10
ATOM     10  CA  HIS D 342      27.176  37.925  81.618  1.00 12.78 LIG 0.18  C 
BRANCH 10 11
ATOM     11  C   HIS D 342      28.585  37.705  81.109  1.00 14.51 LIG 0.24  C 
ATOM     12  N   LEU D 343      29.577  37.945  81.962  1.00 15.48 LIG-0.35  N 
ATOM     13 H    LEU D 343      29.458  38.149  82.789  1.00 15.48 LIG 0.16  HD
ATOM     14 O    HIS D 342      28.774  37.303  79.946  1.00 16.02 LIG-0.27  OA
BRANCH 12 15
ATOM     15  CA  LEU D 343      30.982  37.882  81.554  1.00 16.72 LIG 0.18  C 
BRANCH 15 16
ATOM     16  C   LEU D 343      31.894  37.198  82.570  1.00 19.19 LIG 0.24  C 
ATOM     17  N   SER D 344      32.563  36.113  82.147  1.00 21.37 LIG-0.34  N 
ATOM     18 H    SER D 344      32.363  35.692  81.425  1.00 21.37 LIG 0.16  HD
ATOM     19 O    LEU D 343      31.994  37.648  83.700  1.00 19.56 LIG-0.27  OA
BRANCH 17 20
ATOM     20  CA  SER D 344      33.712  35.528  82.875  1.00 23.14 LIG 0.19  C 
BRANCH 20 21
ATOM     21  C   SER D 344      33.275  34.961  84.233  1.00 24.18 LIG 0.22  C 
ATOM     22 O    SER D 344      32.073  34.782  84.498  1.00 25.35 LIG-0.29  OA
ENDBRANCH 20 21
BRANCH 20 23
ATOM     23  CB  SER D 344      34.821  36.559  83.099  1.00 23.66 LIG 0.20  C 
BRANCH 23 24
ATOM     24 OG   SER D 344      35.075  37.313  81.912  1.00 25.03 LIG-0.40  OA
ATOM     25 HG   SER D 344      34.359  37.661  81.643  1.00 25.03 LIG 0.21  HD
ENDBRANCH 23 24
ENDBRANCH 20 23
ENDBRANCH 17 20
ENDBRANCH 15 16
BRANCH 15 26
ATOM     26  CB  LEU D 343      31.535  39.294  81.297  1.00 15.83 LIG 0.04  C 
BRANCH 26 27
ATOM     27  CG  LEU D 343      32.319  39.495  80.015  1.00 14.86 LIG-0.02  C 
ATOM     28  CD1 LEU D 343      32.801  38.153  79.486  1.00 12.95 LIG 0.01  C 
ATOM     29  CD2 LEU D 343      31.448  40.230  78.964  1.00 12.95 LIG 0.01  C 
ENDBRANCH 26 27
ENDBRANCH 15 26
ENDBRANCH 12 15
ENDBRANCH 10 11
BRANCH 10 30
ATOM     30  CB  HIS D 342      26.954  37.081  82.882  1.00 12.90 LIG 0.10  C 
BRANCH 30 31
ATOM     31  CG  HIS D 342      27.576  37.662  84.110  1.00 12.99 LIG 0.06  A 
ATOM     32  CD2 HIS D 342      27.702  38.953  84.503  1.00 12.88 LIG 0.14  A 
ATOM     33 NE2  HIS D 342      28.355  38.946  85.709  1.00 14.80 LIG-0.25  NA
ATOM     34  CE1 HIS D 342      28.629  37.701  86.047  1.00 13.21 LIG 0.23  A 
ATOM     35 ND1  HIS D 342      28.175  36.905  85.095  1.00 14.49 LIG-0.24  NA
ENDBRANCH 30 31
ENDBRANCH 10 30
ENDBRANCH 8 10
ENDBRANCH 5 6
BRANCH 5 36
ATOM     36  CB  THR D 341      23.519  39.030  78.471  1.00 12.70 LIG 0.15  C 
ATOM     37  CG2 THR D 341      22.727  38.615  77.217  1.00 14.15 LIG 0.04  C 
BRANCH 36 38
ATOM     38 OG1  THR D 341      22.618  39.345  79.541  1.00 14.08 LIG-0.39  OA
ATOM     39 HG1  THR D 341      21.879  38.970  79.405  1.00 14.08 LIG 0.21  HD
ENDBRANCH 36 38
ENDBRANCH 5 36
ENDBRANCH 3 5
BRANCH 1 40
ATOM     40  CA  TRP D 340      22.453  35.388  80.943  1.00 18.72 LIG 0.18  C 
BRANCH 40 41
ATOM     41  CB  TRP D 340      23.382  34.178  80.859  1.00 19.00 LIG 0.07  C 
BRANCH 41 42
ATOM     42  CG  TRP D 340      24.244  33.965  82.054  1.00 19.22 LIG-0.03  A 
ATOM     43  CD2 TRP D 340      25.021  32.805  82.341  1.00 20.18 LIG-0.00  A 
ATOM     44  CE3 TRP D 340      25.251  31.602  81.662  1.00 18.70 LIG 0.01  A 
ATOM     45  CE2 TRP D 340      25.645  33.019  83.591  1.00 18.84 LIG 0.04  A 
ATOM     46  CZ3 TRP D 340      26.088  30.655  82.248  1.00 20.55 LIG 0.00  A 
ATOM     47  CH2 TRP D 340      26.698  30.905  83.491  1.00 19.52 LIG 0.00  A 
ATOM     48  CZ2 TRP D 340      26.488  32.073  84.177  1.00 19.79 LIG 0.03  A 
ATOM     49  NE1 TRP D 340      25.265  34.258  84.039  1.00 21.77 LIG-0.36  N 
ATOM     50  CD1 TRP D 340      24.409  34.811  83.112  1.00 20.48 LIG 0.10  A 
ATOM     51 HE1  TRP D 340      25.518  34.627  84.773  1.00 21.77 LIG 0.17  HD
ENDBRANCH 41 42
ENDBRANCH 40 41
BRANCH 40 52
ATOM     52  N   TRP D 340      21.333  35.241  80.006  1.00 22.23 LIG-0.35  N 
ATOM     53  C   ASP D 339      20.515  36.246  79.696  1.00 26.49 LIG 0.24  C 
ATOM     54 O    ASP D 339      20.635  37.391  80.165  1.00 27.22 LIG-0.27  OA
ATOM     55 H    TRP D 340      21.255  34.450  79.678  1.00 22.23 LIG 0.16  HD
BRANCH 53 56
ATOM     56  CA  ASP D 339      19.385  35.925  78.713  1.00 29.46 LIG 0.19  C 
BRANCH 56 57
ATOM     57  CB  ASP D 339      18.153  35.453  79.490  1.00 30.27 LIG 0.15  C 
BRANCH 57 58
ATOM     58  CG  ASP D 339      18.016  33.928  79.532  1.00 32.94 LIG 0.17  C 
ATOM     59 OD1  ASP D 339      17.386  33.375  78.606  1.00 36.53 LIG-0.65  OA
ATOM     60 OD2  ASP D 339      18.518  33.286  80.488  1.00 35.99 LIG-0.65  OA
ENDBRANCH 57 58
ENDBRANCH 56 57
BRANCH 56 61
ATOM     61  N   ASP D 339      19.788  34.889  77.765  1.00 31.22 LIG-0.34  N 
ATOM     62  C   ASP D 338      20.509  35.131  76.672  1.00 32.92 LIG 0.26  C 
ATOM     63 O    ASP D 338      21.088  36.201  76.455  1.00 33.60 LIG-0.27  OA
ATOM     64 H    ASP D 339      19.514  34.103  77.981  1.00 31.22 LIG 0.16  HD
BRANCH 62 65
ATOM     65  CA  ASP D 338      20.613  33.971  75.682  1.00 33.82 LIG 0.41  C 
ATOM     66  N   ASP D 338      19.257  33.562  75.194  1.00 34.02 LIG 0.61  N 
BRANCH 65 67
ATOM     67  CB  ASP D 338      21.520  34.360  74.504  1.00 34.49 LIG 0.16  C 
BRANCH 67 68
ATOM     68  CG  ASP D 338      21.527  33.318  73.392  1.00 35.92 LIG 0.17  C 
ATOM     69 OD2  ASP D 338      22.628  32.902  72.979  1.00 39.23 LIG-0.65  OA
ATOM     70 OD1  ASP D 338      20.437  32.917  72.917  1.00 38.97 LIG-0.65  OA
ENDBRANCH 67 68
ENDBRANCH 65 67
ENDBRANCH 62 65
ENDBRANCH 56 61
ENDBRANCH 53 56
ENDBRANCH 40 52
ENDBRANCH 1 40
TORSDOF 27
ENDMDL
MODEL 25
USER: ADFR SOLUTION from run 46
USER: SCORE 21.546741 LL:  -5.453 LR: -17.586 RR:   0.000 FEB:  -9.532
USER: RMSD 3.192315
USER: SEED 45
USER: STATUS searching
USER: GENES 29
USER: genes 0 Translation |==|  0.51075 0.47395 0.55708
USER: genes 1 Rotation |==|  0.63797 0.46846 0.63143 0.96119
USER: genes 2 Torsion [C]-N--CA-[CB] |==|  0.54466
USER: genes 3 Torsion [N]-CA--C-[N] |==|  0.30171
USER: genes 4 Torsion [C]-N--CA-[C] |==|  0.85541
USER: genes 5 Torsion [N]-CA--C-[N] |==|  0.89137
USER: genes 6 Torsion [C]-N--CA-[C] |==|  0.15636
USER: genes 7 Torsion [N]-CA--C-[N] |==|  0.07877
USER: genes 8 Torsion [C]-N--CA-[C] |==|  0.61945
USER: genes 9 Torsion [N]-CA--C-[O] |==|  0.34206
USER: genes 10 Torsion [N]-CA--CB-[OG] |==|  0.85928
USER: genes 11 Torsion [CA]-CB--OG-[HG] |==|  0.73285
USER: genes 12 Torsion [N]-CA--CB-[CG] |==|  0.71019
USER: genes 13 Torsion [CA]-CB--CG-[CD2] |==|  0.59755
USER: genes 14 Torsion [N]-CA--CB-[CG] |==|  0.55926
USER: genes 15 Torsion [CA]-CB--CG-[CD2] |==|  0.62960
USER: genes 16 Torsion [N]-CA--CB-[OG1] |==|  0.89762
USER: genes 17 Torsion [CA]-CB--OG1-[HG1] |==|  0.12332
USER: genes 18 Torsion [N]-C--CA-[N] |==|  0.13316
USER: genes 19 Torsion [C]-CA--CB-[CG] |==|  0.42869
USER: genes 20 Torsion [CA]-CB--CG-[CD2] |==|  0.86909
USER: genes 21 Torsion [C]-CA--N-[C] |==|  0.15748
USER: genes 22 Torsion [N]-C--CA-[N] |==|  0.66221
USER: genes 23 Torsion [C]-CA--CB-[CG] |==|  0.31373
USER: genes 24 Torsion [CA]-CB--CG-[OD1] |==|  0.85163
USER: genes 25 Torsion [C]-CA--N-[C] |==|  0.11670
USER: genes 26 Torsion [N]-C--CA-[N] |==|  0.34882
USER: genes 27 Torsion [C]-CA--CB-[CG] |==|  0.84701
USER: genes 28 Torsion [CA]-CB--CG-[OD2] |==|  0.40860
ROOT
ATOM      1  C   TRP D 340      23.318  35.395  81.649  1.00 16.52 LIG 0.24  C 
ATOM      2 O    TRP D 340      22.260  35.323  82.278  1.00 16.60 LIG-0.27  OA
ATOM      3  N   THR D 341      23.405  35.917  80.432  1.00 13.22 LIG-0.34  N 
ATOM      4 H    THR D 341      24.147  35.974  80.000  1.00 13.22 LIG 0.16  HD
ENDROOT
BRANCH 3 5
ATOM      5  CA  THR D 341      22.264  36.445  79.699  1.00 12.53 LIG 0.20  C 
BRANCH 5 6
ATOM      6  C   THR D 341      21.054  35.530  79.875  1.00 12.10 LIG 0.24  C 
ATOM      7 O    THR D 341      21.021  34.414  79.360  1.00 10.92 LIG-0.27  OA
ATOM      8  N   HIS D 342      20.066  35.991  80.632  1.00 12.26 LIG-0.35  N 
ATOM      9 H    HIS D 342      20.079  36.753  81.032  1.00 12.26 LIG 0.16  HD
BRANCH 8 10
ATOM     10  CA  HIS D 342      18.851  35.212  80.847  1.00 12.78 LIG 0.18  C 
BRANCH 10 11
ATOM     11  C   HIS D 342      18.292  34.788  79.505  1.00 14.51 LIG 0.24  C 
ATOM     12  N   LEU D 343      18.356  35.678  78.519  1.00 15.48 LIG-0.35  N 
ATOM     13 H    LEU D 343      18.752  36.439  78.586  1.00 15.48 LIG 0.16  HD
ATOM     14 O    HIS D 342      17.814  33.648  79.360  1.00 16.02 LIG-0.27  OA
BRANCH 12 15
ATOM     15  CA  LEU D 343      17.746  35.430  77.211  1.00 16.72 LIG 0.18  C 
BRANCH 15 16
ATOM     16  C   LEU D 343      16.253  35.114  77.271  1.00 19.19 LIG 0.24  C 
ATOM     17  N   SER D 344      15.566  35.643  78.297  1.00 21.37 LIG-0.34  N 
ATOM     18 H    SER D 344      15.945  35.975  78.993  1.00 21.37 LIG 0.16  HD
ATOM     19 O    LEU D 343      15.740  34.421  76.409  1.00 19.56 LIG-0.27  OA
BRANCH 17 20
ATOM     20  CA  SER D 344      14.087  35.713  78.338  1.00 23.14 LIG 0.19  C 
BRANCH 20 21
ATOM     21  C   SER D 344      13.613  37.077  78.861  1.00 24.18 LIG 0.22  C 
ATOM     22 O    SER D 344      12.853  37.795  78.187  1.00 25.35 LIG-0.29  OA
ENDBRANCH 20 21
BRANCH 20 23
ATOM     23  CB  SER D 344      13.495  34.610  79.218  1.00 23.66 LIG 0.20  C 
BRANCH 23 24
ATOM     24 OG   SER D 344      14.020  33.328  78.864  1.00 25.03 LIG-0.40  OA
ATOM     25 HG   SER D 344      13.489  32.943  78.339  1.00 25.03 LIG 0.21  HD
ENDBRANCH 23 24
ENDBRANCH 20 23
ENDBRANCH 17 20
ENDBRANCH 15 16
BRANCH 15 26
ATOM     26  CB  LEU D 343      18.448  34.260  76.500  1.00 15.83 LIG 0.04  C 
BRANCH 26 27
ATOM     27  CG  LEU D 343      19.394  34.620  75.371  1.00 14.86 LIG-0.02  C 
ATOM     28  CD1 LEU D 343      20.809  34.770  75.908  1.00 12.95 LIG 0.01  C 
ATOM     29  CD2 LEU D 343      19.330  33.544  74.257  1.00 12.95 LIG 0.01  C 
ENDBRANCH 26 27
ENDBRANCH 15 26
ENDBRANCH 12 15
ENDBRANCH 10 11
BRANCH 10 30
ATOM     30  CB  HIS D 342      17.804  36.055  81.592  1.00 12.90 LIG 0.10  C 
BRANCH 30 31
ATOM     31  CG  HIS D 342      16.764  35.242  82.290  1.00 12.99 LIG 0.06  A 
ATOM     32  CD2 HIS D 342      15.415  35.374  82.312  1.00 12.88 LIG 0.14  A 
ATOM     33 NE2  HIS D 342      14.924  34.371  83.108  1.00 14.80 LIG-0.25  NA
ATOM     34  CE1 HIS D 342      15.928  33.650  83.565  1.00 13.21 LIG 0.23  A 
ATOM     35 ND1  HIS D 342      17.052  34.159  83.092  1.00 14.49 LIG-0.24  NA
ENDBRANCH 30 31
ENDBRANCH 10 30
ENDBRANCH 8 10
ENDBRANCH 5 6
BRANCH 5 36
ATOM     36  CB  THR D 341      22.606  36.602  78.199  1.00 12.70 LIG 0.15  C 
ATOM     37  CG2 THR D 341      21.668  37.611  77.509  1.00 14.15 LIG 0.04  C 
BRANCH 36 38
ATOM     38 OG1  THR D 341      23.969  37.028  78.070  1.00 14.08 LIG-0.39  OA
ATOM     39 HG1  THR D 341      24.452  36.579  78.590  1.00 14.08 LIG 0.21  HD
ENDBRANCH 36 38
ENDBRANCH 5 36
ENDBRANCH 3 5
BRANCH 1 40
ATOM     40  CA  TRP D 340      24.608  34.827  82.230  1.00 18.72 LIG 0.18  C 
BRANCH 40 41
ATOM     41  CB  TRP D 340      24.365  34.519  83.707  1.00 19.00 LIG 0.07  C 
BRANCH 41 42
ATOM     42  CG  TRP D 340      25.236  33.455  84.277  1.00 19.22 LIG-0.03  A 
ATOM     43  CD2 TRP D 340      25.510  32.184  83.693  1.00 20.18 LIG-0.00  A 
ATOM     44  CE3 TRP D 340      25.130  31.567  82.496  1.00 18.70 LIG 0.01  A 
ATOM     45  CE2 TRP D 340      26.348  31.484  84.590  1.00 18.84 LIG 0.04  A 
ATOM     46  CZ3 TRP D 340      25.589  30.278  82.233  1.00 20.55 LIG 0.00  A 
ATOM     47  CH2 TRP D 340      26.428  29.614  83.148  1.00 19.52 LIG 0.00  A 
ATOM     48  CZ2 TRP D 340      26.814  30.195  84.328  1.00 19.79 LIG 0.03  A 
ATOM     49  NE1 TRP D 340      26.573  32.299  85.670  1.00 21.77 LIG-0.36  N 
ATOM     50  CD1 TRP D 340      25.886  33.477  85.477  1.00 20.48 LIG 0.10  A 
ATOM     51 HE1  TRP D 340      27.061  32.108  86.352  1.00 21.77 LIG 0.17  HD
ENDBRANCH 41 42
ENDBRANCH 40 41
BRANCH 40 52
ATOM     52  N   TRP D 340      25.730  35.759  82.078  1.00 22.23 LIG-0.35  N 
ATOM     53  C   ASP D 339      25.705  37.003  82.555  1.00 26.49 LIG 0.24  C 
ATOM     54 O    ASP D 339      24.736  37.475  83.174  1.00 27.22 LIG-0.27  OA
ATOM     55 H    TRP D 340      26.402  35.429  81.655  1.00 22.23 LIG 0.16  HD
BRANCH 53 56
ATOM     56  CA  ASP D 339      26.952  37.856  82.300  1.00 29.46 LIG 0.19  C 
BRANCH 56 57
ATOM     57  CB  ASP D 339      27.986  37.028  81.532  1.00 30.27 LIG 0.15  C 
BRANCH 57 58
ATOM     58  CG  ASP D 339      28.228  37.538  80.108  1.00 32.94 LIG 0.17  C 
ATOM     59 OD1  ASP D 339      27.234  37.683  79.365  1.00 36.53 LIG-0.65  OA
ATOM     60 OD2  ASP D 339      29.400  37.778  79.725  1.00 35.99 LIG-0.65  OA
ENDBRANCH 57 58
ENDBRANCH 56 57
BRANCH 56 61
ATOM     61  N   ASP D 339      27.538  38.323  83.553  1.00 31.22 LIG-0.34  N 
ATOM     62  C   ASP D 338      27.665  37.559  84.637  1.00 32.92 LIG 0.26  C 
ATOM     63 O    ASP D 338      27.502  36.334  84.636  1.00 33.60 LIG-0.27  OA
ATOM     64 H    ASP D 339      27.795  39.143  83.526  1.00 31.22 LIG 0.16  HD
BRANCH 62 65
ATOM     65  CA  ASP D 338      28.065  38.293  85.916  1.00 33.82 LIG 0.41  C 
ATOM     66  N   ASP D 338      27.090  38.014  87.019  1.00 34.02 LIG 0.61  N 
BRANCH 65 67
ATOM     67  CB  ASP D 338      29.488  37.891  86.335  1.00 34.49 LIG 0.16  C 
BRANCH 67 68
ATOM     68  CG  ASP D 338      29.657  36.384  86.490  1.00 35.92 LIG 0.17  C 
ATOM     69 OD2  ASP D 338      30.764  35.883  86.210  1.00 39.23 LIG-0.65  OA
ATOM     70 OD1  ASP D 338      28.686  35.693  86.882  1.00 38.97 LIG-0.65  OA
ENDBRANCH 67 68
ENDBRANCH 65 67
ENDBRANCH 62 65
ENDBRANCH 56 61
ENDBRANCH 53 56
ENDBRANCH 40 52
ENDBRANCH 1 40
TORSDOF 27
ENDMDL
MODEL 26
USER: ADFR SOLUTION from run 115
USER: SCORE 22.220508 LL:  -5.789 LR: -17.521 RR:   0.000 FEB:  -9.467
USER: RMSD 3.655284
USER: SEED 114
USER: STATUS no improvement in best in 1 clusters for 5 generations
USER: GENES 29
USER: genes 0 Translation |==|  0.54066 0.48777 0.57383
USER: genes 1 Rotation |==|  0.63671 0.49033 0.63738 0.96081
USER: genes 2 Torsion [C]-N--CA-[CB] |==|  0.53928
USER: genes 3 Torsion [N]-CA--C-[N] |==|  0.37042
USER: genes 4 Torsion [C]-N--CA-[C] |==|  0.80995
USER: genes 5 Torsion [N]-CA--C-[N] |==|  0.96898
USER: genes 6 Torsion [C]-N--CA-[C] |==|  0.61163
USER: genes 7 Torsion [N]-CA--C-[N] |==|  0.49444
USER: genes 8 Torsion [C]-N--CA-[C] |==|  0.19494
USER: genes 9 Torsion [N]-CA--C-[O] |==|  0.52764
USER: genes 10 Torsion [N]-CA--CB-[OG] |==|  0.92939
USER: genes 11 Torsion [CA]-CB--OG-[HG] |==|  0.33688
USER: genes 12 Torsion [N]-CA--CB-[CG] |==|  0.64700
USER: genes 13 Torsion [CA]-CB--CG-[CD2] |==|  0.03368
USER: genes 14 Torsion [N]-CA--CB-[CG] |==|  0.54660
USER: genes 15 Torsion [CA]-CB--CG-[CD2] |==|  0.61626
USER: genes 16 Torsion [N]-CA--CB-[OG1] |==|  0.88121
USER: genes 17 Torsion [CA]-CB--OG1-[HG1] |==|  0.14578
USER: genes 18 Torsion [N]-C--CA-[N] |==|  0.12904
USER: genes 19 Torsion [C]-CA--CB-[CG] |==|  0.36273
USER: genes 20 Torsion [CA]-CB--CG-[CD2] |==|  0.92630
USER: genes 21 Torsion [C]-CA--N-[C] |==|  0.15340
USER: genes 22 Torsion [N]-C--CA-[N] |==|  0.90337
USER: genes 23 Torsion [C]-CA--CB-[CG] |==|  0.75082
USER: genes 24 Torsion [CA]-CB--CG-[OD1] |==|  0.81358
USER: genes 25 Torsion [C]-CA--N-[C] |==|  0.70360
USER: genes 26 Torsion [N]-C--CA-[N] |==|  0.21251
USER: genes 27 Torsion [C]-CA--CB-[CG] |==|  0.36249
USER: genes 28 Torsion [CA]-CB--CG-[OD2] |==|  0.25806
ROOT
ATOM      1  C   TRP D 340      24.148  35.665  82.101  1.00 16.52 LIG 0.24  C 
ATOM      2 O    TRP D 340      23.142  35.564  82.808  1.00 16.60 LIG-0.27  OA
ATOM      3  N   THR D 341      24.123  36.152  80.868  1.00 13.22 LIG-0.34  N 
ATOM      4 H    THR D 341      24.827  36.230  80.381  1.00 13.22 LIG 0.16  HD
ENDROOT
BRANCH 3 5
ATOM      5  CA  THR D 341      22.908  36.606  80.207  1.00 12.53 LIG 0.20  C 
BRANCH 5 6
ATOM      6  C   THR D 341      21.771  35.618  80.456  1.00 12.10 LIG 0.24  C 
ATOM      7 O    THR D 341      21.947  34.406  80.349  1.00 10.92 LIG-0.27  OA
ATOM      8  N   HIS D 342      20.604  36.136  80.819  1.00 12.26 LIG-0.35  N 
ATOM      9 H    HIS D 342      20.463  36.976  80.934  1.00 12.26 LIG 0.16  HD
BRANCH 8 10
ATOM     10  CA  HIS D 342      19.441  35.287  81.057  1.00 12.78 LIG 0.18  C 
BRANCH 10 11
ATOM     11  C   HIS D 342      18.987  34.689  79.742  1.00 14.51 LIG 0.24  C 
ATOM     12  N   LEU D 343      19.529  35.191  78.636  1.00 15.48 LIG-0.35  N 
ATOM     13 H    LEU D 343      20.159  35.775  78.634  1.00 15.48 LIG 0.16  HD
ATOM     14 O    HIS D 342      18.155  33.764  79.731  1.00 16.02 LIG-0.27  OA
BRANCH 12 15
ATOM     15  CA  LEU D 343      19.087  34.778  77.301  1.00 16.72 LIG 0.18  C 
BRANCH 15 16
ATOM     16  C   LEU D 343      20.223  34.603  76.297  1.00 19.19 LIG 0.24  C 
ATOM     17  N   SER D 344      19.882  34.186  75.067  1.00 21.37 LIG-0.34  N 
ATOM     18 H    SER D 344      19.115  33.842  74.884  1.00 21.37 LIG 0.16  HD
ATOM     19 O    LEU D 343      21.372  34.850  76.625  1.00 19.56 LIG-0.27  OA
BRANCH 17 20
ATOM     20  CA  SER D 344      20.786  34.271  73.896  1.00 23.14 LIG 0.19  C 
BRANCH 20 21
ATOM     21  C   SER D 344      21.948  33.276  74.023  1.00 24.18 LIG 0.22  C 
ATOM     22 O    SER D 344      22.915  33.314  73.241  1.00 25.35 LIG-0.29  OA
ENDBRANCH 20 21
BRANCH 20 23
ATOM     23  CB  SER D 344      21.353  35.682  73.725  1.00 23.66 LIG 0.20  C 
BRANCH 23 24
ATOM     24 OG   SER D 344      20.489  36.662  74.303  1.00 25.03 LIG-0.40  OA
ATOM     25 HG   SER D 344      20.906  37.091  74.892  1.00 25.03 LIG 0.21  HD
ENDBRANCH 23 24
ENDBRANCH 20 23
ENDBRANCH 17 20
ENDBRANCH 15 16
BRANCH 15 26
ATOM     26  CB  LEU D 343      18.094  35.801  76.721  1.00 15.83 LIG 0.04  C 
BRANCH 26 27
ATOM     27  CG  LEU D 343      16.769  35.257  76.226  1.00 14.86 LIG-0.02  C 
ATOM     28  CD1 LEU D 343      16.699  35.357  74.711  1.00 12.95 LIG 0.01  C 
ATOM     29  CD2 LEU D 343      16.583  33.791  76.698  1.00 12.95 LIG 0.01  C 
ENDBRANCH 26 27
ENDBRANCH 15 26
ENDBRANCH 12 15
ENDBRANCH 10 11
BRANCH 10 30
ATOM     30  CB  HIS D 342      18.296  36.111  81.665  1.00 12.90 LIG 0.10  C 
BRANCH 30 31
ATOM     31  CG  HIS D 342      17.229  35.282  82.302  1.00 12.99 LIG 0.06  A 
ATOM     32  CD2 HIS D 342      15.881  35.407  82.263  1.00 12.88 LIG 0.14  A 
ATOM     33 NE2  HIS D 342      15.359  34.388  83.020  1.00 14.80 LIG-0.25  NA
ATOM     34  CE1 HIS D 342      16.345  33.665  83.512  1.00 13.21 LIG 0.23  A 
ATOM     35 ND1  HIS D 342      17.486  34.187  83.099  1.00 14.49 LIG-0.24  NA
ENDBRANCH 30 31
ENDBRANCH 10 30
ENDBRANCH 8 10
ENDBRANCH 5 6
BRANCH 5 36
ATOM     36  CB  THR D 341      23.147  36.780  78.688  1.00 12.70 LIG 0.15  C 
ATOM     37  CG2 THR D 341      22.025  37.606  78.031  1.00 14.15 LIG 0.04  C 
BRANCH 36 38
ATOM     38 OG1  THR D 341      24.415  37.417  78.482  1.00 14.08 LIG-0.39  OA
ATOM     39 HG1  THR D 341      25.010  36.996  78.899  1.00 14.08 LIG 0.21  HD
ENDBRANCH 36 38
ENDBRANCH 5 36
ENDBRANCH 3 5
BRANCH 1 40
ATOM     40  CA  TRP D 340      25.502  35.173  82.601  1.00 18.72 LIG 0.18  C 
BRANCH 40 41
ATOM     41  CB  TRP D 340      25.391  34.935  84.107  1.00 19.00 LIG 0.07  C 
BRANCH 41 42
ATOM     42  CG  TRP D 340      25.898  33.616  84.572  1.00 19.22 LIG-0.03  A 
ATOM     43  CD2 TRP D 340      25.965  32.417  83.804  1.00 20.18 LIG-0.00  A 
ATOM     44  CE3 TRP D 340      25.645  32.097  82.478  1.00 18.70 LIG 0.01  A 
ATOM     45  CE2 TRP D 340      26.471  31.405  84.650  1.00 18.84 LIG 0.04  A 
ATOM     46  CZ3 TRP D 340      25.835  30.788  82.043  1.00 20.55 LIG 0.00  A 
ATOM     47  CH2 TRP D 340      26.349  29.808  82.912  1.00 19.52 LIG 0.00  A 
ATOM     48  CZ2 TRP D 340      26.667  30.093  84.215  1.00 19.79 LIG 0.03  A 
ATOM     49  NE1 TRP D 340      26.705  31.970  85.878  1.00 21.77 LIG-0.36  N 
ATOM     50  CD1 TRP D 340      26.341  33.297  85.823  1.00 20.48 LIG 0.10  A 
ATOM     51 HE1  TRP D 340      27.024  31.564  86.566  1.00 21.77 LIG 0.17  HD
ENDBRANCH 41 42
ENDBRANCH 40 41
BRANCH 40 52
ATOM     52  N   TRP D 340      26.571  36.135  82.311  1.00 22.23 LIG-0.35  N 
ATOM     53  C   ASP D 339      26.522  37.407  82.702  1.00 26.49 LIG 0.24  C 
ATOM     54 O    ASP D 339      25.575  37.885  83.350  1.00 27.22 LIG-0.27  OA
ATOM     55 H    TRP D 340      27.228  35.801  81.868  1.00 22.23 LIG 0.16  HD
BRANCH 53 56
ATOM     56  CA  ASP D 339      27.713  38.287  82.306  1.00 29.46 LIG 0.19  C 
BRANCH 56 57
ATOM     57  CB  ASP D 339      27.482  38.856  80.904  1.00 30.27 LIG 0.15  C 
BRANCH 57 58
ATOM     58  CG  ASP D 339      28.026  37.955  79.792  1.00 32.94 LIG 0.17  C 
ATOM     59 OD1  ASP D 339      29.265  37.813  79.711  1.00 36.53 LIG-0.65  OA
ATOM     60 OD2  ASP D 339      27.229  37.403  78.992  1.00 35.99 LIG-0.65  OA
ENDBRANCH 57 58
ENDBRANCH 56 57
BRANCH 56 61
ATOM     61  N   ASP D 339      28.960  37.527  82.322  1.00 31.22 LIG-0.34  N 
ATOM     62  C   ASP D 338      29.895  37.665  83.260  1.00 32.92 LIG 0.26  C 
ATOM     63 O    ASP D 338      29.721  38.282  84.317  1.00 33.60 LIG-0.27  OA
ATOM     64 H    ASP D 339      29.034  36.977  81.665  1.00 31.22 LIG 0.16  HD
BRANCH 62 65
ATOM     65  CA  ASP D 338      31.226  36.973  82.969  1.00 33.82 LIG 0.41  C 
ATOM     66  N   ASP D 338      32.024  37.750  81.967  1.00 34.02 LIG 0.61  N 
BRANCH 65 67
ATOM     67  CB  ASP D 338      32.023  36.788  84.271  1.00 34.49 LIG 0.16  C 
BRANCH 67 68
ATOM     68  CG  ASP D 338      32.541  35.366  84.452  1.00 35.92 LIG 0.17  C 
ATOM     69 OD2  ASP D 338      33.689  35.100  84.044  1.00 39.23 LIG-0.65  OA
ATOM     70 OD1  ASP D 338      31.804  34.507  84.993  1.00 38.97 LIG-0.65  OA
ENDBRANCH 67 68
ENDBRANCH 65 67
ENDBRANCH 62 65
ENDBRANCH 56 61
ENDBRANCH 53 56
ENDBRANCH 40 52
ENDBRANCH 1 40
TORSDOF 27
ENDMDL
MODEL 27
USER: ADFR SOLUTION from run 151
USER: SCORE 21.316402 LL:  -5.443 LR: -17.508 RR:   0.000 FEB:  -9.454
USER: RMSD 12.119544
USER: SEED 150
USER: STATUS searching
USER: GENES 29
USER: genes 0 Translation |==|  0.41468 0.45338 0.42702
USER: genes 1 Rotation |==|  0.34009 0.07446 0.69375 0.57619
USER: genes 2 Torsion [C]-N--CA-[CB] |==|  0.27476
USER: genes 3 Torsion [N]-CA--C-[N] |==|  0.34783
USER: genes 4 Torsion [C]-N--CA-[C] |==|  0.76742
USER: genes 5 Torsion [N]-CA--C-[N] |==|  0.96575
USER: genes 6 Torsion [C]-N--CA-[C] |==|  0.77919
USER: genes 7 Torsion [N]-CA--C-[N] |==|  0.47778
USER: genes 8 Torsion [C]-N--CA-[C] |==|  0.60267
USER: genes 9 Torsion [N]-CA--C-[O] |==|  0.20215
USER: genes 10 Torsion [N]-CA--CB-[OG] |==|  0.84955
USER: genes 11 Torsion [CA]-CB--OG-[HG] |==|  0.00565
USER: genes 12 Torsion [N]-CA--CB-[CG] |==|  0.62797
USER: genes 13 Torsion [CA]-CB--CG-[CD2] |==|  0.98382
USER: genes 14 Torsion [N]-CA--CB-[CG] |==|  0.48857
USER: genes 15 Torsion [CA]-CB--CG-[CD2] |==|  0.58537
USER: genes 16 Torsion [N]-CA--CB-[OG1] |==|  0.52416
USER: genes 17 Torsion [CA]-CB--OG1-[HG1] |==|  0.94969
USER: genes 18 Torsion [N]-C--CA-[N] |==|  0.01561
USER: genes 19 Torsion [C]-CA--CB-[CG] |==|  0.31154
USER: genes 20 Torsion [CA]-CB--CG-[CD2] |==|  0.74760
USER: genes 21 Torsion [C]-CA--N-[C] |==|  0.71220
USER: genes 22 Torsion [N]-C--CA-[N] |==|  0.24015
USER: genes 23 Torsion [C]-CA--CB-[CG] |==|  0.80259
USER: genes 24 Torsion [CA]-CB--CG-[OD1] |==|  0.31217
USER: genes 25 Torsion [C]-CA--N-[C] |==|  0.78291
USER: genes 26 Torsion [N]-C--CA-[N] |==|  0.51067
USER: genes 27 Torsion [C]-CA--CB-[CG] |==|  0.84186
USER: genes 28 Torsion [CA]-CB--CG-[OD2] |==|  0.91383
ROOT
ATOM      1  C   TRP D 340      20.652  34.994  78.137  1.00 16.52 LIG 0.24  C 
ATOM      2 O    TRP D 340      21.298  34.576  77.174  1.00 16.60 LIG-0.27  OA
ATOM      3  N   THR D 341      21.211  35.594  79.180  1.00 13.22 LIG-0.34  N 
ATOM      4 H    THR D 341      20.757  35.893  79.847  1.00 13.22 LIG 0.16  HD
ENDROOT
BRANCH 3 5
ATOM      5  CA  THR D 341      22.644  35.811  79.312  1.00 12.53 LIG 0.20  C 
BRANCH 5 6
ATOM      6  C   THR D 341      23.091  35.534  80.746  1.00 12.10 LIG 0.24  C 
ATOM      7 O    THR D 341      22.544  36.085  81.700  1.00 10.92 LIG-0.27  OA
ATOM      8  N   HIS D 342      24.070  34.653  80.903  1.00 12.26 LIG-0.35  N 
ATOM      9 H    HIS D 342      24.447  34.228  80.256  1.00 12.26 LIG 0.16  HD
BRANCH 8 10
ATOM     10  CA  HIS D 342      24.594  34.332  82.227  1.00 12.78 LIG 0.18  C 
BRANCH 10 11
ATOM     11  C   HIS D 342      25.629  35.366  82.614  1.00 14.51 LIG 0.24  C 
ATOM     12  N   LEU D 343      26.056  36.180  81.651  1.00 15.48 LIG-0.35  N 
ATOM     13 H    LEU D 343      25.730  36.191  80.856  1.00 15.48 LIG 0.16  HD
ATOM     14 O    HIS D 342      26.031  35.438  83.789  1.00 16.02 LIG-0.27  OA
BRANCH 12 15
ATOM     15  CA  LEU D 343      27.137  37.142  81.874  1.00 16.72 LIG 0.18  C 
BRANCH 15 16
ATOM     16  C   LEU D 343      26.698  38.413  82.597  1.00 19.19 LIG 0.24  C 
ATOM     17  N   SER D 344      27.670  39.258  82.977  1.00 21.37 LIG-0.34  N 
ATOM     18 H    SER D 344      28.501  39.036  83.002  1.00 21.37 LIG 0.16  HD
ATOM     19 O    LEU D 343      25.513  38.625  82.796  1.00 19.56 LIG-0.27  OA
BRANCH 17 20
ATOM     20  CA  SER D 344      27.420  40.659  83.389  1.00 23.14 LIG 0.19  C 
BRANCH 20 21
ATOM     21  C   SER D 344      28.543  41.586  82.903  1.00 24.18 LIG 0.22  C 
ATOM     22 O    SER D 344      28.650  41.892  81.702  1.00 25.35 LIG-0.29  OA
ENDBRANCH 20 21
BRANCH 20 23
ATOM     23  CB  SER D 344      27.292  40.784  84.908  1.00 23.66 LIG 0.20  C 
BRANCH 23 24
ATOM     24 OG   SER D 344      26.301  39.891  85.420  1.00 25.03 LIG-0.40  OA
ATOM     25 HG   SER D 344      25.984  39.434  84.791  1.00 25.03 LIG 0.21  HD
ENDBRANCH 23 24
ENDBRANCH 20 23
ENDBRANCH 17 20
ENDBRANCH 15 16
BRANCH 15 26
ATOM     26  CB  LEU D 343      27.776  37.556  80.536  1.00 15.83 LIG 0.04  C 
BRANCH 26 27
ATOM     27  CG  LEU D 343      29.290  37.569  80.482  1.00 14.86 LIG-0.02  C 
ATOM     28  CD1 LEU D 343      29.778  38.904  79.942  1.00 12.95 LIG 0.01  C 
ATOM     29  CD2 LEU D 343      29.878  37.286  81.888  1.00 12.95 LIG 0.01  C 
ENDBRANCH 26 27
ENDBRANCH 15 26
ENDBRANCH 12 15
ENDBRANCH 10 11
BRANCH 10 30
ATOM     30  CB  HIS D 342      25.244  32.939  82.218  1.00 12.90 LIG 0.10  C 
BRANCH 30 31
ATOM     31  CG  HIS D 342      25.893  32.571  83.512  1.00 12.99 LIG 0.06  A 
ATOM     32  CD2 HIS D 342      26.968  31.785  83.761  1.00 12.88 LIG 0.14  A 
ATOM     33 NE2  HIS D 342      27.150  31.768  85.121  1.00 14.80 LIG-0.25  NA
ATOM     34  CE1 HIS D 342      26.221  32.510  85.691  1.00 13.21 LIG 0.23  A 
ATOM     35 ND1  HIS D 342      25.444  33.001  84.742  1.00 14.49 LIG-0.24  NA
ENDBRANCH 30 31
ENDBRANCH 10 30
ENDBRANCH 8 10
ENDBRANCH 5 6
BRANCH 5 36
ATOM     36  CB  THR D 341      23.017  37.256  78.902  1.00 12.70 LIG 0.15  C 
ATOM     37  CG2 THR D 341      22.437  38.289  79.886  1.00 14.15 LIG 0.04  C 
BRANCH 36 38
ATOM     38 OG1  THR D 341      24.445  37.374  78.848  1.00 14.08 LIG-0.39  OA
ATOM     39 HG1  THR D 341      24.795  36.742  79.275  1.00 14.08 LIG 0.21  HD
ENDBRANCH 36 38
ENDBRANCH 5 36
ENDBRANCH 3 5
BRANCH 1 40
ATOM     40  CA  TRP D 340      19.143  34.792  78.208  1.00 18.72 LIG 0.18  C 
BRANCH 40 41
ATOM     41  CB  TRP D 340      18.529  35.369  76.934  1.00 19.00 LIG 0.07  C 
BRANCH 41 42
ATOM     42  CG  TRP D 340      17.936  34.363  76.012  1.00 19.22 LIG-0.03  A 
ATOM     43  CD2 TRP D 340      18.605  33.698  74.942  1.00 20.18 LIG-0.00  A 
ATOM     44  CE3 TRP D 340      19.917  33.727  74.455  1.00 18.70 LIG 0.01  A 
ATOM     45  CE2 TRP D 340      17.656  32.863  74.310  1.00 18.84 LIG 0.04  A 
ATOM     46  CZ3 TRP D 340      20.240  32.930  73.359  1.00 20.55 LIG 0.00  A 
ATOM     47  CH2 TRP D 340      19.270  32.106  72.759  1.00 19.52 LIG 0.00  A 
ATOM     48  CZ2 TRP D 340      17.978  32.061  73.214  1.00 19.79 LIG 0.03  A 
ATOM     49  NE1 TRP D 340      16.464  33.014  74.972  1.00 21.77 LIG-0.36  N 
ATOM     50  CD1 TRP D 340      16.642  33.931  75.985  1.00 20.48 LIG 0.10  A 
ATOM     51 HE1  TRP D 340      15.731  32.605  74.787  1.00 21.77 LIG 0.17  HD
ENDBRANCH 41 42
ENDBRANCH 40 41
BRANCH 40 52
ATOM     52  N   TRP D 340      18.563  35.433  79.394  1.00 22.23 LIG-0.35  N 
ATOM     53  C   ASP D 339      18.188  34.749  80.473  1.00 26.49 LIG 0.24  C 
ATOM     54 O    ASP D 339      18.305  33.515  80.573  1.00 27.22 LIG-0.27  OA
ATOM     55 H    TRP D 340      18.489  36.287  79.326  1.00 22.23 LIG 0.16  HD
BRANCH 53 56
ATOM     56  CA  ASP D 339      17.586  35.565  81.622  1.00 29.46 LIG 0.19  C 
BRANCH 56 57
ATOM     57  CB  ASP D 339      17.839  34.843  82.948  1.00 30.27 LIG 0.15  C 
BRANCH 57 58
ATOM     58  CG  ASP D 339      17.005  33.569  83.108  1.00 32.94 LIG 0.17  C 
ATOM     59 OD1  ASP D 339      17.608  32.474  83.108  1.00 36.53 LIG-0.65  OA
ATOM     60 OD2  ASP D 339      15.756  33.653  83.218  1.00 35.99 LIG-0.65  OA
ENDBRANCH 57 58
ENDBRANCH 56 57
BRANCH 56 61
ATOM     61  N   ASP D 339      16.149  35.754  81.439  1.00 31.22 LIG-0.34  N 
ATOM     62  C   ASP D 338      15.624  36.646  80.601  1.00 32.92 LIG 0.26  C 
ATOM     63 O    ASP D 338      16.279  37.251  79.745  1.00 33.60 LIG-0.27  OA
ATOM     64 H    ASP D 339      15.671  35.231  81.926  1.00 31.22 LIG 0.16  HD
BRANCH 62 65
ATOM     65  CA  ASP D 338      14.118  36.867  80.734  1.00 33.82 LIG 0.41  C 
ATOM     66  N   ASP D 338      13.623  37.817  79.686  1.00 34.02 LIG 0.61  N 
BRANCH 65 67
ATOM     67  CB  ASP D 338      13.375  35.525  80.644  1.00 34.49 LIG 0.16  C 
BRANCH 67 68
ATOM     68  CG  ASP D 338      13.671  34.768  79.355  1.00 35.92 LIG 0.17  C 
ATOM     69 OD2  ASP D 338      13.921  35.428  78.327  1.00 39.23 LIG-0.65  OA
ATOM     70 OD1  ASP D 338      13.645  33.514  79.358  1.00 38.97 LIG-0.65  OA
ENDBRANCH 67 68
ENDBRANCH 65 67
ENDBRANCH 62 65
ENDBRANCH 56 61
ENDBRANCH 53 56
ENDBRANCH 40 52
ENDBRANCH 1 40
TORSDOF 27
ENDMDL
MODEL 28
USER: ADFR SOLUTION from run 143
USER: SCORE 20.730175 LL:  -5.401 LR: -17.477 RR:   0.000 FEB:  -9.422
USER: RMSD 12.246518
USER: SEED 142
USER: STATUS searching
USER: GENES 29
USER: genes 0 Translation |==|  0.41406 0.46225 0.42519
USER: genes 1 Rotation |==|  0.28387 0.11766 0.73577 0.53891
USER: genes 2 Torsion [C]-N--CA-[CB] |==|  0.34533
USER: genes 3 Torsion [N]-CA--C-[N] |==|  0.35392
USER: genes 4 Torsion [C]-N--CA-[C] |==|  0.76274
USER: genes 5 Torsion [N]-CA--C-[N] |==|  0.96799
USER: genes 6 Torsion [C]-N--CA-[C] |==|  0.84830
USER: genes 7 Torsion [N]-CA--C-[N] |==|  0.35001
USER: genes 8 Torsion [C]-N--CA-[C] |==|  0.76134
USER: genes 9 Torsion [N]-CA--C-[O] |==|  0.01400
USER: genes 10 Torsion [N]-CA--CB-[OG] |==|  0.98331
USER: genes 11 Torsion [CA]-CB--OG-[HG] |==|  0.57521
USER: genes 12 Torsion [N]-CA--CB-[CG] |==|  0.67882
USER: genes 13 Torsion [CA]-CB--CG-[CD2] |==|  0.84863
USER: genes 14 Torsion [N]-CA--CB-[CG] |==|  0.42068
USER: genes 15 Torsion [CA]-CB--CG-[CD2] |==|  0.67283
USER: genes 16 Torsion [N]-CA--CB-[OG1] |==|  0.48472
USER: genes 17 Torsion [CA]-CB--OG1-[HG1] |==|  0.03959
USER: genes 18 Torsion [N]-C--CA-[N] |==|  0.93048
USER: genes 19 Torsion [C]-CA--CB-[CG] |==|  0.07156
USER: genes 20 Torsion [CA]-CB--CG-[CD2] |==|  0.18982
USER: genes 21 Torsion [C]-CA--N-[C] |==|  0.73810
USER: genes 22 Torsion [N]-C--CA-[N] |==|  0.29057
USER: genes 23 Torsion [C]-CA--CB-[CG] |==|  0.75173
USER: genes 24 Torsion [CA]-CB--CG-[OD1] |==|  0.32771
USER: genes 25 Torsion [C]-CA--N-[C] |==|  0.72518
USER: genes 26 Torsion [N]-C--CA-[N] |==|  0.53341
USER: genes 27 Torsion [C]-CA--CB-[CG] |==|  0.82311
USER: genes 28 Torsion [CA]-CB--CG-[OD2] |==|  0.37196
ROOT
ATOM      1  C   TRP D 340      20.635  35.167  78.088  1.00 16.52 LIG 0.24  C 
ATOM      2 O    TRP D 340      21.296  34.394  77.390  1.00 16.60 LIG-0.27  OA
ATOM      3  N   THR D 341      21.177  35.965  78.998  1.00 13.22 LIG-0.34  N 
ATOM      4 H    THR D 341      20.715  36.510  79.477  1.00 13.22 LIG 0.16  HD
ENDROOT
BRANCH 3 5
ATOM      5  CA  THR D 341      22.603  36.008  79.286  1.00 12.53 LIG 0.20  C 
BRANCH 5 6
ATOM      6  C   THR D 341      22.872  35.489  80.697  1.00 12.10 LIG 0.24  C 
ATOM      7 O    THR D 341      22.256  35.930  81.665  1.00 10.92 LIG-0.27  OA
ATOM      8  N   HIS D 342      23.778  34.525  80.812  1.00 12.26 LIG-0.35  N 
ATOM      9 H    HIS D 342      24.199  34.175  80.149  1.00 12.26 LIG 0.16  HD
BRANCH 8 10
ATOM     10  CA  HIS D 342      24.133  33.973  82.116  1.00 12.78 LIG 0.18  C 
BRANCH 10 11
ATOM     11  C   HIS D 342      25.206  34.838  82.743  1.00 14.51 LIG 0.24  C 
ATOM     12  N   LEU D 343      25.785  35.742  81.958  1.00 15.48 LIG-0.35  N 
ATOM     13 H    LEU D 343      25.538  35.902  81.150  1.00 15.48 LIG 0.16  HD
ATOM     14 O    HIS D 342      25.501  34.696  83.944  1.00 16.02 LIG-0.27  OA
BRANCH 12 15
ATOM     15  CA  LEU D 343      26.914  36.556  82.415  1.00 16.72 LIG 0.18  C 
BRANCH 15 16
ATOM     16  C   LEU D 343      26.642  37.325  83.706  1.00 19.19 LIG 0.24  C 
ATOM     17  N   SER D 344      27.518  37.149  84.709  1.00 21.37 LIG-0.34  N 
ATOM     18 H    SER D 344      28.088  36.506  84.725  1.00 21.37 LIG 0.16  HD
ATOM     19 O    LEU D 343      25.674  38.063  83.785  1.00 19.56 LIG-0.27  OA
BRANCH 17 20
ATOM     20  CA  SER D 344      27.596  38.040  85.890  1.00 23.14 LIG 0.19  C 
BRANCH 20 21
ATOM     21  C   SER D 344      28.497  39.251  85.609  1.00 24.18 LIG 0.22  C 
ATOM     22 O    SER D 344      28.980  39.444  84.479  1.00 25.35 LIG-0.29  OA
ENDBRANCH 20 21
BRANCH 20 23
ATOM     23  CB  SER D 344      28.125  37.299  87.120  1.00 23.66 LIG 0.20  C 
BRANCH 23 24
ATOM     24 OG   SER D 344      28.279  35.903  86.857  1.00 25.03 LIG-0.40  OA
ATOM     25 HG   SER D 344      28.203  35.473  87.575  1.00 25.03 LIG 0.21  HD
ENDBRANCH 23 24
ENDBRANCH 20 23
ENDBRANCH 17 20
ENDBRANCH 15 16
BRANCH 15 26
ATOM     26  CB  LEU D 343      27.319  37.573  81.334  1.00 15.83 LIG 0.04  C 
BRANCH 26 27
ATOM     27  CG  LEU D 343      28.701  37.412  80.733  1.00 14.86 LIG-0.02  C 
ATOM     28  CD1 LEU D 343      28.968  38.529  79.736  1.00 12.95 LIG 0.01  C 
ATOM     29  CD2 LEU D 343      29.773  37.395  81.853  1.00 12.95 LIG 0.01  C 
ENDBRANCH 26 27
ENDBRANCH 15 26
ENDBRANCH 12 15
ENDBRANCH 10 11
BRANCH 10 30
ATOM     30  CB  HIS D 342      24.661  32.539  81.960  1.00 12.90 LIG 0.10  C 
BRANCH 30 31
ATOM     31  CG  HIS D 342      25.635  32.138  83.019  1.00 12.99 LIG 0.06  A 
ATOM     32  CD2 HIS D 342      26.938  31.778  82.923  1.00 12.88 LIG 0.14  A 
ATOM     33 NE2  HIS D 342      27.376  31.501  84.193  1.00 14.80 LIG-0.25  NA
ATOM     34  CE1 HIS D 342      26.383  31.677  85.042  1.00 13.21 LIG 0.23  A 
ATOM     35 ND1  HIS D 342      25.317  32.055  84.358  1.00 14.49 LIG-0.24  NA
ENDBRANCH 30 31
ENDBRANCH 10 30
ENDBRANCH 8 10
ENDBRANCH 5 6
BRANCH 5 36
ATOM     36  CB  THR D 341      23.149  37.446  79.129  1.00 12.70 LIG 0.15  C 
ATOM     37  CG2 THR D 341      22.326  38.456  79.952  1.00 14.15 LIG 0.04  C 
BRANCH 36 38
ATOM     38 OG1  THR D 341      24.521  37.475  79.543  1.00 14.08 LIG-0.39  OA
ATOM     39 HG1  THR D 341      24.813  36.690  79.601  1.00 14.08 LIG 0.21  HD
ENDBRANCH 36 38
ENDBRANCH 5 36
ENDBRANCH 3 5
BRANCH 1 40
ATOM     40  CA  TRP D 340      19.116  35.210  77.976  1.00 18.72 LIG 0.18  C 
BRANCH 40 41
ATOM     41  CB  TRP D 340      18.753  36.159  76.835  1.00 19.00 LIG 0.07  C 
BRANCH 41 42
ATOM     42  CG  TRP D 340      19.800  36.309  75.788  1.00 19.22 LIG-0.03  A 
ATOM     43  CD2 TRP D 340      20.219  35.310  74.862  1.00 20.18 LIG-0.00  A 
ATOM     44  CE3 TRP D 340      19.817  33.992  74.612  1.00 18.70 LIG 0.01  A 
ATOM     45  CE2 TRP D 340      21.258  35.870  74.084  1.00 18.84 LIG 0.04  A 
ATOM     46  CZ3 TRP D 340      20.461  33.277  73.604  1.00 20.55 LIG 0.00  A 
ATOM     47  CH2 TRP D 340      21.486  33.870  72.845  1.00 19.52 LIG 0.00  A 
ATOM     48  CZ2 TRP D 340      21.901  35.157  73.070  1.00 19.79 LIG 0.03  A 
ATOM     49  NE1 TRP D 340      21.456  37.155  74.519  1.00 21.77 LIG-0.36  N 
ATOM     50  CD1 TRP D 340      20.583  37.402  75.556  1.00 20.48 LIG 0.10  A 
ATOM     51 HE1  TRP D 340      22.028  37.712  74.200  1.00 21.77 LIG 0.17  HD
ENDBRANCH 41 42
ENDBRANCH 40 41
BRANCH 40 52
ATOM     52  N   TRP D 340      18.490  35.650  79.228  1.00 22.23 LIG-0.35  N 
ATOM     53  C   ASP D 339      18.052  34.798  80.154  1.00 26.49 LIG 0.24  C 
ATOM     54 O    ASP D 339      18.142  33.564  80.042  1.00 27.22 LIG-0.27  OA
ATOM     55 H    TRP D 340      18.434  36.504  79.308  1.00 22.23 LIG 0.16  HD
BRANCH 53 56
ATOM     56  CA  ASP D 339      17.408  35.418  81.400  1.00 29.46 LIG 0.19  C 
BRANCH 56 57
ATOM     57  CB  ASP D 339      17.956  34.729  82.652  1.00 30.27 LIG 0.15  C 
BRANCH 57 58
ATOM     58  CG  ASP D 339      17.139  33.502  83.069  1.00 32.94 LIG 0.17  C 
ATOM     59 OD1  ASP D 339      17.713  32.393  83.070  1.00 36.53 LIG-0.65  OA
ATOM     60 OD2  ASP D 339      15.929  33.638  83.380  1.00 35.99 LIG-0.65  OA
ENDBRANCH 57 58
ENDBRANCH 56 57
BRANCH 56 61
ATOM     61  N   ASP D 339      15.955  35.282  81.366  1.00 31.22 LIG-0.34  N 
ATOM     62  C   ASP D 338      15.133  36.257  80.982  1.00 32.92 LIG 0.26  C 
ATOM     63 O    ASP D 338      15.509  37.290  80.417  1.00 33.60 LIG-0.27  OA
ATOM     64 H    ASP D 339      15.678  34.509  81.620  1.00 31.22 LIG 0.16  HD
BRANCH 62 65
ATOM     65  CA  ASP D 338      13.649  36.011  81.254  1.00 33.82 LIG 0.41  C 
ATOM     66  N   ASP D 338      12.801  37.015  80.533  1.00 34.02 LIG 0.61  N 
BRANCH 65 67
ATOM     67  CB  ASP D 338      13.264  34.581  80.843  1.00 34.49 LIG 0.16  C 
BRANCH 67 68
ATOM     68  CG  ASP D 338      13.422  34.330  79.348  1.00 35.92 LIG 0.17  C 
ATOM     69 OD2  ASP D 338      13.989  33.281  78.983  1.00 39.23 LIG-0.65  OA
ATOM     70 OD1  ASP D 338      12.992  35.181  78.532  1.00 38.97 LIG-0.65  OA
ENDBRANCH 67 68
ENDBRANCH 65 67
ENDBRANCH 62 65
ENDBRANCH 56 61
ENDBRANCH 53 56
ENDBRANCH 40 52
ENDBRANCH 1 40
TORSDOF 27
ENDMDL
MODEL 29
USER: ADFR SOLUTION from run 191
USER: SCORE 20.885500 LL:  -6.062 LR: -17.482 RR:   0.000 FEB:  -9.428
USER: RMSD 4.022061
USER: SEED 190
USER: STATUS no improvement in best in 2 clusters for 5 generations
USER: GENES 29
USER: genes 0 Translation |==|  0.54846 0.54013 0.56391
USER: genes 1 Rotation |==|  0.51337 0.59287 0.49711 0.99111
USER: genes 2 Torsion [C]-N--CA-[CB] |==|  0.44058
USER: genes 3 Torsion [N]-CA--C-[N] |==|  0.90579
USER: genes 4 Torsion [C]-N--CA-[C] |==|  0.20034
USER: genes 5 Torsion [N]-CA--C-[N] |==|  0.01758
USER: genes 6 Torsion [C]-N--CA-[C] |==|  0.55160
USER: genes 7 Torsion [N]-CA--C-[N] |==|  0.10461
USER: genes 8 Torsion [C]-N--CA-[C] |==|  0.15589
USER: genes 9 Torsion [N]-CA--C-[O] |==|  0.11224
USER: genes 10 Torsion [N]-CA--CB-[OG] |==|  0.96161
USER: genes 11 Torsion [CA]-CB--OG-[HG] |==|  0.91151
USER: genes 12 Torsion [N]-CA--CB-[CG] |==|  0.68909
USER: genes 13 Torsion [CA]-CB--CG-[CD2] |==|  0.27664
USER: genes 14 Torsion [N]-CA--CB-[CG] |==|  0.77855
USER: genes 15 Torsion [CA]-CB--CG-[CD2] |==|  0.60996
USER: genes 16 Torsion [N]-CA--CB-[OG1] |==|  0.15007
USER: genes 17 Torsion [CA]-CB--OG1-[HG1] |==|  0.78431
USER: genes 18 Torsion [N]-C--CA-[N] |==|  0.35695
USER: genes 19 Torsion [C]-CA--CB-[CG] |==|  0.31882
USER: genes 20 Torsion [CA]-CB--CG-[CD2] |==|  0.36480
USER: genes 21 Torsion [C]-CA--N-[C] |==|  0.74767
USER: genes 22 Torsion [N]-C--CA-[N] |==|  0.39083
USER: genes 23 Torsion [C]-CA--CB-[CG] |==|  0.75899
USER: genes 24 Torsion [CA]-CB--CG-[OD1] |==|  0.55884
USER: genes 25 Torsion [C]-CA--N-[C] |==|  0.67744
USER: genes 26 Torsion [N]-C--CA-[N] |==|  0.27947
USER: genes 27 Torsion [C]-CA--CB-[CG] |==|  0.63569
USER: genes 28 Torsion [CA]-CB--CG-[OD2] |==|  0.32871
ROOT
ATOM      1  C   TRP D 340      24.365  36.685  81.834  1.00 16.52 LIG 0.24  C 
ATOM      2 O    TRP D 340      23.859  37.454  82.655  1.00 16.60 LIG-0.27  OA
ATOM      3  N   THR D 341      23.876  36.503  80.614  1.00 13.22 LIG-0.34  N 
ATOM      4 H    THR D 341      24.237  35.974  80.040  1.00 13.22 LIG 0.16  HD
ENDROOT
BRANCH 3 5
ATOM      5  CA  THR D 341      22.685  37.174  80.115  1.00 12.53 LIG 0.20  C 
BRANCH 5 6
ATOM      6  C   THR D 341      21.430  36.485  80.649  1.00 12.10 LIG 0.24  C 
ATOM      7 O    THR D 341      20.405  37.124  80.882  1.00 10.92 LIG-0.27  OA
ATOM      8  N   HIS D 342      21.500  35.171  80.815  1.00 12.26 LIG-0.35  N 
ATOM      9 H    HIS D 342      22.192  34.696  80.628  1.00 12.26 LIG 0.16  HD
BRANCH 8 10
ATOM     10  CA  HIS D 342      20.369  34.415  81.345  1.00 12.78 LIG 0.18  C 
BRANCH 10 11
ATOM     11  C   HIS D 342      19.284  34.344  80.292  1.00 14.51 LIG 0.24  C 
ATOM     12  N   LEU D 343      19.579  34.833  79.090  1.00 15.48 LIG-0.35  N 
ATOM     13 H    LEU D 343      20.360  35.117  78.868  1.00 15.48 LIG 0.16  HD
ATOM     14 O    HIS D 342      18.182  33.833  80.563  1.00 16.02 LIG-0.27  OA
BRANCH 12 15
ATOM     15  CA  LEU D 343      18.578  34.928  78.025  1.00 16.72 LIG 0.18  C 
BRANCH 15 16
ATOM     16  C   LEU D 343      19.172  35.079  76.627  1.00 19.19 LIG 0.24  C 
ATOM     17  N   SER D 344      20.292  34.385  76.368  1.00 21.37 LIG-0.34  N 
ATOM     18 H    SER D 344      20.775  34.028  76.984  1.00 21.37 LIG 0.16  HD
ATOM     19 O    LEU D 343      18.625  35.796  75.805  1.00 19.56 LIG-0.27  OA
BRANCH 17 20
ATOM     20  CA  SER D 344      20.815  34.158  75.001  1.00 23.14 LIG 0.19  C 
BRANCH 20 21
ATOM     21  C   SER D 344      21.035  35.488  74.266  1.00 24.18 LIG 0.22  C 
ATOM     22 O    SER D 344      21.512  36.475  74.853  1.00 25.35 LIG-0.29  OA
ENDBRANCH 20 21
BRANCH 20 23
ATOM     23  CB  SER D 344      19.869  33.283  74.175  1.00 23.66 LIG 0.20  C 
BRANCH 23 24
ATOM     24 OG   SER D 344      18.894  32.647  75.004  1.00 25.03 LIG-0.40  OA
ATOM     25 HG   SER D 344      19.227  32.492  75.760  1.00 25.03 LIG 0.21  HD
ENDBRANCH 23 24
ENDBRANCH 20 23
ENDBRANCH 17 20
ENDBRANCH 15 16
BRANCH 15 26
ATOM     26  CB  LEU D 343      17.638  36.120  78.271  1.00 15.83 LIG 0.04  C 
BRANCH 26 27
ATOM     27  CG  LEU D 343      16.199  35.791  78.615  1.00 14.86 LIG-0.02  C 
ATOM     28  CD1 LEU D 343      15.846  34.405  78.098  1.00 12.95 LIG 0.01  C 
ATOM     29  CD2 LEU D 343      15.978  35.890  80.146  1.00 12.95 LIG 0.01  C 
ENDBRANCH 26 27
ENDBRANCH 15 26
ENDBRANCH 12 15
ENDBRANCH 10 11
BRANCH 10 30
ATOM     30  CB  HIS D 342      19.814  35.100  82.603  1.00 12.90 LIG 0.10  C 
BRANCH 30 31
ATOM     31  CG  HIS D 342      20.606  34.822  83.839  1.00 12.99 LIG 0.06  A 
ATOM     32  CD2 HIS D 342      20.197  34.585  85.108  1.00 12.88 LIG 0.14  A 
ATOM     33 NE2  HIS D 342      21.324  34.392  85.867  1.00 14.80 LIG-0.25  NA
ATOM     34  CE1 HIS D 342      22.388  34.512  85.099  1.00 13.21 LIG 0.23  A 
ATOM     35 ND1  HIS D 342      21.984  34.778  83.870  1.00 14.49 LIG-0.24  NA
ENDBRANCH 30 31
ENDBRANCH 10 30
ENDBRANCH 8 10
ENDBRANCH 5 6
BRANCH 5 36
ATOM     36  CB  THR D 341      22.674  37.187  78.568  1.00 12.70 LIG 0.15  C 
ATOM     37  CG2 THR D 341      23.790  38.085  78.003  1.00 14.15 LIG 0.04  C 
BRANCH 36 38
ATOM     38 OG1  THR D 341      22.829  35.845  78.086  1.00 14.08 LIG-0.39  OA
ATOM     39 HG1  THR D 341      23.634  35.617  78.147  1.00 14.08 LIG 0.21  HD
ENDBRANCH 36 38
ENDBRANCH 5 36
ENDBRANCH 3 5
BRANCH 1 40
ATOM     40  CA  TRP D 340      25.580  35.843  82.204  1.00 18.72 LIG 0.18  C 
BRANCH 40 41
ATOM     41  CB  TRP D 340      25.140  34.811  83.241  1.00 19.00 LIG 0.07  C 
BRANCH 41 42
ATOM     42  CG  TRP D 340      25.214  33.395  82.787  1.00 19.22 LIG-0.03  A 
ATOM     43  CD2 TRP D 340      25.808  32.310  83.495  1.00 20.18 LIG-0.00  A 
ATOM     44  CE3 TRP D 340      26.431  32.194  84.744  1.00 18.70 LIG 0.01  A 
ATOM     45  CE2 TRP D 340      25.688  31.162  82.679  1.00 18.84 LIG 0.04  A 
ATOM     46  CZ3 TRP D 340      26.915  30.948  85.136  1.00 20.55 LIG 0.00  A 
ATOM     47  CH2 TRP D 340      26.771  29.826  84.300  1.00 19.52 LIG 0.00  A 
ATOM     48  CZ2 TRP D 340      26.168  29.911  83.072  1.00 19.79 LIG 0.03  A 
ATOM     49  NE1 TRP D 340      25.045  31.537  81.527  1.00 21.77 LIG-0.36  N 
ATOM     50  CD1 TRP D 340      24.779  32.887  81.597  1.00 20.48 LIG 0.10  A 
ATOM     51 HE1  TRP D 340      24.843  31.018  80.872  1.00 21.77 LIG 0.17  HD
ENDBRANCH 41 42
ENDBRANCH 40 41
BRANCH 40 52
ATOM     52  N   TRP D 340      26.673  36.667  82.732  1.00 22.23 LIG-0.35  N 
ATOM     53  C   ASP D 339      27.624  37.186  81.956  1.00 26.49 LIG 0.24  C 
ATOM     54 O    ASP D 339      27.662  37.025  80.724  1.00 27.22 LIG-0.27  OA
ATOM     55 H    TRP D 340      26.642  36.782  83.583  1.00 22.23 LIG 0.16  HD
BRANCH 53 56
ATOM     56  CA  ASP D 339      28.705  38.011  82.665  1.00 29.46 LIG 0.19  C 
BRANCH 56 57
ATOM     57  CB  ASP D 339      28.370  39.500  82.542  1.00 30.27 LIG 0.15  C 
BRANCH 57 58
ATOM     58  CG  ASP D 339      28.907  40.133  81.255  1.00 32.94 LIG 0.17  C 
ATOM     59 OD1  ASP D 339      29.053  41.374  81.233  1.00 36.53 LIG-0.65  OA
ATOM     60 OD2  ASP D 339      29.169  39.404  80.266  1.00 35.99 LIG-0.65  OA
ENDBRANCH 57 58
ENDBRANCH 56 57
BRANCH 56 61
ATOM     61  N   ASP D 339      30.023  37.760  82.088  1.00 31.22 LIG-0.34  N 
ATOM     62  C   ASP D 338      31.028  37.205  82.763  1.00 32.92 LIG 0.26  C 
ATOM     63 O    ASP D 338      30.896  36.656  83.862  1.00 33.60 LIG-0.27  OA
ATOM     64 H    ASP D 339      30.089  38.005  81.267  1.00 31.22 LIG 0.16  HD
BRANCH 62 65
ATOM     65  CA  ASP D 338      32.391  37.256  82.073  1.00 33.82 LIG 0.41  C 
ATOM     66  N   ASP D 338      33.234  38.359  82.637  1.00 34.02 LIG 0.61  N 
BRANCH 65 67
ATOM     67  CB  ASP D 338      33.106  35.903  82.211  1.00 34.49 LIG 0.16  C 
BRANCH 67 68
ATOM     68  CG  ASP D 338      34.546  36.039  82.691  1.00 35.92 LIG 0.17  C 
ATOM     69 OD2  ASP D 338      34.859  35.508  83.775  1.00 39.23 LIG-0.65  OA
ATOM     70 OD1  ASP D 338      35.368  36.683  81.997  1.00 38.97 LIG-0.65  OA
ENDBRANCH 67 68
ENDBRANCH 65 67
ENDBRANCH 62 65
ENDBRANCH 56 61
ENDBRANCH 53 56
ENDBRANCH 40 52
ENDBRANCH 1 40
TORSDOF 27
ENDMDL
MODEL 30
USER: ADFR SOLUTION from run 192
USER: SCORE 20.268836 LL:  -5.589 LR: -17.474 RR:   0.000 FEB:  -9.419
USER: RMSD 12.590832
USER: SEED 191
USER: STATUS no improvement in best in 7 clusters for 5 generations
USER: GENES 29
USER: genes 0 Translation |==|  0.42993 0.47222 0.44229
USER: genes 1 Rotation |==|  0.27792 0.09114 0.67454 0.55525
USER: genes 2 Torsion [C]-N--CA-[CB] |==|  0.36749
USER: genes 3 Torsion [N]-CA--C-[N] |==|  0.39534
USER: genes 4 Torsion [C]-N--CA-[C] |==|  0.76490
USER: genes 5 Torsion [N]-CA--C-[N] |==|  0.40110
USER: genes 6 Torsion [C]-N--CA-[C] |==|  0.66293
USER: genes 7 Torsion [N]-CA--C-[N] |==|  0.69478
USER: genes 8 Torsion [C]-N--CA-[C] |==|  0.55222
USER: genes 9 Torsion [N]-CA--C-[O] |==|  0.78361
USER: genes 10 Torsion [N]-CA--CB-[OG] |==|  0.59511
USER: genes 11 Torsion [CA]-CB--OG-[HG] |==|  0.30036
USER: genes 12 Torsion [N]-CA--CB-[CG] |==|  0.98828
USER: genes 13 Torsion [CA]-CB--CG-[CD2] |==|  0.75405
USER: genes 14 Torsion [N]-CA--CB-[CG] |==|  0.45108
USER: genes 15 Torsion [CA]-CB--CG-[CD2] |==|  0.28502
USER: genes 16 Torsion [N]-CA--CB-[OG1] |==|  0.64718
USER: genes 17 Torsion [CA]-CB--OG1-[HG1] |==|  0.88485
USER: genes 18 Torsion [N]-C--CA-[N] |==|  0.95362
USER: genes 19 Torsion [C]-CA--CB-[CG] |==|  0.82324
USER: genes 20 Torsion [CA]-CB--CG-[CD2] |==|  0.22287
USER: genes 21 Torsion [C]-CA--N-[C] |==|  0.71679
USER: genes 22 Torsion [N]-C--CA-[N] |==|  0.32361
USER: genes 23 Torsion [C]-CA--CB-[CG] |==|  0.74052
USER: genes 24 Torsion [CA]-CB--CG-[OD1] |==|  0.33267
USER: genes 25 Torsion [C]-CA--N-[C] |==|  0.71185
USER: genes 26 Torsion [N]-C--CA-[N] |==|  0.39261
USER: genes 27 Torsion [C]-CA--CB-[CG] |==|  0.15257
USER: genes 28 Torsion [CA]-CB--CG-[OD2] |==|  0.80194
ROOT
ATOM      1  C   TRP D 340      21.076  35.361  78.550  1.00 16.52 LIG 0.24  C 
ATOM      2 O    TRP D 340      21.779  34.776  77.723  1.00 16.60 LIG-0.27  OA
ATOM      3  N   THR D 341      21.555  35.878  79.674  1.00 13.22 LIG-0.34  N 
ATOM      4 H    THR D 341      21.064  36.294  80.244  1.00 13.22 LIG 0.16  HD
ENDROOT
BRANCH 3 5
ATOM      5  CA  THR D 341      22.955  35.798  80.064  1.00 12.53 LIG 0.20  C 
BRANCH 5 6
ATOM      6  C   THR D 341      23.134  34.769  81.179  1.00 12.10 LIG 0.24  C 
ATOM      7 O    THR D 341      22.282  34.625  82.054  1.00 10.92 LIG-0.27  OA
ATOM      8  N   HIS D 342      24.235  34.029  81.132  1.00 12.26 LIG-0.35  N 
ATOM      9 H    HIS D 342      24.830  34.086  80.514  1.00 12.26 LIG 0.16  HD
BRANCH 8 10
ATOM     10  CA  HIS D 342      24.521  33.034  82.161  1.00 12.78 LIG 0.18  C 
BRANCH 10 11
ATOM     11  C   HIS D 342      25.199  33.713  83.332  1.00 14.51 LIG 0.24  C 
ATOM     12  N   LEU D 343      24.902  33.257  84.545  1.00 15.48 LIG-0.35  N 
ATOM     13 H    LEU D 343      24.409  32.568  84.690  1.00 15.48 LIG 0.16  HD
ATOM     14 O    HIS D 342      26.003  34.643  83.135  1.00 16.02 LIG-0.27  OA
BRANCH 12 15
ATOM     15  CA  LEU D 343      25.402  33.905  85.760  1.00 16.72 LIG 0.18  C 
BRANCH 15 16
ATOM     16  C   LEU D 343      26.235  32.990  86.655  1.00 19.19 LIG 0.24  C 
ATOM     17  N   SER D 344      25.684  32.623  87.823  1.00 21.37 LIG-0.34  N 
ATOM     18 H    SER D 344      24.998  33.016  88.161  1.00 21.37 LIG 0.16  HD
ATOM     19 O    LEU D 343      27.339  32.621  86.291  1.00 19.56 LIG-0.27  OA
BRANCH 17 20
ATOM     20  CA  SER D 344      26.194  31.506  88.651  1.00 23.14 LIG 0.19  C 
BRANCH 20 21
ATOM     21  C   SER D 344      25.130  31.029  89.649  1.00 24.18 LIG 0.22  C 
ATOM     22 O    SER D 344      24.895  31.664  90.692  1.00 25.35 LIG-0.29  OA
ENDBRANCH 20 21
BRANCH 20 23
ATOM     23  CB  SER D 344      27.455  31.906  89.420  1.00 23.66 LIG 0.20  C 
BRANCH 23 24
ATOM     24 OG   SER D 344      28.354  30.803  89.550  1.00 25.03 LIG-0.40  OA
ATOM     25 HG   SER D 344      29.021  30.925  89.053  1.00 25.03 LIG 0.21  HD
ENDBRANCH 23 24
ENDBRANCH 20 23
ENDBRANCH 17 20
ENDBRANCH 15 16
BRANCH 15 26
ATOM     26  CB  LEU D 343      24.235  34.453  86.600  1.00 15.83 LIG 0.04  C 
BRANCH 26 27
ATOM     27  CG  LEU D 343      22.848  34.324  86.002  1.00 14.86 LIG-0.02  C 
ATOM     28  CD1 LEU D 343      21.820  34.154  87.109  1.00 12.95 LIG 0.01  C 
ATOM     29  CD2 LEU D 343      22.526  35.562  85.126  1.00 12.95 LIG 0.01  C 
ENDBRANCH 26 27
ENDBRANCH 15 26
ENDBRANCH 12 15
ENDBRANCH 10 11
BRANCH 10 30
ATOM     30  CB  HIS D 342      25.445  31.942  81.601  1.00 12.90 LIG 0.10  C 
BRANCH 30 31
ATOM     31  CG  HIS D 342      26.121  31.127  82.655  1.00 12.99 LIG 0.06  A 
ATOM     32  CD2 HIS D 342      25.850  29.879  83.108  1.00 12.88 LIG 0.14  A 
ATOM     33 NE2  HIS D 342      26.768  29.596  84.088  1.00 14.80 LIG-0.25  NA
ATOM     34  CE1 HIS D 342      27.571  30.631  84.240  1.00 13.21 LIG 0.23  A 
ATOM     35 ND1  HIS D 342      27.198  31.572  83.392  1.00 14.49 LIG-0.24  NA
ENDBRANCH 30 31
ENDBRANCH 10 30
ENDBRANCH 8 10
ENDBRANCH 5 6
BRANCH 5 36
ATOM     36  CB  THR D 341      23.473  37.181  80.521  1.00 12.70 LIG 0.15  C 
ATOM     37  CG2 THR D 341      23.763  37.205  82.034  1.00 14.15 LIG 0.04  C 
BRANCH 36 38
ATOM     38 OG1  THR D 341      24.662  37.503  79.786  1.00 14.08 LIG-0.39  OA
ATOM     39 HG1  THR D 341      25.145  36.819  79.722  1.00 14.08 LIG 0.21  HD
ENDBRANCH 36 38
ENDBRANCH 5 36
ENDBRANCH 3 5
BRANCH 1 40
ATOM     40  CA  TRP D 340      19.570  35.480  78.345  1.00 18.72 LIG 0.18  C 
BRANCH 40 41
ATOM     41  CB  TRP D 340      19.320  36.572  77.305  1.00 19.00 LIG 0.07  C 
BRANCH 41 42
ATOM     42  CG  TRP D 340      19.754  37.936  77.714  1.00 19.22 LIG-0.03  A 
ATOM     43  CD2 TRP D 340      21.083  38.450  77.670  1.00 20.18 LIG-0.00  A 
ATOM     44  CE3 TRP D 340      22.309  37.925  77.244  1.00 18.70 LIG 0.01  A 
ATOM     45  CE2 TRP D 340      21.041  39.765  78.185  1.00 18.84 LIG 0.04  A 
ATOM     46  CZ3 TRP D 340      23.448  38.721  77.348  1.00 20.55 LIG 0.00  A 
ATOM     47  CH2 TRP D 340      23.366  40.029  77.860  1.00 19.52 LIG 0.00  A 
ATOM     48  CZ2 TRP D 340      22.179  40.566  78.286  1.00 19.79 LIG 0.03  A 
ATOM     49  NE1 TRP D 340      19.739  40.037  78.523  1.00 21.77 LIG-0.36  N 
ATOM     50  CD1 TRP D 340      18.977  38.923  78.249  1.00 20.48 LIG 0.10  A 
ATOM     51 HE1  TRP D 340      19.449  40.777  78.851  1.00 21.77 LIG 0.17  HD
ENDBRANCH 41 42
ENDBRANCH 40 41
BRANCH 40 52
ATOM     52  N   TRP D 340      18.873  35.795  79.597  1.00 22.23 LIG-0.35  N 
ATOM     53  C   ASP D 339      18.215  34.879  80.306  1.00 26.49 LIG 0.24  C 
ATOM     54 O    ASP D 339      18.142  33.683  79.974  1.00 27.22 LIG-0.27  OA
ATOM     55 H    TRP D 340      18.929  36.621  79.828  1.00 22.23 LIG 0.16  HD
BRANCH 53 56
ATOM     56  CA  ASP D 339      17.527  35.372  81.584  1.00 29.46 LIG 0.19  C 
BRANCH 56 57
ATOM     57  CB  ASP D 339      18.055  34.582  82.784  1.00 30.27 LIG 0.15  C 
BRANCH 57 58
ATOM     58  CG  ASP D 339      17.195  33.362  83.126  1.00 32.94 LIG 0.17  C 
ATOM     59 OD1  ASP D 339      17.736  32.237  83.083  1.00 36.53 LIG-0.65  OA
ATOM     60 OD2  ASP D 339      15.984  33.519  83.422  1.00 35.99 LIG-0.65  OA
ENDBRANCH 57 58
ENDBRANCH 56 57
BRANCH 56 61
ATOM     61  N   ASP D 339      16.078  35.214  81.498  1.00 31.22 LIG-0.34  N 
ATOM     62  C   ASP D 338      15.239  36.223  81.270  1.00 32.92 LIG 0.26  C 
ATOM     63 O    ASP D 338      15.600  37.346  80.901  1.00 33.60 LIG-0.27  OA
ATOM     64 H    ASP D 339      15.815  34.403  81.608  1.00 31.22 LIG 0.16  HD
BRANCH 62 65
ATOM     65  CA  ASP D 338      13.757  35.904  81.465  1.00 33.82 LIG 0.41  C 
ATOM     66  N   ASP D 338      13.041  37.058  82.100  1.00 34.02 LIG 0.61  N 
BRANCH 65 67
ATOM     67  CB  ASP D 338      13.111  35.540  80.119  1.00 34.49 LIG 0.16  C 
BRANCH 67 68
ATOM     68  CG  ASP D 338      13.832  34.403  79.404  1.00 35.92 LIG 0.17  C 
ATOM     69 OD2  ASP D 338      14.954  34.633  78.911  1.00 39.23 LIG-0.65  OA
ATOM     70 OD1  ASP D 338      13.278  33.280  79.320  1.00 38.97 LIG-0.65  OA
ENDBRANCH 67 68
ENDBRANCH 65 67
ENDBRANCH 62 65
ENDBRANCH 56 61
ENDBRANCH 53 56
ENDBRANCH 40 52
ENDBRANCH 1 40
TORSDOF 27
ENDMDL
MODEL 31
USER: ADFR SOLUTION from run 191
USER: SCORE 20.907427 LL:  -5.942 LR: -17.450 RR:   0.000 FEB:  -9.396
USER: RMSD 4.069538
USER: SEED 190
USER: STATUS no improvement in best in 2 clusters for 5 generations
USER: GENES 29
USER: genes 0 Translation |==|  0.54832 0.53451 0.55830
USER: genes 1 Rotation |==|  0.52090 0.60172 0.49084 0.98901
USER: genes 2 Torsion [C]-N--CA-[CB] |==|  0.43637
USER: genes 3 Torsion [N]-CA--C-[N] |==|  0.91690
USER: genes 4 Torsion [C]-N--CA-[C] |==|  0.19982
USER: genes 5 Torsion [N]-CA--C-[N] |==|  0.01743
USER: genes 6 Torsion [C]-N--CA-[C] |==|  0.55000
USER: genes 7 Torsion [N]-CA--C-[N] |==|  0.10253
USER: genes 8 Torsion [C]-N--CA-[C] |==|  0.15848
USER: genes 9 Torsion [N]-CA--C-[O] |==|  0.11511
USER: genes 10 Torsion [N]-CA--CB-[OG] |==|  0.96097
USER: genes 11 Torsion [CA]-CB--OG-[HG] |==|  0.90956
USER: genes 12 Torsion [N]-CA--CB-[CG] |==|  0.69401
USER: genes 13 Torsion [CA]-CB--CG-[CD2] |==|  0.28369
USER: genes 14 Torsion [N]-CA--CB-[CG] |==|  0.78990
USER: genes 15 Torsion [CA]-CB--CG-[CD2] |==|  0.62268
USER: genes 16 Torsion [N]-CA--CB-[OG1] |==|  0.15694
USER: genes 17 Torsion [CA]-CB--OG1-[HG1] |==|  0.77402
USER: genes 18 Torsion [N]-C--CA-[N] |==|  0.34487
USER: genes 19 Torsion [C]-CA--CB-[CG] |==|  0.33551
USER: genes 20 Torsion [CA]-CB--CG-[CD2] |==|  0.36551
USER: genes 21 Torsion [C]-CA--N-[C] |==|  0.77357
USER: genes 22 Torsion [N]-C--CA-[N] |==|  0.97219
USER: genes 23 Torsion [C]-CA--CB-[CG] |==|  0.22920
USER: genes 24 Torsion [CA]-CB--CG-[OD1] |==|  0.92430
USER: genes 25 Torsion [C]-CA--N-[C] |==|  0.77693
USER: genes 26 Torsion [N]-C--CA-[N] |==|  0.43839
USER: genes 27 Torsion [C]-CA--CB-[CG] |==|  0.17663
USER: genes 28 Torsion [CA]-CB--CG-[OD2] |==|  0.69128
ROOT
ATOM      1  C   TRP D 340      24.361  36.576  81.682  1.00 16.52 LIG 0.24  C 
ATOM      2 O    TRP D 340      23.908  37.337  82.540  1.00 16.60 LIG-0.27  OA
ATOM      3  N   THR D 341      23.823  36.439  80.477  1.00 13.22 LIG-0.34  N 
ATOM      4 H    THR D 341      24.146  35.915  79.877  1.00 13.22 LIG 0.16  HD
ENDROOT
BRANCH 3 5
ATOM      5  CA  THR D 341      22.635  37.157  80.039  1.00 12.53 LIG 0.20  C 
BRANCH 5 6
ATOM      6  C   THR D 341      21.378  36.470  80.572  1.00 12.10 LIG 0.24  C 
ATOM      7 O    THR D 341      20.349  37.107  80.791  1.00 10.92 LIG-0.27  OA
ATOM      8  N   HIS D 342      21.451  35.157  80.752  1.00 12.26 LIG-0.35  N 
ATOM      9 H    HIS D 342      22.146  34.682  80.575  1.00 12.26 LIG 0.16  HD
BRANCH 8 10
ATOM     10  CA  HIS D 342      20.320  34.403  81.282  1.00 12.78 LIG 0.18  C 
BRANCH 10 11
ATOM     11  C   HIS D 342      19.240  34.321  80.223  1.00 14.51 LIG 0.24  C 
ATOM     12  N   LEU D 343      19.541  34.802  79.020  1.00 15.48 LIG-0.35  N 
ATOM     13 H    LEU D 343      20.322  35.087  78.800  1.00 15.48 LIG 0.16  HD
ATOM     14 O    HIS D 342      18.138  33.809  80.492  1.00 16.02 LIG-0.27  OA
BRANCH 12 15
ATOM     15  CA  LEU D 343      18.546  34.886  77.948  1.00 16.72 LIG 0.18  C 
BRANCH 15 16
ATOM     16  C   LEU D 343      19.146  35.043  76.554  1.00 19.19 LIG 0.24  C 
ATOM     17  N   SER D 344      20.283  34.373  76.307  1.00 21.37 LIG-0.34  N 
ATOM     18 H    SER D 344      20.769  34.030  76.928  1.00 21.37 LIG 0.16  HD
ATOM     19 O    LEU D 343      18.589  35.743  75.724  1.00 19.56 LIG-0.27  OA
BRANCH 17 20
ATOM     20  CA  SER D 344      20.821  34.150  74.945  1.00 23.14 LIG 0.19  C 
BRANCH 20 21
ATOM     21  C   SER D 344      21.039  35.482  74.213  1.00 24.18 LIG 0.22  C 
ATOM     22 O    SER D 344      21.520  36.467  74.800  1.00 25.35 LIG-0.29  OA
ENDBRANCH 20 21
BRANCH 20 23
ATOM     23  CB  SER D 344      19.890  33.269  74.109  1.00 23.66 LIG 0.20  C 
BRANCH 23 24
ATOM     24 OG   SER D 344      18.915  32.621  74.929  1.00 25.03 LIG-0.40  OA
ATOM     25 HG   SER D 344      19.247  32.459  75.684  1.00 25.03 LIG 0.21  HD
ENDBRANCH 23 24
ENDBRANCH 20 23
ENDBRANCH 17 20
ENDBRANCH 15 16
BRANCH 15 26
ATOM     26  CB  LEU D 343      17.591  36.069  78.189  1.00 15.83 LIG 0.04  C 
BRANCH 26 27
ATOM     27  CG  LEU D 343      16.164  35.725  78.564  1.00 14.86 LIG-0.02  C 
ATOM     28  CD1 LEU D 343      15.843  34.302  78.137  1.00 12.95 LIG 0.01  C 
ATOM     29  CD2 LEU D 343      15.952  35.912  80.089  1.00 12.95 LIG 0.01  C 
ENDBRANCH 26 27
ENDBRANCH 15 26
ENDBRANCH 12 15
ENDBRANCH 10 11
BRANCH 10 30
ATOM     30  CB  HIS D 342      19.756  35.097  82.531  1.00 12.90 LIG 0.10  C 
BRANCH 30 31
ATOM     31  CG  HIS D 342      20.595  34.909  83.753  1.00 12.99 LIG 0.06  A 
ATOM     32  CD2 HIS D 342      20.237  34.611  85.026  1.00 12.88 LIG 0.14  A 
ATOM     33 NE2  HIS D 342      21.390  34.556  85.767  1.00 14.80 LIG-0.25  NA
ATOM     34  CE1 HIS D 342      22.420  34.815  84.986  1.00 13.21 LIG 0.23  A 
ATOM     35 ND1  HIS D 342      21.967  35.040  83.765  1.00 14.49 LIG-0.24  NA
ENDBRANCH 30 31
ENDBRANCH 10 30
ENDBRANCH 8 10
ENDBRANCH 5 6
BRANCH 5 36
ATOM     36  CB  THR D 341      22.587  37.243  78.496  1.00 12.70 LIG 0.15  C 
ATOM     37  CG2 THR D 341      23.745  38.094  77.942  1.00 14.15 LIG 0.04  C 
BRANCH 36 38
ATOM     38 OG1  THR D 341      22.643  35.919  77.950  1.00 14.08 LIG-0.39  OA
ATOM     39 HG1  THR D 341      23.441  35.657  77.932  1.00 14.08 LIG 0.21  HD
ENDBRANCH 36 38
ENDBRANCH 5 36
ENDBRANCH 3 5
BRANCH 1 40
ATOM     40  CA  TRP D 340      25.563  35.689  81.986  1.00 18.72 LIG 0.18  C 
BRANCH 40 41
ATOM     41  CB  TRP D 340      25.162  34.714  83.092  1.00 19.00 LIG 0.07  C 
BRANCH 41 42
ATOM     42  CG  TRP D 340      25.271  33.275  82.727  1.00 19.22 LIG-0.03  A 
ATOM     43  CD2 TRP D 340      25.897  32.253  83.499  1.00 20.18 LIG-0.00  A 
ATOM     44  CE3 TRP D 340      26.531  32.233  84.747  1.00 18.70 LIG 0.01  A 
ATOM     45  CE2 TRP D 340      25.803  31.053  82.758  1.00 18.84 LIG 0.04  A 
ATOM     46  CZ3 TRP D 340      27.050  31.027  85.214  1.00 20.55 LIG 0.00  A 
ATOM     47  CH2 TRP D 340      26.931  29.850  84.452  1.00 19.52 LIG 0.00  A 
ATOM     48  CZ2 TRP D 340      26.318  29.842  83.225  1.00 19.79 LIG 0.03  A 
ATOM     49  NE1 TRP D 340      25.144  31.337  81.589  1.00 21.77 LIG-0.36  N 
ATOM     50  CD1 TRP D 340      24.843  32.681  81.576  1.00 20.48 LIG 0.10  A 
ATOM     51 HE1  TRP D 340      24.952  30.772  80.970  1.00 21.77 LIG 0.17  HD
ENDBRANCH 41 42
ENDBRANCH 40 41
BRANCH 40 52
ATOM     52  N   TRP D 340      26.731  36.477  82.395  1.00 22.23 LIG-0.35  N 
ATOM     53  C   ASP D 339      27.539  37.077  81.521  1.00 26.49 LIG 0.24  C 
ATOM     54 O    ASP D 339      27.368  37.028  80.291  1.00 27.22 LIG-0.27  OA
ATOM     55 H    TRP D 340      26.844  36.515  83.246  1.00 22.23 LIG 0.16  HD
BRANCH 53 56
ATOM     56  CA  ASP D 339      28.724  37.850  82.110  1.00 29.46 LIG 0.19  C 
BRANCH 56 57
ATOM     57  CB  ASP D 339      30.027  37.124  81.765  1.00 30.27 LIG 0.15  C 
BRANCH 57 58
ATOM     58  CG  ASP D 339      30.545  37.451  80.361  1.00 32.94 LIG 0.17  C 
ATOM     59 OD1  ASP D 339      29.708  37.786  79.495  1.00 36.53 LIG-0.65  OA
ATOM     60 OD2  ASP D 339      31.774  37.363  80.115  1.00 35.99 LIG-0.65  OA
ENDBRANCH 57 58
ENDBRANCH 56 57
BRANCH 56 61
ATOM     61  N   ASP D 339      28.606  37.973  83.560  1.00 31.22 LIG-0.34  N 
ATOM     62  C   ASP D 338      27.837  38.878  84.162  1.00 32.92 LIG 0.26  C 
ATOM     63 O    ASP D 338      26.989  39.558  83.574  1.00 33.60 LIG-0.27  OA
ATOM     64 H    ASP D 339      29.084  37.403  83.992  1.00 31.22 LIG 0.16  HD
BRANCH 62 65
ATOM     65  CA  ASP D 338      28.039  39.014  85.671  1.00 33.82 LIG 0.41  C 
ATOM     66  N   ASP D 338      27.567  40.352  86.154  1.00 34.02 LIG 0.61  N 
BRANCH 65 67
ATOM     67  CB  ASP D 338      27.307  37.882  86.409  1.00 34.49 LIG 0.16  C 
BRANCH 67 68
ATOM     68  CG  ASP D 338      27.859  36.502  86.074  1.00 35.92 LIG 0.17  C 
ATOM     69 OD2  ASP D 338      27.143  35.725  85.411  1.00 39.23 LIG-0.65  OA
ATOM     70 OD1  ASP D 338      29.003  36.181  86.479  1.00 38.97 LIG-0.65  OA
ENDBRANCH 67 68
ENDBRANCH 65 67
ENDBRANCH 62 65
ENDBRANCH 56 61
ENDBRANCH 53 56
ENDBRANCH 40 52
ENDBRANCH 1 40
TORSDOF 27
ENDMDL
MODEL 32
USER: ADFR SOLUTION from run 65
USER: SCORE 21.124251 LL:  -4.920 LR: -17.417 RR:   0.000 FEB:  -9.363
USER: RMSD 13.473024
USER: SEED 64
USER: STATUS searching
USER: GENES 29
USER: genes 0 Translation |==|  0.56818 0.42227 0.58490
USER: genes 1 Rotation |==|  0.62529 0.90820 0.75856 0.52873
USER: genes 2 Torsion [C]-N--CA-[CB] |==|  0.83228
USER: genes 3 Torsion [N]-CA--C-[N] |==|  0.44761
USER: genes 4 Torsion [C]-N--CA-[C] |==|  0.75008
USER: genes 5 Torsion [N]-CA--C-[N] |==|  0.45987
USER: genes 6 Torsion [C]-N--CA-[C] |==|  0.63688
USER: genes 7 Torsion [N]-CA--C-[N] |==|  0.41340
USER: genes 8 Torsion [C]-N--CA-[C] |==|  0.64725
USER: genes 9 Torsion [N]-CA--C-[O] |==|  0.09444
USER: genes 10 Torsion [N]-CA--CB-[OG] |==|  0.93159
USER: genes 11 Torsion [CA]-CB--OG-[HG] |==|  0.11833
USER: genes 12 Torsion [N]-CA--CB-[CG] |==|  0.63857
USER: genes 13 Torsion [CA]-CB--CG-[CD2] |==|  0.98382
USER: genes 14 Torsion [N]-CA--CB-[CG] |==|  0.58949
USER: genes 15 Torsion [CA]-CB--CG-[CD2] |==|  0.61408
USER: genes 16 Torsion [N]-CA--CB-[OG1] |==|  0.90388
USER: genes 17 Torsion [CA]-CB--OG1-[HG1] |==|  0.99843
USER: genes 18 Torsion [N]-C--CA-[N] |==|  0.05183
USER: genes 19 Torsion [C]-CA--CB-[CG] |==|  0.23530
USER: genes 20 Torsion [CA]-CB--CG-[CD2] |==|  0.71475
USER: genes 21 Torsion [C]-CA--N-[C] |==|  0.61476
USER: genes 22 Torsion [N]-C--CA-[N] |==|  0.12244
USER: genes 23 Torsion [C]-CA--CB-[CG] |==|  0.44728
USER: genes 24 Torsion [CA]-CB--CG-[OD1] |==|  0.42408
USER: genes 25 Torsion [C]-CA--N-[C] |==|  0.61675
USER: genes 26 Torsion [N]-C--CA-[N] |==|  0.09788
USER: genes 27 Torsion [C]-CA--CB-[CG] |==|  0.83554
USER: genes 28 Torsion [CA]-CB--CG-[OD2] |==|  0.41807
ROOT
ATOM      1  C   TRP D 340      24.912  34.387  82.400  1.00 16.52 LIG 0.24  C 
ATOM      2 O    TRP D 340      26.050  34.735  82.723  1.00 16.60 LIG-0.27  OA
ATOM      3  N   THR D 341      24.371  33.235  82.774  1.00 13.22 LIG-0.34  N 
ATOM      4 H    THR D 341      23.573  33.000  82.555  1.00 13.22 LIG 0.16  HD
ENDROOT
BRANCH 3 5
ATOM      5  CA  THR D 341      25.063  32.248  83.590  1.00 12.53 LIG 0.20  C 
BRANCH 5 6
ATOM      6  C   THR D 341      25.408  32.840  84.955  1.00 12.10 LIG 0.24  C 
ATOM      7 O    THR D 341      25.402  34.056  85.141  1.00 10.92 LIG-0.27  OA
ATOM      8  N   HIS D 342      25.680  31.976  85.925  1.00 12.26 LIG-0.35  N 
ATOM      9 H    HIS D 342      25.658  31.121  85.831  1.00 12.26 LIG 0.16  HD
BRANCH 8 10
ATOM     10  CA  HIS D 342      26.049  32.431  87.262  1.00 12.78 LIG 0.18  C 
BRANCH 10 11
ATOM     11  C   HIS D 342      27.552  32.592  87.333  1.00 14.51 LIG 0.24  C 
ATOM     12  N   LEU D 343      28.035  33.275  88.368  1.00 15.48 LIG-0.35  N 
ATOM     13 H    LEU D 343      27.552  33.562  89.018  1.00 15.48 LIG 0.16  HD
ATOM     14 O    HIS D 342      28.278  32.086  86.457  1.00 16.02 LIG-0.27  OA
BRANCH 12 15
ATOM     15  CA  LEU D 343      29.459  33.598  88.486  1.00 16.72 LIG 0.18  C 
BRANCH 15 16
ATOM     16  C   LEU D 343      30.063  33.254  89.846  1.00 19.19 LIG 0.24  C 
ATOM     17  N   SER D 344      31.359  32.902  89.859  1.00 21.37 LIG-0.34  N 
ATOM     18 H    SER D 344      31.792  32.684  89.149  1.00 21.37 LIG 0.16  HD
ATOM     19 O    LEU D 343      29.376  33.317  90.852  1.00 19.56 LIG-0.27  OA
BRANCH 17 20
ATOM     20  CA  SER D 344      32.179  32.853  91.092  1.00 23.14 LIG 0.19  C 
BRANCH 20 21
ATOM     21  C   SER D 344      33.464  33.677  90.933  1.00 24.18 LIG 0.22  C 
ATOM     22 O    SER D 344      33.482  34.716  90.251  1.00 25.35 LIG-0.29  OA
ENDBRANCH 20 21
BRANCH 20 23
ATOM     23  CB  SER D 344      32.549  31.416  91.464  1.00 23.66 LIG 0.20  C 
BRANCH 23 24
ATOM     24 OG   SER D 344      31.609  30.483  90.929  1.00 25.03 LIG-0.40  OA
ATOM     25 HG   SER D 344      31.417  30.699  90.140  1.00 25.03 LIG 0.21  HD
ENDBRANCH 23 24
ENDBRANCH 20 23
ENDBRANCH 17 20
ENDBRANCH 15 16
BRANCH 15 26
ATOM     26  CB  LEU D 343      29.697  35.096  88.228  1.00 15.83 LIG 0.04  C 
BRANCH 26 27
ATOM     27  CG  LEU D 343      30.786  35.449  87.234  1.00 14.86 LIG-0.02  C 
ATOM     28  CD1 LEU D 343      31.739  36.463  87.848  1.00 12.95 LIG 0.01  C 
ATOM     29  CD2 LEU D 343      31.540  34.170  86.790  1.00 12.95 LIG 0.01  C 
ENDBRANCH 26 27
ENDBRANCH 15 26
ENDBRANCH 12 15
ENDBRANCH 10 11
BRANCH 10 30
ATOM     30  CB  HIS D 342      25.596  31.408  88.315  1.00 12.90 LIG 0.10  C 
BRANCH 30 31
ATOM     31  CG  HIS D 342      25.216  32.020  89.624  1.00 12.99 LIG 0.06  A 
ATOM     32  CD2 HIS D 342      25.469  31.611  90.890  1.00 12.88 LIG 0.14  A 
ATOM     33 NE2  HIS D 342      24.895  32.528  91.734  1.00 14.80 LIG-0.25  NA
ATOM     34  CE1 HIS D 342      24.304  33.464  91.018  1.00 13.21 LIG 0.23  A 
ATOM     35 ND1  HIS D 342      24.476  33.178  89.740  1.00 14.49 LIG-0.24  NA
ENDBRANCH 30 31
ENDBRANCH 10 30
ENDBRANCH 8 10
ENDBRANCH 5 6
BRANCH 5 36
ATOM     36  CB  THR D 341      26.345  31.754  82.879  1.00 12.70 LIG 0.15  C 
ATOM     37  CG2 THR D 341      26.770  30.362  83.382  1.00 14.15 LIG 0.04  C 
BRANCH 36 38
ATOM     38 OG1  THR D 341      26.112  31.717  81.465  1.00 14.08 LIG-0.39  OA
ATOM     39 HG1  THR D 341      25.325  31.963  81.304  1.00 14.08 LIG 0.21  HD
ENDBRANCH 36 38
ENDBRANCH 5 36
ENDBRANCH 3 5
BRANCH 1 40
ATOM     40  CA  TRP D 340      24.062  35.263  81.487  1.00 18.72 LIG 0.18  C 
BRANCH 40 41
ATOM     41  CB  TRP D 340      24.243  36.716  81.925  1.00 19.00 LIG 0.07  C 
BRANCH 41 42
ATOM     42  CG  TRP D 340      25.432  37.400  81.348  1.00 19.22 LIG-0.03  A 
ATOM     43  CD2 TRP D 340      26.664  37.661  82.016  1.00 20.18 LIG-0.00  A 
ATOM     44  CE3 TRP D 340      27.152  37.369  83.296  1.00 18.70 LIG 0.01  A 
ATOM     45  CE2 TRP D 340      27.492  38.362  81.110  1.00 18.84 LIG 0.04  A 
ATOM     46  CZ3 TRP D 340      28.438  37.785  83.631  1.00 20.55 LIG 0.00  A 
ATOM     47  CH2 TRP D 340      29.236  38.476  82.700  1.00 19.52 LIG 0.00  A 
ATOM     48  CZ2 TRP D 340      28.782  38.777  81.442  1.00 19.79 LIG 0.03  A 
ATOM     49  NE1 TRP D 340      26.790  38.517  79.942  1.00 21.77 LIG-0.36  N 
ATOM     50  CD1 TRP D 340      25.546  37.947  80.103  1.00 20.48 LIG 0.10  A 
ATOM     51 HE1  TRP D 340      27.078  38.903  79.229  1.00 21.77 LIG 0.17  HD
ENDBRANCH 41 42
ENDBRANCH 40 41
BRANCH 40 52
ATOM     52  N   TRP D 340      22.645  34.886  81.536  1.00 22.23 LIG-0.35  N 
ATOM     53  C   ASP D 339      21.875  34.832  80.450  1.00 26.49 LIG 0.24  C 
ATOM     54 O    ASP D 339      22.291  35.087  79.306  1.00 27.22 LIG-0.27  OA
ATOM     55 H    TRP D 340      22.360  34.704  82.326  1.00 22.23 LIG 0.16  HD
BRANCH 53 56
ATOM     56  CA  ASP D 339      20.411  34.435  80.672  1.00 29.46 LIG 0.19  C 
BRANCH 56 57
ATOM     57  CB  ASP D 339      19.596  34.777  79.422  1.00 30.27 LIG 0.15  C 
BRANCH 57 58
ATOM     58  CG  ASP D 339      18.264  34.024  79.348  1.00 32.94 LIG 0.17  C 
ATOM     59 OD1  ASP D 339      17.327  34.561  78.720  1.00 36.53 LIG-0.65  OA
ATOM     60 OD2  ASP D 339      18.145  32.914  79.923  1.00 35.99 LIG-0.65  OA
ENDBRANCH 57 58
ENDBRANCH 56 57
BRANCH 56 61
ATOM     61  N   ASP D 339      19.846  35.128  81.826  1.00 31.22 LIG-0.34  N 
ATOM     62  C   ASP D 338      19.058  34.540  82.724  1.00 32.92 LIG 0.26  C 
ATOM     63 O    ASP D 338      18.896  33.317  82.800  1.00 33.60 LIG-0.27  OA
ATOM     64 H    ASP D 339      20.070  35.957  81.871  1.00 31.22 LIG 0.16  HD
BRANCH 62 65
ATOM     65  CA  ASP D 338      18.366  35.483  83.710  1.00 33.82 LIG 0.41  C 
ATOM     66  N   ASP D 338      18.001  36.775  83.045  1.00 34.02 LIG 0.61  N 
BRANCH 65 67
ATOM     67  CB  ASP D 338      17.120  34.807  84.304  1.00 34.49 LIG 0.16  C 
BRANCH 67 68
ATOM     68  CG  ASP D 338      16.101  34.405  83.245  1.00 35.92 LIG 0.17  C 
ATOM     69 OD2  ASP D 338      15.375  33.417  83.470  1.00 39.23 LIG-0.65  OA
ATOM     70 OD1  ASP D 338      16.028  35.064  82.180  1.00 38.97 LIG-0.65  OA
ENDBRANCH 67 68
ENDBRANCH 65 67
ENDBRANCH 62 65
ENDBRANCH 56 61
ENDBRANCH 53 56
ENDBRANCH 40 52
ENDBRANCH 1 40
TORSDOF 27
ENDMDL
MODEL 33
USER: ADFR SOLUTION from run 99
USER: SCORE 20.282804 LL:  -5.465 LR: -17.399 RR:   0.000 FEB:  -9.345
USER: RMSD 12.602437
USER: SEED 98
USER: STATUS no improvement in best in 12 clusters for 5 generations
USER: GENES 29
USER: genes 0 Translation |==|  0.41954 0.46553 0.43125
USER: genes 1 Rotation |==|  0.29804 0.08266 0.68192 0.54410
USER: genes 2 Torsion [C]-N--CA-[CB] |==|  0.36048
USER: genes 3 Torsion [N]-CA--C-[N] |==|  0.38441
USER: genes 4 Torsion [C]-N--CA-[C] |==|  0.81111
USER: genes 5 Torsion [N]-CA--C-[N] |==|  0.33047
USER: genes 6 Torsion [C]-N--CA-[C] |==|  0.69851
USER: genes 7 Torsion [N]-CA--C-[N] |==|  0.13646
USER: genes 8 Torsion [C]-N--CA-[C] |==|  0.74595
USER: genes 9 Torsion [N]-CA--C-[O] |==|  0.99017
USER: genes 10 Torsion [N]-CA--CB-[OG] |==|  0.18345
USER: genes 11 Torsion [CA]-CB--OG-[HG] |==|  0.55782
USER: genes 12 Torsion [N]-CA--CB-[CG] |==|  0.12572
USER: genes 13 Torsion [CA]-CB--CG-[CD2] |==|  0.67072
USER: genes 14 Torsion [N]-CA--CB-[CG] |==|  0.50844
USER: genes 15 Torsion [CA]-CB--CG-[CD2] |==|  0.82066
USER: genes 16 Torsion [N]-CA--CB-[OG1] |==|  0.97258
USER: genes 17 Torsion [CA]-CB--OG1-[HG1] |==|  0.20790
USER: genes 18 Torsion [N]-C--CA-[N] |==|  0.99044
USER: genes 19 Torsion [C]-CA--CB-[CG] |==|  0.16255
USER: genes 20 Torsion [CA]-CB--CG-[CD2] |==|  0.20376
USER: genes 21 Torsion [C]-CA--N-[C] |==|  0.70189
USER: genes 22 Torsion [N]-C--CA-[N] |==|  0.32470
USER: genes 23 Torsion [C]-CA--CB-[CG] |==|  0.79020
USER: genes 24 Torsion [CA]-CB--CG-[OD1] |==|  0.30728
USER: genes 25 Torsion [C]-CA--N-[C] |==|  0.76460
USER: genes 26 Torsion [N]-C--CA-[N] |==|  0.53582
USER: genes 27 Torsion [C]-CA--CB-[CG] |==|  0.77599
USER: genes 28 Torsion [CA]-CB--CG-[OD2] |==|  0.78149
ROOT
ATOM      1  C   TRP D 340      20.787  35.231  78.252  1.00 16.52 LIG 0.24  C 
ATOM      2 O    TRP D 340      21.545  34.699  77.437  1.00 16.60 LIG-0.27  OA
ATOM      3  N   THR D 341      21.212  35.818  79.362  1.00 13.22 LIG-0.34  N 
ATOM      4 H    THR D 341      20.682  36.197  79.924  1.00 13.22 LIG 0.16  HD
ENDROOT
BRANCH 3 5
ATOM      5  CA  THR D 341      22.613  35.887  79.751  1.00 12.53 LIG 0.20  C 
BRANCH 5 6
ATOM      6  C   THR D 341      22.880  34.954  80.931  1.00 12.10 LIG 0.24  C 
ATOM      7 O    THR D 341      22.073  34.847  81.853  1.00 10.92 LIG-0.27  OA
ATOM      8  N   HIS D 342      24.005  34.251  80.888  1.00 12.26 LIG-0.35  N 
ATOM      9 H    HIS D 342      24.570  34.281  80.240  1.00 12.26 LIG 0.16  HD
BRANCH 8 10
ATOM     10  CA  HIS D 342      24.374  33.348  81.974  1.00 12.78 LIG 0.18  C 
BRANCH 10 11
ATOM     11  C   HIS D 342      24.692  34.163  83.209  1.00 14.51 LIG 0.24  C 
ATOM     12  N   LEU D 343      23.935  33.949  84.282  1.00 15.48 LIG-0.35  N 
ATOM     13 H    LEU D 343      23.334  33.336  84.328  1.00 15.48 LIG 0.16  HD
ATOM     14 O    HIS D 342      25.633  34.977  83.195  1.00 16.02 LIG-0.27  OA
BRANCH 12 15
ATOM     15  CA  LEU D 343      24.068  34.755  85.498  1.00 16.72 LIG 0.18  C 
BRANCH 15 16
ATOM     16  C   LEU D 343      24.703  34.011  86.670  1.00 19.19 LIG 0.24  C 
ATOM     17  N   SER D 344      25.842  33.346  86.418  1.00 21.37 LIG-0.34  N 
ATOM     18 H    SER D 344      26.114  33.169  85.622  1.00 21.37 LIG 0.16  HD
ATOM     19 O    LEU D 343      24.180  34.047  87.772  1.00 19.56 LIG-0.27  OA
BRANCH 17 20
ATOM     20  CA  SER D 344      26.750  32.851  87.478  1.00 23.14 LIG 0.19  C 
BRANCH 20 21
ATOM     21  C   SER D 344      27.827  33.893  87.814  1.00 24.18 LIG 0.22  C 
ATOM     22 O    SER D 344      27.906  34.962  87.183  1.00 25.35 LIG-0.29  OA
ENDBRANCH 20 21
BRANCH 20 23
ATOM     23  CB  SER D 344      27.432  31.543  87.069  1.00 23.66 LIG 0.20  C 
BRANCH 23 24
ATOM     24 OG   SER D 344      28.319  31.743  85.967  1.00 25.03 LIG-0.40  OA
ATOM     25 HG   SER D 344      28.458  31.009  85.582  1.00 25.03 LIG 0.21  HD
ENDBRANCH 23 24
ENDBRANCH 20 23
ENDBRANCH 17 20
ENDBRANCH 15 16
BRANCH 15 26
ATOM     26  CB  LEU D 343      22.694  35.275  85.955  1.00 15.83 LIG 0.04  C 
BRANCH 26 27
ATOM     27  CG  LEU D 343      21.555  34.275  85.955  1.00 14.86 LIG-0.02  C 
ATOM     28  CD1 LEU D 343      21.014  34.104  87.365  1.00 12.95 LIG 0.01  C 
ATOM     29  CD2 LEU D 343      20.440  34.734  84.980  1.00 12.95 LIG 0.01  C 
ENDBRANCH 26 27
ENDBRANCH 15 26
ENDBRANCH 12 15
ENDBRANCH 10 11
BRANCH 10 30
ATOM     30  CB  HIS D 342      25.606  32.518  81.580  1.00 12.90 LIG 0.10  C 
BRANCH 30 31
ATOM     31  CG  HIS D 342      26.009  31.514  82.610  1.00 12.99 LIG 0.06  A 
ATOM     32  CD2 HIS D 342      26.464  31.688  83.874  1.00 12.88 LIG 0.14  A 
ATOM     33 NE2  HIS D 342      26.694  30.441  84.396  1.00 14.80 LIG-0.25  NA
ATOM     34  CE1 HIS D 342      26.398  29.531  83.489  1.00 13.21 LIG 0.23  A 
ATOM     35 ND1  HIS D 342      25.989  30.152  82.398  1.00 14.49 LIG-0.24  NA
ENDBRANCH 30 31
ENDBRANCH 10 30
ENDBRANCH 8 10
ENDBRANCH 5 6
BRANCH 5 36
ATOM     36  CB  THR D 341      23.007  37.338  80.114  1.00 12.70 LIG 0.15  C 
ATOM     37  CG2 THR D 341      24.315  37.760  79.417  1.00 14.15 LIG 0.04  C 
BRANCH 36 38
ATOM     38 OG1  THR D 341      21.942  38.221  79.740  1.00 14.08 LIG-0.39  OA
ATOM     39 HG1  THR D 341      21.310  38.145  80.288  1.00 14.08 LIG 0.21  HD
ENDBRANCH 36 38
ENDBRANCH 5 36
ENDBRANCH 3 5
BRANCH 1 40
ATOM     40  CA  TRP D 340      19.277  35.195  78.047  1.00 18.72 LIG 0.18  C 
BRANCH 40 41
ATOM     41  CB  TRP D 340      18.955  35.973  76.772  1.00 19.00 LIG 0.07  C 
BRANCH 41 42
ATOM     42  CG  TRP D 340      19.616  35.461  75.541  1.00 19.22 LIG-0.03  A 
ATOM     43  CD2 TRP D 340      19.276  34.272  74.831  1.00 20.18 LIG-0.00  A 
ATOM     44  CE3 TRP D 340      18.291  33.292  75.000  1.00 18.70 LIG 0.01  A 
ATOM     45  CE2 TRP D 340      20.184  34.154  73.755  1.00 18.84 LIG 0.04  A 
ATOM     46  CZ3 TRP D 340      18.244  32.230  74.099  1.00 20.55 LIG 0.00  A 
ATOM     47  CH2 TRP D 340      19.160  32.150  73.035  1.00 19.52 LIG 0.00  A 
ATOM     48  CZ2 TRP D 340      20.136  33.094  72.848  1.00 19.79 LIG 0.03  A 
ATOM     49  NE1 TRP D 340      21.035  35.228  73.809  1.00 21.77 LIG-0.36  N 
ATOM     50  CD1 TRP D 340      20.692  36.000  74.898  1.00 20.48 LIG 0.10  A 
ATOM     51 HE1  TRP D 340      21.674  35.393  73.257  1.00 21.77 LIG 0.17  HD
ENDBRANCH 41 42
ENDBRANCH 40 41
BRANCH 40 52
ATOM     52  N   TRP D 340      18.559  35.765  79.192  1.00 22.23 LIG-0.35  N 
ATOM     53  C   ASP D 339      17.876  35.019  80.060  1.00 26.49 LIG 0.24  C 
ATOM     54 O    ASP D 339      17.797  33.781  79.979  1.00 27.22 LIG-0.27  OA
ATOM     55 H    TRP D 340      18.620  36.621  79.250  1.00 22.23 LIG 0.16  HD
BRANCH 53 56
ATOM     56  CA  ASP D 339      17.168  35.770  81.193  1.00 29.46 LIG 0.19  C 
BRANCH 56 57
ATOM     57  CB  ASP D 339      17.670  35.247  82.541  1.00 30.27 LIG 0.15  C 
BRANCH 57 58
ATOM     58  CG  ASP D 339      17.092  33.877  82.909  1.00 32.94 LIG 0.17  C 
ATOM     59 OD1  ASP D 339      17.868  32.898  82.906  1.00 36.53 LIG-0.65  OA
ATOM     60 OD2  ASP D 339      15.870  33.772  83.183  1.00 35.99 LIG-0.65  OA
ENDBRANCH 57 58
ENDBRANCH 56 57
BRANCH 56 61
ATOM     61  N   ASP D 339      15.720  35.600  81.115  1.00 31.22 LIG-0.34  N 
ATOM     62  C   ASP D 338      14.930  36.354  80.353  1.00 32.92 LIG 0.26  C 
ATOM     63 O    ASP D 338      15.348  37.125  79.482  1.00 33.60 LIG-0.27  OA
ATOM     64 H    ASP D 339      15.423  34.962  81.610  1.00 31.22 LIG 0.16  HD
BRANCH 62 65
ATOM     65  CA  ASP D 338      13.430  36.190  80.597  1.00 33.82 LIG 0.41  C 
ATOM     66  N   ASP D 338      12.637  36.832  79.499  1.00 34.02 LIG 0.61  N 
BRANCH 65 67
ATOM     67  CB  ASP D 338      13.072  34.701  80.723  1.00 34.49 LIG 0.16  C 
BRANCH 67 68
ATOM     68  CG  ASP D 338      12.939  34.006  79.373  1.00 35.92 LIG 0.17  C 
ATOM     69 OD2  ASP D 338      11.886  34.171  78.726  1.00 39.23 LIG-0.65  OA
ATOM     70 OD1  ASP D 338      13.877  33.284  78.957  1.00 38.97 LIG-0.65  OA
ENDBRANCH 67 68
ENDBRANCH 65 67
ENDBRANCH 62 65
ENDBRANCH 56 61
ENDBRANCH 53 56
ENDBRANCH 40 52
ENDBRANCH 1 40
TORSDOF 27
ENDMDL
MODEL 34
USER: ADFR SOLUTION from run 113
USER: SCORE 21.323529 LL:  -6.179 LR: -17.391 RR:   0.000 FEB:  -9.337
USER: RMSD 5.754649
USER: SEED 112
USER: STATUS no improvement in best in 4 clusters for 5 generations
USER: GENES 29
USER: genes 0 Translation |==|  0.60493 0.52769 0.60719
USER: genes 1 Rotation |==|  0.65135 0.32660 0.42277 0.93710
USER: genes 2 Torsion [C]-N--CA-[CB] |==|  0.50907
USER: genes 3 Torsion [N]-CA--C-[N] |==|  0.90079
USER: genes 4 Torsion [C]-N--CA-[C] |==|  0.71111
USER: genes 5 Torsion [N]-CA--C-[N] |==|  0.93183
USER: genes 6 Torsion [C]-N--CA-[C] |==|  0.15727
USER: genes 7 Torsion [N]-CA--C-[N] |==|  0.57471
USER: genes 8 Torsion [C]-N--CA-[C] |==|  0.93288
USER: genes 9 Torsion [N]-CA--C-[O] |==|  0.38934
USER: genes 10 Torsion [N]-CA--CB-[OG] |==|  0.68650
USER: genes 11 Torsion [CA]-CB--OG-[HG] |==|  0.16593
USER: genes 12 Torsion [N]-CA--CB-[CG] |==|  0.68222
USER: genes 13 Torsion [CA]-CB--CG-[CD2] |==|  0.31079
USER: genes 14 Torsion [N]-CA--CB-[CG] |==|  0.42355
USER: genes 15 Torsion [CA]-CB--CG-[CD2] |==|  0.19089
USER: genes 16 Torsion [N]-CA--CB-[OG1] |==|  0.19919
USER: genes 17 Torsion [CA]-CB--OG1-[HG1] |==|  0.91254
USER: genes 18 Torsion [N]-C--CA-[N] |==|  0.38957
USER: genes 19 Torsion [C]-CA--CB-[CG] |==|  0.40748
USER: genes 20 Torsion [CA]-CB--CG-[CD2] |==|  0.12714
USER: genes 21 Torsion [C]-CA--N-[C] |==|  0.82024
USER: genes 22 Torsion [N]-C--CA-[N] |==|  0.39378
USER: genes 23 Torsion [C]-CA--CB-[CG] |==|  0.90041
USER: genes 24 Torsion [CA]-CB--CG-[OD1] |==|  0.78432
USER: genes 25 Torsion [C]-CA--N-[C] |==|  0.80835
USER: genes 26 Torsion [N]-C--CA-[N] |==|  0.40756
USER: genes 27 Torsion [C]-CA--CB-[CG] |==|  0.96656
USER: genes 28 Torsion [CA]-CB--CG-[OD2] |==|  0.20036
ROOT
ATOM      1  C   TRP D 340      25.932  36.443  83.002  1.00 16.52 LIG 0.24  C 
ATOM      2 O    TRP D 340      25.055  37.201  83.423  1.00 16.60 LIG-0.27  OA
ATOM      3  N   THR D 341      26.821  36.801  82.086  1.00 13.22 LIG-0.34  N 
ATOM      4 H    THR D 341      27.438  36.274  81.801  1.00 13.22 LIG 0.16  HD
ENDROOT
BRANCH 3 5
ATOM      5  CA  THR D 341      26.853  38.118  81.465  1.00 12.53 LIG 0.20  C 
BRANCH 5 6
ATOM      6  C   THR D 341      25.491  38.445  80.854  1.00 12.10 LIG 0.24  C 
ATOM      7 O    THR D 341      25.059  39.597  80.845  1.00 10.92 LIG-0.27  OA
ATOM      8  N   HIS D 342      24.824  37.432  80.315  1.00 12.26 LIG-0.35  N 
ATOM      9 H    HIS D 342      25.117  36.625  80.278  1.00 12.26 LIG 0.16  HD
BRANCH 8 10
ATOM     10  CA  HIS D 342      23.502  37.626  79.728  1.00 12.78 LIG 0.18  C 
BRANCH 10 11
ATOM     11  C   HIS D 342      22.454  37.086  80.678  1.00 14.51 LIG 0.24  C 
ATOM     12  N   LEU D 343      22.846  36.146  81.534  1.00 15.48 LIG-0.35  N 
ATOM     13 H    LEU D 343      23.661  35.885  81.617  1.00 15.48 LIG 0.16  HD
ATOM     14 O    HIS D 342      21.293  37.532  80.647  1.00 16.02 LIG-0.27  OA
BRANCH 12 15
ATOM     15  CA  LEU D 343      21.901  35.464  82.422  1.00 16.72 LIG 0.18  C 
BRANCH 15 16
ATOM     16  C   LEU D 343      20.748  34.778  81.693  1.00 19.19 LIG 0.24  C 
ATOM     17  N   SER D 344      19.603  34.631  82.379  1.00 21.37 LIG-0.34  N 
ATOM     18 H    SER D 344      19.552  34.726  83.232  1.00 21.37 LIG 0.16  HD
ATOM     19 O    LEU D 343      20.890  34.403  80.541  1.00 19.56 LIG-0.27  OA
BRANCH 17 20
ATOM     20  CA  SER D 344      18.308  34.292  81.743  1.00 23.14 LIG 0.19  C 
BRANCH 20 21
ATOM     21  C   SER D 344      18.292  34.711  80.267  1.00 24.18 LIG 0.22  C 
ATOM     22 O    SER D 344      17.770  33.989  79.399  1.00 25.35 LIG-0.29  OA
ENDBRANCH 20 21
BRANCH 20 23
ATOM     23  CB  SER D 344      17.135  34.960  82.464  1.00 23.66 LIG 0.20  C 
BRANCH 23 24
ATOM     24 OG   SER D 344      16.304  33.993  83.108  1.00 25.03 LIG-0.40  OA
ATOM     25 HG   SER D 344      16.757  33.563  83.670  1.00 25.03 LIG 0.21  HD
ENDBRANCH 23 24
ENDBRANCH 20 23
ENDBRANCH 17 20
ENDBRANCH 15 16
BRANCH 15 26
ATOM     26  CB  LEU D 343      21.299  36.455  83.433  1.00 15.83 LIG 0.04  C 
BRANCH 26 27
ATOM     27  CG  LEU D 343      21.647  36.234  84.891  1.00 14.86 LIG-0.02  C 
ATOM     28  CD1 LEU D 343      22.325  34.884  85.064  1.00 12.95 LIG 0.01  C 
ATOM     29  CD2 LEU D 343      22.551  37.383  85.406  1.00 12.95 LIG 0.01  C 
ENDBRANCH 26 27
ENDBRANCH 15 26
ENDBRANCH 12 15
ENDBRANCH 10 11
BRANCH 10 30
ATOM     30  CB  HIS D 342      23.403  36.884  78.386  1.00 12.90 LIG 0.10  C 
BRANCH 30 31
ATOM     31  CG  HIS D 342      22.013  36.465  78.032  1.00 12.99 LIG 0.06  A 
ATOM     32  CD2 HIS D 342      20.933  37.209  77.689  1.00 12.88 LIG 0.14  A 
ATOM     33 NE2  HIS D 342      19.898  36.337  77.464  1.00 14.80 LIG-0.25  NA
ATOM     34  CE1 HIS D 342      20.318  35.104  77.666  1.00 13.21 LIG 0.23  A 
ATOM     35 ND1  HIS D 342      21.590  35.153  78.017  1.00 14.49 LIG-0.24  NA
ENDBRANCH 30 31
ENDBRANCH 10 30
ENDBRANCH 8 10
ENDBRANCH 5 6
BRANCH 5 36
ATOM     36  CB  THR D 341      27.957  38.185  80.384  1.00 12.70 LIG 0.15  C 
ATOM     37  CG2 THR D 341      29.307  37.677  80.923  1.00 14.15 LIG 0.04  C 
BRANCH 36 38
ATOM     38 OG1  THR D 341      27.553  37.403  79.252  1.00 14.08 LIG-0.39  OA
ATOM     39 HG1  THR D 341      27.080  36.759  79.510  1.00 14.08 LIG 0.21  HD
ENDBRANCH 36 38
ENDBRANCH 5 36
ENDBRANCH 3 5
BRANCH 1 40
ATOM     40  CA  TRP D 340      26.011  35.000  83.486  1.00 18.72 LIG 0.18  C 
BRANCH 40 41
ATOM     41  CB  TRP D 340      24.967  34.188  82.721  1.00 19.00 LIG 0.07  C 
BRANCH 41 42
ATOM     42  CG  TRP D 340      25.352  32.777  82.442  1.00 19.22 LIG-0.03  A 
ATOM     43  CD2 TRP D 340      25.929  31.859  83.367  1.00 20.18 LIG-0.00  A 
ATOM     44  CE3 TRP D 340      26.270  31.938  84.723  1.00 18.70 LIG 0.01  A 
ATOM     45  CE2 TRP D 340      26.167  30.654  82.668  1.00 18.84 LIG 0.04  A 
ATOM     46  CZ3 TRP D 340      26.837  30.821  85.334  1.00 20.55 LIG 0.00  A 
ATOM     47  CH2 TRP D 340      27.052  29.636  84.608  1.00 19.52 LIG 0.00  A 
ATOM     48  CZ2 TRP D 340      26.730  29.533  83.280  1.00 19.79 LIG 0.03  A 
ATOM     49  NE1 TRP D 340      25.747  30.835  81.375  1.00 21.77 LIG-0.36  N 
ATOM     50  CD1 TRP D 340      25.272  32.122  81.248  1.00 20.48 LIG 0.10  A 
ATOM     51 HE1  TRP D 340      25.775  30.245  80.750  1.00 21.77 LIG 0.17  HD
ENDBRANCH 41 42
ENDBRANCH 40 41
BRANCH 40 52
ATOM     52  N   TRP D 340      25.781  34.898  84.932  1.00 22.23 LIG-0.35  N 
ATOM     53  C   ASP D 339      26.605  35.431  85.833  1.00 26.49 LIG 0.24  C 
ATOM     54 O    ASP D 339      27.629  36.066  85.527  1.00 27.22 LIG-0.27  OA
ATOM     55 H    TRP D 340      25.069  34.464  85.142  1.00 22.23 LIG 0.16  HD
BRANCH 53 56
ATOM     56  CA  ASP D 339      26.232  35.223  87.305  1.00 29.46 LIG 0.19  C 
BRANCH 56 57
ATOM     57  CB  ASP D 339      25.494  36.460  87.823  1.00 30.27 LIG 0.15  C 
BRANCH 57 58
ATOM     58  CG  ASP D 339      26.023  37.769  87.229  1.00 32.94 LIG 0.17  C 
ATOM     59 OD1  ASP D 339      27.091  38.227  87.690  1.00 36.53 LIG-0.65  OA
ATOM     60 OD2  ASP D 339      25.375  38.347  86.322  1.00 35.99 LIG-0.65  OA
ENDBRANCH 57 58
ENDBRANCH 56 57
BRANCH 56 61
ATOM     61  N   ASP D 339      27.419  34.988  88.122  1.00 31.22 LIG-0.34  N 
ATOM     62  C   ASP D 338      28.160  33.884  88.044  1.00 32.92 LIG 0.26  C 
ATOM     63 O    ASP D 338      28.053  33.048  87.140  1.00 33.60 LIG-0.27  OA
ATOM     64 H    ASP D 339      27.596  35.633  88.661  1.00 31.22 LIG 0.16  HD
BRANCH 62 65
ATOM     65  CA  ASP D 338      29.205  33.714  89.147  1.00 33.82 LIG 0.41  C 
ATOM     66  N   ASP D 338      29.395  32.266  89.483  1.00 34.02 LIG 0.61  N 
BRANCH 65 67
ATOM     67  CB  ASP D 338      30.537  34.350  88.719  1.00 34.49 LIG 0.16  C 
BRANCH 67 68
ATOM     68  CG  ASP D 338      30.572  34.714  87.240  1.00 35.92 LIG 0.17  C 
ATOM     69 OD2  ASP D 338      29.891  35.685  86.854  1.00 39.23 LIG-0.65  OA
ATOM     70 OD1  ASP D 338      31.270  34.028  86.454  1.00 38.97 LIG-0.65  OA
ENDBRANCH 67 68
ENDBRANCH 65 67
ENDBRANCH 62 65
ENDBRANCH 56 61
ENDBRANCH 53 56
ENDBRANCH 40 52
ENDBRANCH 1 40
TORSDOF 27
ENDMDL
MODEL 35
USER: ADFR SOLUTION from run 29
USER: SCORE 22.149845 LL:  -5.681 LR: -17.387 RR:   0.000 FEB:  -9.333
USER: RMSD 4.175761
USER: SEED 28
USER: STATUS no improvement in best in 4 clusters for 5 generations
USER: GENES 29
USER: genes 0 Translation |==|  0.53692 0.49970 0.56343
USER: genes 1 Rotation |==|  0.62303 0.51745 0.64789 0.96118
USER: genes 2 Torsion [C]-N--CA-[CB] |==|  0.55001
USER: genes 3 Torsion [N]-CA--C-[N] |==|  0.34192
USER: genes 4 Torsion [C]-N--CA-[C] |==|  0.82280
USER: genes 5 Torsion [N]-CA--C-[N] |==|  0.90646
USER: genes 6 Torsion [C]-N--CA-[C] |==|  0.63920
USER: genes 7 Torsion [N]-CA--C-[N] |==|  0.37207
USER: genes 8 Torsion [C]-N--CA-[C] |==|  0.20493
USER: genes 9 Torsion [N]-CA--C-[O] |==|  0.00556
USER: genes 10 Torsion [N]-CA--CB-[OG] |==|  0.85079
USER: genes 11 Torsion [CA]-CB--OG-[HG] |==|  0.11117
USER: genes 12 Torsion [N]-CA--CB-[CG] |==|  0.82395
USER: genes 13 Torsion [CA]-CB--CG-[CD2] |==|  0.72496
USER: genes 14 Torsion [N]-CA--CB-[CG] |==|  0.46991
USER: genes 15 Torsion [CA]-CB--CG-[CD2] |==|  0.14106
USER: genes 16 Torsion [N]-CA--CB-[OG1] |==|  0.89891
USER: genes 17 Torsion [CA]-CB--OG1-[HG1] |==|  0.14942
USER: genes 18 Torsion [N]-C--CA-[N] |==|  0.24489
USER: genes 19 Torsion [C]-CA--CB-[CG] |==|  0.25916
USER: genes 20 Torsion [CA]-CB--CG-[CD2] |==|  0.40481
USER: genes 21 Torsion [C]-CA--N-[C] |==|  0.76758
USER: genes 22 Torsion [N]-C--CA-[N] |==|  0.37119
USER: genes 23 Torsion [C]-CA--CB-[CG] |==|  0.55242
USER: genes 24 Torsion [CA]-CB--CG-[OD1] |==|  0.73269
USER: genes 25 Torsion [C]-CA--N-[C] |==|  0.78691
USER: genes 26 Torsion [N]-C--CA-[N] |==|  0.58953
USER: genes 27 Torsion [C]-CA--CB-[CG] |==|  0.79283
USER: genes 28 Torsion [CA]-CB--CG-[OD2] |==|  0.64181
ROOT
ATOM      1  C   TRP D 340      24.045  35.897  81.821  1.00 16.52 LIG 0.24  C 
ATOM      2 O    TRP D 340      23.101  35.792  82.607  1.00 16.60 LIG-0.27  OA
ATOM      3  N   THR D 341      23.898  36.277  80.558  1.00 13.22 LIG-0.34  N 
ATOM      4 H    THR D 341      24.560  36.359  80.015  1.00 13.22 LIG 0.16  HD
ENDROOT
BRANCH 3 5
ATOM      5  CA  THR D 341      22.611  36.596  79.957  1.00 12.53 LIG 0.20  C 
BRANCH 5 6
ATOM      6  C   THR D 341      21.544  35.617  80.445  1.00 12.10 LIG 0.24  C 
ATOM      7 O    THR D 341      21.689  34.403  80.316  1.00 10.92 LIG-0.27  OA
ATOM      8  N   HIS D 342      20.480  36.147  81.035  1.00 12.26 LIG-0.35  N 
ATOM      9 H    HIS D 342      20.370  36.989  81.168  1.00 12.26 LIG 0.16  HD
BRANCH 8 10
ATOM     10  CA  HIS D 342      19.387  35.307  81.516  1.00 12.78 LIG 0.18  C 
BRANCH 10 11
ATOM     11  C   HIS D 342      18.741  34.612  80.336  1.00 14.51 LIG 0.24  C 
ATOM     12  N   LEU D 343      18.705  35.284  79.189  1.00 15.48 LIG-0.35  N 
ATOM     13 H    LEU D 343      19.082  36.047  79.069  1.00 15.48 LIG 0.16  HD
ATOM     14 O    HIS D 342      18.289  33.459  80.461  1.00 16.02 LIG-0.27  OA
BRANCH 12 15
ATOM     15  CA  LEU D 343      18.006  34.766  78.010  1.00 16.72 LIG 0.18  C 
BRANCH 15 16
ATOM     16  C   LEU D 343      18.843  34.785  76.733  1.00 19.19 LIG 0.24  C 
ATOM     17  N   SER D 344      18.824  33.671  75.983  1.00 21.37 LIG-0.34  N 
ATOM     18 H    SER D 344      18.531  32.916  76.273  1.00 21.37 LIG 0.16  HD
ATOM     19 O    LEU D 343      19.478  35.782  76.434  1.00 19.56 LIG-0.27  OA
BRANCH 17 20
ATOM     20  CA  SER D 344      19.301  33.623  74.582  1.00 23.14 LIG 0.19  C 
BRANCH 20 21
ATOM     21  C   SER D 344      20.834  33.675  74.519  1.00 24.18 LIG 0.22  C 
ATOM     22 O    SER D 344      21.519  33.711  75.556  1.00 25.35 LIG-0.29  OA
ENDBRANCH 20 21
BRANCH 20 23
ATOM     23  CB  SER D 344      18.729  34.774  73.752  1.00 23.66 LIG 0.20  C 
BRANCH 23 24
ATOM     24 OG   SER D 344      17.303  34.815  73.838  1.00 25.03 LIG-0.40  OA
ATOM     25 HG   SER D 344      17.064  34.649  74.626  1.00 25.03 LIG 0.21  HD
ENDBRANCH 23 24
ENDBRANCH 20 23
ENDBRANCH 17 20
ENDBRANCH 15 16
BRANCH 15 26
ATOM     26  CB  LEU D 343      16.722  35.573  77.746  1.00 15.83 LIG 0.04  C 
BRANCH 26 27
ATOM     27  CG  LEU D 343      15.651  35.515  78.816  1.00 14.86 LIG-0.02  C 
ATOM     28  CD1 LEU D 343      15.055  36.897  79.030  1.00 12.95 LIG 0.01  C 
ATOM     29  CD2 LEU D 343      14.556  34.489  78.423  1.00 12.95 LIG 0.01  C 
ENDBRANCH 26 27
ENDBRANCH 15 26
ENDBRANCH 12 15
ENDBRANCH 10 11
BRANCH 10 30
ATOM     30  CB  HIS D 342      18.337  36.165  82.239  1.00 12.90 LIG 0.10  C 
BRANCH 30 31
ATOM     31  CG  HIS D 342      17.067  35.436  82.538  1.00 12.99 LIG 0.06  A 
ATOM     32  CD2 HIS D 342      16.864  34.240  83.141  1.00 12.88 LIG 0.14  A 
ATOM     33 NE2  HIS D 342      15.509  34.025  83.166  1.00 14.80 LIG-0.25  NA
ATOM     34  CE1 HIS D 342      14.899  35.045  82.595  1.00 13.21 LIG 0.23  A 
ATOM     35 ND1  HIS D 342      15.817  35.908  82.200  1.00 14.49 LIG-0.24  NA
ENDBRANCH 30 31
ENDBRANCH 10 30
ENDBRANCH 8 10
ENDBRANCH 5 6
BRANCH 5 36
ATOM     36  CB  THR D 341      22.707  36.561  78.414  1.00 12.70 LIG 0.15  C 
ATOM     37  CG2 THR D 341      21.583  37.386  77.759  1.00 14.15 LIG 0.04  C 
BRANCH 36 38
ATOM     38 OG1  THR D 341      23.987  37.067  78.012  1.00 14.08 LIG-0.39  OA
ATOM     39 HG1  THR D 341      24.593  36.643  78.410  1.00 14.08 LIG 0.21  HD
ENDBRANCH 36 38
ENDBRANCH 5 36
ENDBRANCH 3 5
BRANCH 1 40
ATOM     40  CA  TRP D 340      25.461  35.536  82.254  1.00 18.72 LIG 0.18  C 
BRANCH 40 41
ATOM     41  CB  TRP D 340      25.363  34.481  83.354  1.00 19.00 LIG 0.07  C 
BRANCH 41 42
ATOM     42  CG  TRP D 340      25.437  33.072  82.880  1.00 19.22 LIG-0.03  A 
ATOM     43  CD2 TRP D 340      26.033  31.977  83.572  1.00 20.18 LIG-0.00  A 
ATOM     44  CE3 TRP D 340      26.660  31.845  84.816  1.00 18.70 LIG 0.01  A 
ATOM     45  CE2 TRP D 340      25.912  30.841  82.740  1.00 18.84 LIG 0.04  A 
ATOM     46  CZ3 TRP D 340      27.146  30.594  85.189  1.00 20.55 LIG 0.00  A 
ATOM     47  CH2 TRP D 340      27.001  29.483  84.338  1.00 19.52 LIG 0.00  A 
ATOM     48  CZ2 TRP D 340      26.393  29.586  83.113  1.00 19.79 LIG 0.03  A 
ATOM     49  NE1 TRP D 340      25.266  31.232  81.595  1.00 21.77 LIG-0.36  N 
ATOM     50  CD1 TRP D 340      24.999  32.581  81.685  1.00 20.48 LIG 0.10  A 
ATOM     51 HE1  TRP D 340      25.061  30.722  80.933  1.00 21.77 LIG 0.17  HD
ENDBRANCH 41 42
ENDBRANCH 40 41
BRANCH 40 52
ATOM     52  N   TRP D 340      26.199  36.710  82.732  1.00 22.23 LIG-0.35  N 
ATOM     53  C   ASP D 339      26.829  37.551  81.912  1.00 26.49 LIG 0.24  C 
ATOM     54 O    ASP D 339      26.837  37.418  80.676  1.00 27.22 LIG-0.27  OA
ATOM     55 H    TRP D 340      26.187  36.804  83.587  1.00 22.23 LIG 0.16  HD
BRANCH 53 56
ATOM     56  CA  ASP D 339      27.567  38.721  82.571  1.00 29.46 LIG 0.19  C 
BRANCH 56 57
ATOM     57  CB  ASP D 339      26.771  40.010  82.357  1.00 30.27 LIG 0.15  C 
BRANCH 57 58
ATOM     58  CG  ASP D 339      27.610  41.276  82.559  1.00 32.94 LIG 0.17  C 
ATOM     59 OD1  ASP D 339      27.563  41.834  83.675  1.00 36.53 LIG-0.65  OA
ATOM     60 OD2  ASP D 339      28.301  41.722  81.608  1.00 35.99 LIG-0.65  OA
ENDBRANCH 57 58
ENDBRANCH 56 57
BRANCH 56 61
ATOM     61  N   ASP D 339      28.908  38.879  82.014  1.00 31.22 LIG-0.34  N 
ATOM     62  C   ASP D 338      29.934  38.091  82.329  1.00 32.92 LIG 0.26  C 
ATOM     63 O    ASP D 338      29.818  37.028  82.949  1.00 33.60 LIG-0.27  OA
ATOM     64 H    ASP D 339      28.973  39.534  81.460  1.00 31.22 LIG 0.16  HD
BRANCH 62 65
ATOM     65  CA  ASP D 338      31.303  38.567  81.842  1.00 33.82 LIG 0.41  C 
ATOM     66  N   ASP D 338      32.191  37.402  81.526  1.00 34.02 LIG 0.61  N 
BRANCH 65 67
ATOM     67  CB  ASP D 338      31.142  39.476  80.614  1.00 34.49 LIG 0.16  C 
BRANCH 67 68
ATOM     68  CG  ASP D 338      30.797  38.704  79.346  1.00 35.92 LIG 0.17  C 
ATOM     69 OD2  ASP D 338      31.483  38.910  78.325  1.00 39.23 LIG-0.65  OA
ATOM     70 OD1  ASP D 338      29.835  37.899  79.358  1.00 38.97 LIG-0.65  OA
ENDBRANCH 67 68
ENDBRANCH 65 67
ENDBRANCH 62 65
ENDBRANCH 56 61
ENDBRANCH 53 56
ENDBRANCH 40 52
ENDBRANCH 1 40
TORSDOF 27
ENDMDL
MODEL 36
USER: ADFR SOLUTION from run 30
USER: SCORE 21.428554 LL:  -5.641 LR: -17.387 RR:   0.000 FEB:  -9.332
USER: RMSD 14.101437
USER: SEED 29
USER: STATUS no improvement in best in 5 clusters for 5 generations
USER: GENES 29
USER: genes 0 Translation |==|  0.29010 0.44001 0.38872
USER: genes 1 Rotation |==|  0.80535 0.20727 0.27238 0.63879
USER: genes 2 Torsion [C]-N--CA-[CB] |==|  0.22240
USER: genes 3 Torsion [N]-CA--C-[N] |==|  0.44918
USER: genes 4 Torsion [C]-N--CA-[C] |==|  0.62242
USER: genes 5 Torsion [N]-CA--C-[N] |==|  0.30616
USER: genes 6 Torsion [C]-N--CA-[C] |==|  0.76111
USER: genes 7 Torsion [N]-CA--C-[N] |==|  0.02201
USER: genes 8 Torsion [C]-N--CA-[C] |==|  0.84288
USER: genes 9 Torsion [N]-CA--C-[O] |==|  0.18489
USER: genes 10 Torsion [N]-CA--CB-[OG] |==|  0.72369
USER: genes 11 Torsion [CA]-CB--OG-[HG] |==|  0.48458
USER: genes 12 Torsion [N]-CA--CB-[CG] |==|  0.24226
USER: genes 13 Torsion [CA]-CB--CG-[CD2] |==|  0.70672
USER: genes 14 Torsion [N]-CA--CB-[CG] |==|  0.97785
USER: genes 15 Torsion [CA]-CB--CG-[CD2] |==|  0.71571
USER: genes 16 Torsion [N]-CA--CB-[OG1] |==|  0.03561
USER: genes 17 Torsion [CA]-CB--OG1-[HG1] |==|  0.07827
USER: genes 18 Torsion [N]-C--CA-[N] |==|  0.46274
USER: genes 19 Torsion [C]-CA--CB-[CG] |==|  0.24321
USER: genes 20 Torsion [CA]-CB--CG-[CD2] |==|  0.60901
USER: genes 21 Torsion [C]-CA--N-[C] |==|  0.55168
USER: genes 22 Torsion [N]-C--CA-[N] |==|  0.32932
USER: genes 23 Torsion [C]-CA--CB-[CG] |==|  0.28727
USER: genes 24 Torsion [CA]-CB--CG-[OD1] |==|  0.81660
USER: genes 25 Torsion [C]-CA--N-[C] |==|  0.82602
USER: genes 26 Torsion [N]-C--CA-[N] |==|  0.28913
USER: genes 27 Torsion [C]-CA--CB-[CG] |==|  0.73476
USER: genes 28 Torsion [CA]-CB--CG-[OD2] |==|  0.71589
ROOT
ATOM      1  C   TRP D 340      17.195  34.733  77.103  1.00 16.52 LIG 0.24  C 
ATOM      2 O    TRP D 340      16.431  35.457  77.746  1.00 16.60 LIG-0.27  OA
ATOM      3  N   THR D 341      18.461  34.530  77.446  1.00 13.22 LIG-0.34  N 
ATOM      4 H    THR D 341      18.989  34.017  77.001  1.00 13.22 LIG 0.16  HD
ENDROOT
BRANCH 3 5
ATOM      5  CA  THR D 341      19.091  35.147  78.603  1.00 12.53 LIG 0.20  C 
BRANCH 5 6
ATOM      6  C   THR D 341      20.608  35.178  78.424  1.00 12.10 LIG 0.24  C 
ATOM      7 O    THR D 341      21.164  34.469  77.587  1.00 10.92 LIG-0.27  OA
ATOM      8  N   HIS D 342      21.279  36.024  79.195  1.00 12.26 LIG-0.35  N 
ATOM      9 H    HIS D 342      20.913  36.555  79.764  1.00 12.26 LIG 0.16  HD
BRANCH 8 10
ATOM     10  CA  HIS D 342      22.734  36.117  79.127  1.00 12.78 LIG 0.18  C 
BRANCH 10 11
ATOM     11  C   HIS D 342      23.292  36.175  80.533  1.00 14.51 LIG 0.24  C 
ATOM     12  N   LEU D 343      23.966  35.109  80.957  1.00 15.48 LIG-0.35  N 
ATOM     13 H    LEU D 343      24.154  34.433  80.460  1.00 15.48 LIG 0.16  HD
ATOM     14 O    HIS D 342      23.126  37.192  81.231  1.00 16.02 LIG-0.27  OA
BRANCH 12 15
ATOM     15  CA  LEU D 343      24.453  34.998  82.334  1.00 16.72 LIG 0.18  C 
BRANCH 15 16
ATOM     16  C   LEU D 343      25.817  35.644  82.565  1.00 19.19 LIG 0.24  C 
ATOM     17  N   SER D 344      26.322  36.366  81.551  1.00 21.37 LIG-0.34  N 
ATOM     18 H    SER D 344      26.017  36.322  80.748  1.00 21.37 LIG 0.16  HD
ATOM     19 O    LEU D 343      26.388  35.501  83.633  1.00 19.56 LIG-0.27  OA
BRANCH 17 20
ATOM     20  CA  SER D 344      27.453  37.310  81.705  1.00 23.14 LIG 0.19  C 
BRANCH 20 21
ATOM     21  C   SER D 344      27.146  38.368  82.774  1.00 24.18 LIG 0.22  C 
ATOM     22 O    SER D 344      27.029  38.056  83.972  1.00 25.35 LIG-0.29  OA
ENDBRANCH 20 21
BRANCH 20 23
ATOM     23  CB  SER D 344      27.781  38.014  80.387  1.00 23.66 LIG 0.20  C 
BRANCH 23 24
ATOM     24 OG   SER D 344      28.898  37.403  79.737  1.00 25.03 LIG-0.40  OA
ATOM     25 HG   SER D 344      29.011  37.756  78.983  1.00 25.03 LIG 0.21  HD
ENDBRANCH 23 24
ENDBRANCH 20 23
ENDBRANCH 17 20
ENDBRANCH 15 16
BRANCH 15 26
ATOM     26  CB  LEU D 343      24.552  33.521  82.755  1.00 15.83 LIG 0.04  C 
BRANCH 26 27
ATOM     27  CG  LEU D 343      25.848  32.807  82.427  1.00 14.86 LIG-0.02  C 
ATOM     28  CD1 LEU D 343      26.356  32.064  83.653  1.00 12.95 LIG 0.01  C 
ATOM     29  CD2 LEU D 343      25.638  31.839  81.234  1.00 12.95 LIG 0.01  C 
ENDBRANCH 26 27
ENDBRANCH 15 26
ENDBRANCH 12 15
ENDBRANCH 10 11
BRANCH 10 30
ATOM     30  CB  HIS D 342      23.151  37.382  78.361  1.00 12.90 LIG 0.10  C 
BRANCH 30 31
ATOM     31  CG  HIS D 342      22.010  38.099  77.717  1.00 12.99 LIG 0.06  A 
ATOM     32  CD2 HIS D 342      21.607  38.123  76.423  1.00 12.88 LIG 0.14  A 
ATOM     33 NE2  HIS D 342      20.506  38.938  76.358  1.00 14.80 LIG-0.25  NA
ATOM     34  CE1 HIS D 342      20.241  39.406  77.562  1.00 13.21 LIG 0.23  A 
ATOM     35 ND1  HIS D 342      21.139  38.920  78.401  1.00 14.49 LIG-0.24  NA
ENDBRANCH 30 31
ENDBRANCH 10 30
ENDBRANCH 8 10
ENDBRANCH 5 6
BRANCH 5 36
ATOM     36  CB  THR D 341      18.717  34.388  79.898  1.00 12.70 LIG 0.15  C 
ATOM     37  CG2 THR D 341      17.760  35.212  80.780  1.00 14.15 LIG 0.04  C 
BRANCH 36 38
ATOM     38 OG1  THR D 341      18.112  33.136  79.548  1.00 14.08 LIG-0.39  OA
ATOM     39 HG1  THR D 341      18.406  32.880  78.805  1.00 14.08 LIG 0.21  HD
ENDBRANCH 36 38
ENDBRANCH 5 36
ENDBRANCH 3 5
BRANCH 1 40
ATOM     40  CA  TRP D 340      16.730  34.058  75.819  1.00 18.72 LIG 0.18  C 
BRANCH 40 41
ATOM     41  CB  TRP D 340      17.377  34.786  74.641  1.00 19.00 LIG 0.07  C 
BRANCH 41 42
ATOM     42  CG  TRP D 340      18.723  34.282  74.255  1.00 19.22 LIG-0.03  A 
ATOM     43  CD2 TRP D 340      19.837  35.072  73.847  1.00 20.18 LIG-0.00  A 
ATOM     44  CE3 TRP D 340      20.049  36.449  73.713  1.00 18.70 LIG 0.01  A 
ATOM     45  CE2 TRP D 340      20.890  34.182  73.537  1.00 18.84 LIG 0.04  A 
ATOM     46  CZ3 TRP D 340      21.295  36.893  73.274  1.00 20.55 LIG 0.00  A 
ATOM     47  CH2 TRP D 340      22.322  35.977  72.982  1.00 19.52 LIG 0.00  A 
ATOM     48  CZ2 TRP D 340      22.140  34.624  73.102  1.00 19.79 LIG 0.03  A 
ATOM     49  NE1 TRP D 340      20.432  32.907  73.752  1.00 21.77 LIG-0.36  N 
ATOM     50  CD1 TRP D 340      19.121  32.980  74.169  1.00 20.48 LIG 0.10  A 
ATOM     51 HE1  TRP D 340      20.886  32.184  73.645  1.00 21.77 LIG 0.17  HD
ENDBRANCH 41 42
ENDBRANCH 40 41
BRANCH 40 52
ATOM     52  N   TRP D 340      15.268  34.076  75.693  1.00 22.23 LIG-0.35  N 
ATOM     53  C   ASP D 339      14.605  33.260  74.875  1.00 26.49 LIG 0.24  C 
ATOM     54 O    ASP D 339      15.163  32.411  74.158  1.00 27.22 LIG-0.27  OA
ATOM     55 H    TRP D 340      14.883  34.659  76.193  1.00 22.23 LIG 0.16  HD
BRANCH 53 56
ATOM     56  CA  ASP D 339      13.080  33.415  74.848  1.00 29.46 LIG 0.19  C 
BRANCH 56 57
ATOM     57  CB  ASP D 339      12.427  32.093  75.261  1.00 30.27 LIG 0.15  C 
BRANCH 57 58
ATOM     58  CG  ASP D 339      11.892  32.109  76.696  1.00 32.94 LIG 0.17  C 
ATOM     59 OD1  ASP D 339      12.722  32.202  77.626  1.00 36.53 LIG-0.65  OA
ATOM     60 OD2  ASP D 339      10.656  32.013  76.900  1.00 35.99 LIG-0.65  OA
ENDBRANCH 57 58
ENDBRANCH 56 57
BRANCH 56 61
ATOM     61  N   ASP D 339      12.611  33.794  73.519  1.00 31.22 LIG-0.34  N 
ATOM     62  C   ASP D 338      12.948  34.933  72.916  1.00 32.92 LIG 0.26  C 
ATOM     63 O    ASP D 338      13.847  35.681  73.315  1.00 33.60 LIG-0.27  OA
ATOM     64 H    ASP D 339      12.094  33.209  73.159  1.00 31.22 LIG 0.16  HD
BRANCH 62 65
ATOM     65  CA  ASP D 338      12.163  35.263  71.647  1.00 33.82 LIG 0.41  C 
ATOM     66  N   ASP D 338      11.147  36.332  71.911  1.00 34.02 LIG 0.61  N 
BRANCH 65 67
ATOM     67  CB  ASP D 338      13.123  35.693  70.526  1.00 34.49 LIG 0.16  C 
BRANCH 67 68
ATOM     68  CG  ASP D 338      13.278  37.205  70.425  1.00 35.92 LIG 0.17  C 
ATOM     69 OD2  ASP D 338      12.665  37.802  69.518  1.00 39.23 LIG-0.65  OA
ATOM     70 OD1  ASP D 338      14.020  37.804  71.241  1.00 38.97 LIG-0.65  OA
ENDBRANCH 67 68
ENDBRANCH 65 67
ENDBRANCH 62 65
ENDBRANCH 56 61
ENDBRANCH 53 56
ENDBRANCH 40 52
ENDBRANCH 1 40
TORSDOF 27
ENDMDL
MODEL 37
USER: ADFR SOLUTION from run 98
USER: SCORE 20.588704 LL:  -5.083 LR: -17.371 RR:   0.000 FEB:  -9.317
USER: RMSD 4.443318
USER: SEED 97
USER: STATUS no improvement in best in 9 clusters for 5 generations
USER: GENES 29
USER: genes 0 Translation |==|  0.49588 0.44816 0.52465
USER: genes 1 Rotation |==|  0.10105 0.61808 0.27443 0.66129
USER: genes 2 Torsion [C]-N--CA-[CB] |==|  0.57390
USER: genes 3 Torsion [N]-CA--C-[N] |==|  0.30567
USER: genes 4 Torsion [C]-N--CA-[C] |==|  0.72662
USER: genes 5 Torsion [N]-CA--C-[N] |==|  0.84444
USER: genes 6 Torsion [C]-N--CA-[C] |==|  0.64878
USER: genes 7 Torsion [N]-CA--C-[N] |==|  0.45624
USER: genes 8 Torsion [C]-N--CA-[C] |==|  0.60889
USER: genes 9 Torsion [N]-CA--C-[O] |==|  0.12222
USER: genes 10 Torsion [N]-CA--CB-[OG] |==|  0.70029
USER: genes 11 Torsion [CA]-CB--OG-[HG] |==|  0.33211
USER: genes 12 Torsion [N]-CA--CB-[CG] |==|  0.09851
USER: genes 13 Torsion [CA]-CB--CG-[CD2] |==|  0.75887
USER: genes 14 Torsion [N]-CA--CB-[CG] |==|  0.52746
USER: genes 15 Torsion [CA]-CB--CG-[CD2] |==|  0.01842
USER: genes 16 Torsion [N]-CA--CB-[OG1] |==|  0.03799
USER: genes 17 Torsion [CA]-CB--OG1-[HG1] |==|  0.14311
USER: genes 18 Torsion [N]-C--CA-[N] |==|  0.75679
USER: genes 19 Torsion [C]-CA--CB-[CG] |==|  0.28861
USER: genes 20 Torsion [CA]-CB--CG-[CD2] |==|  0.37815
USER: genes 21 Torsion [C]-CA--N-[C] |==|  0.59940
USER: genes 22 Torsion [N]-C--CA-[N] |==|  0.32842
USER: genes 23 Torsion [C]-CA--CB-[CG] |==|  0.54407
USER: genes 24 Torsion [CA]-CB--CG-[OD1] |==|  0.40493
USER: genes 25 Torsion [C]-CA--N-[C] |==|  0.79759
USER: genes 26 Torsion [N]-C--CA-[N] |==|  0.52101
USER: genes 27 Torsion [C]-CA--CB-[CG] |==|  0.79832
USER: genes 28 Torsion [CA]-CB--CG-[OD2] |==|  0.03242
ROOT
ATOM      1  C   TRP D 340      22.906  34.892  80.773  1.00 16.52 LIG 0.24  C 
ATOM      2 O    TRP D 340      22.934  35.027  79.548  1.00 16.60 LIG-0.27  OA
ATOM      3  N   THR D 341      21.787  34.678  81.454  1.00 13.22 LIG-0.34  N 
ATOM      4 H    THR D 341      21.772  34.575  82.308  1.00 13.22 LIG 0.16  HD
ENDROOT
BRANCH 3 5
ATOM      5  CA  THR D 341      20.472  34.595  80.837  1.00 12.53 LIG 0.20  C 
BRANCH 5 6
ATOM      6  C   THR D 341      20.414  35.486  79.597  1.00 12.10 LIG 0.24  C 
ATOM      7 O    THR D 341      20.448  36.711  79.693  1.00 10.92 LIG-0.27  OA
ATOM      8  N   HIS D 342      20.354  34.867  78.425  1.00 12.26 LIG-0.35  N 
ATOM      9 H    HIS D 342      20.363  34.012  78.328  1.00 12.26 LIG 0.16  HD
BRANCH 8 10
ATOM     10  CA  HIS D 342      20.268  35.619  77.177  1.00 12.78 LIG 0.18  C 
BRANCH 10 11
ATOM     11  C   HIS D 342      18.822  35.671  76.729  1.00 14.51 LIG 0.24  C 
ATOM     12  N   LEU D 343      18.198  34.507  76.574  1.00 15.48 LIG-0.35  N 
ATOM     13 H    LEU D 343      18.547  33.747  76.777  1.00 15.48 LIG 0.16  HD
ATOM     14 O    HIS D 342      18.267  36.769  76.538  1.00 16.02 LIG-0.27  OA
BRANCH 12 15
ATOM     15  CA  LEU D 343      16.839  34.422  76.035  1.00 16.72 LIG 0.18  C 
BRANCH 15 16
ATOM     16  C   LEU D 343      15.867  33.647  76.921  1.00 19.19 LIG 0.24  C 
ATOM     17  N   SER D 344      14.558  33.804  76.663  1.00 21.37 LIG-0.34  N 
ATOM     18 H    SER D 344      14.251  34.440  76.172  1.00 21.37 LIG 0.16  HD
ATOM     19 O    LEU D 343      16.292  32.921  77.805  1.00 19.56 LIG-0.27  OA
BRANCH 17 20
ATOM     20  CA  SER D 344      13.508  32.903  77.192  1.00 23.14 LIG 0.19  C 
BRANCH 20 21
ATOM     21  C   SER D 344      12.422  32.644  76.138  1.00 24.18 LIG 0.22  C 
ATOM     22 O    SER D 344      12.718  32.399  74.956  1.00 25.35 LIG-0.29  OA
ENDBRANCH 20 21
BRANCH 20 23
ATOM     23  CB  SER D 344      12.855  33.478  78.450  1.00 23.66 LIG 0.20  C 
BRANCH 23 24
ATOM     24 OG   SER D 344      13.255  32.757  79.617  1.00 25.03 LIG-0.40  OA
ATOM     25 HG   SER D 344      13.646  33.278  80.148  1.00 25.03 LIG 0.21  HD
ENDBRANCH 23 24
ENDBRANCH 20 23
ENDBRANCH 17 20
ENDBRANCH 15 16
BRANCH 15 26
ATOM     26  CB  LEU D 343      16.848  33.758  74.648  1.00 15.83 LIG 0.04  C 
BRANCH 26 27
ATOM     27  CG  LEU D 343      17.859  32.649  74.432  1.00 14.86 LIG-0.02  C 
ATOM     28  CD1 LEU D 343      17.324  31.650  73.418  1.00 12.95 LIG 0.01  C 
ATOM     29  CD2 LEU D 343      19.214  33.243  73.970  1.00 12.95 LIG 0.01  C 
ENDBRANCH 26 27
ENDBRANCH 15 26
ENDBRANCH 12 15
ENDBRANCH 10 11
BRANCH 10 30
ATOM     30  CB  HIS D 342      21.114  34.941  76.088  1.00 12.90 LIG 0.10  C 
BRANCH 30 31
ATOM     31  CG  HIS D 342      21.272  35.763  74.851  1.00 12.99 LIG 0.06  A 
ATOM     32  CD2 HIS D 342      20.895  37.038  74.590  1.00 12.88 LIG 0.14  A 
ATOM     33 NE2  HIS D 342      21.272  37.315  73.300  1.00 14.80 LIG-0.25  NA
ATOM     34  CE1 HIS D 342      21.853  36.252  72.781  1.00 13.21 LIG 0.23  A 
ATOM     35 ND1  HIS D 342      21.861  35.297  73.694  1.00 14.49 LIG-0.24  NA
ENDBRANCH 30 31
ENDBRANCH 10 30
ENDBRANCH 8 10
ENDBRANCH 5 6
BRANCH 5 36
ATOM     36  CB  THR D 341      19.370  35.001  81.843  1.00 12.70 LIG 0.15  C 
ATOM     37  CG2 THR D 341      18.548  33.783  82.304  1.00 14.15 LIG 0.04  C 
BRANCH 36 38
ATOM     38 OG1  THR D 341      19.980  35.640  82.973  1.00 14.08 LIG-0.39  OA
ATOM     39 HG1  THR D 341      20.488  36.254  82.707  1.00 14.08 LIG 0.21  HD
ENDBRANCH 36 38
ENDBRANCH 5 36
ENDBRANCH 3 5
BRANCH 1 40
ATOM     40  CA  TRP D 340      24.181  35.020  81.599  1.00 18.72 LIG 0.18  C 
BRANCH 40 41
ATOM     41  CB  TRP D 340      24.058  34.088  82.803  1.00 19.00 LIG 0.07  C 
BRANCH 41 42
ATOM     42  CG  TRP D 340      24.848  32.830  82.705  1.00 19.22 LIG-0.03  A 
ATOM     43  CD2 TRP D 340      25.640  32.246  83.737  1.00 20.18 LIG-0.00  A 
ATOM     44  CE3 TRP D 340      25.900  32.589  85.069  1.00 18.70 LIG 0.01  A 
ATOM     45  CE2 TRP D 340      26.242  31.087  83.196  1.00 18.84 LIG 0.04  A 
ATOM     46  CZ3 TRP D 340      26.749  31.774  85.815  1.00 20.55 LIG 0.00  A 
ATOM     47  CH2 TRP D 340      27.325  30.624  85.245  1.00 19.52 LIG 0.00  A 
ATOM     48  CZ2 TRP D 340      27.089  30.266  83.943  1.00 19.79 LIG 0.03  A 
ATOM     49  NE1 TRP D 340      25.829  30.973  81.893  1.00 21.77 LIG-0.36  N 
ATOM     50  CD1 TRP D 340      25.002  32.037  81.605  1.00 20.48 LIG 0.10  A 
ATOM     51 HE1  TRP D 340      26.048  30.345  81.349  1.00 21.77 LIG 0.17  HD
ENDBRANCH 41 42
ENDBRANCH 40 41
BRANCH 40 52
ATOM     52  N   TRP D 340      24.407  36.401  82.040  1.00 22.23 LIG-0.35  N 
ATOM     53  C   ASP D 339      25.623  36.938  82.131  1.00 26.49 LIG 0.24  C 
ATOM     54 O    ASP D 339      26.664  36.322  81.844  1.00 27.22 LIG-0.27  OA
ATOM     55 H    TRP D 340      23.687  36.828  82.232  1.00 22.23 LIG 0.16  HD
BRANCH 53 56
ATOM     56  CA  ASP D 339      25.691  38.389  82.623  1.00 29.46 LIG 0.19  C 
BRANCH 56 57
ATOM     57  CB  ASP D 339      26.360  39.257  81.555  1.00 30.27 LIG 0.15  C 
BRANCH 57 58
ATOM     58  CG  ASP D 339      26.822  40.617  82.088  1.00 32.94 LIG 0.17  C 
ATOM     59 OD1  ASP D 339      27.867  41.106  81.608  1.00 36.53 LIG-0.65  OA
ATOM     60 OD2  ASP D 339      26.159  41.189  82.989  1.00 35.99 LIG-0.65  OA
ENDBRANCH 57 58
ENDBRANCH 56 57
BRANCH 56 61
ATOM     61  N   ASP D 339      26.442  38.488  83.871  1.00 31.22 LIG-0.34  N 
ATOM     62  C   ASP D 338      25.976  38.071  85.047  1.00 32.92 LIG 0.26  C 
ATOM     63 O    ASP D 338      24.965  37.371  85.175  1.00 33.60 LIG-0.27  OA
ATOM     64 H    ASP D 339      27.219  38.844  83.775  1.00 31.22 LIG 0.16  HD
BRANCH 62 65
ATOM     65  CA  ASP D 338      26.798  38.487  86.266  1.00 33.82 LIG 0.41  C 
ATOM     66  N   ASP D 338      26.291  37.816  87.506  1.00 34.02 LIG 0.61  N 
BRANCH 65 67
ATOM     67  CB  ASP D 338      28.283  38.160  86.041  1.00 34.49 LIG 0.16  C 
BRANCH 67 68
ATOM     68  CG  ASP D 338      28.580  36.667  86.114  1.00 35.92 LIG 0.17  C 
ATOM     69 OD2  ASP D 338      27.618  35.874  86.117  1.00 39.23 LIG-0.65  OA
ATOM     70 OD1  ASP D 338      29.771  36.279  86.180  1.00 38.97 LIG-0.65  OA
ENDBRANCH 67 68
ENDBRANCH 65 67
ENDBRANCH 62 65
ENDBRANCH 56 61
ENDBRANCH 53 56
ENDBRANCH 40 52
ENDBRANCH 1 40
TORSDOF 27
ENDMDL
MODEL 38
USER: ADFR SOLUTION from run 114
USER: SCORE 22.238142 LL:  -5.943 LR: -17.346 RR:   0.000 FEB:  -9.292
USER: RMSD 3.688678
USER: SEED 113
USER: STATUS searching
USER: GENES 29
USER: genes 0 Translation |==|  0.52712 0.46436 0.53438
USER: genes 1 Rotation |==|  0.79529 0.38285 0.81778 0.71930
USER: genes 2 Torsion [C]-N--CA-[CB] |==|  0.75556
USER: genes 3 Torsion [N]-CA--C-[N] |==|  0.20105
USER: genes 4 Torsion [C]-N--CA-[C] |==|  0.84591
USER: genes 5 Torsion [N]-CA--C-[N] |==|  0.93121
USER: genes 6 Torsion [C]-N--CA-[C] |==|  0.72075
USER: genes 7 Torsion [N]-CA--C-[N] |==|  0.12022
USER: genes 8 Torsion [C]-N--CA-[C] |==|  0.73280
USER: genes 9 Torsion [N]-CA--C-[O] |==|  0.51964
USER: genes 10 Torsion [N]-CA--CB-[OG] |==|  0.97926
USER: genes 11 Torsion [CA]-CB--OG-[HG] |==|  0.16752
USER: genes 12 Torsion [N]-CA--CB-[CG] |==|  0.12233
USER: genes 13 Torsion [CA]-CB--CG-[CD2] |==|  0.74386
USER: genes 14 Torsion [N]-CA--CB-[CG] |==|  0.86958
USER: genes 15 Torsion [CA]-CB--CG-[CD2] |==|  0.46441
USER: genes 16 Torsion [N]-CA--CB-[OG1] |==|  0.94797
USER: genes 17 Torsion [CA]-CB--OG1-[HG1] |==|  0.14606
USER: genes 18 Torsion [N]-C--CA-[N] |==|  0.01990
USER: genes 19 Torsion [C]-CA--CB-[CG] |==|  0.24794
USER: genes 20 Torsion [CA]-CB--CG-[CD2] |==|  0.36646
USER: genes 21 Torsion [C]-CA--N-[C] |==|  0.72668
USER: genes 22 Torsion [N]-C--CA-[N] |==|  0.18021
USER: genes 23 Torsion [C]-CA--CB-[CG] |==|  0.47069
USER: genes 24 Torsion [CA]-CB--CG-[OD1] |==|  0.50391
USER: genes 25 Torsion [C]-CA--N-[C] |==|  0.76536
USER: genes 26 Torsion [N]-C--CA-[N] |==|  0.57939
USER: genes 27 Torsion [C]-CA--CB-[CG] |==|  0.78473
USER: genes 28 Torsion [CA]-CB--CG-[OD2] |==|  0.03891
ROOT
ATOM      1  C   TRP D 340      23.773  35.208  81.036  1.00 16.52 LIG 0.24  C 
ATOM      2 O    TRP D 340      23.336  34.150  80.577  1.00 16.60 LIG-0.27  OA
ATOM      3  N   THR D 341      23.274  36.396  80.721  1.00 13.22 LIG-0.34  N 
ATOM      4 H    THR D 341      23.574  37.132  81.050  1.00 13.22 LIG 0.16  HD
ENDROOT
BRANCH 3 5
ATOM      5  CA  THR D 341      22.171  36.586  79.790  1.00 12.53 LIG 0.20  C 
BRANCH 5 6
ATOM      6  C   THR D 341      21.184  35.425  79.898  1.00 12.10 LIG 0.24  C 
ATOM      7 O    THR D 341      21.120  34.561  79.024  1.00 10.92 LIG-0.27  OA
ATOM      8  N   HIS D 342      20.431  35.386  80.990  1.00 12.26 LIG-0.35  N 
ATOM      9 H    HIS D 342      20.479  35.958  81.631  1.00 12.26 LIG 0.16  HD
BRANCH 8 10
ATOM     10  CA  HIS D 342      19.435  34.337  81.184  1.00 12.78 LIG 0.18  C 
BRANCH 10 11
ATOM     11  C   HIS D 342      18.492  34.324  80.001  1.00 14.51 LIG 0.24  C 
ATOM     12  N   LEU D 343      18.366  35.460  79.320  1.00 15.48 LIG-0.35  N 
ATOM     13 H    LEU D 343      18.835  36.164  79.474  1.00 15.48 LIG 0.16  HD
ATOM     14 O    HIS D 342      17.887  33.280  79.695  1.00 16.02 LIG-0.27  OA
BRANCH 12 15
ATOM     15  CA  LEU D 343      17.399  35.606  78.229  1.00 16.72 LIG 0.18  C 
BRANCH 15 16
ATOM     16  C   LEU D 343      18.009  35.477  76.836  1.00 19.19 LIG 0.24  C 
ATOM     17  N   SER D 344      18.899  34.486  76.657  1.00 21.37 LIG-0.34  N 
ATOM     18 H    SER D 344      19.267  34.064  77.309  1.00 21.37 LIG 0.16  HD
ATOM     19 O    LEU D 343      17.676  36.245  75.949  1.00 19.56 LIG-0.27  OA
BRANCH 17 20
ATOM     20  CA  SER D 344      19.338  34.015  75.323  1.00 23.14 LIG 0.19  C 
BRANCH 20 21
ATOM     21  C   SER D 344      18.533  32.786  74.879  1.00 24.18 LIG 0.22  C 
ATOM     22 O    SER D 344      18.833  32.159  73.848  1.00 25.35 LIG-0.29  OA
ENDBRANCH 20 21
BRANCH 20 23
ATOM     23  CB  SER D 344      20.828  33.667  75.311  1.00 23.66 LIG 0.20  C 
BRANCH 23 24
ATOM     24 OG   SER D 344      21.458  34.044  76.537  1.00 25.03 LIG-0.40  OA
ATOM     25 HG   SER D 344      21.096  33.635  77.175  1.00 25.03 LIG 0.21  HD
ENDBRANCH 23 24
ENDBRANCH 20 23
ENDBRANCH 17 20
ENDBRANCH 15 16
BRANCH 15 26
ATOM     26  CB  LEU D 343      16.694  36.972  78.312  1.00 15.83 LIG 0.04  C 
BRANCH 26 27
ATOM     27  CG  LEU D 343      17.571  38.174  78.599  1.00 14.86 LIG-0.02  C 
ATOM     28  CD1 LEU D 343      17.047  39.389  77.851  1.00 12.95 LIG 0.01  C 
ATOM     29  CD2 LEU D 343      17.631  38.439  80.125  1.00 12.95 LIG 0.01  C 
ENDBRANCH 26 27
ENDBRANCH 15 26
ENDBRANCH 12 15
ENDBRANCH 10 11
BRANCH 10 30
ATOM     30  CB  HIS D 342      18.636  34.596  82.471  1.00 12.90 LIG 0.10  C 
BRANCH 30 31
ATOM     31  CG  HIS D 342      19.487  34.936  83.650  1.00 12.99 LIG 0.06  A 
ATOM     32  CD2 HIS D 342      19.148  35.442  84.860  1.00 12.88 LIG 0.14  A 
ATOM     33 NE2  HIS D 342      20.306  35.572  85.583  1.00 14.80 LIG-0.25  NA
ATOM     34  CE1 HIS D 342      21.323  35.169  84.848  1.00 13.21 LIG 0.23  A 
ATOM     35 ND1  HIS D 342      20.857  34.786  83.672  1.00 14.49 LIG-0.24  NA
ENDBRANCH 30 31
ENDBRANCH 10 30
ENDBRANCH 8 10
ENDBRANCH 5 6
BRANCH 5 36
ATOM     36  CB  THR D 341      22.697  36.712  78.341  1.00 12.70 LIG 0.15  C 
ATOM     37  CG2 THR D 341      21.919  37.779  77.548  1.00 14.15 LIG 0.04  C 
BRANCH 36 38
ATOM     38 OG1  THR D 341      24.092  37.042  78.375  1.00 14.08 LIG-0.39  OA
ATOM     39 HG1  THR D 341      24.498  36.491  78.862  1.00 14.08 LIG 0.21  HD
ENDBRANCH 36 38
ENDBRANCH 5 36
ENDBRANCH 3 5
BRANCH 1 40
ATOM     40  CA  TRP D 340      24.974  35.211  81.975  1.00 18.72 LIG 0.18  C 
BRANCH 40 41
ATOM     41  CB  TRP D 340      24.679  34.246  83.122  1.00 19.00 LIG 0.07  C 
BRANCH 41 42
ATOM     42  CG  TRP D 340      25.097  32.838  82.879  1.00 19.22 LIG-0.03  A 
ATOM     43  CD2 TRP D 340      25.837  32.010  83.773  1.00 20.18 LIG-0.00  A 
ATOM     44  CE3 TRP D 340      26.347  32.192  85.064  1.00 18.70 LIG 0.01  A 
ATOM     45  CE2 TRP D 340      26.044  30.773  83.121  1.00 18.84 LIG 0.04  A 
ATOM     46  CZ3 TRP D 340      27.045  31.145  85.660  1.00 20.55 LIG 0.00  A 
ATOM     47  CH2 TRP D 340      27.226  29.924  84.984  1.00 19.52 LIG 0.00  A 
ATOM     48  CZ2 TRP D 340      26.739  29.720  83.719  1.00 19.79 LIG 0.03  A 
ATOM     49  NE1 TRP D 340      25.450  30.849  81.887  1.00 21.77 LIG-0.36  N 
ATOM     50  CD1 TRP D 340      24.897  32.102  81.747  1.00 20.48 LIG 0.10  A 
ATOM     51 HE1  TRP D 340      25.427  30.220  81.300  1.00 21.77 LIG 0.17  HD
ENDBRANCH 41 42
ENDBRANCH 40 41
BRANCH 40 52
ATOM     52  N   TRP D 340      25.255  36.555  82.494  1.00 22.23 LIG-0.35  N 
ATOM     53  C   ASP D 339      26.191  37.347  81.974  1.00 26.49 LIG 0.24  C 
ATOM     54 O    ASP D 339      26.897  37.023  81.004  1.00 27.22 LIG-0.27  OA
ATOM     55 H    TRP D 340      24.762  36.780  83.161  1.00 22.23 LIG 0.16  HD
BRANCH 53 56
ATOM     56  CA  ASP D 339      26.372  38.715  82.641  1.00 29.46 LIG 0.19  C 
BRANCH 56 57
ATOM     57  CB  ASP D 339      27.374  39.546  81.836  1.00 30.27 LIG 0.15  C 
BRANCH 57 58
ATOM     58  CG  ASP D 339      27.428  41.013  82.273  1.00 32.94 LIG 0.17  C 
ATOM     59 OD1  ASP D 339      28.200  41.777  81.654  1.00 36.53 LIG-0.65  OA
ATOM     60 OD2  ASP D 339      26.720  41.401  83.236  1.00 35.99 LIG-0.65  OA
ENDBRANCH 57 58
ENDBRANCH 56 57
BRANCH 56 61
ATOM     61  N   ASP D 339      26.850  38.574  84.014  1.00 31.22 LIG-0.34  N 
ATOM     62  C   ASP D 338      26.048  38.359  85.055  1.00 32.92 LIG 0.26  C 
ATOM     63 O    ASP D 338      24.856  38.047  84.950  1.00 33.60 LIG-0.27  OA
ATOM     64 H    ASP D 339      27.704  38.643  84.088  1.00 31.22 LIG 0.16  HD
BRANCH 62 65
ATOM     65  CA  ASP D 338      26.703  38.491  86.429  1.00 33.82 LIG 0.41  C 
ATOM     66  N   ASP D 338      26.018  37.616  87.434  1.00 34.02 LIG 0.61  N 
BRANCH 65 67
ATOM     67  CB  ASP D 338      28.198  38.146  86.340  1.00 34.49 LIG 0.16  C 
BRANCH 67 68
ATOM     68  CG  ASP D 338      28.457  36.646  86.271  1.00 35.92 LIG 0.17  C 
ATOM     69 OD2  ASP D 338      27.495  35.891  86.026  1.00 39.23 LIG-0.65  OA
ATOM     70 OD1  ASP D 338      29.618  36.212  86.471  1.00 38.97 LIG-0.65  OA
ENDBRANCH 67 68
ENDBRANCH 65 67
ENDBRANCH 62 65
ENDBRANCH 56 61
ENDBRANCH 53 56
ENDBRANCH 40 52
ENDBRANCH 1 40
TORSDOF 27
ENDMDL
MODEL 39
USER: ADFR SOLUTION from run 52
USER: SCORE 20.960958 LL:  -5.480 LR: -17.320 RR:   0.000 FEB:  -9.266
USER: RMSD 13.391335
USER: SEED 51
USER: STATUS no improvement in best in 19 clusters for 5 generations
USER: GENES 29
USER: genes 0 Translation |==|  0.40987 0.46407 0.45502
USER: genes 1 Rotation |==|  0.84385 0.63695 0.24002 0.71313
USER: genes 2 Torsion [C]-N--CA-[CB] |==|  0.83315
USER: genes 3 Torsion [N]-CA--C-[N] |==|  0.47438
USER: genes 4 Torsion [C]-N--CA-[C] |==|  0.76540
USER: genes 5 Torsion [N]-CA--C-[N] |==|  0.47493
USER: genes 6 Torsion [C]-N--CA-[C] |==|  0.73001
USER: genes 7 Torsion [N]-CA--C-[N] |==|  0.46823
USER: genes 8 Torsion [C]-N--CA-[C] |==|  0.78005
USER: genes 9 Torsion [N]-CA--C-[O] |==|  0.04708
USER: genes 10 Torsion [N]-CA--CB-[OG] |==|  0.78171
USER: genes 11 Torsion [CA]-CB--OG-[HG] |==|  0.36404
USER: genes 12 Torsion [N]-CA--CB-[CG] |==|  0.70734
USER: genes 13 Torsion [CA]-CB--CG-[CD2] |==|  0.62341
USER: genes 14 Torsion [N]-CA--CB-[CG] |==|  0.67613
USER: genes 15 Torsion [CA]-CB--CG-[CD2] |==|  0.14043
USER: genes 16 Torsion [N]-CA--CB-[OG1] |==|  0.61106
USER: genes 17 Torsion [CA]-CB--OG1-[HG1] |==|  0.53443
USER: genes 18 Torsion [N]-C--CA-[N] |==|  0.80888
USER: genes 19 Torsion [C]-CA--CB-[CG] |==|  0.40575
USER: genes 20 Torsion [CA]-CB--CG-[CD2] |==|  0.10927
USER: genes 21 Torsion [C]-CA--N-[C] |==|  0.77984
USER: genes 22 Torsion [N]-C--CA-[N] |==|  0.19400
USER: genes 23 Torsion [C]-CA--CB-[CG] |==|  0.71526
USER: genes 24 Torsion [CA]-CB--CG-[OD1] |==|  0.80715
USER: genes 25 Torsion [C]-CA--N-[C] |==|  0.65000
USER: genes 26 Torsion [N]-C--CA-[N] |==|  0.34883
USER: genes 27 Torsion [C]-CA--CB-[CG] |==|  0.66906
USER: genes 28 Torsion [CA]-CB--CG-[OD2] |==|  0.18725
ROOT
ATOM      1  C   TRP D 340      20.519  35.202  78.893  1.00 16.52 LIG 0.24  C 
ATOM      2 O    TRP D 340      20.676  34.398  79.815  1.00 16.60 LIG-0.27  OA
ATOM      3  N   THR D 341      20.935  36.461  78.950  1.00 13.22 LIG-0.34  N 
ATOM      4 H    THR D 341      20.832  37.017  78.302  1.00 13.22 LIG 0.16  HD
ENDROOT
BRANCH 3 5
ATOM      5  CA  THR D 341      21.606  37.036  80.107  1.00 12.53 LIG 0.20  C 
BRANCH 5 6
ATOM      6  C   THR D 341      22.924  36.309  80.367  1.00 12.10 LIG 0.24  C 
ATOM      7 O    THR D 341      23.224  35.293  79.743  1.00 10.92 LIG-0.27  OA
ATOM      8  N   HIS D 342      23.730  36.849  81.273  1.00 12.26 LIG-0.35  N 
ATOM      9 H    HIS D 342      23.560  37.577  81.699  1.00 12.26 LIG 0.16  HD
BRANCH 8 10
ATOM     10  CA  HIS D 342      25.002  36.225  81.621  1.00 12.78 LIG 0.18  C 
BRANCH 10 11
ATOM     11  C   HIS D 342      24.762  35.161  82.670  1.00 14.51 LIG 0.24  C 
ATOM     12  N   LEU D 343      25.787  34.366  82.967  1.00 15.48 LIG-0.35  N 
ATOM     13 H    LEU D 343      26.579  34.469  82.649  1.00 15.48 LIG 0.16  HD
ATOM     14 O    HIS D 342      23.651  35.068  83.223  1.00 16.02 LIG-0.27  OA
BRANCH 12 15
ATOM     15  CA  LEU D 343      25.646  33.228  83.879  1.00 16.72 LIG 0.18  C 
BRANCH 15 16
ATOM     16  C   LEU D 343      26.079  33.524  85.312  1.00 19.19 LIG 0.24  C 
ATOM     17  N   SER D 344      25.757  32.609  86.241  1.00 21.37 LIG-0.34  N 
ATOM     18 H    SER D 344      25.177  31.988  86.106  1.00 21.37 LIG 0.16  HD
ATOM     19 O    LEU D 343      26.695  34.546  85.566  1.00 19.56 LIG-0.27  OA
BRANCH 17 20
ATOM     20  CA  SER D 344      26.362  32.569  87.592  1.00 23.14 LIG 0.19  C 
BRANCH 20 21
ATOM     21  C   SER D 344      27.754  31.923  87.554  1.00 24.18 LIG 0.22  C 
ATOM     22 O    SER D 344      28.375  31.795  86.484  1.00 25.35 LIG-0.29  OA
ENDBRANCH 20 21
BRANCH 20 23
ATOM     23  CB  SER D 344      25.483  31.800  88.581  1.00 23.66 LIG 0.20  C 
BRANCH 23 24
ATOM     24 OG   SER D 344      24.390  32.602  89.034  1.00 25.03 LIG-0.40  OA
ATOM     25 HG   SER D 344      23.675  32.166  88.967  1.00 25.03 LIG 0.21  HD
ENDBRANCH 23 24
ENDBRANCH 20 23
ENDBRANCH 17 20
ENDBRANCH 15 16
BRANCH 15 26
ATOM     26  CB  LEU D 343      26.466  32.028  83.375  1.00 15.83 LIG 0.04  C 
BRANCH 26 27
ATOM     27  CG  LEU D 343      25.687  30.886  82.753  1.00 14.86 LIG-0.02  C 
ATOM     28  CD1 LEU D 343      25.781  30.959  81.237  1.00 12.95 LIG 0.01  C 
ATOM     29  CD2 LEU D 343      26.216  29.528  83.281  1.00 12.95 LIG 0.01  C 
ENDBRANCH 26 27
ENDBRANCH 15 26
ENDBRANCH 12 15
ENDBRANCH 10 11
BRANCH 10 30
ATOM     30  CB  HIS D 342      25.976  37.276  82.175  1.00 12.90 LIG 0.10  C 
BRANCH 30 31
ATOM     31  CG  HIS D 342      27.197  37.468  81.335  1.00 12.99 LIG 0.06  A 
ATOM     32  CD2 HIS D 342      27.319  37.694  80.005  1.00 12.88 LIG 0.14  A 
ATOM     33 NE2  HIS D 342      28.661  37.792  79.733  1.00 14.80 LIG-0.25  NA
ATOM     34  CE1 HIS D 342      29.341  37.627  80.850  1.00 13.21 LIG 0.23  A 
ATOM     35 ND1  HIS D 342      28.482  37.422  81.832  1.00 14.49 LIG-0.24  NA
ENDBRANCH 30 31
ENDBRANCH 10 30
ENDBRANCH 8 10
ENDBRANCH 5 6
BRANCH 5 36
ATOM     36  CB  THR D 341      20.697  36.964  81.356  1.00 12.70 LIG 0.15  C 
ATOM     37  CG2 THR D 341      21.049  35.754  82.242  1.00 14.15 LIG 0.04  C 
BRANCH 36 38
ATOM     38 OG1  THR D 341      20.831  38.179  82.105  1.00 14.08 LIG-0.39  OA
ATOM     39 HG1  THR D 341      20.479  38.083  82.861  1.00 14.08 LIG 0.21  HD
ENDBRANCH 36 38
ENDBRANCH 5 36
ENDBRANCH 3 5
BRANCH 1 40
ATOM     40  CA  TRP D 340      19.772  34.798  77.628  1.00 18.72 LIG 0.18  C 
BRANCH 40 41
ATOM     41  CB  TRP D 340      20.639  35.176  76.427  1.00 19.00 LIG 0.07  C 
BRANCH 41 42
ATOM     42  CG  TRP D 340      20.539  34.250  75.266  1.00 19.22 LIG-0.03  A 
ATOM     43  CD2 TRP D 340      19.353  33.624  74.784  1.00 20.18 LIG-0.00  A 
ATOM     44  CE3 TRP D 340      18.007  33.676  75.166  1.00 18.70 LIG 0.01  A 
ATOM     45  CE2 TRP D 340      19.727  32.803  73.696  1.00 18.84 LIG 0.04  A 
ATOM     46  CZ3 TRP D 340      17.082  32.911  74.459  1.00 20.55 LIG 0.00  A 
ATOM     47  CH2 TRP D 340      17.490  32.110  73.376  1.00 19.52 LIG 0.00  A 
ATOM     48  CZ2 TRP D 340      18.801  32.039  72.983  1.00 19.79 LIG 0.03  A 
ATOM     49  NE1 TRP D 340      21.081  32.930  73.525  1.00 21.77 LIG-0.36  N 
ATOM     50  CD1 TRP D 340      21.561  33.793  74.486  1.00 20.48 LIG 0.10  A 
ATOM     51 HE1  TRP D 340      21.552  32.539  72.921  1.00 21.77 LIG 0.17  HD
ENDBRANCH 41 42
ENDBRANCH 40 41
BRANCH 40 52
ATOM     52  N   TRP D 340      18.460  35.449  77.538  1.00 22.23 LIG-0.35  N 
ATOM     53  C   ASP D 339      17.395  35.022  78.214  1.00 26.49 LIG 0.24  C 
ATOM     54 O    ASP D 339      17.423  34.044  78.982  1.00 27.22 LIG-0.27  OA
ATOM     55 H    TRP D 340      18.444  36.129  77.012  1.00 22.23 LIG 0.16  HD
BRANCH 53 56
ATOM     56  CA  ASP D 339      16.094  35.802  77.999  1.00 29.46 LIG 0.19  C 
BRANCH 56 57
ATOM     57  CB  ASP D 339      15.058  35.360  79.036  1.00 30.27 LIG 0.15  C 
BRANCH 57 58
ATOM     58  CG  ASP D 339      14.005  34.405  78.464  1.00 32.94 LIG 0.17  C 
ATOM     59 OD1  ASP D 339      13.180  34.869  77.648  1.00 36.53 LIG-0.65  OA
ATOM     60 OD2  ASP D 339      13.987  33.205  78.836  1.00 35.99 LIG-0.65  OA
ENDBRANCH 57 58
ENDBRANCH 56 57
BRANCH 56 61
ATOM     61  N   ASP D 339      15.562  35.583  76.657  1.00 31.22 LIG-0.34  N 
ATOM     62  C   ASP D 338      15.264  36.570  75.813  1.00 32.92 LIG 0.26  C 
ATOM     63 O    ASP D 338      15.597  37.747  75.987  1.00 33.60 LIG-0.27  OA
ATOM     64 H    ASP D 339      15.460  34.753  76.461  1.00 31.22 LIG 0.16  HD
BRANCH 62 65
ATOM     65  CA  ASP D 338      14.489  36.154  74.563  1.00 33.82 LIG 0.41  C 
ATOM     66  N   ASP D 338      13.231  36.956  74.422  1.00 34.02 LIG 0.61  N 
BRANCH 65 67
ATOM     67  CB  ASP D 338      15.373  36.309  73.315  1.00 34.49 LIG 0.16  C 
BRANCH 67 68
ATOM     68  CG  ASP D 338      14.805  37.298  72.304  1.00 35.92 LIG 0.17  C 
ATOM     69 OD2  ASP D 338      14.760  38.504  72.619  1.00 39.23 LIG-0.65  OA
ATOM     70 OD1  ASP D 338      14.391  36.876  71.197  1.00 38.97 LIG-0.65  OA
ENDBRANCH 67 68
ENDBRANCH 65 67
ENDBRANCH 62 65
ENDBRANCH 56 61
ENDBRANCH 53 56
ENDBRANCH 40 52
ENDBRANCH 1 40
TORSDOF 27
ENDMDL
MODEL 40
USER: ADFR SOLUTION from run 105
USER: SCORE 20.920642 LL:  -5.901 LR: -17.284 RR:   0.000 FEB:  -9.230
USER: RMSD 11.698203
USER: SEED 104
USER: STATUS searching
USER: GENES 29
USER: genes 0 Translation |==|  0.54605 0.55331 0.55375
USER: genes 1 Rotation |==|  0.56463 0.45357 0.17506 0.87160
USER: genes 2 Torsion [C]-N--CA-[CB] |==|  0.79352
USER: genes 3 Torsion [N]-CA--C-[N] |==|  0.15597
USER: genes 4 Torsion [C]-N--CA-[C] |==|  0.15899
USER: genes 5 Torsion [N]-CA--C-[N] |==|  0.65331
USER: genes 6 Torsion [C]-N--CA-[C] |==|  0.17428
USER: genes 7 Torsion [N]-CA--C-[N] |==|  0.04452
USER: genes 8 Torsion [C]-N--CA-[C] |==|  0.48681
USER: genes 9 Torsion [N]-CA--C-[O] |==|  0.64320
USER: genes 10 Torsion [N]-CA--CB-[OG] |==|  0.06369
USER: genes 11 Torsion [CA]-CB--OG-[HG] |==|  0.78564
USER: genes 12 Torsion [N]-CA--CB-[CG] |==|  0.80005
USER: genes 13 Torsion [CA]-CB--CG-[CD2] |==|  0.34232
USER: genes 14 Torsion [N]-CA--CB-[CG] |==|  0.58555
USER: genes 15 Torsion [CA]-CB--CG-[CD2] |==|  0.03037
USER: genes 16 Torsion [N]-CA--CB-[OG1] |==|  0.06533
USER: genes 17 Torsion [CA]-CB--OG1-[HG1] |==|  0.61643
USER: genes 18 Torsion [N]-C--CA-[N] |==|  0.83037
USER: genes 19 Torsion [C]-CA--CB-[CG] |==|  0.27642
USER: genes 20 Torsion [CA]-CB--CG-[CD2] |==|  0.46985
USER: genes 21 Torsion [C]-CA--N-[C] |==|  0.20951
USER: genes 22 Torsion [N]-C--CA-[N] |==|  0.31140
USER: genes 23 Torsion [C]-CA--CB-[CG] |==|  0.37209
USER: genes 24 Torsion [CA]-CB--CG-[OD1] |==|  0.97164
USER: genes 25 Torsion [C]-CA--N-[C] |==|  0.82762
USER: genes 26 Torsion [N]-C--CA-[N] |==|  0.15732
USER: genes 27 Torsion [C]-CA--CB-[CG] |==|  0.39259
USER: genes 28 Torsion [CA]-CB--CG-[OD2] |==|  0.12742
ROOT
ATOM      1  C   TRP D 340      24.298  36.942  81.559  1.00 16.52 LIG 0.24  C 
ATOM      2 O    TRP D 340      24.779  37.766  82.342  1.00 16.60 LIG-0.27  OA
ATOM      3  N   THR D 341      24.456  37.013  80.244  1.00 13.22 LIG-0.34  N 
ATOM      4 H    THR D 341      24.127  36.432  79.701  1.00 13.22 LIG 0.16  HD
ENDROOT
BRANCH 3 5
ATOM      5  CA  THR D 341      25.197  38.074  79.578  1.00 12.53 LIG 0.20  C 
BRANCH 5 6
ATOM      6  C   THR D 341      26.546  38.286  80.263  1.00 12.10 LIG 0.24  C 
ATOM      7 O    THR D 341      26.860  39.383  80.722  1.00 10.92 LIG-0.27  OA
ATOM      8  N   HIS D 342      27.336  37.224  80.359  1.00 12.26 LIG-0.35  N 
ATOM      9 H    HIS D 342      27.126  36.439  80.077  1.00 12.26 LIG 0.16  HD
BRANCH 8 10
ATOM     10  CA  HIS D 342      28.657  37.318  80.970  1.00 12.78 LIG 0.18  C 
BRANCH 10 11
ATOM     11  C   HIS D 342      28.513  37.845  82.382  1.00 14.51 LIG 0.24  C 
ATOM     12  N   LEU D 343      29.217  38.931  82.693  1.00 15.48 LIG-0.35  N 
ATOM     13 H    LEU D 343      29.684  39.377  82.125  1.00 15.48 LIG 0.16  HD
ATOM     14 O    HIS D 342      27.753  37.277  83.187  1.00 16.02 LIG-0.27  OA
BRANCH 12 15
ATOM     15  CA  LEU D 343      29.252  39.467  84.055  1.00 16.72 LIG 0.18  C 
BRANCH 15 16
ATOM     16  C   LEU D 343      29.863  38.516  85.082  1.00 19.19 LIG 0.24  C 
ATOM     17  N   SER D 344      30.579  37.487  84.600  1.00 21.37 LIG-0.34  N 
ATOM     18 H    SER D 344      30.549  37.241  83.777  1.00 21.37 LIG 0.16  HD
ATOM     19 O    LEU D 343      29.697  38.716  86.274  1.00 19.56 LIG-0.27  OA
BRANCH 17 20
ATOM     20  CA  SER D 344      31.494  36.670  85.430  1.00 23.14 LIG 0.19  C 
BRANCH 20 21
ATOM     21  C   SER D 344      32.075  35.501  84.623  1.00 24.18 LIG 0.22  C 
ATOM     22 O    SER D 344      32.020  34.334  85.050  1.00 25.35 LIG-0.29  OA
ENDBRANCH 20 21
BRANCH 20 23
ATOM     23  CB  SER D 344      30.787  36.118  86.670  1.00 23.66 LIG 0.20  C 
BRANCH 23 24
ATOM     24 OG   SER D 344      29.373  36.060  86.477  1.00 25.03 LIG-0.40  OA
ATOM     25 HG   SER D 344      29.047  36.830  86.558  1.00 25.03 LIG 0.21  HD
ENDBRANCH 23 24
ENDBRANCH 20 23
ENDBRANCH 17 20
ENDBRANCH 15 16
BRANCH 15 26
ATOM     26  CB  LEU D 343      27.834  39.829  84.530  1.00 15.83 LIG 0.04  C 
BRANCH 26 27
ATOM     27  CG  LEU D 343      27.197  41.052  83.901  1.00 14.86 LIG-0.02  C 
ATOM     28  CD1 LEU D 343      28.147  41.667  82.885  1.00 12.95 LIG 0.01  C 
ATOM     29  CD2 LEU D 343      25.846  40.672  83.242  1.00 12.95 LIG 0.01  C 
ENDBRANCH 26 27
ENDBRANCH 15 26
ENDBRANCH 12 15
ENDBRANCH 10 11
BRANCH 10 30
ATOM     30  CB  HIS D 342      29.552  38.269  80.160  1.00 12.90 LIG 0.10  C 
BRANCH 30 31
ATOM     31  CG  HIS D 342      31.002  37.915  80.205  1.00 12.99 LIG 0.06  A 
ATOM     32  CD2 HIS D 342      31.620  36.803  80.671  1.00 12.88 LIG 0.14  A 
ATOM     33 NE2  HIS D 342      32.967  36.980  80.483  1.00 14.80 LIG-0.25  NA
ATOM     34  CE1 HIS D 342      33.176  38.157  79.928  1.00 13.21 LIG 0.23  A 
ATOM     35 ND1  HIS D 342      32.006  38.746  79.756  1.00 14.49 LIG-0.24  NA
ENDBRANCH 30 31
ENDBRANCH 10 30
ENDBRANCH 8 10
ENDBRANCH 5 6
BRANCH 5 36
ATOM     36  CB  THR D 341      24.383  39.389  79.575  1.00 12.70 LIG 0.15  C 
ATOM     37  CG2 THR D 341      23.652  39.599  78.235  1.00 14.15 LIG 0.04  C 
BRANCH 36 38
ATOM     38 OG1  THR D 341      23.438  39.358  80.653  1.00 14.08 LIG-0.39  OA
ATOM     39 HG1  THR D 341      22.702  39.664  80.389  1.00 14.08 LIG 0.21  HD
ENDBRANCH 36 38
ENDBRANCH 5 36
ENDBRANCH 3 5
BRANCH 1 40
ATOM     40  CA  TRP D 340      23.430  35.799  82.071  1.00 18.72 LIG 0.18  C 
BRANCH 40 41
ATOM     41  CB  TRP D 340      24.081  34.484  81.643  1.00 19.00 LIG 0.07  C 
BRANCH 41 42
ATOM     42  CG  TRP D 340      24.882  33.808  82.699  1.00 19.22 LIG-0.03  A 
ATOM     43  CD2 TRP D 340      25.409  32.485  82.644  1.00 20.18 LIG-0.00  A 
ATOM     44  CE3 TRP D 340      25.392  31.476  81.674  1.00 18.70 LIG 0.01  A 
ATOM     45  CE2 TRP D 340      26.063  32.244  83.874  1.00 18.84 LIG 0.04  A 
ATOM     46  CZ3 TRP D 340      26.020  30.266  81.958  1.00 20.55 LIG 0.00  A 
ATOM     47  CH2 TRP D 340      26.668  30.064  83.191  1.00 19.52 LIG 0.00  A 
ATOM     48  CZ2 TRP D 340      26.698  31.034  84.159  1.00 19.79 LIG 0.03  A 
ATOM     49  NE1 TRP D 340      25.940  33.376  84.638  1.00 21.77 LIG-0.36  N 
ATOM     50  CD1 TRP D 340      25.214  34.305  83.926  1.00 20.48 LIG 0.10  A 
ATOM     51 HE1  TRP D 340      26.262  33.487  85.428  1.00 21.77 LIG 0.17  HD
ENDBRANCH 41 42
ENDBRANCH 40 41
BRANCH 40 52
ATOM     52  N   TRP D 340      22.058  35.884  81.556  1.00 22.23 LIG-0.35  N 
ATOM     53  C   ASP D 339      21.737  35.560  80.304  1.00 26.49 LIG 0.24  C 
ATOM     54 O    ASP D 339      22.565  35.153  79.471  1.00 27.22 LIG-0.27  OA
ATOM     55 H    TRP D 340      21.486  36.160  82.134  1.00 22.23 LIG 0.16  HD
BRANCH 53 56
ATOM     56  CA  ASP D 339      20.262  35.719  79.917  1.00 29.46 LIG 0.19  C 
BRANCH 56 57
ATOM     57  CB  ASP D 339      19.748  34.406  79.321  1.00 30.27 LIG 0.15  C 
BRANCH 57 58
ATOM     58  CG  ASP D 339      18.389  33.981  79.884  1.00 32.94 LIG 0.17  C 
ATOM     59 OD1  ASP D 339      17.947  34.606  80.872  1.00 36.53 LIG-0.65  OA
ATOM     60 OD2  ASP D 339      17.770  33.023  79.358  1.00 35.99 LIG-0.65  OA
ENDBRANCH 57 58
ENDBRANCH 56 57
BRANCH 56 61
ATOM     61  N   ASP D 339      20.084  36.796  78.947  1.00 31.22 LIG-0.34  N 
ATOM     62  C   ASP D 338      20.383  38.069  79.196  1.00 32.92 LIG 0.26  C 
ATOM     63 O    ASP D 338      21.032  38.442  80.180  1.00 33.60 LIG-0.27  OA
ATOM     64 H    ASP D 339      19.766  36.529  78.194  1.00 31.22 LIG 0.16  HD
BRANCH 62 65
ATOM     65  CA  ASP D 338      19.894  39.076  78.155  1.00 33.82 LIG 0.41  C 
ATOM     66  N   ASP D 338      18.411  38.975  77.969  1.00 34.02 LIG 0.61  N 
BRANCH 65 67
ATOM     67  CB  ASP D 338      20.292  40.502  78.569  1.00 34.49 LIG 0.16  C 
BRANCH 67 68
ATOM     68  CG  ASP D 338      20.724  41.364  77.389  1.00 35.92 LIG 0.17  C 
ATOM     69 OD2  ASP D 338      20.023  41.347  76.358  1.00 39.23 LIG-0.65  OA
ATOM     70 OD1  ASP D 338      21.769  42.052  77.480  1.00 38.97 LIG-0.65  OA
ENDBRANCH 67 68
ENDBRANCH 65 67
ENDBRANCH 62 65
ENDBRANCH 56 61
ENDBRANCH 53 56
ENDBRANCH 40 52
ENDBRANCH 1 40
TORSDOF 27
ENDMDL
MODEL 41
USER: ADFR SOLUTION from run 8
USER: SCORE 21.311355 LL:  -5.460 LR: -17.246 RR:   0.000 FEB:  -9.192
USER: RMSD 3.089684
USER: SEED 957051
USER: STATUS 1 or 2 clusters left
USER: GENES 29
USER: genes 0 Translation |==|  0.55260 0.55210 0.54589
USER: genes 1 Rotation |==|  0.40695 0.61219 0.41241 0.97019
USER: genes 2 Torsion [C]-N--CA-[CB] |==|  0.24872
USER: genes 3 Torsion [N]-CA--C-[N] |==|  0.44348
USER: genes 4 Torsion [C]-N--CA-[C] |==|  0.74478
USER: genes 5 Torsion [N]-CA--C-[N] |==|  0.29092
USER: genes 6 Torsion [C]-N--CA-[C] |==|  0.76861
USER: genes 7 Torsion [N]-CA--C-[N] |==|  0.91496
USER: genes 8 Torsion [C]-N--CA-[C] |==|  0.20511
USER: genes 9 Torsion [N]-CA--C-[O] |==|  0.57760
USER: genes 10 Torsion [N]-CA--CB-[OG] |==|  0.85717
USER: genes 11 Torsion [CA]-CB--OG-[HG] |==|  0.60502
USER: genes 12 Torsion [N]-CA--CB-[CG] |==|  0.64660
USER: genes 13 Torsion [CA]-CB--CG-[CD2] |==|  0.86245
USER: genes 14 Torsion [N]-CA--CB-[CG] |==|  0.51003
USER: genes 15 Torsion [CA]-CB--CG-[CD2] |==|  0.02845
USER: genes 16 Torsion [N]-CA--CB-[OG1] |==|  0.34848
USER: genes 17 Torsion [CA]-CB--OG1-[HG1] |==|  0.85595
USER: genes 18 Torsion [N]-C--CA-[N] |==|  0.39444
USER: genes 19 Torsion [C]-CA--CB-[CG] |==|  0.42929
USER: genes 20 Torsion [CA]-CB--CG-[CD2] |==|  0.84729
USER: genes 21 Torsion [C]-CA--N-[C] |==|  0.80418
USER: genes 22 Torsion [N]-C--CA-[N] |==|  0.99764
USER: genes 23 Torsion [C]-CA--CB-[CG] |==|  0.26174
USER: genes 24 Torsion [CA]-CB--CG-[OD1] |==|  0.92171
USER: genes 25 Torsion [C]-CA--N-[C] |==|  0.79444
USER: genes 26 Torsion [N]-C--CA-[N] |==|  0.62762
USER: genes 27 Torsion [C]-CA--CB-[CG] |==|  0.79364
USER: genes 28 Torsion [CA]-CB--CG-[OD2] |==|  0.56705
ROOT
ATOM      1  C   TRP D 340      24.480  36.919  81.347  1.00 16.52 LIG 0.24  C 
ATOM      2 O    TRP D 340      24.291  38.077  81.726  1.00 16.60 LIG-0.27  OA
ATOM      3  N   THR D 341      23.775  36.348  80.378  1.00 13.22 LIG-0.34  N 
ATOM      4 H    THR D 341      23.916  35.544  80.110  1.00 13.22 LIG 0.16  HD
ENDROOT
BRANCH 3 5
ATOM      5  CA  THR D 341      22.694  37.016  79.668  1.00 12.53 LIG 0.20  C 
BRANCH 5 6
ATOM      6  C   THR D 341      21.632  36.001  79.249  1.00 12.10 LIG 0.24  C 
ATOM      7 O    THR D 341      21.887  34.799  79.197  1.00 10.92 LIG-0.27  OA
ATOM      8  N   HIS D 342      20.426  36.483  78.977  1.00 12.26 LIG-0.35  N 
ATOM      9 H    HIS D 342      20.212  37.314  79.039  1.00 12.26 LIG 0.16  HD
BRANCH 8 10
ATOM     10  CA  HIS D 342      19.343  35.607  78.542  1.00 12.78 LIG 0.18  C 
BRANCH 10 11
ATOM     11  C   HIS D 342      19.333  35.547  77.029  1.00 14.51 LIG 0.24  C 
ATOM     12  N   LEU D 343      19.807  34.437  76.469  1.00 15.48 LIG-0.35  N 
ATOM     13 H    LEU D 343      20.049  33.742  76.914  1.00 15.48 LIG 0.16  HD
ATOM     14 O    HIS D 342      18.883  36.500  76.368  1.00 16.02 LIG-0.27  OA
BRANCH 12 15
ATOM     15  CA  LEU D 343      19.958  34.305  75.018  1.00 16.72 LIG 0.18  C 
BRANCH 15 16
ATOM     16  C   LEU D 343      18.677  33.895  74.295  1.00 19.19 LIG 0.24  C 
ATOM     17  N   SER D 344      17.818  33.123  74.980  1.00 21.37 LIG-0.34  N 
ATOM     18 H    SER D 344      18.034  32.708  75.701  1.00 21.37 LIG 0.16  HD
ATOM     19 O    LEU D 343      18.471  34.277  73.154  1.00 19.56 LIG-0.27  OA
BRANCH 17 20
ATOM     20  CA  SER D 344      16.412  32.903  74.569  1.00 23.14 LIG 0.19  C 
BRANCH 20 21
ATOM     21  C   SER D 344      16.332  31.966  73.356  1.00 24.18 LIG 0.22  C 
ATOM     22 O    SER D 344      15.388  32.038  72.549  1.00 25.35 LIG-0.29  OA
ENDBRANCH 20 21
BRANCH 20 23
ATOM     23  CB  SER D 344      15.712  34.221  74.229  1.00 23.66 LIG 0.20  C 
BRANCH 23 24
ATOM     24 OG   SER D 344      15.868  35.177  75.279  1.00 25.03 LIG-0.40  OA
ATOM     25 HG   SER D 344      15.158  35.617  75.365  1.00 25.03 LIG 0.21  HD
ENDBRANCH 23 24
ENDBRANCH 20 23
ENDBRANCH 17 20
ENDBRANCH 15 16
BRANCH 15 26
ATOM     26  CB  LEU D 343      21.045  33.270  74.679  1.00 15.83 LIG 0.04  C 
BRANCH 26 27
ATOM     27  CG  LEU D 343      22.143  33.721  73.737  1.00 14.86 LIG-0.02  C 
ATOM     28  CD1 LEU D 343      23.020  32.538  73.358  1.00 12.95 LIG 0.01  C 
ATOM     29  CD2 LEU D 343      21.528  34.386  72.478  1.00 12.95 LIG 0.01  C 
ENDBRANCH 26 27
ENDBRANCH 15 26
ENDBRANCH 12 15
ENDBRANCH 10 11
BRANCH 10 30
ATOM     30  CB  HIS D 342      17.992  36.145  79.038  1.00 12.90 LIG 0.10  C 
BRANCH 30 31
ATOM     31  CG  HIS D 342      16.834  35.260  78.708  1.00 12.99 LIG 0.06  A 
ATOM     32  CD2 HIS D 342      16.807  33.998  78.215  1.00 12.88 LIG 0.14  A 
ATOM     33 NE2  HIS D 342      15.488  33.642  78.089  1.00 14.80 LIG-0.25  NA
ATOM     34  CE1 HIS D 342      14.729  34.646  78.482  1.00 13.21 LIG 0.23  A 
ATOM     35 ND1  HIS D 342      15.517  35.639  78.855  1.00 14.49 LIG-0.24  NA
ENDBRANCH 30 31
ENDBRANCH 10 30
ENDBRANCH 8 10
ENDBRANCH 5 6
BRANCH 5 36
ATOM     36  CB  THR D 341      23.238  37.768  78.430  1.00 12.70 LIG 0.15  C 
ATOM     37  CG2 THR D 341      24.748  37.530  78.243  1.00 14.15 LIG 0.04  C 
BRANCH 36 38
ATOM     38 OG1  THR D 341      22.521  37.334  77.266  1.00 14.08 LIG-0.39  OA
ATOM     39 HG1  THR D 341      22.535  36.495  77.226  1.00 14.08 LIG 0.21  HD
ENDBRANCH 36 38
ENDBRANCH 5 36
ENDBRANCH 3 5
BRANCH 1 40
ATOM     40  CA  TRP D 340      25.525  36.040  82.024  1.00 18.72 LIG 0.18  C 
BRANCH 40 41
ATOM     41  CB  TRP D 340      24.904  35.464  83.296  1.00 19.00 LIG 0.07  C 
BRANCH 41 42
ATOM     42  CG  TRP D 340      25.499  34.180  83.757  1.00 19.22 LIG-0.03  A 
ATOM     43  CD2 TRP D 340      25.631  32.985  82.990  1.00 20.18 LIG-0.00  A 
ATOM     44  CE3 TRP D 340      25.316  32.643  81.669  1.00 18.70 LIG 0.01  A 
ATOM     45  CE2 TRP D 340      26.211  32.009  83.832  1.00 18.84 LIG 0.04  A 
ATOM     46  CZ3 TRP D 340      25.583  31.348  81.233  1.00 20.55 LIG 0.00  A 
ATOM     47  CH2 TRP D 340      26.167  30.404  82.098  1.00 19.52 LIG 0.00  A 
ATOM     48  CZ2 TRP D 340      26.484  30.712  83.396  1.00 19.79 LIG 0.03  A 
ATOM     49  NE1 TRP D 340      26.424  32.590  85.056  1.00 21.77 LIG-0.36  N 
ATOM     50  CD1 TRP D 340      25.977  33.892  85.003  1.00 20.48 LIG 0.10  A 
ATOM     51 HE1  TRP D 340      26.776  32.207  85.740  1.00 21.77 LIG 0.17  HD
ENDBRANCH 41 42
ENDBRANCH 40 41
BRANCH 40 52
ATOM     52  N   TRP D 340      26.744  36.793  82.344  1.00 22.23 LIG-0.35  N 
ATOM     53  C   ASP D 339      27.592  37.221  81.410  1.00 26.49 LIG 0.24  C 
ATOM     54 O    ASP D 339      27.421  37.029  80.194  1.00 27.22 LIG-0.27  OA
ATOM     55 H    TRP D 340      26.858  36.930  83.185  1.00 22.23 LIG 0.16  HD
BRANCH 53 56
ATOM     56  CA  ASP D 339      28.827  37.979  81.909  1.00 29.46 LIG 0.19  C 
BRANCH 56 57
ATOM     57  CB  ASP D 339      30.092  37.238  81.469  1.00 30.27 LIG 0.15  C 
BRANCH 57 58
ATOM     58  CG  ASP D 339      30.671  37.764  80.152  1.00 32.94 LIG 0.17  C 
ATOM     59 OD1  ASP D 339      29.880  38.279  79.333  1.00 36.53 LIG-0.65  OA
ATOM     60 OD2  ASP D 339      31.902  37.653  79.926  1.00 35.99 LIG-0.65  OA
ENDBRANCH 57 58
ENDBRANCH 56 57
BRANCH 56 61
ATOM     61  N   ASP D 339      28.818  38.103  83.364  1.00 31.22 LIG-0.34  N 
ATOM     62  C   ASP D 338      28.016  38.934  84.028  1.00 32.92 LIG 0.26  C 
ATOM     63 O    ASP D 338      27.060  39.524  83.512  1.00 33.60 LIG-0.27  OA
ATOM     64 H    ASP D 339      29.383  37.586  83.755  1.00 31.22 LIG 0.16  HD
BRANCH 62 65
ATOM     65  CA  ASP D 338      28.328  39.103  85.515  1.00 33.82 LIG 0.41  C 
ATOM     66  N   ASP D 338      27.078  39.017  86.336  1.00 34.02 LIG 0.61  N 
BRANCH 65 67
ATOM     67  CB  ASP D 338      29.347  38.045  85.966  1.00 34.49 LIG 0.16  C 
BRANCH 67 68
ATOM     68  CG  ASP D 338      28.739  36.653  86.096  1.00 35.92 LIG 0.17  C 
ATOM     69 OD2  ASP D 338      29.292  35.836  86.859  1.00 39.23 LIG-0.65  OA
ATOM     70 OD1  ASP D 338      27.715  36.364  85.430  1.00 38.97 LIG-0.65  OA
ENDBRANCH 67 68
ENDBRANCH 65 67
ENDBRANCH 62 65
ENDBRANCH 56 61
ENDBRANCH 53 56
ENDBRANCH 40 52
ENDBRANCH 1 40
TORSDOF 27
ENDMDL
MODEL 42
USER: ADFR SOLUTION from run 42
USER: SCORE 22.268414 LL:  -5.243 LR: -17.254 RR:   0.000 FEB:  -9.199
USER: RMSD 11.710799
USER: SEED 41
USER: STATUS no improvement in best in 5 clusters for 5 generations
USER: GENES 29
USER: genes 0 Translation |==|  0.40296 0.49215 0.40879
USER: genes 1 Rotation |==|  0.89241 0.79179 0.43335 0.58019
USER: genes 2 Torsion [C]-N--CA-[CB] |==|  0.83319
USER: genes 3 Torsion [N]-CA--C-[N] |==|  0.38683
USER: genes 4 Torsion [C]-N--CA-[C] |==|  0.67503
USER: genes 5 Torsion [N]-CA--C-[N] |==|  0.41691
USER: genes 6 Torsion [C]-N--CA-[C] |==|  0.79304
USER: genes 7 Torsion [N]-CA--C-[N] |==|  0.44623
USER: genes 8 Torsion [C]-N--CA-[C] |==|  0.75857
USER: genes 9 Torsion [N]-CA--C-[O] |==|  0.07719
USER: genes 10 Torsion [N]-CA--CB-[OG] |==|  0.28562
USER: genes 11 Torsion [CA]-CB--OG-[HG] |==|  0.78652
USER: genes 12 Torsion [N]-CA--CB-[CG] |==|  0.62816
USER: genes 13 Torsion [CA]-CB--CG-[CD2] |==|  0.09020
USER: genes 14 Torsion [N]-CA--CB-[CG] |==|  0.62718
USER: genes 15 Torsion [CA]-CB--CG-[CD2] |==|  0.22015
USER: genes 16 Torsion [N]-CA--CB-[OG1] |==|  0.97299
USER: genes 17 Torsion [CA]-CB--OG1-[HG1] |==|  0.25917
USER: genes 18 Torsion [N]-C--CA-[N] |==|  0.02474
USER: genes 19 Torsion [C]-CA--CB-[CG] |==|  0.26620
USER: genes 20 Torsion [CA]-CB--CG-[CD2] |==|  0.99293
USER: genes 21 Torsion [C]-CA--N-[C] |==|  0.73741
USER: genes 22 Torsion [N]-C--CA-[N] |==|  0.90952
USER: genes 23 Torsion [C]-CA--CB-[CG] |==|  0.79586
USER: genes 24 Torsion [CA]-CB--CG-[OD1] |==|  0.80681
USER: genes 25 Torsion [C]-CA--N-[C] |==|  0.83158
USER: genes 26 Torsion [N]-C--CA-[N] |==|  0.64805
USER: genes 27 Torsion [C]-CA--CB-[CG] |==|  0.75157
USER: genes 28 Torsion [CA]-CB--CG-[OD2] |==|  0.09885
ROOT
ATOM      1  C   TRP D 340      20.327  35.750  77.645  1.00 16.52 LIG 0.24  C 
ATOM      2 O    TRP D 340      20.862  34.644  77.538  1.00 16.60 LIG-0.27  OA
ATOM      3  N   THR D 341      20.110  36.340  78.813  1.00 13.22 LIG-0.34  N 
ATOM      4 H    THR D 341      19.745  37.116  78.884  1.00 13.22 LIG 0.16  HD
ENDROOT
BRANCH 3 5
ATOM      5  CA  THR D 341      20.461  35.745  80.094  1.00 12.53 LIG 0.20  C 
BRANCH 5 6
ATOM      6  C   THR D 341      21.972  35.535  80.182  1.00 12.10 LIG 0.24  C 
ATOM      7 O    THR D 341      22.618  35.153  79.208  1.00 10.92 LIG-0.27  OA
ATOM      8  N   HIS D 342      22.542  35.814  81.347  1.00 12.26 LIG-0.35  N 
ATOM      9 H    HIS D 342      22.120  36.115  82.033  1.00 12.26 LIG 0.16  HD
BRANCH 8 10
ATOM     10  CA  HIS D 342      23.975  35.624  81.551  1.00 12.78 LIG 0.18  C 
BRANCH 10 11
ATOM     11  C   HIS D 342      24.188  34.576  82.623  1.00 14.51 LIG 0.24  C 
ATOM     12  N   LEU D 343      25.294  33.842  82.535  1.00 15.48 LIG-0.35  N 
ATOM     13 H    LEU D 343      25.912  33.977  81.952  1.00 15.48 LIG 0.16  HD
ATOM     14 O    HIS D 342      23.356  34.442  83.539  1.00 16.02 LIG-0.27  OA
BRANCH 12 15
ATOM     15  CA  LEU D 343      25.554  32.722  83.442  1.00 16.72 LIG 0.18  C 
BRANCH 15 16
ATOM     16  C   LEU D 343      25.962  33.146  84.851  1.00 19.19 LIG 0.24  C 
ATOM     17  N   SER D 344      25.827  32.226  85.820  1.00 21.37 LIG-0.34  N 
ATOM     18 H    SER D 344      25.362  31.509  85.724  1.00 21.37 LIG 0.16  HD
ATOM     19 O    LEU D 343      26.396  34.269  85.050  1.00 19.56 LIG-0.27  OA
BRANCH 17 20
ATOM     20  CA  SER D 344      26.462  32.346  87.153  1.00 23.14 LIG 0.19  C 
BRANCH 20 21
ATOM     21  C   SER D 344      27.886  31.773  87.140  1.00 24.18 LIG 0.22  C 
ATOM     22 O    SER D 344      28.565  31.761  86.098  1.00 25.35 LIG-0.29  OA
ENDBRANCH 20 21
BRANCH 20 23
ATOM     23  CB  SER D 344      25.646  31.630  88.232  1.00 23.66 LIG 0.20  C 
BRANCH 23 24
ATOM     24 OG   SER D 344      26.235  30.377  88.581  1.00 25.03 LIG-0.40  OA
ATOM     25 HG   SER D 344      26.066  29.811  87.984  1.00 25.03 LIG 0.21  HD
ENDBRANCH 23 24
ENDBRANCH 20 23
ENDBRANCH 17 20
ENDBRANCH 15 16
BRANCH 15 26
ATOM     26  CB  LEU D 343      26.665  31.818  82.879  1.00 15.83 LIG 0.04  C 
BRANCH 26 27
ATOM     27  CG  LEU D 343      26.408  30.325  82.913  1.00 14.86 LIG-0.02  C 
ATOM     28  CD1 LEU D 343      26.925  29.739  84.218  1.00 12.95 LIG 0.01  C 
ATOM     29  CD2 LEU D 343      24.895  30.038  82.733  1.00 12.95 LIG 0.01  C 
ENDBRANCH 26 27
ENDBRANCH 15 26
ENDBRANCH 12 15
ENDBRANCH 10 11
BRANCH 10 30
ATOM     30  CB  HIS D 342      24.628  36.943  81.992  1.00 12.90 LIG 0.10  C 
BRANCH 30 31
ATOM     31  CG  HIS D 342      25.897  37.258  81.268  1.00 12.99 LIG 0.06  A 
ATOM     32  CD2 HIS D 342      26.096  37.778  80.033  1.00 12.88 LIG 0.14  A 
ATOM     33 NE2  HIS D 342      27.452  37.864  79.845  1.00 14.80 LIG-0.25  NA
ATOM     34  CE1 HIS D 342      28.068  37.409  80.918  1.00 13.21 LIG 0.23  A 
ATOM     35 ND1  HIS D 342      27.152  37.030  81.791  1.00 14.49 LIG-0.24  NA
ENDBRANCH 30 31
ENDBRANCH 10 30
ENDBRANCH 8 10
ENDBRANCH 5 6
BRANCH 5 36
ATOM     36  CB  THR D 341      19.719  34.403  80.294  1.00 12.70 LIG 0.15  C 
ATOM     37  CG2 THR D 341      19.050  34.327  81.679  1.00 14.15 LIG 0.04  C 
BRANCH 36 38
ATOM     38 OG1  THR D 341      18.734  34.254  79.262  1.00 14.08 LIG-0.39  OA
ATOM     39 HG1  THR D 341      19.063  33.822  78.622  1.00 14.08 LIG 0.21  HD
ENDBRANCH 36 38
ENDBRANCH 5 36
ENDBRANCH 3 5
BRANCH 1 40
ATOM     40  CA  TRP D 340      19.827  36.494  76.413  1.00 18.72 LIG 0.18  C 
BRANCH 40 41
ATOM     41  CB  TRP D 340      20.968  36.547  75.398  1.00 19.00 LIG 0.07  C 
BRANCH 41 42
ATOM     42  CG  TRP D 340      20.937  35.477  74.364  1.00 19.22 LIG-0.03  A 
ATOM     43  CD2 TRP D 340      19.992  34.413  74.276  1.00 20.18 LIG-0.00  A 
ATOM     44  CE3 TRP D 340      18.865  34.056  75.026  1.00 18.70 LIG 0.01  A 
ATOM     45  CE2 TRP D 340      20.362  33.615  73.170  1.00 18.84 LIG 0.04  A 
ATOM     46  CZ3 TRP D 340      18.149  32.919  74.655  1.00 20.55 LIG 0.00  A 
ATOM     47  CH2 TRP D 340      18.544  32.152  73.544  1.00 19.52 LIG 0.00  A 
ATOM     48  CZ2 TRP D 340      19.644  32.479  72.794  1.00 19.79 LIG 0.03  A 
ATOM     49  NE1 TRP D 340      21.482  34.175  72.611  1.00 21.77 LIG-0.36  N 
ATOM     50  CD1 TRP D 340      21.827  35.287  73.347  1.00 20.48 LIG 0.10  A 
ATOM     51 HE1  TRP D 340      21.899  33.882  71.918  1.00 21.77 LIG 0.17  HD
ENDBRANCH 41 42
ENDBRANCH 40 41
BRANCH 40 52
ATOM     52  N   TRP D 340      19.372  37.850  76.743  1.00 22.23 LIG-0.35  N 
ATOM     53  C   ASP D 339      18.097  38.139  77.003  1.00 26.49 LIG 0.24  C 
ATOM     54 O    ASP D 339      17.190  37.289  76.996  1.00 27.22 LIG-0.27  OA
ATOM     55 H    TRP D 340      20.001  38.435  76.754  1.00 22.23 LIG 0.16  HD
BRANCH 53 56
ATOM     56  CA  ASP D 339      17.782  39.606  77.316  1.00 29.46 LIG 0.19  C 
BRANCH 56 57
ATOM     57  CB  ASP D 339      17.488  40.353  76.012  1.00 30.27 LIG 0.15  C 
BRANCH 57 58
ATOM     58  CG  ASP D 339      18.742  40.616  75.173  1.00 32.94 LIG 0.17  C 
ATOM     59 OD1  ASP D 339      19.571  41.443  75.608  1.00 36.53 LIG-0.65  OA
ATOM     60 OD2  ASP D 339      18.895  40.015  74.080  1.00 35.99 LIG-0.65  OA
ENDBRANCH 57 58
ENDBRANCH 56 57
BRANCH 56 61
ATOM     61  N   ASP D 339      18.898  40.250  78.003  1.00 31.22 LIG-0.34  N 
ATOM     62  C   ASP D 338      19.368  39.848  79.182  1.00 32.92 LIG 0.26  C 
ATOM     63 O    ASP D 338      19.060  38.775  79.714  1.00 33.60 LIG-0.27  OA
ATOM     64 H    ASP D 339      19.226  40.918  77.572  1.00 31.22 LIG 0.16  HD
BRANCH 62 65
ATOM     65  CA  ASP D 338      20.364  40.794  79.852  1.00 33.82 LIG 0.41  C 
ATOM     66  N   ASP D 338      21.626  40.072  80.215  1.00 34.02 LIG 0.61  N 
BRANCH 65 67
ATOM     67  CB  ASP D 338      20.667  41.985  78.928  1.00 34.49 LIG 0.16  C 
BRANCH 67 68
ATOM     68  CG  ASP D 338      21.840  41.725  77.990  1.00 35.92 LIG 0.17  C 
ATOM     69 OD2  ASP D 338      21.991  40.572  77.540  1.00 39.23 LIG-0.65  OA
ATOM     70 OD1  ASP D 338      22.621  42.665  77.706  1.00 38.97 LIG-0.65  OA
ENDBRANCH 67 68
ENDBRANCH 65 67
ENDBRANCH 62 65
ENDBRANCH 56 61
ENDBRANCH 53 56
ENDBRANCH 40 52
ENDBRANCH 1 40
TORSDOF 27
ENDMDL
MODEL 43
USER: ADFR SOLUTION from run 54
USER: SCORE 20.436406 LL:  -5.485 LR: -17.235 RR:   0.000 FEB:  -9.181
USER: RMSD 5.181856
USER: SEED 53
USER: STATUS no improvement in best in 4 clusters for 5 generations
USER: GENES 29
USER: genes 0 Translation |==|  0.52623 0.44786 0.55545
USER: genes 1 Rotation |==|  0.66873 0.54245 0.76815 0.88448
USER: genes 2 Torsion [C]-N--CA-[CB] |==|  0.21482
USER: genes 3 Torsion [N]-CA--C-[N] |==|  0.42014
USER: genes 4 Torsion [C]-N--CA-[C] |==|  0.64522
USER: genes 5 Torsion [N]-CA--C-[N] |==|  0.90858
USER: genes 6 Torsion [C]-N--CA-[C] |==|  0.59165
USER: genes 7 Torsion [N]-CA--C-[N] |==|  0.40000
USER: genes 8 Torsion [C]-N--CA-[C] |==|  0.81266
USER: genes 9 Torsion [N]-CA--C-[O] |==|  0.27891
USER: genes 10 Torsion [N]-CA--CB-[OG] |==|  0.88750
USER: genes 11 Torsion [CA]-CB--OG-[HG] |==|  0.98803
USER: genes 12 Torsion [N]-CA--CB-[CG] |==|  0.65163
USER: genes 13 Torsion [CA]-CB--CG-[CD2] |==|  0.08306
USER: genes 14 Torsion [N]-CA--CB-[CG] |==|  0.39730
USER: genes 15 Torsion [CA]-CB--CG-[CD2] |==|  0.24960
USER: genes 16 Torsion [N]-CA--CB-[OG1] |==|  0.03606
USER: genes 17 Torsion [CA]-CB--OG1-[HG1] |==|  0.64958
USER: genes 18 Torsion [N]-C--CA-[N] |==|  0.07693
USER: genes 19 Torsion [C]-CA--CB-[CG] |==|  0.25463
USER: genes 20 Torsion [CA]-CB--CG-[CD2] |==|  0.98060
USER: genes 21 Torsion [C]-CA--N-[C] |==|  0.17291
USER: genes 22 Torsion [N]-C--CA-[N] |==|  0.83893
USER: genes 23 Torsion [C]-CA--CB-[CG] |==|  0.24938
USER: genes 24 Torsion [CA]-CB--CG-[OD1] |==|  0.78431
USER: genes 25 Torsion [C]-CA--N-[C] |==|  0.20833
USER: genes 26 Torsion [N]-C--CA-[N] |==|  0.62338
USER: genes 27 Torsion [C]-CA--CB-[CG] |==|  0.80812
USER: genes 28 Torsion [CA]-CB--CG-[OD2] |==|  0.38204
ROOT
ATOM      1  C   TRP D 340      23.748  34.886  81.605  1.00 16.52 LIG 0.24  C 
ATOM      2 O    TRP D 340      23.083  34.133  82.320  1.00 16.60 LIG-0.27  OA
ATOM      3  N   THR D 341      23.298  35.385  80.461  1.00 13.22 LIG-0.34  N 
ATOM      4 H    THR D 341      23.760  35.918  79.969  1.00 13.22 LIG 0.16  HD
ENDROOT
BRANCH 3 5
ATOM      5  CA  THR D 341      21.981  35.089  79.916  1.00 12.53 LIG 0.20  C 
BRANCH 5 6
ATOM      6  C   THR D 341      21.949  35.397  78.420  1.00 12.10 LIG 0.24  C 
ATOM      7 O    THR D 341      22.688  36.249  77.930  1.00 10.92 LIG-0.27  OA
ATOM      8  N   HIS D 342      21.109  34.679  77.685  1.00 12.26 LIG-0.35  N 
ATOM      9 H    HIS D 342      20.606  34.054  77.996  1.00 12.26 LIG 0.16  HD
BRANCH 8 10
ATOM     10  CA  HIS D 342      20.976  34.907  76.249  1.00 12.78 LIG 0.18  C 
BRANCH 10 11
ATOM     11  C   HIS D 342      19.513  35.105  75.913  1.00 14.51 LIG 0.24  C 
ATOM     12  N   LEU D 343      18.631  34.430  76.645  1.00 15.48 LIG-0.35  N 
ATOM     13 H    LEU D 343      18.843  33.951  77.327  1.00 15.48 LIG 0.16  HD
ATOM     14 O    HIS D 342      19.182  35.882  74.999  1.00 16.02 LIG-0.27  OA
BRANCH 12 15
ATOM     15  CA  LEU D 343      17.198  34.447  76.342  1.00 16.72 LIG 0.18  C 
BRANCH 15 16
ATOM     16  C   LEU D 343      16.302  34.351  77.574  1.00 19.19 LIG 0.24  C 
ATOM     17  N   SER D 344      15.159  35.056  77.546  1.00 21.37 LIG-0.34  N 
ATOM     18 H    SER D 344      15.009  35.682  76.975  1.00 21.37 LIG 0.16  HD
ATOM     19 O    LEU D 343      16.632  33.650  78.516  1.00 19.56 LIG-0.27  OA
BRANCH 17 20
ATOM     20  CA  SER D 344      14.039  34.833  78.489  1.00 23.14 LIG 0.19  C 
BRANCH 20 21
ATOM     21  C   SER D 344      13.382  33.466  78.253  1.00 24.18 LIG 0.22  C 
ATOM     22 O    SER D 344      13.645  32.492  78.980  1.00 25.35 LIG-0.29  OA
ENDBRANCH 20 21
BRANCH 20 23
ATOM     23  CB  SER D 344      12.974  35.926  78.367  1.00 23.66 LIG 0.20  C 
BRANCH 23 24
ATOM     24 OG   SER D 344      13.570  37.214  78.199  1.00 25.03 LIG-0.40  OA
ATOM     25 HG   SER D 344      14.405  37.146  78.257  1.00 25.03 LIG 0.21  HD
ENDBRANCH 23 24
ENDBRANCH 20 23
ENDBRANCH 17 20
ENDBRANCH 15 16
BRANCH 15 26
ATOM     26  CB  LEU D 343      16.831  33.290  75.397  1.00 15.83 LIG 0.04  C 
BRANCH 26 27
ATOM     27  CG  LEU D 343      16.111  33.660  74.116  1.00 14.86 LIG-0.02  C 
ATOM     28  CD1 LEU D 343      14.607  33.573  74.322  1.00 12.95 LIG 0.01  C 
ATOM     29  CD2 LEU D 343      16.531  35.080  73.658  1.00 12.95 LIG 0.01  C 
ENDBRANCH 26 27
ENDBRANCH 15 26
ENDBRANCH 12 15
ENDBRANCH 10 11
BRANCH 10 30
ATOM     30  CB  HIS D 342      21.519  33.701  75.467  1.00 12.90 LIG 0.10  C 
BRANCH 30 31
ATOM     31  CG  HIS D 342      20.738  33.382  74.235  1.00 12.99 LIG 0.06  A 
ATOM     32  CD2 HIS D 342      20.884  33.826  72.963  1.00 12.88 LIG 0.14  A 
ATOM     33 NE2  HIS D 342      19.905  33.228  72.211  1.00 14.80 LIG-0.25  NA
ATOM     34  CE1 HIS D 342      19.177  32.450  72.988  1.00 13.21 LIG 0.23  A 
ATOM     35 ND1  HIS D 342      19.654  32.529  74.217  1.00 14.49 LIG-0.24  NA
ENDBRANCH 30 31
ENDBRANCH 10 30
ENDBRANCH 8 10
ENDBRANCH 5 6
BRANCH 5 36
ATOM     36  CB  THR D 341      20.890  35.898  80.655  1.00 12.70 LIG 0.15  C 
ATOM     37  CG2 THR D 341      20.023  34.992  81.549  1.00 14.15 LIG 0.04  C 
BRANCH 36 38
ATOM     38 OG1  THR D 341      21.516  36.917  81.445  1.00 14.08 LIG-0.39  OA
ATOM     39 HG1  THR D 341      21.254  36.856  82.240  1.00 14.08 LIG 0.21  HD
ENDBRANCH 36 38
ENDBRANCH 5 36
ENDBRANCH 3 5
BRANCH 1 40
ATOM     40  CA  TRP D 340      25.179  35.252  81.981  1.00 18.72 LIG 0.18  C 
BRANCH 40 41
ATOM     41  CB  TRP D 340      25.271  35.292  83.505  1.00 19.00 LIG 0.07  C 
BRANCH 41 42
ATOM     42  CG  TRP D 340      25.678  34.010  84.142  1.00 19.22 LIG-0.03  A 
ATOM     43  CD2 TRP D 340      25.844  32.755  83.486  1.00 20.18 LIG-0.00  A 
ATOM     44  CE3 TRP D 340      25.729  32.336  82.155  1.00 18.70 LIG 0.01  A 
ATOM     45  CE2 TRP D 340      26.195  31.809  84.476  1.00 18.84 LIG 0.04  A 
ATOM     46  CZ3 TRP D 340      25.964  30.996  81.854  1.00 20.55 LIG 0.00  A 
ATOM     47  CH2 TRP D 340      26.319  30.084  82.865  1.00 19.52 LIG 0.00  A 
ATOM     48  CZ2 TRP D 340      26.435  30.467  84.176  1.00 19.79 LIG 0.03  A 
ATOM     49  NE1 TRP D 340      26.243  32.465  85.679  1.00 21.77 LIG-0.36  N 
ATOM     50  CD1 TRP D 340      25.915  33.786  85.467  1.00 20.48 LIG 0.10  A 
ATOM     51 HE1  TRP D 340      26.444  32.112  86.437  1.00 21.77 LIG 0.17  HD
ENDBRANCH 41 42
ENDBRANCH 40 41
BRANCH 40 52
ATOM     52  N   TRP D 340      25.579  36.543  81.409  1.00 22.23 LIG-0.35  N 
ATOM     53  C   ASP D 339      24.973  37.688  81.720  1.00 26.49 LIG 0.24  C 
ATOM     54 O    ASP D 339      24.028  37.763  82.524  1.00 27.22 LIG-0.27  OA
ATOM     55 H    TRP D 340      26.236  36.491  80.858  1.00 22.23 LIG 0.16  HD
BRANCH 53 56
ATOM     56  CA  ASP D 339      25.500  38.948  81.024  1.00 29.46 LIG 0.19  C 
BRANCH 56 57
ATOM     57  CB  ASP D 339      25.284  38.824  79.514  1.00 30.27 LIG 0.15  C 
BRANCH 57 58
ATOM     58  CG  ASP D 339      23.930  39.373  79.053  1.00 32.94 LIG 0.17  C 
ATOM     59 OD1  ASP D 339      22.919  38.665  79.245  1.00 36.53 LIG-0.65  OA
ATOM     60 OD2  ASP D 339      23.874  40.495  78.489  1.00 35.99 LIG-0.65  OA
ENDBRANCH 57 58
ENDBRANCH 56 57
BRANCH 56 61
ATOM     61  N   ASP D 339      26.921  39.146  81.296  1.00 31.22 LIG-0.34  N 
ATOM     62  C   ASP D 338      27.887  38.426  80.729  1.00 32.92 LIG 0.26  C 
ATOM     63 O    ASP D 338      27.706  37.672  79.767  1.00 33.60 LIG-0.27  OA
ATOM     64 H    ASP D 339      27.077  39.775  81.862  1.00 31.22 LIG 0.16  HD
BRANCH 62 65
ATOM     65  CA  ASP D 338      29.282  38.610  81.326  1.00 33.82 LIG 0.41  C 
ATOM     66  N   ASP D 338      30.311  38.748  80.245  1.00 34.02 LIG 0.61  N 
BRANCH 65 67
ATOM     67  CB  ASP D 338      29.305  39.834  82.255  1.00 34.49 LIG 0.16  C 
BRANCH 67 68
ATOM     68  CG  ASP D 338      29.162  41.152  81.504  1.00 35.92 LIG 0.17  C 
ATOM     69 OD2  ASP D 338      28.414  42.026  81.984  1.00 39.23 LIG-0.65  OA
ATOM     70 OD1  ASP D 338      29.784  41.317  80.427  1.00 38.97 LIG-0.65  OA
ENDBRANCH 67 68
ENDBRANCH 65 67
ENDBRANCH 62 65
ENDBRANCH 56 61
ENDBRANCH 53 56
ENDBRANCH 40 52
ENDBRANCH 1 40
TORSDOF 27
ENDMDL
MODEL 44
USER: ADFR SOLUTION from run 32
USER: SCORE 21.283385 LL:  -5.802 LR: -17.233 RR:   0.000 FEB:  -9.179
USER: RMSD 12.051399
USER: SEED 31
USER: STATUS no improvement in best in 8 clusters for 5 generations
USER: GENES 29
USER: genes 0 Translation |==|  0.43198 0.46030 0.44555
USER: genes 1 Rotation |==|  0.33647 0.04751 0.60931 0.58104
USER: genes 2 Torsion [C]-N--CA-[CB] |==|  0.29983
USER: genes 3 Torsion [N]-CA--C-[N] |==|  0.37234
USER: genes 4 Torsion [C]-N--CA-[C] |==|  0.84326
USER: genes 5 Torsion [N]-CA--C-[N] |==|  0.40226
USER: genes 6 Torsion [C]-N--CA-[C] |==|  0.17221
USER: genes 7 Torsion [N]-CA--C-[N] |==|  0.07676
USER: genes 8 Torsion [C]-N--CA-[C] |==|  0.17220
USER: genes 9 Torsion [N]-CA--C-[O] |==|  0.08723
USER: genes 10 Torsion [N]-CA--CB-[OG] |==|  0.85179
USER: genes 11 Torsion [CA]-CB--OG-[HG] |==|  0.68288
USER: genes 12 Torsion [N]-CA--CB-[CG] |==|  0.77648
USER: genes 13 Torsion [CA]-CB--CG-[CD2] |==|  0.94518
USER: genes 14 Torsion [N]-CA--CB-[CG] |==|  0.49153
USER: genes 15 Torsion [CA]-CB--CG-[CD2] |==|  0.24194
USER: genes 16 Torsion [N]-CA--CB-[OG1] |==|  0.70041
USER: genes 17 Torsion [CA]-CB--OG1-[HG1] |==|  0.82755
USER: genes 18 Torsion [N]-C--CA-[N] |==|  0.05990
USER: genes 19 Torsion [C]-CA--CB-[CG] |==|  0.27571
USER: genes 20 Torsion [CA]-CB--CG-[CD2] |==|  0.71379
USER: genes 21 Torsion [C]-CA--N-[C] |==|  0.69104
USER: genes 22 Torsion [N]-C--CA-[N] |==|  0.28974
USER: genes 23 Torsion [C]-CA--CB-[CG] |==|  0.80190
USER: genes 24 Torsion [CA]-CB--CG-[OD1] |==|  0.80382
USER: genes 25 Torsion [C]-CA--N-[C] |==|  0.76632
USER: genes 26 Torsion [N]-C--CA-[N] |==|  0.53626
USER: genes 27 Torsion [C]-CA--CB-[CG] |==|  0.82646
USER: genes 28 Torsion [CA]-CB--CG-[OD2] |==|  0.93700
ROOT
ATOM      1  C   TRP D 340      21.132  35.129  78.638  1.00 16.52 LIG 0.24  C 
ATOM      2 O    TRP D 340      21.880  35.013  77.664  1.00 16.60 LIG-0.27  OA
ATOM      3  N   THR D 341      21.575  35.325  79.873  1.00 13.22 LIG-0.34  N 
ATOM      4 H    THR D 341      21.050  35.415  80.549  1.00 13.22 LIG 0.16  HD
ENDROOT
BRANCH 3 5
ATOM      5  CA  THR D 341      22.986  35.408  80.220  1.00 12.53 LIG 0.20  C 
BRANCH 5 6
ATOM      6  C   THR D 341      23.298  34.476  81.389  1.00 12.10 LIG 0.24  C 
ATOM      7 O    THR D 341      22.560  34.420  82.371  1.00 10.92 LIG-0.27  OA
ATOM      8  N   HIS D 342      24.382  33.719  81.272  1.00 12.26 LIG-0.35  N 
ATOM      9 H    HIS D 342      24.896  33.714  80.582  1.00 12.26 LIG 0.16  HD
BRANCH 8 10
ATOM     10  CA  HIS D 342      24.789  32.812  82.340  1.00 12.78 LIG 0.18  C 
BRANCH 10 11
ATOM     11  C   HIS D 342      24.965  33.601  83.620  1.00 14.51 LIG 0.24  C 
ATOM     12  N   LEU D 343      24.626  32.992  84.753  1.00 15.48 LIG-0.35  N 
ATOM     13 H    LEU D 343      24.383  32.169  84.799  1.00 15.48 LIG 0.16  HD
ATOM     14 O    HIS D 342      25.421  34.758  83.582  1.00 16.02 LIG-0.27  OA
BRANCH 12 15
ATOM     15  CA  LEU D 343      24.640  33.689  86.041  1.00 16.72 LIG 0.18  C 
BRANCH 15 16
ATOM     16  C   LEU D 343      23.675  34.869  86.119  1.00 19.19 LIG 0.24  C 
ATOM     17  N   SER D 344      22.583  34.809  85.339  1.00 21.37 LIG-0.34  N 
ATOM     18 H    SER D 344      22.504  34.255  84.686  1.00 21.37 LIG 0.16  HD
ATOM     19 O    LEU D 343      23.908  35.801  86.872  1.00 19.56 LIG-0.27  OA
BRANCH 17 20
ATOM     20  CA  SER D 344      21.402  35.685  85.519  1.00 23.14 LIG 0.19  C 
BRANCH 20 21
ATOM     21  C   SER D 344      21.775  37.161  85.325  1.00 24.18 LIG 0.22  C 
ATOM     22 O    SER D 344      22.679  37.498  84.540  1.00 25.35 LIG-0.29  OA
ENDBRANCH 20 21
BRANCH 20 23
ATOM     23  CB  SER D 344      20.774  35.506  86.903  1.00 23.66 LIG 0.20  C 
BRANCH 23 24
ATOM     24 OG   SER D 344      20.483  34.132  87.167  1.00 25.03 LIG-0.40  OA
ATOM     25 HG   SER D 344      19.652  34.028  87.223  1.00 25.03 LIG 0.21  HD
ENDBRANCH 23 24
ENDBRANCH 20 23
ENDBRANCH 17 20
ENDBRANCH 15 16
BRANCH 15 26
ATOM     26  CB  LEU D 343      26.053  34.212  86.357  1.00 15.83 LIG 0.04  C 
BRANCH 26 27
ATOM     27  CG  LEU D 343      27.038  33.208  86.922  1.00 14.86 LIG-0.02  C 
ATOM     28  CD1 LEU D 343      27.915  33.875  87.969  1.00 12.95 LIG 0.01  C 
ATOM     29  CD2 LEU D 343      26.281  31.993  87.518  1.00 12.95 LIG 0.01  C 
ENDBRANCH 26 27
ENDBRANCH 15 26
ENDBRANCH 12 15
ENDBRANCH 10 11
BRANCH 10 30
ATOM     30  CB  HIS D 342      26.116  32.127  81.978  1.00 12.90 LIG 0.10  C 
BRANCH 30 31
ATOM     31  CG  HIS D 342      26.644  31.233  83.052  1.00 12.99 LIG 0.06  A 
ATOM     32  CD2 HIS D 342      26.393  29.926  83.308  1.00 12.88 LIG 0.14  A 
ATOM     33 NE2  HIS D 342      27.130  29.582  84.413  1.00 14.80 LIG-0.25  NA
ATOM     34  CE1 HIS D 342      27.805  30.635  84.828  1.00 13.21 LIG 0.23  A 
ATOM     35 ND1  HIS D 342      27.525  31.648  84.028  1.00 14.49 LIG-0.24  NA
ENDBRANCH 30 31
ENDBRANCH 10 30
ENDBRANCH 8 10
ENDBRANCH 5 6
BRANCH 5 36
ATOM     36  CB  THR D 341      23.376  36.862  80.572  1.00 12.70 LIG 0.15  C 
ATOM     37  CG2 THR D 341      24.145  36.934  81.905  1.00 14.15 LIG 0.04  C 
BRANCH 36 38
ATOM     38 OG1  THR D 341      24.176  37.403  79.512  1.00 14.08 LIG-0.39  OA
ATOM     39 HG1  THR D 341      24.883  36.957  79.439  1.00 14.08 LIG 0.21  HD
ENDBRANCH 36 38
ENDBRANCH 5 36
ENDBRANCH 3 5
BRANCH 1 40
ATOM     40  CA  TRP D 340      19.622  34.998  78.478  1.00 18.72 LIG 0.18  C 
BRANCH 40 41
ATOM     41  CB  TRP D 340      19.226  35.675  77.167  1.00 19.00 LIG 0.07  C 
BRANCH 41 42
ATOM     42  CG  TRP D 340      19.024  34.748  76.020  1.00 19.22 LIG-0.03  A 
ATOM     43  CD2 TRP D 340      19.931  34.525  74.942  1.00 20.18 LIG-0.00  A 
ATOM     44  CE3 TRP D 340      21.204  35.017  74.632  1.00 18.70 LIG 0.01  A 
ATOM     45  CE2 TRP D 340      19.319  33.602  74.065  1.00 18.84 LIG 0.04  A 
ATOM     46  CZ3 TRP D 340      21.823  34.579  73.463  1.00 20.55 LIG 0.00  A 
ATOM     47  CH2 TRP D 340      21.186  33.653  72.616  1.00 19.52 LIG 0.00  A 
ATOM     48  CZ2 TRP D 340      19.938  33.158  72.895  1.00 19.79 LIG 0.03  A 
ATOM     49  NE1 TRP D 340      18.095  33.277  74.591  1.00 21.77 LIG-0.36  N 
ATOM     50  CD1 TRP D 340      17.922  33.985  75.760  1.00 20.48 LIG 0.10  A 
ATOM     51 HE1  TRP D 340      17.531  32.725  74.250  1.00 21.77 LIG 0.17  HD
ENDBRANCH 41 42
ENDBRANCH 40 41
BRANCH 40 52
ATOM     52  N   TRP D 340      18.901  35.602  79.605  1.00 22.23 LIG-0.35  N 
ATOM     53  C   ASP D 339      18.220  34.881  80.494  1.00 26.49 LIG 0.24  C 
ATOM     54 O    ASP D 339      18.143  33.641  80.451  1.00 27.22 LIG-0.27  OA
ATOM     55 H    TRP D 340      18.961  36.458  79.637  1.00 22.23 LIG 0.16  HD
BRANCH 53 56
ATOM     56  CA  ASP D 339      17.509  35.664  81.603  1.00 29.46 LIG 0.19  C 
BRANCH 56 57
ATOM     57  CB  ASP D 339      17.765  34.984  82.951  1.00 30.27 LIG 0.15  C 
BRANCH 57 58
ATOM     58  CG  ASP D 339      17.024  33.652  83.104  1.00 32.94 LIG 0.17  C 
ATOM     59 OD1  ASP D 339      15.782  33.690  83.235  1.00 36.53 LIG-0.65  OA
ATOM     60 OD2  ASP D 339      17.672  32.576  83.108  1.00 35.99 LIG-0.65  OA
ENDBRANCH 57 58
ENDBRANCH 56 57
BRANCH 56 61
ATOM     61  N   ASP D 339      16.071  35.735  81.361  1.00 31.22 LIG-0.34  N 
ATOM     62  C   ASP D 338      15.500  36.646  80.574  1.00 32.92 LIG 0.26  C 
ATOM     63 O    ASP D 338      16.131  37.382  79.808  1.00 33.60 LIG-0.27  OA
ATOM     64 H    ASP D 339      15.623  35.129  81.777  1.00 31.22 LIG 0.16  HD
BRANCH 62 65
ATOM     65  CA  ASP D 338      13.975  36.715  80.646  1.00 33.82 LIG 0.41  C 
ATOM     66  N   ASP D 338      13.424  37.529  79.516  1.00 34.02 LIG 0.61  N 
BRANCH 65 67
ATOM     67  CB  ASP D 338      13.379  35.298  80.634  1.00 34.49 LIG 0.16  C 
BRANCH 67 68
ATOM     68  CG  ASP D 338      13.689  34.534  79.353  1.00 35.92 LIG 0.17  C 
ATOM     69 OD2  ASP D 338      13.968  35.189  78.329  1.00 39.23 LIG-0.65  OA
ATOM     70 OD1  ASP D 338      13.645  33.280  79.358  1.00 38.97 LIG-0.65  OA
ENDBRANCH 67 68
ENDBRANCH 65 67
ENDBRANCH 62 65
ENDBRANCH 56 61
ENDBRANCH 53 56
ENDBRANCH 40 52
ENDBRANCH 1 40
TORSDOF 27
ENDMDL
MODEL 45
USER: ADFR SOLUTION from run 65
USER: SCORE 21.135987 LL:  -5.017 LR: -17.222 RR:   0.000 FEB:  -9.168
USER: RMSD 13.619533
USER: SEED 64
USER: STATUS searching
USER: GENES 29
USER: genes 0 Translation |==|  0.56703 0.42754 0.58769
USER: genes 1 Rotation |==|  0.61739 0.90630 0.76548 0.52580
USER: genes 2 Torsion [C]-N--CA-[CB] |==|  0.82778
USER: genes 3 Torsion [N]-CA--C-[N] |==|  0.44367
USER: genes 4 Torsion [C]-N--CA-[C] |==|  0.75158
USER: genes 5 Torsion [N]-CA--C-[N] |==|  0.45905
USER: genes 6 Torsion [C]-N--CA-[C] |==|  0.63715
USER: genes 7 Torsion [N]-CA--C-[N] |==|  0.40830
USER: genes 8 Torsion [C]-N--CA-[C] |==|  0.64628
USER: genes 9 Torsion [N]-CA--C-[O] |==|  0.10774
USER: genes 10 Torsion [N]-CA--CB-[OG] |==|  0.93197
USER: genes 11 Torsion [CA]-CB--OG-[HG] |==|  0.12647
USER: genes 12 Torsion [N]-CA--CB-[CG] |==|  0.63725
USER: genes 13 Torsion [CA]-CB--CG-[CD2] |==|  0.98548
USER: genes 14 Torsion [N]-CA--CB-[CG] |==|  0.58848
USER: genes 15 Torsion [CA]-CB--CG-[CD2] |==|  0.60802
USER: genes 16 Torsion [N]-CA--CB-[OG1] |==|  0.88538
USER: genes 17 Torsion [CA]-CB--OG1-[HG1] |==|  0.99942
USER: genes 18 Torsion [N]-C--CA-[N] |==|  0.05490
USER: genes 19 Torsion [C]-CA--CB-[CG] |==|  0.51568
USER: genes 20 Torsion [CA]-CB--CG-[CD2] |==|  0.81228
USER: genes 21 Torsion [C]-CA--N-[C] |==|  0.61941
USER: genes 22 Torsion [N]-C--CA-[N] |==|  0.12136
USER: genes 23 Torsion [C]-CA--CB-[CG] |==|  0.44821
USER: genes 24 Torsion [CA]-CB--CG-[OD1] |==|  0.42844
USER: genes 25 Torsion [C]-CA--N-[C] |==|  0.61675
USER: genes 26 Torsion [N]-C--CA-[N] |==|  0.09627
USER: genes 27 Torsion [C]-CA--CB-[CG] |==|  0.83009
USER: genes 28 Torsion [CA]-CB--CG-[OD2] |==|  0.41807
ROOT
ATOM      1  C   TRP D 340      24.880  34.490  82.476  1.00 16.52 LIG 0.24  C 
ATOM      2 O    TRP D 340      26.002  34.864  82.824  1.00 16.60 LIG-0.27  OA
ATOM      3  N   THR D 341      24.371  33.311  82.810  1.00 13.22 LIG-0.34  N 
ATOM      4 H    THR D 341      23.584  33.058  82.573  1.00 13.22 LIG 0.16  HD
ENDROOT
BRANCH 3 5
ATOM      5  CA  THR D 341      25.083  32.324  83.608  1.00 12.53 LIG 0.20  C 
BRANCH 5 6
ATOM      6  C   THR D 341      25.425  32.903  84.980  1.00 12.10 LIG 0.24  C 
ATOM      7 O    THR D 341      25.427  34.117  85.176  1.00 10.92 LIG-0.27  OA
ATOM      8  N   HIS D 342      25.688  32.028  85.943  1.00 12.26 LIG-0.35  N 
ATOM      9 H    HIS D 342      25.661  31.175  85.842  1.00 12.26 LIG 0.16  HD
BRANCH 8 10
ATOM     10  CA  HIS D 342      26.053  32.470  87.286  1.00 12.78 LIG 0.18  C 
BRANCH 10 11
ATOM     11  C   HIS D 342      27.556  32.634  87.361  1.00 14.51 LIG 0.24  C 
ATOM     12  N   LEU D 343      28.035  33.312  88.401  1.00 15.48 LIG-0.35  N 
ATOM     13 H    LEU D 343      27.550  33.595  89.052  1.00 15.48 LIG 0.16  HD
ATOM     14 O    HIS D 342      28.284  32.135  86.484  1.00 16.02 LIG-0.27  OA
BRANCH 12 15
ATOM     15  CA  LEU D 343      29.458  33.637  88.524  1.00 16.72 LIG 0.18  C 
BRANCH 15 16
ATOM     16  C   LEU D 343      30.061  33.285  89.882  1.00 19.19 LIG 0.24  C 
ATOM     17  N   SER D 344      31.347  32.899  89.890  1.00 21.37 LIG-0.34  N 
ATOM     18 H    SER D 344      31.770  32.666  89.179  1.00 21.37 LIG 0.16  HD
ATOM     19 O    LEU D 343      29.382  33.371  90.892  1.00 19.56 LIG-0.27  OA
BRANCH 17 20
ATOM     20  CA  SER D 344      32.172  32.835  91.118  1.00 23.14 LIG 0.19  C 
BRANCH 20 21
ATOM     21  C   SER D 344      33.482  33.616  90.945  1.00 24.18 LIG 0.22  C 
ATOM     22 O    SER D 344      33.510  34.695  90.328  1.00 25.35 LIG-0.29  OA
ENDBRANCH 20 21
BRANCH 20 23
ATOM     23  CB  SER D 344      32.500  31.390  91.501  1.00 23.66 LIG 0.20  C 
BRANCH 23 24
ATOM     24 OG   SER D 344      31.530  30.482  90.977  1.00 25.03 LIG-0.40  OA
ATOM     25 HG   SER D 344      31.372  30.673  90.174  1.00 25.03 LIG 0.21  HD
ENDBRANCH 23 24
ENDBRANCH 20 23
ENDBRANCH 17 20
ENDBRANCH 15 16
BRANCH 15 26
ATOM     26  CB  LEU D 343      29.693  35.137  88.277  1.00 15.83 LIG 0.04  C 
BRANCH 26 27
ATOM     27  CG  LEU D 343      30.790  35.501  87.296  1.00 14.86 LIG-0.02  C 
ATOM     28  CD1 LEU D 343      31.742  36.503  87.931  1.00 12.95 LIG 0.01  C 
ATOM     29  CD2 LEU D 343      31.544  34.225  86.840  1.00 12.95 LIG 0.01  C 
ENDBRANCH 26 27
ENDBRANCH 15 26
ENDBRANCH 12 15
ENDBRANCH 10 11
BRANCH 10 30
ATOM     30  CB  HIS D 342      25.601  31.434  88.327  1.00 12.90 LIG 0.10  C 
BRANCH 30 31
ATOM     31  CG  HIS D 342      25.226  32.031  89.644  1.00 12.99 LIG 0.06  A 
ATOM     32  CD2 HIS D 342      25.448  31.585  90.904  1.00 12.88 LIG 0.14  A 
ATOM     33 NE2  HIS D 342      24.895  32.503  91.761  1.00 14.80 LIG-0.25  NA
ATOM     34  CE1 HIS D 342      24.347  33.475  91.059  1.00 13.21 LIG 0.23  A 
ATOM     35 ND1  HIS D 342      24.526  33.211  89.777  1.00 14.49 LIG-0.24  NA
ENDBRANCH 30 31
ENDBRANCH 10 30
ENDBRANCH 8 10
ENDBRANCH 5 6
BRANCH 5 36
ATOM     36  CB  THR D 341      26.368  31.861  82.884  1.00 12.70 LIG 0.15  C 
ATOM     37  CG2 THR D 341      26.911  30.548  83.479  1.00 14.15 LIG 0.04  C 
BRANCH 36 38
ATOM     38 OG1  THR D 341      26.085  31.690  81.489  1.00 14.08 LIG-0.39  OA
ATOM     39 HG1  THR D 341      25.279  31.872  81.342  1.00 14.08 LIG 0.21  HD
ENDBRANCH 36 38
ENDBRANCH 5 36
ENDBRANCH 3 5
BRANCH 1 40
ATOM     40  CA  TRP D 340      24.015  35.364  81.575  1.00 18.72 LIG 0.18  C 
BRANCH 40 41
ATOM     41  CB  TRP D 340      24.166  36.813  82.037  1.00 19.00 LIG 0.07  C 
BRANCH 41 42
ATOM     42  CG  TRP D 340      23.281  37.787  81.342  1.00 19.22 LIG-0.03  A 
ATOM     43  CD2 TRP D 340      23.358  38.172  79.972  1.00 20.18 LIG-0.00  A 
ATOM     44  CE3 TRP D 340      24.179  37.791  78.904  1.00 18.70 LIG 0.01  A 
ATOM     45  CE2 TRP D 340      22.356  39.144  79.753  1.00 18.84 LIG 0.04  A 
ATOM     46  CZ3 TRP D 340      23.980  38.388  77.661  1.00 20.55 LIG 0.00  A 
ATOM     47  CH2 TRP D 340      22.967  39.347  77.479  1.00 19.52 LIG 0.00  A 
ATOM     48  CZ2 TRP D 340      22.151  39.741  78.508  1.00 19.79 LIG 0.03  A 
ATOM     49  NE1 TRP D 340      21.697  39.336  80.941  1.00 21.77 LIG-0.36  N 
ATOM     50  CD1 TRP D 340      22.273  38.524  81.893  1.00 20.48 LIG 0.10  A 
ATOM     51 HE1  TRP D 340      21.037  39.871  81.070  1.00 21.77 LIG 0.17  HD
ENDBRANCH 41 42
ENDBRANCH 40 41
BRANCH 40 52
ATOM     52  N   TRP D 340      22.606  34.957  81.612  1.00 22.23 LIG-0.35  N 
ATOM     53  C   ASP D 339      21.849  34.875  80.519  1.00 26.49 LIG 0.24  C 
ATOM     54 O    ASP D 339      22.272  35.126  79.377  1.00 27.22 LIG-0.27  OA
ATOM     55 H    TRP D 340      22.316  34.778  82.401  1.00 22.23 LIG 0.16  HD
BRANCH 53 56
ATOM     56  CA  ASP D 339      20.392  34.450  80.729  1.00 29.46 LIG 0.19  C 
BRANCH 56 57
ATOM     57  CB  ASP D 339      19.581  34.770  79.471  1.00 30.27 LIG 0.15  C 
BRANCH 57 58
ATOM     58  CG  ASP D 339      18.262  33.997  79.392  1.00 32.94 LIG 0.17  C 
ATOM     59 OD1  ASP D 339      17.331  34.499  78.728  1.00 36.53 LIG-0.65  OA
ATOM     60 OD2  ASP D 339      18.145  32.903  80.000  1.00 35.99 LIG-0.65  OA
ENDBRANCH 57 58
ENDBRANCH 56 57
BRANCH 56 61
ATOM     61  N   ASP D 339      19.802  35.137  81.875  1.00 31.22 LIG-0.34  N 
ATOM     62  C   ASP D 338      19.018  34.538  82.769  1.00 32.92 LIG 0.26  C 
ATOM     63 O    ASP D 338      18.880  33.313  82.849  1.00 33.60 LIG-0.27  OA
ATOM     64 H    ASP D 339      20.010  35.970  81.918  1.00 31.22 LIG 0.16  HD
BRANCH 62 65
ATOM     65  CA  ASP D 338      18.299  35.471  83.744  1.00 33.82 LIG 0.41  C 
ATOM     66  N   ASP D 338      17.926  36.758  83.074  1.00 34.02 LIG 0.61  N 
BRANCH 65 67
ATOM     67  CB  ASP D 338      17.053  34.779  84.319  1.00 34.49 LIG 0.16  C 
BRANCH 67 68
ATOM     68  CG  ASP D 338      16.034  34.406  83.249  1.00 35.92 LIG 0.17  C 
ATOM     69 OD2  ASP D 338      15.308  33.412  83.447  1.00 39.23 LIG-0.65  OA
ATOM     70 OD1  ASP D 338      15.960  35.094  82.203  1.00 38.97 LIG-0.65  OA
ENDBRANCH 67 68
ENDBRANCH 65 67
ENDBRANCH 62 65
ENDBRANCH 56 61
ENDBRANCH 53 56
ENDBRANCH 40 52
ENDBRANCH 1 40
TORSDOF 27
ENDMDL
MODEL 46
USER: ADFR SOLUTION from run 186
USER: SCORE 20.624286 LL:  -5.317 LR: -17.198 RR:   0.000 FEB:  -9.144
USER: RMSD 4.491622
USER: SEED 185
USER: STATUS no improvement in best in 12 clusters for 5 generations
USER: GENES 29
USER: genes 0 Translation |==|  0.48765 0.44721 0.50131
USER: genes 1 Rotation |==|  0.13417 0.60291 0.25469 0.71307
USER: genes 2 Torsion [C]-N--CA-[CB] |==|  0.55024
USER: genes 3 Torsion [N]-CA--C-[N] |==|  0.36667
USER: genes 4 Torsion [C]-N--CA-[C] |==|  0.65703
USER: genes 5 Torsion [N]-CA--C-[N] |==|  0.99147
USER: genes 6 Torsion [C]-N--CA-[C] |==|  0.57112
USER: genes 7 Torsion [N]-CA--C-[N] |==|  0.38123
USER: genes 8 Torsion [C]-N--CA-[C] |==|  0.18491
USER: genes 9 Torsion [N]-CA--C-[O] |==|  0.76213
USER: genes 10 Torsion [N]-CA--CB-[OG] |==|  0.63266
USER: genes 11 Torsion [CA]-CB--OG-[HG] |==|  0.00587
USER: genes 12 Torsion [N]-CA--CB-[CG] |==|  0.24785
USER: genes 13 Torsion [CA]-CB--CG-[CD2] |==|  0.65375
USER: genes 14 Torsion [N]-CA--CB-[CG] |==|  0.16509
USER: genes 15 Torsion [CA]-CB--CG-[CD2] |==|  0.84705
USER: genes 16 Torsion [N]-CA--CB-[OG1] |==|  0.62261
USER: genes 17 Torsion [CA]-CB--OG1-[HG1] |==|  0.02523
USER: genes 18 Torsion [N]-C--CA-[N] |==|  0.67311
USER: genes 19 Torsion [C]-CA--CB-[CG] |==|  0.41245
USER: genes 20 Torsion [CA]-CB--CG-[CD2] |==|  0.84191
USER: genes 21 Torsion [C]-CA--N-[C] |==|  0.57826
USER: genes 22 Torsion [N]-C--CA-[N] |==|  0.38707
USER: genes 23 Torsion [C]-CA--CB-[CG] |==|  0.82902
USER: genes 24 Torsion [CA]-CB--CG-[OD1] |==|  0.40179
USER: genes 25 Torsion [C]-CA--N-[C] |==|  0.81914
USER: genes 26 Torsion [N]-C--CA-[N] |==|  0.50275
USER: genes 27 Torsion [C]-CA--CB-[CG] |==|  0.77151
USER: genes 28 Torsion [CA]-CB--CG-[OD2] |==|  0.57451
ROOT
ATOM      1  C   TRP D 340      22.677  34.874  80.143  1.00 16.52 LIG 0.24  C 
ATOM      2 O    TRP D 340      22.915  35.215  78.982  1.00 16.60 LIG-0.27  OA
ATOM      3  N   THR D 341      21.481  34.471  80.550  1.00 13.22 LIG-0.34  N 
ATOM      4 H    THR D 341      21.320  34.225  81.359  1.00 13.22 LIG 0.16  HD
ENDROOT
BRANCH 3 5
ATOM      5  CA  THR D 341      20.315  34.403  79.681  1.00 12.53 LIG 0.20  C 
BRANCH 5 6
ATOM      6  C   THR D 341      20.287  35.607  78.741  1.00 12.10 LIG 0.24  C 
ATOM      7 O    THR D 341      20.481  36.746  79.161  1.00 10.92 LIG-0.27  OA
ATOM      8  N   HIS D 342      20.073  35.351  77.456  1.00 12.26 LIG-0.35  N 
ATOM      9 H    HIS D 342      19.968  34.561  77.131  1.00 12.26 LIG 0.16  HD
BRANCH 8 10
ATOM     10  CA  HIS D 342      19.999  36.427  76.473  1.00 12.78 LIG 0.18  C 
BRANCH 10 11
ATOM     11  C   HIS D 342      18.673  36.345  75.748  1.00 14.51 LIG 0.24  C 
ATOM     12  N   LEU D 343      17.876  35.328  76.065  1.00 15.48 LIG-0.35  N 
ATOM     13 H    LEU D 343      18.044  34.767  76.695  1.00 15.48 LIG 0.16  HD
ATOM     14 O    HIS D 342      18.364  37.212  74.911  1.00 16.02 LIG-0.27  OA
BRANCH 12 15
ATOM     15  CA  LEU D 343      16.622  35.075  75.352  1.00 16.72 LIG 0.18  C 
BRANCH 15 16
ATOM     16  C   LEU D 343      15.581  34.321  76.175  1.00 19.19 LIG 0.24  C 
ATOM     17  N   SER D 344      14.313  34.758  76.092  1.00 21.37 LIG-0.34  N 
ATOM     18 H    SER D 344      14.103  35.525  75.764  1.00 21.37 LIG 0.16  HD
ATOM     19 O    LEU D 343      15.915  33.366  76.857  1.00 19.56 LIG-0.27  OA
BRANCH 17 20
ATOM     20  CA  SER D 344      13.146  33.971  76.551  1.00 23.14 LIG 0.19  C 
BRANCH 20 21
ATOM     21  C   SER D 344      13.166  33.793  78.076  1.00 24.18 LIG 0.22  C 
ATOM     22 O    SER D 344      13.803  32.867  78.607  1.00 25.35 LIG-0.29  OA
ENDBRANCH 20 21
BRANCH 20 23
ATOM     23  CB  SER D 344      13.102  32.592  75.889  1.00 23.66 LIG 0.20  C 
BRANCH 23 24
ATOM     24 OG   SER D 344      11.798  32.303  75.381  1.00 25.03 LIG-0.40  OA
ATOM     25 HG   SER D 344      11.293  32.961  75.513  1.00 25.03 LIG 0.21  HD
ENDBRANCH 23 24
ENDBRANCH 20 23
ENDBRANCH 17 20
ENDBRANCH 15 16
BRANCH 15 26
ATOM     26  CB  LEU D 343      16.884  34.269  74.067  1.00 15.83 LIG 0.04  C 
BRANCH 26 27
ATOM     27  CG  LEU D 343      16.857  32.759  74.195  1.00 14.86 LIG-0.02  C 
ATOM     28  CD1 LEU D 343      15.663  32.195  73.441  1.00 12.95 LIG 0.01  C 
ATOM     29  CD2 LEU D 343      18.185  32.154  73.672  1.00 12.95 LIG 0.01  C 
ENDBRANCH 26 27
ENDBRANCH 15 26
ENDBRANCH 12 15
ENDBRANCH 10 11
BRANCH 10 30
ATOM     30  CB  HIS D 342      21.144  36.298  75.457  1.00 12.90 LIG 0.10  C 
BRANCH 30 31
ATOM     31  CG  HIS D 342      21.137  35.007  74.704  1.00 12.99 LIG 0.06  A 
ATOM     32  CD2 HIS D 342      21.140  33.729  75.154  1.00 12.88 LIG 0.14  A 
ATOM     33 NE2  HIS D 342      21.135  32.912  74.052  1.00 14.80 LIG-0.25  NA
ATOM     34  CE1 HIS D 342      21.135  33.655  72.963  1.00 13.21 LIG 0.23  A 
ATOM     35 ND1  HIS D 342      21.144  34.925  73.328  1.00 14.49 LIG-0.24  NA
ENDBRANCH 30 31
ENDBRANCH 10 30
ENDBRANCH 8 10
ENDBRANCH 5 6
BRANCH 5 36
ATOM     36  CB  THR D 341      19.015  34.343  80.516  1.00 12.70 LIG 0.15  C 
ATOM     37  CG2 THR D 341      18.302  35.708  80.553  1.00 14.15 LIG 0.04  C 
BRANCH 36 38
ATOM     38 OG1  THR D 341      18.145  33.348  79.960  1.00 14.08 LIG-0.39  OA
ATOM     39 HG1  THR D 341      18.559  32.911  79.373  1.00 14.08 LIG 0.21  HD
ENDBRANCH 36 38
ENDBRANCH 5 36
ENDBRANCH 3 5
BRANCH 1 40
ATOM     40  CA  TRP D 340      23.761  34.948  81.213  1.00 18.72 LIG 0.18  C 
BRANCH 40 41
ATOM     41  CB  TRP D 340      23.171  34.419  82.519  1.00 19.00 LIG 0.07  C 
BRANCH 41 42
ATOM     42  CG  TRP D 340      24.145  33.738  83.416  1.00 19.22 LIG-0.03  A 
ATOM     43  CD2 TRP D 340      24.961  32.618  83.083  1.00 20.18 LIG-0.00  A 
ATOM     44  CE3 TRP D 340      25.143  31.866  81.916  1.00 18.70 LIG 0.01  A 
ATOM     45  CE2 TRP D 340      25.698  32.279  84.240  1.00 18.84 LIG 0.04  A 
ATOM     46  CZ3 TRP D 340      26.044  30.804  81.940  1.00 20.55 LIG 0.00  A 
ATOM     47  CH2 TRP D 340      26.766  30.500  83.109  1.00 19.52 LIG 0.00  A 
ATOM     48  CZ2 TRP D 340      26.605  31.218  84.265  1.00 19.79 LIG 0.03  A 
ATOM     49  NE1 TRP D 340      25.345  33.159  85.230  1.00 21.77 LIG-0.36  N 
ATOM     50  CD1 TRP D 340      24.398  34.023  84.726  1.00 20.48 LIG 0.10  A 
ATOM     51 HE1  TRP D 340      25.661  33.170  86.030  1.00 21.77 LIG 0.17  HD
ENDBRANCH 41 42
ENDBRANCH 40 41
BRANCH 40 52
ATOM     52  N   TRP D 340      24.257  36.317  81.391  1.00 22.23 LIG-0.35  N 
ATOM     53  C   ASP D 339      25.493  36.588  81.808  1.00 26.49 LIG 0.24  C 
ATOM     54 O    ASP D 339      26.331  35.709  82.073  1.00 27.22 LIG-0.27  OA
ATOM     55 H    TRP D 340      23.679  36.924  81.202  1.00 22.23 LIG 0.16  HD
BRANCH 53 56
ATOM     56  CA  ASP D 339      25.851  38.071  81.958  1.00 29.46 LIG 0.19  C 
BRANCH 56 57
ATOM     57  CB  ASP D 339      26.643  38.529  80.730  1.00 30.27 LIG 0.15  C 
BRANCH 57 58
ATOM     58  CG  ASP D 339      27.967  37.779  80.554  1.00 32.94 LIG 0.17  C 
ATOM     59 OD1  ASP D 339      28.347  37.536  79.389  1.00 36.53 LIG-0.65  OA
ATOM     60 OD2  ASP D 339      28.618  37.421  81.567  1.00 35.99 LIG-0.65  OA
ENDBRANCH 57 58
ENDBRANCH 56 57
BRANCH 56 61
ATOM     61  N   ASP D 339      26.644  38.303  83.162  1.00 31.22 LIG-0.34  N 
ATOM     62  C   ASP D 338      26.181  38.116  84.396  1.00 32.92 LIG 0.26  C 
ATOM     63 O    ASP D 338      25.122  37.532  84.650  1.00 33.60 LIG-0.27  OA
ATOM     64 H    ASP D 339      27.443  38.574  82.998  1.00 31.22 LIG 0.16  HD
BRANCH 62 65
ATOM     65  CA  ASP D 338      27.068  38.650  85.520  1.00 33.82 LIG 0.41  C 
ATOM     66  N   ASP D 338      26.462  38.364  86.860  1.00 34.02 LIG 0.61  N 
BRANCH 65 67
ATOM     67  CB  ASP D 338      28.475  38.040  85.420  1.00 34.49 LIG 0.16  C 
BRANCH 67 68
ATOM     68  CG  ASP D 338      28.567  36.653  86.044  1.00 35.92 LIG 0.17  C 
ATOM     69 OD2  ASP D 338      29.671  36.275  86.482  1.00 39.23 LIG-0.65  OA
ATOM     70 OD1  ASP D 338      27.542  35.931  86.091  1.00 38.97 LIG-0.65  OA
ENDBRANCH 67 68
ENDBRANCH 65 67
ENDBRANCH 62 65
ENDBRANCH 56 61
ENDBRANCH 53 56
ENDBRANCH 40 52
ENDBRANCH 1 40
TORSDOF 27
ENDMDL
MODEL 47
USER: ADFR SOLUTION from run 121
USER: SCORE 21.053609 LL:  -5.199 LR: -17.182 RR:   0.000 FEB:  -9.128
USER: RMSD 3.215278
USER: SEED 120
USER: STATUS no improvement in best in 4 clusters for 5 generations
USER: GENES 29
USER: genes 0 Translation |==|  0.56578 0.55225 0.54516
USER: genes 1 Rotation |==|  0.34920 0.62115 0.39478 0.94890
USER: genes 2 Torsion [C]-N--CA-[CB] |==|  0.24444
USER: genes 3 Torsion [N]-CA--C-[N] |==|  0.47284
USER: genes 4 Torsion [C]-N--CA-[C] |==|  0.69630
USER: genes 5 Torsion [N]-CA--C-[N] |==|  0.06855
USER: genes 6 Torsion [C]-N--CA-[C] |==|  0.16688
USER: genes 7 Torsion [N]-CA--C-[N] |==|  0.09859
USER: genes 8 Torsion [C]-N--CA-[C] |==|  0.84665
USER: genes 9 Torsion [N]-CA--C-[O] |==|  0.93301
USER: genes 10 Torsion [N]-CA--CB-[OG] |==|  0.85122
USER: genes 11 Torsion [CA]-CB--OG-[HG] |==|  0.81697
USER: genes 12 Torsion [N]-CA--CB-[CG] |==|  0.62596
USER: genes 13 Torsion [CA]-CB--CG-[CD2] |==|  0.99906
USER: genes 14 Torsion [N]-CA--CB-[CG] |==|  0.69652
USER: genes 15 Torsion [CA]-CB--CG-[CD2] |==|  0.47717
USER: genes 16 Torsion [N]-CA--CB-[OG1] |==|  0.93890
USER: genes 17 Torsion [CA]-CB--OG1-[HG1] |==|  0.01887
USER: genes 18 Torsion [N]-C--CA-[N] |==|  0.41830
USER: genes 19 Torsion [C]-CA--CB-[CG] |==|  0.37967
USER: genes 20 Torsion [CA]-CB--CG-[CD2] |==|  0.87780
USER: genes 21 Torsion [C]-CA--N-[C] |==|  0.80983
USER: genes 22 Torsion [N]-C--CA-[N] |==|  0.05317
USER: genes 23 Torsion [C]-CA--CB-[CG] |==|  0.24193
USER: genes 24 Torsion [CA]-CB--CG-[OD1] |==|  0.93146
USER: genes 25 Torsion [C]-CA--N-[C] |==|  0.72101
USER: genes 26 Torsion [N]-C--CA-[N] |==|  0.38479
USER: genes 27 Torsion [C]-CA--CB-[CG] |==|  0.21028
USER: genes 28 Torsion [CA]-CB--CG-[OD2] |==|  0.24069
ROOT
ATOM      1  C   TRP D 340      24.845  36.922  81.327  1.00 16.52 LIG 0.24  C 
ATOM      2 O    TRP D 340      24.719  38.145  81.428  1.00 16.60 LIG-0.27  OA
ATOM      3  N   THR D 341      24.048  36.169  80.581  1.00 13.22 LIG-0.34  N 
ATOM      4 H    THR D 341      24.144  35.318  80.506  1.00 13.22 LIG 0.16  HD
ENDROOT
BRANCH 3 5
ATOM      5  CA  THR D 341      22.929  36.696  79.814  1.00 12.53 LIG 0.20  C 
BRANCH 5 6
ATOM      6  C   THR D 341      21.825  35.645  79.702  1.00 12.10 LIG 0.24  C 
ATOM      7 O    THR D 341      22.005  34.491  80.083  1.00 10.92 LIG-0.27  OA
ATOM      8  N   HIS D 342      20.665  36.055  79.202  1.00 12.26 LIG-0.35  N 
ATOM      9 H    HIS D 342      20.502  36.864  78.959  1.00 12.26 LIG 0.16  HD
BRANCH 8 10
ATOM     10  CA  HIS D 342      19.550  35.130  79.025  1.00 12.78 LIG 0.18  C 
BRANCH 10 11
ATOM     11  C   HIS D 342      19.343  34.882  77.546  1.00 14.51 LIG 0.24  C 
ATOM     12  N   LEU D 343      20.396  35.063  76.752  1.00 15.48 LIG-0.35  N 
ATOM     13 H    LEU D 343      21.186  35.243  77.040  1.00 15.48 LIG 0.16  HD
ATOM     14 O    HIS D 342      18.232  34.513  77.123  1.00 16.02 LIG-0.27  OA
BRANCH 12 15
ATOM     15  CA  LEU D 343      20.292  34.968  75.294  1.00 16.72 LIG 0.18  C 
BRANCH 15 16
ATOM     16  C   LEU D 343      19.322  35.970  74.674  1.00 19.19 LIG 0.24  C 
ATOM     17  N   SER D 344      19.255  37.182  75.250  1.00 21.37 LIG-0.34  N 
ATOM     18 H    SER D 344      19.574  37.347  76.030  1.00 21.37 LIG 0.16  HD
ATOM     19 O    LEU D 343      18.661  35.656  73.697  1.00 19.56 LIG-0.27  OA
BRANCH 17 20
ATOM     20  CA  SER D 344      18.627  38.358  74.605  1.00 23.14 LIG 0.19  C 
BRANCH 20 21
ATOM     21  C   SER D 344      19.248  38.628  73.227  1.00 24.18 LIG 0.22  C 
ATOM     22 O    SER D 344      20.396  38.239  72.951  1.00 25.35 LIG-0.29  OA
ENDBRANCH 20 21
BRANCH 20 23
ATOM     23  CB  SER D 344      18.765  39.614  75.468  1.00 23.66 LIG 0.20  C 
BRANCH 23 24
ATOM     24 OG   SER D 344      18.272  39.390  76.791  1.00 25.03 LIG-0.40  OA
ATOM     25 HG   SER D 344      17.443  39.258  76.762  1.00 25.03 LIG 0.21  HD
ENDBRANCH 23 24
ENDBRANCH 20 23
ENDBRANCH 17 20
ENDBRANCH 15 16
BRANCH 15 26
ATOM     26  CB  LEU D 343      19.848  33.556  74.875  1.00 15.83 LIG 0.04  C 
BRANCH 26 27
ATOM     27  CG  LEU D 343      20.605  32.918  73.728  1.00 14.86 LIG-0.02  C 
ATOM     28  CD1 LEU D 343      19.639  32.537  72.616  1.00 12.95 LIG 0.01  C 
ATOM     29  CD2 LEU D 343      21.701  33.883  73.208  1.00 12.95 LIG 0.01  C 
ENDBRANCH 26 27
ENDBRANCH 15 26
ENDBRANCH 12 15
ENDBRANCH 10 11
BRANCH 10 30
ATOM     30  CB  HIS D 342      18.267  35.724  79.626  1.00 12.90 LIG 0.10  C 
BRANCH 30 31
ATOM     31  CG  HIS D 342      17.813  35.036  80.872  1.00 12.99 LIG 0.06  A 
ATOM     32  CD2 HIS D 342      16.832  35.364  81.747  1.00 12.88 LIG 0.14  A 
ATOM     33 NE2  HIS D 342      16.826  34.402  82.726  1.00 14.80 LIG-0.25  NA
ATOM     34  CE1 HIS D 342      17.770  33.518  82.471  1.00 13.21 LIG 0.23  A 
ATOM     35 ND1  HIS D 342      18.387  33.881  81.360  1.00 14.49 LIG-0.24  NA
ENDBRANCH 30 31
ENDBRANCH 10 30
ENDBRANCH 8 10
ENDBRANCH 5 6
BRANCH 5 36
ATOM     36  CB  THR D 341      23.393  37.140  78.407  1.00 12.70 LIG 0.15  C 
ATOM     37  CG2 THR D 341      22.642  38.399  77.935  1.00 14.15 LIG 0.04  C 
BRANCH 36 38
ATOM     38 OG1  THR D 341      24.805  37.389  78.437  1.00 14.08 LIG-0.39  OA
ATOM     39 HG1  THR D 341      25.115  37.157  79.182  1.00 14.08 LIG 0.21  HD
ENDBRANCH 36 38
ENDBRANCH 5 36
ENDBRANCH 3 5
BRANCH 1 40
ATOM     40  CA  TRP D 340      25.920  36.184  82.117  1.00 18.72 LIG 0.18  C 
BRANCH 40 41
ATOM     41  CB  TRP D 340      25.319  35.767  83.458  1.00 19.00 LIG 0.07  C 
BRANCH 41 42
ATOM     42  CG  TRP D 340      25.650  34.382  83.890  1.00 19.22 LIG-0.03  A 
ATOM     43  CD2 TRP D 340      25.633  33.215  83.072  1.00 20.18 LIG-0.00  A 
ATOM     44  CE3 TRP D 340      25.363  32.986  81.717  1.00 18.70 LIG 0.01  A 
ATOM     45  CE2 TRP D 340      25.974  32.120  83.899  1.00 18.84 LIG 0.04  A 
ATOM     46  CZ3 TRP D 340      25.437  31.682  81.233  1.00 20.55 LIG 0.00  A 
ATOM     47  CH2 TRP D 340      25.786  30.617  82.084  1.00 19.52 LIG 0.00  A 
ATOM     48  CZ2 TRP D 340      26.053  30.813  83.415  1.00 19.79 LIG 0.03  A 
ATOM     49  NE1 TRP D 340      26.190  32.606  85.163  1.00 21.77 LIG-0.36  N 
ATOM     50  CD1 TRP D 340      25.978  33.967  85.148  1.00 20.48 LIG 0.10  A 
ATOM     51 HE1  TRP D 340      26.421  32.140  85.848  1.00 21.77 LIG 0.17  HD
ENDBRANCH 41 42
ENDBRANCH 40 41
BRANCH 40 52
ATOM     52  N   TRP D 340      27.111  37.017  82.325  1.00 22.23 LIG-0.35  N 
ATOM     53  C   ASP D 339      27.923  37.375  81.332  1.00 26.49 LIG 0.24  C 
ATOM     54 O    ASP D 339      27.739  37.043  80.148  1.00 27.22 LIG-0.27  OA
ATOM     55 H    TRP D 340      27.233  37.251  83.143  1.00 22.23 LIG 0.16  HD
BRANCH 53 56
ATOM     56  CA  ASP D 339      29.132  38.234  81.717  1.00 29.46 LIG 0.19  C 
BRANCH 56 57
ATOM     57  CB  ASP D 339      30.356  37.778  80.920  1.00 30.27 LIG 0.15  C 
BRANCH 57 58
ATOM     58  CG  ASP D 339      30.474  38.462  79.554  1.00 32.94 LIG 0.17  C 
ATOM     59 OD1  ASP D 339      29.428  38.902  79.031  1.00 36.53 LIG-0.65  OA
ATOM     60 OD2  ASP D 339      31.597  38.549  78.997  1.00 35.99 LIG-0.65  OA
ENDBRANCH 57 58
ENDBRANCH 56 57
BRANCH 56 61
ATOM     61  N   ASP D 339      29.418  38.133  83.146  1.00 31.22 LIG-0.34  N 
ATOM     62  C   ASP D 338      29.054  39.053  84.037  1.00 32.92 LIG 0.26  C 
ATOM     63 O    ASP D 338      28.264  39.971  83.792  1.00 33.60 LIG-0.27  OA
ATOM     64 H    ASP D 339      29.846  37.418  83.359  1.00 31.22 LIG 0.16  HD
BRANCH 62 65
ATOM     65  CA  ASP D 338      29.659  38.894  85.432  1.00 33.82 LIG 0.41  C 
ATOM     66  N   ASP D 338      30.074  40.221  85.989  1.00 34.02 LIG 0.61  N 
BRANCH 65 67
ATOM     67  CB  ASP D 338      28.655  38.203  86.369  1.00 34.49 LIG 0.16  C 
BRANCH 67 68
ATOM     68  CG  ASP D 338      28.541  36.705  86.115  1.00 35.92 LIG 0.17  C 
ATOM     69 OD2  ASP D 338      29.342  35.945  86.694  1.00 39.23 LIG-0.65  OA
ATOM     70 OD1  ASP D 338      27.659  36.279  85.331  1.00 38.97 LIG-0.65  OA
ENDBRANCH 67 68
ENDBRANCH 65 67
ENDBRANCH 62 65
ENDBRANCH 56 61
ENDBRANCH 53 56
ENDBRANCH 40 52
ENDBRANCH 1 40
TORSDOF 27
ENDMDL
MODEL 48
USER: ADFR SOLUTION from run 3
USER: SCORE 21.288285 LL:  -5.785 LR: -17.157 RR:   0.000 FEB:  -9.102
USER: RMSD 11.804793
USER: SEED 594332
USER: STATUS searching
USER: GENES 29
USER: genes 0 Translation |==|  0.41653 0.45291 0.43487
USER: genes 1 Rotation |==|  0.34673 0.05187 0.63521 0.58608
USER: genes 2 Torsion [C]-N--CA-[CB] |==|  0.29152
USER: genes 3 Torsion [N]-CA--C-[N] |==|  0.36742
USER: genes 4 Torsion [C]-N--CA-[C] |==|  0.80016
USER: genes 5 Torsion [N]-CA--C-[N] |==|  0.93364
USER: genes 6 Torsion [C]-N--CA-[C] |==|  0.82743
USER: genes 7 Torsion [N]-CA--C-[N] |==|  0.95034
USER: genes 8 Torsion [C]-N--CA-[C] |==|  0.64264
USER: genes 9 Torsion [N]-CA--C-[O] |==|  0.97187
USER: genes 10 Torsion [N]-CA--CB-[OG] |==|  0.99057
USER: genes 11 Torsion [CA]-CB--OG-[HG] |==|  0.42257
USER: genes 12 Torsion [N]-CA--CB-[CG] |==|  0.88777
USER: genes 13 Torsion [CA]-CB--CG-[CD2] |==|  0.70057
USER: genes 14 Torsion [N]-CA--CB-[CG] |==|  0.50756
USER: genes 15 Torsion [CA]-CB--CG-[CD2] |==|  0.28074
USER: genes 16 Torsion [N]-CA--CB-[OG1] |==|  0.65382
USER: genes 17 Torsion [CA]-CB--OG1-[HG1] |==|  0.87446
USER: genes 18 Torsion [N]-C--CA-[N] |==|  0.05795
USER: genes 19 Torsion [C]-CA--CB-[CG] |==|  0.24446
USER: genes 20 Torsion [CA]-CB--CG-[CD2] |==|  0.72028
USER: genes 21 Torsion [C]-CA--N-[C] |==|  0.71505
USER: genes 22 Torsion [N]-C--CA-[N] |==|  0.24725
USER: genes 23 Torsion [C]-CA--CB-[CG] |==|  0.79904
USER: genes 24 Torsion [CA]-CB--CG-[OD1] |==|  0.30733
USER: genes 25 Torsion [C]-CA--N-[C] |==|  0.76104
USER: genes 26 Torsion [N]-C--CA-[N] |==|  0.53696
USER: genes 27 Torsion [C]-CA--CB-[CG] |==|  0.83455
USER: genes 28 Torsion [CA]-CB--CG-[OD2] |==|  0.92151
ROOT
ATOM      1  C   TRP D 340      20.704  34.985  78.349  1.00 16.52 LIG 0.24  C 
ATOM      2 O    TRP D 340      21.394  34.816  77.341  1.00 16.60 LIG-0.27  OA
ATOM      3  N   THR D 341      21.212  35.304  79.532  1.00 13.22 LIG-0.34  N 
ATOM      4 H    THR D 341      20.727  35.430  80.231  1.00 13.22 LIG 0.16  HD
ENDROOT
BRANCH 3 5
ATOM      5  CA  THR D 341      22.637  35.474  79.777  1.00 12.53 LIG 0.20  C 
BRANCH 5 6
ATOM      6  C   THR D 341      23.049  34.719  81.040  1.00 12.10 LIG 0.24  C 
ATOM      7 O    THR D 341      22.388  34.801  82.074  1.00 10.92 LIG-0.27  OA
ATOM      8  N   HIS D 342      24.131  33.956  80.948  1.00 12.26 LIG-0.35  N 
ATOM      9 H    HIS D 342      24.592  33.854  80.229  1.00 12.26 LIG 0.16  HD
BRANCH 8 10
ATOM     10  CA  HIS D 342      24.631  33.211  82.099  1.00 12.78 LIG 0.18  C 
BRANCH 10 11
ATOM     11  C   HIS D 342      25.247  34.180  83.086  1.00 14.51 LIG 0.24  C 
ATOM     12  N   LEU D 343      25.677  35.341  82.599  1.00 15.48 LIG-0.35  N 
ATOM     13 H    LEU D 343      25.563  35.590  81.784  1.00 15.48 LIG 0.16  HD
ATOM     14 O    HIS D 342      25.320  33.882  84.292  1.00 16.02 LIG-0.27  OA
BRANCH 12 15
ATOM     15  CA  LEU D 343      26.395  36.311  83.430  1.00 16.72 LIG 0.18  C 
BRANCH 15 16
ATOM     16  C   LEU D 343      25.579  36.847  84.604  1.00 19.19 LIG 0.24  C 
ATOM     17  N   SER D 344      24.248  36.685  84.538  1.00 21.37 LIG-0.34  N 
ATOM     18 H    SER D 344      23.837  36.476  83.812  1.00 21.37 LIG 0.16  HD
ATOM     19 O    LEU D 343      26.142  37.383  85.545  1.00 19.56 LIG-0.27  OA
BRANCH 17 20
ATOM     20  CA  SER D 344      23.347  36.844  85.703  1.00 23.14 LIG 0.19  C 
BRANCH 20 21
ATOM     21  C   SER D 344      22.429  35.624  85.862  1.00 24.18 LIG 0.22  C 
ATOM     22 O    SER D 344      22.357  34.754  84.977  1.00 25.35 LIG-0.29  OA
ENDBRANCH 20 21
BRANCH 20 23
ATOM     23  CB  SER D 344      22.487  38.104  85.582  1.00 23.66 LIG 0.20  C 
BRANCH 23 24
ATOM     24 OG   SER D 344      22.825  38.851  84.411  1.00 25.03 LIG-0.40  OA
ATOM     25 HG   SER D 344      22.153  39.283  84.151  1.00 25.03 LIG 0.21  HD
ENDBRANCH 23 24
ENDBRANCH 20 23
ENDBRANCH 17 20
ENDBRANCH 15 16
BRANCH 15 26
ATOM     26  CB  LEU D 343      26.854  37.512  82.585  1.00 15.83 LIG 0.04  C 
BRANCH 26 27
ATOM     27  CG  LEU D 343      27.389  37.204  81.200  1.00 14.86 LIG-0.02  C 
ATOM     28  CD1 LEU D 343      26.695  38.080  80.169  1.00 12.95 LIG 0.01  C 
ATOM     29  CD2 LEU D 343      28.925  37.407  81.163  1.00 12.95 LIG 0.01  C 
ENDBRANCH 26 27
ENDBRANCH 15 26
ENDBRANCH 12 15
ENDBRANCH 10 11
BRANCH 10 30
ATOM     30  CB  HIS D 342      25.693  32.194  81.654  1.00 12.90 LIG 0.10  C 
BRANCH 30 31
ATOM     31  CG  HIS D 342      26.213  31.342  82.765  1.00 12.99 LIG 0.06  A 
ATOM     32  CD2 HIS D 342      25.909  30.067  83.109  1.00 12.88 LIG 0.14  A 
ATOM     33 NE2  HIS D 342      26.664  29.754  84.211  1.00 14.80 LIG-0.25  NA
ATOM     34  CE1 HIS D 342      27.401  30.797  84.541  1.00 13.21 LIG 0.23  A 
ATOM     35 ND1  HIS D 342      27.143  31.772  83.688  1.00 14.49 LIG-0.24  NA
ENDBRANCH 30 31
ENDBRANCH 10 30
ENDBRANCH 8 10
ENDBRANCH 5 6
BRANCH 5 36
ATOM     36  CB  THR D 341      22.992  36.973  79.908  1.00 12.70 LIG 0.15  C 
ATOM     37  CG2 THR D 341      23.455  37.323  81.334  1.00 14.15 LIG 0.04  C 
BRANCH 36 38
ATOM     38 OG1  THR D 341      24.021  37.295  78.962  1.00 14.08 LIG-0.39  OA
ATOM     39 HG1  THR D 341      24.616  36.703  78.984  1.00 14.08 LIG 0.21  HD
ENDBRANCH 36 38
ENDBRANCH 5 36
ENDBRANCH 3 5
BRANCH 1 40
ATOM     40  CA  TRP D 340      19.194  34.779  78.300  1.00 18.72 LIG 0.18  C 
BRANCH 40 41
ATOM     41  CB  TRP D 340      18.684  35.340  76.974  1.00 19.00 LIG 0.07  C 
BRANCH 41 42
ATOM     42  CG  TRP D 340      18.702  34.377  75.838  1.00 19.22 LIG-0.03  A 
ATOM     43  CD2 TRP D 340      19.678  34.311  74.802  1.00 20.18 LIG-0.00  A 
ATOM     44  CE3 TRP D 340      20.853  35.022  74.532  1.00 18.70 LIG 0.01  A 
ATOM     45  CE2 TRP D 340      19.282  33.280  73.920  1.00 18.84 LIG 0.04  A 
ATOM     46  CZ3 TRP D 340      21.589  34.690  73.397  1.00 20.55 LIG 0.00  A 
ATOM     47  CH2 TRP D 340      21.167  33.653  72.544  1.00 19.52 LIG 0.00  A 
ATOM     48  CZ2 TRP D 340      20.020  32.942  72.784  1.00 19.79 LIG 0.03  A 
ATOM     49  NE1 TRP D 340      18.116  32.744  74.404  1.00 21.77 LIG-0.36  N 
ATOM     50  CD1 TRP D 340      17.769  33.424  75.552  1.00 20.48 LIG 0.10  A 
ATOM     51 HE1  TRP D 340      17.676  32.095  74.052  1.00 21.77 LIG 0.17  HD
ENDBRANCH 41 42
ENDBRANCH 40 41
BRANCH 40 52
ATOM     52  N   TRP D 340      18.519  35.433  79.427  1.00 22.23 LIG-0.35  N 
ATOM     53  C   ASP D 339      18.077  34.762  80.491  1.00 26.49 LIG 0.24  C 
ATOM     54 O    ASP D 339      18.206  33.533  80.623  1.00 27.22 LIG-0.27  OA
ATOM     55 H    TRP D 340      18.436  36.283  79.337  1.00 22.23 LIG 0.16  HD
BRANCH 53 56
ATOM     56  CA  ASP D 339      17.379  35.590  81.575  1.00 29.46 LIG 0.19  C 
BRANCH 56 57
ATOM     57  CB  ASP D 339      17.601  34.932  82.940  1.00 30.27 LIG 0.15  C 
BRANCH 57 58
ATOM     58  CG  ASP D 339      16.798  33.641  83.122  1.00 32.94 LIG 0.17  C 
ATOM     59 OD1  ASP D 339      17.429  32.563  83.158  1.00 36.53 LIG-0.65  OA
ATOM     60 OD2  ASP D 339      15.546  33.695  83.214  1.00 35.99 LIG-0.65  OA
ENDBRANCH 57 58
ENDBRANCH 56 57
BRANCH 56 61
ATOM     61  N   ASP D 339      15.947  35.700  81.316  1.00 31.22 LIG-0.34  N 
ATOM     62  C   ASP D 338      15.409  36.633  80.533  1.00 32.92 LIG 0.26  C 
ATOM     63 O    ASP D 338      16.067  37.362  79.783  1.00 33.60 LIG-0.27  OA
ATOM     64 H    ASP D 339      15.479  35.101  81.719  1.00 31.22 LIG 0.16  HD
BRANCH 62 65
ATOM     65  CA  ASP D 338      13.885  36.739  80.586  1.00 33.82 LIG 0.41  C 
ATOM     66  N   ASP D 338      13.368  37.575  79.455  1.00 34.02 LIG 0.61  N 
BRANCH 65 67
ATOM     67  CB  ASP D 338      13.254  35.338  80.558  1.00 34.49 LIG 0.16  C 
BRANCH 67 68
ATOM     68  CG  ASP D 338      13.619  34.548  79.306  1.00 35.92 LIG 0.17  C 
ATOM     69 OD2  ASP D 338      13.872  35.181  78.262  1.00 39.23 LIG-0.65  OA
ATOM     70 OD1  ASP D 338      13.645  33.295  79.355  1.00 38.97 LIG-0.65  OA
ENDBRANCH 67 68
ENDBRANCH 65 67
ENDBRANCH 62 65
ENDBRANCH 56 61
ENDBRANCH 53 56
ENDBRANCH 40 52
ENDBRANCH 1 40
TORSDOF 27
ENDMDL
MODEL 49
USER: ADFR SOLUTION from run 97
USER: SCORE 20.499929 LL:  -4.915 LR: -17.120 RR:   0.000 FEB:  -9.066
USER: RMSD 13.229950
USER: SEED 96
USER: STATUS no improvement in best in 5 clusters for 5 generations
USER: GENES 29
USER: genes 0 Translation |==|  0.41168 0.47543 0.34160
USER: genes 1 Rotation |==|  0.44654 0.00437 0.51502 0.53566
USER: genes 2 Torsion [C]-N--CA-[CB] |==|  0.13355
USER: genes 3 Torsion [N]-CA--C-[N] |==|  0.66667
USER: genes 4 Torsion [C]-N--CA-[C] |==|  0.22703
USER: genes 5 Torsion [N]-CA--C-[N] |==|  0.87330
USER: genes 6 Torsion [C]-N--CA-[C] |==|  0.83680
USER: genes 7 Torsion [N]-CA--C-[N] |==|  0.89098
USER: genes 8 Torsion [C]-N--CA-[C] |==|  0.64685
USER: genes 9 Torsion [N]-CA--C-[O] |==|  0.97923
USER: genes 10 Torsion [N]-CA--CB-[OG] |==|  0.18538
USER: genes 11 Torsion [CA]-CB--OG-[HG] |==|  0.90218
USER: genes 12 Torsion [N]-CA--CB-[CG] |==|  0.65824
USER: genes 13 Torsion [CA]-CB--CG-[CD2] |==|  0.88142
USER: genes 14 Torsion [N]-CA--CB-[CG] |==|  0.49664
USER: genes 15 Torsion [CA]-CB--CG-[CD2] |==|  0.76669
USER: genes 16 Torsion [N]-CA--CB-[OG1] |==|  0.48936
USER: genes 17 Torsion [CA]-CB--OG1-[HG1] |==|  0.11135
USER: genes 18 Torsion [N]-C--CA-[N] |==|  0.42605
USER: genes 19 Torsion [C]-CA--CB-[CG] |==|  0.52028
USER: genes 20 Torsion [CA]-CB--CG-[CD2] |==|  0.88356
USER: genes 21 Torsion [C]-CA--N-[C] |==|  0.68432
USER: genes 22 Torsion [N]-C--CA-[N] |==|  0.39015
USER: genes 23 Torsion [C]-CA--CB-[CG] |==|  0.31397
USER: genes 24 Torsion [CA]-CB--CG-[OD1] |==|  0.71242
USER: genes 25 Torsion [C]-CA--N-[C] |==|  0.82541
USER: genes 26 Torsion [N]-C--CA-[N] |==|  0.55515
USER: genes 27 Torsion [C]-CA--CB-[CG] |==|  0.27848
USER: genes 28 Torsion [CA]-CB--CG-[OD2] |==|  0.69237
ROOT
ATOM      1  C   TRP D 340      20.569  35.424  75.831  1.00 16.52 LIG 0.24  C 
ATOM      2 O    TRP D 340      21.402  36.012  75.137  1.00 16.60 LIG-0.27  OA
ATOM      3  N   THR D 341      20.717  35.232  77.135  1.00 13.22 LIG-0.34  N 
ATOM      4 H    THR D 341      20.130  34.830  77.619  1.00 13.22 LIG 0.16  HD
ENDROOT
BRANCH 3 5
ATOM      5  CA  THR D 341      21.882  35.676  77.888  1.00 12.53 LIG 0.20  C 
BRANCH 5 6
ATOM      6  C   THR D 341      21.634  35.514  79.387  1.00 12.10 LIG 0.24  C 
ATOM      7 O    THR D 341      21.422  34.408  79.880  1.00 10.92 LIG-0.27  OA
ATOM      8  N   HIS D 342      21.691  36.619  80.120  1.00 12.26 LIG-0.35  N 
ATOM      9 H    HIS D 342      21.871  37.399  79.806  1.00 12.26 LIG 0.16  HD
BRANCH 8 10
ATOM     10  CA  HIS D 342      21.445  36.586  81.558  1.00 12.78 LIG 0.18  C 
BRANCH 10 11
ATOM     11  C   HIS D 342      22.708  36.146  82.267  1.00 14.51 LIG 0.24  C 
ATOM     12  N   LEU D 343      23.351  35.100  81.756  1.00 15.48 LIG-0.35  N 
ATOM     13 H    LEU D 343      23.127  34.713  81.021  1.00 15.48 LIG 0.16  HD
ATOM     14 O    HIS D 342      23.109  36.765  83.269  1.00 16.02 LIG-0.27  OA
BRANCH 12 15
ATOM     15  CA  LEU D 343      24.518  34.510  82.416  1.00 16.72 LIG 0.18  C 
BRANCH 15 16
ATOM     16  C   LEU D 343      25.675  35.484  82.621  1.00 19.19 LIG 0.24  C 
ATOM     17  N   SER D 344      25.920  36.348  81.622  1.00 21.37 LIG-0.34  N 
ATOM     18 H    SER D 344      25.596  36.254  80.831  1.00 21.37 LIG 0.16  HD
ATOM     19 O    LEU D 343      26.319  35.459  83.657  1.00 19.56 LIG-0.27  OA
BRANCH 17 20
ATOM     20  CA  SER D 344      26.771  37.551  81.774  1.00 23.14 LIG 0.19  C 
BRANCH 20 21
ATOM     21  C   SER D 344      26.032  38.812  81.304  1.00 24.18 LIG 0.22  C 
ATOM     22 O    SER D 344      24.927  38.737  80.738  1.00 25.35 LIG-0.29  OA
ENDBRANCH 20 21
BRANCH 20 23
ATOM     23  CB  SER D 344      28.079  37.418  80.991  1.00 23.66 LIG 0.20  C 
BRANCH 23 24
ATOM     24 OG   SER D 344      27.840  37.398  79.583  1.00 25.03 LIG-0.40  OA
ATOM     25 HG   SER D 344      27.120  36.995  79.426  1.00 25.03 LIG 0.21  HD
ENDBRANCH 23 24
ENDBRANCH 20 23
ENDBRANCH 17 20
ENDBRANCH 15 16
BRANCH 15 26
ATOM     26  CB  LEU D 343      25.046  33.310  81.610  1.00 15.83 LIG 0.04  C 
BRANCH 26 27
ATOM     27  CG  LEU D 343      25.130  31.985  82.340  1.00 14.86 LIG-0.02  C 
ATOM     28  CD1 LEU D 343      25.985  31.009  81.548  1.00 12.95 LIG 0.01  C 
ATOM     29  CD2 LEU D 343      25.698  32.195  83.767  1.00 12.95 LIG 0.01  C 
ENDBRANCH 26 27
ENDBRANCH 15 26
ENDBRANCH 12 15
ENDBRANCH 10 11
BRANCH 10 30
ATOM     30  CB  HIS D 342      20.311  35.599  81.880  1.00 12.90 LIG 0.10  C 
BRANCH 30 31
ATOM     31  CG  HIS D 342      20.012  35.482  83.339  1.00 12.99 LIG 0.06  A 
ATOM     32  CD2 HIS D 342      20.599  34.724  84.296  1.00 12.88 LIG 0.14  A 
ATOM     33 NE2  HIS D 342      19.945  34.983  85.474  1.00 14.80 LIG-0.25  NA
ATOM     34  CE1 HIS D 342      18.987  35.861  85.253  1.00 13.21 LIG 0.23  A 
ATOM     35 ND1  HIS D 342      19.001  36.175  83.970  1.00 14.49 LIG-0.24  NA
ENDBRANCH 30 31
ENDBRANCH 10 30
ENDBRANCH 8 10
ENDBRANCH 5 6
BRANCH 5 36
ATOM     36  CB  THR D 341      22.217  37.149  77.554  1.00 12.70 LIG 0.15  C 
ATOM     37  CG2 THR D 341      20.999  38.068  77.767  1.00 14.15 LIG 0.04  C 
BRANCH 36 38
ATOM     38 OG1  THR D 341      23.309  37.579  78.377  1.00 14.08 LIG-0.39  OA
ATOM     39 HG1  THR D 341      23.873  36.960  78.440  1.00 14.08 LIG 0.21  HD
ENDBRANCH 36 38
ENDBRANCH 5 36
ENDBRANCH 3 5
BRANCH 1 40
ATOM     40  CA  TRP D 340      19.316  34.825  75.202  1.00 18.72 LIG 0.18  C 
BRANCH 40 41
ATOM     41  CB  TRP D 340      19.611  33.366  74.860  1.00 19.00 LIG 0.07  C 
BRANCH 41 42
ATOM     42  CG  TRP D 340      18.546  32.678  74.080  1.00 19.22 LIG-0.03  A 
ATOM     43  CD2 TRP D 340      17.141  32.781  74.295  1.00 20.18 LIG-0.00  A 
ATOM     44  CE3 TRP D 340      16.350  33.511  75.190  1.00 18.70 LIG 0.01  A 
ATOM     45  CE2 TRP D 340      16.511  31.932  73.357  1.00 18.84 LIG 0.04  A 
ATOM     46  CZ3 TRP D 340      14.965  33.370  75.126  1.00 20.55 LIG 0.00  A 
ATOM     47  CH2 TRP D 340      14.373  32.520  74.174  1.00 19.52 LIG 0.00  A 
ATOM     48  CZ2 TRP D 340      15.124  31.793  73.287  1.00 19.79 LIG 0.03  A 
ATOM     49  NE1 TRP D 340      17.495  31.343  72.604  1.00 21.77 LIG-0.36  N 
ATOM     50  CD1 TRP D 340      18.716  31.788  73.060  1.00 20.48 LIG 0.10  A 
ATOM     51 HE1  TRP D 340      17.370  30.789  71.958  1.00 21.77 LIG 0.17  HD
ENDBRANCH 41 42
ENDBRANCH 40 41
BRANCH 40 52
ATOM     52  N   TRP D 340      18.906  35.561  74.001  1.00 22.23 LIG-0.35  N 
ATOM     53  C   ASP D 339      17.772  36.259  73.935  1.00 26.49 LIG 0.24  C 
ATOM     54 O    ASP D 339      16.974  36.353  74.883  1.00 27.22 LIG-0.27  OA
ATOM     55 H    TRP D 340      19.462  35.500  73.349  1.00 22.23 LIG 0.16  HD
BRANCH 53 56
ATOM     56  CA  ASP D 339      17.481  36.959  72.603  1.00 29.46 LIG 0.19  C 
BRANCH 56 57
ATOM     57  CB  ASP D 339      17.889  38.431  72.702  1.00 30.27 LIG 0.15  C 
BRANCH 57 58
ATOM     58  CG  ASP D 339      19.076  38.788  71.801  1.00 32.94 LIG 0.17  C 
ATOM     59 OD1  ASP D 339      20.195  38.926  72.340  1.00 36.53 LIG-0.65  OA
ATOM     60 OD2  ASP D 339      18.895  38.944  70.568  1.00 35.99 LIG-0.65  OA
ENDBRANCH 57 58
ENDBRANCH 56 57
BRANCH 56 61
ATOM     61  N   ASP D 339      16.065  36.870  72.259  1.00 31.22 LIG-0.34  N 
ATOM     62  C   ASP D 338      15.433  35.720  72.030  1.00 32.92 LIG 0.26  C 
ATOM     63 O    ASP D 338      15.913  34.610  72.288  1.00 33.60 LIG-0.27  OA
ATOM     64 H    ASP D 339      15.674  37.634  72.218  1.00 31.22 LIG 0.16  HD
BRANCH 62 65
ATOM     65  CA  ASP D 338      14.028  35.846  71.441  1.00 33.82 LIG 0.41  C 
ATOM     66  N   ASP D 338      13.241  34.591  71.665  1.00 34.02 LIG 0.61  N 
BRANCH 65 67
ATOM     67  CB  ASP D 338      13.304  37.056  72.052  1.00 34.49 LIG 0.16  C 
BRANCH 67 68
ATOM     68  CG  ASP D 338      13.318  38.278  71.141  1.00 35.92 LIG 0.17  C 
ATOM     69 OD2  ASP D 338      14.003  39.262  71.484  1.00 39.23 LIG-0.65  OA
ATOM     70 OD1  ASP D 338      12.638  38.267  70.087  1.00 38.97 LIG-0.65  OA
ENDBRANCH 67 68
ENDBRANCH 65 67
ENDBRANCH 62 65
ENDBRANCH 56 61
ENDBRANCH 53 56
ENDBRANCH 40 52
ENDBRANCH 1 40
TORSDOF 27
ENDMDL
MODEL 50
USER: ADFR SOLUTION from run 187
USER: SCORE 20.152090 LL:  -5.570 LR: -17.107 RR:   0.000 FEB:  -9.053
USER: RMSD 3.903520
USER: SEED 186
USER: STATUS no improvement in best in 7 clusters for 5 generations
USER: GENES 29
USER: genes 0 Translation |==|  0.54365 0.53566 0.56096
USER: genes 1 Rotation |==|  0.58863 0.51507 0.55958 0.98823
USER: genes 2 Torsion [C]-N--CA-[CB] |==|  0.51523
USER: genes 3 Torsion [N]-CA--C-[N] |==|  0.88067
USER: genes 4 Torsion [C]-N--CA-[C] |==|  0.16324
USER: genes 5 Torsion [N]-CA--C-[N] |==|  0.20300
USER: genes 6 Torsion [C]-N--CA-[C] |==|  0.81096
USER: genes 7 Torsion [N]-CA--C-[N] |==|  0.42500
USER: genes 8 Torsion [C]-N--CA-[C] |==|  0.17910
USER: genes 9 Torsion [N]-CA--C-[O] |==|  0.68124
USER: genes 10 Torsion [N]-CA--CB-[OG] |==|  0.85070
USER: genes 11 Torsion [CA]-CB--OG-[HG] |==|  0.09735
USER: genes 12 Torsion [N]-CA--CB-[CG] |==|  0.81059
USER: genes 13 Torsion [CA]-CB--CG-[CD2] |==|  0.33354
USER: genes 14 Torsion [N]-CA--CB-[CG] |==|  0.48256
USER: genes 15 Torsion [CA]-CB--CG-[CD2] |==|  0.14475
USER: genes 16 Torsion [N]-CA--CB-[OG1] |==|  0.92428
USER: genes 17 Torsion [CA]-CB--OG1-[HG1] |==|  0.15906
USER: genes 18 Torsion [N]-C--CA-[N] |==|  0.28481
USER: genes 19 Torsion [C]-CA--CB-[CG] |==|  0.31085
USER: genes 20 Torsion [CA]-CB--CG-[CD2] |==|  0.35810
USER: genes 21 Torsion [C]-CA--N-[C] |==|  0.76433
USER: genes 22 Torsion [N]-C--CA-[N] |==|  0.82418
USER: genes 23 Torsion [C]-CA--CB-[CG] |==|  0.75068
USER: genes 24 Torsion [CA]-CB--CG-[OD1] |==|  0.31230
USER: genes 25 Torsion [C]-CA--N-[C] |==|  0.73269
USER: genes 26 Torsion [N]-C--CA-[N] |==|  0.25018
USER: genes 27 Torsion [C]-CA--CB-[CG] |==|  0.80457
USER: genes 28 Torsion [CA]-CB--CG-[OD2] |==|  0.48770
ROOT
ATOM      1  C   TRP D 340      24.231  36.598  81.754  1.00 16.52 LIG 0.24  C 
ATOM      2 O    TRP D 340      23.360  36.954  82.551  1.00 16.60 LIG-0.27  OA
ATOM      3  N   THR D 341      24.147  36.807  80.447  1.00 13.22 LIG-0.34  N 
ATOM      4 H    THR D 341      24.761  36.566  79.894  1.00 13.22 LIG 0.16  HD
ENDROOT
BRANCH 3 5
ATOM      5  CA  THR D 341      23.015  37.460  79.806  1.00 12.53 LIG 0.20  C 
BRANCH 5 6
ATOM      6  C   THR D 341      21.710  36.789  80.229  1.00 12.10 LIG 0.24  C 
ATOM      7 O    THR D 341      20.710  37.454  80.495  1.00 10.92 LIG-0.27  OA
ATOM      8  N   HIS D 342      21.710  35.462  80.264  1.00 12.26 LIG-0.35  N 
ATOM      9 H    HIS D 342      22.384  34.973  80.051  1.00 12.26 LIG 0.16  HD
BRANCH 8 10
ATOM     10  CA  HIS D 342      20.526  34.717  80.680  1.00 12.78 LIG 0.18  C 
BRANCH 10 11
ATOM     11  C   HIS D 342      19.372  35.072  79.767  1.00 14.51 LIG 0.24  C 
ATOM     12  N   LEU D 343      19.408  34.578  78.532  1.00 15.48 LIG-0.35  N 
ATOM     13 H    LEU D 343      20.006  34.025  78.256  1.00 15.48 LIG 0.16  HD
ATOM     14 O    HIS D 342      18.439  35.782  80.185  1.00 16.02 LIG-0.27  OA
BRANCH 12 15
ATOM     15  CA  LEU D 343      18.413  34.944  77.522  1.00 16.72 LIG 0.18  C 
BRANCH 15 16
ATOM     16  C   LEU D 343      17.010  34.417  77.813  1.00 19.19 LIG 0.24  C 
ATOM     17  N   SER D 344      15.984  35.120  77.307  1.00 21.37 LIG-0.34  N 
ATOM     18 H    SER D 344      16.068  35.921  77.005  1.00 21.37 LIG 0.16  HD
ATOM     19 O    LEU D 343      16.864  33.398  78.469  1.00 19.56 LIG-0.27  OA
BRANCH 17 20
ATOM     20  CA  SER D 344      14.602  34.595  77.213  1.00 23.14 LIG 0.19  C 
BRANCH 20 21
ATOM     21  C   SER D 344      14.013  34.337  78.607  1.00 24.18 LIG 0.22  C 
ATOM     22 O    SER D 344      13.732  33.185  78.983  1.00 25.35 LIG-0.29  OA
ENDBRANCH 20 21
BRANCH 20 23
ATOM     23  CB  SER D 344      14.546  33.299  76.400  1.00 23.66 LIG 0.20  C 
BRANCH 23 24
ATOM     24 OG   SER D 344      15.151  33.466  75.116  1.00 25.03 LIG-0.40  OA
ATOM     25 HG   SER D 344      15.803  33.992  75.180  1.00 25.03 LIG 0.21  HD
ENDBRANCH 23 24
ENDBRANCH 20 23
ENDBRANCH 17 20
ENDBRANCH 15 16
BRANCH 15 26
ATOM     26  CB  LEU D 343      18.834  34.426  76.135  1.00 15.83 LIG 0.04  C 
BRANCH 26 27
ATOM     27  CG  LEU D 343      20.051  35.076  75.508  1.00 14.86 LIG-0.02  C 
ATOM     28  CD1 LEU D 343      20.565  36.190  76.406  1.00 12.95 LIG 0.01  C 
ATOM     29  CD2 LEU D 343      21.151  34.014  75.249  1.00 12.95 LIG 0.01  C 
ENDBRANCH 26 27
ENDBRANCH 15 26
ENDBRANCH 12 15
ENDBRANCH 10 11
BRANCH 10 30
ATOM     30  CB  HIS D 342      20.156  35.072  82.129  1.00 12.90 LIG 0.10  C 
BRANCH 30 31
ATOM     31  CG  HIS D 342      18.870  34.467  82.587  1.00 12.99 LIG 0.06  A 
ATOM     32  CD2 HIS D 342      18.443  33.181  82.552  1.00 12.88 LIG 0.14  A 
ATOM     33 NE2  HIS D 342      17.183  33.158  83.094  1.00 14.80 LIG-0.25  NA
ATOM     34  CE1 HIS D 342      16.841  34.382  83.445  1.00 13.21 LIG 0.23  A 
ATOM     35 ND1  HIS D 342      17.839  35.194  83.143  1.00 14.49 LIG-0.24  NA
ENDBRANCH 30 31
ENDBRANCH 10 30
ENDBRANCH 8 10
ENDBRANCH 5 6
BRANCH 5 36
ATOM     36  CB  THR D 341      23.164  37.424  78.267  1.00 12.70 LIG 0.15  C 
ATOM     37  CG2 THR D 341      22.511  38.654  77.607  1.00 14.15 LIG 0.04  C 
BRANCH 36 38
ATOM     38 OG1  THR D 341      24.557  37.366  77.932  1.00 14.08 LIG-0.39  OA
ATOM     39 HG1  THR D 341      24.905  36.694  78.296  1.00 14.08 LIG 0.21  HD
ENDBRANCH 36 38
ENDBRANCH 5 36
ENDBRANCH 3 5
BRANCH 1 40
ATOM     40  CA  TRP D 340      25.459  35.834  82.235  1.00 18.72 LIG 0.18  C 
BRANCH 40 41
ATOM     41  CB  TRP D 340      24.999  34.798  83.259  1.00 19.00 LIG 0.07  C 
BRANCH 41 42
ATOM     42  CG  TRP D 340      25.126  33.382  82.817  1.00 19.22 LIG-0.03  A 
ATOM     43  CD2 TRP D 340      25.756  32.325  83.537  1.00 20.18 LIG-0.00  A 
ATOM     44  CE3 TRP D 340      26.379  32.243  84.788  1.00 18.70 LIG 0.01  A 
ATOM     45  CE2 TRP D 340      25.680  31.167  82.731  1.00 18.84 LIG 0.04  A 
ATOM     46  CZ3 TRP D 340      26.906  31.019  85.193  1.00 20.55 LIG 0.00  A 
ATOM     47  CH2 TRP D 340      26.806  29.884  84.366  1.00 19.52 LIG 0.00  A 
ATOM     48  CZ2 TRP D 340      26.204  29.938  83.136  1.00 19.79 LIG 0.03  A 
ATOM     49  NE1 TRP D 340      25.029  31.508  81.573  1.00 21.77 LIG-0.36  N 
ATOM     50  CD1 TRP D 340      24.714  32.848  81.631  1.00 20.48 LIG 0.10  A 
ATOM     51 HE1  TRP D 340      24.847  30.977  80.922  1.00 21.77 LIG 0.17  HD
ENDBRANCH 41 42
ENDBRANCH 40 41
BRANCH 40 52
ATOM     52  N   TRP D 340      26.461  36.730  82.826  1.00 22.23 LIG-0.35  N 
ATOM     53  C   ASP D 339      27.367  37.380  82.097  1.00 26.49 LIG 0.24  C 
ATOM     54 O    ASP D 339      27.436  37.292  80.859  1.00 27.22 LIG-0.27  OA
ATOM     55 H    TRP D 340      26.407  36.795  83.681  1.00 22.23 LIG 0.16  HD
BRANCH 53 56
ATOM     56  CA  ASP D 339      28.352  38.266  82.868  1.00 29.46 LIG 0.19  C 
BRANCH 56 57
ATOM     57  CB  ASP D 339      29.104  37.415  83.894  1.00 30.27 LIG 0.15  C 
BRANCH 57 58
ATOM     58  CG  ASP D 339      28.401  37.351  85.254  1.00 32.94 LIG 0.17  C 
ATOM     59 OD1  ASP D 339      27.926  36.253  85.612  1.00 36.53 LIG-0.65  OA
ATOM     60 OD2  ASP D 339      28.309  38.390  85.955  1.00 35.99 LIG-0.65  OA
ENDBRANCH 57 58
ENDBRANCH 56 57
BRANCH 56 61
ATOM     61  N   ASP D 339      27.660  39.354  83.552  1.00 31.22 LIG-0.34  N 
ATOM     62  C   ASP D 338      27.539  40.581  83.049  1.00 32.92 LIG 0.26  C 
ATOM     63 O    ASP D 338      27.806  40.873  81.878  1.00 33.60 LIG-0.27  OA
ATOM     64 H    ASP D 339      27.335  39.127  84.315  1.00 31.22 LIG 0.16  HD
BRANCH 62 65
ATOM     65  CA  ASP D 338      27.007  41.639  84.016  1.00 33.82 LIG 0.41  C 
ATOM     66  N   ASP D 338      28.130  42.303  84.753  1.00 34.02 LIG 0.61  N 
BRANCH 65 67
ATOM     67  CB  ASP D 338      26.169  42.679  83.255  1.00 34.49 LIG 0.16  C 
BRANCH 67 68
ATOM     68  CG  ASP D 338      27.010  43.578  82.358  1.00 35.92 LIG 0.17  C 
ATOM     69 OD2  ASP D 338      26.422  44.403  81.631  1.00 39.23 LIG-0.65  OA
ATOM     70 OD1  ASP D 338      28.259  43.460  82.366  1.00 38.97 LIG-0.65  OA
ENDBRANCH 67 68
ENDBRANCH 65 67
ENDBRANCH 62 65
ENDBRANCH 56 61
ENDBRANCH 53 56
ENDBRANCH 40 52
ENDBRANCH 1 40
TORSDOF 27
ENDMDL
MODEL 51
USER: ADFR SOLUTION from run 45
USER: SCORE 20.890864 LL:  -6.060 LR: -17.085 RR:   0.000 FEB:  -9.031
USER: RMSD 12.090314
USER: SEED 44
USER: STATUS no improvement in best in 4 clusters for 5 generations
USER: GENES 29
USER: genes 0 Translation |==|  0.42842 0.45938 0.44392
USER: genes 1 Rotation |==|  0.32524 0.05520 0.61519 0.59135
USER: genes 2 Torsion [C]-N--CA-[CB] |==|  0.28862
USER: genes 3 Torsion [N]-CA--C-[N] |==|  0.39210
USER: genes 4 Torsion [C]-N--CA-[C] |==|  0.80998
USER: genes 5 Torsion [N]-CA--C-[N] |==|  0.37869
USER: genes 6 Torsion [C]-N--CA-[C] |==|  0.69155
USER: genes 7 Torsion [N]-CA--C-[N] |==|  0.73409
USER: genes 8 Torsion [C]-N--CA-[C] |==|  0.69477
USER: genes 9 Torsion [N]-CA--C-[O] |==|  0.79561
USER: genes 10 Torsion [N]-CA--CB-[OG] |==|  0.16758
USER: genes 11 Torsion [CA]-CB--OG-[HG] |==|  0.08469
USER: genes 12 Torsion [N]-CA--CB-[CG] |==|  0.84085
USER: genes 13 Torsion [CA]-CB--CG-[CD2] |==|  0.25798
USER: genes 14 Torsion [N]-CA--CB-[CG] |==|  0.48729
USER: genes 15 Torsion [CA]-CB--CG-[CD2] |==|  0.29521
USER: genes 16 Torsion [N]-CA--CB-[OG1] |==|  0.71750
USER: genes 17 Torsion [CA]-CB--OG1-[HG1] |==|  0.85359
USER: genes 18 Torsion [N]-C--CA-[N] |==|  0.06914
USER: genes 19 Torsion [C]-CA--CB-[CG] |==|  0.25352
USER: genes 20 Torsion [CA]-CB--CG-[CD2] |==|  0.70773
USER: genes 21 Torsion [C]-CA--N-[C] |==|  0.69649
USER: genes 22 Torsion [N]-C--CA-[N] |==|  0.05556
USER: genes 23 Torsion [C]-CA--CB-[CG] |==|  0.22497
USER: genes 24 Torsion [CA]-CB--CG-[OD1] |==|  0.54539
USER: genes 25 Torsion [C]-CA--N-[C] |==|  0.16535
USER: genes 26 Torsion [N]-C--CA-[N] |==|  0.98871
USER: genes 27 Torsion [C]-CA--CB-[CG] |==|  0.71838
USER: genes 28 Torsion [CA]-CB--CG-[OD2] |==|  0.12631
ROOT
ATOM      1  C   TRP D 340      21.034  35.111  78.594  1.00 16.52 LIG 0.24  C 
ATOM      2 O    TRP D 340      21.734  34.933  77.594  1.00 16.60 LIG-0.27  OA
ATOM      3  N   THR D 341      21.536  35.307  79.806  1.00 13.22 LIG-0.34  N 
ATOM      4 H    THR D 341      21.046  35.441  80.499  1.00 13.22 LIG 0.16  HD
ENDROOT
BRANCH 3 5
ATOM      5  CA  THR D 341      22.963  35.318  80.094  1.00 12.53 LIG 0.20  C 
BRANCH 5 6
ATOM      6  C   THR D 341      23.257  34.473  81.333  1.00 12.10 LIG 0.24  C 
ATOM      7 O    THR D 341      22.487  34.461  82.291  1.00 10.92 LIG-0.27  OA
ATOM      8  N   HIS D 342      24.363  33.740  81.302  1.00 12.26 LIG-0.35  N 
ATOM      9 H    HIS D 342      24.901  33.705  80.632  1.00 12.26 LIG 0.16  HD
BRANCH 8 10
ATOM     10  CA  HIS D 342      24.756  32.917  82.441  1.00 12.78 LIG 0.18  C 
BRANCH 10 11
ATOM     11  C   HIS D 342      25.153  33.819  83.590  1.00 14.51 LIG 0.24  C 
ATOM     12  N   LEU D 343      24.702  33.487  84.798  1.00 15.48 LIG-0.35  N 
ATOM     13 H    LEU D 343      24.265  32.766  84.963  1.00 15.48 LIG 0.16  HD
ATOM     14 O    HIS D 342      25.879  34.808  83.387  1.00 16.02 LIG-0.27  OA
BRANCH 12 15
ATOM     15  CA  LEU D 343      24.920  34.342  85.967  1.00 16.72 LIG 0.18  C 
BRANCH 15 16
ATOM     16  C   LEU D 343      25.883  33.753  86.995  1.00 19.19 LIG 0.24  C 
ATOM     17  N   SER D 344      25.334  33.090  88.027  1.00 21.37 LIG-0.34  N 
ATOM     18 H    SER D 344      24.500  33.146  88.228  1.00 21.37 LIG 0.16  HD
ATOM     19 O    LEU D 343      27.087  33.888  86.852  1.00 19.56 LIG-0.27  OA
BRANCH 17 20
ATOM     20  CA  SER D 344      26.102  32.196  88.923  1.00 23.14 LIG 0.19  C 
BRANCH 20 21
ATOM     21  C   SER D 344      25.716  30.727  88.700  1.00 24.18 LIG 0.22  C 
ATOM     22 O    SER D 344      24.628  30.279  89.102  1.00 25.35 LIG-0.29  OA
ENDBRANCH 20 21
BRANCH 20 23
ATOM     23  CB  SER D 344      25.881  32.551  90.395  1.00 23.66 LIG 0.20  C 
BRANCH 23 24
ATOM     24 OG   SER D 344      24.504  32.431  90.757  1.00 25.03 LIG-0.40  OA
ATOM     25 HG   SER D 344      24.144  31.831  90.292  1.00 25.03 LIG 0.21  HD
ENDBRANCH 23 24
ENDBRANCH 20 23
ENDBRANCH 17 20
ENDBRANCH 15 16
BRANCH 15 26
ATOM     26  CB  LEU D 343      23.587  34.633  86.679  1.00 15.83 LIG 0.04  C 
BRANCH 26 27
ATOM     27  CG  LEU D 343      22.500  35.284  85.847  1.00 14.86 LIG-0.02  C 
ATOM     28  CD1 LEU D 343      23.124  36.155  84.768  1.00 12.95 LIG 0.01  C 
ATOM     29  CD2 LEU D 343      21.580  34.200  85.228  1.00 12.95 LIG 0.01  C 
ENDBRANCH 26 27
ENDBRANCH 15 26
ENDBRANCH 12 15
ENDBRANCH 10 11
BRANCH 10 30
ATOM     30  CB  HIS D 342      25.945  32.020  82.063  1.00 12.90 LIG 0.10  C 
BRANCH 30 31
ATOM     31  CG  HIS D 342      26.482  31.220  83.205  1.00 12.99 LIG 0.06  A 
ATOM     32  CD2 HIS D 342      26.371  29.898  83.479  1.00 12.88 LIG 0.14  A 
ATOM     33 NE2  HIS D 342      27.044  29.671  84.653  1.00 14.80 LIG-0.25  NA
ATOM     34  CE1 HIS D 342      27.546  30.808  85.091  1.00 13.21 LIG 0.23  A 
ATOM     35 ND1  HIS D 342      27.216  31.762  84.239  1.00 14.49 LIG-0.24  NA
ENDBRANCH 30 31
ENDBRANCH 10 30
ENDBRANCH 8 10
ENDBRANCH 5 6
BRANCH 5 36
ATOM     36  CB  THR D 341      23.467  36.765  80.298  1.00 12.70 LIG 0.15  C 
ATOM     37  CG2 THR D 341      24.417  36.868  81.507  1.00 14.15 LIG 0.04  C 
BRANCH 36 38
ATOM     38 OG1  THR D 341      24.136  37.202  79.107  1.00 14.08 LIG-0.39  OA
ATOM     39 HG1  THR D 341      24.723  36.641  78.894  1.00 14.08 LIG 0.21  HD
ENDBRANCH 36 38
ENDBRANCH 5 36
ENDBRANCH 3 5
BRANCH 1 40
ATOM     40  CA  TRP D 340      19.513  35.062  78.497  1.00 18.72 LIG 0.18  C 
BRANCH 40 41
ATOM     41  CB  TRP D 340      19.107  35.657  77.150  1.00 19.00 LIG 0.07  C 
BRANCH 41 42
ATOM     42  CG  TRP D 340      18.987  34.672  76.040  1.00 19.22 LIG-0.03  A 
ATOM     43  CD2 TRP D 340      19.908  34.490  74.968  1.00 20.18 LIG-0.00  A 
ATOM     44  CE3 TRP D 340      21.133  35.081  74.633  1.00 18.70 LIG 0.01  A 
ATOM     45  CE2 TRP D 340      19.380  33.482  74.129  1.00 18.84 LIG 0.04  A 
ATOM     46  CZ3 TRP D 340      21.786  34.655  73.478  1.00 20.55 LIG 0.00  A 
ATOM     47  CH2 TRP D 340      21.233  33.643  72.671  1.00 19.52 LIG 0.00  A 
ATOM     48  CZ2 TRP D 340      20.035  33.050  72.975  1.00 19.79 LIG 0.03  A 
ATOM     49  NE1 TRP D 340      18.191  33.070  74.674  1.00 21.77 LIG-0.36  N 
ATOM     50  CD1 TRP D 340      17.957  33.805  75.816  1.00 20.48 LIG 0.10  A 
ATOM     51 HE1  TRP D 340      17.677  32.457  74.357  1.00 21.77 LIG 0.17  HD
ENDBRANCH 41 42
ENDBRANCH 40 41
BRANCH 40 52
ATOM     52  N   TRP D 340      18.874  35.796  79.595  1.00 22.23 LIG-0.35  N 
ATOM     53  C   ASP D 339      18.218  35.188  80.583  1.00 26.49 LIG 0.24  C 
ATOM     54 O    ASP D 339      18.099  33.953  80.664  1.00 27.22 LIG-0.27  OA
ATOM     55 H    TRP D 340      18.962  36.649  79.542  1.00 22.23 LIG 0.16  HD
BRANCH 53 56
ATOM     56  CA  ASP D 339      17.594  36.098  81.647  1.00 29.46 LIG 0.19  C 
BRANCH 56 57
ATOM     57  CB  ASP D 339      16.229  35.539  82.057  1.00 30.27 LIG 0.15  C 
BRANCH 57 58
ATOM     58  CG  ASP D 339      16.328  34.401  83.077  1.00 32.94 LIG 0.17  C 
ATOM     59 OD1  ASP D 339      15.323  33.677  83.241  1.00 36.53 LIG-0.65  OA
ATOM     60 OD2  ASP D 339      17.393  34.236  83.724  1.00 35.99 LIG-0.65  OA
ENDBRANCH 57 58
ENDBRANCH 56 57
BRANCH 56 61
ATOM     61  N   ASP D 339      17.430  37.460  81.146  1.00 31.22 LIG-0.34  N 
ATOM     62  C   ASP D 338      16.696  37.769  80.078  1.00 32.92 LIG 0.26  C 
ATOM     63 O    ASP D 338      15.915  36.982  79.532  1.00 33.60 LIG-0.27  OA
ATOM     64 H    ASP D 339      17.855  38.048  81.608  1.00 31.22 LIG 0.16  HD
BRANCH 62 65
ATOM     65  CA  ASP D 338      16.851  39.200  79.565  1.00 33.82 LIG 0.41  C 
ATOM     66  N   ASP D 338      17.750  39.995  80.462  1.00 34.02 LIG 0.61  N 
BRANCH 65 67
ATOM     67  CB  ASP D 338      17.390  39.193  78.126  1.00 34.49 LIG 0.16  C 
BRANCH 67 68
ATOM     68  CG  ASP D 338      18.880  39.500  78.048  1.00 35.92 LIG 0.17  C 
ATOM     69 OD2  ASP D 338      19.644  38.926  78.850  1.00 39.23 LIG-0.65  OA
ATOM     70 OD1  ASP D 338      19.295  40.323  77.197  1.00 38.97 LIG-0.65  OA
ENDBRANCH 67 68
ENDBRANCH 65 67
ENDBRANCH 62 65
ENDBRANCH 56 61
ENDBRANCH 53 56
ENDBRANCH 40 52
ENDBRANCH 1 40
TORSDOF 27
ENDMDL
MODEL 52
USER: ADFR SOLUTION from run 152
USER: SCORE 19.311291 LL:  -5.091 LR: -17.086 RR:   0.000 FEB:  -9.031
USER: RMSD 12.573845
USER: SEED 151
USER: STATUS no improvement in best in 6 clusters for 5 generations
USER: GENES 29
USER: genes 0 Translation |==|  0.42098 0.46376 0.40649
USER: genes 1 Rotation |==|  0.68741 0.86579 0.21597 0.52010
USER: genes 2 Torsion [C]-N--CA-[CB] |==|  0.36142
USER: genes 3 Torsion [N]-CA--C-[N] |==|  0.44730
USER: genes 4 Torsion [C]-N--CA-[C] |==|  0.61884
USER: genes 5 Torsion [N]-CA--C-[N] |==|  0.86869
USER: genes 6 Torsion [C]-N--CA-[C] |==|  0.59289
USER: genes 7 Torsion [N]-CA--C-[N] |==|  0.41456
USER: genes 8 Torsion [C]-N--CA-[C] |==|  0.82520
USER: genes 9 Torsion [N]-CA--C-[O] |==|  0.46505
USER: genes 10 Torsion [N]-CA--CB-[OG] |==|  0.69923
USER: genes 11 Torsion [CA]-CB--OG-[HG] |==|  0.83906
USER: genes 12 Torsion [N]-CA--CB-[CG] |==|  0.45629
USER: genes 13 Torsion [CA]-CB--CG-[CD2] |==|  0.69726
USER: genes 14 Torsion [N]-CA--CB-[CG] |==|  0.57297
USER: genes 15 Torsion [CA]-CB--CG-[CD2] |==|  0.57595
USER: genes 16 Torsion [N]-CA--CB-[OG1] |==|  0.88258
USER: genes 17 Torsion [CA]-CB--OG1-[HG1] |==|  0.13259
USER: genes 18 Torsion [N]-C--CA-[N] |==|  0.94562
USER: genes 19 Torsion [C]-CA--CB-[CG] |==|  0.28551
USER: genes 20 Torsion [CA]-CB--CG-[CD2] |==|  0.28029
USER: genes 21 Torsion [C]-CA--N-[C] |==|  0.67682
USER: genes 22 Torsion [N]-C--CA-[N] |==|  0.33334
USER: genes 23 Torsion [C]-CA--CB-[CG] |==|  0.79271
USER: genes 24 Torsion [CA]-CB--CG-[OD1] |==|  0.29084
USER: genes 25 Torsion [C]-CA--N-[C] |==|  0.83305
USER: genes 26 Torsion [N]-C--CA-[N] |==|  0.50145
USER: genes 27 Torsion [C]-CA--CB-[CG] |==|  0.75927
USER: genes 28 Torsion [CA]-CB--CG-[OD2] |==|  0.79366
ROOT
ATOM      1  C   TRP D 340      20.827  35.196  77.583  1.00 16.52 LIG 0.24  C 
ATOM      2 O    TRP D 340      21.657  34.404  77.129  1.00 16.60 LIG-0.27  OA
ATOM      3  N   THR D 341      21.161  36.294  78.249  1.00 13.22 LIG-0.34  N 
ATOM      4 H    THR D 341      20.580  36.850  78.556  1.00 13.22 LIG 0.16  HD
ENDROOT
BRANCH 3 5
ATOM      5  CA  THR D 341      22.536  36.679  78.531  1.00 12.53 LIG 0.20  C 
BRANCH 5 6
ATOM      6  C   THR D 341      22.847  36.475  80.013  1.00 12.10 LIG 0.24  C 
ATOM      7 O    THR D 341      21.945  36.355  80.841  1.00 10.92 LIG-0.27  OA
ATOM      8  N   HIS D 342      24.130  36.406  80.346  1.00 12.26 LIG-0.35  N 
ATOM      9 H    HIS D 342      24.778  36.453  79.783  1.00 12.26 LIG 0.16  HD
BRANCH 8 10
ATOM     10  CA  HIS D 342      24.542  36.240  81.736  1.00 12.78 LIG 0.18  C 
BRANCH 10 11
ATOM     11  C   HIS D 342      25.713  37.158  82.018  1.00 14.51 LIG 0.24  C 
ATOM     12  N   LEU D 343      26.704  37.158  81.131  1.00 15.48 LIG-0.35  N 
ATOM     13 H    LEU D 343      26.682  36.723  80.389  1.00 15.48 LIG 0.16  HD
ATOM     14 O    HIS D 342      25.711  37.879  83.033  1.00 16.02 LIG-0.27  OA
BRANCH 12 15
ATOM     15  CA  LEU D 343      27.940  37.913  81.351  1.00 16.72 LIG 0.18  C 
BRANCH 15 16
ATOM     16  C   LEU D 343      28.563  38.469  80.073  1.00 19.19 LIG 0.24  C 
ATOM     17  N   SER D 344      29.248  39.619  80.186  1.00 21.37 LIG-0.34  N 
ATOM     18 H    SER D 344      29.190  40.133  80.873  1.00 21.37 LIG 0.16  HD
ATOM     19 O    LEU D 343      28.435  37.868  79.019  1.00 19.56 LIG-0.27  OA
BRANCH 17 20
ATOM     20  CA  SER D 344      30.172  40.125  79.145  1.00 23.14 LIG 0.19  C 
BRANCH 20 21
ATOM     21  C   SER D 344      31.351  39.163  78.939  1.00 24.18 LIG 0.22  C 
ATOM     22 O    SER D 344      32.111  39.278  77.962  1.00 25.35 LIG-0.29  OA
ENDBRANCH 20 21
BRANCH 20 23
ATOM     23  CB  SER D 344      30.715  41.511  79.499  1.00 23.66 LIG 0.20  C 
BRANCH 23 24
ATOM     24 OG   SER D 344      30.147  42.520  78.661  1.00 25.03 LIG-0.40  OA
ATOM     25 HG   SER D 344      30.311  42.341  77.857  1.00 25.03 LIG 0.21  HD
ENDBRANCH 23 24
ENDBRANCH 20 23
ENDBRANCH 17 20
ENDBRANCH 15 16
BRANCH 15 26
ATOM     26  CB  LEU D 343      28.994  37.035  82.048  1.00 15.83 LIG 0.04  C 
BRANCH 26 27
ATOM     27  CG  LEU D 343      30.424  37.534  82.015  1.00 14.86 LIG-0.02  C 
ATOM     28  CD1 LEU D 343      31.000  37.551  83.422  1.00 12.95 LIG 0.01  C 
ATOM     29  CD2 LEU D 343      31.278  36.649  81.071  1.00 12.95 LIG 0.01  C 
ENDBRANCH 26 27
ENDBRANCH 15 26
ENDBRANCH 12 15
ENDBRANCH 10 11
BRANCH 10 30
ATOM     30  CB  HIS D 342      24.962  34.785  81.995  1.00 12.90 LIG 0.10  C 
BRANCH 30 31
ATOM     31  CG  HIS D 342      24.802  34.358  83.418  1.00 12.99 LIG 0.06  A 
ATOM     32  CD2 HIS D 342      25.468  33.418  84.131  1.00 12.88 LIG 0.14  A 
ATOM     33 NE2  HIS D 342      24.933  33.415  85.395  1.00 14.80 LIG-0.25  NA
ATOM     34  CE1 HIS D 342      23.971  34.314  85.459  1.00 13.21 LIG 0.23  A 
ATOM     35 ND1  HIS D 342      23.866  34.893  84.276  1.00 14.49 LIG-0.24  NA
ENDBRANCH 30 31
ENDBRANCH 10 30
ENDBRANCH 8 10
ENDBRANCH 5 6
BRANCH 5 36
ATOM     36  CB  THR D 341      22.785  38.151  78.127  1.00 12.70 LIG 0.15  C 
ATOM     37  CG2 THR D 341      24.290  38.467  78.042  1.00 14.15 LIG 0.04  C 
BRANCH 36 38
ATOM     38 OG1  THR D 341      22.156  38.403  76.863  1.00 14.08 LIG-0.39  OA
ATOM     39 HG1  THR D 341      21.370  38.107  76.878  1.00 14.08 LIG 0.21  HD
ENDBRANCH 36 38
ENDBRANCH 5 36
ENDBRANCH 3 5
BRANCH 1 40
ATOM     40  CA  TRP D 340      19.334  34.921  77.446  1.00 18.72 LIG 0.18  C 
BRANCH 40 41
ATOM     41  CB  TRP D 340      18.908  35.324  76.035  1.00 19.00 LIG 0.07  C 
BRANCH 41 42
ATOM     42  CG  TRP D 340      18.717  34.189  75.091  1.00 19.22 LIG-0.03  A 
ATOM     43  CD2 TRP D 340      17.472  33.612  74.704  1.00 20.18 LIG-0.00  A 
ATOM     44  CE3 TRP D 340      16.136  33.897  75.011  1.00 18.70 LIG 0.01  A 
ATOM     45  CE2 TRP D 340      17.761  32.541  73.828  1.00 18.84 LIG 0.04  A 
ATOM     46  CZ3 TRP D 340      15.137  33.108  74.444  1.00 20.55 LIG 0.00  A 
ATOM     47  CH2 TRP D 340      15.463  32.054  73.571  1.00 19.52 LIG 0.00  A 
ATOM     48  CZ2 TRP D 340      16.762  31.752  73.255  1.00 19.79 LIG 0.03  A 
ATOM     49  NE1 TRP D 340      19.124  32.475  73.690  1.00 21.77 LIG-0.36  N 
ATOM     50  CD1 TRP D 340      19.689  33.462  74.466  1.00 20.48 LIG 0.10  A 
ATOM     51 HE1  TRP D 340      19.553  31.913  73.201  1.00 21.77 LIG 0.17  HD
ENDBRANCH 41 42
ENDBRANCH 40 41
BRANCH 40 52
ATOM     52  N   TRP D 340      18.551  35.655  78.447  1.00 22.23 LIG-0.35  N 
ATOM     53  C   ASP D 339      17.832  35.046  79.388  1.00 26.49 LIG 0.24  C 
ATOM     54 O    ASP D 339      17.770  33.810  79.505  1.00 27.22 LIG-0.27  OA
ATOM     55 H    TRP D 340      18.600  36.510  78.368  1.00 22.23 LIG 0.16  HD
BRANCH 53 56
ATOM     56  CA  ASP D 339      17.059  35.956  80.349  1.00 29.46 LIG 0.19  C 
BRANCH 56 57
ATOM     57  CB  ASP D 339      17.550  35.721  81.780  1.00 30.27 LIG 0.15  C 
BRANCH 57 58
ATOM     58  CG  ASP D 339      17.049  34.404  82.380  1.00 32.94 LIG 0.17  C 
ATOM     59 OD1  ASP D 339      17.859  33.457  82.466  1.00 36.53 LIG-0.65  OA
ATOM     60 OD2  ASP D 339      15.852  34.305  82.749  1.00 35.99 LIG-0.65  OA
ENDBRANCH 57 58
ENDBRANCH 56 57
BRANCH 56 61
ATOM     61  N   ASP D 339      15.623  35.697  80.280  1.00 31.22 LIG-0.34  N 
ATOM     62  C   ASP D 338      14.902  35.836  79.169  1.00 32.92 LIG 0.26  C 
ATOM     63 O    ASP D 338      15.395  35.989  78.046  1.00 33.60 LIG-0.27  OA
ATOM     64 H    ASP D 339      15.285  35.444  81.029  1.00 31.22 LIG 0.16  HD
BRANCH 62 65
ATOM     65  CA  ASP D 338      13.386  35.764  79.355  1.00 33.82 LIG 0.41  C 
ATOM     66  N   ASP D 338      12.680  35.920  78.043  1.00 34.02 LIG 0.61  N 
BRANCH 65 67
ATOM     67  CB  ASP D 338      12.997  34.437  80.026  1.00 34.49 LIG 0.16  C 
BRANCH 67 68
ATOM     68  CG  ASP D 338      12.799  33.303  79.028  1.00 35.92 LIG 0.17  C 
ATOM     69 OD2  ASP D 338      11.766  33.304  78.329  1.00 39.23 LIG-0.65  OA
ATOM     70 OD1  ASP D 338      13.667  32.400  78.942  1.00 38.97 LIG-0.65  OA
ENDBRANCH 67 68
ENDBRANCH 65 67
ENDBRANCH 62 65
ENDBRANCH 56 61
ENDBRANCH 53 56
ENDBRANCH 40 52
ENDBRANCH 1 40
TORSDOF 27
ENDMDL
MODEL 53
USER: ADFR SOLUTION from run 20
USER: SCORE 19.972005 LL:  -5.845 LR: -17.068 RR:   0.000 FEB:  -9.014
USER: RMSD 3.558400
USER: SEED 19
USER: STATUS 1 or 2 clusters left
USER: GENES 29
USER: genes 0 Translation |==|  0.53515 0.53188 0.56637
USER: genes 1 Rotation |==|  0.52721 0.54376 0.51553 0.99710
USER: genes 2 Torsion [C]-N--CA-[CB] |==|  0.47513
USER: genes 3 Torsion [N]-CA--C-[N] |==|  0.90880
USER: genes 4 Torsion [C]-N--CA-[C] |==|  0.20459
USER: genes 5 Torsion [N]-CA--C-[N] |==|  0.98533
USER: genes 6 Torsion [C]-N--CA-[C] |==|  0.56929
USER: genes 7 Torsion [N]-CA--C-[N] |==|  0.29846
USER: genes 8 Torsion [C]-N--CA-[C] |==|  0.17058
USER: genes 9 Torsion [N]-CA--C-[O] |==|  0.73243
USER: genes 10 Torsion [N]-CA--CB-[OG] |==|  0.91379
USER: genes 11 Torsion [CA]-CB--OG-[HG] |==|  0.01611
USER: genes 12 Torsion [N]-CA--CB-[CG] |==|  0.66217
USER: genes 13 Torsion [CA]-CB--CG-[CD2] |==|  0.34908
USER: genes 14 Torsion [N]-CA--CB-[CG] |==|  0.44794
USER: genes 15 Torsion [CA]-CB--CG-[CD2] |==|  0.21689
USER: genes 16 Torsion [N]-CA--CB-[OG1] |==|  0.88370
USER: genes 17 Torsion [CA]-CB--OG1-[HG1] |==|  0.14537
USER: genes 18 Torsion [N]-C--CA-[N] |==|  0.28592
USER: genes 19 Torsion [C]-CA--CB-[CG] |==|  0.42093
USER: genes 20 Torsion [CA]-CB--CG-[CD2] |==|  0.86884
USER: genes 21 Torsion [C]-CA--N-[C] |==|  0.82778
USER: genes 22 Torsion [N]-C--CA-[N] |==|  0.97037
USER: genes 23 Torsion [C]-CA--CB-[CG] |==|  0.23019
USER: genes 24 Torsion [CA]-CB--CG-[OD1] |==|  0.89831
USER: genes 25 Torsion [C]-CA--N-[C] |==|  0.81579
USER: genes 26 Torsion [N]-C--CA-[N] |==|  0.62586
USER: genes 27 Torsion [C]-CA--CB-[CG] |==|  0.80512
USER: genes 28 Torsion [CA]-CB--CG-[OD2] |==|  0.53062
ROOT
ATOM      1  C   TRP D 340      23.995  36.525  81.900  1.00 16.52 LIG 0.24  C 
ATOM      2 O    TRP D 340      23.290  37.206  82.648  1.00 16.60 LIG-0.27  OA
ATOM      3  N   THR D 341      23.769  36.406  80.598  1.00 13.22 LIG-0.34  N 
ATOM      4 H    THR D 341      24.268  35.937  80.077  1.00 13.22 LIG 0.16  HD
ENDROOT
BRANCH 3 5
ATOM      5  CA  THR D 341      22.659  37.050  79.912  1.00 12.53 LIG 0.20  C 
BRANCH 5 6
ATOM      6  C   THR D 341      21.332  36.456  80.382  1.00 12.10 LIG 0.24  C 
ATOM      7 O    THR D 341      20.309  37.137  80.422  1.00 10.92 LIG-0.27  OA
ATOM      8  N   HIS D 342      21.342  35.170  80.712  1.00 12.26 LIG-0.35  N 
ATOM      9 H    HIS D 342      22.034  34.663  80.661  1.00 12.26 LIG 0.16  HD
BRANCH 8 10
ATOM     10  CA  HIS D 342      20.137  34.506  81.199  1.00 12.78 LIG 0.18  C 
BRANCH 10 11
ATOM     11  C   HIS D 342      19.186  34.293  80.041  1.00 14.51 LIG 0.24  C 
ATOM     12  N   LEU D 343      19.537  34.817  78.870  1.00 15.48 LIG-0.35  N 
ATOM     13 H    LEU D 343      20.293  35.203  78.726  1.00 15.48 LIG 0.16  HD
ATOM     14 O    HIS D 342      18.138  33.641  80.204  1.00 16.02 LIG-0.27  OA
BRANCH 12 15
ATOM     15  CA  LEU D 343      18.649  34.779  77.706  1.00 16.72 LIG 0.18  C 
BRANCH 15 16
ATOM     16  C   LEU D 343      19.377  34.855  76.366  1.00 19.19 LIG 0.24  C 
ATOM     17  N   SER D 344      19.427  33.725  75.642  1.00 21.37 LIG-0.34  N 
ATOM     18 H    SER D 344      19.246  32.950  75.969  1.00 21.37 LIG 0.16  HD
ATOM     19 O    LEU D 343      19.868  35.908  75.997  1.00 19.56 LIG-0.27  OA
BRANCH 17 20
ATOM     20  CA  SER D 344      19.797  33.690  74.208  1.00 23.14 LIG 0.19  C 
BRANCH 20 21
ATOM     21  C   SER D 344      21.225  34.209  73.994  1.00 24.18 LIG 0.22  C 
ATOM     22 O    SER D 344      21.438  35.390  73.668  1.00 25.35 LIG-0.29  OA
ENDBRANCH 20 21
BRANCH 20 23
ATOM     23  CB  SER D 344      18.832  34.518  73.358  1.00 23.66 LIG 0.20  C 
BRANCH 23 24
ATOM     24 OG   SER D 344      17.517  34.519  73.918  1.00 25.03 LIG-0.40  OA
ATOM     25 HG   SER D 344      17.529  34.127  74.661  1.00 25.03 LIG 0.21  HD
ENDBRANCH 23 24
ENDBRANCH 20 23
ENDBRANCH 17 20
ENDBRANCH 15 16
BRANCH 15 26
ATOM     26  CB  LEU D 343      17.637  35.937  77.761  1.00 15.83 LIG 0.04  C 
BRANCH 26 27
ATOM     27  CG  LEU D 343      16.169  35.557  77.756  1.00 14.86 LIG-0.02  C 
ATOM     28  CD1 LEU D 343      16.024  34.044  77.767  1.00 12.95 LIG 0.01  C 
ATOM     29  CD2 LEU D 343      15.448  36.196  78.971  1.00 12.95 LIG 0.01  C 
ENDBRANCH 26 27
ENDBRANCH 15 26
ENDBRANCH 12 15
ENDBRANCH 10 11
BRANCH 10 30
ATOM     30  CB  HIS D 342      19.451  35.369  82.270  1.00 12.90 LIG 0.10  C 
BRANCH 30 31
ATOM     31  CG  HIS D 342      18.020  35.011  82.505  1.00 12.99 LIG 0.06  A 
ATOM     32  CD2 HIS D 342      17.476  33.988  83.208  1.00 12.88 LIG 0.14  A 
ATOM     33 NE2  HIS D 342      16.113  34.108  83.108  1.00 14.80 LIG-0.25  NA
ATOM     34  CE1 HIS D 342      15.825  35.160  82.367  1.00 13.21 LIG 0.23  A 
ATOM     35 ND1  HIS D 342      16.959  35.719  81.984  1.00 14.49 LIG-0.24  NA
ENDBRANCH 30 31
ENDBRANCH 10 30
ENDBRANCH 8 10
ENDBRANCH 5 6
BRANCH 5 36
ATOM     36  CB  THR D 341      22.803  36.898  78.379  1.00 12.70 LIG 0.15  C 
ATOM     37  CG2 THR D 341      21.894  37.887  77.625  1.00 14.15 LIG 0.04  C 
BRANCH 36 38
ATOM     38 OG1  THR D 341      24.173  37.110  78.014  1.00 14.08 LIG-0.39  OA
ATOM     39 HG1  THR D 341      24.667  36.614  78.478  1.00 14.08 LIG 0.21  HD
ENDBRANCH 36 38
ENDBRANCH 5 36
ENDBRANCH 3 5
BRANCH 1 40
ATOM     40  CA  TRP D 340      25.165  35.719  82.454  1.00 18.72 LIG 0.18  C 
BRANCH 40 41
ATOM     41  CB  TRP D 340      24.707  35.056  83.753  1.00 19.00 LIG 0.07  C 
BRANCH 41 42
ATOM     42  CG  TRP D 340      25.396  33.777  84.079  1.00 19.22 LIG-0.03  A 
ATOM     43  CD2 TRP D 340      25.622  32.687  83.189  1.00 20.18 LIG-0.00  A 
ATOM     44  CE3 TRP D 340      25.340  32.469  81.835  1.00 18.70 LIG 0.01  A 
ATOM     45  CE2 TRP D 340      26.270  31.672  83.927  1.00 18.84 LIG 0.04  A 
ATOM     46  CZ3 TRP D 340      25.706  31.252  81.264  1.00 20.55 LIG 0.00  A 
ATOM     47  CH2 TRP D 340      26.356  30.266  82.029  1.00 19.52 LIG 0.00  A 
ATOM     48  CZ2 TRP D 340      26.642  30.453  83.357  1.00 19.79 LIG 0.03  A 
ATOM     49  NE1 TRP D 340      26.432  32.130  85.210  1.00 21.77 LIG-0.36  N 
ATOM     50  CD1 TRP D 340      25.888  33.393  85.293  1.00 20.48 LIG 0.10  A 
ATOM     51 HE1  TRP D 340      26.809  31.701  85.854  1.00 21.77 LIG 0.17  HD
ENDBRANCH 41 42
ENDBRANCH 40 41
BRANCH 40 52
ATOM     52  N   TRP D 340      26.341  36.563  82.696  1.00 22.23 LIG-0.35  N 
ATOM     53  C   ASP D 339      26.968  37.222  81.723  1.00 26.49 LIG 0.24  C 
ATOM     54 O    ASP D 339      26.608  37.186  80.533  1.00 27.22 LIG-0.27  OA
ATOM     55 H    TRP D 340      26.585  36.592  83.520  1.00 22.23 LIG 0.16  HD
BRANCH 53 56
ATOM     56  CA  ASP D 339      28.190  38.048  82.138  1.00 29.46 LIG 0.19  C 
BRANCH 56 57
ATOM     57  CB  ASP D 339      29.459  37.392  81.588  1.00 30.27 LIG 0.15  C 
BRANCH 57 58
ATOM     58  CG  ASP D 339      29.746  37.766  80.130  1.00 32.94 LIG 0.17  C 
ATOM     59 OD1  ASP D 339      28.771  37.897  79.360  1.00 36.53 LIG-0.65  OA
ATOM     60 OD2  ASP D 339      30.934  37.913  79.749  1.00 35.99 LIG-0.65  OA
ENDBRANCH 57 58
ENDBRANCH 56 57
BRANCH 56 61
ATOM     61  N   ASP D 339      28.288  38.152  83.591  1.00 31.22 LIG-0.34  N 
ATOM     62  C   ASP D 338      27.404  38.804  84.345  1.00 32.92 LIG 0.26  C 
ATOM     63 O    ASP D 338      26.311  39.202  83.930  1.00 33.60 LIG-0.27  OA
ATOM     64 H    ASP D 339      28.975  37.750  83.917  1.00 31.22 LIG 0.16  HD
BRANCH 62 65
ATOM     65  CA  ASP D 338      27.810  39.014  85.803  1.00 33.82 LIG 0.41  C 
ATOM     66  N   ASP D 338      26.674  38.692  86.725  1.00 34.02 LIG 0.61  N 
BRANCH 65 67
ATOM     67  CB  ASP D 338      29.041  38.156  86.140  1.00 34.49 LIG 0.16  C 
BRANCH 67 68
ATOM     68  CG  ASP D 338      28.730  36.665  86.187  1.00 35.92 LIG 0.17  C 
ATOM     69 OD2  ASP D 338      29.595  35.896  86.652  1.00 39.23 LIG-0.65  OA
ATOM     70 OD1  ASP D 338      27.628  36.252  85.751  1.00 38.97 LIG-0.65  OA
ENDBRANCH 67 68
ENDBRANCH 65 67
ENDBRANCH 62 65
ENDBRANCH 56 61
ENDBRANCH 53 56
ENDBRANCH 40 52
ENDBRANCH 1 40
TORSDOF 27
ENDMDL
MODEL 54
USER: ADFR SOLUTION from run 72
USER: SCORE 21.850594 LL:  -6.631 LR: -17.014 RR:   0.000 FEB:  -8.960
USER: RMSD 11.587722
USER: SEED 71
USER: STATUS searching
USER: GENES 29
USER: genes 0 Translation |==|  0.41923 0.44955 0.45263
USER: genes 1 Rotation |==|  0.34918 0.05554 0.63166 0.61125
USER: genes 2 Torsion [C]-N--CA-[CB] |==|  0.27497
USER: genes 3 Torsion [N]-CA--C-[N] |==|  0.36703
USER: genes 4 Torsion [C]-N--CA-[C] |==|  0.83145
USER: genes 5 Torsion [N]-CA--C-[N] |==|  0.38222
USER: genes 6 Torsion [C]-N--CA-[C] |==|  0.66050
USER: genes 7 Torsion [N]-CA--C-[N] |==|  0.81764
USER: genes 8 Torsion [C]-N--CA-[C] |==|  0.83506
USER: genes 9 Torsion [N]-CA--C-[O] |==|  0.06559
USER: genes 10 Torsion [N]-CA--CB-[OG] |==|  0.94926
USER: genes 11 Torsion [CA]-CB--OG-[HG] |==|  0.53085
USER: genes 12 Torsion [N]-CA--CB-[CG] |==|  0.10507
USER: genes 13 Torsion [CA]-CB--CG-[CD2] |==|  0.72719
USER: genes 14 Torsion [N]-CA--CB-[CG] |==|  0.54864
USER: genes 15 Torsion [CA]-CB--CG-[CD2] |==|  0.24669
USER: genes 16 Torsion [N]-CA--CB-[OG1] |==|  0.68981
USER: genes 17 Torsion [CA]-CB--OG1-[HG1] |==|  0.88166
USER: genes 18 Torsion [N]-C--CA-[N] |==|  0.04344
USER: genes 19 Torsion [C]-CA--CB-[CG] |==|  0.29482
USER: genes 20 Torsion [CA]-CB--CG-[CD2] |==|  0.76194
USER: genes 21 Torsion [C]-CA--N-[C] |==|  0.69005
USER: genes 22 Torsion [N]-C--CA-[N] |==|  0.90699
USER: genes 23 Torsion [C]-CA--CB-[CG] |==|  0.31448
USER: genes 24 Torsion [CA]-CB--CG-[OD1] |==|  0.17637
USER: genes 25 Torsion [C]-CA--N-[C] |==|  0.80212
USER: genes 26 Torsion [N]-C--CA-[N] |==|  0.55021
USER: genes 27 Torsion [C]-CA--CB-[CG] |==|  0.81994
USER: genes 28 Torsion [CA]-CB--CG-[OD2] |==|  0.77624
ROOT
ATOM      1  C   TRP D 340      20.779  34.919  78.829  1.00 16.52 LIG 0.24  C 
ATOM      2 O    TRP D 340      21.370  34.778  77.756  1.00 16.60 LIG-0.27  OA
ATOM      3  N   THR D 341      21.400  35.176  79.973  1.00 13.22 LIG-0.34  N 
ATOM      4 H    THR D 341      20.984  35.283  80.717  1.00 13.22 LIG 0.16  HD
ENDROOT
BRANCH 3 5
ATOM      5  CA  THR D 341      22.845  35.302  80.093  1.00 12.53 LIG 0.20  C 
BRANCH 5 6
ATOM      6  C   THR D 341      23.332  34.607  81.364  1.00 12.10 LIG 0.24  C 
ATOM      7 O    THR D 341      22.763  34.780  82.440  1.00 10.92 LIG-0.27  OA
ATOM      8  N   HIS D 342      24.373  33.795  81.234  1.00 12.26 LIG-0.35  N 
ATOM      9 H    HIS D 342      24.768  33.630  80.488  1.00 12.26 LIG 0.16  HD
BRANCH 8 10
ATOM     10  CA  HIS D 342      24.938  33.100  82.386  1.00 12.78 LIG 0.18  C 
BRANCH 10 11
ATOM     11  C   HIS D 342      25.424  34.123  83.391  1.00 14.51 LIG 0.24  C 
ATOM     12  N   LEU D 343      25.159  33.880  84.672  1.00 15.48 LIG-0.35  N 
ATOM     13 H    LEU D 343      24.795  33.154  84.956  1.00 15.48 LIG 0.16  HD
ATOM     14 O    HIS D 342      26.053  35.126  83.007  1.00 16.02 LIG-0.27  OA
BRANCH 12 15
ATOM     15  CA  LEU D 343      25.475  34.848  85.725  1.00 16.72 LIG 0.18  C 
BRANCH 15 16
ATOM     16  C   LEU D 343      26.402  34.305  86.810  1.00 19.19 LIG 0.24  C 
ATOM     17  N   SER D 344      25.917  33.315  87.578  1.00 21.37 LIG-0.34  N 
ATOM     18 H    SER D 344      25.082  33.115  87.613  1.00 21.37 LIG 0.16  HD
ATOM     19 O    LEU D 343      27.524  34.764  86.940  1.00 19.56 LIG-0.27  OA
BRANCH 17 20
ATOM     20  CA  SER D 344      26.766  32.465  88.444  1.00 23.14 LIG 0.19  C 
BRANCH 20 21
ATOM     21  C   SER D 344      27.824  31.720  87.619  1.00 24.18 LIG 0.22  C 
ATOM     22 O    SER D 344      28.199  32.151  86.514  1.00 25.35 LIG-0.29  OA
ENDBRANCH 20 21
BRANCH 20 23
ATOM     23  CB  SER D 344      25.931  31.445  89.222  1.00 23.66 LIG 0.20  C 
BRANCH 23 24
ATOM     24 OG   SER D 344      24.553  31.821  89.257  1.00 25.03 LIG-0.40  OA
ATOM     25 HG   SER D 344      24.145  31.337  89.810  1.00 25.03 LIG 0.21  HD
ENDBRANCH 23 24
ENDBRANCH 20 23
ENDBRANCH 17 20
ENDBRANCH 15 16
BRANCH 15 26
ATOM     26  CB  LEU D 343      24.187  35.344  86.407  1.00 15.83 LIG 0.04  C 
BRANCH 26 27
ATOM     27  CG  LEU D 343      23.091  34.318  86.616  1.00 14.86 LIG-0.02  C 
ATOM     28  CD1 LEU D 343      22.459  34.507  87.986  1.00 12.95 LIG 0.01  C 
ATOM     29  CD2 LEU D 343      22.030  34.432  85.491  1.00 12.95 LIG 0.01  C 
ENDBRANCH 26 27
ENDBRANCH 15 26
ENDBRANCH 12 15
ENDBRANCH 10 11
BRANCH 10 30
ATOM     30  CB  HIS D 342      26.116  32.215  81.949  1.00 12.90 LIG 0.10  C 
BRANCH 30 31
ATOM     31  CG  HIS D 342      26.487  31.171  82.950  1.00 12.99 LIG 0.06  A 
ATOM     32  CD2 HIS D 342      26.030  29.905  83.108  1.00 12.88 LIG 0.14  A 
ATOM     33 NE2  HIS D 342      26.695  29.366  84.180  1.00 14.80 LIG-0.25  NA
ATOM     34  CE1 HIS D 342      27.525  30.265  84.671  1.00 13.21 LIG 0.23  A 
ATOM     35 ND1  HIS D 342      27.415  31.367  83.951  1.00 14.49 LIG-0.24  NA
ENDBRANCH 30 31
ENDBRANCH 10 30
ENDBRANCH 8 10
ENDBRANCH 5 6
BRANCH 5 36
ATOM     36  CB  THR D 341      23.264  36.791  80.100  1.00 12.70 LIG 0.15  C 
ATOM     37  CG2 THR D 341      24.136  37.127  81.324  1.00 14.15 LIG 0.04  C 
BRANCH 36 38
ATOM     38 OG1  THR D 341      23.977  37.084  78.891  1.00 14.08 LIG-0.39  OA
ATOM     39 HG1  THR D 341      24.511  36.458  78.722  1.00 14.08 LIG 0.21  HD
ENDBRANCH 36 38
ENDBRANCH 5 36
ENDBRANCH 3 5
BRANCH 1 40
ATOM     40  CA  TRP D 340      19.266  34.751  78.910  1.00 18.72 LIG 0.18  C 
BRANCH 40 41
ATOM     41  CB  TRP D 340      18.644  35.493  77.728  1.00 19.00 LIG 0.07  C 
BRANCH 41 42
ATOM     42  CG  TRP D 340      18.129  34.617  76.640  1.00 19.22 LIG-0.03  A 
ATOM     43  CD2 TRP D 340      18.883  34.087  75.552  1.00 20.18 LIG-0.00  A 
ATOM     44  CE3 TRP D 340      20.230  34.164  75.180  1.00 18.70 LIG 0.01  A 
ATOM     45  CE2 TRP D 340      17.988  33.349  74.745  1.00 18.84 LIG 0.04  A 
ATOM     46  CZ3 TRP D 340      20.641  33.510  74.021  1.00 20.55 LIG 0.00  A 
ATOM     47  CH2 TRP D 340      19.723  32.778  73.245  1.00 19.52 LIG 0.00  A 
ATOM     48  CZ2 TRP D 340      18.398  32.689  73.585  1.00 19.79 LIG 0.03  A 
ATOM     49  NE1 TRP D 340      16.747  33.426  75.322  1.00 21.77 LIG-0.36  N 
ATOM     50  CD1 TRP D 340      16.841  34.205  76.454  1.00 20.48 LIG 0.10  A 
ATOM     51 HE1  TRP D 340      16.030  33.052  75.027  1.00 21.77 LIG 0.17  HD
ENDBRANCH 41 42
ENDBRANCH 40 41
BRANCH 40 52
ATOM     52  N   TRP D 340      18.728  35.263  80.176  1.00 22.23 LIG-0.35  N 
ATOM     53  C   ASP D 339      18.212  34.470  81.114  1.00 26.49 LIG 0.24  C 
ATOM     54 O    ASP D 339      18.149  33.233  81.001  1.00 27.22 LIG-0.27  OA
ATOM     55 H    TRP D 340      18.778  36.117  80.255  1.00 22.23 LIG 0.16  HD
BRANCH 53 56
ATOM     56  CA  ASP D 339      17.679  35.162  82.373  1.00 29.46 LIG 0.19  C 
BRANCH 56 57
ATOM     57  CB  ASP D 339      16.219  35.566  82.152  1.00 30.27 LIG 0.15  C 
BRANCH 57 58
ATOM     58  CG  ASP D 339      15.240  34.795  83.042  1.00 32.94 LIG 0.17  C 
ATOM     59 OD1  ASP D 339      15.331  34.949  84.279  1.00 36.53 LIG-0.65  OA
ATOM     60 OD2  ASP D 339      14.394  34.028  82.517  1.00 35.99 LIG-0.65  OA
ENDBRANCH 57 58
ENDBRANCH 56 57
BRANCH 56 61
ATOM     61  N   ASP D 339      18.467  36.347  82.698  1.00 31.22 LIG-0.34  N 
ATOM     62  C   ASP D 338      19.711  36.297  83.171  1.00 32.92 LIG 0.26  C 
ATOM     63 O    ASP D 338      20.400  35.271  83.184  1.00 33.60 LIG-0.27  OA
ATOM     64 H    ASP D 339      18.051  37.085  82.554  1.00 31.22 LIG 0.16  HD
BRANCH 62 65
ATOM     65  CA  ASP D 338      20.274  37.622  83.684  1.00 33.82 LIG 0.41  C 
ATOM     66  N   ASP D 338      21.768  37.567  83.778  1.00 34.02 LIG 0.61  N 
BRANCH 65 67
ATOM     67  CB  ASP D 338      19.830  38.776  82.771  1.00 34.49 LIG 0.16  C 
BRANCH 67 68
ATOM     68  CG  ASP D 338      20.399  38.670  81.361  1.00 35.92 LIG 0.17  C 
ATOM     69 OD2  ASP D 338      21.570  39.052  81.168  1.00 39.23 LIG-0.65  OA
ATOM     70 OD1  ASP D 338      19.679  38.216  80.440  1.00 38.97 LIG-0.65  OA
ENDBRANCH 67 68
ENDBRANCH 65 67
ENDBRANCH 62 65
ENDBRANCH 56 61
ENDBRANCH 53 56
ENDBRANCH 40 52
ENDBRANCH 1 40
TORSDOF 27
ENDMDL
MODEL 55
USER: ADFR SOLUTION from run 84
USER: SCORE 20.753088 LL:  -6.132 LR: -17.000 RR:   0.000 FEB:  -8.946
USER: RMSD 11.862472
USER: SEED 83
USER: STATUS 1 or 2 clusters left
USER: GENES 29
USER: genes 0 Translation |==|  0.50392 0.56631 0.44551
USER: genes 1 Rotation |==|  0.76825 0.68345 0.18121 0.70679
USER: genes 2 Torsion [C]-N--CA-[CB] |==|  0.74990
USER: genes 3 Torsion [N]-CA--C-[N] |==|  0.67185
USER: genes 4 Torsion [C]-N--CA-[C] |==|  0.62252
USER: genes 5 Torsion [N]-CA--C-[N] |==|  0.17256
USER: genes 6 Torsion [C]-N--CA-[C] |==|  0.68221
USER: genes 7 Torsion [N]-CA--C-[N] |==|  0.99728
USER: genes 8 Torsion [C]-N--CA-[C] |==|  0.87416
USER: genes 9 Torsion [N]-CA--C-[O] |==|  0.87308
USER: genes 10 Torsion [N]-CA--CB-[OG] |==|  0.68338
USER: genes 11 Torsion [CA]-CB--OG-[HG] |==|  0.27501
USER: genes 12 Torsion [N]-CA--CB-[CG] |==|  0.05925
USER: genes 13 Torsion [CA]-CB--CG-[CD2] |==|  0.57923
USER: genes 14 Torsion [N]-CA--CB-[CG] |==|  0.73933
USER: genes 15 Torsion [CA]-CB--CG-[CD2] |==|  0.81024
USER: genes 16 Torsion [N]-CA--CB-[OG1] |==|  0.09972
USER: genes 17 Torsion [CA]-CB--OG1-[HG1] |==|  0.31207
USER: genes 18 Torsion [N]-C--CA-[N] |==|  0.74156
USER: genes 19 Torsion [C]-CA--CB-[CG] |==|  0.50220
USER: genes 20 Torsion [CA]-CB--CG-[CD2] |==|  0.86361
USER: genes 21 Torsion [C]-CA--N-[C] |==|  0.67265
USER: genes 22 Torsion [N]-C--CA-[N] |==|  0.34446
USER: genes 23 Torsion [C]-CA--CB-[CG] |==|  0.72578
USER: genes 24 Torsion [CA]-CB--CG-[OD1] |==|  0.58028
USER: genes 25 Torsion [C]-CA--N-[C] |==|  0.82674
USER: genes 26 Torsion [N]-C--CA-[N] |==|  0.58087
USER: genes 27 Torsion [C]-CA--CB-[CG] |==|  0.43448
USER: genes 28 Torsion [CA]-CB--CG-[OD2] |==|  0.64565
ROOT
ATOM      1  C   TRP D 340      23.129  37.196  78.637  1.00 16.52 LIG 0.24  C 
ATOM      2 O    TRP D 340      23.723  36.499  79.463  1.00 16.60 LIG-0.27  OA
ATOM      3  N   THR D 341      23.391  38.483  78.450  1.00 13.22 LIG-0.34  N 
ATOM      4 H    THR D 341      22.982  38.964  77.866  1.00 13.22 LIG 0.16  HD
ENDROOT
BRANCH 3 5
ATOM      5  CA  THR D 341      24.394  39.219  79.206  1.00 12.53 LIG 0.20  C 
BRANCH 5 6
ATOM      6  C   THR D 341      25.553  38.297  79.582  1.00 12.10 LIG 0.24  C 
ATOM      7 O    THR D 341      26.259  37.779  78.719  1.00 10.92 LIG-0.27  OA
ATOM      8  N   HIS D 342      25.768  38.114  80.879  1.00 12.26 LIG-0.35  N 
ATOM      9 H    HIS D 342      25.311  38.491  81.503  1.00 12.26 LIG 0.16  HD
BRANCH 8 10
ATOM     10  CA  HIS D 342      26.831  37.233  81.352  1.00 12.78 LIG 0.18  C 
BRANCH 10 11
ATOM     11  C   HIS D 342      26.299  36.377  82.481  1.00 14.51 LIG 0.24  C 
ATOM     12  N   LEU D 343      25.296  35.553  82.190  1.00 15.48 LIG-0.35  N 
ATOM     13 H    LEU D 343      24.988  35.437  81.396  1.00 15.48 LIG 0.16  HD
ATOM     14 O    HIS D 342      26.808  36.452  83.615  1.00 16.02 LIG-0.27  OA
BRANCH 12 15
ATOM     15  CA  LEU D 343      24.620  34.762  83.221  1.00 16.72 LIG 0.18  C 
BRANCH 15 16
ATOM     16  C   LEU D 343      24.816  33.255  83.074  1.00 19.19 LIG 0.24  C 
ATOM     17  N   SER D 344      25.550  32.840  82.029  1.00 21.37 LIG-0.34  N 
ATOM     18 H    SER D 344      25.744  33.348  81.362  1.00 21.37 LIG 0.16  HD
ATOM     19 O    LEU D 343      24.323  32.492  83.889  1.00 19.56 LIG-0.27  OA
BRANCH 17 20
ATOM     20  CA  SER D 344      26.105  31.472  81.912  1.00 23.14 LIG 0.19  C 
BRANCH 20 21
ATOM     21  C   SER D 344      26.748  31.023  83.231  1.00 24.18 LIG 0.22  C 
ATOM     22 O    SER D 344      27.506  31.777  83.867  1.00 25.35 LIG-0.29  OA
ENDBRANCH 20 21
BRANCH 20 23
ATOM     23  CB  SER D 344      27.145  31.380  80.793  1.00 23.66 LIG 0.20  C 
BRANCH 23 24
ATOM     24 OG   SER D 344      26.692  30.535  79.733  1.00 25.03 LIG-0.40  OA
ATOM     25 HG   SER D 344      26.384  31.008  79.110  1.00 25.03 LIG 0.21  HD
ENDBRANCH 23 24
ENDBRANCH 20 23
ENDBRANCH 17 20
ENDBRANCH 15 16
BRANCH 15 26
ATOM     26  CB  LEU D 343      23.108  35.045  83.216  1.00 15.83 LIG 0.04  C 
BRANCH 26 27
ATOM     27  CG  LEU D 343      22.529  35.622  81.939  1.00 14.86 LIG-0.02  C 
ATOM     28  CD1 LEU D 343      22.182  34.500  80.973  1.00 12.95 LIG 0.01  C 
ATOM     29  CD2 LEU D 343      21.283  36.488  82.260  1.00 12.95 LIG 0.01  C 
ENDBRANCH 26 27
ENDBRANCH 15 26
ENDBRANCH 12 15
ENDBRANCH 10 11
BRANCH 10 30
ATOM     30  CB  HIS D 342      28.023  38.061  81.858  1.00 12.90 LIG 0.10  C 
BRANCH 30 31
ATOM     31  CG  HIS D 342      29.077  38.292  80.824  1.00 12.99 LIG 0.06  A 
ATOM     32  CD2 HIS D 342      29.935  37.423  80.237  1.00 12.88 LIG 0.14  A 
ATOM     33 NE2  HIS D 342      30.702  38.145  79.358  1.00 14.80 LIG-0.25  NA
ATOM     34  CE1 HIS D 342      30.337  39.411  79.403  1.00 13.21 LIG 0.23  A 
ATOM     35 ND1  HIS D 342      29.362  39.529  80.287  1.00 14.49 LIG-0.24  NA
ENDBRANCH 30 31
ENDBRANCH 10 30
ENDBRANCH 8 10
ENDBRANCH 5 6
BRANCH 5 36
ATOM     36  CB  THR D 341      23.769  39.842  80.476  1.00 12.70 LIG 0.15  C 
ATOM     37  CG2 THR D 341      23.137  41.215  80.180  1.00 14.15 LIG 0.04  C 
BRANCH 36 38
ATOM     38 OG1  THR D 341      22.779  38.947  81.001  1.00 14.08 LIG-0.39  OA
ATOM     39 HG1  THR D 341      23.041  38.641  81.737  1.00 14.08 LIG 0.21  HD
ENDBRANCH 36 38
ENDBRANCH 5 36
ENDBRANCH 3 5
BRANCH 1 40
ATOM     40  CA  TRP D 340      21.996  36.613  77.801  1.00 18.72 LIG 0.18  C 
BRANCH 40 41
ATOM     41  CB  TRP D 340      21.915  37.406  76.497  1.00 19.00 LIG 0.07  C 
BRANCH 41 42
ATOM     42  CG  TRP D 340      20.838  36.972  75.565  1.00 19.22 LIG-0.03  A 
ATOM     43  CD2 TRP D 340      20.566  35.635  75.152  1.00 20.18 LIG-0.00  A 
ATOM     44  CE3 TRP D 340      21.127  34.392  75.464  1.00 18.70 LIG 0.01  A 
ATOM     45  CE2 TRP D 340      19.488  35.692  74.238  1.00 18.84 LIG 0.04  A 
ATOM     46  CZ3 TRP D 340      20.605  33.252  74.858  1.00 20.55 LIG 0.00  A 
ATOM     47  CH2 TRP D 340      19.527  33.346  73.959  1.00 19.52 LIG 0.00  A 
ATOM     48  CZ2 TRP D 340      18.960  34.551  73.633  1.00 19.79 LIG 0.03  A 
ATOM     49  NE1 TRP D 340      19.123  37.008  74.108  1.00 21.77 LIG-0.36  N 
ATOM     50  CD1 TRP D 340      19.953  37.770  74.900  1.00 20.48 LIG 0.10  A 
ATOM     51 HE1  TRP D 340      18.484  37.306  73.616  1.00 21.77 LIG 0.17  HD
ENDBRANCH 41 42
ENDBRANCH 40 41
BRANCH 40 52
ATOM     52  N   TRP D 340      20.713  36.664  78.512  1.00 22.23 LIG-0.35  N 
ATOM     53  C   ASP D 339      20.024  35.570  78.835  1.00 26.49 LIG 0.24  C 
ATOM     54 O    ASP D 339      20.410  34.419  78.571  1.00 27.22 LIG-0.27  OA
ATOM     55 H    TRP D 340      20.450  37.460  78.699  1.00 22.23 LIG 0.16  HD
BRANCH 53 56
ATOM     56  CA  ASP D 339      18.694  35.795  79.563  1.00 29.46 LIG 0.19  C 
BRANCH 56 57
ATOM     57  CB  ASP D 339      18.784  35.214  80.976  1.00 30.27 LIG 0.15  C 
BRANCH 57 58
ATOM     58  CG  ASP D 339      18.153  33.824  81.097  1.00 32.94 LIG 0.17  C 
ATOM     59 OD1  ASP D 339      17.675  33.495  82.204  1.00 36.53 LIG-0.65  OA
ATOM     60 OD2  ASP D 339      18.145  33.056  80.102  1.00 35.99 LIG-0.65  OA
ENDBRANCH 57 58
ENDBRANCH 56 57
BRANCH 56 61
ATOM     61  N   ASP D 339      17.588  35.164  78.848  1.00 31.22 LIG-0.34  N 
ATOM     62  C   ASP D 338      17.216  35.506  77.616  1.00 32.92 LIG 0.26  C 
ATOM     63 O    ASP D 338      17.888  36.231  76.873  1.00 33.60 LIG-0.27  OA
ATOM     64 H    ASP D 339      17.196  34.547  79.300  1.00 31.22 LIG 0.16  HD
BRANCH 62 65
ATOM     65  CA  ASP D 338      15.891  34.913  77.139  1.00 33.82 LIG 0.41  C 
ATOM     66  N   ASP D 338      15.888  34.740  75.650  1.00 34.02 LIG 0.61  N 
BRANCH 65 67
ATOM     67  CB  ASP D 338      15.628  33.571  77.841  1.00 34.49 LIG 0.16  C 
BRANCH 67 68
ATOM     68  CG  ASP D 338      14.149  33.203  77.881  1.00 35.92 LIG 0.17  C 
ATOM     69 OD2  ASP D 338      13.645  32.908  78.983  1.00 39.23 LIG-0.65  OA
ATOM     70 OD1  ASP D 338      13.488  33.195  76.816  1.00 38.97 LIG-0.65  OA
ENDBRANCH 67 68
ENDBRANCH 65 67
ENDBRANCH 62 65
ENDBRANCH 56 61
ENDBRANCH 53 56
ENDBRANCH 40 52
ENDBRANCH 1 40
TORSDOF 27
ENDMDL
MODEL 56
USER: ADFR SOLUTION from run 30
USER: SCORE 21.418116 LL:  -6.011 LR: -16.982 RR:   0.000 FEB:  -8.928
USER: RMSD 13.277687
USER: SEED 29
USER: STATUS no improvement in best in 5 clusters for 5 generations
USER: GENES 29
USER: genes 0 Translation |==|  0.29115 0.44420 0.37927
USER: genes 1 Rotation |==|  0.80321 0.19421 0.27993 0.62698
USER: genes 2 Torsion [C]-N--CA-[CB] |==|  0.22652
USER: genes 3 Torsion [N]-CA--C-[N] |==|  0.45064
USER: genes 4 Torsion [C]-N--CA-[C] |==|  0.62464
USER: genes 5 Torsion [N]-CA--C-[N] |==|  0.32037
USER: genes 6 Torsion [C]-N--CA-[C] |==|  0.76264
USER: genes 7 Torsion [N]-CA--C-[N] |==|  0.99853
USER: genes 8 Torsion [C]-N--CA-[C] |==|  0.86635
USER: genes 9 Torsion [N]-CA--C-[O] |==|  0.20432
USER: genes 10 Torsion [N]-CA--CB-[OG] |==|  0.73044
USER: genes 11 Torsion [CA]-CB--OG-[HG] |==|  0.48420
USER: genes 12 Torsion [N]-CA--CB-[CG] |==|  0.24477
USER: genes 13 Torsion [CA]-CB--CG-[CD2] |==|  0.69605
USER: genes 14 Torsion [N]-CA--CB-[CG] |==|  0.99837
USER: genes 15 Torsion [CA]-CB--CG-[CD2] |==|  0.74191
USER: genes 16 Torsion [N]-CA--CB-[OG1] |==|  0.03350
USER: genes 17 Torsion [CA]-CB--OG1-[HG1] |==|  0.11573
USER: genes 18 Torsion [N]-C--CA-[N] |==|  0.46114
USER: genes 19 Torsion [C]-CA--CB-[CG] |==|  0.23698
USER: genes 20 Torsion [CA]-CB--CG-[CD2] |==|  0.60476
USER: genes 21 Torsion [C]-CA--N-[C] |==|  0.52976
USER: genes 22 Torsion [N]-C--CA-[N] |==|  0.93733
USER: genes 23 Torsion [C]-CA--CB-[CG] |==|  0.85509
USER: genes 24 Torsion [CA]-CB--CG-[OD1] |==|  0.36321
USER: genes 25 Torsion [C]-CA--N-[C] |==|  0.75032
USER: genes 26 Torsion [N]-C--CA-[N] |==|  0.45581
USER: genes 27 Torsion [C]-CA--CB-[CG] |==|  0.83838
USER: genes 28 Torsion [CA]-CB--CG-[OD2] |==|  0.90839
ROOT
ATOM      1  C   TRP D 340      17.224  34.815  76.848  1.00 16.52 LIG 0.24  C 
ATOM      2 O    TRP D 340      16.462  35.586  77.436  1.00 16.60 LIG-0.27  OA
ATOM      3  N   THR D 341      18.457  34.555  77.265  1.00 13.22 LIG-0.34  N 
ATOM      4 H    THR D 341      18.983  34.010  76.858  1.00 13.22 LIG 0.16  HD
ENDROOT
BRANCH 3 5
ATOM      5  CA  THR D 341      19.051  35.159  78.448  1.00 12.53 LIG 0.20  C 
BRANCH 5 6
ATOM      6  C   THR D 341      20.575  35.144  78.339  1.00 12.10 LIG 0.24  C 
ATOM      7 O    THR D 341      21.147  34.423  77.524  1.00 10.92 LIG-0.27  OA
ATOM      8  N   HIS D 342      21.235  35.967  79.144  1.00 12.26 LIG-0.35  N 
ATOM      9 H    HIS D 342      20.859  36.506  79.699  1.00 12.26 LIG 0.16  HD
BRANCH 8 10
ATOM     10  CA  HIS D 342      22.694  36.016  79.144  1.00 12.78 LIG 0.18  C 
BRANCH 10 11
ATOM     11  C   HIS D 342      23.189  36.031  80.574  1.00 14.51 LIG 0.24  C 
ATOM     12  N   LEU D 343      23.901  34.982  80.975  1.00 15.48 LIG-0.35  N 
ATOM     13 H    LEU D 343      24.146  34.343  80.454  1.00 15.48 LIG 0.16  HD
ATOM     14 O    HIS D 342      22.938  37.001  81.312  1.00 16.02 LIG-0.27  OA
BRANCH 12 15
ATOM     15  CA  LEU D 343      24.336  34.826  82.365  1.00 16.72 LIG 0.18  C 
BRANCH 15 16
ATOM     16  C   LEU D 343      25.645  35.541  82.690  1.00 19.19 LIG 0.24  C 
ATOM     17  N   SER D 344      26.237  36.205  81.683  1.00 21.37 LIG-0.34  N 
ATOM     18 H    SER D 344      26.024  36.090  80.858  1.00 21.37 LIG 0.16  HD
ATOM     19 O    LEU D 343      26.099  35.500  83.822  1.00 19.56 LIG-0.27  OA
BRANCH 17 20
ATOM     20  CA  SER D 344      27.313  37.202  81.884  1.00 23.14 LIG 0.19  C 
BRANCH 20 21
ATOM     21  C   SER D 344      26.938  38.205  82.984  1.00 24.18 LIG 0.22  C 
ATOM     22 O    SER D 344      26.948  37.878  84.184  1.00 25.35 LIG-0.29  OA
ENDBRANCH 20 21
BRANCH 20 23
ATOM     23  CB  SER D 344      27.620  37.967  80.595  1.00 23.66 LIG 0.20  C 
BRANCH 23 24
ATOM     24 OG   SER D 344      28.741  37.403  79.912  1.00 25.03 LIG-0.40  OA
ATOM     25 HG   SER D 344      28.842  37.789  79.172  1.00 25.03 LIG 0.21  HD
ENDBRANCH 23 24
ENDBRANCH 20 23
ENDBRANCH 17 20
ENDBRANCH 15 16
BRANCH 15 26
ATOM     26  CB  LEU D 343      24.511  33.337  82.713  1.00 15.83 LIG 0.04  C 
BRANCH 26 27
ATOM     27  CG  LEU D 343      25.869  32.727  82.427  1.00 14.86 LIG-0.02  C 
ATOM     28  CD1 LEU D 343      26.398  32.031  83.671  1.00 12.95 LIG 0.01  C 
ATOM     29  CD2 LEU D 343      25.773  31.742  81.234  1.00 12.95 LIG 0.01  C 
ENDBRANCH 26 27
ENDBRANCH 15 26
ENDBRANCH 12 15
ENDBRANCH 10 11
BRANCH 10 30
ATOM     30  CB  HIS D 342      23.183  37.282  78.422  1.00 12.90 LIG 0.10  C 
BRANCH 30 31
ATOM     31  CG  HIS D 342      22.078  38.136  77.891  1.00 12.99 LIG 0.06  A 
ATOM     32  CD2 HIS D 342      21.492  38.153  76.670  1.00 12.88 LIG 0.14  A 
ATOM     33 NE2  HIS D 342      20.530  39.131  76.697  1.00 14.80 LIG-0.25  NA
ATOM     34  CE1 HIS D 342      20.525  39.700  77.886  1.00 13.21 LIG 0.23  A 
ATOM     35 ND1  HIS D 342      21.456  39.123  78.625  1.00 14.49 LIG-0.24  NA
ENDBRANCH 30 31
ENDBRANCH 10 30
ENDBRANCH 8 10
ENDBRANCH 5 6
BRANCH 5 36
ATOM     36  CB  THR D 341      18.597  34.417  79.726  1.00 12.70 LIG 0.15  C 
ATOM     37  CG2 THR D 341      17.640  35.280  80.571  1.00 14.15 LIG 0.04  C 
BRANCH 36 38
ATOM     38 OG1  THR D 341      17.955  33.190  79.353  1.00 14.08 LIG-0.39  OA
ATOM     39 HG1  THR D 341      18.386  32.827  78.731  1.00 14.08 LIG 0.21  HD
ENDBRANCH 36 38
ENDBRANCH 5 36
ENDBRANCH 3 5
BRANCH 1 40
ATOM     40  CA  TRP D 340      16.799  34.142  75.548  1.00 18.72 LIG 0.18  C 
BRANCH 40 41
ATOM     41  CB  TRP D 340      17.535  34.828  74.399  1.00 19.00 LIG 0.07  C 
BRANCH 41 42
ATOM     42  CG  TRP D 340      18.898  34.298  74.123  1.00 19.22 LIG-0.03  A 
ATOM     43  CD2 TRP D 340      20.041  35.061  73.742  1.00 20.18 LIG-0.00  A 
ATOM     44  CE3 TRP D 340      20.272  36.428  73.548  1.00 18.70 LIG 0.01  A 
ATOM     45  CE2 TRP D 340      21.105  34.150  73.546  1.00 18.84 LIG 0.04  A 
ATOM     46  CZ3 TRP D 340      21.545  36.842  73.162  1.00 20.55 LIG 0.00  A 
ATOM     47  CH2 TRP D 340      22.581  35.908  72.983  1.00 19.52 LIG 0.00  A 
ATOM     48  CZ2 TRP D 340      22.382  34.564  73.164  1.00 19.79 LIG 0.03  A 
ATOM     49  NE1 TRP D 340      20.625  32.891  73.800  1.00 21.77 LIG-0.36  N 
ATOM     50  CD1 TRP D 340      19.292  32.991  74.132  1.00 20.48 LIG 0.10  A 
ATOM     51 HE1  TRP D 340      21.080  32.162  73.760  1.00 21.77 LIG 0.17  HD
ENDBRANCH 41 42
ENDBRANCH 40 41
BRANCH 40 52
ATOM     52  N   TRP D 340      15.347  34.219  75.346  1.00 22.23 LIG-0.35  N 
ATOM     53  C   ASP D 339      14.714  33.530  74.397  1.00 26.49 LIG 0.24  C 
ATOM     54 O    ASP D 339      15.294  32.761  73.612  1.00 27.22 LIG-0.27  OA
ATOM     55 H    TRP D 340      14.947  34.746  75.894  1.00 22.23 LIG 0.16  HD
BRANCH 53 56
ATOM     56  CA  ASP D 339      13.198  33.732  74.307  1.00 29.46 LIG 0.19  C 
BRANCH 56 57
ATOM     57  CB  ASP D 339      12.884  34.742  73.199  1.00 30.27 LIG 0.15  C 
BRANCH 57 58
ATOM     58  CG  ASP D 339      13.671  36.048  73.336  1.00 32.94 LIG 0.17  C 
ATOM     59 OD1  ASP D 339      14.267  36.478  72.325  1.00 36.53 LIG-0.65  OA
ATOM     60 OD2  ASP D 339      13.711  36.637  74.445  1.00 35.99 LIG-0.65  OA
ENDBRANCH 57 58
ENDBRANCH 56 57
BRANCH 56 61
ATOM     61  N   ASP D 339      12.653  34.215  75.573  1.00 31.22 LIG-0.34  N 
ATOM     62  C   ASP D 338      12.221  33.411  76.543  1.00 32.92 LIG 0.26  C 
ATOM     63 O    ASP D 338      12.428  32.193  76.568  1.00 33.60 LIG-0.27  OA
ATOM     64 H    ASP D 339      12.637  35.073  75.634  1.00 31.22 LIG 0.16  HD
BRANCH 62 65
ATOM     65  CA  ASP D 338      11.460  34.099  77.677  1.00 33.82 LIG 0.41  C 
ATOM     66  N   ASP D 338      10.701  33.098  78.493  1.00 34.02 LIG 0.61  N 
BRANCH 65 67
ATOM     67  CB  ASP D 338      12.432  34.895  78.562  1.00 34.49 LIG 0.16  C 
BRANCH 67 68
ATOM     68  CG  ASP D 338      13.531  34.029  79.165  1.00 35.92 LIG 0.17  C 
ATOM     69 OD2  ASP D 338      13.260  32.846  79.452  1.00 39.23 LIG-0.65  OA
ATOM     70 OD1  ASP D 338      14.666  34.525  79.364  1.00 38.97 LIG-0.65  OA
ENDBRANCH 67 68
ENDBRANCH 65 67
ENDBRANCH 62 65
ENDBRANCH 56 61
ENDBRANCH 53 56
ENDBRANCH 40 52
ENDBRANCH 1 40
TORSDOF 27
ENDMDL
MODEL 57
USER: ADFR SOLUTION from run 114
USER: SCORE 21.616323 LL:  -5.225 LR: -16.977 RR:   0.000 FEB:  -8.923
USER: RMSD 3.330828
USER: SEED 113
USER: STATUS searching
USER: GENES 29
USER: genes 0 Translation |==|  0.51804 0.48820 0.52092
USER: genes 1 Rotation |==|  0.76050 0.34504 0.84021 0.70588
USER: genes 2 Torsion [C]-N--CA-[CB] |==|  0.74827
USER: genes 3 Torsion [N]-CA--C-[N] |==|  0.23947
USER: genes 4 Torsion [C]-N--CA-[C] |==|  0.81608
USER: genes 5 Torsion [N]-CA--C-[N] |==|  0.42912
USER: genes 6 Torsion [C]-N--CA-[C] |==|  0.15926
USER: genes 7 Torsion [N]-CA--C-[N] |==|  0.12867
USER: genes 8 Torsion [C]-N--CA-[C] |==|  0.18309
USER: genes 9 Torsion [N]-CA--C-[O] |==|  0.47324
USER: genes 10 Torsion [N]-CA--CB-[OG] |==|  0.93307
USER: genes 11 Torsion [CA]-CB--OG-[HG] |==|  0.55422
USER: genes 12 Torsion [N]-CA--CB-[CG] |==|  0.72558
USER: genes 13 Torsion [CA]-CB--CG-[CD2] |==|  0.16274
USER: genes 14 Torsion [N]-CA--CB-[CG] |==|  0.73338
USER: genes 15 Torsion [CA]-CB--CG-[CD2] |==|  0.32170
USER: genes 16 Torsion [N]-CA--CB-[OG1] |==|  0.99652
USER: genes 17 Torsion [CA]-CB--OG1-[HG1] |==|  0.10644
USER: genes 18 Torsion [N]-C--CA-[N] |==|  0.98907
USER: genes 19 Torsion [C]-CA--CB-[CG] |==|  0.38001
USER: genes 20 Torsion [CA]-CB--CG-[CD2] |==|  0.81343
USER: genes 21 Torsion [C]-CA--N-[C] |==|  0.74539
USER: genes 22 Torsion [N]-C--CA-[N] |==|  0.21534
USER: genes 23 Torsion [C]-CA--CB-[CG] |==|  0.47620
USER: genes 24 Torsion [CA]-CB--CG-[OD1] |==|  0.42792
USER: genes 25 Torsion [C]-CA--N-[C] |==|  0.77222
USER: genes 26 Torsion [N]-C--CA-[N] |==|  0.55950
USER: genes 27 Torsion [C]-CA--CB-[CG] |==|  0.77848
USER: genes 28 Torsion [CA]-CB--CG-[OD2] |==|  0.06868
ROOT
ATOM      1  C   TRP D 340      23.521  35.673  80.673  1.00 16.52 LIG 0.24  C 
ATOM      2 O    TRP D 340      23.151  34.659  80.077  1.00 16.60 LIG-0.27  OA
ATOM      3  N   THR D 341      23.155  36.898  80.317  1.00 13.22 LIG-0.34  N 
ATOM      4 H    THR D 341      23.407  37.602  80.741  1.00 13.22 LIG 0.16  HD
ENDROOT
BRANCH 3 5
ATOM      5  CA  THR D 341      22.294  37.183  79.179  1.00 12.53 LIG 0.20  C 
BRANCH 5 6
ATOM      6  C   THR D 341      21.300  36.041  78.971  1.00 12.10 LIG 0.24  C 
ATOM      7 O    THR D 341      21.554  35.107  78.212  1.00 10.92 LIG-0.27  OA
ATOM      8  N   HIS D 342      20.174  36.100  79.671  1.00 12.26 LIG-0.35  N 
ATOM      9 H    HIS D 342      19.986  36.723  80.233  1.00 12.26 LIG 0.16  HD
BRANCH 8 10
ATOM     10  CA  HIS D 342      19.142  35.077  79.530  1.00 12.78 LIG 0.18  C 
BRANCH 10 11
ATOM     11  C   HIS D 342      18.559  35.151  78.135  1.00 14.51 LIG 0.24  C 
ATOM     12  N   LEU D 343      18.021  34.036  77.649  1.00 15.48 LIG-0.35  N 
ATOM     13 H    LEU D 343      17.929  33.311  78.103  1.00 15.48 LIG 0.16  HD
ATOM     14 O    HIS D 342      18.583  36.223  77.503  1.00 16.02 LIG-0.27  OA
BRANCH 12 15
ATOM     15  CA  LEU D 343      17.531  33.949  76.271  1.00 16.72 LIG 0.18  C 
BRANCH 15 16
ATOM     16  C   LEU D 343      18.585  34.271  75.215  1.00 19.19 LIG 0.24  C 
ATOM     17  N   SER D 344      19.788  33.693  75.367  1.00 21.37 LIG-0.34  N 
ATOM     18 H    SER D 344      20.040  33.322  76.100  1.00 21.37 LIG 0.16  HD
ATOM     19 O    LEU D 343      18.312  35.013  74.286  1.00 19.56 LIG-0.27  OA
BRANCH 17 20
ATOM     20  CA  SER D 344      20.805  33.632  74.292  1.00 23.14 LIG 0.19  C 
BRANCH 20 21
ATOM     21  C   SER D 344      21.318  35.034  73.937  1.00 24.18 LIG 0.22  C 
ATOM     22 O    SER D 344      22.299  35.189  73.188  1.00 25.35 LIG-0.29  OA
ENDBRANCH 20 21
BRANCH 20 23
ATOM     23  CB  SER D 344      20.250  32.969  73.029  1.00 23.66 LIG 0.20  C 
BRANCH 23 24
ATOM     24 OG   SER D 344      19.154  32.105  73.336  1.00 25.03 LIG-0.40  OA
ATOM     25 HG   SER D 344      19.039  31.563  72.705  1.00 25.03 LIG 0.21  HD
ENDBRANCH 23 24
ENDBRANCH 20 23
ENDBRANCH 17 20
ENDBRANCH 15 16
BRANCH 15 26
ATOM     26  CB  LEU D 343      16.342  34.903  76.060  1.00 15.83 LIG 0.04  C 
BRANCH 26 27
ATOM     27  CG  LEU D 343      14.958  34.290  76.131  1.00 14.86 LIG-0.02  C 
ATOM     28  CD1 LEU D 343      14.773  33.290  75.001  1.00 12.95 LIG 0.01  C 
ATOM     29  CD2 LEU D 343      14.741  33.619  77.512  1.00 12.95 LIG 0.01  C 
ENDBRANCH 26 27
ENDBRANCH 15 26
ENDBRANCH 12 15
ENDBRANCH 10 11
BRANCH 10 30
ATOM     30  CB  HIS D 342      18.026  35.303  80.561  1.00 12.90 LIG 0.10  C 
BRANCH 30 31
ATOM     31  CG  HIS D 342      18.181  34.489  81.804  1.00 12.99 LIG 0.06  A 
ATOM     32  CD2 HIS D 342      18.390  34.875  83.086  1.00 12.88 LIG 0.14  A 
ATOM     33 NE2  HIS D 342      18.463  33.734  83.845  1.00 14.80 LIG-0.25  NA
ATOM     34  CE1 HIS D 342      18.311  32.684  83.063  1.00 13.21 LIG 0.23  A 
ATOM     35 ND1  HIS D 342      18.145  33.111  81.823  1.00 14.49 LIG-0.24  NA
ENDBRANCH 30 31
ENDBRANCH 10 30
ENDBRANCH 8 10
ENDBRANCH 5 6
BRANCH 5 36
ATOM     36  CB  THR D 341      23.135  37.403  77.900  1.00 12.70 LIG 0.15  C 
ATOM     37  CG2 THR D 341      22.851  38.779  77.268  1.00 14.15 LIG 0.04  C 
BRANCH 36 38
ATOM     38 OG1  THR D 341      24.526  37.288  78.228  1.00 14.08 LIG-0.39  OA
ATOM     39 HG1  THR D 341      24.631  36.674  78.790  1.00 14.08 LIG 0.21  HD
ENDBRANCH 36 38
ENDBRANCH 5 36
ENDBRANCH 3 5
BRANCH 1 40
ATOM     40  CA  TRP D 340      24.485  35.575  81.849  1.00 18.72 LIG 0.18  C 
BRANCH 40 41
ATOM     41  CB  TRP D 340      23.785  34.808  82.970  1.00 19.00 LIG 0.07  C 
BRANCH 41 42
ATOM     42  CG  TRP D 340      24.630  33.792  83.657  1.00 19.22 LIG-0.03  A 
ATOM     43  CD2 TRP D 340      25.138  32.589  83.086  1.00 20.18 LIG-0.00  A 
ATOM     44  CE3 TRP D 340      25.061  32.015  81.811  1.00 18.70 LIG 0.01  A 
ATOM     45  CE2 TRP D 340      25.850  31.912  84.102  1.00 18.84 LIG 0.04  A 
ATOM     46  CZ3 TRP D 340      25.689  30.791  81.591  1.00 20.55 LIG 0.00  A 
ATOM     47  CH2 TRP D 340      26.395  30.149  82.625  1.00 19.52 LIG 0.00  A 
ATOM     48  CZ2 TRP D 340      26.483  30.688  83.883  1.00 19.79 LIG 0.03  A 
ATOM     49  NE1 TRP D 340      25.778  32.676  85.239  1.00 21.77 LIG-0.36  N 
ATOM     50  CD1 TRP D 340      25.028  33.798  84.962  1.00 20.48 LIG 0.10  A 
ATOM     51 HE1  TRP D 340      26.140  32.487  85.996  1.00 21.77 LIG 0.17  HD
ENDBRANCH 41 42
ENDBRANCH 40 41
BRANCH 40 52
ATOM     52  N   TRP D 340      24.907  36.899  82.319  1.00 22.23 LIG-0.35  N 
ATOM     53  C   ASP D 339      25.997  37.513  81.862  1.00 26.49 LIG 0.24  C 
ATOM     54 O    ASP D 339      26.743  37.023  80.996  1.00 27.22 LIG-0.27  OA
ATOM     55 H    TRP D 340      24.387  37.239  82.913  1.00 22.23 LIG 0.16  HD
BRANCH 53 56
ATOM     56  CA  ASP D 339      26.309  38.887  82.467  1.00 29.46 LIG 0.19  C 
BRANCH 56 57
ATOM     57  CB  ASP D 339      27.274  39.640  81.548  1.00 30.27 LIG 0.15  C 
BRANCH 57 58
ATOM     58  CG  ASP D 339      27.482  41.100  81.960  1.00 32.94 LIG 0.17  C 
ATOM     59 OD1  ASP D 339      28.555  41.650  81.636  1.00 36.53 LIG-0.65  OA
ATOM     60 OD2  ASP D 339      26.589  41.693  82.616  1.00 35.99 LIG-0.65  OA
ENDBRANCH 57 58
ENDBRANCH 56 57
BRANCH 56 61
ATOM     61  N   ASP D 339      26.902  38.757  83.794  1.00 31.22 LIG-0.34  N 
ATOM     62  C   ASP D 338      26.191  38.567  84.904  1.00 32.92 LIG 0.26  C 
ATOM     63 O    ASP D 338      24.991  38.270  84.907  1.00 33.60 LIG-0.27  OA
ATOM     64 H    ASP D 339      27.760  38.816  83.793  1.00 31.22 LIG 0.16  HD
BRANCH 62 65
ATOM     65  CA  ASP D 338      26.965  38.708  86.214  1.00 33.82 LIG 0.41  C 
ATOM     66  N   ASP D 338      26.262  37.995  87.329  1.00 34.02 LIG 0.61  N 
BRANCH 65 67
ATOM     67  CB  ASP D 338      28.396  38.173  86.046  1.00 34.49 LIG 0.16  C 
BRANCH 67 68
ATOM     68  CG  ASP D 338      28.474  36.653  86.128  1.00 35.92 LIG 0.17  C 
ATOM     69 OD2  ASP D 338      27.454  35.993  85.848  1.00 39.23 LIG-0.65  OA
ATOM     70 OD1  ASP D 338      29.549  36.111  86.483  1.00 38.97 LIG-0.65  OA
ENDBRANCH 67 68
ENDBRANCH 65 67
ENDBRANCH 62 65
ENDBRANCH 56 61
ENDBRANCH 53 56
ENDBRANCH 40 52
ENDBRANCH 1 40
TORSDOF 27
ENDMDL
MODEL 58
USER: ADFR SOLUTION from run 118
USER: SCORE 21.666564 LL:  -5.711 LR: -16.967 RR:   0.000 FEB:  -8.913
USER: RMSD 5.505516
USER: SEED 117
USER: STATUS no improvement in best in 8 clusters for 5 generations
USER: GENES 29
USER: genes 0 Translation |==|  0.52100 0.49681 0.52936
USER: genes 1 Rotation |==|  0.79508 0.41799 0.84740 0.68846
USER: genes 2 Torsion [C]-N--CA-[CB] |==|  0.80997
USER: genes 3 Torsion [N]-CA--C-[N] |==|  0.27222
USER: genes 4 Torsion [C]-N--CA-[C] |==|  0.85844
USER: genes 5 Torsion [N]-CA--C-[N] |==|  0.87539
USER: genes 6 Torsion [C]-N--CA-[C] |==|  0.63731
USER: genes 7 Torsion [N]-CA--C-[N] |==|  0.34845
USER: genes 8 Torsion [C]-N--CA-[C] |==|  0.63080
USER: genes 9 Torsion [N]-CA--C-[O] |==|  0.05463
USER: genes 10 Torsion [N]-CA--CB-[OG] |==|  0.03154
USER: genes 11 Torsion [CA]-CB--OG-[HG] |==|  0.90762
USER: genes 12 Torsion [N]-CA--CB-[CG] |==|  0.81574
USER: genes 13 Torsion [CA]-CB--CG-[CD2] |==|  0.62639
USER: genes 14 Torsion [N]-CA--CB-[CG] |==|  0.53813
USER: genes 15 Torsion [CA]-CB--CG-[CD2] |==|  0.59538
USER: genes 16 Torsion [N]-CA--CB-[OG1] |==|  0.95174
USER: genes 17 Torsion [CA]-CB--OG1-[HG1] |==|  0.16980
USER: genes 18 Torsion [N]-C--CA-[N] |==|  0.95094
USER: genes 19 Torsion [C]-CA--CB-[CG] |==|  0.31290
USER: genes 20 Torsion [CA]-CB--CG-[CD2] |==|  0.85288
USER: genes 21 Torsion [C]-CA--N-[C] |==|  0.72987
USER: genes 22 Torsion [N]-C--CA-[N] |==|  0.89676
USER: genes 23 Torsion [C]-CA--CB-[CG] |==|  0.45558
USER: genes 24 Torsion [CA]-CB--CG-[OD1] |==|  0.34763
USER: genes 25 Torsion [C]-CA--N-[C] |==|  0.81808
USER: genes 26 Torsion [N]-C--CA-[N] |==|  0.18299
USER: genes 27 Torsion [C]-CA--CB-[CG] |==|  0.78085
USER: genes 28 Torsion [CA]-CB--CG-[OD2] |==|  0.51867
ROOT
ATOM      1  C   TRP D 340      23.603  35.841  80.901  1.00 16.52 LIG 0.24  C 
ATOM      2 O    TRP D 340      23.419  34.696  80.479  1.00 16.60 LIG-0.27  OA
ATOM      3  N   THR D 341      22.878  36.882  80.512  1.00 13.22 LIG-0.34  N 
ATOM      4 H    THR D 341      23.002  37.677  80.815  1.00 13.22 LIG 0.16  HD
ENDROOT
BRANCH 3 5
ATOM      5  CA  THR D 341      21.801  36.795  79.537  1.00 12.53 LIG 0.20  C 
BRANCH 5 6
ATOM      6  C   THR D 341      20.793  35.726  79.959  1.00 12.10 LIG 0.24  C 
ATOM      7 O    THR D 341      21.005  34.534  79.746  1.00 10.92 LIG-0.27  OA
ATOM      8  N   HIS D 342      19.705  36.153  80.586  1.00 12.26 LIG-0.35  N 
ATOM      9 H    HIS D 342      19.548  36.977  80.778  1.00 12.26 LIG 0.16  HD
BRANCH 8 10
ATOM     10  CA  HIS D 342      18.663  35.222  81.010  1.00 12.78 LIG 0.18  C 
BRANCH 10 11
ATOM     11  C   HIS D 342      18.272  34.350  79.836  1.00 14.51 LIG 0.24  C 
ATOM     12  N   LEU D 343      18.091  34.959  78.668  1.00 15.48 LIG-0.35  N 
ATOM     13 H    LEU D 343      18.248  35.794  78.535  1.00 15.48 LIG 0.16  HD
ATOM     14 O    HIS D 342      18.148  33.120  79.985  1.00 16.02 LIG-0.27  OA
BRANCH 12 15
ATOM     15  CA  LEU D 343      17.599  34.243  77.489  1.00 16.72 LIG 0.18  C 
BRANCH 15 16
ATOM     16  C   LEU D 343      18.431  34.475  76.230  1.00 19.19 LIG 0.24  C 
ATOM     17  N   SER D 344      18.898  33.381  75.605  1.00 21.37 LIG-0.34  N 
ATOM     18 H    SER D 344      18.912  32.603  75.971  1.00 21.37 LIG 0.16  HD
ATOM     19 O    LEU D 343      18.635  35.610  75.832  1.00 19.56 LIG-0.27  OA
BRANCH 17 20
ATOM     20  CA  SER D 344      19.434  33.396  74.224  1.00 23.14 LIG 0.19  C 
BRANCH 20 21
ATOM     21  C   SER D 344      18.846  32.248  73.391  1.00 24.18 LIG 0.22  C 
ATOM     22 O    SER D 344      17.794  31.680  73.732  1.00 25.35 LIG-0.29  OA
ENDBRANCH 20 21
BRANCH 20 23
ATOM     23  CB  SER D 344      20.960  33.291  74.212  1.00 23.66 LIG 0.20  C 
BRANCH 23 24
ATOM     24 OG   SER D 344      21.466  32.944  75.503  1.00 25.03 LIG-0.40  OA
ATOM     25 HG   SER D 344      20.978  33.284  76.096  1.00 25.03 LIG 0.21  HD
ENDBRANCH 23 24
ENDBRANCH 20 23
ENDBRANCH 17 20
ENDBRANCH 15 16
BRANCH 15 26
ATOM     26  CB  LEU D 343      16.147  34.647  77.177  1.00 15.83 LIG 0.04  C 
BRANCH 26 27
ATOM     27  CG  LEU D 343      15.097  34.246  78.194  1.00 14.86 LIG-0.02  C 
ATOM     28  CD1 LEU D 343      14.707  35.449  79.038  1.00 12.95 LIG 0.01  C 
ATOM     29  CD2 LEU D 343      13.862  33.642  77.477  1.00 12.95 LIG 0.01  C 
ENDBRANCH 26 27
ENDBRANCH 15 26
ENDBRANCH 12 15
ENDBRANCH 10 11
BRANCH 10 30
ATOM     30  CB  HIS D 342      17.430  35.994  81.504  1.00 12.90 LIG 0.10  C 
BRANCH 30 31
ATOM     31  CG  HIS D 342      16.451  35.149  82.252  1.00 12.99 LIG 0.06  A 
ATOM     32  CD2 HIS D 342      15.099  35.211  82.304  1.00 12.88 LIG 0.14  A 
ATOM     33 NE2  HIS D 342      14.680  34.207  83.141  1.00 14.80 LIG-0.25  NA
ATOM     34  CE1 HIS D 342      15.732  33.554  83.593  1.00 13.21 LIG 0.23  A 
ATOM     35 ND1  HIS D 342      16.816  34.106  83.077  1.00 14.49 LIG-0.24  NA
ENDBRANCH 30 31
ENDBRANCH 10 30
ENDBRANCH 8 10
ENDBRANCH 5 6
BRANCH 5 36
ATOM     36  CB  THR D 341      22.362  36.480  78.131  1.00 12.70 LIG 0.15  C 
ATOM     37  CG2 THR D 341      21.643  37.294  77.040  1.00 14.15 LIG 0.04  C 
BRANCH 36 38
ATOM     38 OG1  THR D 341      23.768  36.764  78.112  1.00 14.08 LIG-0.39  OA
ATOM     39 HG1  THR D 341      24.159  36.277  78.674  1.00 14.08 LIG 0.21  HD
ENDBRANCH 36 38
ENDBRANCH 5 36
ENDBRANCH 3 5
BRANCH 1 40
ATOM     40  CA  TRP D 340      24.735  36.137  81.877  1.00 18.72 LIG 0.18  C 
BRANCH 40 41
ATOM     41  CB  TRP D 340      24.293  35.680  83.266  1.00 19.00 LIG 0.07  C 
BRANCH 41 42
ATOM     42  CG  TRP D 340      25.049  34.521  83.815  1.00 19.22 LIG-0.03  A 
ATOM     43  CD2 TRP D 340      25.259  33.267  83.170  1.00 20.18 LIG-0.00  A 
ATOM     44  CE3 TRP D 340      24.899  32.749  81.921  1.00 18.70 LIG 0.01  A 
ATOM     45  CE2 TRP D 340      25.992  32.455  84.065  1.00 18.84 LIG 0.04  A 
ATOM     46  CZ3 TRP D 340      25.274  31.444  81.606  1.00 20.55 LIG 0.00  A 
ATOM     47  CH2 TRP D 340      26.009  30.667  82.519  1.00 19.52 LIG 0.00  A 
ATOM     48  CZ2 TRP D 340      26.373  31.149  83.750  1.00 19.79 LIG 0.03  A 
ATOM     49  NE1 TRP D 340      26.218  33.188  85.202  1.00 21.77 LIG-0.36  N 
ATOM     50  CD1 TRP D 340      25.633  34.425  85.044  1.00 20.48 LIG 0.10  A 
ATOM     51 HE1  TRP D 340      26.652  32.922  85.895  1.00 21.77 LIG 0.17  HD
ENDBRANCH 41 42
ENDBRANCH 40 41
BRANCH 40 52
ATOM     52  N   TRP D 340      25.081  37.563  81.892  1.00 22.23 LIG-0.35  N 
ATOM     53  C   ASP D 339      26.093  38.067  81.187  1.00 26.49 LIG 0.24  C 
ATOM     54 O    ASP D 339      26.822  37.378  80.453  1.00 27.22 LIG-0.27  OA
ATOM     55 H    TRP D 340      24.573  38.039  82.395  1.00 22.23 LIG 0.16  HD
BRANCH 53 56
ATOM     56  CA  ASP D 339      26.333  39.575  81.324  1.00 29.46 LIG 0.19  C 
BRANCH 56 57
ATOM     57  CB  ASP D 339      27.181  39.844  82.570  1.00 30.27 LIG 0.15  C 
BRANCH 57 58
ATOM     58  CG  ASP D 339      27.798  41.246  82.586  1.00 32.94 LIG 0.17  C 
ATOM     59 OD1  ASP D 339      27.576  41.968  83.581  1.00 36.53 LIG-0.65  OA
ATOM     60 OD2  ASP D 339      28.486  41.634  81.609  1.00 35.99 LIG-0.65  OA
ENDBRANCH 57 58
ENDBRANCH 56 57
BRANCH 56 61
ATOM     61  N   ASP D 339      25.072  40.303  81.428  1.00 31.22 LIG-0.34  N 
ATOM     62  C   ASP D 338      24.176  40.369  80.445  1.00 32.92 LIG 0.26  C 
ATOM     63 O    ASP D 338      24.213  39.659  79.434  1.00 33.60 LIG-0.27  OA
ATOM     64 H    ASP D 339      24.961  40.688  82.189  1.00 31.22 LIG 0.16  HD
BRANCH 62 65
ATOM     65  CA  ASP D 338      23.046  41.378  80.650  1.00 33.82 LIG 0.41  C 
ATOM     66  N   ASP D 338      23.575  42.780  80.651  1.00 34.02 LIG 0.61  N 
BRANCH 65 67
ATOM     67  CB  ASP D 338      21.975  41.203  79.562  1.00 34.49 LIG 0.16  C 
BRANCH 67 68
ATOM     68  CG  ASP D 338      22.368  41.840  78.235  1.00 35.92 LIG 0.17  C 
ATOM     69 OD2  ASP D 338      21.520  41.869  77.321  1.00 39.23 LIG-0.65  OA
ATOM     70 OD1  ASP D 338      23.525  42.304  78.094  1.00 38.97 LIG-0.65  OA
ENDBRANCH 67 68
ENDBRANCH 65 67
ENDBRANCH 62 65
ENDBRANCH 56 61
ENDBRANCH 53 56
ENDBRANCH 40 52
ENDBRANCH 1 40
TORSDOF 27
ENDMDL
MODEL 59
USER: ADFR SOLUTION from run 61
USER: SCORE 20.351020 LL:  -6.168 LR: -16.965 RR:   0.000 FEB:  -8.910
USER: RMSD 7.074929
USER: SEED 60
USER: STATUS 1 or 2 clusters left
USER: GENES 29
USER: genes 0 Translation |==|  0.66077 0.32895 0.74690
USER: genes 1 Rotation |==|  0.87308 0.37496 0.80241 0.56104
USER: genes 2 Torsion [C]-N--CA-[CB] |==|  0.48631
USER: genes 3 Torsion [N]-CA--C-[N] |==|  0.39743
USER: genes 4 Torsion [C]-N--CA-[C] |==|  0.68746
USER: genes 5 Torsion [N]-CA--C-[N] |==|  0.54096
USER: genes 6 Torsion [C]-N--CA-[C] |==|  0.78770
USER: genes 7 Torsion [N]-CA--C-[N] |==|  0.25483
USER: genes 8 Torsion [C]-N--CA-[C] |==|  0.28412
USER: genes 9 Torsion [N]-CA--C-[O] |==|  0.43829
USER: genes 10 Torsion [N]-CA--CB-[OG] |==|  0.28098
USER: genes 11 Torsion [CA]-CB--OG-[HG] |==|  0.77385
USER: genes 12 Torsion [N]-CA--CB-[CG] |==|  0.68768
USER: genes 13 Torsion [CA]-CB--CG-[CD2] |==|  0.21758
USER: genes 14 Torsion [N]-CA--CB-[CG] |==|  0.93486
USER: genes 15 Torsion [CA]-CB--CG-[CD2] |==|  0.31746
USER: genes 16 Torsion [N]-CA--CB-[OG1] |==|  0.48563
USER: genes 17 Torsion [CA]-CB--OG1-[HG1] |==|  0.86799
USER: genes 18 Torsion [N]-C--CA-[N] |==|  0.87385
USER: genes 19 Torsion [C]-CA--CB-[CG] |==|  0.91950
USER: genes 20 Torsion [CA]-CB--CG-[CD2] |==|  0.77079
USER: genes 21 Torsion [C]-CA--N-[C] |==|  0.67369
USER: genes 22 Torsion [N]-C--CA-[N] |==|  0.57222
USER: genes 23 Torsion [C]-CA--CB-[CG] |==|  0.77878
USER: genes 24 Torsion [CA]-CB--CG-[OD1] |==|  0.22592
USER: genes 25 Torsion [C]-CA--N-[C] |==|  0.57403
USER: genes 26 Torsion [N]-C--CA-[N] |==|  0.54454
USER: genes 27 Torsion [C]-CA--CB-[CG] |==|  0.77108
USER: genes 28 Torsion [CA]-CB--CG-[OD2] |==|  0.51014
ROOT
ATOM      1  C   TRP D 340      27.481  32.568  86.774  1.00 16.52 LIG 0.24  C 
ATOM      2 O    TRP D 340      27.407  31.807  85.806  1.00 16.60 LIG-0.27  OA
ATOM      3  N   THR D 341      26.517  33.415  87.107  1.00 13.22 LIG-0.34  N 
ATOM      4 H    THR D 341      26.567  33.938  87.788  1.00 13.22 LIG 0.16  HD
ENDROOT
BRANCH 3 5
ATOM      5  CA  THR D 341      25.274  33.555  86.361  1.00 12.53 LIG 0.20  C 
BRANCH 5 6
ATOM      6  C   THR D 341      25.563  34.038  84.941  1.00 12.10 LIG 0.24  C 
ATOM      7 O    THR D 341      26.475  34.831  84.712  1.00 10.92 LIG-0.27  OA
ATOM      8  N   HIS D 342      24.801  33.535  83.977  1.00 12.26 LIG-0.35  N 
ATOM      9 H    HIS D 342      24.180  32.954  84.105  1.00 12.26 LIG 0.16  HD
BRANCH 8 10
ATOM     10  CA  HIS D 342      24.971  33.946  82.587  1.00 12.78 LIG 0.18  C 
BRANCH 10 11
ATOM     11  C   HIS D 342      23.749  34.725  82.148  1.00 14.51 LIG 0.24  C 
ATOM     12  N   LEU D 343      23.596  34.915  80.841  1.00 15.48 LIG-0.35  N 
ATOM     13 H    LEU D 343      24.108  34.568  80.244  1.00 15.48 LIG 0.16  HD
ATOM     14 O    HIS D 342      22.937  35.141  82.994  1.00 16.02 LIG-0.27  OA
BRANCH 12 15
ATOM     15  CA  LEU D 343      22.520  35.750  80.301  1.00 16.72 LIG 0.18  C 
BRANCH 15 16
ATOM     16  C   LEU D 343      21.148  35.079  80.313  1.00 19.19 LIG 0.24  C 
ATOM     17  N   SER D 344      20.385  35.285  81.398  1.00 21.37 LIG-0.34  N 
ATOM     18 H    SER D 344      20.694  35.603  82.135  1.00 21.37 LIG 0.16  HD
ATOM     19 O    LEU D 343      20.791  34.403  79.362  1.00 19.56 LIG-0.27  OA
BRANCH 17 20
ATOM     20  CA  SER D 344      18.934  34.991  81.443  1.00 23.14 LIG 0.19  C 
BRANCH 20 21
ATOM     21  C   SER D 344      18.660  33.679  82.191  1.00 24.18 LIG 0.22  C 
ATOM     22 O    SER D 344      17.548  33.447  82.697  1.00 25.35 LIG-0.29  OA
ENDBRANCH 20 21
BRANCH 20 23
ATOM     23  CB  SER D 344      18.334  34.899  80.038  1.00 23.66 LIG 0.20  C 
BRANCH 23 24
ATOM     24 OG   SER D 344      18.159  33.539  79.637  1.00 25.03 LIG-0.40  OA
ATOM     25 HG   SER D 344      18.889  33.233  79.355  1.00 25.03 LIG 0.21  HD
ENDBRANCH 23 24
ENDBRANCH 20 23
ENDBRANCH 17 20
ENDBRANCH 15 16
BRANCH 15 26
ATOM     26  CB  LEU D 343      22.832  36.164  78.852  1.00 15.83 LIG 0.04  C 
BRANCH 26 27
ATOM     27  CG  LEU D 343      23.109  37.634  78.610  1.00 14.86 LIG-0.02  C 
ATOM     28  CD1 LEU D 343      22.091  38.483  79.354  1.00 12.95 LIG 0.01  C 
ATOM     29  CD2 LEU D 343      24.555  37.984  79.046  1.00 12.95 LIG 0.01  C 
ENDBRANCH 26 27
ENDBRANCH 15 26
ENDBRANCH 12 15
ENDBRANCH 10 11
BRANCH 10 30
ATOM     30  CB  HIS D 342      25.141  32.714  81.685  1.00 12.90 LIG 0.10  C 
BRANCH 30 31
ATOM     31  CG  HIS D 342      25.642  31.505  82.407  1.00 12.99 LIG 0.06  A 
ATOM     32  CD2 HIS D 342      25.038  30.317  82.652  1.00 12.88 LIG 0.14  A 
ATOM     33 NE2  HIS D 342      25.930  29.549  83.357  1.00 14.80 LIG-0.25  NA
ATOM     34  CE1 HIS D 342      27.039  30.236  83.546  1.00 13.21 LIG 0.23  A 
ATOM     35 ND1  HIS D 342      26.889  31.424  82.988  1.00 14.49 LIG-0.24  NA
ENDBRANCH 30 31
ENDBRANCH 10 30
ENDBRANCH 8 10
ENDBRANCH 5 6
BRANCH 5 36
ATOM     36  CB  THR D 341      24.315  34.534  87.078  1.00 12.70 LIG 0.15  C 
ATOM     37  CG2 THR D 341      25.001  35.881  87.375  1.00 14.15 LIG 0.04  C 
BRANCH 36 38
ATOM     38 OG1  THR D 341      23.157  34.740  86.258  1.00 14.08 LIG-0.39  OA
ATOM     39 HG1  THR D 341      23.397  34.899  85.469  1.00 14.08 LIG 0.21  HD
ENDBRANCH 36 38
ENDBRANCH 5 36
ENDBRANCH 3 5
BRANCH 1 40
ATOM     40  CA  TRP D 340      28.740  32.613  87.632  1.00 18.72 LIG 0.18  C 
BRANCH 40 41
ATOM     41  CB  TRP D 340      28.437  31.907  88.953  1.00 19.00 LIG 0.07  C 
BRANCH 41 42
ATOM     42  CG  TRP D 340      27.014  31.973  89.386  1.00 19.22 LIG-0.03  A 
ATOM     43  CD2 TRP D 340      26.388  33.053  90.074  1.00 20.18 LIG-0.00  A 
ATOM     44  CE3 TRP D 340      26.829  34.309  90.508  1.00 18.70 LIG 0.01  A 
ATOM     45  CE2 TRP D 340      25.049  32.673  90.319  1.00 18.84 LIG 0.04  A 
ATOM     46  CZ3 TRP D 340      25.929  35.140  91.171  1.00 20.55 LIG 0.00  A 
ATOM     47  CH2 TRP D 340      24.601  34.731  91.392  1.00 19.52 LIG 0.00  A 
ATOM     48  CZ2 TRP D 340      24.144  33.506  90.979  1.00 19.79 LIG 0.03  A 
ATOM     49  NE1 TRP D 340      24.872  31.417  89.798  1.00 21.77 LIG-0.36  N 
ATOM     50  CD1 TRP D 340      26.066  31.000  89.253  1.00 20.48 LIG 0.10  A 
ATOM     51 HE1  TRP D 340      24.140  30.966  89.810  1.00 21.77 LIG 0.17  HD
ENDBRANCH 41 42
ENDBRANCH 40 41
BRANCH 40 52
ATOM     52  N   TRP D 340      29.184  33.990  87.876  1.00 22.23 LIG-0.35  N 
ATOM     53  C   ASP D 339      30.359  34.455  87.455  1.00 26.49 LIG 0.24  C 
ATOM     54 O    ASP D 339      31.174  33.768  86.815  1.00 27.22 LIG-0.27  OA
ATOM     55 H    TRP D 340      28.617  34.466  88.314  1.00 22.23 LIG 0.16  HD
BRANCH 53 56
ATOM     56  CA  ASP D 339      30.680  35.912  87.804  1.00 29.46 LIG 0.19  C 
BRANCH 56 57
ATOM     57  CB  ASP D 339      29.386  36.730  87.812  1.00 30.27 LIG 0.15  C 
BRANCH 57 58
ATOM     58  CG  ASP D 339      28.917  37.128  86.409  1.00 32.94 LIG 0.17  C 
ATOM     59 OD1  ASP D 339      28.288  36.279  85.742  1.00 36.53 LIG-0.65  OA
ATOM     60 OD2  ASP D 339      29.187  38.273  85.965  1.00 35.99 LIG-0.65  OA
ENDBRANCH 57 58
ENDBRANCH 56 57
BRANCH 56 61
ATOM     61  N   ASP D 339      31.615  36.492  86.844  1.00 31.22 LIG-0.34  N 
ATOM     62  C   ASP D 338      32.445  37.491  87.135  1.00 32.92 LIG 0.26  C 
ATOM     63 O    ASP D 338      32.664  37.888  88.285  1.00 33.60 LIG-0.27  OA
ATOM     64 H    ASP D 339      31.579  36.124  86.067  1.00 31.22 LIG 0.16  HD
BRANCH 62 65
ATOM     65  CA  ASP D 338      33.160  38.123  85.941  1.00 33.82 LIG 0.41  C 
ATOM     66  N   ASP D 338      34.328  38.945  86.391  1.00 34.02 LIG 0.61  N 
BRANCH 65 67
ATOM     67  CB  ASP D 338      33.611  37.033  84.956  1.00 34.49 LIG 0.16  C 
BRANCH 67 68
ATOM     68  CG  ASP D 338      34.928  36.379  85.358  1.00 35.92 LIG 0.17  C 
ATOM     69 OD2  ASP D 338      35.422  35.528  84.592  1.00 39.23 LIG-0.65  OA
ATOM     70 OD1  ASP D 338      35.469  36.701  86.443  1.00 38.97 LIG-0.65  OA
ENDBRANCH 67 68
ENDBRANCH 65 67
ENDBRANCH 62 65
ENDBRANCH 56 61
ENDBRANCH 53 56
ENDBRANCH 40 52
ENDBRANCH 1 40
TORSDOF 27
ENDMDL
MODEL 60
USER: ADFR SOLUTION from run 89
USER: SCORE 20.783194 LL:  -5.258 LR: -16.937 RR:   0.000 FEB:  -8.883
USER: RMSD 4.077727
USER: SEED 88
USER: STATUS no improvement in best in 1 clusters for 5 generations
USER: GENES 29
USER: genes 0 Translation |==|  0.51696 0.49197 0.56308
USER: genes 1 Rotation |==|  0.32950 0.68295 0.51649 0.93265
USER: genes 2 Torsion [C]-N--CA-[CB] |==|  0.83878
USER: genes 3 Torsion [N]-CA--C-[N] |==|  0.31292
USER: genes 4 Torsion [C]-N--CA-[C] |==|  0.59444
USER: genes 5 Torsion [N]-CA--C-[N] |==|  0.86660
USER: genes 6 Torsion [C]-N--CA-[C] |==|  0.77906
USER: genes 7 Torsion [N]-CA--C-[N] |==|  0.37858
USER: genes 8 Torsion [C]-N--CA-[C] |==|  0.57365
USER: genes 9 Torsion [N]-CA--C-[O] |==|  0.99719
USER: genes 10 Torsion [N]-CA--CB-[OG] |==|  0.70081
USER: genes 11 Torsion [CA]-CB--OG-[HG] |==|  0.70882
USER: genes 12 Torsion [N]-CA--CB-[CG] |==|  0.81909
USER: genes 13 Torsion [CA]-CB--CG-[CD2] |==|  0.96839
USER: genes 14 Torsion [N]-CA--CB-[CG] |==|  0.75793
USER: genes 15 Torsion [CA]-CB--CG-[CD2] |==|  0.77392
USER: genes 16 Torsion [N]-CA--CB-[OG1] |==|  0.93883
USER: genes 17 Torsion [CA]-CB--OG1-[HG1] |==|  0.65708
USER: genes 18 Torsion [N]-C--CA-[N] |==|  0.47005
USER: genes 19 Torsion [C]-CA--CB-[CG] |==|  0.27276
USER: genes 20 Torsion [CA]-CB--CG-[CD2] |==|  0.43040
USER: genes 21 Torsion [C]-CA--N-[C] |==|  0.79399
USER: genes 22 Torsion [N]-C--CA-[N] |==|  0.03423
USER: genes 23 Torsion [C]-CA--CB-[CG] |==|  0.86932
USER: genes 24 Torsion [CA]-CB--CG-[OD1] |==|  0.88551
USER: genes 25 Torsion [C]-CA--N-[C] |==|  0.66061
USER: genes 26 Torsion [N]-C--CA-[N] |==|  0.67086
USER: genes 27 Torsion [C]-CA--CB-[CG] |==|  0.72022
USER: genes 28 Torsion [CA]-CB--CG-[OD2] |==|  0.14112
ROOT
ATOM      1  C   TRP D 340      23.491  35.746  81.811  1.00 16.52 LIG 0.24  C 
ATOM      2 O    TRP D 340      23.010  36.835  82.134  1.00 16.60 LIG-0.27  OA
ATOM      3  N   THR D 341      22.767  34.754  81.310  1.00 13.22 LIG-0.34  N 
ATOM      4 H    THR D 341      23.106  33.999  81.077  1.00 13.22 LIG 0.16  HD
ENDROOT
BRANCH 3 5
ATOM      5  CA  THR D 341      21.328  34.832  81.101  1.00 12.53 LIG 0.20  C 
BRANCH 5 6
ATOM      6  C   THR D 341      21.004  35.899  80.057  1.00 12.10 LIG 0.24  C 
ATOM      7 O    THR D 341      21.223  37.089  80.274  1.00 10.92 LIG-0.27  OA
ATOM      8  N   HIS D 342      20.507  35.468  78.904  1.00 12.26 LIG-0.35  N 
ATOM      9 H    HIS D 342      20.376  34.639  78.713  1.00 12.26 LIG 0.16  HD
BRANCH 8 10
ATOM     10  CA  HIS D 342      20.136  36.401  77.845  1.00 12.78 LIG 0.18  C 
BRANCH 10 11
ATOM     11  C   HIS D 342      18.934  35.856  77.104  1.00 14.51 LIG 0.24  C 
ATOM     12  N   LEU D 343      18.987  34.582  76.725  1.00 15.48 LIG-0.35  N 
ATOM     13 H    LEU D 343      19.627  34.047  76.935  1.00 15.48 LIG 0.16  HD
ATOM     14 O    HIS D 342      17.949  36.587  76.887  1.00 16.02 LIG-0.27  OA
BRANCH 12 15
ATOM     15  CA  LEU D 343      17.939  33.974  75.902  1.00 16.72 LIG 0.18  C 
BRANCH 15 16
ATOM     16  C   LEU D 343      16.692  33.571  76.684  1.00 19.19 LIG 0.24  C 
ATOM     17  N   SER D 344      15.507  33.868  76.125  1.00 21.37 LIG-0.34  N 
ATOM     18 H    SER D 344      15.423  34.421  75.472  1.00 21.37 LIG 0.16  HD
ATOM     19 O    LEU D 343      16.801  32.998  77.755  1.00 19.56 LIG-0.27  OA
BRANCH 17 20
ATOM     20  CA  SER D 344      14.223  33.278  76.571  1.00 23.14 LIG 0.19  C 
BRANCH 20 21
ATOM     21  C   SER D 344      13.200  33.256  75.427  1.00 24.18 LIG 0.22  C 
ATOM     22 O    SER D 344      13.479  33.713  74.305  1.00 25.35 LIG-0.29  OA
ENDBRANCH 20 21
BRANCH 20 23
ATOM     23  CB  SER D 344      13.632  34.045  77.755  1.00 23.66 LIG 0.20  C 
BRANCH 23 24
ATOM     24 OG   SER D 344      13.743  33.295  78.966  1.00 25.03 LIG-0.40  OA
ATOM     25 HG   SER D 344      12.991  32.980  79.170  1.00 25.03 LIG 0.21  HD
ENDBRANCH 23 24
ENDBRANCH 20 23
ENDBRANCH 17 20
ENDBRANCH 15 16
BRANCH 15 26
ATOM     26  CB  LEU D 343      18.474  32.722  75.184  1.00 15.83 LIG 0.04  C 
BRANCH 26 27
ATOM     27  CG  LEU D 343      19.565  32.942  74.156  1.00 14.86 LIG-0.02  C 
ATOM     28  CD1 LEU D 343      19.256  32.153  72.894  1.00 12.95 LIG 0.01  C 
ATOM     29  CD2 LEU D 343      19.713  34.455  73.848  1.00 12.95 LIG 0.01  C 
ENDBRANCH 26 27
ENDBRANCH 15 26
ENDBRANCH 12 15
ENDBRANCH 10 11
BRANCH 10 30
ATOM     30  CB  HIS D 342      21.303  36.579  76.861  1.00 12.90 LIG 0.10  C 
BRANCH 30 31
ATOM     31  CG  HIS D 342      22.271  37.644  77.262  1.00 12.99 LIG 0.06  A 
ATOM     32  CD2 HIS D 342      22.211  38.989  77.105  1.00 12.88 LIG 0.14  A 
ATOM     33 NE2  HIS D 342      23.358  39.511  77.646  1.00 14.80 LIG-0.25  NA
ATOM     34  CE1 HIS D 342      24.102  38.528  78.115  1.00 13.21 LIG 0.23  A 
ATOM     35 ND1  HIS D 342      23.471  37.389  77.890  1.00 14.49 LIG-0.24  NA
ENDBRANCH 30 31
ENDBRANCH 10 30
ENDBRANCH 8 10
ENDBRANCH 5 6
BRANCH 5 36
ATOM     36  CB  THR D 341      20.600  35.142  82.430  1.00 12.70 LIG 0.15  C 
ATOM     37  CG2 THR D 341      19.250  34.407  82.519  1.00 14.15 LIG 0.04  C 
BRANCH 36 38
ATOM     38 OG1  THR D 341      21.443  34.761  83.526  1.00 14.08 LIG-0.39  OA
ATOM     39 HG1  THR D 341      21.034  34.215  84.016  1.00 14.08 LIG 0.21  HD
ENDBRANCH 36 38
ENDBRANCH 5 36
ENDBRANCH 3 5
BRANCH 1 40
ATOM     40  CA  TRP D 340      24.972  35.456  82.025  1.00 18.72 LIG 0.18  C 
BRANCH 40 41
ATOM     41  CB  TRP D 340      25.095  34.446  83.165  1.00 19.00 LIG 0.07  C 
BRANCH 41 42
ATOM     42  CG  TRP D 340      25.268  33.032  82.733  1.00 19.22 LIG-0.03  A 
ATOM     43  CD2 TRP D 340      25.885  31.989  83.483  1.00 20.18 LIG-0.00  A 
ATOM     44  CE3 TRP D 340      26.454  31.921  84.760  1.00 18.70 LIG 0.01  A 
ATOM     45  CE2 TRP D 340      25.867  30.828  82.677  1.00 18.84 LIG 0.04  A 
ATOM     46  CZ3 TRP D 340      26.986  30.708  85.191  1.00 20.55 LIG 0.00  A 
ATOM     47  CH2 TRP D 340      26.943  29.570  84.364  1.00 19.52 LIG 0.00  A 
ATOM     48  CZ2 TRP D 340      26.395  29.610  83.108  1.00 19.79 LIG 0.03  A 
ATOM     49  NE1 TRP D 340      25.260  31.155  81.491  1.00 21.77 LIG-0.36  N 
ATOM     50  CD1 TRP D 340      24.918  32.489  81.531  1.00 20.48 LIG 0.10  A 
ATOM     51 HE1  TRP D 340      25.118  30.619  80.834  1.00 21.77 LIG 0.17  HD
ENDBRANCH 41 42
ENDBRANCH 40 41
BRANCH 40 52
ATOM     52  N   TRP D 340      25.726  36.676  82.336  1.00 22.23 LIG-0.35  N 
ATOM     53  C   ASP D 339      26.021  37.595  81.418  1.00 26.49 LIG 0.24  C 
ATOM     54 O    ASP D 339      25.678  37.504  80.227  1.00 27.22 LIG-0.27  OA
ATOM     55 H    TRP D 340      25.957  36.741  83.161  1.00 22.23 LIG 0.16  HD
BRANCH 53 56
ATOM     56  CA  ASP D 339      26.829  38.805  81.902  1.00 29.46 LIG 0.19  C 
BRANCH 56 57
ATOM     57  CB  ASP D 339      27.976  39.074  80.925  1.00 30.27 LIG 0.15  C 
BRANCH 57 58
ATOM     58  CG  ASP D 339      28.756  37.811  80.549  1.00 32.94 LIG 0.17  C 
ATOM     59 OD1  ASP D 339      29.006  36.990  81.457  1.00 36.53 LIG-0.65  OA
ATOM     60 OD2  ASP D 339      29.131  37.642  79.362  1.00 35.99 LIG-0.65  OA
ENDBRANCH 57 58
ENDBRANCH 56 57
BRANCH 56 61
ATOM     61  N   ASP D 339      27.372  38.577  83.238  1.00 31.22 LIG-0.34  N 
ATOM     62  C   ASP D 338      27.117  39.366  84.281  1.00 32.92 LIG 0.26  C 
ATOM     63 O    ASP D 338      26.240  40.236  84.285  1.00 33.60 LIG-0.27  OA
ATOM     64 H    ASP D 339      27.874  37.882  83.289  1.00 31.22 LIG 0.16  HD
BRANCH 62 65
ATOM     65  CA  ASP D 338      27.971  39.110  85.523  1.00 33.82 LIG 0.41  C 
ATOM     66  N   ASP D 338      27.116  38.705  86.684  1.00 34.02 LIG 0.61  N 
BRANCH 65 67
ATOM     67  CB  ASP D 338      29.029  38.036  85.227  1.00 34.49 LIG 0.16  C 
BRANCH 67 68
ATOM     68  CG  ASP D 338      28.645  36.661  85.762  1.00 35.92 LIG 0.17  C 
ATOM     69 OD2  ASP D 338      27.516  36.213  85.481  1.00 39.23 LIG-0.65  OA
ATOM     70 OD1  ASP D 338      29.462  36.028  86.473  1.00 38.97 LIG-0.65  OA
ENDBRANCH 67 68
ENDBRANCH 65 67
ENDBRANCH 62 65
ENDBRANCH 56 61
ENDBRANCH 53 56
ENDBRANCH 40 52
ENDBRANCH 1 40
TORSDOF 27
ENDMDL
MODEL 61
USER: ADFR SOLUTION from run 186
USER: SCORE 20.410657 LL:  -5.054 LR: -16.910 RR:   0.000 FEB:  -8.856
USER: RMSD 4.383730
USER: SEED 185
USER: STATUS no improvement in best in 12 clusters for 5 generations
USER: GENES 29
USER: genes 0 Translation |==|  0.47778 0.44965 0.49571
USER: genes 1 Rotation |==|  0.12870 0.61050 0.24571 0.68779
USER: genes 2 Torsion [C]-N--CA-[CB] |==|  0.59158
USER: genes 3 Torsion [N]-CA--C-[N] |==|  0.30925
USER: genes 4 Torsion [C]-N--CA-[C] |==|  0.76734
USER: genes 5 Torsion [N]-CA--C-[N] |==|  0.45476
USER: genes 6 Torsion [C]-N--CA-[C] |==|  0.81438
USER: genes 7 Torsion [N]-CA--C-[N] |==|  0.34066
USER: genes 8 Torsion [C]-N--CA-[C] |==|  0.21224
USER: genes 9 Torsion [N]-CA--C-[O] |==|  0.97762
USER: genes 10 Torsion [N]-CA--CB-[OG] |==|  0.79129
USER: genes 11 Torsion [CA]-CB--OG-[HG] |==|  0.01715
USER: genes 12 Torsion [N]-CA--CB-[CG] |==|  0.16910
USER: genes 13 Torsion [CA]-CB--CG-[CD2] |==|  0.80563
USER: genes 14 Torsion [N]-CA--CB-[CG] |==|  0.21320
USER: genes 15 Torsion [CA]-CB--CG-[CD2] |==|  0.88770
USER: genes 16 Torsion [N]-CA--CB-[OG1] |==|  0.75290
USER: genes 17 Torsion [CA]-CB--OG1-[HG1] |==|  0.03842
USER: genes 18 Torsion [N]-C--CA-[N] |==|  0.68727
USER: genes 19 Torsion [C]-CA--CB-[CG] |==|  0.41679
USER: genes 20 Torsion [CA]-CB--CG-[CD2] |==|  0.85883
USER: genes 21 Torsion [C]-CA--N-[C] |==|  0.56685
USER: genes 22 Torsion [N]-C--CA-[N] |==|  0.39088
USER: genes 23 Torsion [C]-CA--CB-[CG] |==|  0.81425
USER: genes 24 Torsion [CA]-CB--CG-[OD1] |==|  0.42044
USER: genes 25 Torsion [C]-CA--N-[C] |==|  0.83078
USER: genes 26 Torsion [N]-C--CA-[N] |==|  0.49633
USER: genes 27 Torsion [C]-CA--CB-[CG] |==|  0.77906
USER: genes 28 Torsion [CA]-CB--CG-[OD2] |==|  0.58767
ROOT
ATOM      1  C   TRP D 340      22.404  34.921  79.992  1.00 16.52 LIG 0.24  C 
ATOM      2 O    TRP D 340      22.644  35.153  78.805  1.00 16.60 LIG-0.27  OA
ATOM      3  N   THR D 341      21.187  34.651  80.447  1.00 13.22 LIG-0.34  N 
ATOM      4 H    THR D 341      21.024  34.481  81.274  1.00 13.22 LIG 0.16  HD
ENDROOT
BRANCH 3 5
ATOM      5  CA  THR D 341      20.001  34.615  79.603  1.00 12.53 LIG 0.20  C 
BRANCH 5 6
ATOM      6  C   THR D 341      20.210  35.482  78.362  1.00 12.10 LIG 0.24  C 
ATOM      7 O    THR D 341      20.310  36.705  78.451  1.00 10.92 LIG-0.27  OA
ATOM      8  N   HIS D 342      20.306  34.844  77.203  1.00 12.26 LIG-0.35  N 
ATOM      9 H    HIS D 342      20.274  33.989  77.117  1.00 12.26 LIG 0.16  HD
BRANCH 8 10
ATOM     10  CA  HIS D 342      20.480  35.575  75.951  1.00 12.78 LIG 0.18  C 
BRANCH 10 11
ATOM     11  C   HIS D 342      19.124  36.026  75.449  1.00 14.51 LIG 0.24  C 
ATOM     12  N   LEU D 343      19.114  36.975  74.517  1.00 15.48 LIG-0.35  N 
ATOM     13 H    LEU D 343      19.823  37.288  74.145  1.00 15.48 LIG 0.16  HD
ATOM     14 O    HIS D 342      18.087  35.504  75.897  1.00 16.02 LIG-0.27  OA
BRANCH 12 15
ATOM     15  CA  LEU D 343      17.867  37.576  74.037  1.00 16.72 LIG 0.18  C 
BRANCH 15 16
ATOM     16  C   LEU D 343      16.971  36.613  73.263  1.00 19.19 LIG 0.24  C 
ATOM     17  N   SER D 344      15.724  36.439  73.731  1.00 21.37 LIG-0.34  N 
ATOM     18 H    SER D 344      15.482  36.684  74.519  1.00 21.37 LIG 0.16  HD
ATOM     19 O    LEU D 343      17.395  36.052  72.266  1.00 19.56 LIG-0.27  OA
BRANCH 17 20
ATOM     20  CA  SER D 344      14.637  35.812  72.945  1.00 23.14 LIG 0.19  C 
BRANCH 20 21
ATOM     21  C   SER D 344      14.804  34.287  72.892  1.00 24.18 LIG 0.22  C 
ATOM     22 O    SER D 344      15.829  33.736  73.331  1.00 25.35 LIG-0.29  OA
ENDBRANCH 20 21
BRANCH 20 23
ATOM     23  CB  SER D 344      14.587  36.358  71.517  1.00 23.66 LIG 0.20  C 
BRANCH 23 24
ATOM     24 OG   SER D 344      14.026  37.672  71.484  1.00 25.03 LIG-0.40  OA
ATOM     25 HG   SER D 344      13.900  37.943  72.269  1.00 25.03 LIG 0.21  HD
ENDBRANCH 23 24
ENDBRANCH 20 23
ENDBRANCH 17 20
ENDBRANCH 15 16
BRANCH 15 26
ATOM     26  CB  LEU D 343      18.163  38.782  73.128  1.00 15.83 LIG 0.04  C 
BRANCH 26 27
ATOM     27  CG  LEU D 343      18.959  38.504  71.868  1.00 14.86 LIG-0.02  C 
ATOM     28  CD1 LEU D 343      18.895  39.705  70.939  1.00 12.95 LIG 0.01  C 
ATOM     29  CD2 LEU D 343      20.425  38.153  72.229  1.00 12.95 LIG 0.01  C 
ENDBRANCH 26 27
ENDBRANCH 15 26
ENDBRANCH 12 15
ENDBRANCH 10 11
BRANCH 10 30
ATOM     30  CB  HIS D 342      21.138  34.672  74.896  1.00 12.90 LIG 0.10  C 
BRANCH 30 31
ATOM     31  CG  HIS D 342      20.204  33.678  74.287  1.00 12.99 LIG 0.06  A 
ATOM     32  CD2 HIS D 342      19.230  32.927  74.856  1.00 12.88 LIG 0.14  A 
ATOM     33 NE2  HIS D 342      18.666  32.173  73.857  1.00 14.80 LIG-0.25  NA
ATOM     34  CE1 HIS D 342      19.272  32.442  72.718  1.00 13.21 LIG 0.23  A 
ATOM     35 ND1  HIS D 342      20.210  33.343  72.950  1.00 14.49 LIG-0.24  NA
ENDBRANCH 30 31
ENDBRANCH 10 30
ENDBRANCH 8 10
ENDBRANCH 5 6
BRANCH 5 36
ATOM     36  CB  THR D 341      18.758  35.092  80.389  1.00 12.70 LIG 0.15  C 
ATOM     37  CG2 THR D 341      17.735  35.781  79.466  1.00 14.15 LIG 0.04  C 
BRANCH 36 38
ATOM     38 OG1  THR D 341      18.154  33.966  81.040  1.00 14.08 LIG-0.39  OA
ATOM     39 HG1  THR D 341      18.686  33.317  81.027  1.00 14.08 LIG 0.21  HD
ENDBRANCH 36 38
ENDBRANCH 5 36
ENDBRANCH 3 5
BRANCH 1 40
ATOM     40  CA  TRP D 340      23.512  34.985  81.036  1.00 18.72 LIG 0.18  C 
BRANCH 40 41
ATOM     41  CB  TRP D 340      22.941  34.484  82.362  1.00 19.00 LIG 0.07  C 
BRANCH 41 42
ATOM     42  CG  TRP D 340      23.928  33.825  83.261  1.00 19.22 LIG-0.03  A 
ATOM     43  CD2 TRP D 340      24.829  32.779  82.905  1.00 20.18 LIG-0.00  A 
ATOM     44  CE3 TRP D 340      25.099  32.098  81.712  1.00 18.70 LIG 0.01  A 
ATOM     45  CE2 TRP D 340      25.548  32.433  84.071  1.00 18.84 LIG 0.04  A 
ATOM     46  CZ3 TRP D 340      26.068  31.098  81.719  1.00 20.55 LIG 0.00  A 
ATOM     47  CH2 TRP D 340      26.770  30.785  82.898  1.00 19.52 LIG 0.00  A 
ATOM     48  CZ2 TRP D 340      26.523  31.434  84.080  1.00 19.79 LIG 0.03  A 
ATOM     49  NE1 TRP D 340      25.104  33.238  85.088  1.00 21.77 LIG-0.36  N 
ATOM     50  CD1 TRP D 340      24.118  34.062  84.591  1.00 20.48 LIG 0.10  A 
ATOM     51 HE1  TRP D 340      25.392  33.231  85.899  1.00 21.77 LIG 0.17  HD
ENDBRANCH 41 42
ENDBRANCH 40 41
BRANCH 40 52
ATOM     52  N   TRP D 340      24.040  36.345  81.187  1.00 22.23 LIG-0.35  N 
ATOM     53  C   ASP D 339      25.264  36.597  81.649  1.00 26.49 LIG 0.24  C 
ATOM     54 O    ASP D 339      26.063  35.705  81.983  1.00 27.22 LIG-0.27  OA
ATOM     55 H    TRP D 340      23.489  36.961  80.950  1.00 22.23 LIG 0.16  HD
BRANCH 53 56
ATOM     56  CA  ASP D 339      25.660  38.073  81.761  1.00 29.46 LIG 0.19  C 
BRANCH 56 57
ATOM     57  CB  ASP D 339      26.489  38.472  80.537  1.00 30.27 LIG 0.15  C 
BRANCH 57 58
ATOM     58  CG  ASP D 339      27.853  37.777  80.482  1.00 32.94 LIG 0.17  C 
ATOM     59 OD1  ASP D 339      28.359  37.576  79.358  1.00 36.53 LIG-0.65  OA
ATOM     60 OD2  ASP D 339      28.411  37.418  81.550  1.00 35.99 LIG-0.65  OA
ENDBRANCH 57 58
ENDBRANCH 56 57
BRANCH 56 61
ATOM     61  N   ASP D 339      26.433  38.322  82.974  1.00 31.22 LIG-0.34  N 
ATOM     62  C   ASP D 338      25.966  38.109  84.203  1.00 32.92 LIG 0.26  C 
ATOM     63 O    ASP D 338      24.925  37.487  84.442  1.00 33.60 LIG-0.27  OA
ATOM     64 H    ASP D 339      27.225  38.621  82.820  1.00 31.22 LIG 0.16  HD
BRANCH 62 65
ATOM     65  CA  ASP D 338      26.824  38.663  85.339  1.00 33.82 LIG 0.41  C 
ATOM     66  N   ASP D 338      26.188  38.395  86.669  1.00 34.02 LIG 0.61  N 
BRANCH 65 67
ATOM     67  CB  ASP D 338      28.236  38.058  85.281  1.00 34.49 LIG 0.16  C 
BRANCH 67 68
ATOM     68  CG  ASP D 338      28.303  36.653  85.869  1.00 35.92 LIG 0.17  C 
ATOM     69 OD2  ASP D 338      29.361  36.295  86.422  1.00 39.23 LIG-0.65  OA
ATOM     70 OD1  ASP D 338      27.307  35.897  85.771  1.00 38.97 LIG-0.65  OA
ENDBRANCH 67 68
ENDBRANCH 65 67
ENDBRANCH 62 65
ENDBRANCH 56 61
ENDBRANCH 53 56
ENDBRANCH 40 52
ENDBRANCH 1 40
TORSDOF 27
ENDMDL
MODEL 62
USER: ADFR SOLUTION from run 126
USER: SCORE 19.601882 LL:  -5.559 LR: -16.905 RR:   0.000 FEB:  -8.851
USER: RMSD 4.612145
USER: SEED 125
USER: STATUS no improvement in best in 13 clusters for 5 generations
USER: GENES 29
USER: genes 0 Translation |==|  0.53732 0.42881 0.55506
USER: genes 1 Rotation |==|  0.80265 0.44712 0.85911 0.66324
USER: genes 2 Torsion [C]-N--CA-[CB] |==|  0.32920
USER: genes 3 Torsion [N]-CA--C-[N] |==|  0.70527
USER: genes 4 Torsion [C]-N--CA-[C] |==|  0.17994
USER: genes 5 Torsion [N]-CA--C-[N] |==|  0.06426
USER: genes 6 Torsion [C]-N--CA-[C] |==|  0.61737
USER: genes 7 Torsion [N]-CA--C-[N] |==|  0.86665
USER: genes 8 Torsion [C]-N--CA-[C] |==|  0.89212
USER: genes 9 Torsion [N]-CA--C-[O] |==|  0.47236
USER: genes 10 Torsion [N]-CA--CB-[OG] |==|  0.88622
USER: genes 11 Torsion [CA]-CB--OG-[HG] |==|  0.01229
USER: genes 12 Torsion [N]-CA--CB-[CG] |==|  0.59718
USER: genes 13 Torsion [CA]-CB--CG-[CD2] |==|  0.15286
USER: genes 14 Torsion [N]-CA--CB-[CG] |==|  0.71132
USER: genes 15 Torsion [CA]-CB--CG-[CD2] |==|  0.36618
USER: genes 16 Torsion [N]-CA--CB-[OG1] |==|  0.88267
USER: genes 17 Torsion [CA]-CB--OG1-[HG1] |==|  0.10847
USER: genes 18 Torsion [N]-C--CA-[N] |==|  0.93148
USER: genes 19 Torsion [C]-CA--CB-[CG] |==|  0.30875
USER: genes 20 Torsion [CA]-CB--CG-[CD2] |==|  0.85492
USER: genes 21 Torsion [C]-CA--N-[C] |==|  0.65376
USER: genes 22 Torsion [N]-C--CA-[N] |==|  0.45649
USER: genes 23 Torsion [C]-CA--CB-[CG] |==|  0.87729
USER: genes 24 Torsion [CA]-CB--CG-[OD1] |==|  0.88220
USER: genes 25 Torsion [C]-CA--N-[C] |==|  0.79496
USER: genes 26 Torsion [N]-C--CA-[N] |==|  0.87673
USER: genes 27 Torsion [C]-CA--CB-[CG] |==|  0.79212
USER: genes 28 Torsion [CA]-CB--CG-[OD2] |==|  0.87210
ROOT
ATOM      1  C   TRP D 340      24.056  34.515  81.595  1.00 16.52 LIG 0.24  C 
ATOM      2 O    TRP D 340      24.051  33.348  81.196  1.00 16.60 LIG-0.27  OA
ATOM      3  N   THR D 341      23.166  35.418  81.206  1.00 13.22 LIG-0.34  N 
ATOM      4 H    THR D 341      23.166  36.229  81.493  1.00 13.22 LIG 0.16  HD
ENDROOT
BRANCH 3 5
ATOM      5  CA  THR D 341      22.098  35.140  80.256  1.00 12.53 LIG 0.20  C 
BRANCH 5 6
ATOM      6  C   THR D 341      22.240  36.034  79.026  1.00 12.10 LIG 0.24  C 
ATOM      7 O    THR D 341      23.098  35.811  78.173  1.00 10.92 LIG-0.27  OA
ATOM      8  N   HIS D 342      21.376  37.036  78.917  1.00 12.26 LIG-0.35  N 
ATOM      9 H    HIS D 342      20.746  37.194  79.480  1.00 12.26 LIG 0.16  HD
BRANCH 8 10
ATOM     10  CA  HIS D 342      21.437  37.968  77.796  1.00 12.78 LIG 0.18  C 
BRANCH 10 11
ATOM     11  C   HIS D 342      21.139  37.220  76.513  1.00 14.51 LIG 0.24  C 
ATOM     12  N   LEU D 343      20.445  36.091  76.623  1.00 15.48 LIG-0.35  N 
ATOM     13 H    LEU D 343      20.106  35.808  77.361  1.00 15.48 LIG 0.16  HD
ATOM     14 O    HIS D 342      21.527  37.674  75.421  1.00 16.02 LIG-0.27  OA
BRANCH 12 15
ATOM     15  CA  LEU D 343      20.195  35.220  75.472  1.00 16.72 LIG 0.18  C 
BRANCH 15 16
ATOM     16  C   LEU D 343      18.772  34.670  75.407  1.00 19.19 LIG 0.24  C 
ATOM     17  N   SER D 344      18.278  34.138  76.537  1.00 21.37 LIG-0.34  N 
ATOM     18 H    SER D 344      18.771  33.927  77.210  1.00 21.37 LIG 0.16  HD
ATOM     19 O    LEU D 343      18.139  34.735  74.366  1.00 19.56 LIG-0.27  OA
BRANCH 17 20
ATOM     20  CA  SER D 344      16.839  33.859  76.747  1.00 23.14 LIG 0.19  C 
BRANCH 20 21
ATOM     21  C   SER D 344      15.968  34.969  76.144  1.00 24.18 LIG 0.22  C 
ATOM     22 O    SER D 344      14.734  34.839  76.049  1.00 25.35 LIG-0.29  OA
ENDBRANCH 20 21
BRANCH 20 23
ATOM     23  CB  SER D 344      16.504  33.713  78.233  1.00 23.66 LIG 0.20  C 
BRANCH 23 24
ATOM     24 OG   SER D 344      17.514  32.974  78.922  1.00 25.03 LIG-0.40  OA
ATOM     25 HG   SER D 344      18.145  32.802  78.394  1.00 25.03 LIG 0.21  HD
ENDBRANCH 23 24
ENDBRANCH 20 23
ENDBRANCH 17 20
ENDBRANCH 15 16
BRANCH 15 26
ATOM     26  CB  LEU D 343      21.164  34.026  75.477  1.00 15.83 LIG 0.04  C 
BRANCH 26 27
ATOM     27  CG  LEU D 343      21.636  33.527  74.126  1.00 14.86 LIG-0.02  C 
ATOM     28  CD1 LEU D 343      20.474  32.903  73.369  1.00 12.95 LIG 0.01  C 
ATOM     29  CD2 LEU D 343      22.269  34.689  73.318  1.00 12.95 LIG 0.01  C 
ENDBRANCH 26 27
ENDBRANCH 15 26
ENDBRANCH 12 15
ENDBRANCH 10 11
BRANCH 10 30
ATOM     30  CB  HIS D 342      22.835  38.599  77.705  1.00 12.90 LIG 0.10  C 
BRANCH 30 31
ATOM     31  CG  HIS D 342      22.893  40.005  78.205  1.00 12.99 LIG 0.06  A 
ATOM     32  CD2 HIS D 342      23.763  40.597  79.059  1.00 12.88 LIG 0.14  A 
ATOM     33 NE2  HIS D 342      23.373  41.906  79.190  1.00 14.80 LIG-0.25  NA
ATOM     34  CE1 HIS D 342      22.301  42.114  78.452  1.00 13.21 LIG 0.23  A 
ATOM     35 ND1  HIS D 342      21.985  40.981  77.851  1.00 14.49 LIG-0.24  NA
ENDBRANCH 30 31
ENDBRANCH 10 30
ENDBRANCH 8 10
ENDBRANCH 5 6
BRANCH 5 36
ATOM     36  CB  THR D 341      20.714  35.349  80.915  1.00 12.70 LIG 0.15  C 
ATOM     37  CG2 THR D 341      19.590  34.698  80.088  1.00 14.15 LIG 0.04  C 
BRANCH 36 38
ATOM     38 OG1  THR D 341      20.736  34.796  82.238  1.00 14.08 LIG-0.39  OA
ATOM     39 HG1  THR D 341      21.478  34.957  82.596  1.00 14.08 LIG 0.21  HD
ENDBRANCH 36 38
ENDBRANCH 5 36
ENDBRANCH 3 5
BRANCH 1 40
ATOM     40  CA  TRP D 340      25.144  35.008  82.540  1.00 18.72 LIG 0.18  C 
BRANCH 40 41
ATOM     41  CB  TRP D 340      24.720  34.665  83.968  1.00 19.00 LIG 0.07  C 
BRANCH 41 42
ATOM     42  CG  TRP D 340      25.541  33.615  84.630  1.00 19.22 LIG-0.03  A 
ATOM     43  CD2 TRP D 340      25.842  32.323  84.108  1.00 20.18 LIG-0.00  A 
ATOM     44  CE3 TRP D 340      25.537  31.669  82.908  1.00 18.70 LIG 0.01  A 
ATOM     45  CE2 TRP D 340      26.611  31.647  85.082  1.00 18.84 LIG 0.04  A 
ATOM     46  CZ3 TRP D 340      26.001  30.369  82.720  1.00 20.55 LIG 0.00  A 
ATOM     47  CH2 TRP D 340      26.770  29.730  83.710  1.00 19.52 LIG 0.00  A 
ATOM     48  CZ2 TRP D 340      27.081  30.346  84.894  1.00 19.79 LIG 0.03  A 
ATOM     49  NE1 TRP D 340      26.770  32.496  86.148  1.00 21.77 LIG-0.36  N 
ATOM     50  CD1 TRP D 340      26.109  33.672  85.869  1.00 20.48 LIG 0.10  A 
ATOM     51 HE1  TRP D 340      27.209  32.324  86.867  1.00 21.77 LIG 0.17  HD
ENDBRANCH 41 42
ENDBRANCH 40 41
BRANCH 40 52
ATOM     52  N   TRP D 340      25.370  36.452  82.405  1.00 22.23 LIG-0.35  N 
ATOM     53  C   ASP D 339      26.567  36.973  82.139  1.00 26.49 LIG 0.24  C 
ATOM     54 O    ASP D 339      27.589  36.285  81.976  1.00 27.22 LIG-0.27  OA
ATOM     55 H    TRP D 340      24.661  36.926  82.512  1.00 22.23 LIG 0.16  HD
BRANCH 53 56
ATOM     56  CA  ASP D 339      26.637  38.501  82.044  1.00 29.46 LIG 0.19  C 
BRANCH 56 57
ATOM     57  CB  ASP D 339      26.016  38.958  80.722  1.00 30.27 LIG 0.15  C 
BRANCH 57 58
ATOM     58  CG  ASP D 339      26.454  38.109  79.526  1.00 32.94 LIG 0.17  C 
ATOM     59 OD1  ASP D 339      27.659  37.785  79.452  1.00 36.53 LIG-0.65  OA
ATOM     60 OD2  ASP D 339      25.610  37.778  78.656  1.00 35.99 LIG-0.65  OA
ENDBRANCH 57 58
ENDBRANCH 56 57
BRANCH 56 61
ATOM     61  N   ASP D 339      28.018  38.971  82.120  1.00 31.22 LIG-0.34  N 
ATOM     62  C   ASP D 338      28.730  38.986  83.245  1.00 32.92 LIG 0.26  C 
ATOM     63 O    ASP D 338      28.383  38.415  84.285  1.00 33.60 LIG-0.27  OA
ATOM     64 H    ASP D 339      28.330  39.239  81.365  1.00 31.22 LIG 0.16  HD
BRANCH 62 65
ATOM     65  CA  ASP D 338      30.057  39.742  83.175  1.00 33.82 LIG 0.41  C 
ATOM     66  N   ASP D 338      30.795  39.408  81.915  1.00 34.02 LIG 0.61  N 
BRANCH 65 67
ATOM     67  CB  ASP D 338      29.810  41.256  83.273  1.00 34.49 LIG 0.16  C 
BRANCH 67 68
ATOM     68  CG  ASP D 338      29.242  41.849  81.989  1.00 35.92 LIG 0.17  C 
ATOM     69 OD2  ASP D 338      29.769  41.526  80.907  1.00 39.23 LIG-0.65  OA
ATOM     70 OD1  ASP D 338      28.277  42.648  82.055  1.00 38.97 LIG-0.65  OA
ENDBRANCH 67 68
ENDBRANCH 65 67
ENDBRANCH 62 65
ENDBRANCH 56 61
ENDBRANCH 53 56
ENDBRANCH 40 52
ENDBRANCH 1 40
TORSDOF 27
ENDMDL
MODEL 63
USER: ADFR SOLUTION from run 1
USER: SCORE 20.290105 LL:  -4.866 LR: -16.883 RR:   0.000 FEB:  -8.829
USER: RMSD 13.353542
USER: SEED 836970
USER: STATUS no improvement in best in 6 clusters for 5 generations
USER: GENES 29
USER: genes 0 Translation |==|  0.46193 0.46339 0.50824
USER: genes 1 Rotation |==|  0.74743 0.87051 0.28923 0.58411
USER: genes 2 Torsion [C]-N--CA-[CB] |==|  0.50000
USER: genes 3 Torsion [N]-CA--C-[N] |==|  0.34222
USER: genes 4 Torsion [C]-N--CA-[C] |==|  0.72355
USER: genes 5 Torsion [N]-CA--C-[N] |==|  0.41884
USER: genes 6 Torsion [C]-N--CA-[C] |==|  0.76917
USER: genes 7 Torsion [N]-CA--C-[N] |==|  0.38045
USER: genes 8 Torsion [C]-N--CA-[C] |==|  0.15439
USER: genes 9 Torsion [N]-CA--C-[O] |==|  0.27882
USER: genes 10 Torsion [N]-CA--CB-[OG] |==|  0.46301
USER: genes 11 Torsion [CA]-CB--OG-[HG] |==|  0.68072
USER: genes 12 Torsion [N]-CA--CB-[CG] |==|  0.25599
USER: genes 13 Torsion [CA]-CB--CG-[CD2] |==|  0.63452
USER: genes 14 Torsion [N]-CA--CB-[CG] |==|  0.50250
USER: genes 15 Torsion [CA]-CB--CG-[CD2] |==|  0.27840
USER: genes 16 Torsion [N]-CA--CB-[OG1] |==|  0.51418
USER: genes 17 Torsion [CA]-CB--OG1-[HG1] |==|  0.47232
USER: genes 18 Torsion [N]-C--CA-[N] |==|  0.93435
USER: genes 19 Torsion [C]-CA--CB-[CG] |==|  0.44099
USER: genes 20 Torsion [CA]-CB--CG-[CD2] |==|  0.68642
USER: genes 21 Torsion [C]-CA--N-[C] |==|  0.66160
USER: genes 22 Torsion [N]-C--CA-[N] |==|  0.32964
USER: genes 23 Torsion [C]-CA--CB-[CG] |==|  0.60529
USER: genes 24 Torsion [CA]-CB--CG-[OD1] |==|  0.30756
USER: genes 25 Torsion [C]-CA--N-[C] |==|  0.78694
USER: genes 26 Torsion [N]-C--CA-[N] |==|  0.39568
USER: genes 27 Torsion [C]-CA--CB-[CG] |==|  0.14320
USER: genes 28 Torsion [CA]-CB--CG-[OD2] |==|  0.27194
ROOT
ATOM      1  C   TRP D 340      21.963  35.189  80.330  1.00 16.52 LIG 0.24  C 
ATOM      2 O    TRP D 340      22.922  34.431  80.164  1.00 16.60 LIG-0.27  OA
ATOM      3  N   THR D 341      21.964  36.175  81.218  1.00 13.22 LIG-0.34  N 
ATOM      4 H    THR D 341      21.297  36.708  81.326  1.00 13.22 LIG 0.16  HD
ENDROOT
BRANCH 3 5
ATOM      5  CA  THR D 341      23.084  36.461  82.103  1.00 12.53 LIG 0.20  C 
BRANCH 5 6
ATOM      6  C   THR D 341      23.416  35.233  82.949  1.00 12.10 LIG 0.24  C 
ATOM      7 O    THR D 341      22.560  34.690  83.645  1.00 10.92 LIG-0.27  OA
ATOM      8  N   HIS D 342      24.658  34.774  82.865  1.00 12.26 LIG-0.35  N 
ATOM      9 H    HIS D 342      25.266  35.114  82.361  1.00 12.26 LIG 0.16  HD
BRANCH 8 10
ATOM     10  CA  HIS D 342      25.093  33.623  83.650  1.00 12.78 LIG 0.18  C 
BRANCH 10 11
ATOM     11  C   HIS D 342      25.844  34.110  84.870  1.00 14.51 LIG 0.24  C 
ATOM     12  N   LEU D 343      25.795  33.341  85.954  1.00 15.48 LIG-0.35  N 
ATOM     13 H    LEU D 343      25.424  32.565  85.974  1.00 15.48 LIG 0.16  HD
ATOM     14 O    HIS D 342      26.482  35.178  84.826  1.00 16.02 LIG-0.27  OA
BRANCH 12 15
ATOM     15  CA  LEU D 343      26.383  33.759  87.229  1.00 16.72 LIG 0.18  C 
BRANCH 15 16
ATOM     16  C   LEU D 343      27.883  33.494  87.337  1.00 19.19 LIG 0.24  C 
ATOM     17  N   SER D 344      28.631  34.472  87.874  1.00 21.37 LIG-0.34  N 
ATOM     18 H    SER D 344      28.347  35.277  87.976  1.00 21.37 LIG 0.16  HD
ATOM     19 O    LEU D 343      28.345  32.432  86.955  1.00 19.56 LIG-0.27  OA
BRANCH 17 20
ATOM     20  CA  SER D 344      30.020  34.271  88.347  1.00 23.14 LIG 0.19  C 
BRANCH 20 21
ATOM     21  C   SER D 344      30.905  33.696  87.233  1.00 24.18 LIG 0.22  C 
ATOM     22 O    SER D 344      31.671  34.425  86.579  1.00 25.35 LIG-0.29  OA
ENDBRANCH 20 21
BRANCH 20 23
ATOM     23  CB  SER D 344      30.072  33.337  89.558  1.00 23.66 LIG 0.20  C 
BRANCH 23 24
ATOM     24 OG   SER D 344      31.408  32.903  89.821  1.00 25.03 LIG-0.40  OA
ATOM     25 HG   SER D 344      31.462  32.073  89.700  1.00 25.03 LIG 0.21  HD
ENDBRANCH 23 24
ENDBRANCH 20 23
ENDBRANCH 17 20
ENDBRANCH 15 16
BRANCH 15 26
ATOM     26  CB  LEU D 343      25.691  33.046  88.403  1.00 15.83 LIG 0.04  C 
BRANCH 26 27
ATOM     27  CG  LEU D 343      26.314  31.746  88.872  1.00 14.86 LIG-0.02  C 
ATOM     28  CD1 LEU D 343      27.042  31.965  90.189  1.00 12.95 LIG 0.01  C 
ATOM     29  CD2 LEU D 343      25.225  30.651  89.010  1.00 12.95 LIG 0.01  C 
ENDBRANCH 26 27
ENDBRANCH 15 26
ENDBRANCH 12 15
ENDBRANCH 10 11
BRANCH 10 30
ATOM     30  CB  HIS D 342      26.013  32.724  82.810  1.00 12.90 LIG 0.10  C 
BRANCH 30 31
ATOM     31  CG  HIS D 342      26.488  31.506  83.533  1.00 12.99 LIG 0.06  A 
ATOM     32  CD2 HIS D 342      26.053  30.225  83.474  1.00 12.88 LIG 0.14  A 
ATOM     33 NE2  HIS D 342      26.826  29.495  84.341  1.00 14.80 LIG-0.25  NA
ATOM     34  CE1 HIS D 342      27.701  30.294  84.919  1.00 13.21 LIG 0.23  A 
ATOM     35 ND1  HIS D 342      27.514  31.516  84.454  1.00 14.49 LIG-0.24  NA
ENDBRANCH 30 31
ENDBRANCH 10 30
ENDBRANCH 8 10
ENDBRANCH 5 6
BRANCH 5 36
ATOM     36  CB  THR D 341      22.764  37.670  83.013  1.00 12.70 LIG 0.15  C 
ATOM     37  CG2 THR D 341      21.575  37.375  83.948  1.00 14.15 LIG 0.04  C 
BRANCH 36 38
ATOM     38 OG1  THR D 341      23.928  37.998  83.784  1.00 14.08 LIG-0.39  OA
ATOM     39 HG1  THR D 341      23.807  38.730  84.176  1.00 14.08 LIG 0.21  HD
ENDBRANCH 36 38
ENDBRANCH 5 36
ENDBRANCH 3 5
BRANCH 1 40
ATOM     40  CA  TRP D 340      20.674  34.996  79.541  1.00 18.72 LIG 0.18  C 
BRANCH 40 41
ATOM     41  CB  TRP D 340      20.840  35.688  78.189  1.00 19.00 LIG 0.07  C 
BRANCH 41 42
ATOM     42  CG  TRP D 340      19.922  35.206  77.121  1.00 19.22 LIG-0.03  A 
ATOM     43  CD2 TRP D 340      20.295  34.494  75.944  1.00 20.18 LIG-0.00  A 
ATOM     44  CE3 TRP D 340      21.514  34.021  75.444  1.00 18.70 LIG 0.01  A 
ATOM     45  CE2 TRP D 340      19.116  34.274  75.197  1.00 18.84 LIG 0.04  A 
ATOM     46  CZ3 TRP D 340      21.521  33.349  74.224  1.00 20.55 LIG 0.00  A 
ATOM     47  CH2 TRP D 340      20.325  33.142  73.511  1.00 19.52 LIG 0.00  A 
ATOM     48  CZ2 TRP D 340      19.119  33.598  73.976  1.00 19.79 LIG 0.03  A 
ATOM     49  NE1 TRP D 340      18.073  34.825  75.896  1.00 21.77 LIG-0.36  N 
ATOM     50  CD1 TRP D 340      18.573  35.397  77.045  1.00 20.48 LIG 0.10  A 
ATOM     51 HE1  TRP D 340      17.246  34.816  75.658  1.00 21.77 LIG 0.17  HD
ENDBRANCH 41 42
ENDBRANCH 40 41
BRANCH 40 52
ATOM     52  N   TRP D 340      19.512  35.539  80.256  1.00 22.23 LIG-0.35  N 
ATOM     53  C   ASP D 339      18.457  34.796  80.586  1.00 26.49 LIG 0.24  C 
ATOM     54 O    ASP D 339      18.369  33.583  80.326  1.00 27.22 LIG-0.27  OA
ATOM     55 H    TRP D 340      19.577  36.376  80.440  1.00 22.23 LIG 0.16  HD
BRANCH 53 56
ATOM     56  CA  ASP D 339      17.319  35.516  81.317  1.00 29.46 LIG 0.19  C 
BRANCH 56 57
ATOM     57  CB  ASP D 339      17.097  34.862  82.683  1.00 30.27 LIG 0.15  C 
BRANCH 57 58
ATOM     58  CG  ASP D 339      15.619  34.782  83.079  1.00 32.94 LIG 0.17  C 
ATOM     59 OD1  ASP D 339      15.085  33.653  83.110  1.00 36.53 LIG-0.65  OA
ATOM     60 OD2  ASP D 339      14.988  35.836  83.342  1.00 35.99 LIG-0.65  OA
ENDBRANCH 57 58
ENDBRANCH 56 57
BRANCH 56 61
ATOM     61  N   ASP D 339      16.080  35.464  80.546  1.00 31.22 LIG-0.34  N 
ATOM     62  C   ASP D 338      15.842  36.228  79.482  1.00 32.92 LIG 0.26  C 
ATOM     63 O    ASP D 338      16.709  36.899  78.911  1.00 33.60 LIG-0.27  OA
ATOM     64 H    ASP D 339      15.514  34.890  80.846  1.00 31.22 LIG 0.16  HD
BRANCH 62 65
ATOM     65  CA  ASP D 338      14.403  36.209  78.966  1.00 33.82 LIG 0.41  C 
ATOM     66  N   ASP D 338      13.987  37.569  78.495  1.00 34.02 LIG 0.61  N 
BRANCH 65 67
ATOM     67  CB  ASP D 338      14.258  35.176  77.837  1.00 34.49 LIG 0.16  C 
BRANCH 67 68
ATOM     68  CG  ASP D 338      14.792  33.801  78.219  1.00 35.92 LIG 0.17  C 
ATOM     69 OD2  ASP D 338      13.979  32.940  78.610  1.00 39.23 LIG-0.65  OA
ATOM     70 OD1  ASP D 338      16.024  33.576  78.142  1.00 38.97 LIG-0.65  OA
ENDBRANCH 67 68
ENDBRANCH 65 67
ENDBRANCH 62 65
ENDBRANCH 56 61
ENDBRANCH 53 56
ENDBRANCH 40 52
ENDBRANCH 1 40
TORSDOF 27
ENDMDL
MODEL 64
USER: ADFR SOLUTION from run 98
USER: SCORE 20.512815 LL:  -5.296 LR: -16.856 RR:   0.000 FEB:  -8.802
USER: RMSD 5.582246
USER: SEED 97
USER: STATUS no improvement in best in 9 clusters for 5 generations
USER: GENES 29
USER: genes 0 Translation |==|  0.48158 0.45748 0.49873
USER: genes 1 Rotation |==|  0.09090 0.57769 0.27959 0.66739
USER: genes 2 Torsion [C]-N--CA-[CB] |==|  0.54844
USER: genes 3 Torsion [N]-CA--C-[N] |==|  0.30556
USER: genes 4 Torsion [C]-N--CA-[C] |==|  0.77249
USER: genes 5 Torsion [N]-CA--C-[N] |==|  0.86716
USER: genes 6 Torsion [C]-N--CA-[C] |==|  0.61279
USER: genes 7 Torsion [N]-CA--C-[N] |==|  0.49408
USER: genes 8 Torsion [C]-N--CA-[C] |==|  0.60125
USER: genes 9 Torsion [N]-CA--C-[O] |==|  0.17575
USER: genes 10 Torsion [N]-CA--CB-[OG] |==|  0.89099
USER: genes 11 Torsion [CA]-CB--OG-[HG] |==|  0.70688
USER: genes 12 Torsion [N]-CA--CB-[CG] |==|  0.12757
USER: genes 13 Torsion [CA]-CB--CG-[CD2] |==|  0.73454
USER: genes 14 Torsion [N]-CA--CB-[CG] |==|  0.58788
USER: genes 15 Torsion [CA]-CB--CG-[CD2] |==|  0.96054
USER: genes 16 Torsion [N]-CA--CB-[OG1] |==|  0.51430
USER: genes 17 Torsion [CA]-CB--OG1-[HG1] |==|  0.22089
USER: genes 18 Torsion [N]-C--CA-[N] |==|  0.65109
USER: genes 19 Torsion [C]-CA--CB-[CG] |==|  0.34293
USER: genes 20 Torsion [CA]-CB--CG-[CD2] |==|  0.91442
USER: genes 21 Torsion [C]-CA--N-[C] |==|  0.12377
USER: genes 22 Torsion [N]-C--CA-[N] |==|  0.92222
USER: genes 23 Torsion [C]-CA--CB-[CG] |==|  0.21077
USER: genes 24 Torsion [CA]-CB--CG-[OD1] |==|  0.22152
USER: genes 25 Torsion [C]-CA--N-[C] |==|  0.82876
USER: genes 26 Torsion [N]-C--CA-[N] |==|  0.60554
USER: genes 27 Torsion [C]-CA--CB-[CG] |==|  0.80036
USER: genes 28 Torsion [CA]-CB--CG-[OD2] |==|  0.41904
ROOT
ATOM      1  C   TRP D 340      22.509  35.074  80.074  1.00 16.52 LIG 0.24  C 
ATOM      2 O    TRP D 340      22.550  35.138  78.843  1.00 16.60 LIG-0.27  OA
ATOM      3  N   THR D 341      21.419  34.729  80.746  1.00 13.22 LIG-0.34  N 
ATOM      4 H    THR D 341      21.396  34.676  81.604  1.00 13.22 LIG 0.16  HD
ENDROOT
BRANCH 3 5
ATOM      5  CA  THR D 341      20.150  34.404  80.111  1.00 12.53 LIG 0.20  C 
BRANCH 5 6
ATOM      6  C   THR D 341      19.884  35.356  78.947  1.00 12.10 LIG 0.24  C 
ATOM      7 O    THR D 341      19.644  36.547  79.141  1.00 10.92 LIG-0.27  OA
ATOM      8  N   HIS D 342      19.954  34.836  77.728  1.00 12.26 LIG-0.35  N 
ATOM      9 H    HIS D 342      20.153  34.016  77.563  1.00 12.26 LIG 0.16  HD
BRANCH 8 10
ATOM     10  CA  HIS D 342      19.692  35.648  76.544  1.00 12.78 LIG 0.18  C 
BRANCH 10 11
ATOM     11  C   HIS D 342      18.196  35.739  76.327  1.00 14.51 LIG 0.24  C 
ATOM     12  N   LEU D 343      17.511  34.600  76.384  1.00 15.48 LIG-0.35  N 
ATOM     13 H    LEU D 343      17.857  33.843  76.601  1.00 15.48 LIG 0.16  HD
ATOM     14 O    HIS D 342      17.660  36.843  76.122  1.00 16.02 LIG-0.27  OA
BRANCH 12 15
ATOM     15  CA  LEU D 343      16.080  34.541  76.077  1.00 16.72 LIG 0.18  C 
BRANCH 15 16
ATOM     16  C   LEU D 343      15.281  33.635  77.011  1.00 19.19 LIG 0.24  C 
ATOM     17  N   SER D 344      13.955  33.576  76.806  1.00 21.37 LIG-0.34  N 
ATOM     18 H    SER D 344      13.530  34.145  76.321  1.00 21.37 LIG 0.16  HD
ATOM     19 O    LEU D 343      15.851  33.003  77.884  1.00 19.56 LIG-0.27  OA
BRANCH 17 20
ATOM     20  CA  SER D 344      13.085  32.528  77.388  1.00 23.14 LIG 0.19  C 
BRANCH 20 21
ATOM     21  C   SER D 344      11.972  32.128  76.408  1.00 24.18 LIG 0.22  C 
ATOM     22 O    SER D 344      12.238  31.603  75.313  1.00 25.35 LIG-0.29  OA
ENDBRANCH 20 21
BRANCH 20 23
ATOM     23  CB  SER D 344      12.451  32.989  78.702  1.00 23.66 LIG 0.20  C 
BRANCH 23 24
ATOM     24 OG   SER D 344      13.376  33.743  79.488  1.00 25.03 LIG-0.40  OA
ATOM     25 HG   SER D 344      13.645  33.273  80.130  1.00 25.03 LIG 0.21  HD
ENDBRANCH 23 24
ENDBRANCH 20 23
ENDBRANCH 17 20
ENDBRANCH 15 16
BRANCH 15 26
ATOM     26  CB  LEU D 343      15.856  34.050  74.636  1.00 15.83 LIG 0.04  C 
BRANCH 26 27
ATOM     27  CG  LEU D 343      16.658  32.842  74.197  1.00 14.86 LIG-0.02  C 
ATOM     28  CD1 LEU D 343      15.803  31.942  73.319  1.00 12.95 LIG 0.01  C 
ATOM     29  CD2 LEU D 343      17.942  33.293  73.453  1.00 12.95 LIG 0.01  C 
ENDBRANCH 26 27
ENDBRANCH 15 26
ENDBRANCH 12 15
ENDBRANCH 10 11
BRANCH 10 30
ATOM     30  CB  HIS D 342      20.348  35.013  75.308  1.00 12.90 LIG 0.10  C 
BRANCH 30 31
ATOM     31  CG  HIS D 342      20.797  36.007  74.287  1.00 12.99 LIG 0.06  A 
ATOM     32  CD2 HIS D 342      20.499  37.323  74.154  1.00 12.88 LIG 0.14  A 
ATOM     33 NE2  HIS D 342      21.169  37.778  73.046  1.00 14.80 LIG-0.25  NA
ATOM     34  CE1 HIS D 342      21.849  36.783  72.512  1.00 13.21 LIG 0.23  A 
ATOM     35 ND1  HIS D 342      21.636  35.700  73.238  1.00 14.49 LIG-0.24  NA
ENDBRANCH 30 31
ENDBRANCH 10 30
ENDBRANCH 8 10
ENDBRANCH 5 6
BRANCH 5 36
ATOM     36  CB  THR D 341      18.994  34.472  81.137  1.00 12.70 LIG 0.15  C 
ATOM     37  CG2 THR D 341      18.814  35.898  81.692  1.00 14.15 LIG 0.04  C 
BRANCH 36 38
ATOM     38 OG1  THR D 341      17.783  34.032  80.508  1.00 14.08 LIG-0.39  OA
ATOM     39 HG1  THR D 341      17.770  33.193  80.483  1.00 14.08 LIG 0.21  HD
ENDBRANCH 36 38
ENDBRANCH 5 36
ENDBRANCH 3 5
BRANCH 1 40
ATOM     40  CA  TRP D 340      23.725  35.448  80.912  1.00 18.72 LIG 0.18  C 
BRANCH 40 41
ATOM     41  CB  TRP D 340      23.313  35.413  82.383  1.00 19.00 LIG 0.07  C 
BRANCH 41 42
ATOM     42  CG  TRP D 340      24.129  34.511  83.241  1.00 19.22 LIG-0.03  A 
ATOM     43  CD2 TRP D 340      24.766  33.303  82.832  1.00 20.18 LIG-0.00  A 
ATOM     44  CE3 TRP D 340      24.869  32.630  81.609  1.00 18.70 LIG 0.01  A 
ATOM     45  CE2 TRP D 340      25.393  32.754  83.973  1.00 18.84 LIG 0.04  A 
ATOM     46  CZ3 TRP D 340      25.586  31.436  81.563  1.00 20.55 LIG 0.00  A 
ATOM     47  CH2 TRP D 340      26.203  30.923  82.718  1.00 19.52 LIG 0.00  A 
ATOM     48  CZ2 TRP D 340      26.116  31.561  83.928  1.00 19.79 LIG 0.03  A 
ATOM     49  NE1 TRP D 340      25.148  33.596  85.028  1.00 21.77 LIG-0.36  N 
ATOM     50  CD1 TRP D 340      24.373  34.642  84.577  1.00 20.48 LIG 0.10  A 
ATOM     51 HE1  TRP D 340      25.431  33.490  85.833  1.00 21.77 LIG 0.17  HD
ENDBRANCH 41 42
ENDBRANCH 40 41
BRANCH 40 52
ATOM     52  N   TRP D 340      24.245  36.774  80.556  1.00 22.23 LIG-0.35  N 
ATOM     53  C   ASP D 339      23.456  37.831  80.368  1.00 26.49 LIG 0.24  C 
ATOM     54 O    ASP D 339      22.219  37.787  80.485  1.00 27.22 LIG-0.27  OA
ATOM     55 H    TRP D 340      25.100  36.804  80.482  1.00 22.23 LIG 0.16  HD
BRANCH 53 56
ATOM     56  CA  ASP D 339      24.153  39.141  79.986  1.00 29.46 LIG 0.19  C 
BRANCH 56 57
ATOM     57  CB  ASP D 339      24.194  39.269  78.461  1.00 30.27 LIG 0.15  C 
BRANCH 57 58
ATOM     58  CG  ASP D 339      22.845  39.665  77.854  1.00 32.94 LIG 0.17  C 
ATOM     59 OD1  ASP D 339      22.517  40.870  77.898  1.00 36.53 LIG-0.65  OA
ATOM     60 OD2  ASP D 339      22.107  38.782  77.349  1.00 35.99 LIG-0.65  OA
ENDBRANCH 57 58
ENDBRANCH 56 57
BRANCH 56 61
ATOM     61  N   ASP D 339      25.513  39.188  80.514  1.00 31.22 LIG-0.34  N 
ATOM     62  C   ASP D 338      25.801  39.152  81.814  1.00 32.92 LIG 0.26  C 
ATOM     63 O    ASP D 338      24.978  38.862  82.690  1.00 33.60 LIG-0.27  OA
ATOM     64 H    ASP D 339      26.116  39.243  79.903  1.00 31.22 LIG 0.16  HD
BRANCH 62 65
ATOM     65  CA  ASP D 338      27.252  39.465  82.177  1.00 33.82 LIG 0.41  C 
ATOM     66  N   ASP D 338      27.720  38.596  83.304  1.00 34.02 LIG 0.61  N 
BRANCH 65 67
ATOM     67  CB  ASP D 338      28.156  39.288  80.946  1.00 34.49 LIG 0.16  C 
BRANCH 67 68
ATOM     68  CG  ASP D 338      28.352  37.828  80.558  1.00 35.92 LIG 0.17  C 
ATOM     69 OD2  ASP D 338      28.559  37.559  79.358  1.00 39.23 LIG-0.65  OA
ATOM     70 OD1  ASP D 338      28.289  36.942  81.444  1.00 38.97 LIG-0.65  OA
ENDBRANCH 67 68
ENDBRANCH 65 67
ENDBRANCH 62 65
ENDBRANCH 56 61
ENDBRANCH 53 56
ENDBRANCH 40 52
ENDBRANCH 1 40
TORSDOF 27
ENDMDL
MODEL 65
USER: ADFR SOLUTION from run 172
USER: SCORE 20.759066 LL:  -5.593 LR: -16.845 RR:   0.000 FEB:  -8.791
USER: RMSD 12.553033
USER: SEED 171
USER: STATUS searching
USER: GENES 29
USER: genes 0 Translation |==|  0.45107 0.49165 0.48060
USER: genes 1 Rotation |==|  0.68341 0.91483 0.30591 0.58130
USER: genes 2 Torsion [C]-N--CA-[CB] |==|  0.53504
USER: genes 3 Torsion [N]-CA--C-[N] |==|  0.85602
USER: genes 4 Torsion [C]-N--CA-[C] |==|  0.16667
USER: genes 5 Torsion [N]-CA--C-[N] |==|  0.14998
USER: genes 6 Torsion [C]-N--CA-[C] |==|  0.83448
USER: genes 7 Torsion [N]-CA--C-[N] |==|  0.87737
USER: genes 8 Torsion [C]-N--CA-[C] |==|  0.75353
USER: genes 9 Torsion [N]-CA--C-[O] |==|  0.21453
USER: genes 10 Torsion [N]-CA--CB-[OG] |==|  0.96779
USER: genes 11 Torsion [CA]-CB--OG-[HG] |==|  0.37134
USER: genes 12 Torsion [N]-CA--CB-[CG] |==|  0.12994
USER: genes 13 Torsion [CA]-CB--CG-[CD2] |==|  0.74450
USER: genes 14 Torsion [N]-CA--CB-[CG] |==|  0.52267
USER: genes 15 Torsion [CA]-CB--CG-[CD2] |==|  0.53852
USER: genes 16 Torsion [N]-CA--CB-[OG1] |==|  0.80344
USER: genes 17 Torsion [CA]-CB--OG1-[HG1] |==|  0.39873
USER: genes 18 Torsion [N]-C--CA-[N] |==|  0.01174
USER: genes 19 Torsion [C]-CA--CB-[CG] |==|  0.45887
USER: genes 20 Torsion [CA]-CB--CG-[CD2] |==|  0.61809
USER: genes 21 Torsion [C]-CA--N-[C] |==|  0.67242
USER: genes 22 Torsion [N]-C--CA-[N] |==|  0.32867
USER: genes 23 Torsion [C]-CA--CB-[CG] |==|  0.76842
USER: genes 24 Torsion [CA]-CB--CG-[OD1] |==|  0.79223
USER: genes 25 Torsion [C]-CA--N-[C] |==|  0.75980
USER: genes 26 Torsion [N]-C--CA-[N] |==|  0.39849
USER: genes 27 Torsion [C]-CA--CB-[CG] |==|  0.17593
USER: genes 28 Torsion [CA]-CB--CG-[OD2] |==|  0.22873
ROOT
ATOM      1  C   TRP D 340      21.662  35.740  79.584  1.00 16.52 LIG 0.24  C 
ATOM      2 O    TRP D 340      22.764  35.301  79.247  1.00 16.60 LIG-0.27  OA
ATOM      3  N   THR D 341      21.501  36.621  80.563  1.00 13.22 LIG-0.34  N 
ATOM      4 H    THR D 341      20.732  36.933  80.790  1.00 13.22 LIG 0.16  HD
ENDROOT
BRANCH 3 5
ATOM      5  CA  THR D 341      22.599  37.153  81.357  1.00 12.53 LIG 0.20  C 
BRANCH 5 6
ATOM      6  C   THR D 341      23.540  36.025  81.778  1.00 12.10 LIG 0.24  C 
ATOM      7 O    THR D 341      24.754  36.110  81.600  1.00 10.92 LIG-0.27  OA
ATOM      8  N   HIS D 342      22.981  34.976  82.368  1.00 12.26 LIG-0.35  N 
ATOM      9 H    HIS D 342      22.140  34.906  82.535  1.00 12.26 LIG 0.16  HD
BRANCH 8 10
ATOM     10  CA  HIS D 342      23.781  33.830  82.788  1.00 12.78 LIG 0.18  C 
BRANCH 10 11
ATOM     11  C   HIS D 342      24.818  34.290  83.790  1.00 14.51 LIG 0.24  C 
ATOM     12  N   LEU D 343      24.373  34.957  84.851  1.00 15.48 LIG-0.35  N 
ATOM     13 H    LEU D 343      23.540  35.077  85.026  1.00 15.48 LIG 0.16  HD
ATOM     14 O    HIS D 342      26.021  34.028  83.610  1.00 16.02 LIG-0.27  OA
BRANCH 12 15
ATOM     15  CA  LEU D 343      25.286  35.554  85.829  1.00 16.72 LIG 0.18  C 
BRANCH 15 16
ATOM     16  C   LEU D 343      26.211  34.548  86.510  1.00 19.19 LIG 0.24  C 
ATOM     17  N   SER D 344      25.653  33.398  86.922  1.00 21.37 LIG-0.34  N 
ATOM     18 H    SER D 344      24.803  33.288  86.992  1.00 21.37 LIG 0.16  HD
ATOM     19 O    LEU D 343      27.396  34.804  86.648  1.00 19.56 LIG-0.27  OA
BRANCH 17 20
ATOM     20  CA  SER D 344      26.438  32.199  87.299  1.00 23.14 LIG 0.19  C 
BRANCH 20 21
ATOM     21  C   SER D 344      26.705  31.308  86.078  1.00 24.18 LIG 0.22  C 
ATOM     22 O    SER D 344      27.579  31.604  85.245  1.00 25.35 LIG-0.29  OA
ENDBRANCH 20 21
BRANCH 20 23
ATOM     23  CB  SER D 344      25.724  31.374  88.372  1.00 23.66 LIG 0.20  C 
BRANCH 23 24
ATOM     24 OG   SER D 344      24.623  32.093  88.932  1.00 25.03 LIG-0.40  OA
ATOM     25 HG   SER D 344      23.951  31.590  88.971  1.00 25.03 LIG 0.21  HD
ENDBRANCH 23 24
ENDBRANCH 20 23
ENDBRANCH 17 20
ENDBRANCH 15 16
BRANCH 15 26
ATOM     26  CB  LEU D 343      24.497  36.289  86.927  1.00 15.83 LIG 0.04  C 
BRANCH 26 27
ATOM     27  CG  LEU D 343      23.322  35.547  87.533  1.00 14.86 LIG-0.02  C 
ATOM     28  CD1 LEU D 343      23.196  35.891  89.008  1.00 12.95 LIG 0.01  C 
ATOM     29  CD2 LEU D 343      22.020  35.890  86.765  1.00 12.95 LIG 0.01  C 
ENDBRANCH 26 27
ENDBRANCH 15 26
ENDBRANCH 12 15
ENDBRANCH 10 11
BRANCH 10 30
ATOM     30  CB  HIS D 342      24.487  33.202  81.576  1.00 12.90 LIG 0.10  C 
BRANCH 30 31
ATOM     31  CG  HIS D 342      25.173  31.911  81.882  1.00 12.99 LIG 0.06  A 
ATOM     32  CD2 HIS D 342      26.083  31.210  81.164  1.00 12.88 LIG 0.14  A 
ATOM     33 NE2  HIS D 342      26.393  30.087  81.890  1.00 14.80 LIG-0.25  NA
ATOM     34  CE1 HIS D 342      25.697  30.091  83.010  1.00 13.21 LIG 0.23  A 
ATOM     35 ND1  HIS D 342      24.946  31.177  83.027  1.00 14.49 LIG-0.24  NA
ENDBRANCH 30 31
ENDBRANCH 10 30
ENDBRANCH 8 10
ENDBRANCH 5 6
BRANCH 5 36
ATOM     36  CB  THR D 341      22.062  37.898  82.601  1.00 12.70 LIG 0.15  C 
ATOM     37  CG2 THR D 341      23.186  38.196  83.611  1.00 14.15 LIG 0.04  C 
BRANCH 36 38
ATOM     38 OG1  THR D 341      21.438  39.119  82.183  1.00 14.08 LIG-0.39  OA
ATOM     39 HG1  THR D 341      20.767  39.270  82.664  1.00 14.08 LIG 0.21  HD
ENDBRANCH 36 38
ENDBRANCH 5 36
ENDBRANCH 3 5
BRANCH 1 40
ATOM     40  CA  TRP D 340      20.388  35.243  78.912  1.00 18.72 LIG 0.18  C 
BRANCH 40 41
ATOM     41  CB  TRP D 340      20.527  35.474  77.408  1.00 19.00 LIG 0.07  C 
BRANCH 41 42
ATOM     42  CG  TRP D 340      19.539  34.744  76.568  1.00 19.22 LIG-0.03  A 
ATOM     43  CD2 TRP D 340      19.809  34.060  75.346  1.00 20.18 LIG-0.00  A 
ATOM     44  CE3 TRP D 340      20.973  33.829  74.603  1.00 18.70 LIG 0.01  A 
ATOM     45  CE2 TRP D 340      18.579  33.549  74.873  1.00 18.84 LIG 0.04  A 
ATOM     46  CZ3 TRP D 340      20.875  33.103  73.418  1.00 20.55 LIG 0.00  A 
ATOM     47  CH2 TRP D 340      19.635  32.603  72.981  1.00 19.52 LIG 0.00  A 
ATOM     48  CZ2 TRP D 340      18.480  32.818  73.688  1.00 19.79 LIG 0.03  A 
ATOM     49  NE1 TRP D 340      17.607  33.905  75.772  1.00 21.77 LIG-0.36  N 
ATOM     50  CD1 TRP D 340      18.195  34.638  76.780  1.00 20.48 LIG 0.10  A 
ATOM     51 HE1  TRP D 340      16.773  33.706  75.717  1.00 21.77 LIG 0.17  HD
ENDBRANCH 41 42
ENDBRANCH 40 41
BRANCH 40 52
ATOM     52  N   TRP D 340      19.197  35.928  79.428  1.00 22.23 LIG-0.35  N 
ATOM     53  C   ASP D 339      18.213  35.287  80.057  1.00 26.49 LIG 0.24  C 
ATOM     54 O    ASP D 339      18.222  34.062  80.267  1.00 27.22 LIG-0.27  OA
ATOM     55 H    TRP D 340      19.195  36.776  79.288  1.00 22.23 LIG 0.16  HD
BRANCH 53 56
ATOM     56  CA  ASP D 339      17.031  36.145  80.522  1.00 29.46 LIG 0.19  C 
BRANCH 56 57
ATOM     57  CB  ASP D 339      16.880  36.023  82.040  1.00 30.27 LIG 0.15  C 
BRANCH 57 58
ATOM     58  CG  ASP D 339      16.089  34.784  82.469  1.00 32.94 LIG 0.17  C 
ATOM     59 OD1  ASP D 339      14.850  34.799  82.310  1.00 36.53 LIG-0.65  OA
ATOM     60 OD2  ASP D 339      16.694  33.806  82.976  1.00 35.99 LIG-0.65  OA
ENDBRANCH 57 58
ENDBRANCH 56 57
BRANCH 56 61
ATOM     61  N   ASP D 339      15.789  35.727  79.876  1.00 31.22 LIG-0.34  N 
ATOM     62  C   ASP D 338      15.388  36.180  78.689  1.00 32.92 LIG 0.26  C 
ATOM     63 O    ASP D 338      16.110  36.826  77.921  1.00 33.60 LIG-0.27  OA
ATOM     64 H    ASP D 339      15.339  35.158  80.336  1.00 31.22 LIG 0.16  HD
BRANCH 62 65
ATOM     65  CA  ASP D 338      13.954  35.823  78.299  1.00 33.82 LIG 0.41  C 
ATOM     66  N   ASP D 338      13.309  36.948  77.549  1.00 34.02 LIG 0.61  N 
BRANCH 65 67
ATOM     67  CB  ASP D 338      13.938  34.534  77.462  1.00 34.49 LIG 0.16  C 
BRANCH 67 68
ATOM     68  CG  ASP D 338      14.442  33.320  78.232  1.00 35.92 LIG 0.17  C 
ATOM     69 OD2  ASP D 338      13.646  32.727  78.987  1.00 39.23 LIG-0.65  OA
ATOM     70 OD1  ASP D 338      15.636  32.958  78.097  1.00 38.97 LIG-0.65  OA
ENDBRANCH 67 68
ENDBRANCH 65 67
ENDBRANCH 62 65
ENDBRANCH 56 61
ENDBRANCH 53 56
ENDBRANCH 40 52
ENDBRANCH 1 40
TORSDOF 27
ENDMDL
MODEL 66
USER: ADFR SOLUTION from run 136
USER: SCORE 21.148894 LL:  -5.156 LR: -16.844 RR:   0.000 FEB:  -8.790
USER: RMSD 12.385371
USER: SEED 135
USER: STATUS no improvement in best in 4 clusters for 5 generations
USER: GENES 29
USER: genes 0 Translation |==|  0.40082 0.47609 0.46485
USER: genes 1 Rotation |==|  0.72347 0.90470 0.32148 0.56641
USER: genes 2 Torsion [C]-N--CA-[CB] |==|  0.75696
USER: genes 3 Torsion [N]-CA--C-[N] |==|  0.19591
USER: genes 4 Torsion [C]-N--CA-[C] |==|  0.76728
USER: genes 5 Torsion [N]-CA--C-[N] |==|  0.29267
USER: genes 6 Torsion [C]-N--CA-[C] |==|  0.71877
USER: genes 7 Torsion [N]-CA--C-[N] |==|  0.37612
USER: genes 8 Torsion [C]-N--CA-[C] |==|  0.82607
USER: genes 9 Torsion [N]-CA--C-[O] |==|  0.30942
USER: genes 10 Torsion [N]-CA--CB-[OG] |==|  0.00021
USER: genes 11 Torsion [CA]-CB--OG-[HG] |==|  0.85446
USER: genes 12 Torsion [N]-CA--CB-[CG] |==|  0.84483
USER: genes 13 Torsion [CA]-CB--CG-[CD2] |==|  0.62820
USER: genes 14 Torsion [N]-CA--CB-[CG] |==|  0.98826
USER: genes 15 Torsion [CA]-CB--CG-[CD2] |==|  0.26775
USER: genes 16 Torsion [N]-CA--CB-[OG1] |==|  0.01950
USER: genes 17 Torsion [CA]-CB--OG1-[HG1] |==|  0.07566
USER: genes 18 Torsion [N]-C--CA-[N] |==|  0.98889
USER: genes 19 Torsion [C]-CA--CB-[CG] |==|  0.31352
USER: genes 20 Torsion [CA]-CB--CG-[CD2] |==|  0.63780
USER: genes 21 Torsion [C]-CA--N-[C] |==|  0.79545
USER: genes 22 Torsion [N]-C--CA-[N] |==|  0.24627
USER: genes 23 Torsion [C]-CA--CB-[CG] |==|  0.79557
USER: genes 24 Torsion [CA]-CB--CG-[OD1] |==|  0.29008
USER: genes 25 Torsion [C]-CA--N-[C] |==|  0.74941
USER: genes 26 Torsion [N]-C--CA-[N] |==|  0.40536
USER: genes 27 Torsion [C]-CA--CB-[CG] |==|  0.13795
USER: genes 28 Torsion [CA]-CB--CG-[OD2] |==|  0.27487
ROOT
ATOM      1  C   TRP D 340      20.268  35.437  79.159  1.00 16.52 LIG 0.24  C 
ATOM      2 O    TRP D 340      21.301  34.853  78.824  1.00 16.60 LIG-0.27  OA
ATOM      3  N   THR D 341      20.201  36.251  80.205  1.00 13.22 LIG-0.34  N 
ATOM      4 H    THR D 341      19.481  36.664  80.430  1.00 13.22 LIG 0.16  HD
ENDROOT
BRANCH 3 5
ATOM      5  CA  THR D 341      21.329  36.532  81.080  1.00 12.53 LIG 0.20  C 
BRANCH 5 6
ATOM      6  C   THR D 341      22.628  36.550  80.276  1.00 12.10 LIG 0.24  C 
ATOM      7 O    THR D 341      23.452  35.642  80.380  1.00 10.92 LIG-0.27  OA
ATOM      8  N   HIS D 342      22.800  37.572  79.448  1.00 12.26 LIG-0.35  N 
ATOM      9 H    HIS D 342      22.225  38.202  79.331  1.00 12.26 LIG 0.16  HD
BRANCH 8 10
ATOM     10  CA  HIS D 342      24.015  37.704  78.651  1.00 12.78 LIG 0.18  C 
BRANCH 10 11
ATOM     11  C   HIS D 342      25.088  38.364  79.491  1.00 14.51 LIG 0.24  C 
ATOM     12  N   LEU D 343      26.063  37.581  79.945  1.00 15.48 LIG-0.35  N 
ATOM     13 H    LEU D 343      26.149  36.752  79.733  1.00 15.48 LIG 0.16  HD
ATOM     14 O    HIS D 342      25.041  39.587  79.716  1.00 16.02 LIG-0.27  OA
BRANCH 12 15
ATOM     15  CA  LEU D 343      27.092  38.078  80.861  1.00 16.72 LIG 0.18  C 
BRANCH 15 16
ATOM     16  C   LEU D 343      28.425  38.395  80.186  1.00 19.19 LIG 0.24  C 
ATOM     17  N   SER D 344      29.018  39.549  80.534  1.00 21.37 LIG-0.34  N 
ATOM     18 H    SER D 344      28.609  40.178  80.954  1.00 21.37 LIG 0.16  HD
ATOM     19 O    LEU D 343      28.903  37.613  79.382  1.00 19.56 LIG-0.27  OA
BRANCH 17 20
ATOM     20  CA  SER D 344      30.435  39.860  80.236  1.00 23.14 LIG 0.19  C 
BRANCH 20 21
ATOM     21  C   SER D 344      31.377  38.875  80.943  1.00 24.18 LIG 0.22  C 
ATOM     22 O    SER D 344      32.044  38.047  80.298  1.00 25.35 LIG-0.29  OA
ENDBRANCH 20 21
BRANCH 20 23
ATOM     23  CB  SER D 344      30.799  41.286  80.655  1.00 23.66 LIG 0.20  C 
BRANCH 23 24
ATOM     24 OG   SER D 344      29.677  41.959  81.231  1.00 25.03 LIG-0.40  OA
ATOM     25 HG   SER D 344      29.020  41.905  80.710  1.00 25.03 LIG 0.21  HD
ENDBRANCH 23 24
ENDBRANCH 20 23
ENDBRANCH 17 20
ENDBRANCH 15 16
BRANCH 15 26
ATOM     26  CB  LEU D 343      27.360  37.055  81.979  1.00 15.83 LIG 0.04  C 
BRANCH 26 27
ATOM     27  CG  LEU D 343      26.164  36.619  82.802  1.00 14.86 LIG-0.02  C 
ATOM     28  CD1 LEU D 343      25.713  35.234  82.368  1.00 12.95 LIG 0.01  C 
ATOM     29  CD2 LEU D 343      26.516  36.645  84.312  1.00 12.95 LIG 0.01  C 
ENDBRANCH 26 27
ENDBRANCH 15 26
ENDBRANCH 12 15
ENDBRANCH 10 11
BRANCH 10 30
ATOM     30  CB  HIS D 342      23.744  38.561  77.405  1.00 12.90 LIG 0.10  C 
BRANCH 30 31
ATOM     31  CG  HIS D 342      22.314  38.963  77.252  1.00 12.99 LIG 0.06  A 
ATOM     32  CD2 HIS D 342      21.680  40.106  77.611  1.00 12.88 LIG 0.14  A 
ATOM     33 NE2  HIS D 342      20.364  39.969  77.249  1.00 14.80 LIG-0.25  NA
ATOM     34  CE1 HIS D 342      20.188  38.786  76.694  1.00 13.21 LIG 0.23  A 
ATOM     35 ND1  HIS D 342      21.349  38.155  76.690  1.00 14.49 LIG-0.24  NA
ENDBRANCH 30 31
ENDBRANCH 10 30
ENDBRANCH 8 10
ENDBRANCH 5 6
BRANCH 5 36
ATOM     36  CB  THR D 341      21.413  35.486  82.215  1.00 12.70 LIG 0.15  C 
ATOM     37  CG2 THR D 341      21.167  36.127  83.594  1.00 14.15 LIG 0.04  C 
BRANCH 36 38
ATOM     38 OG1  THR D 341      20.449  34.453  81.973  1.00 14.08 LIG-0.39  OA
ATOM     39 HG1  THR D 341      20.303  34.393  81.149  1.00 14.08 LIG 0.21  HD
ENDBRANCH 36 38
ENDBRANCH 5 36
ENDBRANCH 3 5
BRANCH 1 40
ATOM     40  CA  TRP D 340      18.965  35.208  78.401  1.00 18.72 LIG 0.18  C 
BRANCH 40 41
ATOM     41  CB  TRP D 340      19.151  35.727  76.976  1.00 19.00 LIG 0.07  C 
BRANCH 41 42
ATOM     42  CG  TRP D 340      19.139  34.677  75.921  1.00 19.22 LIG-0.03  A 
ATOM     43  CD2 TRP D 340      20.100  34.513  74.881  1.00 20.18 LIG-0.00  A 
ATOM     44  CE3 TRP D 340      21.282  35.182  74.541  1.00 18.70 LIG 0.01  A 
ATOM     45  CE2 TRP D 340      19.676  33.422  74.088  1.00 18.84 LIG 0.04  A 
ATOM     46  CZ3 TRP D 340      21.997  34.749  73.427  1.00 20.55 LIG 0.00  A 
ATOM     47  CH2 TRP D 340      21.548  33.654  72.665  1.00 19.52 LIG 0.00  A 
ATOM     48  CZ2 TRP D 340      20.394  32.983  72.974  1.00 19.79 LIG 0.03  A 
ATOM     49  NE1 TRP D 340      18.509  32.945  74.628  1.00 21.77 LIG-0.36  N 
ATOM     50  CD1 TRP D 340      18.188  33.719  75.722  1.00 20.48 LIG 0.10  A 
ATOM     51 HE1  TRP D 340      18.055  32.277  74.334  1.00 21.77 LIG 0.17  HD
ENDBRANCH 41 42
ENDBRANCH 40 41
BRANCH 40 52
ATOM     52  N   TRP D 340      17.833  35.881  79.049  1.00 22.23 LIG-0.35  N 
ATOM     53  C   ASP D 339      17.283  35.440  80.179  1.00 26.49 LIG 0.24  C 
ATOM     54 O    ASP D 339      17.684  34.431  80.784  1.00 27.22 LIG-0.27  OA
ATOM     55 H    TRP D 340      17.561  36.582  78.633  1.00 22.23 LIG 0.16  HD
BRANCH 53 56
ATOM     56  CA  ASP D 339      16.097  36.248  80.719  1.00 29.46 LIG 0.19  C 
BRANCH 56 57
ATOM     57  CB  ASP D 339      16.056  36.132  82.245  1.00 30.27 LIG 0.15  C 
BRANCH 57 58
ATOM     58  CG  ASP D 339      15.571  34.763  82.732  1.00 32.94 LIG 0.17  C 
ATOM     59 OD1  ASP D 339      16.425  33.968  83.178  1.00 36.53 LIG-0.65  OA
ATOM     60 OD2  ASP D 339      14.351  34.473  82.656  1.00 35.99 LIG-0.65  OA
ENDBRANCH 57 58
ENDBRANCH 56 57
BRANCH 56 61
ATOM     61  N   ASP D 339      14.836  35.770  80.161  1.00 31.22 LIG-0.34  N 
ATOM     62  C   ASP D 338      14.299  36.246  79.039  1.00 32.92 LIG 0.26  C 
ATOM     63 O    ASP D 338      14.903  36.978  78.246  1.00 33.60 LIG-0.27  OA
ATOM     64 H    ASP D 339      14.468  35.148  80.628  1.00 31.22 LIG 0.16  HD
BRANCH 62 65
ATOM     65  CA  ASP D 338      12.864  35.802  78.755  1.00 33.82 LIG 0.41  C 
ATOM     66  N   ASP D 338      12.095  36.889  78.069  1.00 34.02 LIG 0.61  N 
BRANCH 65 67
ATOM     67  CB  ASP D 338      12.864  34.520  77.907  1.00 34.49 LIG 0.16  C 
BRANCH 67 68
ATOM     68  CG  ASP D 338      13.778  33.437  78.468  1.00 35.92 LIG 0.17  C 
ATOM     69 OD2  ASP D 338      13.266  32.525  79.146  1.00 39.23 LIG-0.65  OA
ATOM     70 OD1  ASP D 338      15.012  33.497  78.245  1.00 38.97 LIG-0.65  OA
ENDBRANCH 67 68
ENDBRANCH 65 67
ENDBRANCH 62 65
ENDBRANCH 56 61
ENDBRANCH 53 56
ENDBRANCH 40 52
ENDBRANCH 1 40
TORSDOF 27
ENDMDL
MODEL 67
USER: ADFR SOLUTION from run 164
USER: SCORE 21.582370 LL:  -6.586 LR: -16.820 RR:   0.000 FEB:  -8.766
USER: RMSD 12.530913
USER: SEED 163
USER: STATUS searching
USER: GENES 29
USER: genes 0 Translation |==|  0.42131 0.45611 0.46922
USER: genes 1 Rotation |==|  0.32977 0.06174 0.62316 0.61742
USER: genes 2 Torsion [C]-N--CA-[CB] |==|  0.28698
USER: genes 3 Torsion [N]-CA--C-[N] |==|  0.38244
USER: genes 4 Torsion [C]-N--CA-[C] |==|  0.83788
USER: genes 5 Torsion [N]-CA--C-[N] |==|  0.36333
USER: genes 6 Torsion [C]-N--CA-[C] |==|  0.66798
USER: genes 7 Torsion [N]-CA--C-[N] |==|  0.05376
USER: genes 8 Torsion [C]-N--CA-[C] |==|  0.21686
USER: genes 9 Torsion [N]-CA--C-[O] |==|  0.07180
USER: genes 10 Torsion [N]-CA--CB-[OG] |==|  0.75838
USER: genes 11 Torsion [CA]-CB--OG-[HG] |==|  0.71193
USER: genes 12 Torsion [N]-CA--CB-[CG] |==|  0.79937
USER: genes 13 Torsion [CA]-CB--CG-[CD2] |==|  0.93216
USER: genes 14 Torsion [N]-CA--CB-[CG] |==|  0.50763
USER: genes 15 Torsion [CA]-CB--CG-[CD2] |==|  0.25456
USER: genes 16 Torsion [N]-CA--CB-[OG1] |==|  0.71048
USER: genes 17 Torsion [CA]-CB--OG1-[HG1] |==|  0.91209
USER: genes 18 Torsion [N]-C--CA-[N] |==|  0.52637
USER: genes 19 Torsion [C]-CA--CB-[CG] |==|  0.32677
USER: genes 20 Torsion [CA]-CB--CG-[CD2] |==|  0.68352
USER: genes 21 Torsion [C]-CA--N-[C] |==|  0.61357
USER: genes 22 Torsion [N]-C--CA-[N] |==|  0.96728
USER: genes 23 Torsion [C]-CA--CB-[CG] |==|  0.91480
USER: genes 24 Torsion [CA]-CB--CG-[OD1] |==|  0.86684
USER: genes 25 Torsion [C]-CA--N-[C] |==|  0.79093
USER: genes 26 Torsion [N]-C--CA-[N] |==|  0.23275
USER: genes 27 Torsion [C]-CA--CB-[CG] |==|  0.76591
USER: genes 28 Torsion [CA]-CB--CG-[OD2] |==|  0.33310
ROOT
ATOM      1  C   TRP D 340      20.836  35.047  79.277  1.00 16.52 LIG 0.24  C 
ATOM      2 O    TRP D 340      21.417  34.867  78.204  1.00 16.60 LIG-0.27  OA
ATOM      3  N   THR D 341      21.475  35.230  80.425  1.00 13.22 LIG-0.34  N 
ATOM      4 H    THR D 341      21.067  35.365  81.171  1.00 13.22 LIG 0.16  HD
ENDROOT
BRANCH 3 5
ATOM      5  CA  THR D 341      22.925  35.224  80.551  1.00 12.53 LIG 0.20  C 
BRANCH 5 6
ATOM      6  C   THR D 341      23.346  34.381  81.754  1.00 12.10 LIG 0.24  C 
ATOM      7 O    THR D 341      22.725  34.430  82.814  1.00 10.92 LIG-0.27  OA
ATOM      8  N   HIS D 342      24.390  33.580  81.579  1.00 12.26 LIG-0.35  N 
ATOM      9 H    HIS D 342      24.821  33.501  80.839  1.00 12.26 LIG 0.16  HD
BRANCH 8 10
ATOM     10  CA  HIS D 342      24.896  32.750  82.668  1.00 12.78 LIG 0.18  C 
BRANCH 10 11
ATOM     11  C   HIS D 342      25.281  33.640  83.831  1.00 14.51 LIG 0.24  C 
ATOM     12  N   LEU D 343      24.819  33.297  85.030  1.00 15.48 LIG-0.35  N 
ATOM     13 H    LEU D 343      24.379  32.574  85.184  1.00 15.48 LIG 0.16  HD
ATOM     14 O    HIS D 342      26.011  34.630  83.644  1.00 16.02 LIG-0.27  OA
BRANCH 12 15
ATOM     15  CA  LEU D 343      25.025  34.139  86.210  1.00 16.72 LIG 0.18  C 
BRANCH 15 16
ATOM     16  C   LEU D 343      25.809  33.458  87.330  1.00 19.19 LIG 0.24  C 
ATOM     17  N   SER D 344      26.543  32.387  86.987  1.00 21.37 LIG-0.34  N 
ATOM     18 H    SER D 344      26.444  31.970  86.242  1.00 21.37 LIG 0.16  HD
ATOM     19 O    LEU D 343      25.758  33.898  88.466  1.00 19.56 LIG-0.27  OA
BRANCH 17 20
ATOM     20  CA  SER D 344      27.598  31.810  87.852  1.00 23.14 LIG 0.19  C 
BRANCH 20 21
ATOM     21  C   SER D 344      26.987  30.961  88.976  1.00 24.18 LIG 0.22  C 
ATOM     22 O    SER D 344      25.872  30.427  88.846  1.00 25.35 LIG-0.29  OA
ENDBRANCH 20 21
BRANCH 20 23
ATOM     23  CB  SER D 344      28.477  32.899  88.470  1.00 23.66 LIG 0.20  C 
BRANCH 23 24
ATOM     24 OG   SER D 344      29.556  33.249  87.602  1.00 25.03 LIG-0.40  OA
ATOM     25 HG   SER D 344      30.268  32.903  87.885  1.00 25.03 LIG 0.21  HD
ENDBRANCH 23 24
ENDBRANCH 20 23
ENDBRANCH 17 20
ENDBRANCH 15 16
BRANCH 15 26
ATOM     26  CB  LEU D 343      23.676  34.599  86.789  1.00 15.83 LIG 0.04  C 
BRANCH 26 27
ATOM     27  CG  LEU D 343      22.915  35.641  85.994  1.00 14.86 LIG-0.02  C 
ATOM     28  CD1 LEU D 343      22.137  36.547  86.936  1.00 12.95 LIG 0.01  C 
ATOM     29  CD2 LEU D 343      23.893  36.460  85.112  1.00 12.95 LIG 0.01  C 
ENDBRANCH 26 27
ENDBRANCH 15 26
ENDBRANCH 12 15
ENDBRANCH 10 11
BRANCH 10 30
ATOM     30  CB  HIS D 342      26.127  31.956  82.204  1.00 12.90 LIG 0.10  C 
BRANCH 30 31
ATOM     31  CG  HIS D 342      26.670  31.029  83.241  1.00 12.99 LIG 0.06  A 
ATOM     32  CD2 HIS D 342      26.395  29.724  83.483  1.00 12.88 LIG 0.14  A 
ATOM     33 NE2  HIS D 342      27.163  29.341  84.553  1.00 14.80 LIG-0.25  NA
ATOM     34  CE1 HIS D 342      27.880  30.369  84.962  1.00 13.21 LIG 0.23  A 
ATOM     35 ND1  HIS D 342      27.597  31.403  84.191  1.00 14.49 LIG-0.24  NA
ENDBRANCH 30 31
ENDBRANCH 10 30
ENDBRANCH 8 10
ENDBRANCH 5 6
BRANCH 5 36
ATOM     36  CB  THR D 341      23.467  36.666  80.689  1.00 12.70 LIG 0.15  C 
ATOM     37  CG2 THR D 341      24.502  36.774  81.824  1.00 14.15 LIG 0.04  C 
BRANCH 36 38
ATOM     38 OG1  THR D 341      24.055  37.067  79.445  1.00 14.08 LIG-0.39  OA
ATOM     39 HG1  THR D 341      24.383  36.396  79.061  1.00 14.08 LIG 0.21  HD
ENDBRANCH 36 38
ENDBRANCH 5 36
ENDBRANCH 3 5
BRANCH 1 40
ATOM     40  CA  TRP D 340      19.314  35.016  79.352  1.00 18.72 LIG 0.18  C 
BRANCH 40 41
ATOM     41  CB  TRP D 340      18.917  34.061  80.477  1.00 19.00 LIG 0.07  C 
BRANCH 41 42
ATOM     42  CG  TRP D 340      18.169  34.692  81.598  1.00 19.22 LIG-0.03  A 
ATOM     43  CD2 TRP D 340      18.624  34.840  82.941  1.00 20.18 LIG-0.00  A 
ATOM     44  CE3 TRP D 340      19.814  34.512  83.601  1.00 18.70 LIG 0.01  A 
ATOM     45  CE2 TRP D 340      17.581  35.454  83.671  1.00 18.84 LIG 0.04  A 
ATOM     46  CZ3 TRP D 340      19.926  34.802  84.959  1.00 20.55 LIG 0.00  A 
ATOM     47  CH2 TRP D 340      18.869  35.421  85.652  1.00 19.52 LIG 0.00  A 
ATOM     48  CZ2 TRP D 340      17.692  35.749  85.030  1.00 19.79 LIG 0.03  A 
ATOM     49  NE1 TRP D 340      16.540  35.672  82.804  1.00 21.77 LIG-0.36  N 
ATOM     50  CD1 TRP D 340      16.900  35.195  81.563  1.00 20.48 LIG 0.10  A 
ATOM     51 HE1  TRP D 340      15.790  36.043  83.002  1.00 21.77 LIG 0.17  HD
ENDBRANCH 41 42
ENDBRANCH 40 41
BRANCH 40 52
ATOM     52  N   TRP D 340      18.716  34.589  78.082  1.00 22.23 LIG-0.35  N 
ATOM     53  C   ASP D 339      17.624  35.156  77.572  1.00 26.49 LIG 0.24  C 
ATOM     54 O    ASP D 339      17.025  36.098  78.122  1.00 27.22 LIG-0.27  OA
ATOM     55 H    TRP D 340      19.134  33.942  77.700  1.00 22.23 LIG 0.16  HD
BRANCH 53 56
ATOM     56  CA  ASP D 339      17.115  34.584  76.244  1.00 29.46 LIG 0.19  C 
BRANCH 56 57
ATOM     57  CB  ASP D 339      15.811  33.820  76.485  1.00 30.27 LIG 0.15  C 
BRANCH 57 58
ATOM     58  CG  ASP D 339      15.735  33.184  77.876  1.00 32.94 LIG 0.17  C 
ATOM     59 OD1  ASP D 339      16.722  32.529  78.272  1.00 36.53 LIG-0.65  OA
ATOM     60 OD2  ASP D 339      14.693  33.321  78.566  1.00 35.99 LIG-0.65  OA
ENDBRANCH 57 58
ENDBRANCH 56 57
BRANCH 56 61
ATOM     61  N   ASP D 339      18.100  33.688  75.644  1.00 31.22 LIG-0.34  N 
ATOM     62  C   ASP D 338      19.206  34.111  75.035  1.00 32.92 LIG 0.26  C 
ATOM     63 O    ASP D 338      19.622  35.273  75.097  1.00 33.60 LIG-0.27  OA
ATOM     64 H    ASP D 339      17.897  32.856  75.722  1.00 31.22 LIG 0.16  HD
BRANCH 62 65
ATOM     65  CA  ASP D 338      19.977  33.045  74.257  1.00 33.82 LIG 0.41  C 
ATOM     66  N   ASP D 338      19.403  32.866  72.885  1.00 34.02 LIG 0.61  N 
BRANCH 65 67
ATOM     67  CB  ASP D 338      21.466  33.420  74.177  1.00 34.49 LIG 0.16  C 
BRANCH 67 68
ATOM     68  CG  ASP D 338      21.776  34.376  73.031  1.00 35.92 LIG 0.17  C 
ATOM     69 OD2  ASP D 338      22.269  35.487  73.307  1.00 39.23 LIG-0.65  OA
ATOM     70 OD1  ASP D 338      21.520  34.028  71.853  1.00 38.97 LIG-0.65  OA
ENDBRANCH 67 68
ENDBRANCH 65 67
ENDBRANCH 62 65
ENDBRANCH 56 61
ENDBRANCH 53 56
ENDBRANCH 40 52
ENDBRANCH 1 40
TORSDOF 27
ENDMDL
MODEL 68
USER: ADFR SOLUTION from run 98
USER: SCORE 20.504841 LL:  -5.441 LR: -16.806 RR:   0.000 FEB:  -8.752
USER: RMSD 6.446220
USER: SEED 97
USER: STATUS no improvement in best in 9 clusters for 5 generations
USER: GENES 29
USER: genes 0 Translation |==|  0.49233 0.45545 0.51775
USER: genes 1 Rotation |==|  0.09224 0.60507 0.28118 0.65751
USER: genes 2 Torsion [C]-N--CA-[CB] |==|  0.56154
USER: genes 3 Torsion [N]-CA--C-[N] |==|  0.28590
USER: genes 4 Torsion [C]-N--CA-[C] |==|  0.74834
USER: genes 5 Torsion [N]-CA--C-[N] |==|  0.84633
USER: genes 6 Torsion [C]-N--CA-[C] |==|  0.66440
USER: genes 7 Torsion [N]-CA--C-[N] |==|  0.44444
USER: genes 8 Torsion [C]-N--CA-[C] |==|  0.61770
USER: genes 9 Torsion [N]-CA--C-[O] |==|  0.12312
USER: genes 10 Torsion [N]-CA--CB-[OG] |==|  0.67830
USER: genes 11 Torsion [CA]-CB--OG-[HG] |==|  0.31571
USER: genes 12 Torsion [N]-CA--CB-[CG] |==|  0.03389
USER: genes 13 Torsion [CA]-CB--CG-[CD2] |==|  0.76147
USER: genes 14 Torsion [N]-CA--CB-[CG] |==|  0.53803
USER: genes 15 Torsion [CA]-CB--CG-[CD2] |==|  0.04228
USER: genes 16 Torsion [N]-CA--CB-[OG1] |==|  0.02640
USER: genes 17 Torsion [CA]-CB--OG1-[HG1] |==|  0.14436
USER: genes 18 Torsion [N]-C--CA-[N] |==|  0.67365
USER: genes 19 Torsion [C]-CA--CB-[CG] |==|  0.34020
USER: genes 20 Torsion [CA]-CB--CG-[CD2] |==|  0.90917
USER: genes 21 Torsion [C]-CA--N-[C] |==|  0.16868
USER: genes 22 Torsion [N]-C--CA-[N] |==|  0.41796
USER: genes 23 Torsion [C]-CA--CB-[CG] |==|  0.45182
USER: genes 24 Torsion [CA]-CB--CG-[OD1] |==|  0.72321
USER: genes 25 Torsion [C]-CA--N-[C] |==|  0.73242
USER: genes 26 Torsion [N]-C--CA-[N] |==|  0.33008
USER: genes 27 Torsion [C]-CA--CB-[CG] |==|  0.74963
USER: genes 28 Torsion [CA]-CB--CG-[OD2] |==|  0.35657
ROOT
ATOM      1  C   TRP D 340      22.807  35.034  80.587  1.00 16.52 LIG 0.24  C 
ATOM      2 O    TRP D 340      22.800  35.120  79.357  1.00 16.60 LIG-0.27  OA
ATOM      3  N   THR D 341      21.718  34.792  81.304  1.00 13.22 LIG-0.34  N 
ATOM      4 H    THR D 341      21.728  34.723  82.161  1.00 13.22 LIG 0.16  HD
ENDROOT
BRANCH 3 5
ATOM      5  CA  THR D 341      20.394  34.616  80.724  1.00 12.53 LIG 0.20  C 
BRANCH 5 6
ATOM      6  C   THR D 341      20.222  35.534  79.515  1.00 12.10 LIG 0.24  C 
ATOM      7 O    THR D 341      20.028  36.740  79.655  1.00 10.92 LIG-0.27  OA
ATOM      8  N   HIS D 342      20.323  34.965  78.320  1.00 12.26 LIG-0.35  N 
ATOM      9 H    HIS D 342      20.491  34.131  78.193  1.00 12.26 LIG 0.16  HD
BRANCH 8 10
ATOM     10  CA  HIS D 342      20.149  35.742  77.096  1.00 12.78 LIG 0.18  C 
BRANCH 10 11
ATOM     11  C   HIS D 342      18.690  35.708  76.691  1.00 14.51 LIG 0.24  C 
ATOM     12  N   LEU D 343      18.138  34.508  76.535  1.00 15.48 LIG-0.35  N 
ATOM     13 H    LEU D 343      18.540  33.769  76.715  1.00 15.48 LIG 0.16  HD
ATOM     14 O    HIS D 342      18.060  36.769  76.535  1.00 16.02 LIG-0.27  OA
BRANCH 12 15
ATOM     15  CA  LEU D 343      16.771  34.343  76.034  1.00 16.72 LIG 0.18  C 
BRANCH 15 16
ATOM     16  C   LEU D 343      15.841  33.610  76.996  1.00 19.19 LIG 0.24  C 
ATOM     17  N   SER D 344      14.522  33.781  76.809  1.00 21.37 LIG-0.34  N 
ATOM     18 H    SER D 344      14.196  34.407  76.318  1.00 21.37 LIG 0.16  HD
ATOM     19 O    LEU D 343      16.305  32.903  77.875  1.00 19.56 LIG-0.27  OA
BRANCH 17 20
ATOM     20  CA  SER D 344      13.491  32.913  77.423  1.00 23.14 LIG 0.19  C 
BRANCH 20 21
ATOM     21  C   SER D 344      12.381  32.576  76.417  1.00 24.18 LIG 0.22  C 
ATOM     22 O    SER D 344      12.651  32.247  75.249  1.00 25.35 LIG-0.29  OA
ENDBRANCH 20 21
BRANCH 20 23
ATOM     23  CB  SER D 344      12.864  33.569  78.655  1.00 23.66 LIG 0.20  C 
BRANCH 23 24
ATOM     24 OG   SER D 344      13.150  32.824  79.841  1.00 25.03 LIG-0.40  OA
ATOM     25 HG   SER D 344      13.645  33.278  80.345  1.00 25.03 LIG 0.21  HD
ENDBRANCH 23 24
ENDBRANCH 20 23
ENDBRANCH 17 20
ENDBRANCH 15 16
BRANCH 15 26
ATOM     26  CB  LEU D 343      16.773  33.576  74.700  1.00 15.83 LIG 0.04  C 
BRANCH 26 27
ATOM     27  CG  LEU D 343      18.072  32.900  74.307  1.00 14.86 LIG-0.02  C 
ATOM     28  CD1 LEU D 343      17.782  31.680  73.447  1.00 12.95 LIG 0.01  C 
ATOM     29  CD2 LEU D 343      18.992  33.902  73.563  1.00 12.95 LIG 0.01  C 
ENDBRANCH 26 27
ENDBRANCH 15 26
ENDBRANCH 12 15
ENDBRANCH 10 11
BRANCH 10 30
ATOM     30  CB  HIS D 342      21.005  35.151  75.966  1.00 12.90 LIG 0.10  C 
BRANCH 30 31
ATOM     31  CG  HIS D 342      21.145  36.054  74.783  1.00 12.99 LIG 0.06  A 
ATOM     32  CD2 HIS D 342      20.883  37.377  74.653  1.00 12.88 LIG 0.14  A 
ATOM     33 NE2  HIS D 342      21.177  37.722  73.358  1.00 14.80 LIG-0.25  NA
ATOM     34  CE1 HIS D 342      21.598  36.654  72.711  1.00 13.21 LIG 0.23  A 
ATOM     35 ND1  HIS D 342      21.582  35.630  73.546  1.00 14.49 LIG-0.24  NA
ENDBRANCH 30 31
ENDBRANCH 10 30
ENDBRANCH 8 10
ENDBRANCH 5 6
BRANCH 5 36
ATOM     36  CB  THR D 341      19.296  34.899  81.775  1.00 12.70 LIG 0.15  C 
ATOM     37  CG2 THR D 341      18.524  33.619  82.145  1.00 14.15 LIG 0.04  C 
BRANCH 36 38
ATOM     38 OG1  THR D 341      19.902  35.466  82.945  1.00 14.08 LIG-0.39  OA
ATOM     39 HG1  THR D 341      20.379  36.120  82.724  1.00 14.08 LIG 0.21  HD
ENDBRANCH 36 38
ENDBRANCH 5 36
ENDBRANCH 3 5
BRANCH 1 40
ATOM     40  CA  TRP D 340      24.093  35.261  81.374  1.00 18.72 LIG 0.18  C 
BRANCH 40 41
ATOM     41  CB  TRP D 340      23.786  35.037  82.854  1.00 19.00 LIG 0.07  C 
BRANCH 41 42
ATOM     42  CG  TRP D 340      24.613  33.990  83.514  1.00 19.22 LIG-0.03  A 
ATOM     43  CD2 TRP D 340      25.125  32.808  82.904  1.00 20.18 LIG-0.00  A 
ATOM     44  CE3 TRP D 340      25.068  32.285  81.607  1.00 18.70 LIG 0.01  A 
ATOM     45  CE2 TRP D 340      25.815  32.087  83.905  1.00 18.84 LIG 0.04  A 
ATOM     46  CZ3 TRP D 340      25.693  31.068  81.349  1.00 20.55 LIG 0.00  A 
ATOM     47  CH2 TRP D 340      26.378  30.381  82.369  1.00 19.52 LIG 0.00  A 
ATOM     48  CZ2 TRP D 340      26.447  30.869  83.648  1.00 19.79 LIG 0.03  A 
ATOM     49  NE1 TRP D 340      25.727  32.805  85.070  1.00 21.77 LIG-0.36  N 
ATOM     50  CD1 TRP D 340      24.988  33.941  84.825  1.00 20.48 LIG 0.10  A 
ATOM     51 HE1  TRP D 340      26.075  32.584  85.825  1.00 21.77 LIG 0.17  HD
ENDBRANCH 41 42
ENDBRANCH 40 41
BRANCH 40 52
ATOM     52  N   TRP D 340      24.631  36.609  81.161  1.00 22.23 LIG-0.35  N 
ATOM     53  C   ASP D 339      23.957  37.714  81.477  1.00 26.49 LIG 0.24  C 
ATOM     54 O    ASP D 339      22.822  37.697  81.986  1.00 27.22 LIG-0.27  OA
ATOM     55 H    TRP D 340      25.418  36.619  80.815  1.00 22.23 LIG 0.16  HD
BRANCH 53 56
ATOM     56  CA  ASP D 339      24.653  39.046  81.177  1.00 29.46 LIG 0.19  C 
BRANCH 56 57
ATOM     57  CB  ASP D 339      25.507  39.456  82.379  1.00 30.27 LIG 0.15  C 
BRANCH 57 58
ATOM     58  CG  ASP D 339      26.553  40.522  82.038  1.00 32.94 LIG 0.17  C 
ATOM     59 OD1  ASP D 339      27.727  40.143  81.841  1.00 36.53 LIG-0.65  OA
ATOM     60 OD2  ASP D 339      26.213  41.730  81.982  1.00 35.99 LIG-0.65  OA
ENDBRANCH 57 58
ENDBRANCH 56 57
BRANCH 56 61
ATOM     61  N   ASP D 339      23.680  40.097  80.891  1.00 31.22 LIG-0.34  N 
ATOM     62  C   ASP D 338      23.315  40.447  79.659  1.00 32.92 LIG 0.26  C 
ATOM     63 O    ASP D 338      23.591  39.791  78.648  1.00 33.60 LIG-0.27  OA
ATOM     64 H    ASP D 339      23.363  40.471  81.597  1.00 31.22 LIG 0.16  HD
BRANCH 62 65
ATOM     65  CA  ASP D 338      22.485  41.727  79.557  1.00 33.82 LIG 0.41  C 
ATOM     66  N   ASP D 338      23.193  42.759  78.734  1.00 34.02 LIG 0.61  N 
BRANCH 65 67
ATOM     67  CB  ASP D 338      21.102  41.415  78.963  1.00 34.49 LIG 0.16  C 
BRANCH 67 68
ATOM     68  CG  ASP D 338      21.070  41.522  77.443  1.00 35.92 LIG 0.17  C 
ATOM     69 OD2  ASP D 338      20.613  40.562  76.793  1.00 39.23 LIG-0.65  OA
ATOM     70 OD1  ASP D 338      21.511  42.559  76.891  1.00 38.97 LIG-0.65  OA
ENDBRANCH 67 68
ENDBRANCH 65 67
ENDBRANCH 62 65
ENDBRANCH 56 61
ENDBRANCH 53 56
ENDBRANCH 40 52
ENDBRANCH 1 40
TORSDOF 27
ENDMDL
