MODEL 1
USER: ADFR SOLUTION from run 53
USER: SCORE 18.869858 LL:  -4.443 LR: -16.549 RR:   0.000 FEB:  -9.688
USER: RMSD 2.396089
USER: SEED 52
USER: STATUS no improvement in best in 5 clusters for 5 generations
USER: GENES 25
USER: genes 0 Translation |==|  0.52525 0.37568 0.53413
USER: genes 1 Rotation |==|  0.35428 0.52003 0.39013 0.96507
USER: genes 2 Torsion [N]-C--CA-[N] |==|  0.31700
USER: genes 3 Torsion [C]-CA--N-[C] |==|  0.69313
USER: genes 4 Torsion [N]-C--CA-[N] |==|  0.20381
USER: genes 5 Torsion [C]-CA--N-[C] |==|  0.76002
USER: genes 6 Torsion [N]-C--CA-[CB] |==|  0.46187
USER: genes 7 Torsion [N]-C--CA-[N] |==|  0.63279
USER: genes 8 Torsion [C]-CA--CB-[CG2] |==|  0.53276
USER: genes 9 Torsion [CA]-CB--OG1-[HG1] |==|  0.57793
USER: genes 10 Torsion [C]-CA--CB-[CG2] |==|  0.27803
USER: genes 11 Torsion [CA]-CB--CG1-[CD1] |==|  0.22063
USER: genes 12 Torsion [C]-N--CA-[CB] |==|  0.34874
USER: genes 13 Torsion [N]-CA--CB-[CG] |==|  0.28844
USER: genes 14 Torsion [CA]-CB--CG-[CD] |==|  0.72933
USER: genes 15 Torsion [CB]-CG--CD-[OE2] |==|  0.02493
USER: genes 16 Torsion [N]-CA--C-[N] |==|  0.42028
USER: genes 17 Torsion [C]-N--CA-[C] |==|  0.83234
USER: genes 18 Torsion [N]-CA--CB-[CG] |==|  0.55016
USER: genes 19 Torsion [CA]-CB--CG-[CD] |==|  0.37470
USER: genes 20 Torsion [CB]-CG--CD-[OE1] |==|  0.43383
USER: genes 21 Torsion [N]-CA--C-[N] |==|  0.38476
USER: genes 22 Torsion [C]-N--CA-[C] |==|  0.59972
USER: genes 23 Torsion [N]-CA--C-[O] |==|  0.93358
USER: genes 24 Torsion [N]-CA--CB-[CG1] |==|  0.78119
ROOT
ATOM      1  C   ILE C 637       3.018   3.994  92.743  1.00 71.80 LIG 0.24  C 
ATOM      2 O    ILE C 637       3.765   3.067  92.425  1.00 71.76 LIG-0.27  OA
ATOM      3  N   GLU C 638       3.397   5.012  93.515  1.00 72.25 LIG-0.35  N 
ATOM      4 H    GLU C 638       2.871   5.659  93.726  1.00 72.25 LIG 0.16  HD
ENDROOT
BRANCH 1 5
ATOM      5  CA  ILE C 637       1.568   4.038  92.246  1.00 71.40 LIG 0.18  C 
BRANCH 5 6
ATOM      6  N   ILE C 637       1.511   4.203  90.791  1.00 71.04 LIG-0.35  N 
ATOM      7 H    ILE C 637       1.778   3.519  90.343  1.00 71.04 LIG 0.16  HD
ATOM      8  C   THR C 636       1.077   5.335  90.236  1.00 70.97 LIG 0.24  C 
ATOM      9 O    THR C 636       0.652   6.287  90.897  1.00 70.72 LIG-0.27  OA
BRANCH 8 10
ATOM     10  CA  THR C 636       1.111   5.413  88.706  1.00 71.02 LIG 0.20  C 
BRANCH 10 11
ATOM     11  N   THR C 636       0.036   4.570  88.156  1.00 70.97 LIG-0.34  N 
ATOM     12  C   PRO C 635       0.176   3.264  87.918  1.00 71.03 LIG 0.24  C 
ATOM     13 O    PRO C 635       1.255   2.667  87.997  1.00 70.76 LIG-0.27  OA
ATOM     14 H    THR C 636      -0.694   4.999  88.003  1.00 70.97 LIG 0.16  HD
BRANCH 12 15
ATOM     15  CA  PRO C 635      -1.100   2.505  87.516  1.00 71.21 LIG 0.18  C 
ATOM     16  N   PRO C 635      -1.851   3.134  86.414  1.00 71.31 LIG-0.34  N 
ATOM     17  CD  PRO C 635      -1.987   2.233  85.253  1.00 71.36 LIG 0.13  C 
ATOM     18  C   GLY C 634      -2.424   4.352  86.516  1.00 71.43 LIG 0.25  C 
ATOM     19  CG  PRO C 635      -1.676   0.883  85.822  1.00 71.49 LIG 0.02  C 
ATOM     20  CB  PRO C 635      -0.728   1.124  86.950  1.00 71.24 LIG 0.04  C 
ATOM     21 O    GLY C 634      -2.414   5.014  87.560  1.00 71.42 LIG-0.27  OA
BRANCH 18 22
ATOM     22  CA  GLY C 634      -3.112   4.898  85.276  1.00 71.52 LIG 0.47  C 
ATOM     23  N   GLY C 634      -2.723   6.310  84.980  1.00 71.59 LIG 0.61  N 
ENDBRANCH 18 22
ENDBRANCH 12 15
ENDBRANCH 10 11
BRANCH 10 24
ATOM     24  CB  THR C 636       0.971   6.908  88.267  1.00 71.07 LIG 0.15  C 
ATOM     25  CG2 THR C 636       0.706   7.031  86.760  1.00 70.82 LIG 0.04  C 
BRANCH 24 26
ATOM     26 OG1  THR C 636      -0.099   7.535  88.986  1.00 71.09 LIG-0.39  OA
ATOM     27 HG1  THR C 636      -0.422   8.155  88.522  1.00 71.09 LIG 0.21  HD
ENDBRANCH 24 26
ENDBRANCH 10 24
ENDBRANCH 8 10
ENDBRANCH 5 6
BRANCH 5 28
ATOM     28  CB  ILE C 637       0.767   2.783  92.740  1.00 71.49 LIG 0.01  C 
ATOM     29  CG2 ILE C 637      -0.099   3.139  93.969  1.00 71.22 LIG 0.01  C 
BRANCH 28 30
ATOM     30  CG1 ILE C 637      -0.095   2.196  91.606  1.00 71.24 LIG 0.00  C 
ATOM     31  CD1 ILE C 637       0.646   1.322  90.594  1.00 71.20 LIG 0.01  C 
ENDBRANCH 28 30
ENDBRANCH 5 28
ENDBRANCH 1 5
BRANCH 3 32
ATOM     32  CA  GLU C 638       4.741   5.145  94.090  1.00 72.93 LIG 0.18  C 
BRANCH 32 33
ATOM     33  CB  GLU C 638       5.354   6.504  93.715  1.00 72.95 LIG 0.04  C 
BRANCH 33 34
ATOM     34  CG  GLU C 638       5.351   7.538  94.854  1.00 74.36 LIG 0.12  C 
BRANCH 34 35
ATOM     35  CD  GLU C 638       4.184   8.514  94.782  1.00 76.05 LIG 0.17  C 
ATOM     36 OE2  GLU C 638       3.275   8.294  93.951  1.00 76.25 LIG-0.65  OA
ATOM     37 OE1  GLU C 638       4.182   9.505  95.545  1.00 76.85 LIG-0.65  OA
ENDBRANCH 34 35
ENDBRANCH 33 34
ENDBRANCH 32 33
BRANCH 32 38
ATOM     38  C   GLU C 638       4.671   5.004  95.617  1.00 72.91 LIG 0.24  C 
ATOM     39 O    GLU C 638       3.651   5.346  96.218  1.00 72.88 LIG-0.27  OA
ATOM     40  N   GLU C 639       5.744   4.522  96.246  1.00 73.09 LIG-0.35  N 
ATOM     41 H    GLU C 639       6.463   4.260  95.853  1.00 73.09 LIG 0.16  HD
BRANCH 40 42
ATOM     42  CA  GLU C 639       5.759   4.404  97.712  1.00 73.29 LIG 0.18  C 
BRANCH 42 43
ATOM     43  CB  GLU C 639       7.025   3.698  98.217  1.00 73.41 LIG 0.04  C 
BRANCH 43 44
ATOM     44  CG  GLU C 639       6.882   3.167  99.654  1.00 73.70 LIG 0.12  C 
BRANCH 44 45
ATOM     45  CD  GLU C 639       7.401   1.756  99.849  1.00 74.11 LIG 0.17  C 
ATOM     46 OE1  GLU C 639       7.756   1.380 100.989  1.00 74.46 LIG-0.65  OA
ATOM     47 OE2  GLU C 639       7.460   1.018  98.844  1.00 74.46 LIG-0.65  OA
ENDBRANCH 44 45
ENDBRANCH 43 44
ENDBRANCH 42 43
BRANCH 42 48
ATOM     48  C   GLU C 639       5.577   5.751  98.408  1.00 73.41 LIG 0.24  C 
ATOM     49  N   VAL C 640       4.776   5.764  99.474  1.00 73.52 LIG-0.35  N 
ATOM     50 H    VAL C 640       4.388   5.061  99.784  1.00 73.52 LIG 0.16  HD
ATOM     51 O    GLU C 639       6.152   6.753  97.982  1.00 73.53 LIG-0.27  OA
BRANCH 49 52
ATOM     52  CA  VAL C 640       4.479   6.986 100.223  1.00 73.62 LIG 0.17  C 
BRANCH 52 53
ATOM     53  C   VAL C 640       4.351   6.697 101.723  1.00 73.72 LIG 0.22  C 
ATOM     54 O    VAL C 640       4.057   5.571 102.133  1.00 73.67 LIG-0.29  OA
ENDBRANCH 52 53
BRANCH 52 55
ATOM     55  CB  VAL C 640       3.198   7.690  99.682  1.00 73.60 LIG 0.01  C 
ATOM     56  CG1 VAL C 640       3.490   8.480  98.406  1.00 73.34 LIG 0.01  C 
ATOM     57  CG2 VAL C 640       2.088   6.678  99.447  1.00 74.00 LIG 0.01  C 
ENDBRANCH 52 55
ENDBRANCH 49 52
ENDBRANCH 42 48
ENDBRANCH 40 42
ENDBRANCH 32 38
ENDBRANCH 3 32
TORSDOF 23
ENDMDL
MODEL 2
USER: ADFR SOLUTION from run 41
USER: SCORE 18.730879 LL:  -4.282 LR: -15.805 RR:   0.000 FEB:  -8.944
USER: RMSD 1.421216
USER: SEED 40
USER: STATUS 1 or 2 clusters left
USER: GENES 25
USER: genes 0 Translation |==|  0.54777 0.42849 0.50049
USER: genes 1 Rotation |==|  0.50014 0.52593 0.44129 0.99586
USER: genes 2 Torsion [N]-C--CA-[N] |==|  0.37367
USER: genes 3 Torsion [C]-CA--N-[C] |==|  0.57790
USER: genes 4 Torsion [N]-C--CA-[N] |==|  0.40195
USER: genes 5 Torsion [C]-CA--N-[C] |==|  0.78791
USER: genes 6 Torsion [N]-C--CA-[CB] |==|  0.72059
USER: genes 7 Torsion [N]-C--CA-[N] |==|  0.31902
USER: genes 8 Torsion [C]-CA--CB-[CG2] |==|  0.41356
USER: genes 9 Torsion [CA]-CB--OG1-[HG1] |==|  0.98913
USER: genes 10 Torsion [C]-CA--CB-[CG2] |==|  0.79768
USER: genes 11 Torsion [CA]-CB--CG1-[CD1] |==|  0.28593
USER: genes 12 Torsion [C]-N--CA-[CB] |==|  0.25281
USER: genes 13 Torsion [N]-CA--CB-[CG] |==|  0.04766
USER: genes 14 Torsion [CA]-CB--CG-[CD] |==|  0.22189
USER: genes 15 Torsion [CB]-CG--CD-[OE2] |==|  0.11117
USER: genes 16 Torsion [N]-CA--C-[N] |==|  0.43338
USER: genes 17 Torsion [C]-N--CA-[C] |==|  0.81232
USER: genes 18 Torsion [N]-CA--CB-[CG] |==|  0.57779
USER: genes 19 Torsion [CA]-CB--CG-[CD] |==|  0.46615
USER: genes 20 Torsion [CB]-CG--CD-[OE1] |==|  0.87559
USER: genes 21 Torsion [N]-CA--C-[N] |==|  0.40059
USER: genes 22 Torsion [C]-N--CA-[C] |==|  0.59750
USER: genes 23 Torsion [N]-CA--C-[O] |==|  0.02942
USER: genes 24 Torsion [N]-CA--CB-[CG1] |==|  0.79112
ROOT
ATOM      1  C   ILE C 637       3.457   4.906  91.734  1.00 71.80 LIG 0.24  C 
ATOM      2 O    ILE C 637       4.367   4.459  91.033  1.00 71.76 LIG-0.27  OA
ATOM      3  N   GLU C 638       3.638   5.350  92.976  1.00 72.25 LIG-0.35  N 
ATOM      4 H    GLU C 638       2.998   5.668  93.456  1.00 72.25 LIG 0.16  HD
ENDROOT
BRANCH 1 5
ATOM      5  CA  ILE C 637       2.023   4.987  91.197  1.00 71.40 LIG 0.18  C 
BRANCH 5 6
ATOM      6  N   ILE C 637       1.996   5.528  89.835  1.00 71.04 LIG-0.35  N 
ATOM      7 H    ILE C 637       2.710   5.380  89.379  1.00 71.04 LIG 0.16  HD
ATOM      8  C   THR C 636       0.938   6.193  89.372  1.00 70.97 LIG 0.24  C 
ATOM      9 O    THR C 636      -0.096   6.351  90.028  1.00 70.72 LIG-0.27  OA
BRANCH 8 10
ATOM     10  CA  THR C 636       1.043   6.758  87.952  1.00 71.02 LIG 0.20  C 
BRANCH 10 11
ATOM     11  N   THR C 636      -0.276   6.674  87.300  1.00 70.97 LIG-0.34  N 
ATOM     12  C   PRO C 635      -0.786   5.538  86.819  1.00 71.03 LIG 0.24  C 
ATOM     13 O    PRO C 635      -0.150   4.481  86.742  1.00 70.76 LIG-0.27  OA
ATOM     14 H    THR C 636      -0.688   7.428  87.259  1.00 70.97 LIG 0.16  HD
BRANCH 12 15
ATOM     15  CA  PRO C 635      -2.245   5.598  86.337  1.00 71.21 LIG 0.18  C 
ATOM     16  N   PRO C 635      -2.520   4.764  85.152  1.00 71.31 LIG-0.34  N 
ATOM     17  CD  PRO C 635      -3.559   3.750  85.421  1.00 71.36 LIG 0.13  C 
ATOM     18  C   GLY C 634      -1.952   4.985  83.948  1.00 71.43 LIG 0.25  C 
ATOM     19  CG  PRO C 635      -4.224   4.254  86.665  1.00 71.49 LIG 0.02  C 
ATOM     20  CB  PRO C 635      -3.175   5.009  87.411  1.00 71.24 LIG 0.04  C 
ATOM     21 O    GLY C 634      -1.199   5.939  83.727  1.00 71.42 LIG-0.27  OA
BRANCH 18 22
ATOM     22  CA  GLY C 634      -2.284   4.004  82.836  1.00 71.52 LIG 0.47  C 
ATOM     23  N   GLY C 634      -3.049   4.639  81.721  1.00 71.59 LIG 0.61  N 
ENDBRANCH 18 22
ENDBRANCH 12 15
ENDBRANCH 10 11
BRANCH 10 24
ATOM     24  CB  THR C 636       1.573   8.228  88.023  1.00 71.07 LIG 0.15  C 
ATOM     25  CG2 THR C 636       2.402   8.589  86.783  1.00 70.82 LIG 0.04  C 
BRANCH 24 26
ATOM     26 OG1  THR C 636       0.475   9.142  88.138  1.00 71.09 LIG-0.39  OA
ATOM     27 HG1  THR C 636      -0.249   8.718  88.092  1.00 71.09 LIG 0.21  HD
ENDBRANCH 24 26
ENDBRANCH 10 24
ENDBRANCH 8 10
ENDBRANCH 5 6
BRANCH 5 28
ATOM     28  CB  ILE C 637       1.303   3.597  91.306  1.00 71.49 LIG 0.01  C 
ATOM     29  CG2 ILE C 637       1.858   2.612  90.254  1.00 71.22 LIG 0.01  C 
BRANCH 28 30
ATOM     30  CG1 ILE C 637       1.432   3.019  92.729  1.00 71.24 LIG 0.00  C 
ATOM     31  CD1 ILE C 637       0.189   3.139  93.610  1.00 71.20 LIG 0.01  C 
ENDBRANCH 28 30
ENDBRANCH 5 28
ENDBRANCH 1 5
BRANCH 3 32
ATOM     32  CA  GLU C 638       4.934   5.350  93.664  1.00 72.93 LIG 0.18  C 
BRANCH 32 33
ATOM     33  CB  GLU C 638       5.670   6.679  93.425  1.00 72.95 LIG 0.04  C 
BRANCH 33 34
ATOM     34  CG  GLU C 638       4.771   7.820  92.917  1.00 74.36 LIG 0.12  C 
BRANCH 34 35
ATOM     35  CD  GLU C 638       3.966   8.494  94.019  1.00 76.05 LIG 0.17  C 
ATOM     36 OE2  GLU C 638       4.521   8.699  95.121  1.00 76.25 LIG-0.65  OA
ATOM     37 OE1  GLU C 638       2.777   8.805  93.789  1.00 76.85 LIG-0.65  OA
ENDBRANCH 34 35
ENDBRANCH 33 34
ENDBRANCH 32 33
BRANCH 32 38
ATOM     38  C   GLU C 638       4.726   5.129  95.169  1.00 72.91 LIG 0.24  C 
ATOM     39 O    GLU C 638       3.651   5.431  95.691  1.00 72.88 LIG-0.27  OA
ATOM     40  N   GLU C 639       5.742   4.621  95.868  1.00 73.09 LIG-0.35  N 
ATOM     41 H    GLU C 639       6.497   4.386  95.531  1.00 73.09 LIG 0.16  HD
BRANCH 40 42
ATOM     42  CA  GLU C 639       5.624   4.427  97.322  1.00 73.29 LIG 0.18  C 
BRANCH 42 43
ATOM     43  CB  GLU C 639       6.756   3.551  97.876  1.00 73.41 LIG 0.04  C 
BRANCH 43 44
ATOM     44  CG  GLU C 639       6.349   2.775  99.140  1.00 73.70 LIG 0.12  C 
BRANCH 44 45
ATOM     45  CD  GLU C 639       7.328   1.690  99.545  1.00 74.11 LIG 0.17  C 
ATOM     46 OE1  GLU C 639       7.795   0.923  98.674  1.00 74.46 LIG-0.65  OA
ATOM     47 OE2  GLU C 639       7.627   1.603 100.755  1.00 74.46 LIG-0.65  OA
ENDBRANCH 44 45
ENDBRANCH 43 44
ENDBRANCH 42 43
BRANCH 42 48
ATOM     48  C   GLU C 639       5.539   5.748  98.082  1.00 73.41 LIG 0.24  C 
ATOM     49  N   VAL C 640       4.748   5.764  99.156  1.00 73.52 LIG-0.35  N 
ATOM     50 H    VAL C 640       4.315   5.075  99.436  1.00 73.52 LIG 0.16  HD
ATOM     51 O    GLU C 639       6.178   6.728  97.699  1.00 73.53 LIG-0.27  OA
BRANCH 49 52
ATOM     52  CA  VAL C 640       4.540   6.965  99.966  1.00 73.62 LIG 0.17  C 
BRANCH 52 53
ATOM     53  C   VAL C 640       4.383   6.612 101.449  1.00 73.72 LIG 0.22  C 
ATOM     54 O    VAL C 640       4.626   5.475 101.863  1.00 73.67 LIG-0.29  OA
ENDBRANCH 52 53
BRANCH 52 55
ATOM     55  CB  VAL C 640       3.319   7.791  99.459  1.00 73.60 LIG 0.01  C 
ATOM     56  CG1 VAL C 640       3.651   8.551  98.175  1.00 73.34 LIG 0.01  C 
ATOM     57  CG2 VAL C 640       2.110   6.891  99.256  1.00 74.00 LIG 0.01  C 
ENDBRANCH 52 55
ENDBRANCH 49 52
ENDBRANCH 42 48
ENDBRANCH 40 42
ENDBRANCH 32 38
ENDBRANCH 3 32
TORSDOF 23
ENDMDL
MODEL 3
USER: ADFR SOLUTION from run 185
USER: SCORE 18.709130 LL:  -4.243 LR: -15.203 RR:   0.000 FEB:  -8.342
USER: RMSD 4.631839
USER: SEED 184
USER: STATUS no improvement in best in 5 clusters for 5 generations
USER: GENES 25
USER: genes 0 Translation |==|  0.54058 0.39868 0.49083
USER: genes 1 Rotation |==|  0.53475 0.54850 0.41715 0.98946
USER: genes 2 Torsion [N]-C--CA-[N] |==|  0.39849
USER: genes 3 Torsion [C]-CA--N-[C] |==|  0.62628
USER: genes 4 Torsion [N]-C--CA-[N] |==|  0.33118
USER: genes 5 Torsion [C]-CA--N-[C] |==|  0.77499
USER: genes 6 Torsion [N]-C--CA-[CB] |==|  0.71799
USER: genes 7 Torsion [N]-C--CA-[N] |==|  0.39519
USER: genes 8 Torsion [C]-CA--CB-[CG2] |==|  0.43527
USER: genes 9 Torsion [CA]-CB--OG1-[HG1] |==|  0.96744
USER: genes 10 Torsion [C]-CA--CB-[CG2] |==|  0.79647
USER: genes 11 Torsion [CA]-CB--CG1-[CD1] |==|  0.28486
USER: genes 12 Torsion [C]-N--CA-[CB] |==|  0.52779
USER: genes 13 Torsion [N]-CA--CB-[CG] |==|  0.72764
USER: genes 14 Torsion [CA]-CB--CG-[CD] |==|  0.31900
USER: genes 15 Torsion [CB]-CG--CD-[OE2] |==|  0.15884
USER: genes 16 Torsion [N]-CA--C-[N] |==|  0.45740
USER: genes 17 Torsion [C]-N--CA-[C] |==|  0.69801
USER: genes 18 Torsion [N]-CA--CB-[CG] |==|  0.33638
USER: genes 19 Torsion [CA]-CB--CG-[CD] |==|  0.77994
USER: genes 20 Torsion [CB]-CG--CD-[OE1] |==|  0.95005
USER: genes 21 Torsion [N]-CA--C-[N] |==|  0.95556
USER: genes 22 Torsion [C]-N--CA-[C] |==|  0.81351
USER: genes 23 Torsion [N]-CA--C-[O] |==|  0.34561
USER: genes 24 Torsion [N]-CA--CB-[CG1] |==|  0.88932
ROOT
ATOM      1  C   ILE C 637       3.317   4.391  91.444  1.00 71.80 LIG 0.24  C 
ATOM      2 O    ILE C 637       4.123   3.963  90.616  1.00 71.76 LIG-0.27  OA
ATOM      3  N   GLU C 638       3.628   4.629  92.717  1.00 72.25 LIG-0.35  N 
ATOM      4 H    GLU C 638       3.061   4.935  93.287  1.00 72.25 LIG 0.16  HD
ENDROOT
BRANCH 1 5
ATOM      5  CA  ILE C 637       1.868   4.693  91.043  1.00 71.40 LIG 0.18  C 
BRANCH 5 6
ATOM      6  N   ILE C 637       1.797   5.236  89.683  1.00 71.04 LIG-0.35  N 
ATOM      7 H    ILE C 637       2.274   4.815  89.106  1.00 71.04 LIG 0.16  HD
ATOM      8  C   THR C 636       1.044   6.299  89.398  1.00 70.97 LIG 0.24  C 
ATOM      9 O    THR C 636       0.327   6.858  90.233  1.00 70.72 LIG-0.27  OA
BRANCH 8 10
ATOM     10  CA  THR C 636       1.087   6.810  87.954  1.00 71.02 LIG 0.20  C 
BRANCH 10 11
ATOM     11  N   THR C 636      -0.265   6.730  87.374  1.00 70.97 LIG-0.34  N 
ATOM     12  C   PRO C 635      -0.787   5.606  86.880  1.00 71.03 LIG 0.24  C 
ATOM     13 O    PRO C 635      -0.143   4.561  86.728  1.00 70.76 LIG-0.27  OA
ATOM     14 H    THR C 636      -0.688   7.479  87.383  1.00 70.97 LIG 0.16  HD
BRANCH 12 15
ATOM     15  CA  PRO C 635      -2.271   5.662  86.481  1.00 71.21 LIG 0.18  C 
ATOM     16  N   PRO C 635      -2.597   4.885  85.271  1.00 71.31 LIG-0.34  N 
ATOM     17  CD  PRO C 635      -3.603   3.839  85.541  1.00 71.36 LIG 0.13  C 
ATOM     18  C   GLY C 634      -2.101   5.180  84.051  1.00 71.43 LIG 0.25  C 
ATOM     19  CG  PRO C 635      -4.206   4.264  86.844  1.00 71.49 LIG 0.02  C 
ATOM     20  CB  PRO C 635      -3.130   5.000  87.572  1.00 71.24 LIG 0.04  C 
ATOM     21 O    GLY C 634      -1.377   6.159  83.840  1.00 71.42 LIG-0.27  OA
BRANCH 18 22
ATOM     22  CA  GLY C 634      -2.477   4.252  82.908  1.00 71.52 LIG 0.47  C 
ATOM     23  N   GLY C 634      -2.709   4.985  81.627  1.00 71.59 LIG 0.61  N 
ENDBRANCH 18 22
ENDBRANCH 12 15
ENDBRANCH 10 11
BRANCH 10 24
ATOM     24  CB  THR C 636       1.648   8.270  87.944  1.00 71.07 LIG 0.15  C 
ATOM     25  CG2 THR C 636       2.250   8.633  86.580  1.00 70.82 LIG 0.04  C 
BRANCH 24 26
ATOM     26 OG1  THR C 636       0.605   9.200  88.261  1.00 71.09 LIG-0.39  OA
ATOM     27 HG1  THR C 636      -0.137   8.809  88.235  1.00 71.09 LIG 0.21  HD
ENDBRANCH 24 26
ENDBRANCH 10 24
ENDBRANCH 8 10
ENDBRANCH 5 6
BRANCH 5 28
ATOM     28  CB  ILE C 637       0.958   3.430  91.235  1.00 71.49 LIG 0.01  C 
ATOM     29  CG2 ILE C 637       1.246   2.379  90.140  1.00 71.22 LIG 0.01  C 
BRANCH 28 30
ATOM     30  CG1 ILE C 637       1.138   2.828  92.642  1.00 71.24 LIG 0.00  C 
ATOM     31  CD1 ILE C 637       0.027   3.139  93.644  1.00 71.20 LIG 0.01  C 
ENDBRANCH 28 30
ENDBRANCH 5 28
ENDBRANCH 1 5
BRANCH 3 32
ATOM     32  CA  GLU C 638       4.960   4.399  93.290  1.00 72.93 LIG 0.18  C 
BRANCH 32 33
ATOM     33  CB  GLU C 638       4.918   4.535  94.820  1.00 72.95 LIG 0.04  C 
BRANCH 33 34
ATOM     34  CG  GLU C 638       5.375   5.905  95.349  1.00 74.36 LIG 0.12  C 
BRANCH 34 35
ATOM     35  CD  GLU C 638       4.266   6.689  96.037  1.00 76.05 LIG 0.17  C 
ATOM     36 OE2  GLU C 638       3.678   6.162  97.008  1.00 76.25 LIG-0.65  OA
ATOM     37 OE1  GLU C 638       3.973   7.824  95.600  1.00 76.85 LIG-0.65  OA
ENDBRANCH 34 35
ENDBRANCH 33 34
ENDBRANCH 32 33
BRANCH 32 38
ATOM     38  C   GLU C 638       5.459   3.000  92.901  1.00 72.91 LIG 0.24  C 
ATOM     39 O    GLU C 638       4.664   2.163  92.469  1.00 72.88 LIG-0.27  OA
ATOM     40  N   GLU C 639       6.757   2.737  93.062  1.00 73.09 LIG-0.35  N 
ATOM     41 H    GLU C 639       7.338   3.304  93.345  1.00 73.09 LIG 0.16  HD
BRANCH 40 42
ATOM     42  CA  GLU C 639       7.292   1.403  92.751  1.00 73.29 LIG 0.18  C 
BRANCH 42 43
ATOM     43  CB  GLU C 639       8.467   1.472  91.766  1.00 73.41 LIG 0.04  C 
BRANCH 43 44
ATOM     44  CG  GLU C 639       9.761   0.864  92.333  1.00 73.70 LIG 0.12  C 
BRANCH 44 45
ATOM     45  CD  GLU C 639      10.511   1.776  93.285  1.00 74.11 LIG 0.17  C 
ATOM     46 OE1  GLU C 639      10.264   3.002  93.288  1.00 74.46 LIG-0.65  OA
ATOM     47 OE2  GLU C 639      11.363   1.255  94.033  1.00 74.46 LIG-0.65  OA
ENDBRANCH 44 45
ENDBRANCH 43 44
ENDBRANCH 42 43
BRANCH 42 48
ATOM     48  C   GLU C 639       7.684   0.624  94.005  1.00 73.41 LIG 0.24  C 
ATOM     49  N   VAL C 640       7.809   1.333  95.128  1.00 73.52 LIG-0.35  N 
ATOM     50 H    VAL C 640       7.663   2.180  95.172  1.00 73.52 LIG 0.16  HD
ATOM     51 O    GLU C 639       7.868  -0.592  93.950  1.00 73.53 LIG-0.27  OA
BRANCH 49 52
ATOM     52  CA  VAL C 640       8.211   0.732  96.400  1.00 73.62 LIG 0.17  C 
BRANCH 52 53
ATOM     53  C   VAL C 640       7.134  -0.225  96.924  1.00 73.72 LIG 0.22  C 
ATOM     54 O    VAL C 640       7.401  -1.400  97.190  1.00 73.67 LIG-0.29  OA
ENDBRANCH 52 53
BRANCH 52 55
ATOM     55  CB  VAL C 640       8.551   1.821  97.464  1.00 73.60 LIG 0.01  C 
ATOM     56  CG1 VAL C 640       9.313   2.991  96.843  1.00 73.34 LIG 0.01  C 
ATOM     57  CG2 VAL C 640       7.288   2.307  98.157  1.00 74.00 LIG 0.01  C 
ENDBRANCH 52 55
ENDBRANCH 49 52
ENDBRANCH 42 48
ENDBRANCH 40 42
ENDBRANCH 32 38
ENDBRANCH 3 32
TORSDOF 23
ENDMDL
MODEL 4
USER: ADFR SOLUTION from run 87
USER: SCORE 17.459178 LL:  -4.165 LR: -15.111 RR:   0.000 FEB:  -8.250
USER: RMSD 3.619865
USER: SEED 86
USER: STATUS no improvement in best in 5 clusters for 5 generations
USER: GENES 25
USER: genes 0 Translation |==|  0.51930 0.38781 0.53824
USER: genes 1 Rotation |==|  0.25980 0.53460 0.37536 0.91901
USER: genes 2 Torsion [N]-C--CA-[N] |==|  0.19988
USER: genes 3 Torsion [C]-CA--N-[C] |==|  0.13393
USER: genes 4 Torsion [N]-C--CA-[N] |==|  0.78388
USER: genes 5 Torsion [C]-CA--N-[C] |==|  0.79977
USER: genes 6 Torsion [N]-C--CA-[CB] |==|  0.48877
USER: genes 7 Torsion [N]-C--CA-[N] |==|  0.54630
USER: genes 8 Torsion [C]-CA--CB-[CG2] |==|  0.41145
USER: genes 9 Torsion [CA]-CB--OG1-[HG1] |==|  0.71822
USER: genes 10 Torsion [C]-CA--CB-[CG2] |==|  0.30357
USER: genes 11 Torsion [CA]-CB--CG1-[CD1] |==|  0.30354
USER: genes 12 Torsion [C]-N--CA-[CB] |==|  0.53062
USER: genes 13 Torsion [N]-CA--CB-[CG] |==|  0.30941
USER: genes 14 Torsion [CA]-CB--CG-[CD] |==|  0.72664
USER: genes 15 Torsion [CB]-CG--CD-[OE2] |==|  0.77413
USER: genes 16 Torsion [N]-CA--C-[N] |==|  0.41013
USER: genes 17 Torsion [C]-N--CA-[C] |==|  0.80436
USER: genes 18 Torsion [N]-CA--CB-[CG] |==|  0.52585
USER: genes 19 Torsion [CA]-CB--CG-[CD] |==|  0.26832
USER: genes 20 Torsion [CB]-CG--CD-[OE1] |==|  0.13046
USER: genes 21 Torsion [N]-CA--C-[N] |==|  0.43186
USER: genes 22 Torsion [C]-N--CA-[C] |==|  0.67247
USER: genes 23 Torsion [N]-CA--C-[O] |==|  0.80399
USER: genes 24 Torsion [N]-CA--CB-[CG1] |==|  0.14411
ROOT
ATOM      1  C   ILE C 637       2.902   4.204  92.866  1.00 71.80 LIG 0.24  C 
ATOM      2 O    ILE C 637       3.529   3.143  92.860  1.00 71.76 LIG-0.27  OA
ATOM      3  N   GLU C 638       3.459   5.384  93.134  1.00 72.25 LIG-0.35  N 
ATOM      4 H    GLU C 638       3.015   6.121  93.128  1.00 72.25 LIG 0.16  HD
ENDROOT
BRANCH 1 5
ATOM      5  CA  ILE C 637       1.402   4.229  92.548  1.00 71.40 LIG 0.18  C 
BRANCH 5 6
ATOM      6  N   ILE C 637       1.151   4.816  91.228  1.00 71.04 LIG-0.35  N 
ATOM      7 H    ILE C 637       0.534   5.416  91.216  1.00 71.04 LIG 0.16  HD
ATOM      8  C   THR C 636       1.838   4.431  90.153  1.00 70.97 LIG 0.24  C 
ATOM      9 O    THR C 636       2.754   3.604  90.203  1.00 70.72 LIG-0.27  OA
BRANCH 8 10
ATOM     10  CA  THR C 636       1.455   5.076  88.818  1.00 71.02 LIG 0.20  C 
BRANCH 10 11
ATOM     11  N   THR C 636       0.224   4.444  88.313  1.00 70.97 LIG-0.34  N 
ATOM     12  C   PRO C 635       0.183   3.204  87.820  1.00 71.03 LIG 0.24  C 
ATOM     13 O    PRO C 635       1.191   2.520  87.606  1.00 70.76 LIG-0.27  OA
ATOM     14 H    THR C 636      -0.469   4.951  88.365  1.00 70.97 LIG 0.16  HD
BRANCH 12 15
ATOM     15  CA  PRO C 635      -1.213   2.641  87.507  1.00 71.21 LIG 0.18  C 
ATOM     16  N   PRO C 635      -1.962   3.419  86.503  1.00 71.31 LIG-0.34  N 
ATOM     17  CD  PRO C 635      -2.318   2.603  85.326  1.00 71.36 LIG 0.13  C 
ATOM     18  C   GLY C 634      -2.354   4.695  86.703  1.00 71.43 LIG 0.25  C 
ATOM     19  CG  PRO C 635      -2.147   1.197  85.812  1.00 71.49 LIG 0.02  C 
ATOM     20  CB  PRO C 635      -1.082   1.253  86.858  1.00 71.24 LIG 0.04  C 
ATOM     21 O    GLY C 634      -2.165   5.296  87.766  1.00 71.42 LIG-0.27  OA
BRANCH 18 22
ATOM     22  CA  GLY C 634      -3.064   5.389  85.553  1.00 71.52 LIG 0.47  C 
ATOM     23  N   GLY C 634      -3.099   6.874  85.713  1.00 71.59 LIG 0.61  N 
ENDBRANCH 18 22
ENDBRANCH 12 15
ENDBRANCH 10 11
BRANCH 10 24
ATOM     24  CB  THR C 636       1.284   6.617  89.024  1.00 71.07 LIG 0.15  C 
ATOM     25  CG2 THR C 636       1.677   7.402  87.765  1.00 70.82 LIG 0.04  C 
BRANCH 24 26
ATOM     26 OG1  THR C 636      -0.074   6.921  89.365  1.00 71.09 LIG-0.39  OA
ATOM     27 HG1  THR C 636      -0.473   7.215  88.687  1.00 71.09 LIG 0.21  HD
ENDBRANCH 24 26
ENDBRANCH 10 24
ENDBRANCH 8 10
ENDBRANCH 5 6
BRANCH 5 28
ATOM     28  CB  ILE C 637       0.772   2.802  92.701  1.00 71.49 LIG 0.01  C 
ATOM     29  CG2 ILE C 637      -0.148   2.743  93.941  1.00 71.22 LIG 0.01  C 
BRANCH 28 30
ATOM     30  CG1 ILE C 637       0.008   2.395  91.425  1.00 71.24 LIG 0.00  C 
ATOM     31  CD1 ILE C 637       0.654   1.292  90.588  1.00 71.20 LIG 0.01  C 
ENDBRANCH 28 30
ENDBRANCH 5 28
ENDBRANCH 1 5
BRANCH 3 32
ATOM     32  CA  GLU C 638       4.877   5.563  93.465  1.00 72.93 LIG 0.18  C 
BRANCH 32 33
ATOM     33  CB  GLU C 638       5.134   6.988  93.981  1.00 72.95 LIG 0.04  C 
BRANCH 33 34
ATOM     34  CG  GLU C 638       5.500   7.067  95.473  1.00 74.36 LIG 0.12  C 
BRANCH 34 35
ATOM     35  CD  GLU C 638       4.322   7.426  96.368  1.00 76.05 LIG 0.17  C 
ATOM     36 OE2  GLU C 638       3.997   8.630  96.471  1.00 76.25 LIG-0.65  OA
ATOM     37 OE1  GLU C 638       3.730   6.508  96.977  1.00 76.85 LIG-0.65  OA
ENDBRANCH 34 35
ENDBRANCH 33 34
ENDBRANCH 32 33
BRANCH 32 38
ATOM     38  C   GLU C 638       5.297   4.537  94.527  1.00 72.91 LIG 0.24  C 
ATOM     39 O    GLU C 638       4.487   4.172  95.381  1.00 72.88 LIG-0.27  OA
ATOM     40  N   GLU C 639       6.551   4.084  94.491  1.00 73.09 LIG-0.35  N 
ATOM     41 H    GLU C 639       7.134   4.307  93.899  1.00 73.09 LIG 0.16  HD
BRANCH 40 42
ATOM     42  CA  GLU C 639       7.031   3.134  95.507  1.00 73.29 LIG 0.18  C 
BRANCH 42 43
ATOM     43  CB  GLU C 639       8.335   2.448  95.079  1.00 73.41 LIG 0.04  C 
BRANCH 43 44
ATOM     44  CG  GLU C 639       8.737   1.291  96.010  1.00 73.70 LIG 0.12  C 
BRANCH 44 45
ATOM     45  CD  GLU C 639       8.312  -0.079  95.517  1.00 74.11 LIG 0.17  C 
ATOM     46 OE1  GLU C 639       8.522  -0.399  94.326  1.00 74.46 LIG-0.65  OA
ATOM     47 OE2  GLU C 639       7.753  -0.839  96.335  1.00 74.46 LIG-0.65  OA
ENDBRANCH 44 45
ENDBRANCH 43 44
ENDBRANCH 42 43
BRANCH 42 48
ATOM     48  C   GLU C 639       7.184   3.779  96.882  1.00 73.41 LIG 0.24  C 
ATOM     49  N   VAL C 640       7.113   2.959  97.932  1.00 73.52 LIG-0.35  N 
ATOM     50 H    VAL C 640       7.007   2.108  97.863  1.00 73.52 LIG 0.16  HD
ATOM     51 O    GLU C 639       7.362   4.993  96.983  1.00 73.53 LIG-0.27  OA
BRANCH 49 52
ATOM     52  CA  VAL C 640       7.210   3.435  99.313  1.00 73.62 LIG 0.17  C 
BRANCH 52 53
ATOM     53  C   VAL C 640       8.429   2.834 100.021  1.00 73.72 LIG 0.22  C 
ATOM     54 O    VAL C 640       8.464   1.639 100.327  1.00 73.67 LIG-0.29  OA
ENDBRANCH 52 53
BRANCH 52 55
ATOM     55  CB  VAL C 640       5.903   3.140 100.111  1.00 73.60 LIG 0.01  C 
ATOM     56  CG1 VAL C 640       5.497   1.671  99.997  1.00 73.34 LIG 0.01  C 
ATOM     57  CG2 VAL C 640       6.061   3.545 101.568  1.00 74.00 LIG 0.01  C 
ENDBRANCH 52 55
ENDBRANCH 49 52
ENDBRANCH 42 48
ENDBRANCH 40 42
ENDBRANCH 32 38
ENDBRANCH 3 32
TORSDOF 23
ENDMDL
MODEL 5
USER: ADFR SOLUTION from run 153
USER: SCORE 18.515597 LL:  -4.567 LR: -15.014 RR:   0.000 FEB:  -8.153
USER: RMSD 5.668329
USER: SEED 152
USER: STATUS no improvement in best in 5 clusters for 5 generations
USER: GENES 25
USER: genes 0 Translation |==|  0.60297 0.44436 0.61630
USER: genes 1 Rotation |==|  0.75801 0.46681 0.91939 0.58023
USER: genes 2 Torsion [N]-C--CA-[N] |==|  0.37264
USER: genes 3 Torsion [C]-CA--N-[C] |==|  0.65151
USER: genes 4 Torsion [N]-C--CA-[N] |==|  0.35566
USER: genes 5 Torsion [C]-CA--N-[C] |==|  0.67206
USER: genes 6 Torsion [N]-C--CA-[CB] |==|  0.73340
USER: genes 7 Torsion [N]-C--CA-[N] |==|  0.52992
USER: genes 8 Torsion [C]-CA--CB-[CG2] |==|  0.25841
USER: genes 9 Torsion [CA]-CB--OG1-[HG1] |==|  0.07194
USER: genes 10 Torsion [C]-CA--CB-[CG2] |==|  0.45420
USER: genes 11 Torsion [CA]-CB--CG1-[CD1] |==|  0.77073
USER: genes 12 Torsion [C]-N--CA-[CB] |==|  0.52849
USER: genes 13 Torsion [N]-CA--CB-[CG] |==|  0.48417
USER: genes 14 Torsion [CA]-CB--CG-[CD] |==|  0.38945
USER: genes 15 Torsion [CB]-CG--CD-[OE2] |==|  0.46809
USER: genes 16 Torsion [N]-CA--C-[N] |==|  0.27794
USER: genes 17 Torsion [C]-N--CA-[C] |==|  0.77254
USER: genes 18 Torsion [N]-CA--CB-[CG] |==|  0.33362
USER: genes 19 Torsion [CA]-CB--CG-[CD] |==|  0.71139
USER: genes 20 Torsion [CB]-CG--CD-[OE1] |==|  0.49088
USER: genes 21 Torsion [N]-CA--C-[N] |==|  0.93595
USER: genes 22 Torsion [C]-N--CA-[C] |==|  0.58238
USER: genes 23 Torsion [N]-CA--C-[O] |==|  0.86410
USER: genes 24 Torsion [N]-CA--CB-[CG1] |==|  0.42003
ROOT
ATOM      1  C   ILE C 637       4.534   5.179  95.208  1.00 71.80 LIG 0.24  C 
ATOM      2 O    ILE C 637       3.662   5.758  95.859  1.00 71.76 LIG-0.27  OA
ATOM      3  N   GLU C 638       5.457   4.390  95.755  1.00 72.25 LIG-0.35  N 
ATOM      4 H    GLU C 638       6.057   3.983  95.292  1.00 72.25 LIG 0.16  HD
ENDROOT
BRANCH 1 5
ATOM      5  CA  ILE C 637       4.604   5.331  93.683  1.00 71.40 LIG 0.18  C 
BRANCH 5 6
ATOM      6  N   ILE C 637       3.277   5.194  93.076  1.00 71.04 LIG-0.35  N 
ATOM      7 H    ILE C 637       2.681   5.724  93.398  1.00 71.04 LIG 0.16  HD
ATOM      8  C   THR C 636       3.044   4.310  92.105  1.00 70.97 LIG 0.24  C 
ATOM      9 O    THR C 636       3.928   3.594  91.624  1.00 70.72 LIG-0.27  OA
BRANCH 8 10
ATOM     10  CA  THR C 636       1.608   4.219  91.582  1.00 71.02 LIG 0.20  C 
BRANCH 10 11
ATOM     11  N   THR C 636       1.621   4.344  90.114  1.00 70.97 LIG-0.34  N 
ATOM     12  C   PRO C 635       1.013   5.334  89.456  1.00 71.03 LIG 0.24  C 
ATOM     13 O    PRO C 635       0.264   6.156  89.997  1.00 70.76 LIG-0.27  OA
ATOM     14 H    THR C 636       2.058   3.718  89.719  1.00 70.97 LIG 0.16  HD
BRANCH 12 15
ATOM     15  CA  PRO C 635       1.280   5.410  87.943  1.00 71.21 LIG 0.18  C 
ATOM     16  N   PRO C 635       0.150   5.944  87.161  1.00 71.31 LIG-0.34  N 
ATOM     17  CD  PRO C 635       0.523   7.160  86.411  1.00 71.36 LIG 0.13  C 
ATOM     18  C   GLY C 634      -1.044   5.321  87.073  1.00 71.43 LIG 0.25  C 
ATOM     19  CG  PRO C 635       2.020   7.122  86.409  1.00 71.49 LIG 0.02  C 
ATOM     20  CB  PRO C 635       2.413   6.413  87.663  1.00 71.24 LIG 0.04  C 
ATOM     21 O    GLY C 634      -1.269   4.224  87.597  1.00 71.42 LIG-0.27  OA
BRANCH 18 22
ATOM     22  CA  GLY C 634      -2.134   6.023  86.281  1.00 71.52 LIG 0.47  C 
ATOM     23  N   GLY C 634      -3.473   5.385  86.459  1.00 71.59 LIG 0.61  N 
ENDBRANCH 18 22
ENDBRANCH 12 15
ENDBRANCH 10 11
BRANCH 10 24
ATOM     24  CB  THR C 636       0.975   2.868  92.053  1.00 71.07 LIG 0.15  C 
ATOM     25  CG2 THR C 636       0.210   3.033  93.373  1.00 70.82 LIG 0.04  C 
BRANCH 24 26
ATOM     26 OG1  THR C 636       0.082   2.367  91.050  1.00 71.09 LIG-0.39  OA
ATOM     27 HG1  THR C 636       0.313   2.659  90.298  1.00 71.09 LIG 0.21  HD
ENDBRANCH 24 26
ENDBRANCH 10 24
ENDBRANCH 8 10
ENDBRANCH 5 6
BRANCH 5 28
ATOM     28  CB  ILE C 637       5.313   6.672  93.285  1.00 71.49 LIG 0.01  C 
ATOM     29  CG2 ILE C 637       5.749   6.638  91.803  1.00 71.22 LIG 0.01  C 
BRANCH 28 30
ATOM     30  CG1 ILE C 637       4.402   7.883  93.567  1.00 71.24 LIG 0.00  C 
ATOM     31  CD1 ILE C 637       3.362   8.196  92.492  1.00 71.20 LIG 0.01  C 
ENDBRANCH 28 30
ENDBRANCH 5 28
ENDBRANCH 1 5
BRANCH 3 32
ATOM     32  CA  GLU C 638       5.555   4.124  97.195  1.00 72.93 LIG 0.18  C 
BRANCH 32 33
ATOM     33  CB  GLU C 638       6.866   3.389  97.518  1.00 72.95 LIG 0.04  C 
BRANCH 33 34
ATOM     34  CG  GLU C 638       7.128   3.188  99.021  1.00 74.36 LIG 0.12  C 
BRANCH 34 35
ATOM     35  CD  GLU C 638       7.721   1.826  99.355  1.00 76.05 LIG 0.17  C 
ATOM     36 OE2  GLU C 638       8.173   1.639 100.506  1.00 76.25 LIG-0.65  OA
ATOM     37 OE1  GLU C 638       7.749   0.949  98.464  1.00 76.85 LIG-0.65  OA
ENDBRANCH 34 35
ENDBRANCH 33 34
ENDBRANCH 32 33
BRANCH 32 38
ATOM     38  C   GLU C 638       5.490   5.446  97.974  1.00 72.91 LIG 0.24  C 
ATOM     39 O    GLU C 638       6.498   6.147  98.080  1.00 72.88 LIG-0.27  OA
ATOM     40  N   GLU C 639       4.324   5.783  98.528  1.00 73.09 LIG-0.35  N 
ATOM     41 H    GLU C 639       3.600   5.324  98.458  1.00 73.09 LIG 0.16  HD
BRANCH 40 42
ATOM     42  CA  GLU C 639       4.205   7.014  99.325  1.00 73.29 LIG 0.18  C 
BRANCH 42 43
ATOM     43  CB  GLU C 639       2.776   7.574  99.303  1.00 73.41 LIG 0.04  C 
BRANCH 43 44
ATOM     44  CG  GLU C 639       2.146   7.661 100.704  1.00 73.70 LIG 0.12  C 
BRANCH 44 45
ATOM     45  CD  GLU C 639       1.127   6.576 100.996  1.00 74.11 LIG 0.17  C 
ATOM     46 OE1  GLU C 639       0.597   6.514 102.127  1.00 74.46 LIG-0.65  OA
ATOM     47 OE2  GLU C 639       0.862   5.771 100.078  1.00 74.46 LIG-0.65  OA
ENDBRANCH 44 45
ENDBRANCH 43 44
ENDBRANCH 42 43
BRANCH 42 48
ATOM     48  C   GLU C 639       4.692   6.829 100.760  1.00 73.41 LIG 0.24  C 
ATOM     49  N   VAL C 640       4.690   5.580 101.230  1.00 73.52 LIG-0.35  N 
ATOM     50 H    VAL C 640       4.452   4.899 100.763  1.00 73.52 LIG 0.16  HD
ATOM     51 O    GLU C 639       5.058   7.800 101.423  1.00 73.53 LIG-0.27  OA
BRANCH 49 52
ATOM     52  CA  VAL C 640       5.097   5.251 102.597  1.00 73.62 LIG 0.17  C 
BRANCH 52 53
ATOM     53  C   VAL C 640       5.696   3.842 102.672  1.00 73.72 LIG 0.22  C 
ATOM     54 O    VAL C 640       5.119   2.876 102.164  1.00 73.67 LIG-0.29  OA
ENDBRANCH 52 53
BRANCH 52 55
ATOM     55  CB  VAL C 640       3.911   5.404 103.598  1.00 73.60 LIG 0.01  C 
ATOM     56  CG1 VAL C 640       4.057   4.456 104.788  1.00 73.34 LIG 0.01  C 
ATOM     57  CG2 VAL C 640       3.790   6.845 104.069  1.00 74.00 LIG 0.01  C 
ENDBRANCH 52 55
ENDBRANCH 49 52
ENDBRANCH 42 48
ENDBRANCH 40 42
ENDBRANCH 32 38
ENDBRANCH 3 32
TORSDOF 23
ENDMDL
MODEL 6
USER: ADFR SOLUTION from run 25
USER: SCORE 18.319438 LL:  -4.776 LR: -14.832 RR:   0.000 FEB:  -7.971
USER: RMSD 2.602107
USER: SEED 24
USER: STATUS no improvement in best in 9 clusters for 5 generations
USER: GENES 25
USER: genes 0 Translation |==|  0.54301 0.41396 0.51735
USER: genes 1 Rotation |==|  0.49438 0.52707 0.40936 0.99094
USER: genes 2 Torsion [N]-C--CA-[N] |==|  0.35639
USER: genes 3 Torsion [C]-CA--N-[C] |==|  0.68547
USER: genes 4 Torsion [N]-C--CA-[N] |==|  0.15000
USER: genes 5 Torsion [C]-CA--N-[C] |==|  0.14006
USER: genes 6 Torsion [N]-C--CA-[CB] |==|  0.64830
USER: genes 7 Torsion [N]-C--CA-[N] |==|  0.53355
USER: genes 8 Torsion [C]-CA--CB-[CG2] |==|  0.27514
USER: genes 9 Torsion [CA]-CB--OG1-[HG1] |==|  0.20316
USER: genes 10 Torsion [C]-CA--CB-[CG2] |==|  0.80326
USER: genes 11 Torsion [CA]-CB--CG1-[CD1] |==|  0.31279
USER: genes 12 Torsion [C]-N--CA-[CB] |==|  0.24423
USER: genes 13 Torsion [N]-CA--CB-[CG] |==|  0.24039
USER: genes 14 Torsion [CA]-CB--CG-[CD] |==|  0.78202
USER: genes 15 Torsion [CB]-CG--CD-[OE2] |==|  0.93967
USER: genes 16 Torsion [N]-CA--C-[N] |==|  0.43839
USER: genes 17 Torsion [C]-N--CA-[C] |==|  0.82930
USER: genes 18 Torsion [N]-CA--CB-[CG] |==|  0.47522
USER: genes 19 Torsion [CA]-CB--CG-[CD] |==|  0.34024
USER: genes 20 Torsion [CB]-CG--CD-[OE1] |==|  0.68024
USER: genes 21 Torsion [N]-CA--C-[N] |==|  0.39853
USER: genes 22 Torsion [C]-N--CA-[C] |==|  0.60211
USER: genes 23 Torsion [N]-CA--C-[O] |==|  0.72963
USER: genes 24 Torsion [N]-CA--CB-[CG1] |==|  0.77147
ROOT
ATOM      1  C   ILE C 637       3.365   4.655  92.239  1.00 71.80 LIG 0.24  C 
ATOM      2 O    ILE C 637       4.203   4.076  91.546  1.00 71.76 LIG-0.27  OA
ATOM      3  N   GLU C 638       3.613   5.108  93.467  1.00 72.25 LIG-0.35  N 
ATOM      4 H    GLU C 638       3.024   5.518  93.941  1.00 72.25 LIG 0.16  HD
ENDROOT
BRANCH 1 5
ATOM      5  CA  ILE C 637       1.947   4.903  91.710  1.00 71.40 LIG 0.18  C 
BRANCH 5 6
ATOM      6  N   ILE C 637       1.978   5.541  90.391  1.00 71.04 LIG-0.35  N 
ATOM      7 H    ILE C 637       2.298   5.048  89.764  1.00 71.04 LIG 0.16  HD
ATOM      8  C   THR C 636       1.539   6.787  90.210  1.00 70.97 LIG 0.24  C 
ATOM      9 O    THR C 636       1.037   7.460  91.116  1.00 70.72 LIG-0.27  OA
BRANCH 8 10
ATOM     10  CA  THR C 636       1.668   7.369  88.799  1.00 71.02 LIG 0.20  C 
BRANCH 10 11
ATOM     11  N   THR C 636       1.024   6.455  87.840  1.00 70.97 LIG-0.34  N 
ATOM     12  C   PRO C 635      -0.213   5.978  87.997  1.00 71.03 LIG 0.24  C 
ATOM     13 O    PRO C 635      -0.881   6.137  89.026  1.00 70.76 LIG-0.27  OA
ATOM     14 H    THR C 636       1.520   6.258  87.166  1.00 70.97 LIG 0.16  HD
BRANCH 12 15
ATOM     15  CA  PRO C 635      -0.793   5.185  86.814  1.00 71.21 LIG 0.18  C 
ATOM     16  N   PRO C 635      -1.107   3.779  87.130  1.00 71.31 LIG-0.34  N 
ATOM     17  CD  PRO C 635      -2.534   3.471  86.915  1.00 71.36 LIG 0.13  C 
ATOM     18  C   GLY C 634      -0.166   2.874  87.473  1.00 71.43 LIG 0.25  C 
ATOM     19  CG  PRO C 635      -3.008   4.600  86.053  1.00 71.49 LIG 0.02  C 
ATOM     20  CB  PRO C 635      -2.155   5.773  86.410  1.00 71.24 LIG 0.04  C 
ATOM     21 O    GLY C 634       1.042   3.137  87.497  1.00 71.42 LIG-0.27  OA
BRANCH 18 22
ATOM     22  CA  GLY C 634      -0.647   1.479  87.832  1.00 71.52 LIG 0.47  C 
ATOM     23  N   GLY C 634       0.421   0.649  88.466  1.00 71.59 LIG 0.61  N 
ENDBRANCH 18 22
ENDBRANCH 12 15
ENDBRANCH 10 11
BRANCH 10 24
ATOM     24  CB  THR C 636       1.030   8.797  88.773  1.00 71.07 LIG 0.15  C 
ATOM     25  CG2 THR C 636       2.097   9.894  88.892  1.00 70.82 LIG 0.04  C 
BRANCH 24 26
ATOM     26 OG1  THR C 636       0.294   8.985  87.558  1.00 71.09 LIG-0.39  OA
ATOM     27 HG1  THR C 636      -0.416   8.538  87.589  1.00 71.09 LIG 0.21  HD
ENDBRANCH 24 26
ENDBRANCH 10 24
ENDBRANCH 8 10
ENDBRANCH 5 6
BRANCH 5 28
ATOM     28  CB  ILE C 637       1.105   3.580  91.719  1.00 71.49 LIG 0.01  C 
ATOM     29  CG2 ILE C 637       1.609   2.606  90.630  1.00 71.22 LIG 0.01  C 
BRANCH 28 30
ATOM     30  CG1 ILE C 637       1.131   2.918  93.110  1.00 71.24 LIG 0.00  C 
ATOM     31  CD1 ILE C 637      -0.199   2.902  93.863  1.00 71.20 LIG 0.01  C 
ENDBRANCH 28 30
ENDBRANCH 5 28
ENDBRANCH 1 5
BRANCH 3 32
ATOM     32  CA  GLU C 638       4.906   4.962  94.146  1.00 72.93 LIG 0.18  C 
BRANCH 32 33
ATOM     33  CB  GLU C 638       5.830   6.141  93.802  1.00 72.95 LIG 0.04  C 
BRANCH 33 34
ATOM     34  CG  GLU C 638       5.655   7.371  94.709  1.00 74.36 LIG 0.12  C 
BRANCH 34 35
ATOM     35  CD  GLU C 638       4.439   8.216  94.356  1.00 76.05 LIG 0.17  C 
ATOM     36 OE2  GLU C 638       3.963   8.122  93.202  1.00 76.25 LIG-0.65  OA
ATOM     37 OE1  GLU C 638       3.967   8.982  95.224  1.00 76.85 LIG-0.65  OA
ENDBRANCH 34 35
ENDBRANCH 33 34
ENDBRANCH 32 33
BRANCH 32 38
ATOM     38  C   GLU C 638       4.691   4.889  95.665  1.00 72.91 LIG 0.24  C 
ATOM     39 O    GLU C 638       3.668   5.361  96.163  1.00 72.88 LIG-0.27  OA
ATOM     40  N   GLU C 639       5.648   4.320  96.400  1.00 73.09 LIG-0.35  N 
ATOM     41 H    GLU C 639       6.364   3.967  96.080  1.00 73.09 LIG 0.16  HD
BRANCH 40 42
ATOM     42  CA  GLU C 639       5.525   4.258  97.865  1.00 73.29 LIG 0.18  C 
BRANCH 42 43
ATOM     43  CB  GLU C 639       6.643   3.418  98.498  1.00 73.41 LIG 0.04  C 
BRANCH 43 44
ATOM     44  CG  GLU C 639       6.669   3.515 100.033  1.00 73.70 LIG 0.12  C 
BRANCH 44 45
ATOM     45  CD  GLU C 639       6.537   2.181 100.742  1.00 74.11 LIG 0.17  C 
ATOM     46 OE1  GLU C 639       5.530   1.954 101.449  1.00 74.46 LIG-0.65  OA
ATOM     47 OE2  GLU C 639       7.461   1.354 100.593  1.00 74.46 LIG-0.65  OA
ENDBRANCH 44 45
ENDBRANCH 43 44
ENDBRANCH 42 43
BRANCH 42 48
ATOM     48  C   GLU C 639       5.461   5.643  98.504  1.00 73.41 LIG 0.24  C 
ATOM     49  N   VAL C 640       4.658   5.772  99.561  1.00 73.52 LIG-0.35  N 
ATOM     50 H    VAL C 640       4.206   5.120  99.894  1.00 73.52 LIG 0.16  HD
ATOM     51 O    GLU C 639       6.127   6.571  98.043  1.00 73.53 LIG-0.27  OA
BRANCH 49 52
ATOM     52  CA  VAL C 640       4.468   7.045 100.257  1.00 73.62 LIG 0.17  C 
BRANCH 52 53
ATOM     53  C   VAL C 640       4.326   6.833 101.769  1.00 73.72 LIG 0.22  C 
ATOM     54 O    VAL C 640       3.215   6.783 102.304  1.00 73.67 LIG-0.29  OA
ENDBRANCH 52 53
BRANCH 52 55
ATOM     55  CB  VAL C 640       3.245   7.829  99.689  1.00 73.60 LIG 0.01  C 
ATOM     56  CG1 VAL C 640       3.617   8.607  98.427  1.00 73.34 LIG 0.01  C 
ATOM     57  CG2 VAL C 640       2.082   6.888  99.421  1.00 74.00 LIG 0.01  C 
ENDBRANCH 52 55
ENDBRANCH 49 52
ENDBRANCH 42 48
ENDBRANCH 40 42
ENDBRANCH 32 38
ENDBRANCH 3 32
TORSDOF 23
ENDMDL
MODEL 7
USER: ADFR SOLUTION from run 42
USER: SCORE 17.859162 LL:  -4.502 LR: -14.810 RR:   0.000 FEB:  -7.949
USER: RMSD 3.020714
USER: SEED 41
USER: STATUS no improvement in best in 4 clusters for 5 generations
USER: GENES 25
USER: genes 0 Translation |==|  0.52903 0.37508 0.53363
USER: genes 1 Rotation |==|  0.41558 0.52746 0.41022 0.98380
USER: genes 2 Torsion [N]-C--CA-[N] |==|  0.35856
USER: genes 3 Torsion [C]-CA--N-[C] |==|  0.69038
USER: genes 4 Torsion [N]-C--CA-[N] |==|  0.20703
USER: genes 5 Torsion [C]-CA--N-[C] |==|  0.76291
USER: genes 6 Torsion [N]-C--CA-[CB] |==|  0.46321
USER: genes 7 Torsion [N]-C--CA-[N] |==|  0.61406
USER: genes 8 Torsion [C]-CA--CB-[CG2] |==|  0.53297
USER: genes 9 Torsion [CA]-CB--OG1-[HG1] |==|  0.62279
USER: genes 10 Torsion [C]-CA--CB-[CG2] |==|  0.27697
USER: genes 11 Torsion [CA]-CB--CG1-[CD1] |==|  0.23021
USER: genes 12 Torsion [C]-N--CA-[CB] |==|  0.26460
USER: genes 13 Torsion [N]-CA--CB-[CG] |==|  0.04350
USER: genes 14 Torsion [CA]-CB--CG-[CD] |==|  0.23899
USER: genes 15 Torsion [CB]-CG--CD-[OE2] |==|  0.44667
USER: genes 16 Torsion [N]-CA--C-[N] |==|  0.41235
USER: genes 17 Torsion [C]-N--CA-[C] |==|  0.83693
USER: genes 18 Torsion [N]-CA--CB-[CG] |==|  0.78206
USER: genes 19 Torsion [CA]-CB--CG-[CD] |==|  0.64523
USER: genes 20 Torsion [CB]-CG--CD-[OE1] |==|  0.70720
USER: genes 21 Torsion [N]-CA--C-[N] |==|  0.93595
USER: genes 22 Torsion [C]-N--CA-[C] |==|  0.77550
USER: genes 23 Torsion [N]-CA--C-[O] |==|  0.51020
USER: genes 24 Torsion [N]-CA--CB-[CG1] |==|  0.87292
ROOT
ATOM      1  C   ILE C 637       3.092   3.984  92.728  1.00 71.80 LIG 0.24  C 
ATOM      2 O    ILE C 637       3.903   3.226  92.194  1.00 71.76 LIG-0.27  OA
ATOM      3  N   GLU C 638       3.399   4.793  93.741  1.00 72.25 LIG-0.35  N 
ATOM      4 H    GLU C 638       2.828   5.324  94.103  1.00 72.25 LIG 0.16  HD
ENDROOT
BRANCH 1 5
ATOM      5  CA  ILE C 637       1.641   4.051  92.237  1.00 71.40 LIG 0.18  C 
BRANCH 5 6
ATOM      6  N   ILE C 637       1.581   4.236  90.784  1.00 71.04 LIG-0.35  N 
ATOM      7 H    ILE C 637       1.851   3.560  90.327  1.00 71.04 LIG 0.16  HD
ATOM      8  C   THR C 636       1.139   5.373  90.246  1.00 70.97 LIG 0.24  C 
ATOM      9 O    THR C 636       0.709   6.313  90.921  1.00 70.72 LIG-0.27  OA
BRANCH 8 10
ATOM     10  CA  THR C 636       1.170   5.473  88.718  1.00 71.02 LIG 0.20  C 
BRANCH 10 11
ATOM     11  N   THR C 636       0.081   4.653  88.158  1.00 70.97 LIG-0.34  N 
ATOM     12  C   PRO C 635       0.196   3.345  87.919  1.00 71.03 LIG 0.24  C 
ATOM     13 O    PRO C 635       1.262   2.725  88.006  1.00 70.76 LIG-0.27  OA
ATOM     14 H    THR C 636      -0.638   5.098  88.000  1.00 70.97 LIG 0.16  HD
BRANCH 12 15
ATOM     15  CA  PRO C 635      -1.092   2.613  87.506  1.00 71.21 LIG 0.18  C 
ATOM     16  N   PRO C 635      -1.815   3.254  86.392  1.00 71.31 LIG-0.34  N 
ATOM     17  CD  PRO C 635      -1.959   2.349  85.235  1.00 71.36 LIG 0.13  C 
ATOM     18  C   GLY C 634      -2.361   4.485  86.480  1.00 71.43 LIG 0.25  C 
ATOM     19  CG  PRO C 635      -1.687   0.996  85.815  1.00 71.49 LIG 0.02  C 
ATOM     20  CB  PRO C 635      -0.747   1.221  86.953  1.00 71.24 LIG 0.04  C 
ATOM     21 O    GLY C 634      -2.348   5.152  87.521  1.00 71.42 LIG-0.27  OA
BRANCH 18 22
ATOM     22  CA  GLY C 634      -3.022   5.040  85.230  1.00 71.52 LIG 0.47  C 
ATOM     23  N   GLY C 634      -2.724   6.489  85.019  1.00 71.59 LIG 0.61  N 
ENDBRANCH 18 22
ENDBRANCH 12 15
ENDBRANCH 10 11
BRANCH 10 24
ATOM     24  CB  THR C 636       1.050   6.976  88.300  1.00 71.07 LIG 0.15  C 
ATOM     25  CG2 THR C 636       0.781   7.124  86.796  1.00 70.82 LIG 0.04  C 
BRANCH 24 26
ATOM     26 OG1  THR C 636      -0.007   7.608  89.032  1.00 71.09 LIG-0.39  OA
ATOM     27 HG1  THR C 636      -0.465   8.081  88.511  1.00 71.09 LIG 0.21  HD
ENDBRANCH 24 26
ENDBRANCH 10 24
ENDBRANCH 8 10
ENDBRANCH 5 6
BRANCH 5 28
ATOM     28  CB  ILE C 637       0.828   2.798  92.717  1.00 71.49 LIG 0.01  C 
ATOM     29  CG2 ILE C 637      -0.023   3.145  93.959  1.00 71.22 LIG 0.01  C 
BRANCH 28 30
ATOM     30  CG1 ILE C 637      -0.052   2.242  91.581  1.00 71.24 LIG 0.00  C 
ATOM     31  CD1 ILE C 637       0.650   1.309  90.594  1.00 71.20 LIG 0.01  C 
ENDBRANCH 28 30
ENDBRANCH 5 28
ENDBRANCH 1 5
BRANCH 3 32
ATOM     32  CA  GLU C 638       4.732   4.869  94.351  1.00 72.93 LIG 0.18  C 
BRANCH 32 33
ATOM     33  CB  GLU C 638       5.543   6.016  93.728  1.00 72.95 LIG 0.04  C 
BRANCH 33 34
ATOM     34  CG  GLU C 638       4.704   7.028  92.930  1.00 74.36 LIG 0.12  C 
BRANCH 34 35
ATOM     35  CD  GLU C 638       4.110   8.134  93.792  1.00 76.05 LIG 0.17  C 
ATOM     36 OE2  GLU C 638       3.730   9.187  93.232  1.00 76.25 LIG-0.65  OA
ATOM     37 OE1  GLU C 638       4.035   7.957  95.028  1.00 76.85 LIG-0.65  OA
ENDBRANCH 34 35
ENDBRANCH 33 34
ENDBRANCH 32 33
BRANCH 32 38
ATOM     38  C   GLU C 638       4.600   5.082  95.866  1.00 72.91 LIG 0.24  C 
ATOM     39 O    GLU C 638       3.651   5.728  96.314  1.00 72.88 LIG-0.27  OA
ATOM     40  N   GLU C 639       5.545   4.561  96.650  1.00 73.09 LIG-0.35  N 
ATOM     41 H    GLU C 639       6.209   4.093  96.369  1.00 73.09 LIG 0.16  HD
BRANCH 40 42
ATOM     42  CA  GLU C 639       5.503   4.767  98.106  1.00 73.29 LIG 0.18  C 
BRANCH 42 43
ATOM     43  CB  GLU C 639       6.622   4.002  98.826  1.00 73.41 LIG 0.04  C 
BRANCH 43 44
ATOM     44  CG  GLU C 639       6.315   2.504  98.989  1.00 73.70 LIG 0.12  C 
BRANCH 44 45
ATOM     45  CD  GLU C 639       6.453   1.992 100.410  1.00 74.11 LIG 0.17  C 
ATOM     46 OE1  GLU C 639       7.442   1.293 100.721  1.00 74.46 LIG-0.65  OA
ATOM     47 OE2  GLU C 639       5.552   2.291 101.221  1.00 74.46 LIG-0.65  OA
ENDBRANCH 44 45
ENDBRANCH 43 44
ENDBRANCH 42 43
BRANCH 42 48
ATOM     48  C   GLU C 639       5.527   6.246  98.487  1.00 73.41 LIG 0.24  C 
ATOM     49  N   VAL C 640       6.045   7.082  97.586  1.00 73.52 LIG-0.35  N 
ATOM     50 H    VAL C 640       6.338   6.828  96.818  1.00 73.52 LIG 0.16  HD
ATOM     51 O    GLU C 639       5.085   6.614  99.576  1.00 73.53 LIG-0.27  OA
BRANCH 49 52
ATOM     52  CA  VAL C 640       6.166   8.521  97.823  1.00 73.62 LIG 0.17  C 
BRANCH 52 53
ATOM     53  C   VAL C 640       4.836   9.237  97.565  1.00 73.72 LIG 0.22  C 
ATOM     54 O    VAL C 640       4.747  10.466  97.645  1.00 73.67 LIG-0.29  OA
ENDBRANCH 52 53
BRANCH 52 55
ATOM     55  CB  VAL C 640       7.309   9.146  96.965  1.00 73.60 LIG 0.01  C 
ATOM     56  CG1 VAL C 640       8.580   8.299  97.023  1.00 73.34 LIG 0.01  C 
ATOM     57  CG2 VAL C 640       6.855   9.341  95.527  1.00 74.00 LIG 0.01  C 
ENDBRANCH 52 55
ENDBRANCH 49 52
ENDBRANCH 42 48
ENDBRANCH 40 42
ENDBRANCH 32 38
ENDBRANCH 3 32
TORSDOF 23
ENDMDL
MODEL 8
USER: ADFR SOLUTION from run 165
USER: SCORE 18.769254 LL:  -5.650 LR: -14.682 RR:   0.000 FEB:  -7.821
USER: RMSD 11.930635
USER: SEED 164
USER: STATUS no improvement in best in 2 clusters for 5 generations
USER: GENES 25
USER: genes 0 Translation |==|  0.43767 0.34018 0.43042
USER: genes 1 Rotation |==|  0.83270 0.77516 0.25298 0.55079
USER: genes 2 Torsion [N]-C--CA-[N] |==|  0.42926
USER: genes 3 Torsion [C]-CA--N-[C] |==|  0.61111
USER: genes 4 Torsion [N]-C--CA-[N] |==|  0.00987
USER: genes 5 Torsion [C]-CA--N-[C] |==|  0.75022
USER: genes 6 Torsion [N]-C--CA-[CB] |==|  0.04140
USER: genes 7 Torsion [N]-C--CA-[N] |==|  0.27263
USER: genes 8 Torsion [C]-CA--CB-[CG2] |==|  0.34800
USER: genes 9 Torsion [CA]-CB--OG1-[HG1] |==|  0.14503
USER: genes 10 Torsion [C]-CA--CB-[CG2] |==|  0.17693
USER: genes 11 Torsion [CA]-CB--CG1-[CD1] |==|  0.43196
USER: genes 12 Torsion [C]-N--CA-[CB] |==|  0.45392
USER: genes 13 Torsion [N]-CA--CB-[CG] |==|  0.16005
USER: genes 14 Torsion [CA]-CB--CG-[CD] |==|  0.48642
USER: genes 15 Torsion [CB]-CG--CD-[OE2] |==|  0.46640
USER: genes 16 Torsion [N]-CA--C-[N] |==|  0.29993
USER: genes 17 Torsion [C]-N--CA-[C] |==|  0.83953
USER: genes 18 Torsion [N]-CA--CB-[CG] |==|  0.24107
USER: genes 19 Torsion [CA]-CB--CG-[CD] |==|  0.56510
USER: genes 20 Torsion [CB]-CG--CD-[OE1] |==|  0.18578
USER: genes 21 Torsion [N]-CA--C-[N] |==|  0.92083
USER: genes 22 Torsion [C]-N--CA-[C] |==|  0.09544
USER: genes 23 Torsion [N]-CA--C-[O] |==|  0.62984
USER: genes 24 Torsion [N]-CA--CB-[CG1] |==|  0.79194
ROOT
ATOM      1  C   ILE C 637       1.311   3.382  89.632  1.00 71.80 LIG 0.24  C 
ATOM      2 O    ILE C 637       1.360   4.535  89.200  1.00 71.76 LIG-0.27  OA
ATOM      3  N   GLU C 638       1.017   2.326  88.874  1.00 72.25 LIG-0.35  N 
ATOM      4 H    GLU C 638       0.993   1.523  89.182  1.00 72.25 LIG 0.16  HD
ENDROOT
BRANCH 1 5
ATOM      5  CA  ILE C 637       1.602   3.084  91.108  1.00 71.40 LIG 0.18  C 
BRANCH 5 6
ATOM      6  N   ILE C 637       2.461   4.116  91.696  1.00 71.04 LIG-0.35  N 
ATOM      7 H    ILE C 637       2.277   4.918  91.447  1.00 71.04 LIG 0.16  HD
ATOM      8  C   THR C 636       3.441   3.804  92.545  1.00 70.97 LIG 0.24  C 
ATOM      9 O    THR C 636       3.655   2.650  92.928  1.00 70.72 LIG-0.27  OA
BRANCH 8 10
ATOM     10  CA  THR C 636       4.307   4.959  93.058  1.00 71.02 LIG 0.20  C 
BRANCH 10 11
ATOM     11  N   THR C 636       3.779   6.229  92.529  1.00 70.97 LIG-0.34  N 
ATOM     12  C   PRO C 635       4.174   6.763  91.371  1.00 71.03 LIG 0.24  C 
ATOM     13 O    PRO C 635       5.118   6.326  90.703  1.00 70.76 LIG-0.27  OA
ATOM     14 H    THR C 636       3.190   6.595  93.038  1.00 70.97 LIG 0.16  HD
BRANCH 12 15
ATOM     15  CA  PRO C 635       3.391   7.995  90.888  1.00 71.21 LIG 0.18  C 
ATOM     16  N   PRO C 635       2.389   7.698  89.847  1.00 71.31 LIG-0.34  N 
ATOM     17  CD  PRO C 635       1.026   8.073  90.270  1.00 71.36 LIG 0.13  C 
ATOM     18  C   GLY C 634       2.716   7.235  88.622  1.00 71.43 LIG 0.25  C 
ATOM     19  CG  PRO C 635       1.262   9.000  91.422  1.00 71.49 LIG 0.02  C 
ATOM     20  CB  PRO C 635       2.548   8.563  92.042  1.00 71.24 LIG 0.04  C 
ATOM     21 O    GLY C 634       3.885   7.075  88.255  1.00 71.42 LIG-0.27  OA
BRANCH 18 22
ATOM     22  CA  GLY C 634       1.571   6.916  87.675  1.00 71.52 LIG 0.47  C 
ATOM     23  N   GLY C 634       1.303   8.021  86.706  1.00 71.59 LIG 0.61  N 
ENDBRANCH 18 22
ENDBRANCH 12 15
ENDBRANCH 10 11
BRANCH 10 24
ATOM     24  CB  THR C 636       4.323   4.933  94.621  1.00 71.07 LIG 0.15  C 
ATOM     25  CG2 THR C 636       5.755   4.893  95.170  1.00 70.82 LIG 0.04  C 
BRANCH 24 26
ATOM     26 OG1  THR C 636       3.651   6.088  95.140  1.00 71.09 LIG-0.39  OA
ATOM     27 HG1  THR C 636       2.891   6.150  94.790  1.00 71.09 LIG 0.21  HD
ENDBRANCH 24 26
ENDBRANCH 10 24
ENDBRANCH 8 10
ENDBRANCH 5 6
BRANCH 5 28
ATOM     28  CB  ILE C 637       0.272   2.878  91.912  1.00 71.49 LIG 0.01  C 
ATOM     29  CG2 ILE C 637      -0.492   1.639  91.394  1.00 71.22 LIG 0.01  C 
BRANCH 28 30
ATOM     30  CG1 ILE C 637       0.552   2.764  93.423  1.00 71.24 LIG 0.00  C 
ATOM     31  CD1 ILE C 637      -0.608   3.139  94.344  1.00 71.20 LIG 0.01  C 
ENDBRANCH 28 30
ENDBRANCH 5 28
ENDBRANCH 1 5
BRANCH 3 32
ATOM     32  CA  GLU C 638       0.705   2.409  87.442  1.00 72.93 LIG 0.18  C 
BRANCH 32 33
ATOM     33  CB  GLU C 638       0.821   1.024  86.785  1.00 72.95 LIG 0.04  C 
BRANCH 33 34
ATOM     34  CG  GLU C 638      -0.081  -0.053  87.412  1.00 74.36 LIG 0.12  C 
BRANCH 34 35
ATOM     35  CD  GLU C 638      -0.038  -1.383  86.673  1.00 76.05 LIG 0.17  C 
ATOM     36 OE2  GLU C 638      -0.547  -2.386  87.221  1.00 76.25 LIG-0.65  OA
ATOM     37 OE1  GLU C 638       0.514  -1.430  85.552  1.00 76.85 LIG-0.65  OA
ENDBRANCH 34 35
ENDBRANCH 33 34
ENDBRANCH 32 33
BRANCH 32 38
ATOM     38  C   GLU C 638      -0.713   2.964  87.250  1.00 72.91 LIG 0.24  C 
ATOM     39 O    GLU C 638      -1.689   2.260  87.514  1.00 72.88 LIG-0.27  OA
ATOM     40  N   GLU C 639      -0.835   4.208  86.781  1.00 73.09 LIG-0.35  N 
ATOM     41 H    GLU C 639      -0.174   4.729  86.603  1.00 73.09 LIG 0.16  HD
BRANCH 40 42
ATOM     42  CA  GLU C 639      -2.165   4.784  86.531  1.00 73.29 LIG 0.18  C 
BRANCH 42 43
ATOM     43  CB  GLU C 639      -2.079   6.245  86.071  1.00 73.41 LIG 0.04  C 
BRANCH 43 44
ATOM     44  CG  GLU C 639      -1.898   6.384  84.549  1.00 73.70 LIG 0.12  C 
BRANCH 44 45
ATOM     45  CD  GLU C 639      -1.265   7.692  84.115  1.00 74.11 LIG 0.17  C 
ATOM     46 OE1  GLU C 639      -0.074   7.931  84.416  1.00 74.46 LIG-0.65  OA
ATOM     47 OE2  GLU C 639      -1.974   8.492  83.470  1.00 74.46 LIG-0.65  OA
ENDBRANCH 44 45
ENDBRANCH 43 44
ENDBRANCH 42 43
BRANCH 42 48
ATOM     48  C   GLU C 639      -2.985   3.954  85.546  1.00 73.41 LIG 0.24  C 
ATOM     49  N   VAL C 640      -2.295   3.254  84.644  1.00 73.52 LIG-0.35  N 
ATOM     50 H    VAL C 640      -1.436   3.240  84.611  1.00 73.52 LIG 0.16  HD
ATOM     51 O    GLU C 639      -4.214   3.952  85.607  1.00 73.53 LIG-0.27  OA
BRANCH 49 52
ATOM     52  CA  VAL C 640      -2.943   2.439  83.615  1.00 73.62 LIG 0.17  C 
BRANCH 52 53
ATOM     53  C   VAL C 640      -4.254   3.080  83.145  1.00 73.72 LIG 0.22  C 
ATOM     54 O    VAL C 640      -5.286   2.412  83.036  1.00 73.67 LIG-0.29  OA
ENDBRANCH 52 53
BRANCH 52 55
ATOM     55  CB  VAL C 640      -3.184   0.980  84.111  1.00 73.60 LIG 0.01  C 
ATOM     56  CG1 VAL C 640      -1.886   0.174  84.131  1.00 73.34 LIG 0.01  C 
ATOM     57  CG2 VAL C 640      -3.840   0.981  85.482  1.00 74.00 LIG 0.01  C 
ENDBRANCH 52 55
ENDBRANCH 49 52
ENDBRANCH 42 48
ENDBRANCH 40 42
ENDBRANCH 32 38
ENDBRANCH 3 32
TORSDOF 23
ENDMDL
MODEL 9
USER: ADFR SOLUTION from run 24
USER: SCORE 17.964816 LL:  -4.787 LR: -14.672 RR:   0.000 FEB:  -7.811
USER: RMSD 2.906978
USER: SEED 23
USER: STATUS 1 or 2 clusters left
USER: GENES 25
USER: genes 0 Translation |==|  0.55416 0.41076 0.52536
USER: genes 1 Rotation |==|  0.46747 0.51166 0.45706 0.99695
USER: genes 2 Torsion [N]-C--CA-[N] |==|  0.38200
USER: genes 3 Torsion [C]-CA--N-[C] |==|  0.65490
USER: genes 4 Torsion [N]-C--CA-[N] |==|  0.21251
USER: genes 5 Torsion [C]-CA--N-[C] |==|  0.75149
USER: genes 6 Torsion [N]-C--CA-[CB] |==|  0.84019
USER: genes 7 Torsion [N]-C--CA-[N] |==|  0.63955
USER: genes 8 Torsion [C]-CA--CB-[CG2] |==|  0.32655
USER: genes 9 Torsion [CA]-CB--OG1-[HG1] |==|  0.30744
USER: genes 10 Torsion [C]-CA--CB-[CG2] |==|  0.26168
USER: genes 11 Torsion [CA]-CB--CG1-[CD1] |==|  0.26522
USER: genes 12 Torsion [C]-N--CA-[CB] |==|  0.27058
USER: genes 13 Torsion [N]-CA--CB-[CG] |==|  0.29991
USER: genes 14 Torsion [CA]-CB--CG-[CD] |==|  0.73882
USER: genes 15 Torsion [CB]-CG--CD-[OE2] |==|  0.00421
USER: genes 16 Torsion [N]-CA--C-[N] |==|  0.40001
USER: genes 17 Torsion [C]-N--CA-[C] |==|  0.83079
USER: genes 18 Torsion [N]-CA--CB-[CG] |==|  0.47024
USER: genes 19 Torsion [CA]-CB--CG-[CD] |==|  0.33240
USER: genes 20 Torsion [CB]-CG--CD-[OE1] |==|  0.68334
USER: genes 21 Torsion [N]-CA--C-[N] |==|  0.40895
USER: genes 22 Torsion [C]-N--CA-[C] |==|  0.60087
USER: genes 23 Torsion [N]-CA--C-[O] |==|  0.93699
USER: genes 24 Torsion [N]-CA--CB-[CG1] |==|  0.76995
ROOT
ATOM      1  C   ILE C 637       3.582   4.600  92.480  1.00 71.80 LIG 0.24  C 
ATOM      2 O    ILE C 637       4.551   4.132  91.879  1.00 71.76 LIG-0.27  OA
ATOM      3  N   GLU C 638       3.675   5.215  93.658  1.00 72.25 LIG-0.35  N 
ATOM      4 H    GLU C 638       2.994   5.546  94.066  1.00 72.25 LIG 0.16  HD
ENDROOT
BRANCH 1 5
ATOM      5  CA  ILE C 637       2.172   4.506  91.885  1.00 71.40 LIG 0.18  C 
BRANCH 5 6
ATOM      6  N   ILE C 637       2.183   4.791  90.447  1.00 71.04 LIG-0.35  N 
ATOM      7 H    ILE C 637       2.716   4.296  89.989  1.00 71.04 LIG 0.16  HD
ATOM      8  C   THR C 636       1.418   5.749  89.923  1.00 70.97 LIG 0.24  C 
ATOM      9 O    THR C 636       0.623   6.416  90.592  1.00 70.72 LIG-0.27  OA
BRANCH 8 10
ATOM     10  CA  THR C 636       1.551   5.993  88.416  1.00 71.02 LIG 0.20  C 
BRANCH 10 11
ATOM     11  N   THR C 636       0.839   4.928  87.690  1.00 70.97 LIG-0.34  N 
ATOM     12  C   PRO C 635       1.413   3.781  87.320  1.00 71.03 LIG 0.24  C 
ATOM     13 O    PRO C 635       2.625   3.560  87.420  1.00 70.76 LIG-0.27  OA
ATOM     14 H    THR C 636       0.015   5.114  87.527  1.00 70.97 LIG 0.16  HD
BRANCH 12 15
ATOM     15  CA  PRO C 635       0.478   2.710  86.734  1.00 71.21 LIG 0.18  C 
ATOM     16  N   PRO C 635       1.131   1.410  86.493  1.00 71.31 LIG-0.34  N 
ATOM     17  CD  PRO C 635       0.487   0.320  87.251  1.00 71.36 LIG 0.13  C 
ATOM     18  C   GLY C 634       2.132   1.242  85.603  1.00 71.43 LIG 0.25  C 
ATOM     19  CG  PRO C 635      -0.842   0.898  87.631  1.00 71.49 LIG 0.02  C 
ATOM     20  CB  PRO C 635      -0.628   2.371  87.747  1.00 71.24 LIG 0.04  C 
ATOM     21 O    GLY C 634       2.544   2.154  84.877  1.00 71.42 LIG-0.27  OA
BRANCH 18 22
ATOM     22  CA  GLY C 634       2.750  -0.143  85.509  1.00 71.52 LIG 0.47  C 
ATOM     23  N   GLY C 634       4.241  -0.112  85.592  1.00 71.59 LIG 0.61  N 
ENDBRANCH 18 22
ENDBRANCH 12 15
ENDBRANCH 10 11
BRANCH 10 24
ATOM     24  CB  THR C 636       0.991   7.414  88.076  1.00 71.07 LIG 0.15  C 
ATOM     25  CG2 THR C 636       2.081   8.326  87.498  1.00 70.82 LIG 0.04  C 
BRANCH 24 26
ATOM     26 OG1  THR C 636      -0.084   7.307  87.134  1.00 71.09 LIG-0.39  OA
ATOM     27 HG1  THR C 636      -0.807   7.507  87.510  1.00 71.09 LIG 0.21  HD
ENDBRANCH 24 26
ENDBRANCH 10 24
ENDBRANCH 8 10
ENDBRANCH 5 6
BRANCH 5 28
ATOM     28  CB  ILE C 637       1.513   3.122  92.218  1.00 71.49 LIG 0.01  C 
ATOM     29  CG2 ILE C 637       0.648   3.223  93.495  1.00 71.22 LIG 0.01  C 
BRANCH 28 30
ATOM     30  CG1 ILE C 637       0.684   2.604  91.027  1.00 71.24 LIG 0.00  C 
ATOM     31  CD1 ILE C 637       1.400   1.629  90.093  1.00 71.20 LIG 0.01  C 
ENDBRANCH 28 30
ENDBRANCH 5 28
ENDBRANCH 1 5
BRANCH 3 32
ATOM     32  CA  GLU C 638       4.936   5.399  94.386  1.00 72.93 LIG 0.18  C 
BRANCH 32 33
ATOM     33  CB  GLU C 638       5.510   6.801  94.121  1.00 72.95 LIG 0.04  C 
BRANCH 33 34
ATOM     34  CG  GLU C 638       5.409   7.765  95.316  1.00 74.36 LIG 0.12  C 
BRANCH 34 35
ATOM     35  CD  GLU C 638       4.165   8.641  95.283  1.00 76.05 LIG 0.17  C 
ATOM     36 OE2  GLU C 638       3.352   8.487  94.344  1.00 76.25 LIG-0.65  OA
ATOM     37 OE1  GLU C 638       4.005   9.491  96.186  1.00 76.85 LIG-0.65  OA
ENDBRANCH 34 35
ENDBRANCH 33 34
ENDBRANCH 32 33
BRANCH 32 38
ATOM     38  C   GLU C 638       4.701   5.205  95.890  1.00 72.91 LIG 0.24  C 
ATOM     39 O    GLU C 638       3.651   5.596  96.404  1.00 72.88 LIG-0.27  OA
ATOM     40  N   GLU C 639       5.668   4.620  96.599  1.00 73.09 LIG-0.35  N 
ATOM     41 H    GLU C 639       6.404   4.321  96.268  1.00 73.09 LIG 0.16  HD
BRANCH 40 42
ATOM     42  CA  GLU C 639       5.526   4.443  98.053  1.00 73.29 LIG 0.18  C 
BRANCH 42 43
ATOM     43  CB  GLU C 639       6.675   3.615  98.644  1.00 73.41 LIG 0.04  C 
BRANCH 43 44
ATOM     44  CG  GLU C 639       6.697   3.635 100.183  1.00 73.70 LIG 0.12  C 
BRANCH 44 45
ATOM     45  CD  GLU C 639       6.547   2.268 100.823  1.00 74.11 LIG 0.17  C 
ATOM     46 OE1  GLU C 639       5.526   2.011 101.498  1.00 74.46 LIG-0.65  OA
ATOM     47 OE2  GLU C 639       7.472   1.446 100.652  1.00 74.46 LIG-0.65  OA
ENDBRANCH 44 45
ENDBRANCH 43 44
ENDBRANCH 42 43
BRANCH 42 48
ATOM     48  C   GLU C 639       5.382   5.772  98.790  1.00 73.41 LIG 0.24  C 
ATOM     49  N   VAL C 640       4.617   5.764  99.883  1.00 73.52 LIG-0.35  N 
ATOM     50 H    VAL C 640       4.233   5.057 100.187  1.00 73.52 LIG 0.16  HD
ATOM     51 O    GLU C 639       5.953   6.780  98.372  1.00 73.53 LIG-0.27  OA
BRANCH 49 52
ATOM     52  CA  VAL C 640       4.359   6.967 100.675  1.00 73.62 LIG 0.17  C 
BRANCH 52 53
ATOM     53  C   VAL C 640       4.288   6.640 102.171  1.00 73.72 LIG 0.22  C 
ATOM     54 O    VAL C 640       4.025   5.500 102.563  1.00 73.67 LIG-0.29  OA
ENDBRANCH 52 53
BRANCH 52 55
ATOM     55  CB  VAL C 640       3.062   7.693 100.203  1.00 73.60 LIG 0.01  C 
ATOM     56  CG1 VAL C 640       3.331   8.593  98.997  1.00 73.34 LIG 0.01  C 
ATOM     57  CG2 VAL C 640       1.967   6.686  99.892  1.00 74.00 LIG 0.01  C 
ENDBRANCH 52 55
ENDBRANCH 49 52
ENDBRANCH 42 48
ENDBRANCH 40 42
ENDBRANCH 32 38
ENDBRANCH 3 32
TORSDOF 23
ENDMDL
