MODEL 1
USER: ADFR SOLUTION from run 86
USER: SCORE 18.151882 LL:  -3.538 LR: -16.119 RR:   0.000 FEB:  -9.557
USER: RMSD 11.015465
USER: SEED 85
USER: STATUS no improvement in best in 3 clusters for 5 generations
USER: GENES 24
USER: genes 0 Translation |==|  0.48342 0.50233 0.63435
USER: genes 1 Rotation |==|  0.97368 0.53939 0.63148 0.58241
USER: genes 2 Torsion [C]-N--CA-[C] |==|  0.77559
USER: genes 3 Torsion [N]-CA--C-[N] |==|  0.49078
USER: genes 4 Torsion [C]-N--CA-[C] |==|  0.27005
USER: genes 5 Torsion [N]-CA--C-[N] |==|  0.43192
USER: genes 6 Torsion [C]-N--CA-[CB] |==|  0.49222
USER: genes 7 Torsion [N]-CA--C-[OXT] |==|  0.52653
USER: genes 8 Torsion [N]-CA--CB-[CG] |==|  0.21282
USER: genes 9 Torsion [CA]-CB--CG-[CD1] |==|  0.30618
USER: genes 10 Torsion [N]-CA--CB-[OG] |==|  0.34795
USER: genes 11 Torsion [CA]-CB--OG-[HG] |==|  0.84324
USER: genes 12 Torsion [N]-CA--CB-[CG] |==|  0.73989
USER: genes 13 Torsion [CA]-CB--CG-[CD] |==|  0.21849
USER: genes 14 Torsion [CB]-CG--CD-[OE2] |==|  0.03217
USER: genes 15 Torsion [N]-C--CA-[N] |==|  0.22295
USER: genes 16 Torsion [C]-CA--N-[C] |==|  0.75618
USER: genes 17 Torsion [N]-C--CA-[N] |==|  0.38603
USER: genes 18 Torsion [C]-CA--CB-[CG2] |==|  0.19324
USER: genes 19 Torsion [CA]-CB--CG1-[CD1] |==|  0.41803
USER: genes 20 Torsion [C]-CA--N-[C] |==|  0.84252
USER: genes 21 Torsion [C]-CA--CB-[CG] |==|  0.39195
USER: genes 22 Torsion [CA]-CB--CG-[CD2] |==|  0.10835
USER: genes 23 Torsion [CE2]-CZ--OH-[HH] |==|  0.35199
ROOT
ATOM      1  C   TYR B   2      20.984  13.873  40.073  1.00 34.05 LIG 0.24  C 
ATOM      2 O    TYR B   2      22.076  14.205  40.529  1.00 39.10 LIG-0.27  OA
ATOM      3  N   GLU B   3      20.512  14.239  38.891  1.00 35.19 LIG-0.35  N 
ATOM      4 H    GLU B   3      19.768  13.944  38.575  1.00 35.19 LIG 0.16  HD
ENDROOT
BRANCH 3 5
ATOM      5  CA  GLU B   3      21.192  15.180  37.991  1.00 40.21 LIG 0.18  C 
BRANCH 5 6
ATOM      6  C   GLU B   3      20.898  16.584  38.457  1.00 33.75 LIG 0.24  C 
ATOM      7 O    GLU B   3      20.145  16.756  39.404  1.00 31.69 LIG-0.27  OA
ATOM      8  N   SER B   4      21.481  17.612  37.812  1.00 29.90 LIG-0.34  N 
ATOM      9 H    SER B   4      22.089  17.526  37.209  1.00 29.90 LIG 0.16  HD
BRANCH 8 10
ATOM     10  CA  SER B   4      21.103  18.989  38.109  1.00 28.06 LIG 0.20  C 
BRANCH 10 11
ATOM     11  C   SER B   4      22.118  19.568  39.104  1.00 33.99 LIG 0.24  C 
ATOM     12  N   LEU B   5      22.246  20.886  39.103  1.00 32.03 LIG-0.34  N 
ATOM     13 H    LEU B   5      21.723  21.407  38.663  1.00 32.03 LIG 0.16  HD
ATOM     14 O    SER B   4      22.783  18.815  39.834  1.00 35.03 LIG-0.27  OA
BRANCH 12 15
ATOM     15  CA  LEU B   5      23.298  21.605  39.857  1.00 33.34 LIG 0.18  C 
BRANCH 15 16
ATOM     16  C   LEU B   5      23.195  21.390  41.360  1.00 39.47 LIG 0.20  C 
ATOM     17 O    LEU B   5      22.354  20.587  41.801  1.00 29.87 LIG-0.65  OA
ATOM     18 OXT  LEU B   5      23.895  22.066  42.167  1.00 38.97 LIG-0.65  OA
ENDBRANCH 15 16
BRANCH 15 19
ATOM     19  CB  LEU B   5      23.214  23.103  39.592  1.00 34.52 LIG 0.04  C 
BRANCH 19 20
ATOM     20  CG  LEU B   5      22.107  23.854  40.306  1.00 35.74 LIG-0.02  C 
ATOM     21  CD1 LEU B   5      22.724  24.764  41.378  1.00 34.91 LIG 0.01  C 
ATOM     22  CD2 LEU B   5      21.282  24.644  39.301  1.00 32.02 LIG 0.01  C 
ENDBRANCH 19 20
ENDBRANCH 15 19
ENDBRANCH 12 15
ENDBRANCH 10 11
BRANCH 10 23
ATOM     23  CB  SER B   4      19.684  19.090  38.693  1.00 31.79 LIG 0.20  C 
BRANCH 23 24
ATOM     24 OG   SER B   4      19.707  19.779  39.930  1.00 32.94 LIG-0.40  OA
ATOM     25 HG   SER B   4      20.235  19.392  40.456  1.00 32.94 LIG 0.21  HD
ENDBRANCH 23 24
ENDBRANCH 10 23
ENDBRANCH 8 10
ENDBRANCH 5 6
BRANCH 5 26
ATOM     26  CB  GLU B   3      20.642  15.032  36.576  1.00 42.52 LIG 0.04  C 
BRANCH 26 27
ATOM     27  CG  GLU B   3      21.460  14.066  35.718  1.00 61.90 LIG 0.12  C 
BRANCH 27 28
ATOM     28  CD  GLU B   3      21.147  12.625  36.024  1.00 67.28 LIG 0.17  C 
ATOM     29 OE1  GLU B   3      21.892  11.744  35.532  1.00 80.18 LIG-0.65  OA
ATOM     30 OE2  GLU B   3      20.145  12.378  36.737  1.00 64.56 LIG-0.65  OA
ENDBRANCH 27 28
ENDBRANCH 26 27
ENDBRANCH 5 26
ENDBRANCH 3 5
BRANCH 1 31
ATOM     31  CA  TYR B   2      20.083  12.949  40.879  1.00 27.59 LIG 0.18  C 
BRANCH 31 32
ATOM     32  N   TYR B   2      20.221  11.576  40.404  1.00 28.42 LIG-0.35  N 
ATOM     33 H    TYR B   2      20.814  11.112  40.820  1.00 28.42 LIG 0.16  HD
ATOM     34  C   ILE B   1      19.481  11.115  39.413  1.00 34.57 LIG 0.24  C 
ATOM     35 O    ILE B   1      18.648  11.813  38.799  1.00 35.77 LIG-0.27  OA
BRANCH 34 36
ATOM     36  CA  ILE B   1      19.669   9.659  39.074  1.00 36.91 LIG 0.18  C 
BRANCH 36 37
ATOM     37  CB  ILE B   1      20.538   9.588  37.823  1.00 38.00 LIG 0.01  C 
ATOM     38  CG2 ILE B   1      21.975  10.031  38.154  1.00 37.47 LIG 0.01  C 
BRANCH 37 39
ATOM     39  CG1 ILE B   1      20.520   8.158  37.279  1.00 43.59 LIG 0.00  C 
ATOM     40  CD1 ILE B   1      20.702   8.068  35.785  1.00 39.71 LIG 0.01  C 
ENDBRANCH 37 39
ENDBRANCH 36 37
BRANCH 36 41
ATOM     41  N   ILE B   1      18.382   8.958  38.777  1.00 36.86 LIG-0.35  N 
ATOM     42 H    ILE B   1      18.367   8.585  38.002  1.00 36.86 LIG 0.16  HD
ATOM     43  C   ACE B   0      17.333   8.907  39.643  1.00 40.91 LIG 0.21  C 
ATOM     44 O    ACE B   0      17.355   9.436  40.742  1.00 40.13 LIG-0.27  OA
ATOM     45  CH3 ACE B   0      16.091   8.166  39.181  1.00 36.31 LIG 0.12  C 
ENDBRANCH 36 41
ENDBRANCH 34 36
ENDBRANCH 31 32
BRANCH 31 46
ATOM     46  CB  TYR B   2      20.426  13.043  42.348  1.00 30.42 LIG 0.07  C 
BRANCH 46 47
ATOM     47  CG  TYR B   2      19.219  13.006  43.295  1.00 30.81 LIG-0.06  A 
ATOM     48  CD2 TYR B   2      18.122  12.173  43.067  1.00 30.26 LIG 0.01  A 
ATOM     49  CE2 TYR B   2      17.017  12.179  43.957  1.00 27.61 LIG 0.04  A 
ATOM     50  CZ  TYR B   2      17.057  13.006  45.069  1.00 28.62 LIG 0.07  A 
ATOM     51  CE1 TYR B   2      18.133  13.822  45.295  1.00 33.56 LIG 0.04  A 
ATOM     52  CD1 TYR B   2      19.201  13.813  44.409  1.00 35.64 LIG 0.01  A 
BRANCH 50 53
ATOM     53 OH   TYR B   2      16.014  13.083  45.979  1.00 30.95 LIG-0.36  OA
ATOM     54 HH   TYR B   2      16.308  12.948  46.754  1.00 30.95 LIG 0.22  HD
ENDBRANCH 50 53
ENDBRANCH 46 47
ENDBRANCH 31 46
ENDBRANCH 1 31
TORSDOF 22
ENDMDL
MODEL 2
USER: ADFR SOLUTION from run 172
USER: SCORE 19.777106 LL:  -4.141 LR: -15.995 RR:   0.000 FEB:  -9.432
USER: RMSD 1.610440
USER: SEED 171
USER: STATUS no improvement in best in 1 clusters for 5 generations
USER: GENES 24
USER: genes 0 Translation |==|  0.50954 0.52253 0.52874
USER: genes 1 Rotation |==|  0.51262 0.50020 0.48612 0.99965
USER: genes 2 Torsion [C]-N--CA-[C] |==|  0.66875
USER: genes 3 Torsion [N]-CA--C-[N] |==|  0.39709
USER: genes 4 Torsion [C]-N--CA-[C] |==|  0.75733
USER: genes 5 Torsion [N]-CA--C-[N] |==|  0.33465
USER: genes 6 Torsion [C]-N--CA-[CB] |==|  0.20168
USER: genes 7 Torsion [N]-CA--C-[OXT] |==|  0.04645
USER: genes 8 Torsion [N]-CA--CB-[CG] |==|  0.16837
USER: genes 9 Torsion [CA]-CB--CG-[CD1] |==|  0.31146
USER: genes 10 Torsion [N]-CA--CB-[OG] |==|  0.60036
USER: genes 11 Torsion [CA]-CB--OG-[HG] |==|  0.33611
USER: genes 12 Torsion [N]-CA--CB-[CG] |==|  0.64553
USER: genes 13 Torsion [CA]-CB--CG-[CD] |==|  0.28725
USER: genes 14 Torsion [CB]-CG--CD-[OE2] |==|  0.28189
USER: genes 15 Torsion [N]-C--CA-[N] |==|  0.34398
USER: genes 16 Torsion [C]-CA--N-[C] |==|  0.76672
USER: genes 17 Torsion [N]-C--CA-[N] |==|  0.93499
USER: genes 18 Torsion [C]-CA--CB-[CG2] |==|  0.17028
USER: genes 19 Torsion [CA]-CB--CG1-[CD1] |==|  0.87068
USER: genes 20 Torsion [C]-CA--N-[C] |==|  0.80622
USER: genes 21 Torsion [C]-CA--CB-[CG] |==|  0.45089
USER: genes 22 Torsion [CA]-CB--CG-[CD2] |==|  0.71032
USER: genes 23 Torsion [CE2]-CZ--OH-[HH] |==|  0.94112
ROOT
ATOM      1  C   TYR B   2      21.435  14.372  37.856  1.00 34.05 LIG 0.24  C 
ATOM      2 O    TYR B   2      22.649  14.218  37.963  1.00 39.10 LIG-0.27  OA
ATOM      3  N   GLU B   3      20.519  13.602  38.425  1.00 35.19 LIG-0.35  N 
ATOM      4 H    GLU B   3      19.677  13.769  38.378  1.00 35.19 LIG 0.16  HD
ENDROOT
BRANCH 3 5
ATOM      5  CA  GLU B   3      20.829  12.389  39.193  1.00 40.21 LIG 0.18  C 
BRANCH 5 6
ATOM      6  C   GLU B   3      20.170  11.213  38.515  1.00 33.75 LIG 0.24  C 
ATOM      7 O    GLU B   3      19.071  11.356  38.003  1.00 31.69 LIG-0.27  OA
ATOM      8  N   SER B   4      20.822  10.036  38.493  1.00 29.90 LIG-0.34  N 
ATOM      9 H    SER B   4      21.634   9.924  38.756  1.00 29.90 LIG 0.16  HD
BRANCH 8 10
ATOM     10  CA  SER B   4      20.164   8.829  38.004  1.00 28.06 LIG 0.20  C 
BRANCH 10 11
ATOM     11  C   SER B   4      19.416   8.176  39.174  1.00 33.99 LIG 0.24  C 
ATOM     12  N   LEU B   5      18.107   8.037  39.022  1.00 32.03 LIG-0.34  N 
ATOM     13 H    LEU B   5      17.703   8.192  38.279  1.00 32.03 LIG 0.16  HD
ATOM     14 O    SER B   4      20.027   7.834  40.200  1.00 35.03 LIG-0.27  OA
BRANCH 12 15
ATOM     15  CA  LEU B   5      17.201   7.601  40.108  1.00 33.34 LIG 0.18  C 
BRANCH 15 16
ATOM     16  C   LEU B   5      15.820   7.213  39.601  1.00 39.47 LIG 0.20  C 
ATOM     17 O    LEU B   5      14.895   7.061  40.418  1.00 29.87 LIG-0.65  OA
ATOM     18 OXT  LEU B   5      15.616   6.973  38.377  1.00 38.97 LIG-0.65  OA
ENDBRANCH 15 16
BRANCH 15 19
ATOM     19  CB  LEU B   5      17.026   8.713  41.134  1.00 34.52 LIG 0.04  C 
BRANCH 19 20
ATOM     20  CG  LEU B   5      16.429  10.011  40.628  1.00 35.74 LIG-0.02  C 
ATOM     21  CD1 LEU B   5      15.036  10.201  41.246  1.00 34.91 LIG 0.01  C 
ATOM     22  CD2 LEU B   5      17.355  11.173  40.956  1.00 32.02 LIG 0.01  C 
ENDBRANCH 19 20
ENDBRANCH 15 19
ENDBRANCH 12 15
ENDBRANCH 10 11
BRANCH 10 23
ATOM     23  CB  SER B   4      21.160   7.828  37.398  1.00 31.79 LIG 0.20  C 
BRANCH 23 24
ATOM     24 OG   SER B   4      20.583   7.168  36.286  1.00 32.94 LIG-0.40  OA
ATOM     25 HG   SER B   4      21.050   7.310  35.602  1.00 32.94 LIG 0.21  HD
ENDBRANCH 23 24
ENDBRANCH 10 23
ENDBRANCH 8 10
ENDBRANCH 5 6
BRANCH 5 26
ATOM     26  CB  GLU B   3      20.247  12.505  40.599  1.00 42.52 LIG 0.04  C 
BRANCH 26 27
ATOM     27  CG  GLU B   3      21.280  12.239  41.693  1.00 61.90 LIG 0.12  C 
BRANCH 27 28
ATOM     28  CD  GLU B   3      21.757  13.508  42.350  1.00 67.28 LIG 0.17  C 
ATOM     29 OE1  GLU B   3      22.624  14.190  41.753  1.00 80.18 LIG-0.65  OA
ATOM     30 OE2  GLU B   3      21.279  13.806  43.471  1.00 64.56 LIG-0.65  OA
ENDBRANCH 27 28
ENDBRANCH 26 27
ENDBRANCH 5 26
ENDBRANCH 3 5
BRANCH 1 31
ATOM     31  CA  TYR B   2      20.894  15.538  37.040  1.00 27.59 LIG 0.18  C 
BRANCH 31 32
ATOM     32  N   TYR B   2      21.451  16.793  37.532  1.00 28.42 LIG-0.35  N 
ATOM     33 H    TYR B   2      22.141  17.071  37.100  1.00 28.42 LIG 0.16  HD
ATOM     34  C   ILE B   1      20.916  17.426  38.559  1.00 34.57 LIG 0.24  C 
ATOM     35 O    ILE B   1      19.934  16.991  39.195  1.00 35.77 LIG-0.27  OA
BRANCH 34 36
ATOM     36  CA  ILE B   1      21.542  18.750  38.915  1.00 36.91 LIG 0.18  C 
BRANCH 36 37
ATOM     37  CB  ILE B   1      20.723  19.842  38.234  1.00 38.00 LIG 0.01  C 
ATOM     38  CG2 ILE B   1      19.274  19.814  38.752  1.00 37.47 LIG 0.01  C 
BRANCH 37 39
ATOM     39  CG1 ILE B   1      21.374  21.200  38.506  1.00 43.59 LIG 0.00  C 
ATOM     40  CD1 ILE B   1      21.758  21.418  39.947  1.00 39.71 LIG 0.01  C 
ENDBRANCH 37 39
ENDBRANCH 36 37
BRANCH 36 41
ATOM     41  N   ILE B   1      22.955  18.874  38.442  1.00 36.86 LIG-0.35  N 
ATOM     42 H    ILE B   1      23.051  19.439  37.800  1.00 36.86 LIG 0.16  HD
ATOM     43  C   ACE B   0      23.993  18.167  38.968  1.00 40.91 LIG 0.21  C 
ATOM     44 O    ACE B   0      23.854  17.366  39.876  1.00 40.13 LIG-0.27  OA
ATOM     45  CH3 ACE B   0      25.365  18.400  38.361  1.00 36.31 LIG 0.12  C 
ENDBRANCH 36 41
ENDBRANCH 34 36
ENDBRANCH 31 32
BRANCH 31 46
ATOM     46  CB  TYR B   2      21.223  15.343  35.578  1.00 30.42 LIG 0.07  C 
BRANCH 46 47
ATOM     47  CG  TYR B   2      20.391  16.197  34.611  1.00 30.81 LIG-0.06  A 
ATOM     48  CD2 TYR B   2      19.351  15.659  33.853  1.00 30.26 LIG 0.01  A 
ATOM     49  CE2 TYR B   2      18.614  16.478  32.958  1.00 27.61 LIG 0.04  A 
ATOM     50  CZ  TYR B   2      18.930  17.825  32.869  1.00 28.62 LIG 0.07  A 
ATOM     51  CE1 TYR B   2      19.949  18.354  33.614  1.00 33.56 LIG 0.04  A 
ATOM     52  CD1 TYR B   2      20.667  17.538  34.477  1.00 35.64 LIG 0.01  A 
BRANCH 50 53
ATOM     53 OH   TYR B   2      18.270  18.690  32.010  1.00 30.95 LIG-0.36  OA
ATOM     54 HH   TYR B   2      17.904  18.250  31.395  1.00 30.95 LIG 0.22  HD
ENDBRANCH 50 53
ENDBRANCH 46 47
ENDBRANCH 31 46
ENDBRANCH 1 31
TORSDOF 22
ENDMDL
MODEL 3
USER: ADFR SOLUTION from run 169
USER: SCORE 19.429500 LL:  -4.552 LR: -15.253 RR:   0.000 FEB:  -8.691
USER: RMSD 2.545886
USER: SEED 168
USER: STATUS 1 or 2 clusters left
USER: GENES 24
USER: genes 0 Translation |==|  0.47688 0.48989 0.47334
USER: genes 1 Rotation |==|  0.43871 0.69264 0.35048 0.93218
USER: genes 2 Torsion [C]-N--CA-[C] |==|  0.82551
USER: genes 3 Torsion [N]-CA--C-[N] |==|  0.37306
USER: genes 4 Torsion [C]-N--CA-[C] |==|  0.78432
USER: genes 5 Torsion [N]-CA--C-[N] |==|  0.35727
USER: genes 6 Torsion [C]-N--CA-[CB] |==|  0.15998
USER: genes 7 Torsion [N]-CA--C-[OXT] |==|  0.03786
USER: genes 8 Torsion [N]-CA--CB-[CG] |==|  0.19692
USER: genes 9 Torsion [CA]-CB--CG-[CD1] |==|  0.32394
USER: genes 10 Torsion [N]-CA--CB-[OG] |==|  0.63406
USER: genes 11 Torsion [CA]-CB--OG-[HG] |==|  0.34033
USER: genes 12 Torsion [N]-CA--CB-[CG] |==|  0.83447
USER: genes 13 Torsion [CA]-CB--CG-[CD] |==|  0.68212
USER: genes 14 Torsion [CB]-CG--CD-[OE2] |==|  0.91676
USER: genes 15 Torsion [N]-C--CA-[N] |==|  0.21840
USER: genes 16 Torsion [C]-CA--N-[C] |==|  0.77076
USER: genes 17 Torsion [N]-C--CA-[N] |==|  0.46111
USER: genes 18 Torsion [C]-CA--CB-[CG2] |==|  0.55220
USER: genes 19 Torsion [CA]-CB--CG1-[CD1] |==|  0.33679
USER: genes 20 Torsion [C]-CA--N-[C] |==|  0.81219
USER: genes 21 Torsion [C]-CA--CB-[CG] |==|  0.49660
USER: genes 22 Torsion [CA]-CB--CG-[CD2] |==|  0.78658
USER: genes 23 Torsion [CE2]-CZ--OH-[HH] |==|  0.88031
ROOT
ATOM      1  C   TYR B   2      20.871  13.565  36.692  1.00 34.05 LIG 0.24  C 
ATOM      2 O    TYR B   2      21.561  12.752  36.081  1.00 39.10 LIG-0.27  OA
ATOM      3  N   GLU B   3      20.529  13.462  37.968  1.00 35.19 LIG-0.35  N 
ATOM      4 H    GLU B   3      20.092  14.076  38.383  1.00 35.19 LIG 0.16  HD
ENDROOT
BRANCH 3 5
ATOM      5  CA  GLU B   3      20.851  12.305  38.814  1.00 40.21 LIG 0.18  C 
BRANCH 5 6
ATOM      6  C   GLU B   3      20.158  11.091  38.245  1.00 33.75 LIG 0.24  C 
ATOM      7 O    GLU B   3      18.988  11.174  37.904  1.00 31.69 LIG-0.27  OA
ATOM      8  N   SER B   4      20.859   9.947  38.128  1.00 29.90 LIG-0.34  N 
ATOM      9 H    SER B   4      21.705   9.879  38.266  1.00 29.90 LIG 0.16  HD
BRANCH 8 10
ATOM     10  CA  SER B   4      20.196   8.704  37.746  1.00 28.06 LIG 0.20  C 
BRANCH 10 11
ATOM     11  C   SER B   4      19.458   8.151  38.973  1.00 33.99 LIG 0.24  C 
ATOM     12  N   LEU B   5      18.183   7.843  38.794  1.00 32.03 LIG-0.34  N 
ATOM     13 H    LEU B   5      17.806   7.839  38.021  1.00 32.03 LIG 0.16  HD
ATOM     14 O    SER B   4      20.045   8.037  40.062  1.00 35.03 LIG-0.27  OA
BRANCH 12 15
ATOM     15  CA  LEU B   5      17.269   7.472  39.898  1.00 33.34 LIG 0.18  C 
BRANCH 15 16
ATOM     16  C   LEU B   5      15.849   7.205  39.422  1.00 39.47 LIG 0.20  C 
ATOM     17 O    LEU B   5      14.945   7.064  40.263  1.00 29.87 LIG-0.65  OA
ATOM     18 OXT  LEU B   5      15.588   7.053  38.195  1.00 38.97 LIG-0.65  OA
ENDBRANCH 15 16
BRANCH 15 19
ATOM     19  CB  LEU B   5      17.212   8.584  40.938  1.00 34.52 LIG 0.04  C 
BRANCH 19 20
ATOM     20  CG  LEU B   5      16.494   9.855  40.529  1.00 35.74 LIG-0.02  C 
ATOM     21  CD1 LEU B   5      15.267  10.054  41.430  1.00 34.91 LIG 0.01  C 
ATOM     22  CD2 LEU B   5      17.447  11.038  40.602  1.00 32.02 LIG 0.01  C 
ENDBRANCH 19 20
ENDBRANCH 15 19
ENDBRANCH 12 15
ENDBRANCH 10 11
BRANCH 10 23
ATOM     23  CB  SER B   4      21.188   7.656  37.217  1.00 31.79 LIG 0.20  C 
BRANCH 23 24
ATOM     24 OG   SER B   4      20.717   7.101  36.002  1.00 32.94 LIG-0.40  OA
ATOM     25 HG   SER B   4      21.290   7.219  35.399  1.00 32.94 LIG 0.21  HD
ENDBRANCH 23 24
ENDBRANCH 10 23
ENDBRANCH 8 10
ENDBRANCH 5 6
BRANCH 5 26
ATOM     26  CB  GLU B   3      20.316  12.532  40.224  1.00 42.52 LIG 0.04  C 
BRANCH 26 27
ATOM     27  CG  GLU B   3      20.902  13.777  40.890  1.00 61.90 LIG 0.12  C 
BRANCH 27 28
ATOM     28  CD  GLU B   3      21.757  13.438  42.083  1.00 67.28 LIG 0.17  C 
ATOM     29 OE1  GLU B   3      22.723  14.193  42.348  1.00 80.18 LIG-0.65  OA
ATOM     30 OE2  GLU B   3      21.471  12.407  42.738  1.00 64.56 LIG-0.65  OA
ENDBRANCH 27 28
ENDBRANCH 26 27
ENDBRANCH 5 26
ENDBRANCH 3 5
BRANCH 1 31
ATOM     31  CA  TYR B   2      20.371  14.813  35.979  1.00 27.59 LIG 0.18  C 
BRANCH 31 32
ATOM     32  N   TYR B   2      21.208  15.956  36.326  1.00 28.42 LIG-0.35  N 
ATOM     33 H    TYR B   2      21.820  16.139  35.751  1.00 28.42 LIG 0.16  HD
ATOM     34  C   ILE B   1      21.015  16.634  37.442  1.00 34.57 LIG 0.24  C 
ATOM     35 O    ILE B   1      20.142  16.335  38.283  1.00 35.77 LIG-0.27  OA
BRANCH 34 36
ATOM     36  CA  ILE B   1      21.898  17.839  37.641  1.00 36.91 LIG 0.18  C 
BRANCH 36 37
ATOM     37  CB  ILE B   1      23.284  17.333  38.028  1.00 38.00 LIG 0.01  C 
ATOM     38  CG2 ILE B   1      24.091  18.464  38.692  1.00 37.47 LIG 0.01  C 
BRANCH 37 39
ATOM     39  CG1 ILE B   1      23.137  16.140  38.975  1.00 43.59 LIG 0.00  C 
ATOM     40  CD1 ILE B   1      23.780  14.874  38.470  1.00 39.71 LIG 0.01  C 
ENDBRANCH 37 39
ENDBRANCH 36 37
BRANCH 36 41
ATOM     41  N   ILE B   1      21.418  18.741  38.733  1.00 36.86 LIG-0.35  N 
ATOM     42 H    ILE B   1      21.941  18.758  39.416  1.00 36.86 LIG 0.16  HD
ATOM     43  C   ACE B   0      20.269  19.467  38.663  1.00 40.91 LIG 0.21  C 
ATOM     44 O    ACE B   0      19.528  19.441  37.694  1.00 40.13 LIG-0.27  OA
ATOM     45  CH3 ACE B   0      19.918  20.323  39.866  1.00 36.31 LIG 0.12  C 
ENDBRANCH 36 41
ENDBRANCH 34 36
ENDBRANCH 31 32
BRANCH 31 46
ATOM     46  CB  TYR B   2      20.366  14.588  34.485  1.00 30.42 LIG 0.07  C 
BRANCH 46 47
ATOM     47  CG  TYR B   2      19.850  15.773  33.658  1.00 30.81 LIG-0.06  A 
ATOM     48  CD2 TYR B   2      18.490  16.067  33.550  1.00 30.26 LIG 0.01  A 
ATOM     49  CE2 TYR B   2      18.050  17.163  32.762  1.00 27.61 LIG 0.04  A 
ATOM     50  CZ  TYR B   2      18.996  17.950  32.123  1.00 28.62 LIG 0.07  A 
ATOM     51  CE1 TYR B   2      20.330  17.664  32.229  1.00 33.56 LIG 0.04  A 
ATOM     52  CD1 TYR B   2      20.744  16.582  32.995  1.00 35.64 LIG 0.01  A 
BRANCH 50 53
ATOM     53 OH   TYR B   2      18.651  19.028  31.323  1.00 30.95 LIG-0.36  OA
ATOM     54 HH   TYR B   2      18.002  18.819  30.834  1.00 30.95 LIG 0.22  HD
ENDBRANCH 50 53
ENDBRANCH 46 47
ENDBRANCH 31 46
ENDBRANCH 1 31
TORSDOF 22
ENDMDL
MODEL 4
USER: ADFR SOLUTION from run 32
USER: SCORE 18.207067 LL:  -4.281 LR: -14.857 RR:   0.000 FEB:  -8.294
USER: RMSD 5.886532
USER: SEED 31
USER: STATUS searching
USER: GENES 24
USER: genes 0 Translation |==|  0.43628 0.44645 0.57063
USER: genes 1 Rotation |==|  0.53427 0.00179 0.47526 0.50002
USER: genes 2 Torsion [C]-N--CA-[C] |==|  0.77723
USER: genes 3 Torsion [N]-CA--C-[N] |==|  0.47135
USER: genes 4 Torsion [C]-N--CA-[C] |==|  0.18333
USER: genes 5 Torsion [N]-CA--C-[N] |==|  0.14434
USER: genes 6 Torsion [C]-N--CA-[CB] |==|  0.31288
USER: genes 7 Torsion [N]-CA--C-[OXT] |==|  0.44550
USER: genes 8 Torsion [N]-CA--CB-[CG] |==|  0.63439
USER: genes 9 Torsion [CA]-CB--CG-[CD1] |==|  0.33401
USER: genes 10 Torsion [N]-CA--CB-[OG] |==|  0.87133
USER: genes 11 Torsion [CA]-CB--OG-[HG] |==|  0.34689
USER: genes 12 Torsion [N]-CA--CB-[CG] |==|  0.86119
USER: genes 13 Torsion [CA]-CB--CG-[CD] |==|  0.47245
USER: genes 14 Torsion [CB]-CG--CD-[OE2] |==|  0.67538
USER: genes 15 Torsion [N]-C--CA-[N] |==|  0.31294
USER: genes 16 Torsion [C]-CA--N-[C] |==|  0.70708
USER: genes 17 Torsion [N]-C--CA-[N] |==|  0.34985
USER: genes 18 Torsion [C]-CA--CB-[CG2] |==|  0.73160
USER: genes 19 Torsion [CA]-CB--CG1-[CD1] |==|  0.44455
USER: genes 20 Torsion [C]-CA--N-[C] |==|  0.60922
USER: genes 21 Torsion [C]-CA--CB-[CG] |==|  0.38676
USER: genes 22 Torsion [CA]-CB--CG-[CD2] |==|  0.97591
USER: genes 23 Torsion [CE2]-CZ--OH-[HH] |==|  0.70308
ROOT
ATOM      1  C   TYR B   2      20.171  12.490  38.735  1.00 34.05 LIG 0.24  C 
ATOM      2 O    TYR B   2      18.972  12.254  38.606  1.00 39.10 LIG-0.27  OA
ATOM      3  N   GLU B   3      21.139  11.890  38.058  1.00 35.19 LIG-0.35  N 
ATOM      4 H    GLU B   3      21.966  12.116  38.130  1.00 35.19 LIG 0.16  HD
ENDROOT
BRANCH 3 5
ATOM      5  CA  GLU B   3      20.920  10.783  37.118  1.00 40.21 LIG 0.18  C 
BRANCH 5 6
ATOM      6  C   GLU B   3      20.772   9.507  37.908  1.00 33.75 LIG 0.24  C 
ATOM      7 O    GLU B   3      21.029   9.509  39.102  1.00 31.69 LIG-0.27  OA
ATOM      8  N   SER B   4      20.354   8.399  37.268  1.00 29.90 LIG-0.34  N 
ATOM      9 H    SER B   4      20.072   8.383  36.456  1.00 29.90 LIG 0.16  HD
BRANCH 8 10
ATOM     10  CA  SER B   4      20.356   7.104  37.942  1.00 28.06 LIG 0.20  C 
BRANCH 10 11
ATOM     11  C   SER B   4      19.330   7.150  39.083  1.00 33.99 LIG 0.24  C 
ATOM     12  N   LEU B   5      18.113   7.554  38.754  1.00 32.03 LIG-0.34  N 
ATOM     13 H    LEU B   5      17.864   7.678  37.941  1.00 32.03 LIG 0.16  HD
ATOM     14 O    SER B   4      19.662   6.844  40.240  1.00 35.03 LIG-0.27  OA
BRANCH 12 15
ATOM     15  CA  LEU B   5      17.050   7.834  39.746  1.00 33.34 LIG 0.18  C 
BRANCH 15 16
ATOM     16  C   LEU B   5      15.763   7.075  39.459  1.00 39.47 LIG 0.20  C 
ATOM     17 O    LEU B   5      15.533   6.690  38.299  1.00 29.87 LIG-0.65  OA
ATOM     18 OXT  LEU B   5      14.895   6.894  40.360  1.00 38.97 LIG-0.65  OA
ENDBRANCH 15 16
BRANCH 15 19
ATOM     19  CB  LEU B   5      16.720   9.322  39.766  1.00 34.52 LIG 0.04  C 
BRANCH 19 20
ATOM     20  CG  LEU B   5      16.662   9.982  41.130  1.00 35.74 LIG-0.02  C 
ATOM     21  CD1 LEU B   5      17.700  11.111  41.190  1.00 34.91 LIG 0.01  C 
ATOM     22  CD2 LEU B   5      15.255  10.493  41.401  1.00 32.02 LIG 0.01  C 
ENDBRANCH 19 20
ENDBRANCH 15 19
ENDBRANCH 12 15
ENDBRANCH 10 11
BRANCH 10 23
ATOM     23  CB  SER B   4      21.741   6.740  38.500  1.00 31.79 LIG 0.20  C 
BRANCH 23 24
ATOM     24 OG   SER B   4      22.743   6.982  37.529  1.00 32.94 LIG-0.40  OA
ATOM     25 HG   SER B   4      23.327   7.493  37.850  1.00 32.94 LIG 0.21  HD
ENDBRANCH 23 24
ENDBRANCH 10 23
ENDBRANCH 8 10
ENDBRANCH 5 6
BRANCH 5 26
ATOM     26  CB  GLU B   3      22.134  10.631  36.207  1.00 42.52 LIG 0.04  C 
BRANCH 26 27
ATOM     27  CG  GLU B   3      22.567  11.951  35.569  1.00 61.90 LIG 0.12  C 
BRANCH 27 28
ATOM     28  CD  GLU B   3      23.896  11.839  34.868  1.00 67.28 LIG 0.17  C 
ATOM     29 OE1  GLU B   3      23.986  11.044  33.902  1.00 80.18 LIG-0.65  OA
ATOM     30 OE2  GLU B   3      24.849  12.530  35.300  1.00 64.56 LIG-0.65  OA
ENDBRANCH 27 28
ENDBRANCH 26 27
ENDBRANCH 5 26
ENDBRANCH 3 5
BRANCH 1 31
ATOM     31  CA  TYR B   2      20.625  13.561  39.716  1.00 27.59 LIG 0.18  C 
BRANCH 31 32
ATOM     32  N   TYR B   2      20.176  14.874  39.264  1.00 28.42 LIG-0.35  N 
ATOM     33 H    TYR B   2      19.337  15.023  39.376  1.00 28.42 LIG 0.16  HD
ATOM     34  C   ILE B   1      21.017  15.740  38.730  1.00 34.57 LIG 0.24  C 
ATOM     35 O    ILE B   1      22.227  15.495  38.545  1.00 35.77 LIG-0.27  OA
BRANCH 34 36
ATOM     36  CA  ILE B   1      20.439  17.087  38.379  1.00 36.91 LIG 0.18  C 
BRANCH 36 37
ATOM     37  CB  ILE B   1      20.512  17.236  36.863  1.00 38.00 LIG 0.01  C 
ATOM     38  CG2 ILE B   1      21.772  18.030  36.471  1.00 37.47 LIG 0.01  C 
BRANCH 37 39
ATOM     39  CG1 ILE B   1      20.521  15.847  36.221  1.00 43.59 LIG 0.00  C 
ATOM     40  CD1 ILE B   1      20.118  15.840  34.769  1.00 39.71 LIG 0.01  C 
ENDBRANCH 37 39
ENDBRANCH 36 37
BRANCH 36 41
ATOM     41  N   ILE B   1      21.196  18.224  38.988  1.00 36.86 LIG-0.35  N 
ATOM     42 H    ILE B   1      22.048  18.108  38.983  1.00 36.86 LIG 0.16  HD
ATOM     43  C   ACE B   0      20.604  19.336  39.502  1.00 40.91 LIG 0.21  C 
ATOM     44 O    ACE B   0      19.395  19.499  39.510  1.00 40.13 LIG-0.27  OA
ATOM     45  CH3 ACE B   0      21.517  20.392  40.098  1.00 36.31 LIG 0.12  C 
ENDBRANCH 36 41
ENDBRANCH 34 36
ENDBRANCH 31 32
BRANCH 31 46
ATOM     46  CB  TYR B   2      20.090  13.259  41.096  1.00 30.42 LIG 0.07  C 
BRANCH 46 47
ATOM     47  CG  TYR B   2      21.081  13.514  42.240  1.00 30.81 LIG-0.06  A 
ATOM     48  CD2 TYR B   2      22.423  13.815  42.006  1.00 30.26 LIG 0.01  A 
ATOM     49  CE2 TYR B   2      23.313  14.028  43.091  1.00 27.61 LIG 0.04  A 
ATOM     50  CZ  TYR B   2      22.821  13.956  44.385  1.00 28.62 LIG 0.07  A 
ATOM     51  CE1 TYR B   2      21.504  13.662  44.616  1.00 33.56 LIG 0.04  A 
ATOM     52  CD1 TYR B   2      20.649  13.446  43.544  1.00 35.64 LIG 0.01  A 
BRANCH 50 53
ATOM     53 OH   TYR B   2      23.624  14.136  45.500  1.00 30.95 LIG-0.36  OA
ATOM     54 HH   TYR B   2      23.751  13.396  45.877  1.00 30.95 LIG 0.22  HD
ENDBRANCH 50 53
ENDBRANCH 46 47
ENDBRANCH 31 46
ENDBRANCH 1 31
TORSDOF 22
ENDMDL
MODEL 5
USER: ADFR SOLUTION from run 35
USER: SCORE 17.191030 LL:  -3.871 LR: -14.856 RR:   0.000 FEB:  -8.293
USER: RMSD 9.511901
USER: SEED 34
USER: STATUS no improvement in best in 6 clusters for 5 generations
USER: GENES 24
USER: genes 0 Translation |==|  0.36932 0.42706 0.62536
USER: genes 1 Rotation |==|  0.49266 0.53803 0.94613 0.72242
USER: genes 2 Torsion [C]-N--CA-[C] |==|  0.78140
USER: genes 3 Torsion [N]-CA--C-[N] |==|  0.16889
USER: genes 4 Torsion [C]-N--CA-[C] |==|  0.67411
USER: genes 5 Torsion [N]-CA--C-[N] |==|  0.47256
USER: genes 6 Torsion [C]-N--CA-[CB] |==|  0.77728
USER: genes 7 Torsion [N]-CA--C-[OXT] |==|  0.70213
USER: genes 8 Torsion [N]-CA--CB-[CG] |==|  0.77310
USER: genes 9 Torsion [CA]-CB--CG-[CD1] |==|  0.87041
USER: genes 10 Torsion [N]-CA--CB-[OG] |==|  0.01741
USER: genes 11 Torsion [CA]-CB--OG-[HG] |==|  0.10345
USER: genes 12 Torsion [N]-CA--CB-[CG] |==|  0.67682
USER: genes 13 Torsion [CA]-CB--CG-[CD] |==|  0.70486
USER: genes 14 Torsion [CB]-CG--CD-[OE2] |==|  0.11598
USER: genes 15 Torsion [N]-C--CA-[N] |==|  0.80203
USER: genes 16 Torsion [C]-CA--N-[C] |==|  0.19263
USER: genes 17 Torsion [N]-C--CA-[N] |==|  0.40124
USER: genes 18 Torsion [C]-CA--CB-[CG2] |==|  0.01007
USER: genes 19 Torsion [CA]-CB--CG1-[CD1] |==|  0.43434
USER: genes 20 Torsion [C]-CA--N-[C] |==|  0.57405
USER: genes 21 Torsion [C]-CA--CB-[CG] |==|  0.45884
USER: genes 22 Torsion [CA]-CB--CG-[CD2] |==|  0.39797
USER: genes 23 Torsion [CE2]-CZ--OH-[HH] |==|  0.73786
ROOT
ATOM      1  C   TYR B   2      19.016  12.010  39.885  1.00 34.05 LIG 0.24  C 
ATOM      2 O    TYR B   2      18.348  13.041  39.873  1.00 39.10 LIG-0.27  OA
ATOM      3  N   GLU B   3      20.197  11.877  40.470  1.00 35.19 LIG-0.35  N 
ATOM      4 H    GLU B   3      20.615  11.127  40.510  1.00 35.19 LIG 0.16  HD
ENDROOT
BRANCH 3 5
ATOM      5  CA  GLU B   3      20.924  12.981  41.112  1.00 40.21 LIG 0.18  C 
BRANCH 5 6
ATOM      6  C   GLU B   3      21.588  13.805  40.036  1.00 33.75 LIG 0.24  C 
ATOM      7 O    GLU B   3      22.804  13.913  40.030  1.00 31.69 LIG-0.27  OA
ATOM      8  N   SER B   4      20.812  14.397  39.109  1.00 29.90 LIG-0.34  N 
ATOM      9 H    SER B   4      19.967  14.264  39.025  1.00 29.90 LIG 0.16  HD
BRANCH 8 10
ATOM     10  CA  SER B   4      21.384  15.339  38.152  1.00 28.06 LIG 0.20  C 
BRANCH 10 11
ATOM     11  C   SER B   4      20.736  16.711  38.376  1.00 33.99 LIG 0.24  C 
ATOM     12  N   LEU B   5      21.286  17.727  37.727  1.00 32.03 LIG-0.34  N 
ATOM     13 H    LEU B   5      21.894  17.626  37.129  1.00 32.03 LIG 0.16  HD
ATOM     14 O    SER B   4      19.770  16.833  39.148  1.00 35.03 LIG-0.27  OA
BRANCH 12 15
ATOM     15  CA  LEU B   5      20.915  19.141  37.960  1.00 33.34 LIG 0.18  C 
BRANCH 15 16
ATOM     16  C   LEU B   5      20.705  19.459  39.433  1.00 39.47 LIG 0.20  C 
ATOM     17 O    LEU B   5      21.684  19.457  40.199  1.00 29.87 LIG-0.65  OA
ATOM     18 OXT  LEU B   5      19.547  19.653  39.902  1.00 38.97 LIG-0.65  OA
ENDBRANCH 15 16
BRANCH 15 19
ATOM     19  CB  LEU B   5      19.628  19.483  37.220  1.00 34.52 LIG 0.04  C 
BRANCH 19 20
ATOM     20  CG  LEU B   5      19.764  19.815  35.747  1.00 35.74 LIG-0.02  C 
ATOM     21  CD1 LEU B   5      20.924  20.803  35.557  1.00 34.91 LIG 0.01  C 
ATOM     22  CD2 LEU B   5      19.970  18.541  34.943  1.00 32.02 LIG 0.01  C 
ENDBRANCH 19 20
ENDBRANCH 15 19
ENDBRANCH 12 15
ENDBRANCH 10 11
BRANCH 10 23
ATOM     23  CB  SER B   4      21.169  14.891  36.697  1.00 31.79 LIG 0.20  C 
BRANCH 23 24
ATOM     24 OG   SER B   4      20.341  13.743  36.650  1.00 32.94 LIG-0.40  OA
ATOM     25 HG   SER B   4      19.747  13.802  37.240  1.00 32.94 LIG 0.21  HD
ENDBRANCH 23 24
ENDBRANCH 10 23
ENDBRANCH 8 10
ENDBRANCH 5 6
BRANCH 5 26
ATOM     26  CB  GLU B   3      22.017  12.423  42.017  1.00 42.52 LIG 0.04  C 
BRANCH 26 27
ATOM     27  CG  GLU B   3      21.798  12.760  43.492  1.00 61.90 LIG 0.12  C 
BRANCH 27 28
ATOM     28  CD  GLU B   3      22.747  13.822  43.982  1.00 67.28 LIG 0.17  C 
ATOM     29 OE1  GLU B   3      23.244  13.685  45.125  1.00 80.18 LIG-0.65  OA
ATOM     30 OE2  GLU B   3      22.973  14.801  43.231  1.00 64.56 LIG-0.65  OA
ENDBRANCH 27 28
ENDBRANCH 26 27
ENDBRANCH 5 26
ENDBRANCH 3 5
BRANCH 1 31
ATOM     31  CA  TYR B   2      18.475  10.756  39.212  1.00 27.59 LIG 0.18  C 
BRANCH 31 32
ATOM     32  N   TYR B   2      19.245  10.463  38.008  1.00 28.42 LIG-0.35  N 
ATOM     33 H    TYR B   2      18.815  10.580  37.272  1.00 28.42 LIG 0.16  HD
ATOM     34  C   ILE B   1      20.498  10.054  38.077  1.00 34.57 LIG 0.24  C 
ATOM     35 O    ILE B   1      21.096   9.859  39.155  1.00 35.77 LIG-0.27  OA
BRANCH 34 36
ATOM     36  CA  ILE B   1      21.201   9.863  36.758  1.00 36.91 LIG 0.18  C 
BRANCH 36 37
ATOM     37  CB  ILE B   1      21.110   8.384  36.400  1.00 38.00 LIG 0.01  C 
ATOM     38  CG2 ILE B   1      20.266   7.638  37.449  1.00 37.47 LIG 0.01  C 
BRANCH 37 39
ATOM     39  CG1 ILE B   1      20.496   8.242  35.005  1.00 43.59 LIG 0.00  C 
ATOM     40  CD1 ILE B   1      20.850   6.953  34.308  1.00 39.71 LIG 0.01  C 
ENDBRANCH 37 39
ENDBRANCH 36 37
BRANCH 36 41
ATOM     41  N   ILE B   1      22.649  10.233  36.810  1.00 36.86 LIG-0.35  N 
ATOM     42 H    ILE B   1      22.993  10.157  37.595  1.00 36.86 LIG 0.16  HD
ATOM     43  C   ACE B   0      23.361  10.651  35.728  1.00 40.91 LIG 0.21  C 
ATOM     44 O    ACE B   0      22.872  10.761  34.616  1.00 40.13 LIG-0.27  OA
ATOM     45  CH3 ACE B   0      24.820  11.004  35.954  1.00 36.31 LIG 0.12  C 
ENDBRANCH 36 41
ENDBRANCH 34 36
ENDBRANCH 31 32
BRANCH 31 46
ATOM     46  CB  TYR B   2      18.525   9.591  40.174  1.00 30.42 LIG 0.07  C 
BRANCH 46 47
ATOM     47  CG  TYR B   2      17.693   8.372  39.752  1.00 30.81 LIG-0.06  A 
ATOM     48  CD2 TYR B   2      18.120   7.065  39.987  1.00 30.26 LIG 0.01  A 
ATOM     49  CE2 TYR B   2      17.330   5.963  39.567  1.00 27.61 LIG 0.04  A 
ATOM     50  CZ  TYR B   2      16.116   6.209  38.944  1.00 28.62 LIG 0.07  A 
ATOM     51  CE1 TYR B   2      15.695   7.491  38.716  1.00 33.56 LIG 0.04  A 
ATOM     52  CD1 TYR B   2      16.484   8.558  39.122  1.00 35.64 LIG 0.01  A 
BRANCH 50 53
ATOM     53 OH   TYR B   2      15.291   5.191  38.491  1.00 30.95 LIG-0.36  OA
ATOM     54 HH   TYR B   2      15.447   5.044  37.679  1.00 30.95 LIG 0.22  HD
ENDBRANCH 50 53
ENDBRANCH 46 47
ENDBRANCH 31 46
ENDBRANCH 1 31
TORSDOF 22
ENDMDL
MODEL 6
USER: ADFR SOLUTION from run 16
USER: SCORE 17.447363 LL:  -3.518 LR: -14.767 RR:   0.000 FEB:  -8.205
USER: RMSD 10.105107
USER: SEED 558850
USER: STATUS no improvement in best in 5 clusters for 5 generations
USER: GENES 24
USER: genes 0 Translation |==|  0.42550 0.41570 0.60052
USER: genes 1 Rotation |==|  0.42987 0.52605 0.97130 0.64927
USER: genes 2 Torsion [C]-N--CA-[C] |==|  0.79384
USER: genes 3 Torsion [N]-CA--C-[N] |==|  0.17359
USER: genes 4 Torsion [C]-N--CA-[C] |==|  0.76667
USER: genes 5 Torsion [N]-CA--C-[N] |==|  0.46251
USER: genes 6 Torsion [C]-N--CA-[CB] |==|  0.55804
USER: genes 7 Torsion [N]-CA--C-[OXT] |==|  0.29458
USER: genes 8 Torsion [N]-CA--CB-[CG] |==|  0.04251
USER: genes 9 Torsion [CA]-CB--CG-[CD1] |==|  0.19785
USER: genes 10 Torsion [N]-CA--CB-[OG] |==|  0.96009
USER: genes 11 Torsion [CA]-CB--OG-[HG] |==|  0.15650
USER: genes 12 Torsion [N]-CA--CB-[CG] |==|  0.66265
USER: genes 13 Torsion [CA]-CB--CG-[CD] |==|  0.59416
USER: genes 14 Torsion [CB]-CG--CD-[OE2] |==|  0.18821
USER: genes 15 Torsion [N]-C--CA-[N] |==|  0.38267
USER: genes 16 Torsion [C]-CA--N-[C] |==|  0.69705
USER: genes 17 Torsion [N]-C--CA-[N] |==|  0.39727
USER: genes 18 Torsion [C]-CA--CB-[CG2] |==|  0.67899
USER: genes 19 Torsion [CA]-CB--CG1-[CD1] |==|  0.31629
USER: genes 20 Torsion [C]-CA--N-[C] |==|  0.59021
USER: genes 21 Torsion [C]-CA--CB-[CG] |==|  0.47833
USER: genes 22 Torsion [CA]-CB--CG-[CD2] |==|  0.93815
USER: genes 23 Torsion [CE2]-CZ--OH-[HH] |==|  0.87733
ROOT
ATOM      1  C   TYR B   2      19.985  11.729  39.363  1.00 34.05 LIG 0.24  C 
ATOM      2 O    TYR B   2      19.050  12.485  39.110  1.00 39.10 LIG-0.27  OA
ATOM      3  N   GLU B   3      20.982  12.005  40.190  1.00 35.19 LIG-0.35  N 
ATOM      4 H    GLU B   3      21.593  11.434  40.391  1.00 35.19 LIG 0.16  HD
ENDROOT
BRANCH 3 5
ATOM      5  CA  GLU B   3      21.162  13.304  40.854  1.00 40.21 LIG 0.18  C 
BRANCH 5 6
ATOM      6  C   GLU B   3      21.659  14.297  39.833  1.00 33.75 LIG 0.24  C 
ATOM      7 O    GLU B   3      22.758  14.809  39.981  1.00 31.69 LIG-0.27  OA
ATOM      8  N   SER B   4      20.870  14.588  38.782  1.00 29.90 LIG-0.34  N 
ATOM      9 H    SER B   4      20.138  14.177  38.594  1.00 29.90 LIG 0.16  HD
BRANCH 8 10
ATOM     10  CA  SER B   4      21.224  15.662  37.859  1.00 28.06 LIG 0.20  C 
BRANCH 10 11
ATOM     11  C   SER B   4      20.729  16.990  38.448  1.00 33.99 LIG 0.24  C 
ATOM     12  N   LEU B   5      21.205  18.089  37.884  1.00 32.03 LIG-0.34  N 
ATOM     13 H    LEU B   5      21.672  18.081  37.162  1.00 32.03 LIG 0.16  HD
ATOM     14 O    SER B   4      19.949  16.998  39.415  1.00 35.03 LIG-0.27  OA
BRANCH 12 15
ATOM     15  CA  LEU B   5      20.986  19.448  38.430  1.00 33.34 LIG 0.18  C 
BRANCH 15 16
ATOM     16  C   LEU B   5      19.589  19.633  39.004  1.00 39.47 LIG 0.20  C 
ATOM     17 O    LEU B   5      18.634  19.815  38.229  1.00 29.87 LIG-0.65  OA
ATOM     18 OXT  LEU B   5      19.396  19.676  40.253  1.00 38.97 LIG-0.65  OA
ENDBRANCH 15 16
BRANCH 15 19
ATOM     19  CB  LEU B   5      21.186  20.497  37.343  1.00 34.52 LIG 0.04  C 
BRANCH 19 20
ATOM     20  CG  LEU B   5      21.198  19.994  35.913  1.00 35.74 LIG-0.02  C 
ATOM     21  CD1 LEU B   5      19.777  19.571  35.513  1.00 34.91 LIG 0.01  C 
ATOM     22  CD2 LEU B   5      21.749  21.068  34.987  1.00 32.02 LIG 0.01  C 
ENDBRANCH 19 20
ENDBRANCH 15 19
ENDBRANCH 12 15
ENDBRANCH 10 11
BRANCH 10 23
ATOM     23  CB  SER B   4      20.619  15.453  36.462  1.00 31.79 LIG 0.20  C 
BRANCH 23 24
ATOM     24 OG   SER B   4      20.149  14.124  36.322  1.00 32.94 LIG-0.40  OA
ATOM     25 HG   SER B   4      19.596  13.957  36.932  1.00 32.94 LIG 0.21  HD
ENDBRANCH 23 24
ENDBRANCH 10 23
ENDBRANCH 8 10
ENDBRANCH 5 6
BRANCH 5 26
ATOM     26  CB  GLU B   3      22.221  13.184  41.945  1.00 42.52 LIG 0.04  C 
BRANCH 26 27
ATOM     27  CG  GLU B   3      21.693  13.559  43.330  1.00 61.90 LIG 0.12  C 
BRANCH 27 28
ATOM     28  CD  GLU B   3      22.744  14.219  44.182  1.00 67.28 LIG 0.17  C 
ATOM     29 OE1  GLU B   3      23.149  13.605  45.199  1.00 80.18 LIG-0.65  OA
ATOM     30 OE2  GLU B   3      23.146  15.359  43.845  1.00 64.56 LIG-0.65  OA
ENDBRANCH 27 28
ENDBRANCH 26 27
ENDBRANCH 5 26
ENDBRANCH 3 5
BRANCH 1 31
ATOM     31  CA  TYR B   2      20.030  10.348  38.723  1.00 27.59 LIG 0.18  C 
BRANCH 31 32
ATOM     32  N   TYR B   2      18.697   9.756  38.717  1.00 28.42 LIG-0.35  N 
ATOM     33 H    TYR B   2      18.146  10.122  38.168  1.00 28.42 LIG 0.16  HD
ATOM     34  C   ILE B   1      18.394   8.741  39.504  1.00 34.57 LIG 0.24  C 
ATOM     35 O    ILE B   1      19.198   8.242  40.319  1.00 35.77 LIG-0.27  OA
BRANCH 34 36
ATOM     36  CA  ILE B   1      17.007   8.174  39.342  1.00 36.91 LIG 0.18  C 
BRANCH 36 37
ATOM     37  CB  ILE B   1      16.133   8.781  40.435  1.00 38.00 LIG 0.01  C 
ATOM     38  CG2 ILE B   1      15.652   7.680  41.397  1.00 37.47 LIG 0.01  C 
BRANCH 37 39
ATOM     39  CG1 ILE B   1      16.934   9.848  41.184  1.00 43.59 LIG 0.00  C 
ATOM     40  CD1 ILE B   1      16.410  11.249  41.002  1.00 39.71 LIG 0.01  C 
ENDBRANCH 37 39
ENDBRANCH 36 37
BRANCH 36 41
ATOM     41  N   ILE B   1      16.962   6.687  39.493  1.00 36.86 LIG-0.35  N 
ATOM     42 H    ILE B   1      17.543   6.384  40.050  1.00 36.86 LIG 0.16  HD
ATOM     43  C   ACE B   0      16.092   5.885  38.821  1.00 40.91 LIG 0.21  C 
ATOM     44 O    ACE B   0      15.270   6.317  38.030  1.00 40.13 LIG-0.27  OA
ATOM     45  CH3 ACE B   0      16.189   4.392  39.077  1.00 36.31 LIG 0.12  C 
ENDBRANCH 36 41
ENDBRANCH 34 36
ENDBRANCH 31 32
BRANCH 31 46
ATOM     46  CB  TYR B   2      20.577  10.448  37.317  1.00 30.42 LIG 0.07  C 
BRANCH 46 47
ATOM     47  CG  TYR B   2      20.847   9.100  36.635  1.00 30.81 LIG-0.06  A 
ATOM     48  CD2 TYR B   2      21.048   7.927  37.363  1.00 30.26 LIG 0.01  A 
ATOM     49  CE2 TYR B   2      21.312   6.702  36.696  1.00 27.61 LIG 0.04  A 
ATOM     50  CZ  TYR B   2      21.340   6.687  35.311  1.00 28.62 LIG 0.07  A 
ATOM     51  CE1 TYR B   2      21.141   7.836  34.595  1.00 33.56 LIG 0.04  A 
ATOM     52  CD1 TYR B   2      20.895   9.029  35.262  1.00 35.64 LIG 0.01  A 
BRANCH 50 53
ATOM     53 OH   TYR B   2      21.604   5.537  34.583  1.00 30.95 LIG-0.36  OA
ATOM     54 HH   TYR B   2      22.252   5.129  34.928  1.00 30.95 LIG 0.22  HD
ENDBRANCH 50 53
ENDBRANCH 46 47
ENDBRANCH 31 46
ENDBRANCH 1 31
TORSDOF 22
ENDMDL
MODEL 7
USER: ADFR SOLUTION from run 48
USER: SCORE 18.418340 LL:  -4.462 LR: -14.725 RR:   0.000 FEB:  -8.163
USER: RMSD 9.585826
USER: SEED 47
USER: STATUS searching
USER: GENES 24
USER: genes 0 Translation |==|  0.35421 0.41853 0.64393
USER: genes 1 Rotation |==|  0.48305 0.54275 0.96353 0.68172
USER: genes 2 Torsion [C]-N--CA-[C] |==|  0.75169
USER: genes 3 Torsion [N]-CA--C-[N] |==|  0.16112
USER: genes 4 Torsion [C]-N--CA-[C] |==|  0.72240
USER: genes 5 Torsion [N]-CA--C-[N] |==|  0.49310
USER: genes 6 Torsion [C]-N--CA-[CB] |==|  0.75978
USER: genes 7 Torsion [N]-CA--C-[OXT] |==|  0.21577
USER: genes 8 Torsion [N]-CA--CB-[CG] |==|  0.74323
USER: genes 9 Torsion [CA]-CB--CG-[CD1] |==|  0.89025
USER: genes 10 Torsion [N]-CA--CB-[OG] |==|  0.00022
USER: genes 11 Torsion [CA]-CB--OG-[HG] |==|  0.10037
USER: genes 12 Torsion [N]-CA--CB-[CG] |==|  0.65097
USER: genes 13 Torsion [CA]-CB--CG-[CD] |==|  0.58989
USER: genes 14 Torsion [CB]-CG--CD-[OE2] |==|  0.84717
USER: genes 15 Torsion [N]-C--CA-[N] |==|  0.90193
USER: genes 16 Torsion [C]-CA--N-[C] |==|  0.78491
USER: genes 17 Torsion [N]-C--CA-[N] |==|  0.33889
USER: genes 18 Torsion [C]-CA--CB-[CG2] |==|  0.78553
USER: genes 19 Torsion [CA]-CB--CG1-[CD1] |==|  0.18881
USER: genes 20 Torsion [C]-CA--N-[C] |==|  0.78500
USER: genes 21 Torsion [C]-CA--CB-[CG] |==|  0.47961
USER: genes 22 Torsion [CA]-CB--CG-[CD2] |==|  0.29604
USER: genes 23 Torsion [CE2]-CZ--OH-[HH] |==|  0.61748
ROOT
ATOM      1  C   TYR B   2      18.755  11.799  40.275  1.00 34.05 LIG 0.24  C 
ATOM      2 O    TYR B   2      17.915  12.694  40.223  1.00 39.10 LIG-0.27  OA
ATOM      3  N   GLU B   3      19.932  11.897  40.876  1.00 35.19 LIG-0.35  N 
ATOM      4 H    GLU B   3      20.476  11.234  40.943  1.00 35.19 LIG 0.16  HD
ENDROOT
BRANCH 3 5
ATOM      5  CA  GLU B   3      20.441  13.131  41.488  1.00 40.21 LIG 0.18  C 
BRANCH 5 6
ATOM      6  C   GLU B   3      21.198  13.908  40.440  1.00 33.75 LIG 0.24  C 
ATOM      7 O    GLU B   3      22.371  14.189  40.634  1.00 31.69 LIG-0.27  OA
ATOM      8  N   SER B   4      20.553  14.267  39.315  1.00 29.90 LIG-0.34  N 
ATOM      9 H    SER B   4      19.761  14.005  39.103  1.00 29.90 LIG 0.16  HD
BRANCH 8 10
ATOM     10  CA  SER B   4      21.182  15.161  38.348  1.00 28.06 LIG 0.20  C 
BRANCH 10 11
ATOM     11  C   SER B   4      20.628  16.576  38.563  1.00 33.99 LIG 0.24  C 
ATOM     12  N   LEU B   5      21.140  17.524  37.793  1.00 32.03 LIG-0.34  N 
ATOM     13 H    LEU B   5      21.666  17.358  37.133  1.00 32.03 LIG 0.16  HD
ATOM     14 O    SER B   4      19.770  16.790  39.435  1.00 35.03 LIG-0.27  OA
BRANCH 12 15
ATOM     15  CA  LEU B   5      20.864  18.966  37.980  1.00 33.34 LIG 0.18  C 
BRANCH 15 16
ATOM     16  C   LEU B   5      20.697  19.347  39.444  1.00 39.47 LIG 0.20  C 
ATOM     17 O    LEU B   5      19.560  19.600  39.878  1.00 29.87 LIG-0.65  OA
ATOM     18 OXT  LEU B   5      21.699  19.481  40.204  1.00 38.97 LIG-0.65  OA
ENDBRANCH 15 16
BRANCH 15 19
ATOM     19  CB  LEU B   5      19.590  19.365  37.246  1.00 34.52 LIG 0.04  C 
BRANCH 19 20
ATOM     20  CG  LEU B   5      19.760  19.879  35.830  1.00 35.74 LIG-0.02  C 
ATOM     21  CD1 LEU B   5      21.007  20.773  35.763  1.00 34.91 LIG 0.01  C 
ATOM     22  CD2 LEU B   5      19.850  18.711  34.859  1.00 32.02 LIG 0.01  C 
ENDBRANCH 19 20
ENDBRANCH 15 19
ENDBRANCH 12 15
ENDBRANCH 10 11
BRANCH 10 23
ATOM     23  CB  SER B   4      20.933  14.718  36.898  1.00 31.79 LIG 0.20  C 
BRANCH 23 24
ATOM     24 OG   SER B   4      20.145  13.541  36.869  1.00 32.94 LIG-0.40  OA
ATOM     25 HG   SER B   4      19.580  13.568  37.490  1.00 32.94 LIG 0.21  HD
ENDBRANCH 23 24
ENDBRANCH 10 23
ENDBRANCH 8 10
ENDBRANCH 5 6
BRANCH 5 26
ATOM     26  CB  GLU B   3      21.415  12.787  42.611  1.00 42.52 LIG 0.04  C 
BRANCH 26 27
ATOM     27  CG  GLU B   3      21.041  13.439  43.943  1.00 61.90 LIG 0.12  C 
BRANCH 27 28
ATOM     28  CD  GLU B   3      22.251  13.778  44.772  1.00 67.28 LIG 0.17  C 
ATOM     29 OE1  GLU B   3      22.396  14.968  45.143  1.00 80.18 LIG-0.65  OA
ATOM     30 OE2  GLU B   3      23.063  12.858  45.033  1.00 64.56 LIG-0.65  OA
ENDBRANCH 27 28
ENDBRANCH 26 27
ENDBRANCH 5 26
ENDBRANCH 3 5
BRANCH 1 31
ATOM     31  CA  TYR B   2      18.457  10.449  39.638  1.00 27.59 LIG 0.18  C 
BRANCH 31 32
ATOM     32  N   TYR B   2      19.680   9.874  39.090  1.00 28.42 LIG-0.35  N 
ATOM     33 H    TYR B   2      20.029   9.252  39.570  1.00 28.42 LIG 0.16  HD
ATOM     34  C   ILE B   1      20.184  10.297  37.946  1.00 34.57 LIG 0.24  C 
ATOM     35 O    ILE B   1      19.683  11.224  37.277  1.00 35.77 LIG-0.27  OA
BRANCH 34 36
ATOM     36  CA  ILE B   1      21.407   9.565  37.455  1.00 36.91 LIG 0.18  C 
BRANCH 36 37
ATOM     37  CB  ILE B   1      22.543  10.578  37.365  1.00 38.00 LIG 0.01  C 
ATOM     38  CG2 ILE B   1      22.376  11.446  36.104  1.00 37.47 LIG 0.01  C 
BRANCH 37 39
ATOM     39  CG1 ILE B   1      22.546  11.444  38.627  1.00 43.59 LIG 0.00  C 
ATOM     40  CD1 ILE B   1      22.926  10.698  39.880  1.00 39.71 LIG 0.01  C 
ENDBRANCH 37 39
ENDBRANCH 36 37
BRANCH 36 41
ATOM     41  N   ILE B   1      21.222   8.963  36.099  1.00 36.86 LIG-0.35  N 
ATOM     42 H    ILE B   1      21.599   9.413  35.471  1.00 36.86 LIG 0.16  HD
ATOM     43  C   ACE B   0      20.526   7.815  35.871  1.00 40.91 LIG 0.21  C 
ATOM     44 O    ACE B   0      19.990   7.178  36.762  1.00 40.13 LIG-0.27  OA
ATOM     45  CH3 ACE B   0      20.419   7.347  34.431  1.00 36.31 LIG 0.12  C 
ENDBRANCH 36 41
ENDBRANCH 34 36
ENDBRANCH 31 32
BRANCH 31 46
ATOM     46  CB  TYR B   2      17.840   9.521  40.659  1.00 30.42 LIG 0.07  C 
BRANCH 46 47
ATOM     47  CG  TYR B   2      17.332   8.187  40.092  1.00 30.81 LIG-0.06  A 
ATOM     48  CD2 TYR B   2      18.001   6.984  40.314  1.00 30.26 LIG 0.01  A 
ATOM     49  CE2 TYR B   2      17.509   5.773  39.760  1.00 27.61 LIG 0.04  A 
ATOM     50  CZ  TYR B   2      16.340   5.805  39.016  1.00 28.62 LIG 0.07  A 
ATOM     51  CE1 TYR B   2      15.681   6.985  38.799  1.00 33.56 LIG 0.04  A 
ATOM     52  CD1 TYR B   2      16.182   8.162  39.339  1.00 35.64 LIG 0.01  A 
BRANCH 50 53
ATOM     53 OH   TYR B   2      15.799   4.672  38.428  1.00 30.95 LIG-0.36  OA
ATOM     54 HH   TYR B   2      15.533   4.857  37.654  1.00 30.95 LIG 0.22  HD
ENDBRANCH 50 53
ENDBRANCH 46 47
ENDBRANCH 31 46
ENDBRANCH 1 31
TORSDOF 22
ENDMDL
MODEL 8
USER: ADFR SOLUTION from run 73
USER: SCORE 18.747823 LL:  -4.712 LR: -14.660 RR:   0.000 FEB:  -8.098
USER: RMSD 6.277754
USER: SEED 72
USER: STATUS searching
USER: GENES 24
USER: genes 0 Translation |==|  0.48896 0.56867 0.44217
USER: genes 1 Rotation |==|  0.47970 0.40344 0.98916 0.53140
USER: genes 2 Torsion [C]-N--CA-[C] |==|  0.17778
USER: genes 3 Torsion [N]-CA--C-[N] |==|  0.10922
USER: genes 4 Torsion [C]-N--CA-[C] |==|  0.75163
USER: genes 5 Torsion [N]-CA--C-[N] |==|  0.45686
USER: genes 6 Torsion [C]-N--CA-[CB] |==|  0.47373
USER: genes 7 Torsion [N]-CA--C-[OXT] |==|  0.93114
USER: genes 8 Torsion [N]-CA--CB-[CG] |==|  0.90780
USER: genes 9 Torsion [CA]-CB--CG-[CD1] |==|  0.27326
USER: genes 10 Torsion [N]-CA--CB-[OG] |==|  0.83492
USER: genes 11 Torsion [CA]-CB--OG-[HG] |==|  0.03509
USER: genes 12 Torsion [N]-CA--CB-[CG] |==|  0.56082
USER: genes 13 Torsion [CA]-CB--CG-[CD] |==|  0.63752
USER: genes 14 Torsion [CB]-CG--CD-[OE2] |==|  0.89620
USER: genes 15 Torsion [N]-C--CA-[N] |==|  0.17124
USER: genes 16 Torsion [C]-CA--N-[C] |==|  0.15528
USER: genes 17 Torsion [N]-C--CA-[N] |==|  0.95386
USER: genes 18 Torsion [C]-CA--CB-[CG2] |==|  0.45289
USER: genes 19 Torsion [CA]-CB--CG1-[CD1] |==|  0.43754
USER: genes 20 Torsion [C]-CA--N-[C] |==|  0.75176
USER: genes 21 Torsion [C]-CA--CB-[CG] |==|  0.18914
USER: genes 22 Torsion [CA]-CB--CG-[CD2] |==|  0.71168
USER: genes 23 Torsion [CE2]-CZ--OH-[HH] |==|  0.81453
ROOT
ATOM      1  C   TYR B   2      21.080  15.515  36.038  1.00 34.05 LIG 0.24  C 
ATOM      2 O    TYR B   2      19.869  15.716  36.106  1.00 39.10 LIG-0.27  OA
ATOM      3  N   GLU B   3      21.964  15.892  36.949  1.00 35.19 LIG-0.35  N 
ATOM      4 H    GLU B   3      22.798  15.687  36.900  1.00 35.19 LIG 0.16  HD
ENDROOT
BRANCH 3 5
ATOM      5  CA  GLU B   3      21.632  16.694  38.134  1.00 40.21 LIG 0.18  C 
BRANCH 5 6
ATOM      6  C   GLU B   3      20.696  15.894  39.005  1.00 33.75 LIG 0.24  C 
ATOM      7 O    GLU B   3      19.769  16.458  39.565  1.00 31.69 LIG-0.27  OA
ATOM      8  N   SER B   4      20.914  14.572  39.138  1.00 29.90 LIG-0.34  N 
ATOM      9 H    SER B   4      21.494  14.126  38.685  1.00 29.90 LIG 0.16  HD
BRANCH 8 10
ATOM     10  CA  SER B   4      20.148  13.783  40.098  1.00 28.06 LIG 0.20  C 
BRANCH 10 11
ATOM     11  C   SER B   4      20.888  13.801  41.441  1.00 33.99 LIG 0.24  C 
ATOM     12  N   LEU B   5      20.189  13.412  42.496  1.00 32.03 LIG-0.34  N 
ATOM     13 H    LEU B   5      19.406  13.061  42.436  1.00 32.03 LIG 0.16  HD
ATOM     14 O    SER B   4      22.067  14.189  41.505  1.00 35.03 LIG-0.27  OA
BRANCH 12 15
ATOM     15  CA  LEU B   5      20.674  13.535  43.889  1.00 33.34 LIG 0.18  C 
BRANCH 15 16
ATOM     16  C   LEU B   5      21.838  12.603  44.191  1.00 39.47 LIG 0.20  C 
ATOM     17 O    LEU B   5      22.670  12.933  45.054  1.00 29.87 LIG-0.65  OA
ATOM     18 OXT  LEU B   5      22.013  11.540  43.531  1.00 38.97 LIG-0.65  OA
ENDBRANCH 15 16
BRANCH 15 19
ATOM     19  CB  LEU B   5      19.555  13.219  44.873  1.00 34.52 LIG 0.04  C 
BRANCH 19 20
ATOM     20  CG  LEU B   5      18.152  13.605  44.447  1.00 35.74 LIG-0.02  C 
ATOM     21  CD1 LEU B   5      17.439  12.370  43.879  1.00 34.91 LIG 0.01  C 
ATOM     22  CD2 LEU B   5      17.396  14.202  45.625  1.00 32.02 LIG 0.01  C 
ENDBRANCH 19 20
ENDBRANCH 15 19
ENDBRANCH 12 15
ENDBRANCH 10 11
BRANCH 10 23
ATOM     23  CB  SER B   4      19.947  12.333  39.631  1.00 31.79 LIG 0.20  C 
BRANCH 23 24
ATOM     24 OG   SER B   4      19.261  12.303  38.392  1.00 32.94 LIG-0.40  OA
ATOM     25 HG   SER B   4      19.245  13.075  38.063  1.00 32.94 LIG 0.21  HD
ENDBRANCH 23 24
ENDBRANCH 10 23
ENDBRANCH 8 10
ENDBRANCH 5 6
BRANCH 5 26
ATOM     26  CB  GLU B   3      20.903  17.965  37.708  1.00 42.52 LIG 0.04  C 
BRANCH 26 27
ATOM     27  CG  GLU B   3      20.989  19.078  38.754  1.00 61.90 LIG 0.12  C 
BRANCH 27 28
ATOM     28  CD  GLU B   3      19.642  19.677  39.063  1.00 67.28 LIG 0.17  C 
ATOM     29 OE1  GLU B   3      19.396  19.987  40.253  1.00 80.18 LIG-0.65  OA
ATOM     30 OE2  GLU B   3      18.828  19.815  38.118  1.00 64.56 LIG-0.65  OA
ENDBRANCH 27 28
ENDBRANCH 26 27
ENDBRANCH 5 26
ENDBRANCH 3 5
BRANCH 1 31
ATOM     31  CA  TYR B   2      21.649  14.756  34.848  1.00 27.59 LIG 0.18  C 
BRANCH 31 32
ATOM     32  N   TYR B   2      22.273  13.516  35.299  1.00 28.42 LIG-0.35  N 
ATOM     33 H    TYR B   2      23.096  13.425  35.067  1.00 28.42 LIG 0.16  HD
ATOM     34  C   ILE B   1      21.599  12.626  36.003  1.00 34.57 LIG 0.24  C 
ATOM     35 O    ILE B   1      20.395  12.759  36.303  1.00 35.77 LIG-0.27  OA
BRANCH 34 36
ATOM     36  CA  ILE B   1      22.383  11.427  36.471  1.00 36.91 LIG 0.18  C 
BRANCH 36 37
ATOM     37  CB  ILE B   1      22.709  11.639  37.946  1.00 38.00 LIG 0.01  C 
ATOM     38  CG2 ILE B   1      23.124  10.303  38.591  1.00 37.47 LIG 0.01  C 
BRANCH 37 39
ATOM     39  CG1 ILE B   1      23.829  12.675  38.069  1.00 43.59 LIG 0.00  C 
ATOM     40  CD1 ILE B   1      23.883  13.362  39.409  1.00 39.71 LIG 0.01  C 
ENDBRANCH 37 39
ENDBRANCH 36 37
BRANCH 36 41
ATOM     41  N   ILE B   1      23.674  11.251  35.737  1.00 36.86 LIG-0.35  N 
ATOM     42 H    ILE B   1      24.336  11.652  36.111  1.00 36.86 LIG 0.16  HD
ATOM     43  C   ACE B   0      23.799  10.529  34.590  1.00 40.91 LIG 0.21  C 
ATOM     44 O    ACE B   0      22.858   9.961  34.060  1.00 40.13 LIG-0.27  OA
ATOM     45  CH3 ACE B   0      25.179  10.462  33.962  1.00 36.31 LIG 0.12  C 
ENDBRANCH 36 41
ENDBRANCH 34 36
ENDBRANCH 31 32
BRANCH 31 46
ATOM     46  CB  TYR B   2      20.556  14.470  33.845  1.00 30.42 LIG 0.07  C 
BRANCH 46 47
ATOM     47  CG  TYR B   2      19.998  15.708  33.131  1.00 30.81 LIG-0.06  A 
ATOM     48  CD2 TYR B   2      18.763  16.264  33.465  1.00 30.26 LIG 0.01  A 
ATOM     49  CE2 TYR B   2      18.273  17.401  32.770  1.00 27.61 LIG 0.04  A 
ATOM     50  CZ  TYR B   2      19.054  17.963  31.773  1.00 28.62 LIG 0.07  A 
ATOM     51  CE1 TYR B   2      20.267  17.420  31.445  1.00 33.56 LIG 0.04  A 
ATOM     52  CD1 TYR B   2      20.727  16.302  32.126  1.00 35.64 LIG 0.01  A 
BRANCH 50 53
ATOM     53 OH   TYR B   2      18.644  19.064  31.037  1.00 30.95 LIG-0.36  OA
ATOM     54 HH   TYR B   2      17.987  18.853  30.559  1.00 30.95 LIG 0.22  HD
ENDBRANCH 50 53
ENDBRANCH 46 47
ENDBRANCH 31 46
ENDBRANCH 1 31
TORSDOF 22
ENDMDL
MODEL 9
USER: ADFR SOLUTION from run 168
USER: SCORE 17.417708 LL:  -3.746 LR: -14.516 RR:   0.000 FEB:  -7.954
USER: RMSD 6.456464
USER: SEED 167
USER: STATUS no improvement in best in 5 clusters for 5 generations
USER: GENES 24
USER: genes 0 Translation |==|  0.44861 0.43694 0.56531
USER: genes 1 Rotation |==|  0.49814 0.99712 0.45838 0.53366
USER: genes 2 Torsion [C]-N--CA-[C] |==|  0.76431
USER: genes 3 Torsion [N]-CA--C-[N] |==|  0.29605
USER: genes 4 Torsion [C]-N--CA-[C] |==|  0.56252
USER: genes 5 Torsion [N]-CA--C-[N] |==|  0.46564
USER: genes 6 Torsion [C]-N--CA-[CB] |==|  0.53373
USER: genes 7 Torsion [N]-CA--C-[OXT] |==|  0.83919
USER: genes 8 Torsion [N]-CA--CB-[CG] |==|  0.61306
USER: genes 9 Torsion [CA]-CB--CG-[CD1] |==|  0.81864
USER: genes 10 Torsion [N]-CA--CB-[OG] |==|  0.90885
USER: genes 11 Torsion [CA]-CB--OG-[HG] |==|  0.84815
USER: genes 12 Torsion [N]-CA--CB-[CG] |==|  0.93138
USER: genes 13 Torsion [CA]-CB--CG-[CD] |==|  0.69511
USER: genes 14 Torsion [CB]-CG--CD-[OE2] |==|  0.91599
USER: genes 15 Torsion [N]-C--CA-[N] |==|  0.33431
USER: genes 16 Torsion [C]-CA--N-[C] |==|  0.57793
USER: genes 17 Torsion [N]-C--CA-[N] |==|  0.44510
USER: genes 18 Torsion [C]-CA--CB-[CG2] |==|  0.89646
USER: genes 19 Torsion [CA]-CB--CG1-[CD1] |==|  0.68652
USER: genes 20 Torsion [C]-CA--N-[C] |==|  0.70275
USER: genes 21 Torsion [C]-CA--CB-[CG] |==|  0.34650
USER: genes 22 Torsion [CA]-CB--CG-[CD2] |==|  0.01743
USER: genes 23 Torsion [CE2]-CZ--OH-[HH] |==|  0.61765
ROOT
ATOM      1  C   TYR B   2      20.383  12.254  38.623  1.00 34.05 LIG 0.24  C 
ATOM      2 O    TYR B   2      19.189  12.133  38.363  1.00 39.10 LIG-0.27  OA
ATOM      3  N   GLU B   3      21.327  11.391  38.277  1.00 35.19 LIG-0.35  N 
ATOM      4 H    GLU B   3      22.163  11.531  38.424  1.00 35.19 LIG 0.16  HD
ENDROOT
BRANCH 3 5
ATOM      5  CA  GLU B   3      21.063  10.109  37.609  1.00 40.21 LIG 0.18  C 
BRANCH 5 6
ATOM      6  C   GLU B   3      20.734   9.081  38.663  1.00 33.75 LIG 0.24  C 
ATOM      7 O    GLU B   3      21.628   8.643  39.371  1.00 31.69 LIG-0.27  OA
ATOM      8  N   SER B   4      19.457   8.678  38.792  1.00 29.90 LIG-0.34  N 
ATOM      9 H    SER B   4      18.790   9.033  38.380  1.00 29.90 LIG 0.16  HD
BRANCH 8 10
ATOM     10  CA  SER B   4      19.111   7.567  39.673  1.00 28.06 LIG 0.20  C 
BRANCH 10 11
ATOM     11  C   SER B   4      17.771   6.980  39.211  1.00 33.99 LIG 0.24  C 
ATOM     12  N   LEU B   5      17.435   5.812  39.739  1.00 32.03 LIG-0.34  N 
ATOM     13 H    LEU B   5      17.871   5.447  40.383  1.00 32.03 LIG 0.16  HD
ATOM     14 O    SER B   4      17.078   7.577  38.370  1.00 35.03 LIG-0.27  OA
BRANCH 12 15
ATOM     15  CA  LEU B   5      16.277   5.011  39.280  1.00 33.34 LIG 0.18  C 
BRANCH 15 16
ATOM     16  C   LEU B   5      15.012   5.842  39.127  1.00 39.47 LIG 0.20  C 
ATOM     17 O    LEU B   5      14.483   5.940  38.006  1.00 29.87 LIG-0.65  OA
ATOM     18 OXT  LEU B   5      14.533   6.489  40.101  1.00 38.97 LIG-0.65  OA
ENDBRANCH 15 16
BRANCH 15 19
ATOM     19  CB  LEU B   5      15.983   3.888  40.266  1.00 34.52 LIG 0.04  C 
BRANCH 19 20
ATOM     20  CG  LEU B   5      15.614   2.544  39.669  1.00 35.74 LIG-0.02  C 
ATOM     21  CD1 LEU B   5      14.278   2.672  38.925  1.00 34.91 LIG 0.01  C 
ATOM     22  CD2 LEU B   5      16.727   2.059  38.752  1.00 32.02 LIG 0.01  C 
ENDBRANCH 19 20
ENDBRANCH 15 19
ENDBRANCH 12 15
ENDBRANCH 10 11
BRANCH 10 23
ATOM     23  CB  SER B   4      19.012   8.001  41.144  1.00 31.79 LIG 0.20  C 
BRANCH 23 24
ATOM     24 OG   SER B   4      19.934   9.041  41.416  1.00 32.94 LIG-0.40  OA
ATOM     25 HG   SER B   4      20.706   8.795  41.194  1.00 32.94 LIG 0.21  HD
ENDBRANCH 23 24
ENDBRANCH 10 23
ENDBRANCH 8 10
ENDBRANCH 5 6
BRANCH 5 26
ATOM     26  CB  GLU B   3      22.315   9.643  36.873  1.00 42.52 LIG 0.04  C 
BRANCH 26 27
ATOM     27  CG  GLU B   3      23.249  10.794  36.499  1.00 61.90 LIG 0.12  C 
BRANCH 27 28
ATOM     28  CD  GLU B   3      23.272  11.053  35.016  1.00 67.28 LIG 0.17  C 
ATOM     29 OE1  GLU B   3      23.463  12.230  34.627  1.00 80.18 LIG-0.65  OA
ATOM     30 OE2  GLU B   3      23.078  10.082  34.246  1.00 64.56 LIG-0.65  OA
ENDBRANCH 27 28
ENDBRANCH 26 27
ENDBRANCH 5 26
ENDBRANCH 3 5
BRANCH 1 31
ATOM     31  CA  TYR B   2      20.868  13.485  39.376  1.00 27.59 LIG 0.18  C 
BRANCH 31 32
ATOM     32  N   TYR B   2      20.520  14.693  38.634  1.00 28.42 LIG-0.35  N 
ATOM     33 H    TYR B   2      19.820  14.620  38.140  1.00 28.42 LIG 0.16  HD
ATOM     34  C   ILE B   1      21.243  15.792  38.736  1.00 34.57 LIG 0.24  C 
ATOM     35 O    ILE B   1      22.276  15.871  39.433  1.00 35.77 LIG-0.27  OA
BRANCH 34 36
ATOM     36  CA  ILE B   1      20.730  16.990  37.978  1.00 36.91 LIG 0.18  C 
BRANCH 36 37
ATOM     37  CB  ILE B   1      21.162  16.833  36.524  1.00 38.00 LIG 0.01  C 
ATOM     38  CG2 ILE B   1      22.569  16.211  36.456  1.00 37.47 LIG 0.01  C 
BRANCH 37 39
ATOM     39  CG1 ILE B   1      20.143  15.959  35.789  1.00 43.59 LIG 0.00  C 
ATOM     40  CD1 ILE B   1      20.684  14.621  35.354  1.00 39.71 LIG 0.01  C 
ENDBRANCH 37 39
ENDBRANCH 36 37
BRANCH 36 41
ATOM     41  N   ILE B   1      21.286  18.282  38.484  1.00 36.86 LIG-0.35  N 
ATOM     42 H    ILE B   1      22.112  18.404  38.275  1.00 36.86 LIG 0.16  HD
ATOM     43  C   ACE B   0      20.565  19.184  39.205  1.00 40.91 LIG 0.21  C 
ATOM     44 O    ACE B   0      19.395  19.011  39.502  1.00 40.13 LIG-0.27  OA
ATOM     45  CH3 ACE B   0      21.285  20.442  39.656  1.00 36.31 LIG 0.12  C 
ENDBRANCH 36 41
ENDBRANCH 34 36
ENDBRANCH 31 32
BRANCH 31 46
ATOM     46  CB  TYR B   2      20.263  13.516  40.760  1.00 30.42 LIG 0.07  C 
BRANCH 46 47
ATOM     47  CG  TYR B   2      21.281  13.611  41.905  1.00 30.81 LIG-0.06  A 
ATOM     48  CD2 TYR B   2      22.645  13.793  41.672  1.00 30.26 LIG 0.01  A 
ATOM     49  CE2 TYR B   2      23.558  13.859  42.757  1.00 27.61 LIG 0.04  A 
ATOM     50  CZ  TYR B   2      23.068  13.766  44.050  1.00 28.62 LIG 0.07  A 
ATOM     51  CE1 TYR B   2      21.731  13.590  44.280  1.00 33.56 LIG 0.04  A 
ATOM     52  CD1 TYR B   2      20.852  13.516  43.208  1.00 35.64 LIG 0.01  A 
BRANCH 50 53
ATOM     53 OH   TYR B   2      23.892  13.807  45.164  1.00 30.95 LIG-0.36  OA
ATOM     54 HH   TYR B   2      23.644  13.228  45.719  1.00 30.95 LIG 0.22  HD
ENDBRANCH 50 53
ENDBRANCH 46 47
ENDBRANCH 31 46
ENDBRANCH 1 31
TORSDOF 22
ENDMDL
MODEL 10
USER: ADFR SOLUTION from run 65
USER: SCORE 17.561356 LL:  -4.219 LR: -14.397 RR:   0.000 FEB:  -7.834
USER: RMSD 6.856166
USER: SEED 64
USER: STATUS no improvement in best in 7 clusters for 5 generations
USER: GENES 24
USER: genes 0 Translation |==|  0.50594 0.53482 0.45644
USER: genes 1 Rotation |==|  0.52382 0.52581 0.00222 0.53140
USER: genes 2 Torsion [C]-N--CA-[C] |==|  0.16111
USER: genes 3 Torsion [N]-CA--C-[N] |==|  0.06275
USER: genes 4 Torsion [C]-N--CA-[C] |==|  0.74058
USER: genes 5 Torsion [N]-CA--C-[N] |==|  0.46568
USER: genes 6 Torsion [C]-N--CA-[CB] |==|  0.47820
USER: genes 7 Torsion [N]-CA--C-[OXT] |==|  0.44218
USER: genes 8 Torsion [N]-CA--CB-[CG] |==|  0.92485
USER: genes 9 Torsion [CA]-CB--CG-[CD1] |==|  0.24626
USER: genes 10 Torsion [N]-CA--CB-[OG] |==|  0.84858
USER: genes 11 Torsion [CA]-CB--OG-[HG] |==|  0.98314
USER: genes 12 Torsion [N]-CA--CB-[CG] |==|  0.61524
USER: genes 13 Torsion [CA]-CB--CG-[CD] |==|  0.85212
USER: genes 14 Torsion [CB]-CG--CD-[OE2] |==|  0.26480
USER: genes 15 Torsion [N]-C--CA-[N] |==|  0.35457
USER: genes 16 Torsion [C]-CA--N-[C] |==|  0.83401
USER: genes 17 Torsion [N]-C--CA-[N] |==|  0.70858
USER: genes 18 Torsion [C]-CA--CB-[CG2] |==|  0.22226
USER: genes 19 Torsion [CA]-CB--CG1-[CD1] |==|  0.79931
USER: genes 20 Torsion [C]-CA--N-[C] |==|  0.68316
USER: genes 21 Torsion [C]-CA--CB-[CG] |==|  0.97832
USER: genes 22 Torsion [CA]-CB--CG-[CD2] |==|  0.24469
USER: genes 23 Torsion [CE2]-CZ--OH-[HH] |==|  0.35538
ROOT
ATOM      1  C   TYR B   2      21.372  14.677  36.337  1.00 34.05 LIG 0.24  C 
ATOM      2 O    TYR B   2      20.146  14.598  36.334  1.00 39.10 LIG-0.27  OA
ATOM      3  N   GLU B   3      22.078  15.495  37.104  1.00 35.19 LIG-0.35  N 
ATOM      4 H    GLU B   3      22.938  15.488  37.125  1.00 35.19 LIG 0.16  HD
ENDROOT
BRANCH 3 5
ATOM      5  CA  GLU B   3      21.485  16.499  37.998  1.00 40.21 LIG 0.18  C 
BRANCH 5 6
ATOM      6  C   GLU B   3      20.569  15.794  38.967  1.00 33.75 LIG 0.24  C 
ATOM      7 O    GLU B   3      19.673  16.422  39.510  1.00 31.69 LIG-0.27  OA
ATOM      8  N   SER B   4      20.769  14.484  39.204  1.00 29.90 LIG-0.34  N 
ATOM      9 H    SER B   4      21.324  13.990  38.770  1.00 29.90 LIG 0.16  HD
BRANCH 8 10
ATOM     10  CA  SER B   4      20.027  13.795  40.254  1.00 28.06 LIG 0.20  C 
BRANCH 10 11
ATOM     11  C   SER B   4      20.864  13.824  41.540  1.00 33.99 LIG 0.24  C 
ATOM     12  N   LEU B   5      20.236  13.469  42.651  1.00 32.03 LIG-0.34  N 
ATOM     13 H    LEU B   5      19.446  13.133  42.655  1.00 32.03 LIG 0.16  HD
ATOM     14 O    SER B   4      22.051  14.190  41.510  1.00 35.03 LIG-0.27  OA
BRANCH 12 15
ATOM     15  CA  LEU B   5      20.825  13.611  44.002  1.00 33.34 LIG 0.18  C 
BRANCH 15 16
ATOM     16  C   LEU B   5      22.016  12.690  44.224  1.00 39.47 LIG 0.20  C 
ATOM     17 O    LEU B   5      22.109  11.648  43.552  1.00 29.87 LIG-0.65  OA
ATOM     18 OXT  LEU B   5      22.868  12.928  45.126  1.00 38.97 LIG-0.65  OA
ENDBRANCH 15 16
BRANCH 15 19
ATOM     19  CB  LEU B   5      19.786  13.297  45.071  1.00 34.52 LIG 0.04  C 
BRANCH 19 20
ATOM     20  CG  LEU B   5      18.337  13.536  44.694  1.00 35.74 LIG-0.02  C 
ATOM     21  CD1 LEU B   5      17.768  12.266  44.045  1.00 34.91 LIG 0.01  C 
ATOM     22  CD2 LEU B   5      17.540  13.947  45.923  1.00 32.02 LIG 0.01  C 
ENDBRANCH 19 20
ENDBRANCH 15 19
ENDBRANCH 12 15
ENDBRANCH 10 11
BRANCH 10 23
ATOM     23  CB  SER B   4      19.699  12.341  39.878  1.00 31.79 LIG 0.20  C 
BRANCH 23 24
ATOM     24 OG   SER B   4      19.021  12.294  38.635  1.00 32.94 LIG-0.40  OA
ATOM     25 HG   SER B   4      18.852  13.075  38.379  1.00 32.94 LIG 0.21  HD
ENDBRANCH 23 24
ENDBRANCH 10 23
ENDBRANCH 8 10
ENDBRANCH 5 6
BRANCH 5 26
ATOM     26  CB  GLU B   3      20.643  17.479  37.186  1.00 42.52 LIG 0.04  C 
BRANCH 26 27
ATOM     27  CG  GLU B   3      20.819  18.929  37.637  1.00 61.90 LIG 0.12  C 
BRANCH 27 28
ATOM     28  CD  GLU B   3      20.584  19.101  39.115  1.00 67.28 LIG 0.17  C 
ATOM     29 OE1  GLU B   3      19.406  19.278  39.507  1.00 80.18 LIG-0.65  OA
ATOM     30 OE2  GLU B   3      21.581  19.079  39.876  1.00 64.56 LIG-0.65  OA
ENDBRANCH 27 28
ENDBRANCH 26 27
ENDBRANCH 5 26
ENDBRANCH 3 5
BRANCH 1 31
ATOM     31  CA  TYR B   2      22.187  13.768  35.428  1.00 27.59 LIG 0.18  C 
BRANCH 31 32
ATOM     32  N   TYR B   2      21.775  12.380  35.611  1.00 28.42 LIG-0.35  N 
ATOM     33 H    TYR B   2      21.477  11.999  34.900  1.00 28.42 LIG 0.16  HD
ATOM     34  C   ILE B   1      21.866  11.787  36.786  1.00 34.57 LIG 0.24  C 
ATOM     35 O    ILE B   1      22.271  12.365  37.816  1.00 35.77 LIG-0.27  OA
BRANCH 34 36
ATOM     36  CA  ILE B   1      21.481  10.330  36.820  1.00 36.91 LIG 0.18  C 
BRANCH 36 37
ATOM     37  CB  ILE B   1      21.412   9.840  35.377  1.00 38.00 LIG 0.01  C 
ATOM     38  CG2 ILE B   1      22.828   9.537  34.855  1.00 37.47 LIG 0.01  C 
BRANCH 37 39
ATOM     39  CG1 ILE B   1      20.527   8.593  35.312  1.00 43.59 LIG 0.00  C 
ATOM     40  CD1 ILE B   1      21.161   7.361  35.907  1.00 39.71 LIG 0.01  C 
ENDBRANCH 37 39
ENDBRANCH 36 37
BRANCH 36 41
ATOM     41  N   ILE B   1      20.144  10.094  37.448  1.00 36.86 LIG-0.35  N 
ATOM     42 H    ILE B   1      19.492  10.425  36.996  1.00 36.86 LIG 0.16  HD
ATOM     43  C   ACE B   0      19.968   9.423  38.619  1.00 40.91 LIG 0.21  C 
ATOM     44 O    ACE B   0      20.894   8.955  39.260  1.00 40.13 LIG-0.27  OA
ATOM     45  CH3 ACE B   0      18.545   9.284  39.128  1.00 36.31 LIG 0.12  C 
ENDBRANCH 36 41
ENDBRANCH 34 36
ENDBRANCH 31 32
BRANCH 31 46
ATOM     46  CB  TYR B   2      22.017  14.190  33.987  1.00 30.42 LIG 0.07  C 
BRANCH 46 47
ATOM     47  CG  TYR B   2      20.953  15.272  33.756  1.00 30.81 LIG-0.06  A 
ATOM     48  CD2 TYR B   2      21.250  16.633  33.831  1.00 30.26 LIG 0.01  A 
ATOM     49  CE2 TYR B   2      20.235  17.604  33.626  1.00 27.61 LIG 0.04  A 
ATOM     50  CZ  TYR B   2      18.951  17.177  33.325  1.00 28.62 LIG 0.07  A 
ATOM     51  CE1 TYR B   2      18.659  15.842  33.249  1.00 33.56 LIG 0.04  A 
ATOM     52  CD1 TYR B   2      19.660  14.905  33.463  1.00 35.64 LIG 0.01  A 
BRANCH 50 53
ATOM     53 OH   TYR B   2      17.900  18.058  33.125  1.00 30.95 LIG-0.36  OA
ATOM     54 HH   TYR B   2      17.523  17.884  32.395  1.00 30.95 LIG 0.22  HD
ENDBRANCH 50 53
ENDBRANCH 46 47
ENDBRANCH 31 46
ENDBRANCH 1 31
TORSDOF 22
ENDMDL
MODEL 11
USER: ADFR SOLUTION from run 143
USER: SCORE 17.470444 LL:  -3.921 LR: -14.274 RR:   0.000 FEB:  -7.712
USER: RMSD 6.564191
USER: SEED 142
USER: STATUS no improvement in best in 5 clusters for 5 generations
USER: GENES 24
USER: genes 0 Translation |==|  0.45100 0.42114 0.55653
USER: genes 1 Rotation |==|  0.49884 0.99458 0.45340 0.55673
USER: genes 2 Torsion [C]-N--CA-[C] |==|  0.75769
USER: genes 3 Torsion [N]-CA--C-[N] |==|  0.28755
USER: genes 4 Torsion [C]-N--CA-[C] |==|  0.54346
USER: genes 5 Torsion [N]-CA--C-[N] |==|  0.47222
USER: genes 6 Torsion [C]-N--CA-[CB] |==|  0.52894
USER: genes 7 Torsion [N]-CA--C-[OXT] |==|  0.36261
USER: genes 8 Torsion [N]-CA--CB-[CG] |==|  0.62660
USER: genes 9 Torsion [CA]-CB--CG-[CD1] |==|  0.80669
USER: genes 10 Torsion [N]-CA--CB-[OG] |==|  0.74823
USER: genes 11 Torsion [CA]-CB--OG-[HG] |==|  0.15523
USER: genes 12 Torsion [N]-CA--CB-[CG] |==|  0.92764
USER: genes 13 Torsion [CA]-CB--CG-[CD] |==|  0.76772
USER: genes 14 Torsion [CB]-CG--CD-[OE2] |==|  0.78509
USER: genes 15 Torsion [N]-C--CA-[N] |==|  0.32267
USER: genes 16 Torsion [C]-CA--N-[C] |==|  0.68639
USER: genes 17 Torsion [N]-C--CA-[N] |==|  0.89748
USER: genes 18 Torsion [C]-CA--CB-[CG2] |==|  0.22380
USER: genes 19 Torsion [CA]-CB--CG1-[CD1] |==|  0.49533
USER: genes 20 Torsion [C]-CA--N-[C] |==|  0.77249
USER: genes 21 Torsion [C]-CA--CB-[CG] |==|  0.34768
USER: genes 22 Torsion [CA]-CB--CG-[CD2] |==|  0.52143
USER: genes 23 Torsion [CE2]-CZ--OH-[HH] |==|  0.35722
ROOT
ATOM      1  C   TYR B   2      20.425  11.863  38.439  1.00 34.05 LIG 0.24  C 
ATOM      2 O    TYR B   2      19.259  11.731  38.072  1.00 39.10 LIG-0.27  OA
ATOM      3  N   GLU B   3      21.399  10.998  38.199  1.00 35.19 LIG-0.35  N 
ATOM      4 H    GLU B   3      22.217  11.145  38.420  1.00 35.19 LIG 0.16  HD
ENDROOT
BRANCH 3 5
ATOM      5  CA  GLU B   3      21.201   9.702  37.536  1.00 40.21 LIG 0.18  C 
BRANCH 5 6
ATOM      6  C   GLU B   3      20.836   8.680  38.584  1.00 33.75 LIG 0.24  C 
ATOM      7 O    GLU B   3      21.709   8.230  39.310  1.00 31.69 LIG-0.27  OA
ATOM      8  N   SER B   4      19.550   8.295  38.687  1.00 29.90 LIG-0.34  N 
ATOM      9 H    SER B   4      18.898   8.660  38.262  1.00 29.90 LIG 0.16  HD
BRANCH 8 10
ATOM     10  CA  SER B   4      19.171   7.191  39.563  1.00 28.06 LIG 0.20  C 
BRANCH 10 11
ATOM     11  C   SER B   4      17.756   6.736  39.184  1.00 33.99 LIG 0.24  C 
ATOM     12  N   LEU B   5      17.338   5.610  39.743  1.00 32.03 LIG-0.34  N 
ATOM     13 H    LEU B   5      17.772   5.207  40.366  1.00 32.03 LIG 0.16  HD
ATOM     14 O    SER B   4      17.078   7.393  38.377  1.00 35.03 LIG-0.27  OA
BRANCH 12 15
ATOM     15  CA  LEU B   5      16.083   4.924  39.360  1.00 33.34 LIG 0.18  C 
BRANCH 15 16
ATOM     16  C   LEU B   5      14.890   5.867  39.309  1.00 39.47 LIG 0.20  C 
ATOM     17 O    LEU B   5      14.631   6.570  40.301  1.00 29.87 LIG-0.65  OA
ATOM     18 OXT  LEU B   5      14.118   5.893  38.309  1.00 38.97 LIG-0.65  OA
ENDBRANCH 15 16
BRANCH 15 19
ATOM     19  CB  LEU B   5      15.760   3.813  40.351  1.00 34.52 LIG 0.04  C 
BRANCH 19 20
ATOM     20  CG  LEU B   5      15.339   2.482  39.759  1.00 35.74 LIG-0.02  C 
ATOM     21  CD1 LEU B   5      13.951   2.629  39.120  1.00 34.91 LIG 0.01  C 
ATOM     22  CD2 LEU B   5      16.376   2.009  38.752  1.00 32.02 LIG 0.01  C 
ENDBRANCH 19 20
ENDBRANCH 15 19
ENDBRANCH 12 15
ENDBRANCH 10 11
BRANCH 10 23
ATOM     23  CB  SER B   4      19.213   7.586  41.048  1.00 31.79 LIG 0.20  C 
BRANCH 23 24
ATOM     24 OG   SER B   4      20.491   7.316  41.595  1.00 32.94 LIG-0.40  OA
ATOM     25 HG   SER B   4      21.078   7.712  41.144  1.00 32.94 LIG 0.21  HD
ENDBRANCH 23 24
ENDBRANCH 10 23
ENDBRANCH 8 10
ENDBRANCH 5 6
BRANCH 5 26
ATOM     26  CB  GLU B   3      22.502   9.254  36.878  1.00 42.52 LIG 0.04  C 
BRANCH 26 27
ATOM     27  CG  GLU B   3      23.416  10.424  36.511  1.00 61.90 LIG 0.12  C 
BRANCH 27 28
ATOM     28  CD  GLU B   3      23.051  11.041  35.186  1.00 67.28 LIG 0.17  C 
ATOM     29 OE1  GLU B   3      22.399  12.112  35.196  1.00 80.18 LIG-0.65  OA
ATOM     30 OE2  GLU B   3      23.400  10.440  34.141  1.00 64.56 LIG-0.65  OA
ENDBRANCH 27 28
ENDBRANCH 26 27
ENDBRANCH 5 26
ENDBRANCH 3 5
BRANCH 1 31
ATOM     31  CA  TYR B   2      20.834  13.111  39.208  1.00 27.59 LIG 0.18  C 
BRANCH 31 32
ATOM     32  N   TYR B   2      20.646  14.295  38.376  1.00 28.42 LIG-0.35  N 
ATOM     33 H    TYR B   2      19.826  14.477  38.193  1.00 28.42 LIG 0.16  HD
ATOM     34  C   ILE B   1      21.674  15.007  37.954  1.00 34.57 LIG 0.24  C 
ATOM     35 O    ILE B   1      22.861  14.709  38.201  1.00 35.77 LIG-0.27  OA
BRANCH 34 36
ATOM     36  CA  ILE B   1      21.337  16.247  37.168  1.00 36.91 LIG 0.18  C 
BRANCH 36 37
ATOM     37  CB  ILE B   1      21.007  17.350  38.169  1.00 38.00 LIG 0.01  C 
ATOM     38  CG2 ILE B   1      22.305  17.968  38.718  1.00 37.47 LIG 0.01  C 
BRANCH 37 39
ATOM     39  CG1 ILE B   1      20.145  18.411  37.481  1.00 43.59 LIG 0.00  C 
ATOM     40  CD1 ILE B   1      19.720  19.537  38.388  1.00 39.71 LIG 0.01  C 
ENDBRANCH 37 39
ENDBRANCH 36 37
BRANCH 36 41
ATOM     41  N   ILE B   1      20.150  16.069  36.275  1.00 36.86 LIG-0.35  N 
ATOM     42 H    ILE B   1      19.420  16.371  36.615  1.00 36.86 LIG 0.16  HD
ATOM     43  C   ACE B   0      20.210  15.487  35.047  1.00 40.91 LIG 0.21  C 
ATOM     44 O    ACE B   0      21.246  15.056  34.567  1.00 40.13 LIG-0.27  OA
ATOM     45  CH3 ACE B   0      18.908  15.369  34.274  1.00 36.31 LIG 0.12  C 
ENDBRANCH 36 41
ENDBRANCH 34 36
ENDBRANCH 31 32
BRANCH 31 46
ATOM     46  CB  TYR B   2      20.029  13.221  40.482  1.00 30.42 LIG 0.07  C 
BRANCH 46 47
ATOM     47  CG  TYR B   2      20.865  13.346  41.763  1.00 30.81 LIG-0.06  A 
ATOM     48  CD2 TYR B   2      20.289  13.298  43.033  1.00 30.26 LIG 0.01  A 
ATOM     49  CE2 TYR B   2      21.094  13.434  44.194  1.00 27.61 LIG 0.04  A 
ATOM     50  CZ  TYR B   2      22.463  13.588  44.045  1.00 28.62 LIG 0.07  A 
ATOM     51  CE1 TYR B   2      23.030  13.633  42.800  1.00 33.56 LIG 0.04  A 
ATOM     52  CD1 TYR B   2      22.228  13.511  41.674  1.00 35.64 LIG 0.01  A 
BRANCH 50 53
ATOM     53 OH   TYR B   2      23.319  13.742  45.125  1.00 30.95 LIG-0.36  OA
ATOM     54 HH   TYR B   2      23.949  13.190  45.065  1.00 30.95 LIG 0.22  HD
ENDBRANCH 50 53
ENDBRANCH 46 47
ENDBRANCH 31 46
ENDBRANCH 1 31
TORSDOF 22
ENDMDL
MODEL 12
USER: ADFR SOLUTION from run 139
USER: SCORE 17.264928 LL:  -4.226 LR: -14.207 RR:   0.000 FEB:  -7.644
USER: RMSD 10.485229
USER: SEED 138
USER: STATUS no improvement in best in 5 clusters for 5 generations
USER: GENES 24
USER: genes 0 Translation |==|  0.49034 0.51080 0.64241
USER: genes 1 Rotation |==|  0.98474 0.50306 0.60700 0.55970
USER: genes 2 Torsion [C]-N--CA-[C] |==|  0.72408
USER: genes 3 Torsion [N]-CA--C-[N] |==|  0.48319
USER: genes 4 Torsion [C]-N--CA-[C] |==|  0.23763
USER: genes 5 Torsion [N]-CA--C-[N] |==|  0.06084
USER: genes 6 Torsion [C]-N--CA-[CB] |==|  0.46017
USER: genes 7 Torsion [N]-CA--C-[OXT] |==|  0.80584
USER: genes 8 Torsion [N]-CA--CB-[CG] |==|  0.62818
USER: genes 9 Torsion [CA]-CB--CG-[CD1] |==|  0.39689
USER: genes 10 Torsion [N]-CA--CB-[OG] |==|  0.27447
USER: genes 11 Torsion [CA]-CB--OG-[HG] |==|  0.89407
USER: genes 12 Torsion [N]-CA--CB-[CG] |==|  0.72486
USER: genes 13 Torsion [CA]-CB--CG-[CD] |==|  0.34209
USER: genes 14 Torsion [CB]-CG--CD-[OE2] |==|  0.53137
USER: genes 15 Torsion [N]-C--CA-[N] |==|  0.26487
USER: genes 16 Torsion [C]-CA--N-[C] |==|  0.77010
USER: genes 17 Torsion [N]-C--CA-[N] |==|  0.38646
USER: genes 18 Torsion [C]-CA--CB-[CG2] |==|  0.83744
USER: genes 19 Torsion [CA]-CB--CG1-[CD1] |==|  0.69332
USER: genes 20 Torsion [C]-CA--N-[C] |==|  0.82655
USER: genes 21 Torsion [C]-CA--CB-[CG] |==|  0.41689
USER: genes 22 Torsion [CA]-CB--CG-[CD2] |==|  0.11168
USER: genes 23 Torsion [CE2]-CZ--OH-[HH] |==|  0.07052
ROOT
ATOM      1  C   TYR B   2      21.103  14.082  40.243  1.00 34.05 LIG 0.24  C 
ATOM      2 O    TYR B   2      22.263  14.212  40.628  1.00 39.10 LIG-0.27  OA
ATOM      3  N   GLU B   3      20.595  14.656  39.162  1.00 35.19 LIG-0.35  N 
ATOM      4 H    GLU B   3      19.795  14.501  38.886  1.00 35.19 LIG 0.16  HD
ENDROOT
BRANCH 3 5
ATOM      5  CA  GLU B   3      21.325  15.611  38.318  1.00 40.21 LIG 0.18  C 
BRANCH 5 6
ATOM      6  C   GLU B   3      20.898  17.007  38.697  1.00 33.75 LIG 0.24  C 
ATOM      7 O    GLU B   3      19.992  17.158  39.502  1.00 31.69 LIG-0.27  OA
ATOM      8  N   SER B   4      21.535  18.050  38.132  1.00 29.90 LIG-0.34  N 
ATOM      9 H    SER B   4      22.237  17.982  37.639  1.00 29.90 LIG 0.16  HD
BRANCH 8 10
ATOM     10  CA  SER B   4      21.053  19.413  38.330  1.00 28.06 LIG 0.20  C 
BRANCH 10 11
ATOM     11  C   SER B   4      21.647  19.952  39.638  1.00 33.99 LIG 0.24  C 
ATOM     12  N   LEU B   5      22.750  19.354  40.066  1.00 32.03 LIG-0.34  N 
ATOM     13 H    LEU B   5      23.181  18.777  39.597  1.00 32.03 LIG 0.16  HD
ATOM     14 O    SER B   4      21.088  20.878  40.249  1.00 35.03 LIG-0.27  OA
BRANCH 12 15
ATOM     15  CA  LEU B   5      23.358  19.614  41.391  1.00 33.34 LIG 0.18  C 
BRANCH 15 16
ATOM     16  C   LEU B   5      24.054  20.964  41.464  1.00 39.47 LIG 0.20  C 
ATOM     17 O    LEU B   5      23.520  21.888  42.102  1.00 29.87 LIG-0.65  OA
ATOM     18 OXT  LEU B   5      25.125  21.184  40.829  1.00 38.97 LIG-0.65  OA
ENDBRANCH 15 16
BRANCH 15 19
ATOM     19  CB  LEU B   5      24.385  18.539  41.724  1.00 34.52 LIG 0.04  C 
BRANCH 19 20
ATOM     20  CG  LEU B   5      24.318  17.949  43.119  1.00 35.74 LIG-0.02  C 
ATOM     21  CD1 LEU B   5      24.641  16.450  43.049  1.00 34.91 LIG 0.01  C 
ATOM     22  CD2 LEU B   5      25.270  18.690  44.044  1.00 32.02 LIG 0.01  C 
ENDBRANCH 19 20
ENDBRANCH 15 19
ENDBRANCH 12 15
ENDBRANCH 10 11
BRANCH 10 23
ATOM     23  CB  SER B   4      19.519  19.485  38.385  1.00 31.79 LIG 0.20  C 
BRANCH 23 24
ATOM     24 OG   SER B   4      19.074  19.535  39.728  1.00 32.94 LIG-0.40  OA
ATOM     25 HG   SER B   4      19.554  19.032  40.201  1.00 32.94 LIG 0.21  HD
ENDBRANCH 23 24
ENDBRANCH 10 23
ENDBRANCH 8 10
ENDBRANCH 5 6
BRANCH 5 26
ATOM     26  CB  GLU B   3      20.961  15.390  36.853  1.00 42.52 LIG 0.04  C 
BRANCH 26 27
ATOM     27  CG  GLU B   3      22.000  14.559  36.100  1.00 61.90 LIG 0.12  C 
BRANCH 27 28
ATOM     28  CD  GLU B   3      21.403  13.328  35.472  1.00 67.28 LIG 0.17  C 
ATOM     29 OE1  GLU B   3      20.153  13.222  35.458  1.00 80.18 LIG-0.65  OA
ATOM     30 OE2  GLU B   3      22.186  12.461  35.015  1.00 64.56 LIG-0.65  OA
ENDBRANCH 27 28
ENDBRANCH 26 27
ENDBRANCH 5 26
ENDBRANCH 3 5
BRANCH 1 31
ATOM     31  CA  TYR B   2      20.149  13.184  41.017  1.00 27.59 LIG 0.18  C 
BRANCH 31 32
ATOM     32  N   TYR B   2      20.323  11.796  40.603  1.00 28.42 LIG-0.35  N 
ATOM     33 H    TYR B   2      20.834  11.332  41.116  1.00 28.42 LIG 0.16  HD
ATOM     34  C   ILE B   1      19.731  11.323  39.523  1.00 34.57 LIG 0.24  C 
ATOM     35 O    ILE B   1      19.019  12.020  38.772  1.00 35.77 LIG-0.27  OA
BRANCH 34 36
ATOM     36  CA  ILE B   1      19.931   9.854  39.253  1.00 36.91 LIG 0.18  C 
BRANCH 36 37
ATOM     37  CB  ILE B   1      20.981   9.728  38.154  1.00 38.00 LIG 0.01  C 
ATOM     38  CG2 ILE B   1      20.513  10.473  36.891  1.00 37.47 LIG 0.01  C 
BRANCH 37 39
ATOM     39  CG1 ILE B   1      22.309  10.295  38.661  1.00 43.59 LIG 0.00  C 
ATOM     40  CD1 ILE B   1      22.719  11.584  37.997  1.00 39.71 LIG 0.01  C 
ENDBRANCH 37 39
ENDBRANCH 36 37
BRANCH 36 41
ATOM     41  N   ILE B   1      18.688   9.173  38.778  1.00 36.86 LIG-0.35  N 
ATOM     42 H    ILE B   1      18.759   8.846  37.986  1.00 36.86 LIG 0.16  HD
ATOM     43  C   ACE B   0      17.551   9.073  39.520  1.00 40.91 LIG 0.21  C 
ATOM     44 O    ACE B   0      17.450   9.537  40.643  1.00 40.13 LIG-0.27  OA
ATOM     45  CH3 ACE B   0      16.370   8.362  38.883  1.00 36.31 LIG 0.12  C 
ENDBRANCH 36 41
ENDBRANCH 34 36
ENDBRANCH 31 32
BRANCH 31 46
ATOM     46  CB  TYR B   2      20.389  13.333  42.502  1.00 30.42 LIG 0.07  C 
BRANCH 46 47
ATOM     47  CG  TYR B   2      19.150  13.110  43.379  1.00 30.81 LIG-0.06  A 
ATOM     48  CD2 TYR B   2      18.224  12.101  43.113  1.00 30.26 LIG 0.01  A 
ATOM     49  CE2 TYR B   2      17.080  11.937  43.938  1.00 27.61 LIG 0.04  A 
ATOM     50  CZ  TYR B   2      16.915  12.778  45.027  1.00 28.62 LIG 0.07  A 
ATOM     51  CE1 TYR B   2      17.823  13.767  45.291  1.00 33.56 LIG 0.04  A 
ATOM     52  CD1 TYR B   2      18.930  13.923  44.467  1.00 35.64 LIG 0.01  A 
BRANCH 50 53
ATOM     53 OH   TYR B   2      15.820  12.695  45.874  1.00 30.95 LIG-0.36  OA
ATOM     54 HH   TYR B   2      15.509  11.915  45.854  1.00 30.95 LIG 0.22  HD
ENDBRANCH 50 53
ENDBRANCH 46 47
ENDBRANCH 31 46
ENDBRANCH 1 31
TORSDOF 22
ENDMDL
