MODEL 1
USER: ADFR SOLUTION from run 160
USER: SCORE 20.893430 LL:  -4.262 LR: -17.292 RR:   0.000 FEB: -11.028
USER: RMSD 8.568623
USER: SEED 159
USER: STATUS 1 or 2 clusters left
USER: GENES 23
USER: genes 0 Translation |==|  0.30673 0.69443 0.57892
USER: genes 1 Rotation |==|  0.59510 0.40288 0.98117 0.49912
USER: genes 2 Torsion [N]-C--CA-[N] |==|  0.91243
USER: genes 3 Torsion [C]-CA--N-[C] |==|  0.69165
USER: genes 4 Torsion [N]-C--CA-[N] |==|  0.88678
USER: genes 5 Torsion [C]-CA--CB-[CG] |==|  0.17073
USER: genes 6 Torsion [CA]-CB--CG-[CD1] |==|  0.74490
USER: genes 7 Torsion [C]-CA--N-[C] |==|  0.78889
USER: genes 8 Torsion [N]-C--CA-[N] |==|  0.75256
USER: genes 9 Torsion [C]-CA--CB-[CG] |==|  0.24504
USER: genes 10 Torsion [CA]-CB--CG-[CD] |==|  0.99912
USER: genes 11 Torsion [CB]-CG--CD-[OE2] |==|  0.75091
USER: genes 12 Torsion [C]-N--CA-[C] |==|  0.67119
USER: genes 13 Torsion [N]-CA--CB-[CG] |==|  0.35439
USER: genes 14 Torsion [CA]-CB--CG-[CD] |==|  0.65179
USER: genes 15 Torsion [CB]-CG--CD-[CE] |==|  0.67722
USER: genes 16 Torsion [CG]-CD--CE-[NZ] |==|  0.38229
USER: genes 17 Torsion [CD]-CE--NZ-[HZ2] |==|  0.70243
USER: genes 18 Torsion [N]-CA--C-[N] |==|  0.38301
USER: genes 19 Torsion [C]-N--CA-[C] |==|  0.70910
USER: genes 20 Torsion [N]-CA--C-[OXT] |==|  0.59173
USER: genes 21 Torsion [N]-CA--CB-[CG] |==|  0.83111
USER: genes 22 Torsion [CA]-CB--CG-[CD2] |==|  0.89832
ROOT
ATOM      1  C   ALA B   5       0.413  -3.764  14.871  1.00 35.38 LIG 0.24  C 
ATOM      2 O    ALA B   5      -0.723  -4.076  15.207  1.00 33.98 LIG-0.27  OA
ATOM      3  N   LYS B   6       1.100  -4.430  13.946  1.00 33.85 LIG-0.35  N 
ATOM      4 H    LYS B   6       1.935  -4.292  13.792  1.00 33.85 LIG 0.16  HD
ENDROOT
BRANCH 1 5
ATOM      5  CA  ALA B   5       1.156  -2.578  15.535  1.00 36.97 LIG 0.17  C 
ATOM      6  CB  ALA B   5       0.891  -1.291  14.780  1.00 36.60 LIG 0.04  C 
BRANCH 5 7
ATOM      7  N   ALA B   5       2.590  -2.804  15.619  1.00 38.84 LIG-0.35  N 
ATOM      8 H    ALA B   5       2.989  -2.795  14.857  1.00 38.84 LIG 0.16  HD
ATOM      9  C   LEU B   4       3.220  -3.004  16.772  1.00 41.06 LIG 0.24  C 
ATOM     10 O    LEU B   4       2.649  -3.019  17.851  1.00 41.71 LIG-0.27  OA
BRANCH 9 11
ATOM     11  CA  LEU B   4       4.723  -3.249  16.684  1.00 42.15 LIG 0.18  C 
BRANCH 11 12
ATOM     12  CB  LEU B   4       5.465  -1.929  16.609  1.00 42.64 LIG 0.04  C 
BRANCH 12 13
ATOM     13  CG  LEU B   4       5.240  -1.074  17.838  1.00 44.00 LIG-0.02  C 
ATOM     14  CD1 LEU B   4       4.061  -0.130  17.657  1.00 45.59 LIG 0.01  C 
ATOM     15  CD2 LEU B   4       5.092  -1.939  19.061  1.00 44.00 LIG 0.01  C 
ENDBRANCH 12 13
ENDBRANCH 11 12
BRANCH 11 16
ATOM     16  N   LEU B   4       5.126  -4.107  15.581  1.00 43.54 LIG-0.35  N 
ATOM     17 H    LEU B   4       5.478  -3.684  14.920  1.00 43.54 LIG 0.16  HD
ATOM     18  C   GLU B   3       4.960  -5.427  15.603  1.00 44.15 LIG 0.26  C 
ATOM     19 O    GLU B   3       4.197  -6.016  16.403  1.00 43.92 LIG-0.27  OA
BRANCH 18 20
ATOM     20  CA  GLU B   3       5.681  -6.198  14.489  1.00 44.40 LIG 0.40  C 
ATOM     21  N   GLU B   3       4.820  -6.324  13.270  1.00 44.72 LIG 0.61  N 
BRANCH 20 22
ATOM     22  CB  GLU B   3       7.024  -5.540  14.144  1.00 44.42 LIG 0.06  C 
BRANCH 22 23
ATOM     23  CG  GLU B   3       8.199  -6.044  15.003  1.00 45.14 LIG 0.12  C 
BRANCH 23 24
ATOM     24  CD  GLU B   3       7.796  -7.090  16.031  1.00 45.75 LIG 0.17  C 
ATOM     25 OE1  GLU B   3       7.820  -8.296  15.705  1.00 47.89 LIG-0.65  OA
ATOM     26 OE2  GLU B   3       7.436  -6.702  17.167  1.00 48.90 LIG-0.65  OA
ENDBRANCH 23 24
ENDBRANCH 22 23
ENDBRANCH 20 22
ENDBRANCH 18 20
ENDBRANCH 11 16
ENDBRANCH 9 11
ENDBRANCH 5 7
ENDBRANCH 1 5
BRANCH 3 27
ATOM     27  CA  LYS B   6       0.516  -5.459  13.097  1.00 32.68 LIG 0.18  C 
BRANCH 27 28
ATOM     28  CB  LYS B   6       0.709  -5.072  11.625  1.00 32.53 LIG 0.04  C 
BRANCH 28 29
ATOM     29  CG  LYS B   6       1.350  -6.143  10.760  1.00 31.52 LIG 0.00  C 
BRANCH 29 30
ATOM     30  CD  LYS B   6       2.559  -5.640  10.051  1.00 30.28 LIG 0.03  C 
BRANCH 30 31
ATOM     31  CE  LYS B   6       2.330  -5.669   8.552  1.00 31.86 LIG 0.23  C 
BRANCH 31 32
ATOM     32  NZ  LYS B   6       2.836  -4.451   7.877  1.00 30.58 LIG-0.08  N 
ATOM     33 HZ2  LYS B   6       2.150  -3.943   7.626  1.00 30.58 LIG 0.27  HD
ATOM     34 HZ3  LYS B   6       3.354  -3.994   8.438  1.00 30.58 LIG 0.27  HD
ATOM     35 HZ1  LYS B   6       3.310  -4.684   7.161  1.00 30.58 LIG 0.27  HD
ENDBRANCH 31 32
ENDBRANCH 30 31
ENDBRANCH 29 30
ENDBRANCH 28 29
ENDBRANCH 27 28
BRANCH 27 36
ATOM     36  C   LYS B   6       1.188  -6.799  13.320  1.00 31.47 LIG 0.24  C 
ATOM     37 O    LYS B   6       2.401  -6.858  13.396  1.00 31.11 LIG-0.27  OA
ATOM     38  N   LEU B   7       0.402  -7.873  13.380  1.00 30.67 LIG-0.34  N 
ATOM     39 H    LEU B   7      -0.456  -7.839  13.330  1.00 30.67 LIG 0.16  HD
BRANCH 38 40
ATOM     40  CA  LEU B   7       0.939  -9.230  13.538  1.00 30.14 LIG 0.18  C 
BRANCH 40 41
ATOM     41  C   LEU B   7       0.882 -10.016  12.216  1.00 29.60 LIG 0.20  C 
ATOM     42 OXT  LEU B   7       0.692 -11.240  12.240  1.00 28.85 LIG-0.65  OA
ATOM     43 O    LEU B   7       1.060  -9.461  11.118  1.00 28.46 LIG-0.65  OA
ENDBRANCH 40 41
BRANCH 40 44
ATOM     44  CB  LEU B   7       0.140  -9.996  14.576  1.00 29.75 LIG 0.04  C 
BRANCH 44 45
ATOM     45  CG  LEU B   7       0.047  -9.521  16.024  1.00 29.52 LIG-0.02  C 
ATOM     46  CD2 LEU B   7       1.364  -8.907  16.501  1.00 28.78 LIG 0.01  C 
ATOM     47  CD1 LEU B   7      -0.369 -10.720  16.885  1.00 27.65 LIG 0.01  C 
ENDBRANCH 44 45
ENDBRANCH 40 44
ENDBRANCH 38 40
ENDBRANCH 27 36
ENDBRANCH 3 27
TORSDOF 21
ENDMDL
MODEL 2
USER: ADFR SOLUTION from run 35
USER: SCORE 20.258083 LL:  -3.887 LR: -16.825 RR:   0.000 FEB: -10.561
USER: RMSD 5.774787
USER: SEED 34
USER: STATUS no improvement in best in 1 clusters for 5 generations
USER: GENES 23
USER: genes 0 Translation |==|  0.33787 0.65190 0.56848
USER: genes 1 Rotation |==|  0.52317 0.01001 0.41501 0.54632
USER: genes 2 Torsion [N]-C--CA-[N] |==|  0.35344
USER: genes 3 Torsion [C]-CA--N-[C] |==|  0.70190
USER: genes 4 Torsion [N]-C--CA-[N] |==|  0.39050
USER: genes 5 Torsion [C]-CA--CB-[CG] |==|  0.44176
USER: genes 6 Torsion [CA]-CB--CG-[CD1] |==|  0.85310
USER: genes 7 Torsion [C]-CA--N-[C] |==|  0.76842
USER: genes 8 Torsion [N]-C--CA-[N] |==|  0.57078
USER: genes 9 Torsion [C]-CA--CB-[CG] |==|  0.33653
USER: genes 10 Torsion [CA]-CB--CG-[CD] |==|  0.01604
USER: genes 11 Torsion [CB]-CG--CD-[OE2] |==|  0.33283
USER: genes 12 Torsion [C]-N--CA-[C] |==|  0.76492
USER: genes 13 Torsion [N]-CA--CB-[CG] |==|  0.94732
USER: genes 14 Torsion [CA]-CB--CG-[CD] |==|  0.54725
USER: genes 15 Torsion [CB]-CG--CD-[CE] |==|  0.10739
USER: genes 16 Torsion [CG]-CD--CE-[NZ] |==|  0.22666
USER: genes 17 Torsion [CD]-CE--NZ-[HZ2] |==|  0.88872
USER: genes 18 Torsion [N]-CA--C-[N] |==|  0.46724
USER: genes 19 Torsion [C]-N--CA-[C] |==|  0.48082
USER: genes 20 Torsion [N]-CA--C-[OXT] |==|  0.88573
USER: genes 21 Torsion [N]-CA--CB-[CG] |==|  0.59072
USER: genes 22 Torsion [CA]-CB--CG-[CD2] |==|  0.07354
ROOT
ATOM      1  C   ALA B   5       0.880  -4.817  14.667  1.00 35.38 LIG 0.24  C 
ATOM      2 O    ALA B   5      -0.307  -4.740  14.963  1.00 33.98 LIG-0.27  OA
ATOM      3  N   LYS B   6       1.787  -3.940  15.093  1.00 33.85 LIG-0.35  N 
ATOM      4 H    LYS B   6       2.593  -3.918  14.795  1.00 33.85 LIG 0.16  HD
ENDROOT
BRANCH 1 5
ATOM      5  CA  ALA B   5       1.411  -5.932  13.734  1.00 36.97 LIG 0.17  C 
ATOM      6  CB  ALA B   5       0.899  -5.737  12.321  1.00 36.60 LIG 0.04  C 
BRANCH 5 7
ATOM      7  N   ALA B   5       1.048  -7.261  14.202  1.00 38.84 LIG-0.35  N 
ATOM      8 H    ALA B   5       0.216  -7.451  14.096  1.00 38.84 LIG 0.16  HD
ATOM      9  C   LEU B   4       1.928  -8.099  14.741  1.00 41.06 LIG 0.24  C 
ATOM     10 O    LEU B   4       3.108  -7.823  14.892  1.00 41.71 LIG-0.27  OA
BRANCH 9 11
ATOM     11  CA  LEU B   4       1.379  -9.446  15.202  1.00 42.15 LIG 0.18  C 
BRANCH 11 12
ATOM     12  CB  LEU B   4       1.041  -9.396  16.679  1.00 42.64 LIG 0.04  C 
BRANCH 12 13
ATOM     13  CG  LEU B   4       0.055 -10.473  17.078  1.00 44.00 LIG-0.02  C 
ATOM     14  CD1 LEU B   4      -1.188 -10.450  16.200  1.00 45.59 LIG 0.01  C 
ATOM     15  CD2 LEU B   4       0.722 -11.822  17.082  1.00 44.00 LIG 0.01  C 
ENDBRANCH 12 13
ENDBRANCH 11 12
BRANCH 11 16
ATOM     16  N   LEU B   4       2.258 -10.573  14.933  1.00 43.54 LIG-0.35  N 
ATOM     17 H    LEU B   4       2.749 -10.801  15.601  1.00 43.54 LIG 0.16  HD
ATOM     18  C   GLU B   3       2.292 -11.189  13.754  1.00 44.15 LIG 0.26  C 
ATOM     19 O    GLU B   3       1.819 -10.699  12.702  1.00 43.92 LIG-0.27  OA
BRANCH 18 20
ATOM     20  CA  GLU B   3       3.066 -12.514  13.727  1.00 44.40 LIG 0.40  C 
ATOM     21  N   GLU B   3       3.577 -12.817  12.352  1.00 44.72 LIG 0.61  N 
BRANCH 20 22
ATOM     22  CB  GLU B   3       4.213 -12.502  14.746  1.00 44.42 LIG 0.06  C 
BRANCH 22 23
ATOM     23  CG  GLU B   3       4.119 -13.625  15.797  1.00 45.14 LIG 0.12  C 
BRANCH 23 24
ATOM     24  CD  GLU B   3       2.987 -14.607  15.537  1.00 45.75 LIG 0.17  C 
ATOM     25 OE1  GLU B   3       1.812 -14.183  15.526  1.00 47.89 LIG-0.65  OA
ATOM     26 OE2  GLU B   3       3.274 -15.814  15.359  1.00 48.90 LIG-0.65  OA
ENDBRANCH 23 24
ENDBRANCH 22 23
ENDBRANCH 20 22
ENDBRANCH 18 20
ENDBRANCH 11 16
ENDBRANCH 9 11
ENDBRANCH 5 7
ENDBRANCH 1 5
BRANCH 3 27
ATOM     27  CA  LYS B   6       1.514  -2.929  16.104  1.00 32.68 LIG 0.18  C 
BRANCH 27 28
ATOM     28  CB  LYS B   6       2.830  -2.511  16.772  1.00 32.53 LIG 0.04  C 
BRANCH 28 29
ATOM     29  CG  LYS B   6       3.976  -3.492  16.598  1.00 31.52 LIG 0.00  C 
BRANCH 29 30
ATOM     30  CD  LYS B   6       5.073  -3.250  17.576  1.00 30.28 LIG 0.03  C 
BRANCH 30 31
ATOM     31  CE  LYS B   6       4.491  -2.874  18.925  1.00 31.86 LIG 0.23  C 
BRANCH 31 32
ATOM     32  NZ  LYS B   6       4.062  -4.058  19.707  1.00 30.58 LIG-0.08  N 
ATOM     33 HZ2  LYS B   6       3.674  -4.647  19.165  1.00 30.58 LIG 0.27  HD
ATOM     34 HZ3  LYS B   6       4.771  -4.432  20.093  1.00 30.58 LIG 0.27  HD
ATOM     35 HZ1  LYS B   6       3.483  -3.805  20.334  1.00 30.58 LIG 0.27  HD
ENDBRANCH 31 32
ENDBRANCH 30 31
ENDBRANCH 29 30
ENDBRANCH 28 29
ENDBRANCH 27 28
BRANCH 27 36
ATOM     36  C   LYS B   6       0.890  -1.693  15.488  1.00 31.47 LIG 0.24  C 
ATOM     37 O    LYS B   6       0.917  -1.543  14.281  1.00 31.11 LIG-0.27  OA
ATOM     38  N   LEU B   7       0.370  -0.792  16.321  1.00 30.67 LIG-0.34  N 
ATOM     39 H    LEU B   7       0.344  -0.892  17.174  1.00 30.67 LIG 0.16  HD
BRANCH 38 40
ATOM     40  CA  LEU B   7      -0.213   0.469  15.847  1.00 30.14 LIG 0.18  C 
BRANCH 40 41
ATOM     41  C   LEU B   7      -0.890   1.242  16.993  1.00 29.60 LIG 0.20  C 
ATOM     42 OXT  LEU B   7      -1.564   0.627  17.832  1.00 28.85 LIG-0.65  OA
ATOM     43 O    LEU B   7      -0.813   2.480  17.082  1.00 28.46 LIG-0.65  OA
ENDBRANCH 40 41
BRANCH 40 44
ATOM     44  CB  LEU B   7      -1.258   0.199  14.780  1.00 29.75 LIG 0.04  C 
BRANCH 44 45
ATOM     45  CG  LEU B   7      -1.498   1.174  13.630  1.00 29.52 LIG-0.02  C 
ATOM     46  CD2 LEU B   7      -0.247   1.997  13.319  1.00 28.78 LIG 0.01  C 
ATOM     47  CD1 LEU B   7      -2.688   2.064  14.011  1.00 27.65 LIG 0.01  C 
ENDBRANCH 44 45
ENDBRANCH 40 44
ENDBRANCH 38 40
ENDBRANCH 27 36
ENDBRANCH 3 27
TORSDOF 21
ENDMDL
MODEL 3
USER: ADFR SOLUTION from run 131
USER: SCORE 20.236770 LL:  -3.920 LR: -16.818 RR:   0.000 FEB: -10.554
USER: RMSD 3.787330
USER: SEED 130
USER: STATUS searching
USER: GENES 23
USER: genes 0 Translation |==|  0.38970 0.53797 0.58766
USER: genes 1 Rotation |==|  0.48908 0.45520 0.50176 0.99787
USER: genes 2 Torsion [N]-C--CA-[N] |==|  0.41844
USER: genes 3 Torsion [C]-CA--N-[C] |==|  0.71770
USER: genes 4 Torsion [N]-C--CA-[N] |==|  0.10965
USER: genes 5 Torsion [C]-CA--CB-[CG] |==|  0.26763
USER: genes 6 Torsion [CA]-CB--CG-[CD1] |==|  0.71809
USER: genes 7 Torsion [C]-CA--N-[C] |==|  0.18333
USER: genes 8 Torsion [N]-C--CA-[N] |==|  0.37948
USER: genes 9 Torsion [C]-CA--CB-[CG] |==|  0.49988
USER: genes 10 Torsion [CA]-CB--CG-[CD] |==|  0.24433
USER: genes 11 Torsion [CB]-CG--CD-[OE2] |==|  0.90427
USER: genes 12 Torsion [C]-N--CA-[C] |==|  0.70345
USER: genes 13 Torsion [N]-CA--CB-[CG] |==|  0.95817
USER: genes 14 Torsion [CA]-CB--CG-[CD] |==|  0.73524
USER: genes 15 Torsion [CB]-CG--CD-[CE] |==|  0.90828
USER: genes 16 Torsion [CG]-CD--CE-[NZ] |==|  0.81475
USER: genes 17 Torsion [CD]-CE--NZ-[HZ2] |==|  0.12803
USER: genes 18 Torsion [N]-CA--C-[N] |==|  0.37221
USER: genes 19 Torsion [C]-N--CA-[C] |==|  0.79211
USER: genes 20 Torsion [N]-CA--C-[OXT] |==|  0.91948
USER: genes 21 Torsion [N]-CA--CB-[CG] |==|  0.84990
USER: genes 22 Torsion [CA]-CB--CG-[CD2] |==|  0.79308
ROOT
ATOM      1  C   ALA B   5       1.657  -7.636  15.041  1.00 35.38 LIG 0.24  C 
ATOM      2 O    ALA B   5       2.841  -7.381  15.231  1.00 33.98 LIG-0.27  OA
ATOM      3  N   LYS B   6       0.797  -6.746  14.553  1.00 33.85 LIG-0.35  N 
ATOM      4 H    LYS B   6      -0.052  -6.878  14.531  1.00 33.85 LIG 0.16  HD
ENDROOT
BRANCH 1 5
ATOM      5  CA  ALA B   5       1.062  -9.021  15.396  1.00 36.97 LIG 0.17  C 
ATOM      6  CB  ALA B   5       0.509  -9.019  16.808  1.00 36.60 LIG 0.04  C 
BRANCH 5 7
ATOM      7  N   ALA B   5       2.036 -10.092  15.259  1.00 38.84 LIG-0.35  N 
ATOM      8 H    ALA B   5       2.589 -10.145  15.916  1.00 38.84 LIG 0.16  HD
ATOM      9  C   LEU B   4       2.063 -10.910  14.212  1.00 41.06 LIG 0.24  C 
ATOM     10 O    LEU B   4       1.277 -10.828  13.280  1.00 41.71 LIG-0.27  OA
BRANCH 9 11
ATOM     11  CA  LEU B   4       3.164 -11.966  14.210  1.00 42.15 LIG 0.18  C 
BRANCH 11 12
ATOM     12  CB  LEU B   4       2.846 -13.052  13.201  1.00 42.64 LIG 0.04  C 
BRANCH 12 13
ATOM     13  CG  LEU B   4       3.539 -12.823  11.875  1.00 44.00 LIG-0.02  C 
ATOM     14  CD1 LEU B   4       2.590 -12.242  10.838  1.00 45.59 LIG 0.01  C 
ATOM     15  CD2 LEU B   4       4.766 -11.972  12.063  1.00 44.00 LIG 0.01  C 
ENDBRANCH 12 13
ENDBRANCH 11 12
BRANCH 11 16
ATOM     16  N   LEU B   4       3.424 -12.560  15.512  1.00 43.54 LIG-0.35  N 
ATOM     17 H    LEU B   4       4.202 -12.378  15.830  1.00 43.54 LIG 0.16  HD
ATOM     18  C   GLU B   3       2.530 -13.317  16.144  1.00 44.15 LIG 0.26  C 
ATOM     19 O    GLU B   3       1.535 -13.830  15.583  1.00 43.92 LIG-0.27  OA
BRANCH 18 20
ATOM     20  CA  GLU B   3       2.859 -13.634  17.610  1.00 44.40 LIG 0.40  C 
ATOM     21  N   GLU B   3       1.647 -13.497  18.480  1.00 44.72 LIG 0.61  N 
BRANCH 20 22
ATOM     22  CB  GLU B   3       3.475 -15.032  17.747  1.00 44.42 LIG 0.06  C 
BRANCH 22 23
ATOM     23  CG  GLU B   3       3.830 -15.414  19.197  1.00 45.14 LIG 0.12  C 
BRANCH 23 24
ATOM     24  CD  GLU B   3       2.681 -16.063  19.953  1.00 45.75 LIG 0.17  C 
ATOM     25 OE1  GLU B   3       2.937 -16.966  20.778  1.00 47.89 LIG-0.65  OA
ATOM     26 OE2  GLU B   3       1.514 -15.681  19.707  1.00 48.90 LIG-0.65  OA
ENDBRANCH 23 24
ENDBRANCH 22 23
ENDBRANCH 20 22
ENDBRANCH 18 20
ENDBRANCH 11 16
ENDBRANCH 9 11
ENDBRANCH 5 7
ENDBRANCH 1 5
BRANCH 3 27
ATOM     27  CA  LYS B   6       1.198  -5.457  14.007  1.00 32.68 LIG 0.18  C 
BRANCH 27 28
ATOM     28  CB  LYS B   6       0.463  -5.218  12.682  1.00 32.53 LIG 0.04  C 
BRANCH 28 29
ATOM     29  CG  LYS B   6      -0.186  -6.450  12.077  1.00 31.52 LIG 0.00  C 
BRANCH 29 30
ATOM     30  CD  LYS B   6       0.690  -7.105  11.067  1.00 30.28 LIG 0.03  C 
BRANCH 30 31
ATOM     31  CE  LYS B   6       1.516  -6.061  10.342  1.00 31.86 LIG 0.23  C 
BRANCH 31 32
ATOM     32  NZ  LYS B   6       0.687  -5.162   9.505  1.00 30.58 LIG-0.08  N 
ATOM     33 HZ2  LYS B   6      -0.022  -4.893   9.970  1.00 30.58 LIG 0.27  HD
ATOM     34 HZ3  LYS B   6       1.168  -4.454   9.262  1.00 30.58 LIG 0.27  HD
ATOM     35 HZ1  LYS B   6       0.416  -5.599   8.778  1.00 30.58 LIG 0.27  HD
ENDBRANCH 31 32
ENDBRANCH 30 31
ENDBRANCH 29 30
ENDBRANCH 28 29
ENDBRANCH 27 28
BRANCH 27 36
ATOM     36  C   LYS B   6       0.839  -4.327  14.951  1.00 31.47 LIG 0.24  C 
ATOM     37 O    LYS B   6      -0.279  -4.274  15.429  1.00 31.11 LIG-0.27  OA
ATOM     38  N   LEU B   7       1.772  -3.404  15.180  1.00 30.67 LIG-0.34  N 
ATOM     39 H    LEU B   7       2.565  -3.436  14.849  1.00 30.67 LIG 0.16  HD
BRANCH 38 40
ATOM     40  CA  LEU B   7       1.525  -2.234  16.032  1.00 30.14 LIG 0.18  C 
BRANCH 40 41
ATOM     41  C   LEU B   7       0.648  -1.192  15.316  1.00 29.60 LIG 0.20  C 
ATOM     42 OXT  LEU B   7       0.687  -1.105  14.080  1.00 28.85 LIG-0.65  OA
ATOM     43 O    LEU B   7      -0.076  -0.402  15.947  1.00 28.46 LIG-0.65  OA
ENDBRANCH 40 41
BRANCH 40 44
ATOM     44  CB  LEU B   7       2.837  -1.568  16.406  1.00 29.75 LIG 0.04  C 
BRANCH 44 45
ATOM     45  CG  LEU B   7       3.974  -2.352  17.057  1.00 29.52 LIG-0.02  C 
ATOM     46  CD2 LEU B   7       3.678  -2.660  18.525  1.00 28.78 LIG 0.01  C 
ATOM     47  CD1 LEU B   7       5.261  -1.533  16.892  1.00 27.65 LIG 0.01  C 
ENDBRANCH 44 45
ENDBRANCH 40 44
ENDBRANCH 38 40
ENDBRANCH 27 36
ENDBRANCH 3 27
TORSDOF 21
ENDMDL
MODEL 4
USER: ADFR SOLUTION from run 105
USER: SCORE 19.408578 LL:  -3.969 LR: -16.255 RR:   0.000 FEB:  -9.991
USER: RMSD 4.607727
USER: SEED 104
USER: STATUS no improvement in best in 5 clusters for 5 generations
USER: GENES 23
USER: genes 0 Translation |==|  0.38802 0.53695 0.58769
USER: genes 1 Rotation |==|  0.49215 0.45875 0.49024 0.99814
USER: genes 2 Torsion [N]-C--CA-[N] |==|  0.42706
USER: genes 3 Torsion [C]-CA--N-[C] |==|  0.74260
USER: genes 4 Torsion [N]-C--CA-[N] |==|  0.87512
USER: genes 5 Torsion [C]-CA--CB-[CG] |==|  0.78155
USER: genes 6 Torsion [CA]-CB--CG-[CD1] |==|  0.31126
USER: genes 7 Torsion [C]-CA--N-[C] |==|  0.62779
USER: genes 8 Torsion [N]-C--CA-[N] |==|  0.13653
USER: genes 9 Torsion [C]-CA--CB-[CG] |==|  0.47201
USER: genes 10 Torsion [CA]-CB--CG-[CD] |==|  0.20057
USER: genes 11 Torsion [CB]-CG--CD-[OE2] |==|  0.53486
USER: genes 12 Torsion [C]-N--CA-[C] |==|  0.69242
USER: genes 13 Torsion [N]-CA--CB-[CG] |==|  0.84662
USER: genes 14 Torsion [CA]-CB--CG-[CD] |==|  0.78495
USER: genes 15 Torsion [CB]-CG--CD-[CE] |==|  0.67623
USER: genes 16 Torsion [CG]-CD--CE-[NZ] |==|  0.13564
USER: genes 17 Torsion [CD]-CE--NZ-[HZ2] |==|  0.08720
USER: genes 18 Torsion [N]-CA--C-[N] |==|  0.37462
USER: genes 19 Torsion [C]-N--CA-[C] |==|  0.79708
USER: genes 20 Torsion [N]-CA--C-[OXT] |==|  0.92616
USER: genes 21 Torsion [N]-CA--CB-[CG] |==|  0.85546
USER: genes 22 Torsion [CA]-CB--CG-[CD2] |==|  0.80072
ROOT
ATOM      1  C   ALA B   5       1.632  -7.661  15.042  1.00 35.38 LIG 0.24  C 
ATOM      2 O    ALA B   5       2.828  -7.463  15.219  1.00 33.98 LIG-0.27  OA
ATOM      3  N   LYS B   6       0.807  -6.725  14.580  1.00 33.85 LIG-0.35  N 
ATOM      4 H    LYS B   6      -0.048  -6.819  14.567  1.00 33.85 LIG 0.16  HD
ENDROOT
BRANCH 1 5
ATOM      5  CA  ALA B   5       0.979  -9.023  15.383  1.00 36.97 LIG 0.17  C 
ATOM      6  CB  ALA B   5       0.378  -8.996  16.774  1.00 36.60 LIG 0.04  C 
BRANCH 5 7
ATOM      7  N   ALA B   5       1.922 -10.127  15.285  1.00 38.84 LIG-0.35  N 
ATOM      8 H    ALA B   5       2.365 -10.270  16.007  1.00 38.84 LIG 0.16  HD
ATOM      9  C   LEU B   4       2.077 -10.843  14.176  1.00 41.06 LIG 0.24  C 
ATOM     10 O    LEU B   4       1.447 -10.634  13.151  1.00 41.71 LIG-0.27  OA
BRANCH 9 11
ATOM     11  CA  LEU B   4       3.125 -11.951  14.232  1.00 42.15 LIG 0.18  C 
BRANCH 11 12
ATOM     12  CB  LEU B   4       2.564 -13.166  14.945  1.00 42.64 LIG 0.04  C 
BRANCH 12 13
ATOM     13  CG  LEU B   4       2.569 -13.002  16.450  1.00 44.00 LIG-0.02  C 
ATOM     14  CD1 LEU B   4       1.157 -12.901  17.008  1.00 45.59 LIG 0.01  C 
ATOM     15  CD2 LEU B   4       3.359 -14.107  17.097  1.00 44.00 LIG 0.01  C 
ENDBRANCH 12 13
ENDBRANCH 11 12
BRANCH 11 16
ATOM     16  N   LEU B   4       4.383 -11.555  14.845  1.00 43.54 LIG-0.35  N 
ATOM     17 H    LEU B   4       4.291 -11.117  15.580  1.00 43.54 LIG 0.16  HD
ATOM     18  C   GLU B   3       5.564 -11.848  14.308  1.00 44.15 LIG 0.26  C 
ATOM     19 O    GLU B   3       5.713 -12.211  13.118  1.00 43.92 LIG-0.27  OA
BRANCH 18 20
ATOM     20  CA  GLU B   3       6.778 -11.597  15.213  1.00 44.40 LIG 0.40  C 
ATOM     21  N   GLU B   3       6.577 -12.200  16.570  1.00 44.72 LIG 0.61  N 
BRANCH 20 22
ATOM     22  CB  GLU B   3       8.066 -12.123  14.567  1.00 44.42 LIG 0.06  C 
BRANCH 22 23
ATOM     23  CG  GLU B   3       9.349 -11.690  15.301  1.00 45.14 LIG 0.12  C 
BRANCH 23 24
ATOM     24  CD  GLU B   3       9.555 -12.396  16.632  1.00 45.75 LIG 0.17  C 
ATOM     25 OE1  GLU B   3       8.839 -13.381  16.909  1.00 47.89 LIG-0.65  OA
ATOM     26 OE2  GLU B   3      10.428 -11.951  17.414  1.00 48.90 LIG-0.65  OA
ENDBRANCH 23 24
ENDBRANCH 22 23
ENDBRANCH 20 22
ENDBRANCH 18 20
ENDBRANCH 11 16
ENDBRANCH 9 11
ENDBRANCH 5 7
ENDBRANCH 1 5
BRANCH 3 27
ATOM     27  CA  LYS B   6       1.258  -5.447  14.049  1.00 32.68 LIG 0.18  C 
BRANCH 27 28
ATOM     28  CB  LYS B   6       0.593  -5.199  12.689  1.00 32.53 LIG 0.04  C 
BRANCH 28 29
ATOM     29  CG  LYS B   6       0.800  -6.301  11.665  1.00 31.52 LIG 0.00  C 
BRANCH 29 30
ATOM     30  CD  LYS B   6       2.156  -6.247  11.052  1.00 30.28 LIG 0.03  C 
BRANCH 30 31
ATOM     31  CE  LYS B   6       2.044  -5.969   9.566  1.00 31.86 LIG 0.23  C 
BRANCH 31 32
ATOM     32  NZ  LYS B   6       1.148  -4.826   9.270  1.00 30.58 LIG-0.08  N 
ATOM     33 HZ2  LYS B   6       1.187  -4.237   9.936  1.00 30.58 LIG 0.27  HD
ATOM     34 HZ3  LYS B   6       1.406  -4.435   8.513  1.00 30.58 LIG 0.27  HD
ATOM     35 HZ1  LYS B   6       0.313  -5.119   9.181  1.00 30.58 LIG 0.27  HD
ENDBRANCH 31 32
ENDBRANCH 30 31
ENDBRANCH 29 30
ENDBRANCH 28 29
ENDBRANCH 27 28
BRANCH 27 36
ATOM     36  C   LYS B   6       0.877  -4.306  14.971  1.00 31.47 LIG 0.24  C 
ATOM     37 O    LYS B   6      -0.257  -4.238  15.407  1.00 31.11 LIG-0.27  OA
ATOM     38  N   LEU B   7       1.811  -3.391  15.227  1.00 30.67 LIG-0.34  N 
ATOM     39 H    LEU B   7       2.615  -3.434  14.925  1.00 30.67 LIG 0.16  HD
BRANCH 38 40
ATOM     40  CA  LEU B   7       1.545  -2.212  16.060  1.00 30.14 LIG 0.18  C 
BRANCH 40 41
ATOM     41  C   LEU B   7       0.668  -1.186  15.320  1.00 29.60 LIG 0.20  C 
ATOM     42 OXT  LEU B   7       0.687  -1.145  14.082  1.00 28.85 LIG-0.65  OA
ATOM     43 O    LEU B   7      -0.035  -0.365  15.933  1.00 28.46 LIG-0.65  OA
ENDBRANCH 40 41
BRANCH 40 44
ATOM     44  CB  LEU B   7       2.847  -1.531  16.441  1.00 29.75 LIG 0.04  C 
BRANCH 44 45
ATOM     45  CG  LEU B   7       4.000  -2.306  17.074  1.00 29.52 LIG-0.02  C 
ATOM     46  CD2 LEU B   7       3.687  -2.703  18.516  1.00 28.78 LIG 0.01  C 
ATOM     47  CD1 LEU B   7       5.259  -1.435  16.980  1.00 27.65 LIG 0.01  C 
ENDBRANCH 44 45
ENDBRANCH 40 44
ENDBRANCH 38 40
ENDBRANCH 27 36
ENDBRANCH 3 27
TORSDOF 21
ENDMDL
MODEL 5
USER: ADFR SOLUTION from run 11
USER: SCORE 19.699402 LL:  -4.283 LR: -15.995 RR:   0.000 FEB:  -9.731
USER: RMSD 7.929112
USER: SEED 482773
USER: STATUS 1 or 2 clusters left
USER: GENES 23
USER: genes 0 Translation |==|  0.32140 0.68736 0.58965
USER: genes 1 Rotation |==|  0.57746 0.40371 0.98338 0.53272
USER: genes 2 Torsion [N]-C--CA-[N] |==|  0.93890
USER: genes 3 Torsion [C]-CA--N-[C] |==|  0.70174
USER: genes 4 Torsion [N]-C--CA-[N] |==|  0.92413
USER: genes 5 Torsion [C]-CA--CB-[CG] |==|  0.97988
USER: genes 6 Torsion [CA]-CB--CG-[CD1] |==|  0.30578
USER: genes 7 Torsion [C]-CA--N-[C] |==|  0.76943
USER: genes 8 Torsion [N]-C--CA-[N] |==|  0.19585
USER: genes 9 Torsion [C]-CA--CB-[CG] |==|  0.34646
USER: genes 10 Torsion [CA]-CB--CG-[CD] |==|  0.36684
USER: genes 11 Torsion [CB]-CG--CD-[OE2] |==|  0.04649
USER: genes 12 Torsion [C]-N--CA-[C] |==|  0.63603
USER: genes 13 Torsion [N]-CA--CB-[CG] |==|  0.27912
USER: genes 14 Torsion [CA]-CB--CG-[CD] |==|  0.47558
USER: genes 15 Torsion [CB]-CG--CD-[CE] |==|  0.41481
USER: genes 16 Torsion [CG]-CD--CE-[NZ] |==|  0.60284
USER: genes 17 Torsion [CD]-CE--NZ-[HZ2] |==|  0.63175
USER: genes 18 Torsion [N]-CA--C-[N] |==|  0.38681
USER: genes 19 Torsion [C]-N--CA-[C] |==|  0.69966
USER: genes 20 Torsion [N]-CA--C-[OXT] |==|  0.14598
USER: genes 21 Torsion [N]-CA--CB-[CG] |==|  0.90019
USER: genes 22 Torsion [CA]-CB--CG-[CD2] |==|  0.85461
ROOT
ATOM      1  C   ALA B   5       0.633  -3.939  15.080  1.00 35.38 LIG 0.24  C 
ATOM      2 O    ALA B   5      -0.549  -4.076  15.372  1.00 33.98 LIG-0.27  OA
ATOM      3  N   LYS B   6       1.255  -4.726  14.206  1.00 33.85 LIG-0.35  N 
ATOM      4 H    LYS B   6       2.107  -4.712  14.087  1.00 33.85 LIG 0.16  HD
ENDROOT
BRANCH 1 5
ATOM      5  CA  ALA B   5       1.509  -2.849  15.745  1.00 36.97 LIG 0.17  C 
ATOM      6  CB  ALA B   5       1.282  -1.503  15.085  1.00 36.60 LIG 0.04  C 
BRANCH 5 7
ATOM      7  N   ALA B   5       2.925  -3.177  15.701  1.00 38.84 LIG-0.35  N 
ATOM      8 H    ALA B   5       3.275  -3.102  14.919  1.00 38.84 LIG 0.16  HD
ATOM      9  C   LEU B   4       3.610  -3.556  16.775  1.00 41.06 LIG 0.24  C 
ATOM     10 O    LEU B   4       3.107  -3.664  17.883  1.00 41.71 LIG-0.27  OA
BRANCH 9 11
ATOM     11  CA  LEU B   4       5.082  -3.887  16.553  1.00 42.15 LIG 0.18  C 
BRANCH 11 12
ATOM     12  CB  LEU B   4       5.946  -2.692  16.904  1.00 42.64 LIG 0.04  C 
BRANCH 12 13
ATOM     13  CG  LEU B   4       5.122  -1.457  17.203  1.00 44.00 LIG-0.02  C 
ATOM     14  CD1 LEU B   4       5.177  -1.090  18.679  1.00 45.59 LIG 0.01  C 
ATOM     15  CD2 LEU B   4       5.543  -0.316  16.317  1.00 44.00 LIG 0.01  C 
ENDBRANCH 12 13
ENDBRANCH 11 12
BRANCH 11 16
ATOM     16  N   LEU B   4       5.396  -4.348  15.210  1.00 43.54 LIG-0.35  N 
ATOM     17 H    LEU B   4       5.696  -3.732  14.690  1.00 43.54 LIG 0.16  HD
ATOM     18  C   GLU B   3       5.231  -5.613  14.831  1.00 44.15 LIG 0.26  C 
ATOM     19 O    GLU B   3       4.532  -6.439  15.461  1.00 43.92 LIG-0.27  OA
BRANCH 18 20
ATOM     20  CA  GLU B   3       5.861  -5.981  13.480  1.00 44.40 LIG 0.40  C 
ATOM     21  N   GLU B   3       7.356  -6.004  13.567  1.00 44.72 LIG 0.61  N 
BRANCH 20 22
ATOM     22  CB  GLU B   3       5.322  -7.323  12.968  1.00 44.42 LIG 0.06  C 
BRANCH 22 23
ATOM     23  CG  GLU B   3       4.710  -7.247  11.557  1.00 45.14 LIG 0.12  C 
BRANCH 23 24
ATOM     24  CD  GLU B   3       5.198  -8.344  10.623  1.00 45.75 LIG 0.17  C 
ATOM     25 OE1  GLU B   3       5.014  -8.215   9.394  1.00 47.89 LIG-0.65  OA
ATOM     26 OE2  GLU B   3       5.756  -9.348  11.123  1.00 48.90 LIG-0.65  OA
ENDBRANCH 23 24
ENDBRANCH 22 23
ENDBRANCH 20 22
ENDBRANCH 18 20
ENDBRANCH 11 16
ENDBRANCH 9 11
ENDBRANCH 5 7
ENDBRANCH 1 5
BRANCH 3 27
ATOM     27  CA  LYS B   6       0.566  -5.690  13.360  1.00 32.68 LIG 0.18  C 
BRANCH 27 28
ATOM     28  CB  LYS B   6       0.607  -5.207  11.904  1.00 32.53 LIG 0.04  C 
BRANCH 28 29
ATOM     29  CG  LYS B   6       1.659  -5.875  11.037  1.00 31.52 LIG 0.00  C 
BRANCH 29 30
ATOM     30  CD  LYS B   6       1.508  -5.519   9.599  1.00 30.28 LIG 0.03  C 
BRANCH 30 31
ATOM     31  CE  LYS B   6       2.863  -5.526   8.918  1.00 31.86 LIG 0.23  C 
BRANCH 31 32
ATOM     32  NZ  LYS B   6       2.994  -4.451   7.906  1.00 30.58 LIG-0.08  N 
ATOM     33 HZ2  LYS B   6       3.329  -4.790   7.154  1.00 30.58 LIG 0.27  HD
ATOM     34 HZ3  LYS B   6       2.194  -4.098   7.742  1.00 30.58 LIG 0.27  HD
ATOM     35 HZ1  LYS B   6       3.539  -3.818   8.214  1.00 30.58 LIG 0.27  HD
ENDBRANCH 31 32
ENDBRANCH 30 31
ENDBRANCH 29 30
ENDBRANCH 28 29
ENDBRANCH 27 28
BRANCH 27 36
ATOM     36  C   LYS B   6       1.235  -7.048  13.421  1.00 31.47 LIG 0.24  C 
ATOM     37 O    LYS B   6       2.449  -7.123  13.386  1.00 31.11 LIG-0.27  OA
ATOM     38  N   LEU B   7       0.441  -8.117  13.466  1.00 30.67 LIG-0.34  N 
ATOM     39 H    LEU B   7      -0.417  -8.072  13.494  1.00 30.67 LIG 0.16  HD
BRANCH 38 40
ATOM     40  CA  LEU B   7       0.969  -9.487  13.473  1.00 30.14 LIG 0.18  C 
BRANCH 40 41
ATOM     41  C   LEU B   7       0.711 -10.196  12.132  1.00 29.60 LIG 0.20  C 
ATOM     42 OXT  LEU B   7       1.062  -9.652  11.075  1.00 28.85 LIG-0.65  OA
ATOM     43 O    LEU B   7       0.123 -11.290  12.074  1.00 28.46 LIG-0.65  OA
ENDBRANCH 40 41
BRANCH 40 44
ATOM     44  CB  LEU B   7       0.310 -10.301  14.571  1.00 29.75 LIG 0.04  C 
BRANCH 44 45
ATOM     45  CG  LEU B   7      -0.064  -9.678  15.914  1.00 29.52 LIG-0.02  C 
ATOM     46  CD2 LEU B   7       1.123  -8.954  16.549  1.00 28.78 LIG 0.01  C 
ATOM     47  CD1 LEU B   7      -0.601 -10.796  16.816  1.00 27.65 LIG 0.01  C 
ENDBRANCH 44 45
ENDBRANCH 40 44
ENDBRANCH 38 40
ENDBRANCH 27 36
ENDBRANCH 3 27
TORSDOF 21
ENDMDL
MODEL 6
USER: ADFR SOLUTION from run 131
USER: SCORE 19.536726 LL:  -4.143 LR: -15.871 RR:   0.000 FEB:  -9.607
USER: RMSD 1.635195
USER: SEED 130
USER: STATUS searching
USER: GENES 23
USER: genes 0 Translation |==|  0.39078 0.53701 0.59270
USER: genes 1 Rotation |==|  0.48641 0.48074 0.49286 0.99939
USER: genes 2 Torsion [N]-C--CA-[N] |==|  0.38995
USER: genes 3 Torsion [C]-CA--N-[C] |==|  0.71819
USER: genes 4 Torsion [N]-C--CA-[N] |==|  0.42437
USER: genes 5 Torsion [C]-CA--CB-[CG] |==|  0.29070
USER: genes 6 Torsion [CA]-CB--CG-[CD1] |==|  0.70457
USER: genes 7 Torsion [C]-CA--N-[C] |==|  0.68159
USER: genes 8 Torsion [N]-C--CA-[N] |==|  0.51997
USER: genes 9 Torsion [C]-CA--CB-[CG] |==|  0.54624
USER: genes 10 Torsion [CA]-CB--CG-[CD] |==|  0.23829
USER: genes 11 Torsion [CB]-CG--CD-[OE2] |==|  0.47952
USER: genes 12 Torsion [C]-N--CA-[C] |==|  0.69047
USER: genes 13 Torsion [N]-CA--CB-[CG] |==|  0.93665
USER: genes 14 Torsion [CA]-CB--CG-[CD] |==|  0.73837
USER: genes 15 Torsion [CB]-CG--CD-[CE] |==|  0.90780
USER: genes 16 Torsion [CG]-CD--CE-[NZ] |==|  0.79514
USER: genes 17 Torsion [CD]-CE--NZ-[HZ2] |==|  0.16200
USER: genes 18 Torsion [N]-CA--C-[N] |==|  0.37532
USER: genes 19 Torsion [C]-N--CA-[C] |==|  0.79170
USER: genes 20 Torsion [N]-CA--C-[OXT] |==|  0.91553
USER: genes 21 Torsion [N]-CA--CB-[CG] |==|  0.85801
USER: genes 22 Torsion [CA]-CB--CG-[CD2] |==|  0.78704
ROOT
ATOM      1  C   ALA B   5       1.674  -7.660  15.140  1.00 35.38 LIG 0.24  C 
ATOM      2 O    ALA B   5       2.879  -7.450  15.206  1.00 33.98 LIG-0.27  OA
ATOM      3  N   LYS B   6       0.803  -6.739  14.732  1.00 33.85 LIG-0.35  N 
ATOM      4 H    LYS B   6      -0.049  -6.839  14.797  1.00 33.85 LIG 0.16  HD
ENDROOT
BRANCH 1 5
ATOM      5  CA  ALA B   5       1.065  -9.018  15.566  1.00 36.97 LIG 0.17  C 
ATOM      6  CB  ALA B   5       0.891  -9.078  17.071  1.00 36.60 LIG 0.04  C 
BRANCH 5 7
ATOM      7  N   ALA B   5       1.870 -10.146  15.127  1.00 38.84 LIG-0.35  N 
ATOM      8 H    ALA B   5       2.564 -10.290  15.616  1.00 38.84 LIG 0.16  HD
ATOM      9  C   LEU B   4       1.558 -10.884  14.067  1.00 41.06 LIG 0.24  C 
ATOM     10 O    LEU B   4       0.574 -10.675  13.374  1.00 41.71 LIG-0.27  OA
BRANCH 9 11
ATOM     11  CA  LEU B   4       2.522 -12.017  13.727  1.00 42.15 LIG 0.18  C 
BRANCH 11 12
ATOM     12  CB  LEU B   4       3.690 -11.486  12.920  1.00 42.64 LIG 0.04  C 
BRANCH 12 13
ATOM     13  CG  LEU B   4       4.954 -11.373  13.747  1.00 44.00 LIG-0.02  C 
ATOM     14  CD1 LEU B   4       5.280  -9.925  14.081  1.00 45.59 LIG 0.01  C 
ATOM     15  CD2 LEU B   4       4.854 -12.232  14.979  1.00 44.00 LIG 0.01  C 
ENDBRANCH 12 13
ENDBRANCH 11 12
BRANCH 11 16
ATOM     16  N   LEU B   4       1.907 -13.136  13.030  1.00 43.54 LIG-0.35  N 
ATOM     17 H    LEU B   4       1.615 -12.941  12.245  1.00 43.54 LIG 0.16  HD
ATOM     18  C   GLU B   3       1.812 -14.349  13.569  1.00 44.15 LIG 0.26  C 
ATOM     19 O    GLU B   3       1.954 -14.577  14.792  1.00 43.92 LIG-0.27  OA
BRANCH 18 20
ATOM     20  CA  GLU B   3       1.389 -15.464  12.603  1.00 44.40 LIG 0.40  C 
ATOM     21  N   GLU B   3       1.142 -16.750  13.332  1.00 44.72 LIG 0.61  N 
BRANCH 20 22
ATOM     22  CB  GLU B   3       0.154 -15.051  11.791  1.00 44.42 LIG 0.06  C 
BRANCH 22 23
ATOM     23  CG  GLU B   3      -0.565 -16.233  11.112  1.00 45.14 LIG 0.12  C 
BRANCH 23 24
ATOM     24  CD  GLU B   3      -1.576 -16.926  12.012  1.00 45.75 LIG 0.17  C 
ATOM     25 OE1  GLU B   3      -1.626 -16.608  13.219  1.00 47.89 LIG-0.65  OA
ATOM     26 OE2  GLU B   3      -2.313 -17.808  11.513  1.00 48.90 LIG-0.65  OA
ENDBRANCH 23 24
ENDBRANCH 22 23
ENDBRANCH 20 22
ENDBRANCH 18 20
ENDBRANCH 11 16
ENDBRANCH 9 11
ENDBRANCH 5 7
ENDBRANCH 1 5
BRANCH 3 27
ATOM     27  CA  LYS B   6       1.195  -5.471  14.136  1.00 32.68 LIG 0.18  C 
BRANCH 27 28
ATOM     28  CB  LYS B   6       0.423  -5.265  12.826  1.00 32.53 LIG 0.04  C 
BRANCH 28 29
ATOM     29  CG  LYS B   6      -0.096  -6.539  12.183  1.00 31.52 LIG 0.00  C 
BRANCH 29 30
ATOM     30  CD  LYS B   6       0.847  -7.072  11.160  1.00 30.28 LIG 0.03  C 
BRANCH 30 31
ATOM     31  CE  LYS B   6       1.563  -5.929  10.468  1.00 31.86 LIG 0.23  C 
BRANCH 31 32
ATOM     32  NZ  LYS B   6       0.686  -5.201   9.522  1.00 30.58 LIG-0.08  N 
ATOM     33 HZ2  LYS B   6      -0.022  -4.882   9.957  1.00 30.58 LIG 0.27  HD
ATOM     34 HZ3  LYS B   6       1.138  -4.526   9.157  1.00 30.58 LIG 0.27  HD
ATOM     35 HZ1  LYS B   6       0.415  -5.755   8.881  1.00 30.58 LIG 0.27  HD
ENDBRANCH 31 32
ENDBRANCH 30 31
ENDBRANCH 29 30
ENDBRANCH 28 29
ENDBRANCH 27 28
BRANCH 27 36
ATOM     36  C   LYS B   6       0.872  -4.310  15.056  1.00 31.47 LIG 0.24  C 
ATOM     37 O    LYS B   6      -0.224  -4.246  15.581  1.00 31.11 LIG-0.27  OA
ATOM     38  N   LEU B   7       1.809  -3.376  15.212  1.00 30.67 LIG-0.34  N 
ATOM     39 H    LEU B   7       2.586  -3.416  14.847  1.00 30.67 LIG 0.16  HD
BRANCH 38 40
ATOM     40  CA  LEU B   7       1.593  -2.178  16.033  1.00 30.14 LIG 0.18  C 
BRANCH 40 41
ATOM     41  C   LEU B   7       0.681  -1.164  15.320  1.00 29.60 LIG 0.20  C 
ATOM     42 OXT  LEU B   7       0.687  -1.100  14.082  1.00 28.85 LIG-0.65  OA
ATOM     43 O    LEU B   7      -0.038  -0.373  15.954  1.00 28.46 LIG-0.65  OA
ENDBRANCH 40 41
BRANCH 40 44
ATOM     44  CB  LEU B   7       2.916  -1.496  16.329  1.00 29.75 LIG 0.04  C 
BRANCH 44 45
ATOM     45  CG  LEU B   7       4.105  -2.268  16.895  1.00 29.52 LIG-0.02  C 
ATOM     46  CD2 LEU B   7       3.934  -2.549  18.388  1.00 28.78 LIG 0.01  C 
ATOM     47  CD1 LEU B   7       5.373  -1.454  16.607  1.00 27.65 LIG 0.01  C 
ENDBRANCH 44 45
ENDBRANCH 40 44
ENDBRANCH 38 40
ENDBRANCH 27 36
ENDBRANCH 3 27
TORSDOF 21
ENDMDL
MODEL 7
USER: ADFR SOLUTION from run 150
USER: SCORE 16.084300 LL:  -3.132 LR: -15.819 RR:   0.000 FEB:  -9.554
USER: RMSD 7.548129
USER: SEED 149
USER: STATUS 1 or 2 clusters left
USER: GENES 23
USER: genes 0 Translation |==|  0.33607 0.65376 0.59918
USER: genes 1 Rotation |==|  0.47617 0.99432 0.56178 0.53548
USER: genes 2 Torsion [N]-C--CA-[N] |==|  0.58389
USER: genes 3 Torsion [C]-CA--N-[C] |==|  0.44254
USER: genes 4 Torsion [N]-C--CA-[N] |==|  0.25947
USER: genes 5 Torsion [C]-CA--CB-[CG] |==|  0.11548
USER: genes 6 Torsion [CA]-CB--CG-[CD1] |==|  0.14773
USER: genes 7 Torsion [C]-CA--N-[C] |==|  0.15577
USER: genes 8 Torsion [N]-C--CA-[N] |==|  0.45893
USER: genes 9 Torsion [C]-CA--CB-[CG] |==|  0.59648
USER: genes 10 Torsion [CA]-CB--CG-[CD] |==|  0.73098
USER: genes 11 Torsion [CB]-CG--CD-[OE2] |==|  0.49633
USER: genes 12 Torsion [C]-N--CA-[C] |==|  0.76222
USER: genes 13 Torsion [N]-CA--CB-[CG] |==|  0.17547
USER: genes 14 Torsion [CA]-CB--CG-[CD] |==|  0.64017
USER: genes 15 Torsion [CB]-CG--CD-[CE] |==|  0.81977
USER: genes 16 Torsion [CG]-CD--CE-[NZ] |==|  0.26382
USER: genes 17 Torsion [CD]-CE--NZ-[HZ2] |==|  0.19398
USER: genes 18 Torsion [N]-CA--C-[N] |==|  0.47778
USER: genes 19 Torsion [C]-N--CA-[C] |==|  0.56075
USER: genes 20 Torsion [N]-CA--C-[OXT] |==|  0.41314
USER: genes 21 Torsion [N]-CA--CB-[CG] |==|  0.56409
USER: genes 22 Torsion [CA]-CB--CG-[CD2] |==|  0.08368
ROOT
ATOM      1  C   ALA B   5       0.853  -4.770  15.266  1.00 35.38 LIG 0.24  C 
ATOM      2 O    ALA B   5      -0.359  -4.632  15.155  1.00 33.98 LIG-0.27  OA
ATOM      3  N   LYS B   6       1.624  -3.890  15.900  1.00 33.85 LIG-0.35  N 
ATOM      4 H    LYS B   6       2.483  -3.919  15.878  1.00 33.85 LIG 0.16  HD
ENDROOT
BRANCH 1 5
ATOM      5  CA  ALA B   5       1.590  -5.978  14.636  1.00 36.97 LIG 0.17  C 
ATOM      6  CB  ALA B   5       3.019  -5.610  14.287  1.00 36.60 LIG 0.04  C 
BRANCH 5 7
ATOM      7  N   ALA B   5       0.915  -6.478  13.449  1.00 38.84 LIG-0.35  N 
ATOM      8 H    ALA B   5       0.086  -6.254  13.400  1.00 38.84 LIG 0.16  HD
ATOM      9  C   LEU B   4       1.530  -7.212  12.528  1.00 41.06 LIG 0.24  C 
ATOM     10 O    LEU B   4       2.707  -7.530  12.603  1.00 41.71 LIG-0.27  OA
BRANCH 9 11
ATOM     11  CA  LEU B   4       0.672  -7.677  11.354  1.00 42.15 LIG 0.18  C 
BRANCH 11 12
ATOM     12  CB  LEU B   4       1.062  -9.084  10.946  1.00 42.64 LIG 0.04  C 
BRANCH 12 13
ATOM     13  CG  LEU B   4       1.310  -9.980  12.142  1.00 44.00 LIG-0.02  C 
ATOM     14  CD1 LEU B   4       0.133  -9.969  13.105  1.00 45.59 LIG 0.01  C 
ATOM     15  CD2 LEU B   4       1.664 -11.371  11.692  1.00 44.00 LIG 0.01  C 
ENDBRANCH 12 13
ENDBRANCH 11 12
BRANCH 11 16
ATOM     16  N   LEU B   4       0.714  -6.797  10.197  1.00 43.54 LIG-0.35  N 
ATOM     17 H    LEU B   4      -0.058  -6.515   9.944  1.00 43.54 LIG 0.16  HD
ATOM     18  C   GLU B   3       1.852  -6.463   9.593  1.00 44.15 LIG 0.26  C 
ATOM     19 O    GLU B   3       2.929  -7.081   9.753  1.00 43.92 LIG-0.27  OA
BRANCH 18 20
ATOM     20  CA  GLU B   3       1.742  -5.322   8.572  1.00 44.40 LIG 0.40  C 
ATOM     21  N   GLU B   3       3.092  -4.781   8.214  1.00 44.72 LIG 0.61  N 
BRANCH 20 22
ATOM     22  CB  GLU B   3       0.986  -5.778   7.316  1.00 44.42 LIG 0.06  C 
BRANCH 22 23
ATOM     23  CG  GLU B   3       1.505  -5.139   6.014  1.00 45.14 LIG 0.12  C 
BRANCH 23 24
ATOM     24  CD  GLU B   3       0.703  -3.925   5.572  1.00 45.75 LIG 0.17  C 
ATOM     25 OE1  GLU B   3      -0.293  -3.583   6.243  1.00 47.89 LIG-0.65  OA
ATOM     26 OE2  GLU B   3       1.063  -3.318   4.536  1.00 48.90 LIG-0.65  OA
ENDBRANCH 23 24
ENDBRANCH 22 23
ENDBRANCH 20 22
ENDBRANCH 18 20
ENDBRANCH 11 16
ENDBRANCH 9 11
ENDBRANCH 5 7
ENDBRANCH 1 5
BRANCH 3 27
ATOM     27  CA  LYS B   6       1.100  -2.789  16.694  1.00 32.68 LIG 0.18  C 
BRANCH 27 28
ATOM     28  CB  LYS B   6       2.146  -2.374  17.738  1.00 32.53 LIG 0.04  C 
BRANCH 28 29
ATOM     29  CG  LYS B   6       3.445  -1.837  17.165  1.00 31.52 LIG 0.00  C 
BRANCH 29 30
ATOM     30  CD  LYS B   6       4.636  -2.508  17.756  1.00 30.28 LIG 0.03  C 
BRANCH 30 31
ATOM     31  CE  LYS B   6       4.730  -2.189  19.235  1.00 31.86 LIG 0.23  C 
BRANCH 31 32
ATOM     32  NZ  LYS B   6       4.105  -3.232  20.081  1.00 30.58 LIG-0.08  N 
ATOM     33 HZ2  LYS B   6       4.598  -3.973  20.052  1.00 30.58 LIG 0.27  HD
ATOM     34 HZ3  LYS B   6       4.054  -2.943  20.921  1.00 30.58 LIG 0.27  HD
ATOM     35 HZ1  LYS B   6       3.287  -3.409  19.779  1.00 30.58 LIG 0.27  HD
ENDBRANCH 31 32
ENDBRANCH 30 31
ENDBRANCH 29 30
ENDBRANCH 28 29
ENDBRANCH 27 28
BRANCH 27 36
ATOM     36  C   LYS B   6       0.801  -1.582  15.828  1.00 31.47 LIG 0.24  C 
ATOM     37 O    LYS B   6       1.178  -1.564  14.671  1.00 31.11 LIG-0.27  OA
ATOM     38  N   LEU B   7       0.164  -0.562  16.402  1.00 30.67 LIG-0.34  N 
ATOM     39 H    LEU B   7      -0.108  -0.569  17.217  1.00 30.67 LIG 0.16  HD
BRANCH 38 40
ATOM     40  CA  LEU B   7      -0.133   0.682  15.680  1.00 30.14 LIG 0.18  C 
BRANCH 40 41
ATOM     41  C   LEU B   7      -0.361   1.854  16.651  1.00 29.60 LIG 0.20  C 
ATOM     42 OXT  LEU B   7      -0.053   3.004  16.305  1.00 28.85 LIG-0.65  OA
ATOM     43 O    LEU B   7      -0.813   1.677  17.795  1.00 28.46 LIG-0.65  OA
ENDBRANCH 40 41
BRANCH 40 44
ATOM     44  CB  LEU B   7      -1.385   0.517  14.839  1.00 29.75 LIG 0.04  C 
BRANCH 44 45
ATOM     45  CG  LEU B   7      -1.653   1.400  13.622  1.00 29.52 LIG-0.02  C 
ATOM     46  CD2 LEU B   7      -0.353   1.850  12.957  1.00 28.78 LIG 0.01  C 
ATOM     47  CD1 LEU B   7      -2.502   2.591  14.085  1.00 27.65 LIG 0.01  C 
ENDBRANCH 44 45
ENDBRANCH 40 44
ENDBRANCH 38 40
ENDBRANCH 27 36
ENDBRANCH 3 27
TORSDOF 21
ENDMDL
MODEL 8
USER: ADFR SOLUTION from run 116
USER: SCORE 19.477206 LL:  -4.548 LR: -15.463 RR:   0.000 FEB:  -9.199
USER: RMSD 4.284374
USER: SEED 115
USER: STATUS no improvement in best in 3 clusters for 5 generations
USER: GENES 23
USER: genes 0 Translation |==|  0.37834 0.54934 0.61230
USER: genes 1 Rotation |==|  0.45599 0.37731 0.54381 0.98072
USER: genes 2 Torsion [N]-C--CA-[N] |==|  0.29069
USER: genes 3 Torsion [C]-CA--N-[C] |==|  0.70093
USER: genes 4 Torsion [N]-C--CA-[N] |==|  0.89469
USER: genes 5 Torsion [C]-CA--CB-[CG] |==|  0.83040
USER: genes 6 Torsion [CA]-CB--CG-[CD1] |==|  0.29962
USER: genes 7 Torsion [C]-CA--N-[C] |==|  0.79486
USER: genes 8 Torsion [N]-C--CA-[N] |==|  0.50721
USER: genes 9 Torsion [C]-CA--CB-[CG] |==|  0.71783
USER: genes 10 Torsion [CA]-CB--CG-[CD] |==|  0.15030
USER: genes 11 Torsion [CB]-CG--CD-[OE2] |==|  0.64626
USER: genes 12 Torsion [C]-N--CA-[C] |==|  0.76671
USER: genes 13 Torsion [N]-CA--CB-[CG] |==|  0.94607
USER: genes 14 Torsion [CA]-CB--CG-[CD] |==|  0.73455
USER: genes 15 Torsion [CB]-CG--CD-[CE] |==|  0.92562
USER: genes 16 Torsion [CG]-CD--CE-[NZ] |==|  0.79434
USER: genes 17 Torsion [CD]-CE--NZ-[HZ2] |==|  0.48003
USER: genes 18 Torsion [N]-CA--C-[N] |==|  0.35209
USER: genes 19 Torsion [C]-N--CA-[C] |==|  0.80626
USER: genes 20 Torsion [N]-CA--C-[OXT] |==|  0.91990
USER: genes 21 Torsion [N]-CA--CB-[CG] |==|  0.88468
USER: genes 22 Torsion [CA]-CB--CG-[CD2] |==|  0.78335
ROOT
ATOM      1  C   ALA B   5       1.487  -7.355  15.522  1.00 35.38 LIG 0.24  C 
ATOM      2 O    ALA B   5       2.501  -6.867  16.006  1.00 33.98 LIG-0.27  OA
ATOM      3  N   LYS B   6       0.714  -6.701  14.657  1.00 33.85 LIG-0.35  N 
ATOM      4 H    LYS B   6      -0.057  -6.988  14.408  1.00 33.85 LIG 0.16  HD
ENDROOT
BRANCH 1 5
ATOM      5  CA  ALA B   5       1.004  -8.773  15.915  1.00 36.97 LIG 0.17  C 
ATOM      6  CB  ALA B   5       1.058  -8.959  17.418  1.00 36.60 LIG 0.04  C 
BRANCH 5 7
ATOM      7  N   ALA B   5       1.781  -9.818  15.269  1.00 38.84 LIG-0.35  N 
ATOM      8 H    ALA B   5       2.577  -9.905  15.584  1.00 38.84 LIG 0.16  HD
ATOM      9  C   LEU B   4       1.300 -10.569  14.284  1.00 41.06 LIG 0.24  C 
ATOM     10 O    LEU B   4       0.170 -10.440  13.837  1.00 41.71 LIG-0.27  OA
BRANCH 9 11
ATOM     11  CA  LEU B   4       2.253 -11.606  13.699  1.00 42.15 LIG 0.18  C 
BRANCH 11 12
ATOM     12  CB  LEU B   4       2.187 -12.889  14.504  1.00 42.64 LIG 0.04  C 
BRANCH 12 13
ATOM     13  CG  LEU B   4       2.595 -12.683  15.947  1.00 44.00 LIG-0.02  C 
ATOM     14  CD1 LEU B   4       1.400 -12.759  16.885  1.00 45.59 LIG 0.01  C 
ATOM     15  CD2 LEU B   4       3.681 -13.652  16.330  1.00 44.00 LIG 0.01  C 
ENDBRANCH 12 13
ENDBRANCH 11 12
BRANCH 11 16
ATOM     16  N   LEU B   4       3.633 -11.159  13.593  1.00 43.54 LIG-0.35  N 
ATOM     17 H    LEU B   4       4.159 -11.508  14.177  1.00 43.54 LIG 0.16  HD
ATOM     18  C   GLU B   3       4.033 -10.286  12.672  1.00 44.15 LIG 0.26  C 
ATOM     19 O    GLU B   3       3.250  -9.555  12.023  1.00 43.92 LIG-0.27  OA
BRANCH 18 20
ATOM     20  CA  GLU B   3       5.554 -10.134  12.528  1.00 44.40 LIG 0.40  C 
ATOM     21  N   GLU B   3       5.902  -9.088  11.514  1.00 44.72 LIG 0.61  N 
BRANCH 20 22
ATOM     22  CB  GLU B   3       6.206  -9.822  13.882  1.00 44.42 LIG 0.06  C 
BRANCH 22 23
ATOM     23  CG  GLU B   3       6.566  -8.336  14.068  1.00 45.14 LIG 0.12  C 
BRANCH 23 24
ATOM     24  CD  GLU B   3       5.393  -7.394  13.844  1.00 45.75 LIG 0.17  C 
ATOM     25 OE1  GLU B   3       4.325  -7.606  14.457  1.00 47.89 LIG-0.65  OA
ATOM     26 OE2  GLU B   3       5.536  -6.446  13.038  1.00 48.90 LIG-0.65  OA
ENDBRANCH 23 24
ENDBRANCH 22 23
ENDBRANCH 20 22
ENDBRANCH 18 20
ENDBRANCH 11 16
ENDBRANCH 9 11
ENDBRANCH 5 7
ENDBRANCH 1 5
BRANCH 3 27
ATOM     27  CA  LYS B   6       1.088  -5.435  14.043  1.00 32.68 LIG 0.18  C 
BRANCH 27 28
ATOM     28  CB  LYS B   6       0.308  -5.257  12.734  1.00 32.53 LIG 0.04  C 
BRANCH 28 29
ATOM     29  CG  LYS B   6      -0.266  -6.535  12.151  1.00 31.52 LIG 0.00  C 
BRANCH 29 30
ATOM     30  CD  LYS B   6       0.627  -7.130  11.119  1.00 30.28 LIG 0.03  C 
BRANCH 30 31
ATOM     31  CE  LYS B   6       1.469  -6.046  10.474  1.00 31.86 LIG 0.23  C 
BRANCH 31 32
ATOM     32  NZ  LYS B   6       0.687  -5.201   9.542  1.00 30.58 LIG-0.08  N 
ATOM     33 HZ2  LYS B   6       1.188  -4.519   9.267  1.00 30.58 LIG 0.27  HD
ATOM     34 HZ3  LYS B   6       0.437  -5.686   8.839  1.00 30.58 LIG 0.27  HD
ATOM     35 HZ1  LYS B   6      -0.035  -4.889   9.957  1.00 30.58 LIG 0.27  HD
ENDBRANCH 31 32
ENDBRANCH 30 31
ENDBRANCH 29 30
ENDBRANCH 28 29
ENDBRANCH 27 28
BRANCH 27 36
ATOM     36  C   LYS B   6       0.755  -4.267  14.949  1.00 31.47 LIG 0.24  C 
ATOM     37 O    LYS B   6      -0.383  -4.127  15.356  1.00 31.11 LIG-0.27  OA
ATOM     38  N   LEU B   7       1.737  -3.410  15.226  1.00 30.67 LIG-0.34  N 
ATOM     39 H    LEU B   7       2.544  -3.504  14.945  1.00 30.67 LIG 0.16  HD
BRANCH 38 40
ATOM     40  CA  LEU B   7       1.523  -2.212  16.046  1.00 30.14 LIG 0.18  C 
BRANCH 40 41
ATOM     41  C   LEU B   7       0.661  -1.171  15.309  1.00 29.60 LIG 0.20  C 
ATOM     42 OXT  LEU B   7       0.687  -1.121  14.071  1.00 28.85 LIG-0.65  OA
ATOM     43 O    LEU B   7      -0.038  -0.347  15.925  1.00 28.46 LIG-0.65  OA
ENDBRANCH 40 41
BRANCH 40 44
ATOM     44  CB  LEU B   7       2.852  -1.564  16.389  1.00 29.75 LIG 0.04  C 
BRANCH 44 45
ATOM     45  CG  LEU B   7       4.069  -2.396  16.785  1.00 29.52 LIG-0.02  C 
ATOM     46  CD2 LEU B   7       3.977  -2.874  18.234  1.00 28.78 LIG 0.01  C 
ATOM     47  CD1 LEU B   7       5.320  -1.542  16.543  1.00 27.65 LIG 0.01  C 
ENDBRANCH 44 45
ENDBRANCH 40 44
ENDBRANCH 38 40
ENDBRANCH 27 36
ENDBRANCH 3 27
TORSDOF 21
ENDMDL
MODEL 9
USER: ADFR SOLUTION from run 175
USER: SCORE 16.822318 LL:  -3.817 LR: -15.394 RR:   0.000 FEB:  -9.130
USER: RMSD 4.277068
USER: SEED 174
USER: STATUS no improvement in best in 2 clusters for 5 generations
USER: GENES 23
USER: genes 0 Translation |==|  0.40272 0.56909 0.56566
USER: genes 1 Rotation |==|  0.63350 0.08119 0.71121 0.61030
USER: genes 2 Torsion [N]-C--CA-[N] |==|  0.59994
USER: genes 3 Torsion [C]-CA--N-[C] |==|  0.18164
USER: genes 4 Torsion [N]-C--CA-[N] |==|  0.85154
USER: genes 5 Torsion [C]-CA--CB-[CG] |==|  0.06557
USER: genes 6 Torsion [CA]-CB--CG-[CD1] |==|  0.17013
USER: genes 7 Torsion [C]-CA--N-[C] |==|  0.52289
USER: genes 8 Torsion [N]-C--CA-[N] |==|  0.96567
USER: genes 9 Torsion [C]-CA--CB-[CG] |==|  0.46757
USER: genes 10 Torsion [CA]-CB--CG-[CD] |==|  0.88639
USER: genes 11 Torsion [CB]-CG--CD-[OE2] |==|  0.93787
USER: genes 12 Torsion [C]-N--CA-[C] |==|  0.15554
USER: genes 13 Torsion [N]-CA--CB-[CG] |==|  0.80460
USER: genes 14 Torsion [CA]-CB--CG-[CD] |==|  0.99480
USER: genes 15 Torsion [CB]-CG--CD-[CE] |==|  0.53198
USER: genes 16 Torsion [CG]-CD--CE-[NZ] |==|  0.23797
USER: genes 17 Torsion [CD]-CE--NZ-[HZ2] |==|  0.78946
USER: genes 18 Torsion [N]-CA--C-[N] |==|  0.18771
USER: genes 19 Torsion [C]-N--CA-[C] |==|  0.77267
USER: genes 20 Torsion [N]-CA--C-[OXT] |==|  0.46872
USER: genes 21 Torsion [N]-CA--CB-[CG] |==|  0.78318
USER: genes 22 Torsion [CA]-CB--CG-[CD2] |==|  0.59226
ROOT
ATOM      1  C   ALA B   5       1.853  -6.866  14.612  1.00 35.38 LIG 0.24  C 
ATOM      2 O    ALA B   5       0.788  -7.046  15.192  1.00 33.98 LIG-0.27  OA
ATOM      3  N   LYS B   6       2.017  -5.930  13.681  1.00 33.85 LIG-0.35  N 
ATOM      4 H    LYS B   6       2.721  -5.877  13.189  1.00 33.85 LIG 0.16  HD
ENDROOT
BRANCH 1 5
ATOM      5  CA  ALA B   5       3.090  -7.752  14.900  1.00 36.97 LIG 0.17  C 
ATOM      6  CB  ALA B   5       4.051  -7.725  13.729  1.00 36.60 LIG 0.04  C 
BRANCH 5 7
ATOM      7  N   ALA B   5       2.726  -9.128  15.196  1.00 38.84 LIG-0.35  N 
ATOM      8 H    ALA B   5       2.909  -9.371  16.000  1.00 38.84 LIG 0.16  HD
ATOM      9  C   LEU B   4       2.161  -9.932  14.300  1.00 41.06 LIG 0.24  C 
ATOM     10 O    LEU B   4       1.906  -9.583  13.158  1.00 41.71 LIG-0.27  OA
BRANCH 9 11
ATOM     11  CA  LEU B   4       1.863 -11.354  14.764  1.00 42.15 LIG 0.18  C 
BRANCH 11 12
ATOM     12  CB  LEU B   4       0.720 -11.351  15.760  1.00 42.64 LIG 0.04  C 
BRANCH 12 13
ATOM     13  CG  LEU B   4      -0.168 -10.134  15.610  1.00 44.00 LIG-0.02  C 
ATOM     14  CD1 LEU B   4      -0.813 -10.076  14.233  1.00 45.59 LIG 0.01  C 
ATOM     15  CD2 LEU B   4      -1.185 -10.085  16.718  1.00 44.00 LIG 0.01  C 
ENDBRANCH 12 13
ENDBRANCH 11 12
BRANCH 11 16
ATOM     16  N   LEU B   4       3.008 -12.052  15.328  1.00 43.54 LIG-0.35  N 
ATOM     17 H    LEU B   4       3.700 -11.553  15.442  1.00 43.54 LIG 0.16  HD
ATOM     18  C   GLU B   3       2.977 -13.346  15.635  1.00 44.15 LIG 0.26  C 
ATOM     19 O    GLU B   3       2.105 -14.138  15.210  1.00 43.92 LIG-0.27  OA
BRANCH 18 20
ATOM     20  CA  GLU B   3       4.166 -13.852  16.464  1.00 44.40 LIG 0.40  C 
ATOM     21  N   GLU B   3       5.270 -12.841  16.505  1.00 44.72 LIG 0.61  N 
BRANCH 20 22
ATOM     22  CB  GLU B   3       3.724 -14.238  17.882  1.00 44.42 LIG 0.06  C 
BRANCH 22 23
ATOM     23  CG  GLU B   3       4.794 -15.015  18.674  1.00 45.14 LIG 0.12  C 
BRANCH 23 24
ATOM     24  CD  GLU B   3       5.532 -16.052  17.841  1.00 45.75 LIG 0.17  C 
ATOM     25 OE1  GLU B   3       6.668 -16.421  18.207  1.00 47.89 LIG-0.65  OA
ATOM     26 OE2  GLU B   3       4.978 -16.489  16.805  1.00 48.90 LIG-0.65  OA
ENDBRANCH 23 24
ENDBRANCH 22 23
ENDBRANCH 20 22
ENDBRANCH 18 20
ENDBRANCH 11 16
ENDBRANCH 9 11
ENDBRANCH 5 7
ENDBRANCH 1 5
BRANCH 3 27
ATOM     27  CA  LYS B   6       1.031  -4.899  13.395  1.00 32.68 LIG 0.18  C 
BRANCH 27 28
ATOM     28  CB  LYS B   6      -0.258  -5.557  12.886  1.00 32.53 LIG 0.04  C 
BRANCH 28 29
ATOM     29  CG  LYS B   6      -0.162  -6.167  11.499  1.00 31.52 LIG 0.00  C 
BRANCH 29 30
ATOM     30  CD  LYS B   6       1.180  -5.957  10.888  1.00 30.28 LIG 0.03  C 
BRANCH 30 31
ATOM     31  CE  LYS B   6       1.144  -6.325   9.418  1.00 31.86 LIG 0.23  C 
BRANCH 31 32
ATOM     32  NZ  LYS B   6       0.687  -5.203   8.564  1.00 30.58 LIG-0.08  N 
ATOM     33 HZ2  LYS B   6      -0.195  -5.110   8.642  1.00 30.58 LIG 0.27  HD
ATOM     34 HZ3  LYS B   6       1.088  -4.451   8.822  1.00 30.58 LIG 0.27  HD
ATOM     35 HZ1  LYS B   6       0.893  -5.372   7.716  1.00 30.58 LIG 0.27  HD
ENDBRANCH 31 32
ENDBRANCH 30 31
ENDBRANCH 29 30
ENDBRANCH 28 29
ENDBRANCH 27 28
BRANCH 27 36
ATOM     36  C   LYS B   6       0.690  -4.106  14.641  1.00 31.47 LIG 0.24  C 
ATOM     37 O    LYS B   6      -0.434  -4.167  15.104  1.00 31.11 LIG-0.27  OA
ATOM     38  N   LEU B   7       1.647  -3.332  15.152  1.00 30.67 LIG-0.34  N 
ATOM     39 H    LEU B   7       2.444  -3.287  14.833  1.00 30.67 LIG 0.16  HD
BRANCH 38 40
ATOM     40  CA  LEU B   7       1.421  -2.477  16.324  1.00 30.14 LIG 0.18  C 
BRANCH 40 41
ATOM     41  C   LEU B   7       0.739  -1.154  15.931  1.00 29.60 LIG 0.20  C 
ATOM     42 OXT  LEU B   7       0.288  -0.412  16.816  1.00 28.85 LIG-0.65  OA
ATOM     43 O    LEU B   7       0.591  -0.822  14.743  1.00 28.46 LIG-0.65  OA
ENDBRANCH 40 41
BRANCH 40 44
ATOM     44  CB  LEU B   7       2.739  -2.146  16.997  1.00 29.75 LIG 0.04  C 
BRANCH 44 45
ATOM     45  CG  LEU B   7       3.451  -3.151  17.900  1.00 29.52 LIG-0.02  C 
ATOM     46  CD2 LEU B   7       4.201  -2.454  19.035  1.00 28.78 LIG 0.01  C 
ATOM     47  CD1 LEU B   7       4.391  -3.987  17.022  1.00 27.65 LIG 0.01  C 
ENDBRANCH 44 45
ENDBRANCH 40 44
ENDBRANCH 38 40
ENDBRANCH 27 36
ENDBRANCH 3 27
TORSDOF 21
ENDMDL
MODEL 10
USER: ADFR SOLUTION from run 95
USER: SCORE 18.831581 LL:  -3.853 LR: -15.354 RR:   0.000 FEB:  -9.090
USER: RMSD 6.015942
USER: SEED 94
USER: STATUS 1 or 2 clusters left
USER: GENES 23
USER: genes 0 Translation |==|  0.29941 0.66087 0.55063
USER: genes 1 Rotation |==|  0.48534 0.01997 0.38846 0.58316
USER: genes 2 Torsion [N]-C--CA-[N] |==|  0.21514
USER: genes 3 Torsion [C]-CA--N-[C] |==|  0.76558
USER: genes 4 Torsion [N]-C--CA-[N] |==|  0.98889
USER: genes 5 Torsion [C]-CA--CB-[CG] |==|  0.30287
USER: genes 6 Torsion [CA]-CB--CG-[CD1] |==|  0.49642
USER: genes 7 Torsion [C]-CA--N-[C] |==|  0.77714
USER: genes 8 Torsion [N]-C--CA-[N] |==|  0.75097
USER: genes 9 Torsion [C]-CA--CB-[CG] |==|  0.36138
USER: genes 10 Torsion [CA]-CB--CG-[CD] |==|  0.15794
USER: genes 11 Torsion [CB]-CG--CD-[OE2] |==|  0.98983
USER: genes 12 Torsion [C]-N--CA-[C] |==|  0.75198
USER: genes 13 Torsion [N]-CA--CB-[CG] |==|  0.45989
USER: genes 14 Torsion [CA]-CB--CG-[CD] |==|  0.38092
USER: genes 15 Torsion [CB]-CG--CD-[CE] |==|  0.98911
USER: genes 16 Torsion [CG]-CD--CE-[NZ] |==|  0.57996
USER: genes 17 Torsion [CD]-CE--NZ-[HZ2] |==|  0.52991
USER: genes 18 Torsion [N]-CA--C-[N] |==|  0.42549
USER: genes 19 Torsion [C]-N--CA-[C] |==|  0.46036
USER: genes 20 Torsion [N]-CA--C-[OXT] |==|  0.41732
USER: genes 21 Torsion [N]-CA--CB-[CG] |==|  0.37861
USER: genes 22 Torsion [CA]-CB--CG-[CD2] |==|  0.60506
ROOT
ATOM      1  C   ALA B   5       0.303  -4.595  14.319  1.00 35.38 LIG 0.24  C 
ATOM      2 O    ALA B   5      -0.793  -4.404  14.832  1.00 33.98 LIG-0.27  OA
ATOM      3  N   LYS B   6       1.382  -3.883  14.638  1.00 33.85 LIG-0.35  N 
ATOM      4 H    LYS B   6       2.120  -3.929  14.200  1.00 33.85 LIG 0.16  HD
ENDROOT
BRANCH 1 5
ATOM      5  CA  ALA B   5       0.507  -5.667  13.221  1.00 36.97 LIG 0.17  C 
ATOM      6  CB  ALA B   5      -0.820  -6.057  12.601  1.00 36.60 LIG 0.04  C 
BRANCH 5 7
ATOM      7  N   ALA B   5       1.172  -6.856  13.728  1.00 38.84 LIG-0.35  N 
ATOM      8 H    ALA B   5       0.632  -7.486  13.956  1.00 38.84 LIG 0.16  HD
ATOM      9  C   LEU B   4       2.494  -6.955  13.828  1.00 41.06 LIG 0.24  C 
ATOM     10 O    LEU B   4       3.256  -6.057  13.505  1.00 41.71 LIG-0.27  OA
BRANCH 9 11
ATOM     11  CA  LEU B   4       3.031  -8.262  14.402  1.00 42.15 LIG 0.18  C 
BRANCH 11 12
ATOM     12  CB  LEU B   4       3.936  -8.944  13.395  1.00 42.64 LIG 0.04  C 
BRANCH 12 13
ATOM     13  CG  LEU B   4       5.392  -8.896  13.808  1.00 44.00 LIG-0.02  C 
ATOM     14  CD1 LEU B   4       6.284  -9.611  12.804  1.00 45.59 LIG 0.01  C 
ATOM     15  CD2 LEU B   4       5.825  -7.474  14.043  1.00 44.00 LIG 0.01  C 
ENDBRANCH 12 13
ENDBRANCH 11 12
BRANCH 11 16
ATOM     16  N   LEU B   4       2.001  -9.187  14.848  1.00 43.54 LIG-0.35  N 
ATOM     17 H    LEU B   4       1.828  -9.815  14.286  1.00 43.54 LIG 0.16  HD
ATOM     18  C   GLU B   3       1.388  -9.063  16.023  1.00 44.15 LIG 0.26  C 
ATOM     19 O    GLU B   3       1.407  -8.015  16.707  1.00 43.92 LIG-0.27  OA
BRANCH 18 20
ATOM     20  CA  GLU B   3       0.534 -10.266  16.448  1.00 44.40 LIG 0.40  C 
ATOM     21  N   GLU B   3      -0.874 -10.136  15.953  1.00 44.72 LIG 0.61  N 
BRANCH 20 22
ATOM     22  CB  GLU B   3       1.161 -11.583  15.969  1.00 44.42 LIG 0.06  C 
BRANCH 22 23
ATOM     23  CG  GLU B   3       1.287 -12.647  17.077  1.00 45.14 LIG 0.12  C 
BRANCH 23 24
ATOM     24  CD  GLU B   3      -0.036 -12.990  17.743  1.00 45.75 LIG 0.17  C 
ATOM     25 OE1  GLU B   3      -0.063 -13.903  18.595  1.00 47.89 LIG-0.65  OA
ATOM     26 OE2  GLU B   3      -1.059 -12.354  17.399  1.00 48.90 LIG-0.65  OA
ENDBRANCH 23 24
ENDBRANCH 22 23
ENDBRANCH 20 22
ENDBRANCH 18 20
ENDBRANCH 11 16
ENDBRANCH 9 11
ENDBRANCH 5 7
ENDBRANCH 1 5
BRANCH 3 27
ATOM     27  CA  LYS B   6       1.429  -2.953  15.757  1.00 32.68 LIG 0.18  C 
BRANCH 27 28
ATOM     28  CB  LYS B   6       2.869  -2.859  16.278  1.00 32.53 LIG 0.04  C 
BRANCH 28 29
ATOM     29  CG  LYS B   6       3.139  -1.688  17.205  1.00 31.52 LIG 0.00  C 
BRANCH 29 30
ATOM     30  CD  LYS B   6       3.971  -2.082  18.376  1.00 30.28 LIG 0.03  C 
BRANCH 30 31
ATOM     31  CE  LYS B   6       4.228  -3.576  18.351  1.00 31.86 LIG 0.23  C 
BRANCH 31 32
ATOM     32  NZ  LYS B   6       4.416  -4.142  19.707  1.00 30.58 LIG-0.08  N 
ATOM     33 HZ2  LYS B   6       4.716  -4.978  19.641  1.00 30.58 LIG 0.27  HD
ATOM     34 HZ3  LYS B   6       5.006  -3.650  20.155  1.00 30.58 LIG 0.27  HD
ATOM     35 HZ1  LYS B   6       3.638  -4.140  20.140  1.00 30.58 LIG 0.27  HD
ENDBRANCH 31 32
ENDBRANCH 30 31
ENDBRANCH 29 30
ENDBRANCH 28 29
ENDBRANCH 27 28
BRANCH 27 36
ATOM     36  C   LYS B   6       0.993  -1.565  15.335  1.00 31.47 LIG 0.24  C 
ATOM     37 O    LYS B   6       1.169  -1.202  14.187  1.00 31.11 LIG-0.27  OA
ATOM     38  N   LEU B   7       0.466  -0.779  16.273  1.00 30.67 LIG-0.34  N 
ATOM     39 H    LEU B   7       0.335  -1.029  17.085  1.00 30.67 LIG 0.16  HD
BRANCH 38 40
ATOM     40  CA  LEU B   7       0.056   0.604  15.998  1.00 30.14 LIG 0.18  C 
BRANCH 40 41
ATOM     41  C   LEU B   7      -0.829   1.163  17.127  1.00 29.60 LIG 0.20  C 
ATOM     42 OXT  LEU B   7      -0.814   2.379  17.370  1.00 28.85 LIG-0.65  OA
ATOM     43 O    LEU B   7      -1.535   0.422  17.832  1.00 28.46 LIG-0.65  OA
ENDBRANCH 40 41
BRANCH 40 44
ATOM     44  CB  LEU B   7      -0.732   0.672  14.704  1.00 29.75 LIG 0.04  C 
BRANCH 44 45
ATOM     45  CG  LEU B   7      -2.008   1.502  14.587  1.00 29.52 LIG-0.02  C 
ATOM     46  CD2 LEU B   7      -3.057   0.803  13.723  1.00 28.78 LIG 0.01  C 
ATOM     47  CD1 LEU B   7      -1.625   2.876  14.023  1.00 27.65 LIG 0.01  C 
ENDBRANCH 44 45
ENDBRANCH 40 44
ENDBRANCH 38 40
ENDBRANCH 27 36
ENDBRANCH 3 27
TORSDOF 21
ENDMDL
MODEL 11
USER: ADFR SOLUTION from run 84
USER: SCORE 18.429656 LL:  -4.604 LR: -15.330 RR:   0.000 FEB:  -9.065
USER: RMSD 3.356301
USER: SEED 83
USER: STATUS no improvement in best in 1 clusters for 5 generations
USER: GENES 23
USER: genes 0 Translation |==|  0.38823 0.54187 0.59616
USER: genes 1 Rotation |==|  0.48190 0.44616 0.49508 0.99674
USER: genes 2 Torsion [N]-C--CA-[N] |==|  0.37778
USER: genes 3 Torsion [C]-CA--N-[C] |==|  0.68110
USER: genes 4 Torsion [N]-C--CA-[N] |==|  0.75332
USER: genes 5 Torsion [C]-CA--CB-[CG] |==|  0.24984
USER: genes 6 Torsion [CA]-CB--CG-[CD1] |==|  0.32998
USER: genes 7 Torsion [C]-CA--N-[C] |==|  0.15339
USER: genes 8 Torsion [N]-C--CA-[N] |==|  0.99743
USER: genes 9 Torsion [C]-CA--CB-[CG] |==|  0.88124
USER: genes 10 Torsion [CA]-CB--CG-[CD] |==|  0.84678
USER: genes 11 Torsion [CB]-CG--CD-[OE2] |==|  0.90561
USER: genes 12 Torsion [C]-N--CA-[C] |==|  0.69722
USER: genes 13 Torsion [N]-CA--CB-[CG] |==|  0.76491
USER: genes 14 Torsion [CA]-CB--CG-[CD] |==|  0.60262
USER: genes 15 Torsion [CB]-CG--CD-[CE] |==|  0.48087
USER: genes 16 Torsion [CG]-CD--CE-[NZ] |==|  0.58418
USER: genes 17 Torsion [CD]-CE--NZ-[HZ2] |==|  0.49581
USER: genes 18 Torsion [N]-CA--C-[N] |==|  0.35909
USER: genes 19 Torsion [C]-N--CA-[C] |==|  0.81164
USER: genes 20 Torsion [N]-CA--C-[OXT] |==|  0.42241
USER: genes 21 Torsion [N]-CA--CB-[CG] |==|  0.93599
USER: genes 22 Torsion [CA]-CB--CG-[CD2] |==|  0.68992
ROOT
ATOM      1  C   ALA B   5       1.635  -7.540  15.207  1.00 35.38 LIG 0.24  C 
ATOM      2 O    ALA B   5       2.818  -7.313  15.434  1.00 33.98 LIG-0.27  OA
ATOM      3  N   LYS B   6       0.819  -6.639  14.664  1.00 33.85 LIG-0.35  N 
ATOM      4 H    LYS B   6      -0.032  -6.748  14.614  1.00 33.85 LIG 0.16  HD
ENDROOT
BRANCH 1 5
ATOM      5  CA  ALA B   5       0.987  -8.897  15.575  1.00 36.97 LIG 0.17  C 
ATOM      6  CB  ALA B   5       0.707  -8.970  17.063  1.00 36.60 LIG 0.04  C 
BRANCH 5 7
ATOM      7  N   ALA B   5       1.814 -10.027  15.182  1.00 38.84 LIG-0.35  N 
ATOM      8 H    ALA B   5       2.563 -10.073  15.603  1.00 38.84 LIG 0.16  HD
ATOM      9  C   LEU B   4       1.440 -10.905  14.257  1.00 41.06 LIG 0.24  C 
ATOM     10 O    LEU B   4       0.377 -10.834  13.660  1.00 41.71 LIG-0.27  OA
BRANCH 9 11
ATOM     11  CA  LEU B   4       2.434 -12.020  13.945  1.00 42.15 LIG 0.18  C 
BRANCH 11 12
ATOM     12  CB  LEU B   4       3.166 -12.436  15.205  1.00 42.64 LIG 0.04  C 
BRANCH 12 13
ATOM     13  CG  LEU B   4       2.451 -13.550  15.942  1.00 44.00 LIG-0.02  C 
ATOM     14  CD1 LEU B   4       3.312 -14.800  16.042  1.00 45.59 LIG 0.01  C 
ATOM     15  CD2 LEU B   4       1.983 -13.072  17.290  1.00 44.00 LIG 0.01  C 
ENDBRANCH 12 13
ENDBRANCH 11 12
BRANCH 11 16
ATOM     16  N   LEU B   4       3.392 -11.691  12.902  1.00 43.54 LIG-0.35  N 
ATOM     17 H    LEU B   4       3.406 -12.252  12.250  1.00 43.54 LIG 0.16  HD
ATOM     18  C   GLU B   3       4.173 -10.615  12.960  1.00 44.15 LIG 0.26  C 
ATOM     19 O    GLU B   3       4.380  -9.966  14.011  1.00 43.92 LIG-0.27  OA
BRANCH 18 20
ATOM     20  CA  GLU B   3       4.921 -10.275  11.664  1.00 44.40 LIG 0.40  C 
ATOM     21  N   GLU B   3       4.618 -11.270  10.585  1.00 44.72 LIG 0.61  N 
BRANCH 20 22
ATOM     22  CB  GLU B   3       4.597  -8.849  11.199  1.00 44.42 LIG 0.06  C 
BRANCH 22 23
ATOM     23  CG  GLU B   3       3.104  -8.484  11.316  1.00 45.14 LIG 0.12  C 
BRANCH 23 24
ATOM     24  CD  GLU B   3       2.183  -9.452  10.590  1.00 45.75 LIG 0.17  C 
ATOM     25 OE1  GLU B   3       1.062  -9.701  11.082  1.00 47.89 LIG-0.65  OA
ATOM     26 OE2  GLU B   3       2.590  -9.980   9.529  1.00 48.90 LIG-0.65  OA
ENDBRANCH 23 24
ENDBRANCH 22 23
ENDBRANCH 20 22
ENDBRANCH 18 20
ENDBRANCH 11 16
ENDBRANCH 9 11
ENDBRANCH 5 7
ENDBRANCH 1 5
BRANCH 3 27
ATOM     27  CA  LYS B   6       1.277  -5.377  14.101  1.00 32.68 LIG 0.18  C 
BRANCH 27 28
ATOM     28  CB  LYS B   6       0.642  -5.179  12.718  1.00 32.53 LIG 0.04  C 
BRANCH 28 29
ATOM     29  CG  LYS B   6       1.378  -5.853  11.574  1.00 31.52 LIG 0.00  C 
BRANCH 29 30
ATOM     30  CD  LYS B   6       1.352  -5.032  10.332  1.00 30.28 LIG 0.03  C 
BRANCH 30 31
ATOM     31  CE  LYS B   6       2.238  -5.663   9.274  1.00 31.86 LIG 0.23  C 
BRANCH 31 32
ATOM     32  NZ  LYS B   6       2.833  -4.659   8.361  1.00 30.58 LIG-0.08  N 
ATOM     33 HZ2  LYS B   6       3.361  -5.069   7.773  1.00 30.58 LIG 0.27  HD
ATOM     34 HZ3  LYS B   6       2.185  -4.229   7.929  1.00 30.58 LIG 0.27  HD
ATOM     35 HZ1  LYS B   6       3.312  -4.076   8.833  1.00 30.58 LIG 0.27  HD
ENDBRANCH 31 32
ENDBRANCH 30 31
ENDBRANCH 29 30
ENDBRANCH 28 29
ENDBRANCH 27 28
BRANCH 27 36
ATOM     36  C   LYS B   6       0.869  -4.207  14.974  1.00 31.47 LIG 0.24  C 
ATOM     37 O    LYS B   6      -0.297  -4.076  15.297  1.00 31.11 LIG-0.27  OA
ATOM     38  N   LEU B   7       1.821  -3.339  15.315  1.00 30.67 LIG-0.34  N 
ATOM     39 H    LEU B   7       2.647  -3.427  15.093  1.00 30.67 LIG 0.16  HD
BRANCH 38 40
ATOM     40  CA  LEU B   7       1.538  -2.139  16.111  1.00 30.14 LIG 0.18  C 
BRANCH 40 41
ATOM     41  C   LEU B   7       0.680  -1.131  15.324  1.00 29.60 LIG 0.20  C 
ATOM     42 OXT  LEU B   7      -0.069  -0.356  15.937  1.00 28.85 LIG-0.65  OA
ATOM     43 O    LEU B   7       0.687  -1.097  14.082  1.00 28.46 LIG-0.65  OA
ENDBRANCH 40 41
BRANCH 40 44
ATOM     44  CB  LEU B   7       2.831  -1.450  16.504  1.00 29.75 LIG 0.04  C 
BRANCH 44 45
ATOM     45  CG  LEU B   7       4.156  -2.208  16.560  1.00 29.52 LIG-0.02  C 
ATOM     46  CD2 LEU B   7       4.663  -2.348  17.995  1.00 28.78 LIG 0.01  C 
ATOM     47  CD1 LEU B   7       5.159  -1.465  15.669  1.00 27.65 LIG 0.01  C 
ENDBRANCH 44 45
ENDBRANCH 40 44
ENDBRANCH 38 40
ENDBRANCH 27 36
ENDBRANCH 3 27
TORSDOF 21
ENDMDL
