MODEL 1
USER: ADFR SOLUTION from run 6
USER: SCORE 10.056762 LL:  -1.111 LR:  -8.946 RR:   0.000 FEB:  -7.753
USER: RMSD 2.208421
USER: SEED 66049
USER: STATUS no improvement in best in 2 clusters for 5 generations
USER: GENES 6
USER: genes 0 Translation |==|  0.35785 0.46517 0.45173
USER: genes 1 Rotation |==|  0.50482 0.59653 0.60052 0.98016
USER: genes 2 Torsion [N]-CA--C-[O] |==|  0.01928
USER: genes 3 Torsion [N]-CA--C-[O] |==|  0.91588
USER: genes 4 Torsion [N]-C--CA-[N] |==|  0.35873
USER: genes 5 Torsion [C]-CA--N-[H1] |==|  0.92526
ROOT
ATOM      1  C   ALA E   1    -108.309  67.643  -9.840  0.79 25.31 LIG 0.25  C 
ATOM      2 O    ALA E   1    -108.052  67.728 -11.033  0.79 21.55 LIG-0.27  OA
ATOM      3  N   PRO E   2    -108.772  68.693  -9.127  0.79 27.56 LIG-0.34  N 
ATOM      4  CA  PRO E   2    -108.710  70.081  -9.636  0.79 29.17 LIG 0.18  C 
ATOM      5  CB  PRO E   2    -109.603  70.864  -8.659  0.79 31.66 LIG 0.04  C 
ATOM      6  CG  PRO E   2    -110.412  69.838  -7.924  0.79 31.87 LIG 0.02  C 
ATOM      7  CD  PRO E   2    -109.552  68.593  -7.885  0.79 37.64 LIG 0.13  C 
ENDROOT
BRANCH 4 8
ATOM      8  C   PRO E   2    -107.283  70.646  -9.552  0.79 31.28 LIG 0.24  C 
ATOM      9 O    PRO E   2    -106.378  69.885  -9.220  0.79 33.48 LIG-0.27  OA
ATOM     10  N   PRO E   3    -107.081  71.956  -9.806  0.79 31.99 LIG-0.34  N 
ATOM     11  CA  PRO E   3    -105.701  72.462  -9.827  0.79 36.13 LIG 0.17  C 
ATOM     12  CD  PRO E   3    -108.050  73.058  -9.889  0.79 37.75 LIG 0.13  C 
ATOM     13  CB  PRO E   3    -105.840  73.893 -10.386  0.79 39.82 LIG 0.04  C 
ATOM     14  CG  PRO E   3    -107.302  74.086 -10.717  0.79 32.33 LIG 0.02  C 
BRANCH 11 15
ATOM     15  C   PRO E   3    -105.130  72.530  -8.420  0.79 38.04 LIG 0.22  C 
ATOM     16 O    PRO E   3    -105.945  72.740  -7.524  0.79 39.77 LIG-0.29  OA
ENDBRANCH 11 15
ENDBRANCH 4 8
BRANCH 1 17
ATOM     17  CA  ALA E   1    -108.119  66.302  -9.108  0.79 27.80 LIG 0.27  C 
ATOM     18  CB  ALA E   1    -106.622  65.991  -8.957  0.79 29.16 LIG 0.05  C 
BRANCH 17 19
ATOM     19  N   ALA E   1    -108.773  65.218  -9.838  0.79 20.73 LIG-0.07  N 
ATOM     20 H1   ALA E   1    -109.451  65.546 -10.312  0.79 20.73 LIG 0.28  HD
ATOM     21 H2   ALA E   1    -108.187  64.833 -10.386  0.79 20.73 LIG 0.28  HD
ATOM     22 H3   ALA E   1    -109.080  64.614  -9.261  0.79 20.73 LIG 0.28  HD
ENDBRANCH 17 19
ENDBRANCH 1 17
TORSDOF 4
ENDMDL
MODEL 2
USER: ADFR SOLUTION from run 12
USER: SCORE 9.603746 LL:  -1.317 LR:  -8.287 RR:   0.000 FEB:  -7.093
USER: RMSD 0.333925
USER: SEED 863034
USER: STATUS no improvement in best in 6 clusters for 5 generations
USER: GENES 6
USER: genes 0 Translation |==|  0.37205 0.43840 0.45939
USER: genes 1 Rotation |==|  0.49406 0.50549 0.48132 0.99959
USER: genes 2 Torsion [N]-CA--C-[O] |==|  0.95495
USER: genes 3 Torsion [N]-CA--C-[O] |==|  0.87530
USER: genes 4 Torsion [N]-C--CA-[N] |==|  0.46310
USER: genes 5 Torsion [C]-CA--N-[H1] |==|  0.08322
ROOT
ATOM      1  C   ALA E   1    -108.096  67.202  -9.748  0.79 25.31 LIG 0.25  C 
ATOM      2 O    ALA E   1    -107.443  66.993 -10.761  0.79 21.55 LIG-0.27  OA
ATOM      3  N   PRO E   2    -108.236  68.439  -9.224  0.79 27.56 LIG-0.34  N 
ATOM      4  CA  PRO E   2    -107.377  69.571  -9.636  0.79 29.17 LIG 0.18  C 
ATOM      5  CB  PRO E   2    -108.083  70.797  -9.032  0.79 31.66 LIG 0.04  C 
ATOM      6  CG  PRO E   2    -109.466  70.345  -8.674  0.79 31.87 LIG 0.02  C 
ATOM      7  CD  PRO E   2    -109.343  68.870  -8.357  0.79 37.64 LIG 0.13  C 
ENDROOT
BRANCH 4 8
ATOM      8  C   PRO E   2    -105.973  69.464  -9.019  0.79 31.28 LIG 0.24  C 
ATOM      9 O    PRO E   2    -105.814  68.697  -8.072  0.79 33.48 LIG-0.27  OA
ATOM     10  N   PRO E   3    -104.981  70.236  -9.510  0.79 31.99 LIG-0.34  N 
ATOM     11  CA  PRO E   3    -103.621  70.048  -8.985  0.79 36.13 LIG 0.17  C 
ATOM     12  CD  PRO E   3    -105.052  71.413 -10.386  0.79 37.75 LIG 0.13  C 
ATOM     13  CB  PRO E   3    -102.740  70.890  -9.930  0.79 39.82 LIG 0.04  C 
ATOM     14  CG  PRO E   3    -103.660  71.454 -10.988  0.79 32.33 LIG 0.02  C 
BRANCH 11 15
ATOM     15  C   PRO E   3    -103.506  70.599  -7.573  0.79 38.04 LIG 0.22  C 
ATOM     16 O    PRO E   3    -104.013  71.704  -7.391  0.79 39.77 LIG-0.29  OA
ENDBRANCH 11 15
ENDBRANCH 4 8
BRANCH 1 17
ATOM     17  CA  ALA E   1    -108.802  66.033  -9.035  0.79 27.80 LIG 0.27  C 
ATOM     18  CB  ALA E   1    -108.088  65.714  -7.713  0.79 29.16 LIG 0.05  C 
BRANCH 17 19
ATOM     19  N   ALA E   1    -108.815  64.843  -9.884  0.79 20.73 LIG-0.07  N 
ATOM     20 H1   ALA E   1    -108.098  64.847 -10.411  0.79 20.73 LIG 0.28  HD
ATOM     21 H2   ALA E   1    -108.804  64.114  -9.373  0.79 20.73 LIG 0.28  HD
ATOM     22 H3   ALA E   1    -109.551  64.843 -10.384  0.79 20.73 LIG 0.28  HD
ENDBRANCH 17 19
ENDBRANCH 1 17
TORSDOF 4
ENDMDL
MODEL 3
USER: ADFR SOLUTION from run 33
USER: SCORE 8.837453 LL:  -1.191 LR:  -7.646 RR:   0.000 FEB:  -6.453
USER: RMSD 3.769123
USER: SEED 32
USER: STATUS no improvement in best in 9 clusters for 5 generations
USER: GENES 6
USER: genes 0 Translation |==|  0.30552 0.60132 0.49934
USER: genes 1 Rotation |==|  0.55915 0.55937 0.65215 0.96886
USER: genes 2 Torsion [N]-CA--C-[O] |==|  0.80445
USER: genes 3 Torsion [N]-CA--C-[O] |==|  0.69339
USER: genes 4 Torsion [N]-C--CA-[N] |==|  0.24205
USER: genes 5 Torsion [C]-CA--N-[H1] |==|  0.61944
ROOT
ATOM      1  C   ALA E   1    -109.094  69.890  -9.269  0.79 25.31 LIG 0.25  C 
ATOM      2 O    ALA E   1    -108.775  70.345 -10.358  0.79 21.55 LIG-0.27  OA
ATOM      3  N   PRO E   2    -109.780  70.614  -8.358  0.79 27.56 LIG-0.34  N 
ATOM      4  CA  PRO E   2    -109.927  72.082  -8.467  0.79 29.17 LIG 0.18  C 
ATOM      5  CB  PRO E   2    -111.008  72.415  -7.425  0.79 31.66 LIG 0.04  C 
ATOM      6  CG  PRO E   2    -111.674  71.115  -7.088  0.79 31.87 LIG 0.02  C 
ATOM      7  CD  PRO E   2    -110.614  70.052  -7.285  0.79 37.64 LIG 0.13  C 
ENDROOT
BRANCH 4 8
ATOM      8  C   PRO E   2    -108.630  72.807  -8.073  0.79 31.28 LIG 0.24  C 
ATOM      9 O    PRO E   2    -108.300  72.799  -6.890  0.79 33.48 LIG-0.27  OA
ATOM     10  N   PRO E   3    -107.925  73.453  -9.025  0.79 31.99 LIG-0.34  N 
ATOM     11  CA  PRO E   3    -106.633  74.051  -8.658  0.79 36.13 LIG 0.17  C 
ATOM     12  CD  PRO E   3    -108.320  73.843 -10.386  0.79 37.75 LIG 0.13  C 
ATOM     13  CB  PRO E   3    -106.017  74.461 -10.010  0.79 39.82 LIG 0.04  C 
ATOM     14  CG  PRO E   3    -106.981  74.001 -11.080  0.79 32.33 LIG 0.02  C 
BRANCH 11 15
ATOM     15  C   PRO E   3    -106.836  75.292  -7.805  0.79 38.04 LIG 0.22  C 
ATOM     16 O    PRO E   3    -106.552  76.360  -8.343  0.79 39.77 LIG-0.29  OA
ENDBRANCH 11 15
ENDBRANCH 4 8
BRANCH 1 17
ATOM     17  CA  ALA E   1    -108.723  68.440  -8.905  0.79 27.80 LIG 0.27  C 
ATOM     18  CB  ALA E   1    -107.437  68.025  -9.636  0.79 29.16 LIG 0.05  C 
BRANCH 17 19
ATOM     19  N   ALA E   1    -109.806  67.525  -9.261  0.79 20.73 LIG-0.07  N 
ATOM     20 H1   ALA E   1    -109.927  66.938  -8.603  0.79 20.73 LIG 0.28  HD
ATOM     21 H2   ALA E   1    -110.556  67.987  -9.387  0.79 20.73 LIG 0.28  HD
ATOM     22 H3   ALA E   1    -109.595  67.093 -10.009  0.79 20.73 LIG 0.28  HD
ENDBRANCH 17 19
ENDBRANCH 1 17
TORSDOF 4
ENDMDL
MODEL 4
USER: ADFR SOLUTION from run 156
USER: SCORE 8.712936 LL:  -1.098 LR:  -7.615 RR:   0.000 FEB:  -6.422
USER: RMSD 4.943743
USER: SEED 155
USER: STATUS no improvement in best in 6 clusters for 5 generations
USER: GENES 6
USER: genes 0 Translation |==|  0.35284 0.39208 0.60600
USER: genes 1 Rotation |==|  0.56237 0.95380 0.70044 0.50069
USER: genes 2 Torsion [N]-CA--C-[O] |==|  0.31558
USER: genes 3 Torsion [N]-CA--C-[O] |==|  0.30405
USER: genes 4 Torsion [N]-C--CA-[N] |==|  0.51952
USER: genes 5 Torsion [C]-CA--N-[H1] |==|  0.61440
ROOT
ATOM      1  C   ALA E   1    -108.384  66.437  -7.989  0.79 25.31 LIG 0.25  C 
ATOM      2 O    ALA E   1    -109.184  65.778  -7.340  0.79 21.55 LIG-0.27  OA
ATOM      3  N   PRO E   2    -107.820  67.565  -7.504  0.79 27.56 LIG-0.34  N 
ATOM      4  CA  PRO E   2    -108.342  68.255  -6.304  0.79 29.17 LIG 0.18  C 
ATOM      5  CB  PRO E   2    -107.236  69.267  -5.960  0.79 31.66 LIG 0.04  C 
ATOM      6  CG  PRO E   2    -106.020  68.824  -6.716  0.79 31.87 LIG 0.02  C 
ATOM      7  CD  PRO E   2    -106.541  68.132  -7.957  0.79 37.64 LIG 0.13  C 
ENDROOT
BRANCH 4 8
ATOM      8  C   PRO E   2    -109.632  69.031  -6.620  0.79 31.28 LIG 0.24  C 
ATOM      9 O    PRO E   2    -110.677  68.651  -6.098  0.79 33.48 LIG-0.27  OA
ATOM     10  N   PRO E   3    -109.578  70.068  -7.481  0.79 31.99 LIG-0.34  N 
ATOM     11  CA  PRO E   3    -110.794  70.868  -7.692  0.79 36.13 LIG 0.17  C 
ATOM     12  CD  PRO E   3    -108.522  70.449  -8.429  0.79 37.75 LIG 0.13  C 
ATOM     13  CB  PRO E   3    -110.302  72.079  -8.511  0.79 39.82 LIG 0.04  C 
ATOM     14  CG  PRO E   3    -108.805  71.923  -8.654  0.79 32.33 LIG 0.02  C 
BRANCH 11 15
ATOM     15  C   PRO E   3    -111.813  70.093  -8.511  0.79 38.04 LIG 0.22  C 
ATOM     16 O    PRO E   3    -112.812  69.718  -7.901  0.79 39.77 LIG-0.29  OA
ENDBRANCH 11 15
ENDBRANCH 4 8
BRANCH 1 17
ATOM     17  CA  ALA E   1    -107.983  65.982  -9.404  0.79 27.80 LIG 0.27  C 
ATOM     18  CB  ALA E   1    -108.145  67.142 -10.398  0.79 29.16 LIG 0.05  C 
BRANCH 17 19
ATOM     19  N   ALA E   1    -108.802  64.850  -9.834  0.79 20.73 LIG-0.07  N 
ATOM     20 H1   ALA E   1    -108.290  64.255 -10.254  0.79 20.73 LIG 0.28  HD
ATOM     21 H2   ALA E   1    -109.177  64.468  -9.123  0.79 20.73 LIG 0.28  HD
ATOM     22 H3   ALA E   1    -109.438  65.137 -10.386  0.79 20.73 LIG 0.28  HD
ENDBRANCH 17 19
ENDBRANCH 1 17
TORSDOF 4
ENDMDL
MODEL 5
USER: ADFR SOLUTION from run 112
USER: SCORE 8.856313 LL:  -1.251 LR:  -7.606 RR:   0.000 FEB:  -6.413
USER: RMSD 3.755549
USER: SEED 111
USER: STATUS no improvement in best in 7 clusters for 5 generations
USER: GENES 6
USER: genes 0 Translation |==|  0.37781 0.45600 0.56839
USER: genes 1 Rotation |==|  0.72433 0.91363 0.53651 0.66507
USER: genes 2 Torsion [N]-CA--C-[O] |==|  0.83662
USER: genes 3 Torsion [N]-CA--C-[O] |==|  0.53029
USER: genes 4 Torsion [N]-C--CA-[N] |==|  0.44326
USER: genes 5 Torsion [C]-CA--N-[H1] |==|  0.31905
ROOT
ATOM      1  C   ALA E   1    -108.010  67.492  -8.440  0.79 25.31 LIG 0.25  C 
ATOM      2 O    ALA E   1    -108.978  68.133  -8.054  0.79 21.55 LIG-0.27  OA
ATOM      3  N   PRO E   2    -106.742  67.914  -8.242  0.79 27.56 LIG-0.34  N 
ATOM      4  CA  PRO E   2    -106.427  69.300  -7.833  0.79 29.17 LIG 0.18  C 
ATOM      5  CB  PRO E   2    -104.942  69.231  -7.438  0.79 31.66 LIG 0.04  C 
ATOM      6  CG  PRO E   2    -104.626  67.776  -7.266  0.79 31.87 LIG 0.02  C 
ATOM      7  CD  PRO E   2    -105.557  67.043  -8.208  0.79 37.64 LIG 0.13  C 
ENDROOT
BRANCH 4 8
ATOM      8  C   PRO E   2    -106.573  70.279  -9.010  0.79 31.28 LIG 0.24  C 
ATOM      9 O    PRO E   2    -105.888  70.087 -10.011  0.79 33.48 LIG-0.27  OA
ATOM     10  N   PRO E   3    -107.413  71.329  -8.888  0.79 31.99 LIG-0.34  N 
ATOM     11  CA  PRO E   3    -107.625  72.196 -10.056  0.79 36.13 LIG 0.17  C 
ATOM     12  CD  PRO E   3    -108.043  71.894  -7.687  0.79 37.75 LIG 0.13  C 
ATOM     13  CB  PRO E   3    -108.802  73.100  -9.636  0.79 39.82 LIG 0.04  C 
ATOM     14  CG  PRO E   3    -109.234  72.635  -8.264  0.79 32.33 LIG 0.02  C 
BRANCH 11 15
ATOM     15  C   PRO E   3    -106.402  73.059 -10.316  0.79 38.04 LIG 0.22  C 
ATOM     16 O    PRO E   3    -106.552  73.963 -11.136  0.79 39.77 LIG-0.29  OA
ENDBRANCH 11 15
ENDBRANCH 4 8
BRANCH 1 17
ATOM     17  CA  ALA E   1    -108.218  66.151  -9.169  0.79 27.80 LIG 0.27  C 
ATOM     18  CB  ALA E   1    -108.052  66.343 -10.684  0.79 29.16 LIG 0.05  C 
BRANCH 17 19
ATOM     19  N   ALA E   1    -109.546  65.611  -8.886  0.79 20.73 LIG-0.07  N 
ATOM     20 H1   ALA E   1    -110.025  65.593  -9.636  0.79 20.73 LIG 0.28  HD
ATOM     21 H2   ALA E   1    -109.468  64.785  -8.565  0.79 20.73 LIG 0.28  HD
ATOM     22 H3   ALA E   1    -109.954  66.125  -8.285  0.79 20.73 LIG 0.28  HD
ENDBRANCH 17 19
ENDBRANCH 1 17
TORSDOF 4
ENDMDL
MODEL 6
USER: ADFR SOLUTION from run 92
USER: SCORE 8.441388 LL:  -0.873 LR:  -7.568 RR:   0.000 FEB:  -6.375
USER: RMSD 4.768681
USER: SEED 91
USER: STATUS no improvement in best in 7 clusters for 5 generations
USER: GENES 6
USER: genes 0 Translation |==|  0.38655 0.36241 0.68564
USER: genes 1 Rotation |==|  0.36163 0.12176 0.65946 0.74971
USER: genes 2 Torsion [N]-CA--C-[O] |==|  0.03361
USER: genes 3 Torsion [N]-CA--C-[O] |==|  0.95827
USER: genes 4 Torsion [N]-C--CA-[N] |==|  0.20207
USER: genes 5 Torsion [C]-CA--N-[H1] |==|  0.18989
ROOT
ATOM      1  C   ALA E   1    -107.879  65.948  -7.033  0.79 25.31 LIG 0.25  C 
ATOM      2 O    ALA E   1    -107.198  66.575  -6.234  0.79 21.55 LIG-0.27  OA
ATOM      3  N   PRO E   2    -108.185  66.434  -8.256  0.79 27.56 LIG-0.34  N 
ATOM      4  CA  PRO E   2    -107.995  67.858  -8.608  0.79 29.17 LIG 0.18  C 
ATOM      5  CB  PRO E   2    -108.172  67.879 -10.136  0.79 31.66 LIG 0.04  C 
ATOM      6  CG  PRO E   2    -108.052  66.454 -10.586  0.79 31.87 LIG 0.02  C 
ATOM      7  CD  PRO E   2    -108.544  65.617  -9.425  0.79 37.64 LIG 0.13  C 
ENDROOT
BRANCH 4 8
ATOM      8  C   PRO E   2    -109.084  68.742  -7.979  0.79 31.28 LIG 0.24  C 
ATOM      9 O    PRO E   2    -109.805  68.246  -7.117  0.79 33.48 LIG-0.27  OA
ATOM     10  N   PRO E   3    -109.235  70.009  -8.419  0.79 31.99 LIG-0.34  N 
ATOM     11  CA  PRO E   3    -110.206  70.877  -7.737  0.79 36.13 LIG 0.17  C 
ATOM     12  CD  PRO E   3    -108.709  70.653  -9.630  0.79 37.75 LIG 0.13  C 
ATOM     13  CB  PRO E   3    -109.927  72.276  -8.323  0.79 39.82 LIG 0.04  C 
ATOM     14  CG  PRO E   3    -108.751  72.123  -9.261  0.79 32.33 LIG 0.02  C 
BRANCH 11 15
ATOM     15  C   PRO E   3    -111.629  70.468  -8.081  0.79 38.04 LIG 0.22  C 
ATOM     16 O    PRO E   3    -111.748  69.718  -9.048  0.79 39.77 LIG-0.29  OA
ENDBRANCH 11 15
ENDBRANCH 4 8
BRANCH 1 17
ATOM     17  CA  ALA E   1    -108.407  64.550  -6.661  0.79 27.80 LIG 0.27  C 
ATOM     18  CB  ALA E   1    -108.266  64.318  -5.149  0.79 29.16 LIG 0.05  C 
BRANCH 17 19
ATOM     19  N   ALA E   1    -107.677  63.512  -7.386  0.79 20.73 LIG-0.07  N 
ATOM     20 H1   ALA E   1    -106.838  63.477  -7.090  0.79 20.73 LIG 0.28  HD
ATOM     21 H2   ALA E   1    -108.070  62.725  -7.254  0.79 20.73 LIG 0.28  HD
ATOM     22 H3   ALA E   1    -107.677  63.701  -8.255  0.79 20.73 LIG 0.28  HD
ENDBRANCH 17 19
ENDBRANCH 1 17
TORSDOF 4
ENDMDL
MODEL 7
USER: ADFR SOLUTION from run 58
USER: SCORE 8.925603 LL:  -1.405 LR:  -7.520 RR:   0.000 FEB:  -6.327
USER: RMSD 2.613820
USER: SEED 57
USER: STATUS no improvement in best in 7 clusters for 5 generations
USER: GENES 6
USER: genes 0 Translation |==|  0.36072 0.44110 0.45985
USER: genes 1 Rotation |==|  0.49740 0.52455 0.50523 0.99936
USER: genes 2 Torsion [N]-CA--C-[O] |==|  0.34172
USER: genes 3 Torsion [N]-CA--C-[O] |==|  0.94072
USER: genes 4 Torsion [N]-C--CA-[N] |==|  0.45740
USER: genes 5 Torsion [C]-CA--N-[H1] |==|  0.43702
ROOT
ATOM      1  C   ALA E   1    -108.266  67.246  -9.743  0.79 25.31 LIG 0.25  C 
ATOM      2 O    ALA E   1    -107.677  67.114 -10.806  0.79 21.55 LIG-0.27  OA
ATOM      3  N   PRO E   2    -108.480  68.457  -9.184  0.79 27.56 LIG-0.34  N 
ATOM      4  CA  PRO E   2    -107.766  69.672  -9.636  0.79 29.17 LIG 0.18  C 
ATOM      5  CB  PRO E   2    -108.534  70.817  -8.954  0.79 31.66 LIG 0.04  C 
ATOM      6  CG  PRO E   2    -109.837  70.230  -8.502  0.79 31.87 LIG 0.02  C 
ATOM      7  CD  PRO E   2    -109.552  68.769  -8.227  0.79 37.64 LIG 0.13  C 
ENDROOT
BRANCH 4 8
ATOM      8  C   PRO E   2    -106.314  69.689  -9.130  0.79 31.28 LIG 0.24  C 
ATOM      9 O    PRO E   2    -105.413  69.777  -9.960  0.79 33.48 LIG-0.27  OA
ATOM     10  N   PRO E   3    -106.080  69.570  -7.806  0.79 31.99 LIG-0.34  N 
ATOM     11  CA  PRO E   3    -104.697  69.696  -7.324  0.79 36.13 LIG 0.17  C 
ATOM     12  CD  PRO E   3    -106.979  69.135  -6.728  0.79 37.75 LIG 0.13  C 
ATOM     13  CB  PRO E   3    -104.844  69.762  -5.791  0.79 39.82 LIG 0.04  C 
ATOM     14  CG  PRO E   3    -106.327  69.740  -5.499  0.79 32.33 LIG 0.02  C 
BRANCH 11 15
ATOM     15  C   PRO E   3    -103.883  68.467  -7.695  0.79 38.04 LIG 0.22  C 
ATOM     16 O    PRO E   3    -104.533  67.451  -7.934  0.79 39.77 LIG-0.29  OA
ENDBRANCH 11 15
ENDBRANCH 4 8
BRANCH 1 17
ATOM     17  CA  ALA E   1    -108.802  66.006  -9.003  0.79 27.80 LIG 0.27  C 
ATOM     18  CB  ALA E   1    -107.930  65.709  -7.773  0.79 29.16 LIG 0.05  C 
BRANCH 17 19
ATOM     19  N   ALA E   1    -108.815  64.843  -9.887  0.79 20.73 LIG-0.07  N 
ATOM     20 H1   ALA E   1    -108.802  64.099  -9.399  0.79 20.73 LIG 0.28  HD
ATOM     21 H2   ALA E   1    -109.552  64.857 -10.386  0.79 20.73 LIG 0.28  HD
ATOM     22 H3   ALA E   1    -108.100  64.863 -10.416  0.79 20.73 LIG 0.28  HD
ENDBRANCH 17 19
ENDBRANCH 1 17
TORSDOF 4
ENDMDL
MODEL 8
USER: ADFR SOLUTION from run 169
USER: SCORE 8.293251 LL:  -0.927 LR:  -7.366 RR:   0.000 FEB:  -6.173
USER: RMSD 3.819951
USER: SEED 168
USER: STATUS no improvement in best in 7 clusters for 5 generations
USER: GENES 6
USER: genes 0 Translation |==|  0.25395 0.57289 0.51484
USER: genes 1 Rotation |==|  0.58964 0.76728 0.66241 0.87967
USER: genes 2 Torsion [N]-CA--C-[O] |==|  0.39725
USER: genes 3 Torsion [N]-CA--C-[O] |==|  0.44677
USER: genes 4 Torsion [N]-C--CA-[N] |==|  0.32601
USER: genes 5 Torsion [C]-CA--N-[H1] |==|  0.72322
ROOT
ATOM      1  C   ALA E   1    -109.868  69.421  -9.083  0.79 25.31 LIG 0.25  C 
ATOM      2 O    ALA E   1    -110.607  69.719 -10.010  0.79 21.55 LIG-0.27  OA
ATOM      3  N   PRO E   2    -109.776  70.172  -7.964  0.79 27.56 LIG-0.34  N 
ATOM      4  CA  PRO E   2    -110.309  71.551  -7.895  0.79 29.17 LIG 0.18  C 
ATOM      5  CB  PRO E   2    -110.261  71.881  -6.393  0.79 31.66 LIG 0.04  C 
ATOM      6  CG  PRO E   2    -110.092  70.570  -5.686  0.79 31.87 LIG 0.02  C 
ATOM      7  CD  PRO E   2    -109.335  69.682  -6.650  0.79 37.64 LIG 0.13  C 
ENDROOT
BRANCH 4 8
ATOM      8  C   PRO E   2    -109.400  72.542  -8.641  0.79 31.28 LIG 0.24  C 
ATOM      9 O    PRO E   2    -109.932  73.459  -9.261  0.79 33.48 LIG-0.27  OA
ATOM     10  N   PRO E   3    -108.065  72.349  -8.620  0.79 31.99 LIG-0.34  N 
ATOM     11  CA  PRO E   3    -107.201  73.361  -9.246  0.79 36.13 LIG 0.17  C 
ATOM     12  CD  PRO E   3    -107.292  71.163  -8.226  0.79 37.75 LIG 0.13  C 
ATOM     13  CB  PRO E   3    -105.778  72.950  -8.815  0.79 39.82 LIG 0.04  C 
ATOM     14  CG  PRO E   3    -105.933  71.755  -7.902  0.79 32.33 LIG 0.02  C 
BRANCH 11 15
ATOM     15  C   PRO E   3    -107.302  73.294 -10.761  0.79 38.04 LIG 0.22  C 
ATOM     16 O    PRO E   3    -106.927  74.297 -11.364  0.79 39.77 LIG-0.29  OA
ENDBRANCH 11 15
ENDBRANCH 4 8
BRANCH 1 17
ATOM     17  CA  ALA E   1    -109.010  68.144  -9.165  0.79 27.80 LIG 0.27  C 
ATOM     18  CB  ALA E   1    -108.080  68.211 -10.386  0.79 29.16 LIG 0.05  C 
BRANCH 17 19
ATOM     19  N   ALA E   1    -109.859  66.958  -9.261  0.79 20.73 LIG-0.07  N 
ATOM     20 H1   ALA E   1    -109.927  66.576  -8.460  0.79 20.73 LIG 0.28  HD
ATOM     21 H2   ALA E   1    -110.669  67.194  -9.546  0.79 20.73 LIG 0.28  HD
ATOM     22 H3   ALA E   1    -109.500  66.381  -9.835  0.79 20.73 LIG 0.28  HD
ENDBRANCH 17 19
ENDBRANCH 1 17
TORSDOF 4
ENDMDL
MODEL 9
USER: ADFR SOLUTION from run 178
USER: SCORE 8.525664 LL:  -1.153 LR:  -7.372 RR:   0.000 FEB:  -6.179
USER: RMSD 6.628905
USER: SEED 177
USER: STATUS no improvement in best in 4 clusters for 5 generations
USER: GENES 6
USER: genes 0 Translation |==|  0.60648 0.10407 0.53558
USER: genes 1 Rotation |==|  0.49893 0.66088 0.78982 0.87433
USER: genes 2 Torsion [N]-CA--C-[O] |==|  0.93736
USER: genes 3 Torsion [N]-CA--C-[O] |==|  0.39405
USER: genes 4 Torsion [N]-C--CA-[N] |==|  0.51963
USER: genes 5 Torsion [C]-CA--N-[H1] |==|  0.92441
ROOT
ATOM      1  C   ALA E   1    -104.580  61.685  -8.834  0.79 25.31 LIG 0.25  C 
ATOM      2 O    ALA E   1    -104.859  61.860 -10.012  0.79 21.55 LIG-0.27  OA
ATOM      3  N   PRO E   2    -105.398  62.078  -7.834  0.79 27.56 LIG-0.34  N 
ATOM      4  CA  PRO E   2    -106.525  63.011  -8.057  0.79 29.17 LIG 0.18  C 
ATOM      5  CB  PRO E   2    -107.331  62.921  -6.750  0.79 31.66 LIG 0.04  C 
ATOM      6  CG  PRO E   2    -106.854  61.683  -6.052  0.79 31.87 LIG 0.02  C 
ATOM      7  CD  PRO E   2    -105.413  61.505  -6.479  0.79 37.64 LIG 0.13  C 
ENDROOT
BRANCH 4 8
ATOM      8  C   PRO E   2    -106.031  64.457  -8.227  0.79 31.28 LIG 0.24  C 
ATOM      9 O    PRO E   2    -104.932  64.751  -7.762  0.79 33.48 LIG-0.27  OA
ATOM     10  N   PRO E   3    -106.829  65.354  -8.841  0.79 31.99 LIG-0.34  N 
ATOM     11  CA  PRO E   3    -106.305  66.704  -9.093  0.79 36.13 LIG 0.17  C 
ATOM     12  CD  PRO E   3    -108.263  65.277  -9.155  0.79 37.75 LIG 0.13  C 
ATOM     13  CB  PRO E   3    -107.364  67.348 -10.009  0.79 39.82 LIG 0.04  C 
ATOM     14  CG  PRO E   3    -108.403  66.284 -10.281  0.79 32.33 LIG 0.02  C 
BRANCH 11 15
ATOM     15  C   PRO E   3    -106.215  67.498  -7.800  0.79 38.04 LIG 0.22  C 
ATOM     16 O    PRO E   3    -105.234  68.229  -7.690  0.79 39.77 LIG-0.29  OA
ENDBRANCH 11 15
ENDBRANCH 4 8
BRANCH 1 17
ATOM     17  CA  ALA E   1    -103.261  60.985  -8.454  0.79 27.80 LIG 0.27  C 
ATOM     18  CB  ALA E   1    -102.495  61.828  -7.423  0.79 29.16 LIG 0.05  C 
BRANCH 17 19
ATOM     19  N   ALA E   1    -102.427  60.780  -9.636  0.79 20.73 LIG-0.07  N 
ATOM     20 H1   ALA E   1    -102.944  60.719 -10.358  0.79 20.73 LIG 0.28  HD
ATOM     21 H2   ALA E   1    -101.869  61.467  -9.729  0.79 20.73 LIG 0.28  HD
ATOM     22 H3   ALA E   1    -101.959  60.029  -9.543  0.79 20.73 LIG 0.28  HD
ENDBRANCH 17 19
ENDBRANCH 1 17
TORSDOF 4
ENDMDL
MODEL 10
USER: ADFR SOLUTION from run 186
USER: SCORE 8.107733 LL:  -0.768 LR:  -7.339 RR:   0.000 FEB:  -6.146
USER: RMSD 2.342445
USER: SEED 185
USER: STATUS no improvement in best in 7 clusters for 5 generations
USER: GENES 6
USER: genes 0 Translation |==|  0.34982 0.47132 0.46666
USER: genes 1 Rotation |==|  0.51161 0.64191 0.62561 0.96255
USER: genes 2 Torsion [N]-CA--C-[O] |==|  0.41524
USER: genes 3 Torsion [N]-CA--C-[O] |==|  0.49616
USER: genes 4 Torsion [N]-C--CA-[N] |==|  0.36100
USER: genes 5 Torsion [C]-CA--N-[H1] |==|  0.61533
ROOT
ATOM      1  C   ALA E   1    -108.430  67.745  -9.661  0.79 25.31 LIG 0.25  C 
ATOM      2 O    ALA E   1    -108.416  67.856 -10.879  0.79 21.55 LIG-0.27  OA
ATOM      3  N   PRO E   2    -108.855  68.739  -8.852  0.79 27.56 LIG-0.34  N 
ATOM      4  CA  PRO E   2    -109.039  70.125  -9.336  0.79 29.17 LIG 0.18  C 
ATOM      5  CB  PRO E   2    -109.805  70.809  -8.190  0.79 31.66 LIG 0.04  C 
ATOM      6  CG  PRO E   2    -110.346  69.702  -7.335  0.79 31.87 LIG 0.02  C 
ATOM      7  CD  PRO E   2    -109.368  68.557  -7.486  0.79 37.64 LIG 0.13  C 
ENDROOT
BRANCH 4 8
ATOM      8  C   PRO E   2    -107.689  70.841  -9.514  0.79 31.28 LIG 0.24  C 
ATOM      9 O    PRO E   2    -107.602  71.701 -10.387  0.79 33.48 LIG-0.27  OA
ATOM     10  N   PRO E   3    -106.647  70.476  -8.739  0.79 31.99 LIG-0.34  N 
ATOM     11  CA  PRO E   3    -105.394  71.238  -8.844  0.79 36.13 LIG 0.17  C 
ATOM     12  CD  PRO E   3    -106.471  69.282  -7.901  0.79 37.75 LIG 0.13  C 
ATOM     13  CB  PRO E   3    -104.545  70.718  -7.666  0.79 39.82 LIG 0.04  C 
ATOM     14  CG  PRO E   3    -105.409  69.731  -6.915  0.79 32.33 LIG 0.02  C 
BRANCH 11 15
ATOM     15  C   PRO E   3    -104.681  70.926 -10.149  0.79 38.04 LIG 0.22  C 
ATOM     16 O    PRO E   3    -103.632  71.536 -10.342  0.79 39.77 LIG-0.29  OA
ENDBRANCH 11 15
ENDBRANCH 4 8
BRANCH 1 17
ATOM     17  CA  ALA E   1    -107.962  66.432  -9.005  0.79 27.80 LIG 0.27  C 
ATOM     18  CB  ALA E   1    -106.437  66.294  -9.131  0.79 29.16 LIG 0.05  C 
BRANCH 17 19
ATOM     19  N   ALA E   1    -108.611  65.282  -9.631  0.79 20.73 LIG-0.07  N 
ATOM     20 H1   ALA E   1    -108.851  64.698  -9.004  0.79 20.73 LIG 0.28  HD
ATOM     21 H2   ALA E   1    -109.334  65.554 -10.074  0.79 20.73 LIG 0.28  HD
ATOM     22 H3   ALA E   1    -108.046  64.894 -10.198  0.79 20.73 LIG 0.28  HD
ENDBRANCH 17 19
ENDBRANCH 1 17
TORSDOF 4
ENDMDL
MODEL 11
USER: ADFR SOLUTION from run 185
USER: SCORE 8.393732 LL:  -1.308 LR:  -7.086 RR:   0.000 FEB:  -5.893
USER: RMSD 4.684197
USER: SEED 184
USER: STATUS searching
USER: GENES 6
USER: genes 0 Translation |==|  0.36446 0.42017 0.55286
USER: genes 1 Rotation |==|  0.64011 0.96417 0.60622 0.56031
USER: genes 2 Torsion [N]-CA--C-[O] |==|  0.86808
USER: genes 3 Torsion [N]-CA--C-[O] |==|  0.96315
USER: genes 4 Torsion [N]-C--CA-[N] |==|  0.49143
USER: genes 5 Torsion [C]-CA--N-[H1] |==|  0.90032
ROOT
ATOM      1  C   ALA E   1    -108.210  66.901  -8.627  0.79 25.31 LIG 0.25  C 
ATOM      2 O    ALA E   1    -109.177  66.865  -7.879  0.79 21.55 LIG-0.27  OA
ATOM      3  N   PRO E   2    -107.256  67.852  -8.526  0.79 27.56 LIG-0.34  N 
ATOM      4  CA  PRO E   2    -107.453  69.084  -7.729  0.79 29.17 LIG 0.18  C 
ATOM      5  CB  PRO E   2    -106.042  69.693  -7.653  0.79 31.66 LIG 0.04  C 
ATOM      6  CG  PRO E   2    -105.096  68.599  -8.050  0.79 31.87 LIG 0.02  C 
ATOM      7  CD  PRO E   2    -105.872  67.716  -9.003  0.79 37.64 LIG 0.13  C 
ENDROOT
BRANCH 4 8
ATOM      8  C   PRO E   2    -108.375  70.079  -8.453  0.79 31.28 LIG 0.24  C 
ATOM      9 O    PRO E   2    -108.155  70.314  -9.638  0.79 33.48 LIG-0.27  OA
ATOM     10  N   PRO E   3    -109.361  70.682  -7.758  0.79 31.99 LIG-0.34  N 
ATOM     11  CA  PRO E   3    -110.302  71.549  -8.483  0.79 36.13 LIG 0.17  C 
ATOM     12  CD  PRO E   3    -109.565  70.779  -6.305  0.79 37.75 LIG 0.13  C 
ATOM     13  CB  PRO E   3    -111.405  71.845  -7.447  0.79 39.82 LIG 0.04  C 
ATOM     14  CG  PRO E   3    -111.052  71.061  -6.205  0.79 32.33 LIG 0.02  C 
BRANCH 11 15
ATOM     15  C   PRO E   3    -109.633  72.852  -8.886  0.79 38.04 LIG 0.22  C 
ATOM     16 O    PRO E   3    -108.553  73.085  -8.347  0.79 39.77 LIG-0.29  OA
ENDBRANCH 11 15
ENDBRANCH 4 8
BRANCH 1 17
ATOM     17  CA  ALA E   1    -108.046  65.830  -9.721  0.79 27.80 LIG 0.27  C 
ATOM     18  CB  ALA E   1    -108.052  66.488 -11.109  0.79 29.16 LIG 0.05  C 
BRANCH 17 19
ATOM     19  N   ALA E   1    -109.121  64.843  -9.643  0.79 20.73 LIG-0.07  N 
ATOM     20 H1   ALA E   1    -109.334  64.703  -8.790  0.79 20.73 LIG 0.28  HD
ATOM     21 H2   ALA E   1    -109.835  65.146 -10.080  0.79 20.73 LIG 0.28  HD
ATOM     22 H3   ALA E   1    -108.851  64.079 -10.010  0.79 20.73 LIG 0.28  HD
ENDBRANCH 17 19
ENDBRANCH 1 17
TORSDOF 4
ENDMDL
MODEL 12
USER: ADFR SOLUTION from run 172
USER: SCORE 8.207363 LL:  -1.159 LR:  -7.048 RR:   0.000 FEB:  -5.855
USER: RMSD 3.158747
USER: SEED 171
USER: STATUS no improvement in best in 8 clusters for 5 generations
USER: GENES 6
USER: genes 0 Translation |==|  0.38747 0.42887 0.54713
USER: genes 1 Rotation |==|  0.78058 0.85897 0.49937 0.70594
USER: genes 2 Torsion [N]-CA--C-[O] |==|  0.98332
USER: genes 3 Torsion [N]-CA--C-[O] |==|  0.53395
USER: genes 4 Torsion [N]-C--CA-[N] |==|  0.39832
USER: genes 5 Torsion [C]-CA--N-[H1] |==|  0.32288
ROOT
ATOM      1  C   ALA E   1    -107.865  67.044  -8.695  0.79 25.31 LIG 0.25  C 
ATOM      2 O    ALA E   1    -108.586  68.013  -8.503  0.79 21.55 LIG-0.27  OA
ATOM      3  N   PRO E   2    -106.557  67.042  -8.357  0.79 27.56 LIG-0.34  N 
ATOM      4  CA  PRO E   2    -105.827  68.285  -8.024  0.79 29.17 LIG 0.18  C 
ATOM      5  CB  PRO E   2    -104.506  67.776  -7.420  0.79 31.66 LIG 0.04  C 
ATOM      6  CG  PRO E   2    -104.732  66.332  -7.086  0.79 31.87 LIG 0.02  C 
ATOM      7  CD  PRO E   2    -105.757  65.839  -8.085  0.79 37.64 LIG 0.13  C 
ENDROOT
BRANCH 4 8
ATOM      8  C   PRO E   2    -105.503  69.101  -9.286  0.79 31.28 LIG 0.24  C 
ATOM      9 O    PRO E   2    -105.766  68.605 -10.378  0.79 33.48 LIG-0.27  OA
ATOM     10  N   PRO E   3    -104.912  70.307  -9.153  0.79 31.99 LIG-0.34  N 
ATOM     11  CA  PRO E   3    -104.705  71.124 -10.357  0.79 36.13 LIG 0.17  C 
ATOM     12  CD  PRO E   3    -104.241  70.901  -7.988  0.79 37.75 LIG 0.13  C 
ATOM     13  CB  PRO E   3    -104.259  72.492  -9.804  0.79 39.82 LIG 0.04  C 
ATOM     14  CG  PRO E   3    -104.309  72.385  -8.297  0.79 32.33 LIG 0.02  C 
BRANCH 11 15
ATOM     15  C   PRO E   3    -103.592  70.546 -11.216  0.79 38.04 LIG 0.22  C 
ATOM     16 O    PRO E   3    -103.183  71.273 -12.118  0.79 39.77 LIG-0.29  OA
ENDBRANCH 11 15
ENDBRANCH 4 8
BRANCH 1 17
ATOM     17  CA  ALA E   1    -108.447  65.768  -9.333  0.79 27.80 LIG 0.27  C 
ATOM     18  CB  ALA E   1    -108.427  65.888 -10.864  0.79 29.16 LIG 0.05  C 
BRANCH 17 19
ATOM     19  N   ALA E   1    -109.816  65.542  -8.877  0.79 20.73 LIG-0.07  N 
ATOM     20 H1   ALA E   1    -110.373  65.596  -9.569  0.79 20.73 LIG 0.28  HD
ATOM     21 H2   ALA E   1    -109.878  64.734  -8.510  0.79 20.73 LIG 0.28  HD
ATOM     22 H3   ALA E   1    -110.034  66.158  -8.273  0.79 20.73 LIG 0.28  HD
ENDBRANCH 17 19
ENDBRANCH 1 17
TORSDOF 4
ENDMDL
MODEL 13
USER: ADFR SOLUTION from run 78
USER: SCORE 8.226799 LL:  -1.280 LR:  -6.947 RR:   0.000 FEB:  -5.753
USER: RMSD 4.409537
USER: SEED 77
USER: STATUS no improvement in best in 8 clusters for 5 generations
USER: GENES 6
USER: genes 0 Translation |==|  0.34152 0.37816 0.63533
USER: genes 1 Rotation |==|  0.58647 0.72139 0.74920 0.86250
USER: genes 2 Torsion [N]-CA--C-[O] |==|  0.73759
USER: genes 3 Torsion [N]-CA--C-[O] |==|  0.77108
USER: genes 4 Torsion [N]-C--CA-[N] |==|  0.39965
USER: genes 5 Torsion [C]-CA--N-[H1] |==|  0.35092
ROOT
ATOM      1  C   ALA E   1    -108.554  66.208  -7.637  0.79 25.31 LIG 0.25  C 
ATOM      2 O    ALA E   1    -109.217  66.559  -8.603  0.79 21.55 LIG-0.27  OA
ATOM      3  N   PRO E   2    -108.823  66.636  -6.384  0.79 27.56 LIG-0.34  N 
ATOM      4  CA  PRO E   2    -109.720  67.783  -6.119  0.79 29.17 LIG 0.18  C 
ATOM      5  CB  PRO E   2    -109.966  67.705  -4.602  0.79 31.66 LIG 0.04  C 
ATOM      6  CG  PRO E   2    -109.538  66.330  -4.183  0.79 31.87 LIG 0.02  C 
ATOM      7  CD  PRO E   2    -108.444  65.932  -5.150  0.79 37.64 LIG 0.13  C 
ENDROOT
BRANCH 4 8
ATOM      8  C   PRO E   2    -109.028  69.120  -6.432  0.79 31.28 LIG 0.24  C 
ATOM      9 O    PRO E   2    -108.474  69.714  -5.512  0.79 33.48 LIG-0.27  OA
ATOM     10  N   PRO E   3    -109.088  69.609  -7.688  0.79 31.99 LIG-0.34  N 
ATOM     11  CA  PRO E   3    -108.334  70.832  -8.001  0.79 36.13 LIG 0.17  C 
ATOM     12  CD  PRO E   3    -109.958  69.223  -8.808  0.79 37.75 LIG 0.13  C 
ATOM     13  CB  PRO E   3    -108.426  70.941  -9.537  0.79 39.82 LIG 0.04  C 
ATOM     14  CG  PRO E   3    -109.177  69.718 -10.011  0.79 32.33 LIG 0.02  C 
BRANCH 11 15
ATOM     15  C   PRO E   3    -108.996  72.048  -7.374  0.79 38.04 LIG 0.22  C 
ATOM     16 O    PRO E   3    -109.935  72.528  -8.006  0.79 39.77 LIG-0.29  OA
ENDBRANCH 11 15
ENDBRANCH 4 8
BRANCH 1 17
ATOM     17  CA  ALA E   1    -107.375  65.235  -7.828  0.79 27.80 LIG 0.27  C 
ATOM     18  CB  ALA E   1    -106.105  66.014  -8.204  0.79 29.16 LIG 0.05  C 
BRANCH 17 19
ATOM     19  N   ALA E   1    -107.677  64.258  -8.872  0.79 20.73 LIG-0.07  N 
ATOM     20 H1   ALA E   1    -107.027  64.262  -9.480  0.79 20.73 LIG 0.28  HD
ATOM     21 H2   ALA E   1    -107.738  63.447  -8.510  0.79 20.73 LIG 0.28  HD
ATOM     22 H3   ALA E   1    -108.449  64.467  -9.261  0.79 20.73 LIG 0.28  HD
ENDBRANCH 17 19
ENDBRANCH 1 17
TORSDOF 4
ENDMDL
