MODEL 1
USER: ADFR SOLUTION from run 5
USER: SCORE 22.863520 LL:  -4.667 LR: -19.218 RR:   0.000 FEB: -12.953
USER: RMSD 5.518077
USER: SEED 699849
USER: STATUS searching
USER: GENES 23
USER: genes 0 Translation |==|  0.46054 0.44744 0.34156
USER: genes 1 Rotation |==|  0.85575 0.37173 0.82522 0.53488
USER: genes 2 Torsion [C]-CA--N-[C] |==|  0.82778
USER: genes 3 Torsion [N]-C--CA-[CB] |==|  0.72343
USER: genes 4 Torsion [N]-C--CA-[N] |==|  0.30766
USER: genes 5 Torsion [C]-CA--N-[C] |==|  0.63039
USER: genes 6 Torsion [N]-C--CA-[N] |==|  0.40581
USER: genes 7 Torsion [C]-CA--N-[H3] |==|  0.60544
USER: genes 8 Torsion [C]-CA--CB-[CG2] |==|  0.09090
USER: genes 9 Torsion [CA]-CB--OG1-[HG1] |==|  0.17117
USER: genes 10 Torsion [N]-CA--C-[N] |==|  0.43409
USER: genes 11 Torsion [C]-N--CA-[CB] |==|  0.21977
USER: genes 12 Torsion [N]-CA--CB-[CG] |==|  0.13156
USER: genes 13 Torsion [CA]-CB--CG-[CD] |==|  0.31957
USER: genes 14 Torsion [CB]-CG--CD-[NE2] |==|  0.53730
USER: genes 15 Torsion [N]-CA--C-[N] |==|  0.85120
USER: genes 16 Torsion [C]-N--CA-[CB] |==|  0.32258
USER: genes 17 Torsion [N]-CA--C-[O] |==|  0.48493
USER: genes 18 Torsion [N]-CA--CB-[CG] |==|  0.71739
USER: genes 19 Torsion [CA]-CB--CG-[CD] |==|  0.67091
USER: genes 20 Torsion [CB]-CG--CD-[OE2] |==|  0.20676
USER: genes 21 Torsion [N]-CA--CB-[CG] |==|  0.42849
USER: genes 22 Torsion [CA]-CB--CG-[CD2] |==|  0.21641
ROOT
ATOM      1  CA  PHE D   4       9.218 -13.073 -39.096  1.00 20.42 LIG 0.18  C 
ENDROOT
BRANCH 1 2
ATOM      2  N   PHE D   4       8.667 -12.159 -40.090  1.00 19.57 LIG-0.35  N 
ATOM      3 H    PHE D   4       8.711 -12.436 -40.902  1.00 19.57 LIG 0.16  HD
ATOM      4  C   PRO D   3       8.149 -11.003 -39.722  1.00 20.09 LIG 0.24  C 
ATOM      5 O    PRO D   3       7.858 -10.747 -38.541  1.00 21.30 LIG-0.27  OA
BRANCH 4 6
ATOM      6  CA  PRO D   3       7.909  -9.992 -40.839  1.00 18.08 LIG 0.18  C 
ATOM      7  CB  PRO D   3       9.008  -8.944 -40.920  1.00 20.04 LIG 0.04  C 
ATOM      8  CG  PRO D   3       8.382  -7.690 -40.396  1.00 21.57 LIG 0.02  C 
ATOM      9  CD  PRO D   3       6.931  -7.748 -40.600  1.00 18.25 LIG 0.13  C 
ATOM     10  N   PRO D   3       6.682  -9.203 -40.692  1.00 17.53 LIG-0.34  N 
ATOM     11  C   THR D   2       5.501  -9.792 -40.864  1.00 17.82 LIG 0.24  C 
ATOM     12 O    THR D   2       5.420 -10.991 -41.139  1.00 17.76 LIG-0.27  OA
BRANCH 11 13
ATOM     13  CA  THR D   2       4.266  -8.909 -40.755  1.00 18.92 LIG 0.20  C 
BRANCH 13 14
ATOM     14  N   THR D   2       3.631  -8.753 -42.054  1.00 17.98 LIG-0.34  N 
ATOM     15  C   ALA D   1       3.244  -7.569 -42.518  1.00 18.22 LIG 0.25  C 
ATOM     16 O    ALA D   1       3.378  -6.511 -41.875  1.00 17.84 LIG-0.27  OA
ATOM     17 H    THR D   2       3.533  -9.489 -42.487  1.00 17.98 LIG 0.16  HD
BRANCH 15 18
ATOM     18  CA  ALA D   1       2.603  -7.572 -43.899  1.00 17.93 LIG 0.27  C 
ATOM     19  CB  ALA D   1       3.660  -7.314 -45.003  1.00 19.43 LIG 0.05  C 
BRANCH 18 20
ATOM     20  N   ALA D   1       1.541  -6.506 -43.952  1.00 19.30 LIG-0.07  N 
ATOM     21 H3   ALA D   1       0.848  -6.801 -44.426  1.00 19.30 LIG 0.28  HD
ATOM     22 H2   ALA D   1       1.872  -5.774 -44.336  1.00 19.30 LIG 0.28  HD
ATOM     23 H1   ALA D   1       1.273  -6.312 -43.126  1.00 19.30 LIG 0.28  HD
ENDBRANCH 18 20
ENDBRANCH 15 18
ENDBRANCH 13 14
BRANCH 13 24
ATOM     24  CB  THR D   2       3.280  -9.526 -39.754  1.00 21.41 LIG 0.15  C 
ATOM     25  CG2 THR D   2       4.035 -10.252 -38.652  1.00 25.14 LIG 0.04  C 
BRANCH 24 26
ATOM     26 OG1  THR D   2       2.516  -8.481 -39.144  1.00 26.95 LIG-0.39  OA
ATOM     27 HG1  THR D   2       2.075  -8.076 -39.732  1.00 26.95 LIG 0.21  HD
ENDBRANCH 24 26
ENDBRANCH 13 24
ENDBRANCH 11 13
ENDBRANCH 4 6
ENDBRANCH 1 2
BRANCH 1 28
ATOM     28  C   PHE D   4      10.393 -12.412 -38.379  1.00 22.48 LIG 0.24  C 
ATOM     29 O    PHE D   4      11.014 -11.481 -38.906  1.00 22.33 LIG-0.27  OA
ATOM     30  N   GLN D   5      10.684 -12.876 -37.167  1.00 24.26 LIG-0.35  N 
ATOM     31 H    GLN D   5      10.397 -13.624 -36.853  1.00 24.26 LIG 0.16  HD
BRANCH 30 32
ATOM     32  CA  GLN D   5      11.545 -12.118 -36.251  1.00 25.91 LIG 0.18  C 
BRANCH 32 33
ATOM     33  CB  GLN D   5      10.769 -10.985 -35.570  1.00 26.73 LIG 0.04  C 
BRANCH 33 34
ATOM     34  CG  GLN D   5       9.402 -11.377 -34.980  1.00 26.03 LIG 0.10  C 
BRANCH 34 35
ATOM     35  CD  GLN D   5       9.314 -11.263 -33.458  1.00 27.76 LIG 0.21  C 
ATOM     36  NE2 GLN D   5       8.242 -11.860 -32.886  1.00 30.48 LIG-0.37  N 
ATOM     37 22HE GLN D   5       8.125 -11.812 -32.036  1.00 30.48 LIG 0.16  HD
ATOM     38 21HE GLN D   5       7.677 -12.288 -33.374  1.00 30.48 LIG 0.16  HD
ATOM     39 OE1  GLN D   5      10.165 -10.627 -32.783  1.00 30.83 LIG-0.27  OA
ENDBRANCH 34 35
ENDBRANCH 33 34
ENDBRANCH 32 33
BRANCH 32 40
ATOM     40  C   GLN D   5      12.172 -12.952 -35.153  1.00 27.22 LIG 0.24  C 
ATOM     41  N   GLU D   6      11.329 -13.667 -34.428  1.00 28.14 LIG-0.34  N 
ATOM     42 H    GLU D   6      10.502 -13.785 -34.633  1.00 28.14 LIG 0.16  HD
ATOM     43 O    GLN D   5      13.386 -12.924 -34.948  1.00 29.15 LIG-0.27  OA
BRANCH 41 44
ATOM     44  CA  GLU D   6      11.742 -14.323 -33.206  1.00 27.71 LIG 0.19  C 
BRANCH 44 45
ATOM     45  C   GLU D   6      11.536 -15.848 -33.244  1.00 28.68 LIG 0.20  C 
ATOM     46 O    GLU D   6      11.947 -16.564 -32.285  1.00 28.16 LIG-0.65  OA
ATOM     47 OXT  GLU D   6      10.977 -16.321 -34.255  1.00 19.61 LIG-0.65  OA
ENDBRANCH 44 45
BRANCH 44 48
ATOM     48  CB  GLU D   6      10.959 -13.692 -32.053  1.00 27.67 LIG 0.05  C 
BRANCH 48 49
ATOM     49  CG  GLU D   6      11.812 -12.666 -31.248  1.00 29.50 LIG 0.12  C 
BRANCH 49 50
ATOM     50  CD  GLU D   6      11.987 -13.076 -29.779  1.00 27.58 LIG 0.17  C 
ATOM     51 OE2  GLU D   6      12.765 -14.013 -29.432  1.00 34.29 LIG-0.65  OA
ATOM     52 OE1  GLU D   6      11.326 -12.426 -28.942  1.00 35.41 LIG-0.65  OA
ENDBRANCH 49 50
ENDBRANCH 48 49
ENDBRANCH 44 48
ENDBRANCH 41 44
ENDBRANCH 32 40
ENDBRANCH 30 32
ENDBRANCH 1 28
BRANCH 1 53
ATOM     53  CB  PHE D   4       9.627 -14.405 -39.749  1.00 18.89 LIG 0.07  C 
BRANCH 53 54
ATOM     54  CG  PHE D   4      10.717 -15.148 -39.010  1.00 17.25 LIG-0.06  A 
ATOM     55  CD2 PHE D   4      10.427 -15.875 -37.858  1.00 16.93 LIG 0.01  A 
ATOM     56  CE2 PHE D   4      11.415 -16.549 -37.197  1.00 15.87 LIG 0.00  A 
ATOM     57  CZ  PHE D   4      12.715 -16.529 -37.663  1.00 16.57 LIG 0.00  A 
ATOM     58  CE1 PHE D   4      13.025 -15.812 -38.811  1.00 17.16 LIG 0.00  A 
ATOM     59  CD1 PHE D   4      12.022 -15.127 -39.472  1.00 17.60 LIG 0.01  A 
ENDBRANCH 53 54
ENDBRANCH 1 53
TORSDOF 21
ENDMDL
MODEL 2
USER: ADFR SOLUTION from run 79
USER: SCORE 21.564154 LL:  -3.902 LR: -19.160 RR:   0.000 FEB: -12.895
USER: RMSD 5.419782
USER: SEED 78
USER: STATUS no improvement in best in 1 clusters for 5 generations
USER: GENES 23
USER: genes 0 Translation |==|  0.50000 0.51685 0.41253
USER: genes 1 Rotation |==|  0.23335 0.60683 0.09376 0.54955
USER: genes 2 Torsion [C]-CA--N-[C] |==|  0.60372
USER: genes 3 Torsion [N]-C--CA-[CB] |==|  0.00895
USER: genes 4 Torsion [N]-C--CA-[N] |==|  0.33334
USER: genes 5 Torsion [C]-CA--N-[C] |==|  0.61399
USER: genes 6 Torsion [N]-C--CA-[N] |==|  0.42262
USER: genes 7 Torsion [C]-CA--N-[H3] |==|  0.26442
USER: genes 8 Torsion [C]-CA--CB-[CG2] |==|  0.46830
USER: genes 9 Torsion [CA]-CB--OG1-[HG1] |==|  0.85448
USER: genes 10 Torsion [N]-CA--C-[N] |==|  0.47530
USER: genes 11 Torsion [C]-N--CA-[CB] |==|  0.24072
USER: genes 12 Torsion [N]-CA--CB-[CG] |==|  0.17389
USER: genes 13 Torsion [CA]-CB--CG-[CD] |==|  0.21682
USER: genes 14 Torsion [CB]-CG--CD-[NE2] |==|  0.73752
USER: genes 15 Torsion [N]-CA--C-[N] |==|  0.48735
USER: genes 16 Torsion [C]-N--CA-[CB] |==|  0.29339
USER: genes 17 Torsion [N]-CA--C-[O] |==|  0.32250
USER: genes 18 Torsion [N]-CA--CB-[CG] |==|  0.82614
USER: genes 19 Torsion [CA]-CB--CG-[CD] |==|  0.32433
USER: genes 20 Torsion [CB]-CG--CD-[OE2] |==|  0.09393
USER: genes 21 Torsion [N]-CA--CB-[CG] |==|  0.83870
USER: genes 22 Torsion [CA]-CB--CG-[CD2] |==|  0.77698
ROOT
ATOM      1  CA  PHE D   4      10.165 -11.824 -37.606  1.00 20.42 LIG 0.18  C 
ENDROOT
BRANCH 1 2
ATOM      2  N   PHE D   4      10.011 -10.903 -38.726  1.00 19.57 LIG-0.35  N 
ATOM      3 H    PHE D   4      10.599 -10.277 -38.764  1.00 19.57 LIG 0.16  HD
ATOM      4  C   PRO D   3       9.028 -11.059 -39.590  1.00 20.09 LIG 0.24  C 
ATOM      5 O    PRO D   3       8.365 -12.107 -39.666  1.00 21.30 LIG-0.27  OA
BRANCH 4 6
ATOM      6  CA  PRO D   3       8.756  -9.875 -40.515  1.00 18.08 LIG 0.18  C 
ATOM      7  CB  PRO D   3       9.746  -8.739 -40.310  1.00 20.04 LIG 0.04  C 
ATOM      8  CG  PRO D   3       8.964  -7.671 -39.612  1.00 21.57 LIG 0.02  C 
ATOM      9  CD  PRO D   3       7.542  -7.814 -39.939  1.00 18.25 LIG 0.13  C 
ATOM     10  N   PRO D   3       7.448  -9.240 -40.322  1.00 17.53 LIG-0.34  N 
ATOM     11  C   THR D   2       6.346  -9.886 -40.695  1.00 17.82 LIG 0.24  C 
ATOM     12 O    THR D   2       6.405 -11.012 -41.195  1.00 17.76 LIG-0.27  OA
BRANCH 11 13
ATOM     13  CA  THR D   2       5.024  -9.153 -40.522  1.00 18.92 LIG 0.20  C 
BRANCH 13 14
ATOM     14  N   THR D   2       4.353  -8.997 -41.804  1.00 17.98 LIG-0.34  N 
ATOM     15  C   ALA D   1       3.730  -7.874 -42.147  1.00 18.22 LIG 0.25  C 
ATOM     16 O    ALA D   1       3.658  -6.882 -41.399  1.00 17.84 LIG-0.27  OA
ATOM     17 H    THR D   2       4.398  -9.690 -42.310  1.00 17.98 LIG 0.16  HD
BRANCH 15 18
ATOM     18  CA  ALA D   1       3.085  -7.865 -43.526  1.00 17.93 LIG 0.27  C 
ATOM     19  CB  ALA D   1       4.102  -7.434 -44.613  1.00 19.43 LIG 0.05  C 
BRANCH 18 20
ATOM     20  N   ALA D   1       1.915  -6.917 -43.517  1.00 19.30 LIG-0.07  N 
ATOM     21 H3   ALA D   1       2.175  -6.122 -43.820  1.00 19.30 LIG 0.28  HD
ATOM     22 H2   ALA D   1       1.608  -6.831 -42.686  1.00 19.30 LIG 0.28  HD
ATOM     23 H1   ALA D   1       1.270  -7.237 -44.039  1.00 19.30 LIG 0.28  HD
ENDBRANCH 18 20
ENDBRANCH 15 18
ENDBRANCH 13 14
BRANCH 13 24
ATOM     24  CB  THR D   2       4.129  -9.930 -39.547  1.00 21.41 LIG 0.15  C 
ATOM     25  CG2 THR D   2       2.932  -9.084 -39.144  1.00 25.14 LIG 0.04  C 
BRANCH 24 26
ATOM     26 OG1  THR D   2       3.635 -11.104 -40.199  1.00 26.95 LIG-0.39  OA
ATOM     27 HG1  THR D   2       3.279 -10.891 -40.929  1.00 26.95 LIG 0.21  HD
ENDBRANCH 24 26
ENDBRANCH 13 24
ENDBRANCH 11 13
ENDBRANCH 4 6
ENDBRANCH 1 2
BRANCH 1 28
ATOM     28  C   PHE D   4      10.627 -11.060 -36.367  1.00 22.48 LIG 0.24  C 
ATOM     29 O    PHE D   4      10.951  -9.868 -36.441  1.00 22.33 LIG-0.27  OA
ATOM     30  N   GLN D   5      10.634 -11.737 -35.222  1.00 24.26 LIG-0.35  N 
ATOM     31 H    GLN D   5      10.590 -12.594 -35.167  1.00 24.26 LIG 0.16  HD
BRANCH 30 32
ATOM     32  CA  GLN D   5      10.721 -11.043 -33.931  1.00 25.91 LIG 0.18  C 
BRANCH 32 33
ATOM     33  CB  GLN D   5       9.333 -10.631 -33.428  1.00 26.73 LIG 0.04  C 
BRANCH 33 34
ATOM     34  CG  GLN D   5       8.358 -11.788 -33.144  1.00 26.03 LIG 0.10  C 
BRANCH 34 35
ATOM     35  CD  GLN D   5       8.608 -12.514 -31.821  1.00 27.76 LIG 0.21  C 
ATOM     36  NE2 GLN D   5       9.381 -13.623 -31.898  1.00 30.48 LIG-0.37  N 
ATOM     37 22HE GLN D   5       9.539 -14.087 -31.192  1.00 30.48 LIG 0.16  HD
ATOM     38 21HE GLN D   5       9.715 -13.863 -32.654  1.00 30.48 LIG 0.16  HD
ATOM     39 OE1  GLN D   5       8.099 -12.127 -30.737  1.00 30.83 LIG-0.27  OA
ENDBRANCH 34 35
ENDBRANCH 33 34
ENDBRANCH 32 33
BRANCH 32 40
ATOM     40  C   GLN D   5      11.371 -11.857 -32.830  1.00 27.22 LIG 0.24  C 
ATOM     41  N   GLU D   6      11.548 -11.224 -31.683  1.00 28.14 LIG-0.34  N 
ATOM     42 H    GLU D   6      11.200 -10.461 -31.498  1.00 28.14 LIG 0.16  HD
ATOM     43 O    GLN D   5      11.731 -13.018 -33.027  1.00 29.15 LIG-0.27  OA
BRANCH 41 44
ATOM     44  CA  GLU D   6      12.361 -11.784 -30.623  1.00 27.71 LIG 0.19  C 
BRANCH 44 45
ATOM     45  C   GLU D   6      11.665 -11.750 -29.251  1.00 28.68 LIG 0.20  C 
ATOM     46 O    GLU D   6      11.381 -12.833 -28.661  1.00 28.16 LIG-0.65  OA
ATOM     47 OXT  GLU D   6      11.386 -10.627 -28.782  1.00 19.61 LIG-0.65  OA
ENDBRANCH 44 45
BRANCH 44 48
ATOM     48  CB  GLU D   6      13.678 -11.006 -30.590  1.00 27.67 LIG 0.05  C 
BRANCH 48 49
ATOM     49  CG  GLU D   6      14.490 -11.157 -31.911  1.00 29.50 LIG 0.12  C 
BRANCH 49 50
ATOM     50  CD  GLU D   6      14.665  -9.822 -32.646  1.00 27.58 LIG 0.17  C 
ATOM     51 OE2  GLU D   6      14.787  -8.725 -32.025  1.00 34.29 LIG-0.65  OA
ATOM     52 OE1  GLU D   6      14.692  -9.877 -33.894  1.00 35.41 LIG-0.65  OA
ENDBRANCH 49 50
ENDBRANCH 48 49
ENDBRANCH 44 48
ENDBRANCH 41 44
ENDBRANCH 32 40
ENDBRANCH 30 32
ENDBRANCH 1 28
BRANCH 1 53
ATOM     53  CB  PHE D   4      11.136 -12.962 -37.965  1.00 18.89 LIG 0.07  C 
BRANCH 53 54
ATOM     54  CG  PHE D   4      10.723 -13.770 -39.174  1.00 17.25 LIG-0.06  A 
ATOM     55  CD2 PHE D   4       9.760 -14.771 -39.067  1.00 16.93 LIG 0.01  A 
ATOM     56  CE2 PHE D   4       9.387 -15.494 -40.165  1.00 15.87 LIG 0.00  A 
ATOM     57  CZ  PHE D   4       9.951 -15.243 -41.399  1.00 16.57 LIG 0.00  A 
ATOM     58  CE1 PHE D   4      10.912 -14.249 -41.529  1.00 17.16 LIG 0.00  A 
ATOM     59  CD1 PHE D   4      11.289 -13.523 -40.414  1.00 17.60 LIG 0.01  A 
ENDBRANCH 53 54
ENDBRANCH 1 53
TORSDOF 21
ENDMDL
MODEL 3
USER: ADFR SOLUTION from run 122
USER: SCORE 23.022236 LL:  -4.694 LR: -18.922 RR:   0.000 FEB: -12.658
USER: RMSD 2.087206
USER: SEED 121
USER: STATUS no improvement in best in 3 clusters for 5 generations
USER: GENES 23
USER: genes 0 Translation |==|  0.57406 0.50694 0.49550
USER: genes 1 Rotation |==|  0.52590 0.51060 0.50462 0.99919
USER: genes 2 Torsion [C]-CA--N-[C] |==|  0.69702
USER: genes 3 Torsion [N]-C--CA-[CB] |==|  0.70744
USER: genes 4 Torsion [N]-C--CA-[N] |==|  0.37294
USER: genes 5 Torsion [C]-CA--N-[C] |==|  0.63108
USER: genes 6 Torsion [N]-C--CA-[N] |==|  0.50690
USER: genes 7 Torsion [C]-CA--N-[H3] |==|  0.28223
USER: genes 8 Torsion [C]-CA--CB-[CG2] |==|  0.36281
USER: genes 9 Torsion [CA]-CB--OG1-[HG1] |==|  0.08251
USER: genes 10 Torsion [N]-CA--C-[N] |==|  0.89854
USER: genes 11 Torsion [C]-N--CA-[CB] |==|  0.85306
USER: genes 12 Torsion [N]-CA--CB-[CG] |==|  0.77415
USER: genes 13 Torsion [CA]-CB--CG-[CD] |==|  0.95506
USER: genes 14 Torsion [CB]-CG--CD-[NE2] |==|  0.78188
USER: genes 15 Torsion [N]-CA--C-[N] |==|  0.90332
USER: genes 16 Torsion [C]-N--CA-[CB] |==|  0.54948
USER: genes 17 Torsion [N]-CA--C-[O] |==|  0.78492
USER: genes 18 Torsion [N]-CA--CB-[CG] |==|  0.86155
USER: genes 19 Torsion [CA]-CB--CG-[CD] |==|  0.47435
USER: genes 20 Torsion [CB]-CG--CD-[OE2] |==|  0.06784
USER: genes 21 Torsion [N]-CA--CB-[CG] |==|  0.14857
USER: genes 22 Torsion [CA]-CB--CG-[CD2] |==|  0.75301
ROOT
ATOM      1  CA  PHE D   4      11.943 -12.002 -35.863  1.00 20.42 LIG 0.18  C 
ENDROOT
BRANCH 1 2
ATOM      2  N   PHE D   4      10.699 -12.250 -36.583  1.00 19.57 LIG-0.35  N 
ATOM      3 H    PHE D   4      10.036 -12.491 -36.090  1.00 19.57 LIG 0.16  HD
ATOM      4  C   PRO D   3      10.641 -12.102 -37.892  1.00 20.09 LIG 0.24  C 
ATOM      5 O    PRO D   3      11.521 -11.505 -38.536  1.00 21.30 LIG-0.27  OA
BRANCH 4 6
ATOM      6  CA  PRO D   3       9.415 -12.697 -38.579  1.00 18.08 LIG 0.18  C 
ATOM      7  CB  PRO D   3       9.735 -13.980 -39.330  1.00 20.04 LIG 0.04  C 
ATOM      8  CG  PRO D   3       9.682 -13.600 -40.776  1.00 21.57 LIG 0.02  C 
ATOM      9  CD  PRO D   3       8.794 -12.445 -40.946  1.00 18.25 LIG 0.13  C 
ATOM     10  N   PRO D   3       8.811 -11.834 -39.599  1.00 17.53 LIG-0.34  N 
ATOM     11  C   THR D   2       8.165 -10.732 -39.225  1.00 17.82 LIG 0.24  C 
ATOM     12 O    THR D   2       8.071 -10.420 -38.036  1.00 17.76 LIG-0.27  OA
BRANCH 11 13
ATOM     13  CA  THR D   2       7.511  -9.908 -40.325  1.00 18.92 LIG 0.20  C 
BRANCH 13 14
ATOM     14  N   THR D   2       6.160  -9.525 -39.944  1.00 17.98 LIG-0.34  N 
ATOM     15  C   ALA D   1       5.125  -9.663 -40.766  1.00 18.22 LIG 0.25  C 
ATOM     16 O    ALA D   1       5.232 -10.110 -41.923  1.00 17.84 LIG-0.27  OA
ATOM     17 H    THR D   2       6.097  -9.207 -39.148  1.00 17.98 LIG 0.16  HD
BRANCH 15 18
ATOM     18  CA  ALA D   1       3.775  -9.225 -40.216  1.00 17.93 LIG 0.27  C 
ATOM     19  CB  ALA D   1       3.442  -9.973 -38.900  1.00 19.43 LIG 0.05  C 
BRANCH 18 20
ATOM     20  N   ALA D   1       2.710  -9.502 -41.244  1.00 19.30 LIG-0.07  N 
ATOM     21 H3   ALA D   1       2.270 -10.243 -41.023  1.00 19.30 LIG 0.28  HD
ATOM     22 H2   ALA D   1       3.088  -9.609 -42.043  1.00 19.30 LIG 0.28  HD
ATOM     23 H1   ALA D   1       2.142  -8.818 -41.274  1.00 19.30 LIG 0.28  HD
ENDBRANCH 18 20
ENDBRANCH 15 18
ENDBRANCH 13 14
BRANCH 13 24
ATOM     24  CB  THR D   2       8.358  -8.658 -40.603  1.00 21.41 LIG 0.15  C 
ATOM     25  CG2 THR D   2       8.606  -8.512 -42.095  1.00 25.14 LIG 0.04  C 
BRANCH 24 26
ATOM     26 OG1  THR D   2       7.641  -7.500 -40.164  1.00 26.95 LIG-0.39  OA
ATOM     27 HG1  THR D   2       7.144  -7.705 -39.519  1.00 26.95 LIG 0.21  HD
ENDBRANCH 24 26
ENDBRANCH 13 24
ENDBRANCH 11 13
ENDBRANCH 4 6
ENDBRANCH 1 2
BRANCH 1 28
ATOM     28  C   PHE D   4      12.525 -13.323 -35.366  1.00 22.48 LIG 0.24  C 
ATOM     29 O    PHE D   4      13.748 -13.503 -35.331  1.00 22.33 LIG-0.27  OA
ATOM     30  N   GLN D   5      11.651 -14.239 -34.957  1.00 24.26 LIG-0.35  N 
ATOM     31 H    GLN D   5      10.809 -14.217 -35.132  1.00 24.26 LIG 0.16  HD
BRANCH 30 32
ATOM     32  CA  GLN D   5      12.079 -15.389 -34.151  1.00 25.91 LIG 0.18  C 
BRANCH 32 33
ATOM     33  CB  GLN D   5      13.237 -16.137 -34.822  1.00 26.73 LIG 0.04  C 
BRANCH 33 34
ATOM     34  CG  GLN D   5      12.834 -17.123 -35.934  1.00 26.03 LIG 0.10  C 
BRANCH 34 35
ATOM     35  CD  GLN D   5      11.352 -17.498 -35.940  1.00 27.76 LIG 0.21  C 
ATOM     36  NE2 GLN D   5      10.975 -18.416 -35.019  1.00 30.48 LIG-0.37  N 
ATOM     37 22HE GLN D   5      10.159 -18.684 -34.988  1.00 30.48 LIG 0.16  HD
ATOM     38 21HE GLN D   5      11.553 -18.732 -34.465  1.00 30.48 LIG 0.16  HD
ATOM     39 OE1  GLN D   5      10.540 -17.010 -36.769  1.00 30.83 LIG-0.27  OA
ENDBRANCH 34 35
ENDBRANCH 33 34
ENDBRANCH 32 33
BRANCH 32 40
ATOM     40  C   GLN D   5      12.532 -15.032 -32.749  1.00 27.22 LIG 0.24  C 
ATOM     41  N   GLU D   6      13.157 -13.874 -32.631  1.00 28.14 LIG-0.34  N 
ATOM     42 H    GLU D   6      13.190 -13.281 -33.252  1.00 28.14 LIG 0.16  HD
ATOM     43 O    GLN D   5      12.345 -15.802 -31.806  1.00 29.15 LIG-0.27  OA
BRANCH 41 44
ATOM     44  CA  GLU D   6      13.852 -13.505 -31.415  1.00 27.71 LIG 0.19  C 
BRANCH 44 45
ATOM     45  C   GLU D   6      13.102 -13.937 -30.141  1.00 28.68 LIG 0.20  C 
ATOM     46 O    GLU D   6      12.103 -13.272 -29.742  1.00 28.16 LIG-0.65  OA
ATOM     47 OXT  GLU D   6      13.540 -14.937 -29.535  1.00 19.61 LIG-0.65  OA
ENDBRANCH 44 45
BRANCH 44 48
ATOM     48  CB  GLU D   6      14.061 -11.990 -31.441  1.00 27.67 LIG 0.05  C 
BRANCH 48 49
ATOM     49  CG  GLU D   6      14.682 -11.501 -32.785  1.00 29.50 LIG 0.12  C 
BRANCH 49 50
ATOM     50  CD  GLU D   6      14.684  -9.971 -32.905  1.00 27.58 LIG 0.17  C 
ATOM     51 OE2  GLU D   6      14.665  -9.218 -31.887  1.00 34.29 LIG-0.65  OA
ATOM     52 OE1  GLU D   6      14.717  -9.508 -34.065  1.00 35.41 LIG-0.65  OA
ENDBRANCH 49 50
ENDBRANCH 48 49
ENDBRANCH 44 48
ENDBRANCH 41 44
ENDBRANCH 32 40
ENDBRANCH 30 32
ENDBRANCH 1 28
BRANCH 1 53
ATOM     53  CB  PHE D   4      11.717 -11.010 -34.709  1.00 18.89 LIG 0.07  C 
BRANCH 53 54
ATOM     54  CG  PHE D   4      10.606 -11.403 -33.762  1.00 17.25 LIG-0.06  A 
ATOM     55  CD2 PHE D   4       9.292 -11.004 -34.001  1.00 16.93 LIG 0.01  A 
ATOM     56  CE2 PHE D   4       8.292 -11.367 -33.144  1.00 15.87 LIG 0.00  A 
ATOM     57  CZ  PHE D   4       8.562 -12.140 -32.033  1.00 16.57 LIG 0.00  A 
ATOM     58  CE1 PHE D   4       9.864 -12.550 -31.777  1.00 17.16 LIG 0.00  A 
ATOM     59  CD1 PHE D   4      10.873 -12.176 -32.645  1.00 17.60 LIG 0.01  A 
ENDBRANCH 53 54
ENDBRANCH 1 53
TORSDOF 21
ENDMDL
MODEL 4
USER: ADFR SOLUTION from run 6
USER: SCORE 20.060206 LL:  -4.263 LR: -18.625 RR:   0.000 FEB: -12.361
USER: RMSD 5.285586
USER: SEED 409502
USER: STATUS no improvement in best in 2 clusters for 5 generations
USER: GENES 23
USER: genes 0 Translation |==|  0.49257 0.49369 0.34888
USER: genes 1 Rotation |==|  0.28247 0.66219 0.11049 0.65704
USER: genes 2 Torsion [C]-CA--N-[C] |==|  0.55612
USER: genes 3 Torsion [N]-C--CA-[CB] |==|  0.11014
USER: genes 4 Torsion [N]-C--CA-[N] |==|  0.35997
USER: genes 5 Torsion [C]-CA--N-[C] |==|  0.71646
USER: genes 6 Torsion [N]-C--CA-[N] |==|  0.37471
USER: genes 7 Torsion [C]-CA--N-[H3] |==|  0.57180
USER: genes 8 Torsion [C]-CA--CB-[CG2] |==|  0.43878
USER: genes 9 Torsion [CA]-CB--OG1-[HG1] |==|  0.04372
USER: genes 10 Torsion [N]-CA--C-[N] |==|  0.60820
USER: genes 11 Torsion [C]-N--CA-[CB] |==|  0.44685
USER: genes 12 Torsion [N]-CA--CB-[CG] |==|  0.96784
USER: genes 13 Torsion [CA]-CB--CG-[CD] |==|  0.78255
USER: genes 14 Torsion [CB]-CG--CD-[NE2] |==|  0.22101
USER: genes 15 Torsion [N]-CA--C-[N] |==|  0.68489
USER: genes 16 Torsion [C]-N--CA-[CB] |==|  0.33519
USER: genes 17 Torsion [N]-CA--C-[O] |==|  0.38172
USER: genes 18 Torsion [N]-CA--CB-[CG] |==|  0.78508
USER: genes 19 Torsion [CA]-CB--CG-[CD] |==|  0.46748
USER: genes 20 Torsion [CB]-CG--CD-[OE2] |==|  0.40087
USER: genes 21 Torsion [N]-CA--CB-[CG] |==|  0.66603
USER: genes 22 Torsion [CA]-CB--CG-[CD2] |==|  0.03766
ROOT
ATOM      1  CA  PHE D   4       9.987 -12.241 -38.943  1.00 20.42 LIG 0.18  C 
ENDROOT
BRANCH 1 2
ATOM      2  N   PHE D   4       9.786 -10.950 -39.591  1.00 19.57 LIG-0.35  N 
ATOM      3 H    PHE D   4      10.012 -10.268 -39.119  1.00 19.57 LIG 0.16  HD
ATOM      4  C   PRO D   3       9.292 -10.884 -40.812  1.00 20.09 LIG 0.24  C 
ATOM      5 O    PRO D   3       9.227 -11.874 -41.561  1.00 21.30 LIG-0.27  OA
BRANCH 4 6
ATOM      6  CA  PRO D   3       8.815  -9.507 -41.267  1.00 18.08 LIG 0.18  C 
ATOM      7  CB  PRO D   3       9.738  -8.391 -40.803  1.00 20.04 LIG 0.04  C 
ATOM      8  CG  PRO D   3       8.979  -7.691 -39.719  1.00 21.57 LIG 0.02  C 
ATOM      9  CD  PRO D   3       7.540  -7.882 -39.930  1.00 18.25 LIG 0.13  C 
ATOM     10  N   PRO D   3       7.501  -9.116 -40.745  1.00 17.53 LIG-0.34  N 
ATOM     11  C   THR D   2       6.410  -9.730 -41.196  1.00 17.82 LIG 0.24  C 
ATOM     12 O    THR D   2       6.484 -10.627 -42.039  1.00 17.76 LIG-0.27  OA
BRANCH 11 13
ATOM     13  CA  THR D   2       5.072  -9.241 -40.660  1.00 18.92 LIG 0.20  C 
BRANCH 13 14
ATOM     14  N   THR D   2       4.148  -8.978 -41.752  1.00 17.98 LIG-0.34  N 
ATOM     15  C   ALA D   1       3.891  -7.747 -42.183  1.00 18.22 LIG 0.25  C 
ATOM     16 O    ALA D   1       4.403  -6.730 -41.679  1.00 17.84 LIG-0.27  OA
ATOM     17 H    THR D   2       3.790  -9.684 -42.087  1.00 17.98 LIG 0.16  HD
BRANCH 15 18
ATOM     18  CA  ALA D   1       2.908  -7.639 -43.340  1.00 17.93 LIG 0.27  C 
ATOM     19  CB  ALA D   1       3.646  -7.348 -44.672  1.00 19.43 LIG 0.05  C 
BRANCH 18 20
ATOM     20  N   ALA D   1       1.925  -6.535 -43.052  1.00 19.30 LIG-0.07  N 
ATOM     21 H3   ALA D   1       1.165  -6.692 -43.487  1.00 19.30 LIG 0.28  HD
ATOM     22 H2   ALA D   1       2.264  -5.756 -43.320  1.00 19.30 LIG 0.28  HD
ATOM     23 H1   ALA D   1       1.764  -6.502 -42.177  1.00 19.30 LIG 0.28  HD
ENDBRANCH 18 20
ENDBRANCH 15 18
ENDBRANCH 13 14
BRANCH 13 24
ATOM     24  CB  THR D   2       4.483 -10.294 -39.710  1.00 21.41 LIG 0.15  C 
ATOM     25  CG2 THR D   2       3.478  -9.649 -38.769  1.00 25.14 LIG 0.04  C 
BRANCH 24 26
ATOM     26 OG1  THR D   2       3.791 -11.283 -40.478  1.00 26.95 LIG-0.39  OA
ATOM     27 HG1  THR D   2       4.017 -11.221 -41.284  1.00 26.95 LIG 0.21  HD
ENDBRANCH 24 26
ENDBRANCH 13 24
ENDBRANCH 11 13
ENDBRANCH 4 6
ENDBRANCH 1 2
BRANCH 1 28
ATOM     28  C   PHE D   4      10.075 -12.052 -37.430  1.00 22.48 LIG 0.24  C 
ATOM     29 O    PHE D   4       9.332 -11.254 -36.846  1.00 22.33 LIG-0.27  OA
ATOM     30  N   GLN D   5      10.968 -12.804 -36.791  1.00 24.26 LIG-0.35  N 
ATOM     31 H    GLN D   5      11.610 -13.226 -37.177  1.00 24.26 LIG 0.16  HD
BRANCH 30 32
ATOM     32  CA  GLN D   5      10.915 -12.969 -35.332  1.00 25.91 LIG 0.18  C 
BRANCH 32 33
ATOM     33  CB  GLN D   5      11.704 -14.204 -34.885  1.00 26.73 LIG 0.04  C 
BRANCH 33 34
ATOM     34  CG  GLN D   5      12.141 -15.157 -36.012  1.00 26.03 LIG 0.10  C 
BRANCH 34 35
ATOM     35  CD  GLN D   5      11.032 -16.075 -36.529  1.00 27.76 LIG 0.21  C 
ATOM     36  NE2 GLN D   5      10.163 -15.511 -37.399  1.00 30.48 LIG-0.37  N 
ATOM     37 22HE GLN D   5       9.504 -15.970 -37.708  1.00 30.48 LIG 0.16  HD
ATOM     38 21HE GLN D   5      10.268 -14.693 -37.644  1.00 30.48 LIG 0.16  HD
ATOM     39 OE1  GLN D   5      10.915 -17.268 -36.144  1.00 30.83 LIG-0.27  OA
ENDBRANCH 34 35
ENDBRANCH 33 34
ENDBRANCH 32 33
BRANCH 32 40
ATOM     40  C   GLN D   5      11.455 -11.787 -34.553  1.00 27.22 LIG 0.24  C 
ATOM     41  N   GLU D   6      12.563 -12.015 -33.868  1.00 28.14 LIG-0.34  N 
ATOM     42 H    GLU D   6      13.043 -12.723 -33.954  1.00 28.14 LIG 0.16  HD
ATOM     43 O    GLN D   5      10.866 -10.705 -34.550  1.00 29.15 LIG-0.27  OA
BRANCH 41 44
ATOM     44  CA  GLU D   6      13.065 -11.067 -32.896  1.00 27.71 LIG 0.19  C 
BRANCH 44 45
ATOM     45  C   GLU D   6      14.438 -10.486 -33.279  1.00 28.68 LIG 0.20  C 
ATOM     46 O    GLU D   6      14.665  -9.250 -33.127  1.00 28.16 LIG-0.65  OA
ATOM     47 OXT  GLU D   6      15.279 -11.278 -33.753  1.00 19.61 LIG-0.65  OA
ENDBRANCH 44 45
BRANCH 44 48
ATOM     48  CB  GLU D   6      13.127 -11.778 -31.543  1.00 27.67 LIG 0.05  C 
BRANCH 48 49
ATOM     49  CG  GLU D   6      11.725 -11.904 -30.874  1.00 29.50 LIG 0.12  C 
BRANCH 49 50
ATOM     50  CD  GLU D   6      11.735 -12.857 -29.672  1.00 27.58 LIG 0.17  C 
ATOM     51 OE2  GLU D   6      11.025 -12.647 -28.644  1.00 34.29 LIG-0.65  OA
ATOM     52 OE1  GLU D   6      12.474 -13.859 -29.766  1.00 35.41 LIG-0.65  OA
ENDBRANCH 49 50
ENDBRANCH 48 49
ENDBRANCH 44 48
ENDBRANCH 41 44
ENDBRANCH 32 40
ENDBRANCH 30 32
ENDBRANCH 1 28
BRANCH 1 53
ATOM     53  CB  PHE D   4      11.236 -12.943 -39.501  1.00 18.89 LIG 0.07  C 
BRANCH 53 54
ATOM     54  CG  PHE D   4      10.960 -14.286 -40.136  1.00 17.25 LIG-0.06  A 
ATOM     55  CD2 PHE D   4       9.658 -14.677 -40.440  1.00 16.93 LIG 0.01  A 
ATOM     56  CE2 PHE D   4       9.415 -15.890 -41.019  1.00 15.87 LIG 0.00  A 
ATOM     57  CZ  PHE D   4      10.454 -16.747 -41.320  1.00 16.57 LIG 0.00  A 
ATOM     58  CE1 PHE D   4      11.760 -16.378 -41.027  1.00 17.16 LIG 0.00  A 
ATOM     59  CD1 PHE D   4      11.999 -15.151 -40.437  1.00 17.60 LIG 0.01  A 
ENDBRANCH 53 54
ENDBRANCH 1 53
TORSDOF 21
ENDMDL
MODEL 5
USER: ADFR SOLUTION from run 16
USER: SCORE 22.118544 LL:  -4.413 LR: -18.470 RR:   0.000 FEB: -12.205
USER: RMSD 5.803994
USER: SEED 609626
USER: STATUS searching
USER: GENES 23
USER: genes 0 Translation |==|  0.45538 0.44864 0.34520
USER: genes 1 Rotation |==|  0.86649 0.36765 0.80332 0.57852
USER: genes 2 Torsion [C]-CA--N-[C] |==|  0.81351
USER: genes 3 Torsion [N]-C--CA-[CB] |==|  0.70876
USER: genes 4 Torsion [N]-C--CA-[N] |==|  0.30004
USER: genes 5 Torsion [C]-CA--N-[C] |==|  0.63601
USER: genes 6 Torsion [N]-C--CA-[N] |==|  0.40758
USER: genes 7 Torsion [C]-CA--N-[H3] |==|  0.94543
USER: genes 8 Torsion [C]-CA--CB-[CG2] |==|  0.09511
USER: genes 9 Torsion [CA]-CB--OG1-[HG1] |==|  0.16515
USER: genes 10 Torsion [N]-CA--C-[N] |==|  0.35156
USER: genes 11 Torsion [C]-N--CA-[CB] |==|  0.21723
USER: genes 12 Torsion [N]-CA--CB-[CG] |==|  0.78159
USER: genes 13 Torsion [CA]-CB--CG-[CD] |==|  0.56392
USER: genes 14 Torsion [CB]-CG--CD-[NE2] |==|  0.63152
USER: genes 15 Torsion [N]-CA--C-[N] |==|  0.01852
USER: genes 16 Torsion [C]-N--CA-[CB] |==|  0.26116
USER: genes 17 Torsion [N]-CA--C-[O] |==|  0.41812
USER: genes 18 Torsion [N]-CA--CB-[CG] |==|  0.64163
USER: genes 19 Torsion [CA]-CB--CG-[CD] |==|  0.69468
USER: genes 20 Torsion [CB]-CG--CD-[OE2] |==|  0.39993
USER: genes 21 Torsion [N]-CA--CB-[CG] |==|  0.40147
USER: genes 22 Torsion [CA]-CB--CG-[CD2] |==|  0.70522
ROOT
ATOM      1  CA  PHE D   4       9.094 -13.052 -39.020  1.00 20.42 LIG 0.18  C 
ENDROOT
BRANCH 1 2
ATOM      2  N   PHE D   4       8.519 -12.157 -40.017  1.00 19.57 LIG-0.35  N 
ATOM      3 H    PHE D   4       8.482 -12.478 -40.814  1.00 19.57 LIG 0.16  HD
ATOM      4  C   PRO D   3       8.099 -10.955 -39.676  1.00 20.09 LIG 0.24  C 
ATOM      5 O    PRO D   3       7.918 -10.621 -38.492  1.00 21.30 LIG-0.27  OA
BRANCH 4 6
ATOM      6  CA  PRO D   3       7.828  -9.989 -40.826  1.00 18.08 LIG 0.18  C 
ATOM      7  CB  PRO D   3       8.915  -8.935 -40.968  1.00 20.04 LIG 0.04  C 
ATOM      8  CG  PRO D   3       8.286  -7.668 -40.480  1.00 21.57 LIG 0.02  C 
ATOM      9  CD  PRO D   3       6.832  -7.746 -40.654  1.00 18.25 LIG 0.13  C 
ATOM     10  N   PRO D   3       6.596  -9.206 -40.686  1.00 17.53 LIG-0.34  N 
ATOM     11  C   THR D   2       5.418  -9.812 -40.813  1.00 17.82 LIG 0.24  C 
ATOM     12 O    THR D   2       5.343 -11.022 -41.040  1.00 17.76 LIG-0.27  OA
BRANCH 11 13
ATOM     13  CA  THR D   2       4.177  -8.937 -40.714  1.00 18.92 LIG 0.20  C 
BRANCH 13 14
ATOM     14  N   THR D   2       3.552  -8.784 -42.019  1.00 17.98 LIG-0.34  N 
ATOM     15  C   ALA D   1       3.197  -7.598 -42.501  1.00 18.22 LIG 0.25  C 
ATOM     16 O    ALA D   1       3.355  -6.534 -41.873  1.00 17.84 LIG-0.27  OA
ATOM     17 H    THR D   2       3.437  -9.523 -42.441  1.00 17.98 LIG 0.16  HD
BRANCH 15 18
ATOM     18  CA  ALA D   1       2.564  -7.604 -43.885  1.00 17.93 LIG 0.27  C 
ATOM     19  CB  ALA D   1       3.634  -7.405 -44.989  1.00 19.43 LIG 0.05  C 
BRANCH 18 20
ATOM     20  N   ALA D   1       1.540  -6.502 -43.965  1.00 19.30 LIG-0.07  N 
ATOM     21 H3   ALA D   1       1.301  -6.258 -43.143  1.00 19.30 LIG 0.28  HD
ATOM     22 H2   ALA D   1       0.824  -6.793 -44.407  1.00 19.30 LIG 0.28  HD
ATOM     23 H1   ALA D   1       1.889  -5.803 -44.392  1.00 19.30 LIG 0.28  HD
ENDBRANCH 18 20
ENDBRANCH 15 18
ENDBRANCH 13 14
BRANCH 13 24
ATOM     24  CB  THR D   2       3.186  -9.560 -39.722  1.00 21.41 LIG 0.15  C 
ATOM     25  CG2 THR D   2       3.935 -10.251 -38.594  1.00 25.14 LIG 0.04  C 
BRANCH 24 26
ATOM     26 OG1  THR D   2       2.386  -8.524 -39.144  1.00 26.95 LIG-0.39  OA
ATOM     27 HG1  THR D   2       1.970  -8.119 -39.751  1.00 26.95 LIG 0.21  HD
ENDBRANCH 24 26
ENDBRANCH 13 24
ENDBRANCH 11 13
ENDBRANCH 4 6
ENDBRANCH 1 2
BRANCH 1 28
ATOM     28  C   PHE D   4      10.425 -12.488 -38.526  1.00 22.48 LIG 0.24  C 
ATOM     29 O    PHE D   4      11.311 -12.163 -39.325  1.00 22.33 LIG-0.27  OA
ATOM     30  N   GLN D   5      10.557 -12.351 -37.209  1.00 24.26 LIG-0.35  N 
ATOM     31 H    GLN D   5      10.045 -12.726 -36.629  1.00 24.26 LIG 0.16  HD
BRANCH 30 32
ATOM     32  CA  GLN D   5      11.624 -11.519 -36.637  1.00 25.91 LIG 0.18  C 
BRANCH 32 33
ATOM     33  CB  GLN D   5      11.271 -10.030 -36.721  1.00 26.73 LIG 0.04  C 
BRANCH 33 34
ATOM     34  CG  GLN D   5      11.479  -9.374 -38.098  1.00 26.03 LIG 0.10  C 
BRANCH 34 35
ATOM     35  CD  GLN D   5      11.665  -7.857 -38.055  1.00 27.76 LIG 0.21  C 
ATOM     36  NE2 GLN D   5      10.926  -7.150 -38.942  1.00 30.48 LIG-0.37  N 
ATOM     37 22HE GLN D   5      11.004  -6.294 -38.981  1.00 30.48 LIG 0.16  HD
ATOM     38 21HE GLN D   5      10.379  -7.556 -39.467  1.00 30.48 LIG 0.16  HD
ATOM     39 OE1  GLN D   5      12.478  -7.304 -37.269  1.00 30.83 LIG-0.27  OA
ENDBRANCH 34 35
ENDBRANCH 33 34
ENDBRANCH 32 33
BRANCH 32 40
ATOM     40  C   GLN D   5      11.938 -11.823 -35.186  1.00 27.22 LIG 0.24  C 
ATOM     41  N   GLU D   6      11.318 -12.873 -34.677  1.00 28.14 LIG-0.34  N 
ATOM     42 H    GLU D   6      10.879 -13.445 -35.145  1.00 28.14 LIG 0.16  HD
ATOM     43 O    GLN D   5      12.700 -11.105 -34.538  1.00 29.15 LIG-0.27  OA
BRANCH 41 44
ATOM     44  CA  GLU D   6      11.330 -13.148 -33.255  1.00 27.71 LIG 0.19  C 
BRANCH 44 45
ATOM     45  C   GLU D   6      11.411 -14.652 -32.936  1.00 28.68 LIG 0.20  C 
ATOM     46 O    GLU D   6      11.971 -15.041 -31.870  1.00 28.16 LIG-0.65  OA
ATOM     47 OXT  GLU D   6      10.928 -15.438 -33.777  1.00 19.61 LIG-0.65  OA
ENDBRANCH 44 45
BRANCH 44 48
ATOM     48  CB  GLU D   6      10.069 -12.526 -32.651  1.00 27.67 LIG 0.05  C 
BRANCH 48 49
ATOM     49  CG  GLU D   6      10.383 -11.629 -31.417  1.00 29.50 LIG 0.12  C 
BRANCH 49 50
ATOM     50  CD  GLU D   6       9.894 -12.251 -30.102  1.00 27.58 LIG 0.17  C 
ATOM     51 OE2  GLU D   6      10.540 -12.127 -29.020  1.00 34.29 LIG-0.65  OA
ATOM     52 OE1  GLU D   6       8.814 -12.877 -30.156  1.00 35.41 LIG-0.65  OA
ENDBRANCH 49 50
ENDBRANCH 48 49
ENDBRANCH 44 48
ENDBRANCH 41 44
ENDBRANCH 32 40
ENDBRANCH 30 32
ENDBRANCH 1 28
BRANCH 1 53
ATOM     53  CB  PHE D   4       9.255 -14.472 -39.589  1.00 18.89 LIG 0.07  C 
BRANCH 53 54
ATOM     54  CG  PHE D   4      10.484 -15.202 -39.096  1.00 17.25 LIG-0.06  A 
ATOM     55  CD2 PHE D   4      11.584 -15.387 -39.931  1.00 16.93 LIG 0.01  A 
ATOM     56  CE2 PHE D   4      12.694 -16.043 -39.478  1.00 15.87 LIG 0.00  A 
ATOM     57  CZ  PHE D   4      12.749 -16.526 -38.187  1.00 16.57 LIG 0.00  A 
ATOM     58  CE1 PHE D   4      11.664 -16.351 -37.338  1.00 17.16 LIG 0.00  A 
ATOM     59  CD1 PHE D   4      10.542 -15.691 -37.803  1.00 17.60 LIG 0.01  A 
ENDBRANCH 53 54
ENDBRANCH 1 53
TORSDOF 21
ENDMDL
MODEL 6
USER: ADFR SOLUTION from run 35
USER: SCORE 21.303303 LL:  -4.583 LR: -18.272 RR:   0.000 FEB: -12.008
USER: RMSD 2.887831
USER: SEED 34
USER: STATUS no improvement in best in 1 clusters for 5 generations
USER: GENES 23
USER: genes 0 Translation |==|  0.49799 0.55421 0.51564
USER: genes 1 Rotation |==|  0.63054 0.41009 0.64427 0.95173
USER: genes 2 Torsion [C]-CA--N-[C] |==|  0.81230
USER: genes 3 Torsion [N]-C--CA-[CB] |==|  0.61491
USER: genes 4 Torsion [N]-C--CA-[N] |==|  0.48221
USER: genes 5 Torsion [C]-CA--N-[C] |==|  0.68150
USER: genes 6 Torsion [N]-C--CA-[N] |==|  0.27090
USER: genes 7 Torsion [C]-CA--N-[H3] |==|  0.85983
USER: genes 8 Torsion [C]-CA--CB-[CG2] |==|  0.60581
USER: genes 9 Torsion [CA]-CB--OG1-[HG1] |==|  0.33116
USER: genes 10 Torsion [N]-CA--C-[N] |==|  0.82904
USER: genes 11 Torsion [C]-N--CA-[CB] |==|  0.80977
USER: genes 12 Torsion [N]-CA--CB-[CG] |==|  0.76055
USER: genes 13 Torsion [CA]-CB--CG-[CD] |==|  0.06396
USER: genes 14 Torsion [CB]-CG--CD-[NE2] |==|  0.18688
USER: genes 15 Torsion [N]-CA--C-[N] |==|  0.78891
USER: genes 16 Torsion [C]-N--CA-[CB] |==|  0.21893
USER: genes 17 Torsion [N]-CA--C-[O] |==|  0.59514
USER: genes 18 Torsion [N]-CA--CB-[CG] |==|  0.58922
USER: genes 19 Torsion [CA]-CB--CG-[CD] |==|  0.16651
USER: genes 20 Torsion [CB]-CG--CD-[OE2] |==|  0.82624
USER: genes 21 Torsion [N]-CA--CB-[CG] |==|  0.41101
USER: genes 22 Torsion [CA]-CB--CG-[CD2] |==|  0.14197
ROOT
ATOM      1  CA  PHE D   4      10.117 -11.151 -35.441  1.00 20.42 LIG 0.18  C 
ENDROOT
BRANCH 1 2
ATOM      2  N   PHE D   4       9.495 -11.454 -36.724  1.00 19.57 LIG-0.35  N 
ATOM      3 H    PHE D   4       8.673 -11.702 -36.680  1.00 19.57 LIG 0.16  HD
ATOM      4  C   PRO D   3      10.182 -11.341 -37.844  1.00 20.09 LIG 0.24  C 
ATOM      5 O    PRO D   3      11.265 -10.734 -37.905  1.00 21.30 LIG-0.27  OA
BRANCH 4 6
ATOM      6  CA  PRO D   3       9.560 -11.989 -39.078  1.00 18.08 LIG 0.18  C 
ATOM      7  CB  PRO D   3      10.589 -12.709 -39.936  1.00 20.04 LIG 0.04  C 
ATOM      8  CG  PRO D   3      10.751 -11.844 -41.147  1.00 21.57 LIG 0.02  C 
ATOM      9  CD  PRO D   3       9.527 -11.066 -41.359  1.00 18.25 LIG 0.13  C 
ATOM     10  N   PRO D   3       8.927 -11.046 -40.007  1.00 17.53 LIG-0.34  N 
ATOM     11  C   THR D   2       7.794 -10.444 -39.654  1.00 17.82 LIG 0.24  C 
ATOM     12 O    THR D   2       7.270 -10.659 -38.559  1.00 17.76 LIG-0.27  OA
BRANCH 11 13
ATOM     13  CA  THR D   2       7.154  -9.521 -40.682  1.00 18.92 LIG 0.20  C 
BRANCH 13 14
ATOM     14  N   THR D   2       5.856  -9.057 -40.217  1.00 17.98 LIG-0.34  N 
ATOM     15  C   ALA D   1       4.724  -9.388 -40.829  1.00 18.22 LIG 0.25  C 
ATOM     16 O    ALA D   1       4.686 -10.100 -41.850  1.00 17.84 LIG-0.27  OA
ATOM     17 H    THR D   2       5.891  -8.557 -39.519  1.00 17.98 LIG 0.16  HD
BRANCH 15 18
ATOM     18  CA  ALA D   1       3.447  -8.830 -40.215  1.00 17.93 LIG 0.27  C 
ATOM     19  CB  ALA D   1       2.302  -9.874 -40.268  1.00 19.43 LIG 0.05  C 
BRANCH 18 20
ATOM     20  N   ALA D   1       3.040  -7.589 -40.964  1.00 19.30 LIG-0.07  N 
ATOM     21 H3   ALA D   1       3.736  -7.038 -41.027  1.00 19.30 LIG 0.28  HD
ATOM     22 H2   ALA D   1       2.379  -7.182 -40.528  1.00 19.30 LIG 0.28  HD
ATOM     23 H1   ALA D   1       2.764  -7.812 -41.780  1.00 19.30 LIG 0.28  HD
ENDBRANCH 18 20
ENDBRANCH 15 18
ENDBRANCH 13 14
BRANCH 13 24
ATOM     24  CB  THR D   2       8.080  -8.325 -40.946  1.00 21.41 LIG 0.15  C 
ATOM     25  CG2 THR D   2       7.263  -7.056 -41.125  1.00 25.14 LIG 0.04  C 
BRANCH 24 26
ATOM     26 OG1  THR D   2       8.937  -8.138 -39.815  1.00 26.95 LIG-0.39  OA
ATOM     27 HG1  THR D   2       9.737  -8.224 -40.052  1.00 26.95 LIG 0.21  HD
ENDBRANCH 24 26
ENDBRANCH 13 24
ENDBRANCH 11 13
ENDBRANCH 4 6
ENDBRANCH 1 2
BRANCH 1 28
ATOM     28  C   PHE D   4      11.195 -12.187 -35.130  1.00 22.48 LIG 0.24  C 
ATOM     29 O    PHE D   4      12.374 -11.847 -34.976  1.00 22.33 LIG-0.27  OA
ATOM     30  N   GLN D   5      10.789 -13.448 -35.014  1.00 24.26 LIG-0.35  N 
ATOM     31 H    GLN D   5      10.026 -13.738 -35.287  1.00 24.26 LIG 0.16  HD
BRANCH 30 32
ATOM     32  CA  GLN D   5      11.644 -14.466 -34.391  1.00 25.91 LIG 0.18  C 
BRANCH 32 33
ATOM     33  CB  GLN D   5      12.869 -14.770 -35.261  1.00 26.73 LIG 0.04  C 
BRANCH 33 34
ATOM     34  CG  GLN D   5      12.661 -15.835 -36.352  1.00 26.03 LIG 0.10  C 
BRANCH 34 35
ATOM     35  CD  GLN D   5      11.205 -16.028 -36.778  1.00 27.76 LIG 0.21  C 
ATOM     36  NE2 GLN D   5      10.641 -14.983 -37.428  1.00 30.48 LIG-0.37  N 
ATOM     37 22HE GLN D   5       9.818 -15.022 -37.673  1.00 30.48 LIG 0.16  HD
ATOM     38 21HE GLN D   5      11.107 -14.279 -37.596  1.00 30.48 LIG 0.16  HD
ATOM     39 OE1  GLN D   5      10.562 -17.077 -36.513  1.00 30.83 LIG-0.27  OA
ENDBRANCH 34 35
ENDBRANCH 33 34
ENDBRANCH 32 33
BRANCH 32 40
ATOM     40  C   GLN D   5      12.156 -14.091 -33.015  1.00 27.22 LIG 0.24  C 
ATOM     41  N   GLU D   6      13.140 -13.208 -32.995  1.00 28.14 LIG-0.34  N 
ATOM     42 H    GLU D   6      13.392 -12.755 -33.680  1.00 28.14 LIG 0.16  HD
ATOM     43 O    GLN D   5      11.691 -14.612 -32.000  1.00 29.15 LIG-0.27  OA
BRANCH 41 44
ATOM     44  CA  GLU D   6      13.887 -12.930 -31.786  1.00 27.71 LIG 0.19  C 
BRANCH 44 45
ATOM     45  C   GLU D   6      14.587 -11.559 -31.816  1.00 28.68 LIG 0.20  C 
ATOM     46 O    GLU D   6      15.708 -11.411 -31.248  1.00 28.16 LIG-0.65  OA
ATOM     47 OXT  GLU D   6      13.989 -10.628 -32.395  1.00 19.61 LIG-0.65  OA
ENDBRANCH 44 45
BRANCH 44 48
ATOM     48  CB  GLU D   6      14.901 -14.060 -31.597  1.00 27.67 LIG 0.05  C 
BRANCH 48 49
ATOM     49  CG  GLU D   6      15.183 -14.359 -30.094  1.00 29.50 LIG 0.12  C 
BRANCH 49 50
ATOM     50  CD  GLU D   6      13.917 -14.778 -29.333  1.00 27.58 LIG 0.17  C 
ATOM     51 OE2  GLU D   6      12.925 -14.002 -29.203  1.00 34.29 LIG-0.65  OA
ATOM     52 OE1  GLU D   6      13.915 -15.934 -28.859  1.00 35.41 LIG-0.65  OA
ENDBRANCH 49 50
ENDBRANCH 48 49
ENDBRANCH 44 48
ENDBRANCH 41 44
ENDBRANCH 32 40
ENDBRANCH 30 32
ENDBRANCH 1 28
BRANCH 1 53
ATOM     53  CB  PHE D   4       9.059 -11.081 -34.325  1.00 18.89 LIG 0.07  C 
BRANCH 53 54
ATOM     54  CG  PHE D   4       9.556 -11.529 -32.970  1.00 17.25 LIG-0.06  A 
ATOM     55  CD2 PHE D   4      10.730 -11.003 -32.433  1.00 16.93 LIG 0.01  A 
ATOM     56  CE2 PHE D   4      11.171 -11.407 -31.205  1.00 15.87 LIG 0.00  A 
ATOM     57  CZ  PHE D   4      10.462 -12.337 -30.472  1.00 16.57 LIG 0.00  A 
ATOM     58  CE1 PHE D   4       9.289 -12.872 -30.988  1.00 17.16 LIG 0.00  A 
ATOM     59  CD1 PHE D   4       8.849 -12.463 -32.233  1.00 17.60 LIG 0.01  A 
ENDBRANCH 53 54
ENDBRANCH 1 53
TORSDOF 21
ENDMDL
MODEL 7
USER: ADFR SOLUTION from run 119
USER: SCORE 20.304470 LL:  -4.202 LR: -18.126 RR:   0.000 FEB: -11.861
USER: RMSD 5.897782
USER: SEED 118
USER: STATUS no improvement in best in 2 clusters for 5 generations
USER: GENES 23
USER: genes 0 Translation |==|  0.46372 0.50369 0.35131
USER: genes 1 Rotation |==|  0.18806 0.55867 0.14840 0.66008
USER: genes 2 Torsion [C]-CA--N-[C] |==|  0.18870
USER: genes 3 Torsion [N]-C--CA-[CB] |==|  0.51202
USER: genes 4 Torsion [N]-C--CA-[N] |==|  0.21767
USER: genes 5 Torsion [C]-CA--N-[C] |==|  0.66330
USER: genes 6 Torsion [N]-C--CA-[N] |==|  0.41017
USER: genes 7 Torsion [C]-CA--N-[H3] |==|  0.59413
USER: genes 8 Torsion [C]-CA--CB-[CG2] |==|  0.53423
USER: genes 9 Torsion [CA]-CB--OG1-[HG1] |==|  0.74093
USER: genes 10 Torsion [N]-CA--C-[N] |==|  0.57349
USER: genes 11 Torsion [C]-N--CA-[CB] |==|  0.18212
USER: genes 12 Torsion [N]-CA--CB-[CG] |==|  0.56432
USER: genes 13 Torsion [CA]-CB--CG-[CD] |==|  0.63387
USER: genes 14 Torsion [CB]-CG--CD-[NE2] |==|  0.36010
USER: genes 15 Torsion [N]-CA--C-[N] |==|  0.69183
USER: genes 16 Torsion [C]-N--CA-[CB] |==|  0.44834
USER: genes 17 Torsion [N]-CA--C-[O] |==|  0.40438
USER: genes 18 Torsion [N]-CA--CB-[CG] |==|  0.68660
USER: genes 19 Torsion [CA]-CB--CG-[CD] |==|  0.47354
USER: genes 20 Torsion [CB]-CG--CD-[OE2] |==|  0.19171
USER: genes 21 Torsion [N]-CA--CB-[CG] |==|  0.76567
USER: genes 22 Torsion [CA]-CB--CG-[CD2] |==|  0.42242
ROOT
ATOM      1  CA  PHE D   4       9.294 -12.061 -38.891  1.00 20.42 LIG 0.18  C 
ENDROOT
BRANCH 1 2
ATOM      2  N   PHE D   4       8.515 -11.277 -39.843  1.00 19.57 LIG-0.35  N 
ATOM      3 H    PHE D   4       7.721 -11.571 -39.990  1.00 19.57 LIG 0.16  HD
ATOM      4  C   PRO D   3       9.033 -10.205 -40.410  1.00 20.09 LIG 0.24  C 
ATOM      5 O    PRO D   3      10.066  -9.658 -39.987  1.00 21.30 LIG-0.27  OA
BRANCH 4 6
ATOM      6  CA  PRO D   3       8.278  -9.656 -41.617  1.00 18.08 LIG 0.18  C 
ATOM      7  CB  PRO D   3       8.998  -8.487 -42.271  1.00 20.04 LIG 0.04  C 
ATOM      8  CG  PRO D   3       8.186  -7.284 -41.906  1.00 21.57 LIG 0.02  C 
ATOM      9  CD  PRO D   3       6.800  -7.690 -41.653  1.00 18.25 LIG 0.13  C 
ATOM     10  N   PRO D   3       6.947  -9.122 -41.311  1.00 17.53 LIG-0.34  N 
ATOM     11  C   THR D   2       5.967  -9.958 -40.979  1.00 17.82 LIG 0.24  C 
ATOM     12 O    THR D   2       6.159 -11.175 -40.918  1.00 17.76 LIG-0.27  OA
BRANCH 11 13
ATOM     13  CA  THR D   2       4.594  -9.349 -40.728  1.00 18.92 LIG 0.20  C 
BRANCH 13 14
ATOM     14  N   THR D   2       3.929  -9.050 -41.987  1.00 17.98 LIG-0.34  N 
ATOM     15  C   ALA D   1       3.534  -7.822 -42.306  1.00 18.22 LIG 0.25  C 
ATOM     16 O    ALA D   1       3.686  -6.842 -41.553  1.00 17.84 LIG-0.27  OA
ATOM     17 H    THR D   2       3.818  -9.733 -42.496  1.00 17.98 LIG 0.16  HD
BRANCH 15 18
ATOM     18  CA  ALA D   1       2.861  -7.671 -43.663  1.00 17.93 LIG 0.27  C 
ATOM     19  CB  ALA D   1       3.898  -7.331 -44.764  1.00 19.43 LIG 0.05  C 
BRANCH 18 20
ATOM     20  N   ALA D   1       1.827  -6.579 -43.583  1.00 19.30 LIG-0.07  N 
ATOM     21 H3   ALA D   1       1.140  -6.780 -44.112  1.00 19.30 LIG 0.28  HD
ATOM     22 H2   ALA D   1       2.187  -5.808 -43.845  1.00 19.30 LIG 0.28  HD
ATOM     23 H1   ALA D   1       1.542  -6.502 -42.743  1.00 19.30 LIG 0.28  HD
ENDBRANCH 18 20
ENDBRANCH 15 18
ENDBRANCH 13 14
BRANCH 13 24
ATOM     24  CB  THR D   2       3.745 -10.321 -39.898  1.00 21.41 LIG 0.15  C 
ATOM     25  CG2 THR D   2       2.291  -9.877 -39.893  1.00 25.14 LIG 0.04  C 
BRANCH 24 26
ATOM     26 OG1  THR D   2       3.803 -11.621 -40.493  1.00 26.95 LIG-0.39  OA
ATOM     27 HG1  THR D   2       3.156 -11.717 -41.019  1.00 26.95 LIG 0.21  HD
ENDBRANCH 24 26
ENDBRANCH 13 24
ENDBRANCH 11 13
ENDBRANCH 4 6
ENDBRANCH 1 2
BRANCH 1 28
ATOM     28  C   PHE D   4       9.524 -11.250 -37.618  1.00 22.48 LIG 0.24  C 
ATOM     29 O    PHE D   4       8.720 -10.377 -37.268  1.00 22.33 LIG-0.27  OA
ATOM     30  N   GLN D   5      10.610 -11.553 -36.911  1.00 24.26 LIG-0.35  N 
ATOM     31 H    GLN D   5      11.269 -12.017 -37.211  1.00 24.26 LIG 0.16  HD
BRANCH 30 32
ATOM     32  CA  GLN D   5      10.761 -11.100 -35.522  1.00 25.91 LIG 0.18  C 
BRANCH 32 33
ATOM     33  CB  GLN D   5       9.715 -11.751 -34.610  1.00 26.73 LIG 0.04  C 
BRANCH 33 34
ATOM     34  CG  GLN D   5       9.398 -10.987 -33.311  1.00 26.03 LIG 0.10  C 
BRANCH 34 35
ATOM     35  CD  GLN D   5       9.410 -11.852 -32.050  1.00 27.76 LIG 0.21  C 
ATOM     36  NE2 GLN D   5      10.150 -11.377 -31.021  1.00 30.48 LIG-0.37  N 
ATOM     37 22HE GLN D   5      10.214 -11.830 -30.292  1.00 30.48 LIG 0.16  HD
ATOM     38 21HE GLN D   5      10.557 -10.623 -31.095  1.00 30.48 LIG 0.16  HD
ATOM     39 OE1  GLN D   5       8.798 -12.950 -31.984  1.00 30.83 LIG-0.27  OA
ENDBRANCH 34 35
ENDBRANCH 33 34
ENDBRANCH 32 33
BRANCH 32 40
ATOM     40  C   GLN D   5      12.121 -11.388 -34.919  1.00 27.22 LIG 0.24  C 
ATOM     41  N   GLU D   6      12.138 -12.302 -33.965  1.00 28.14 LIG-0.34  N 
ATOM     42 H    GLU D   6      11.475 -12.817 -33.780  1.00 28.14 LIG 0.16  HD
ATOM     43 O    GLN D   5      13.122 -10.774 -35.288  1.00 29.15 LIG-0.27  OA
BRANCH 41 44
ATOM     44  CA  GLU D   6      13.307 -12.515 -33.136  1.00 27.71 LIG 0.19  C 
BRANCH 44 45
ATOM     45  C   GLU D   6      14.428 -13.277 -33.865  1.00 28.68 LIG 0.20  C 
ATOM     46 O    GLU D   6      15.639 -13.006 -33.617  1.00 28.16 LIG-0.65  OA
ATOM     47 OXT  GLU D   6      14.081 -14.134 -34.704  1.00 19.61 LIG-0.65  OA
ENDBRANCH 44 45
BRANCH 44 48
ATOM     48  CB  GLU D   6      12.856 -13.267 -31.882  1.00 27.67 LIG 0.05  C 
BRANCH 48 49
ATOM     49  CG  GLU D   6      12.983 -12.401 -30.593  1.00 29.50 LIG 0.12  C 
BRANCH 49 50
ATOM     50  CD  GLU D   6      12.319 -13.061 -29.378  1.00 27.58 LIG 0.17  C 
ATOM     51 OE2  GLU D   6      12.790 -14.107 -28.842  1.00 34.29 LIG-0.65  OA
ATOM     52 OE1  GLU D   6      11.292 -12.502 -28.937  1.00 35.41 LIG-0.65  OA
ENDBRANCH 49 50
ENDBRANCH 48 49
ENDBRANCH 44 48
ENDBRANCH 41 44
ENDBRANCH 32 40
ENDBRANCH 30 32
ENDBRANCH 1 28
BRANCH 1 53
ATOM     53  CB  PHE D   4      10.622 -12.519 -39.520  1.00 18.89 LIG 0.07  C 
BRANCH 53 54
ATOM     54  CG  PHE D   4      10.516 -13.787 -40.336  1.00 17.25 LIG-0.06  A 
ATOM     55  CD2 PHE D   4      11.389 -14.027 -41.395  1.00 16.93 LIG 0.01  A 
ATOM     56  CE2 PHE D   4      11.292 -15.178 -42.125  1.00 15.87 LIG 0.00  A 
ATOM     57  CZ  PHE D   4      10.335 -16.125 -41.823  1.00 16.57 LIG 0.00  A 
ATOM     58  CE1 PHE D   4       9.456 -15.907 -40.770  1.00 17.16 LIG 0.00  A 
ATOM     59  CD1 PHE D   4       9.555 -14.738 -40.038  1.00 17.60 LIG 0.01  A 
ENDBRANCH 53 54
ENDBRANCH 1 53
TORSDOF 21
ENDMDL
MODEL 8
USER: ADFR SOLUTION from run 183
USER: SCORE 21.296360 LL:  -4.283 LR: -18.102 RR:   0.000 FEB: -11.837
USER: RMSD 6.209313
USER: SEED 182
USER: STATUS no improvement in best in 5 clusters for 5 generations
USER: GENES 23
USER: genes 0 Translation |==|  0.46496 0.45639 0.33701
USER: genes 1 Rotation |==|  0.14159 0.61007 0.16920 0.50012
USER: genes 2 Torsion [C]-CA--N-[C] |==|  0.85351
USER: genes 3 Torsion [N]-C--CA-[CB] |==|  0.72943
USER: genes 4 Torsion [N]-C--CA-[N] |==|  0.30985
USER: genes 5 Torsion [C]-CA--N-[C] |==|  0.68385
USER: genes 6 Torsion [N]-C--CA-[N] |==|  0.37692
USER: genes 7 Torsion [C]-CA--N-[H3] |==|  0.58159
USER: genes 8 Torsion [C]-CA--CB-[CG2] |==|  0.80976
USER: genes 9 Torsion [CA]-CB--OG1-[HG1] |==|  0.02513
USER: genes 10 Torsion [N]-CA--C-[N] |==|  0.37086
USER: genes 11 Torsion [C]-N--CA-[CB] |==|  0.48976
USER: genes 12 Torsion [N]-CA--CB-[CG] |==|  0.76630
USER: genes 13 Torsion [CA]-CB--CG-[CD] |==|  0.47461
USER: genes 14 Torsion [CB]-CG--CD-[NE2] |==|  0.63578
USER: genes 15 Torsion [N]-CA--C-[N] |==|  0.36677
USER: genes 16 Torsion [C]-N--CA-[CB] |==|  0.33851
USER: genes 17 Torsion [N]-CA--C-[O] |==|  0.07716
USER: genes 18 Torsion [N]-CA--CB-[CG] |==|  0.96945
USER: genes 19 Torsion [CA]-CB--CG-[CD] |==|  0.29928
USER: genes 20 Torsion [CB]-CG--CD-[OE2] |==|  0.34687
USER: genes 21 Torsion [N]-CA--CB-[CG] |==|  0.45564
USER: genes 22 Torsion [CA]-CB--CG-[CD2] |==|  0.68672
ROOT
ATOM      1  CA  PHE D   4       9.324 -12.912 -39.192  1.00 20.42 LIG 0.18  C 
ENDROOT
BRANCH 1 2
ATOM      2  N   PHE D   4       8.680 -12.039 -40.167  1.00 19.57 LIG-0.35  N 
ATOM      3 H    PHE D   4       8.687 -12.331 -40.975  1.00 19.57 LIG 0.16  HD
ATOM      4  C   PRO D   3       8.141 -10.897 -39.789  1.00 20.09 LIG 0.24  C 
ATOM      5 O    PRO D   3       7.911 -10.628 -38.598  1.00 21.30 LIG-0.27  OA
BRANCH 4 6
ATOM      6  CA  PRO D   3       7.796  -9.918 -40.908  1.00 18.08 LIG 0.18  C 
ATOM      7  CB  PRO D   3       8.873  -8.862 -41.108  1.00 20.04 LIG 0.04  C 
ATOM      8  CG  PRO D   3       8.278  -7.601 -40.565  1.00 21.57 LIG 0.02  C 
ATOM      9  CD  PRO D   3       6.815  -7.677 -40.645  1.00 18.25 LIG 0.13  C 
ATOM     10  N   PRO D   3       6.577  -9.136 -40.678  1.00 17.53 LIG-0.34  N 
ATOM     11  C   THR D   2       5.393  -9.741 -40.736  1.00 17.82 LIG 0.24  C 
ATOM     12 O    THR D   2       5.303 -10.948 -40.971  1.00 17.76 LIG-0.27  OA
BRANCH 11 13
ATOM     13  CA  THR D   2       4.161  -8.867 -40.546  1.00 18.92 LIG 0.20  C 
BRANCH 13 14
ATOM     14  N   THR D   2       3.408  -8.767 -41.786  1.00 17.98 LIG-0.34  N 
ATOM     15  C   ALA D   1       3.283  -7.623 -42.451  1.00 18.22 LIG 0.25  C 
ATOM     16 O    ALA D   1       3.784  -6.552 -42.060  1.00 17.84 LIG-0.27  OA
ATOM     17 H    THR D   2       3.056  -9.508 -42.044  1.00 17.98 LIG 0.16  HD
BRANCH 15 18
ATOM     18  CA  ALA D   1       2.471  -7.685 -43.737  1.00 17.93 LIG 0.27  C 
ATOM     19  CB  ALA D   1       3.397  -7.680 -44.980  1.00 19.43 LIG 0.05  C 
BRANCH 18 20
ATOM     20  N   ALA D   1       1.540  -6.502 -43.790  1.00 19.30 LIG-0.07  N 
ATOM     21 H3   ALA D   1       0.811  -6.718 -44.252  1.00 19.30 LIG 0.28  HD
ATOM     22 H2   ALA D   1       1.950  -5.818 -44.187  1.00 19.30 LIG 0.28  HD
ATOM     23 H1   ALA D   1       1.309  -6.269 -42.963  1.00 19.30 LIG 0.28  HD
ENDBRANCH 18 20
ENDBRANCH 15 18
ENDBRANCH 13 14
BRANCH 13 24
ATOM     24  CB  THR D   2       3.279  -9.455 -39.436  1.00 21.41 LIG 0.15  C 
ATOM     25  CG2 THR D   2       2.667 -10.770 -39.892  1.00 25.14 LIG 0.04  C 
BRANCH 24 26
ATOM     26 OG1  THR D   2       4.090  -9.726 -38.288  1.00 26.95 LIG-0.39  OA
ATOM     27 HG1  THR D   2       4.854  -9.398 -38.401  1.00 26.95 LIG 0.21  HD
ENDBRANCH 24 26
ENDBRANCH 13 24
ENDBRANCH 11 13
ENDBRANCH 4 6
ENDBRANCH 1 2
BRANCH 1 28
ATOM     28  C   PHE D   4      10.362 -12.124 -38.396  1.00 22.48 LIG 0.24  C 
ATOM     29 O    PHE D   4      11.153 -11.362 -38.966  1.00 22.33 LIG-0.27  OA
ATOM     30  N   GLN D   5      10.345 -12.286 -37.076  1.00 24.26 LIG-0.35  N 
ATOM     31 H    GLN D   5       9.939 -12.929 -36.673  1.00 24.26 LIG 0.16  HD
BRANCH 30 32
ATOM     32  CA  GLN D   5      11.041 -11.348 -36.187  1.00 25.91 LIG 0.18  C 
BRANCH 32 33
ATOM     33  CB  GLN D   5      10.799 -11.695 -34.714  1.00 26.73 LIG 0.04  C 
BRANCH 33 34
ATOM     34  CG  GLN D   5       9.500 -11.138 -34.105  1.00 26.03 LIG 0.10  C 
BRANCH 34 35
ATOM     35  CD  GLN D   5       9.173 -11.676 -32.711  1.00 27.76 LIG 0.21  C 
ATOM     36  NE2 GLN D   5       7.908 -12.127 -32.538  1.00 30.48 LIG-0.37  N 
ATOM     37 22HE GLN D   5       7.658 -12.421 -31.770  1.00 30.48 LIG 0.16  HD
ATOM     38 21HE GLN D   5       7.355 -12.119 -33.197  1.00 30.48 LIG 0.16  HD
ATOM     39 OE1  GLN D   5      10.015 -11.670 -31.776  1.00 30.83 LIG-0.27  OA
ENDBRANCH 34 35
ENDBRANCH 33 34
ENDBRANCH 32 33
BRANCH 32 40
ATOM     40  C   GLN D   5      12.541 -11.294 -36.392  1.00 27.22 LIG 0.24  C 
ATOM     41  N   GLU D   6      13.060 -10.082 -36.489  1.00 28.14 LIG-0.34  N 
ATOM     42 H    GLU D   6      12.630  -9.360 -36.307  1.00 28.14 LIG 0.16  HD
ATOM     43 O    GLN D   5      13.206 -12.326 -36.491  1.00 29.15 LIG-0.27  OA
BRANCH 41 44
ATOM     44  CA  GLU D   6      14.427  -9.871 -36.920  1.00 27.71 LIG 0.19  C 
BRANCH 44 45
ATOM     45  C   GLU D   6      15.314  -9.259 -35.821  1.00 28.68 LIG 0.20  C 
ATOM     46 O    GLU D   6      15.043  -9.467 -34.603  1.00 28.16 LIG-0.65  OA
ATOM     47 OXT  GLU D   6      16.271  -8.549 -36.193  1.00 19.61 LIG-0.65  OA
ENDBRANCH 44 45
BRANCH 44 48
ATOM     48  CB  GLU D   6      14.390  -8.975 -38.159  1.00 27.67 LIG 0.05  C 
BRANCH 48 49
ATOM     49  CG  GLU D   6      12.947  -8.802 -38.723  1.00 29.50 LIG 0.12  C 
BRANCH 49 50
ATOM     50  CD  GLU D   6      12.380  -7.401 -38.461  1.00 27.58 LIG 0.17  C 
ATOM     51 OE2  GLU D   6      11.945  -6.667 -39.397  1.00 34.29 LIG-0.65  OA
ATOM     52 OE1  GLU D   6      12.361  -7.027 -37.269  1.00 35.41 LIG-0.65  OA
ENDBRANCH 49 50
ENDBRANCH 48 49
ENDBRANCH 44 48
ENDBRANCH 41 44
ENDBRANCH 32 40
ENDBRANCH 30 32
ENDBRANCH 1 28
BRANCH 1 53
ATOM     53  CB  PHE D   4       9.949 -14.136 -39.884  1.00 18.89 LIG 0.07  C 
BRANCH 53 54
ATOM     54  CG  PHE D   4      10.947 -14.887 -39.034  1.00 17.25 LIG-0.06  A 
ATOM     55  CD2 PHE D   4      12.299 -14.905 -39.371  1.00 16.93 LIG 0.01  A 
ATOM     56  CE2 PHE D   4      13.197 -15.581 -38.595  1.00 15.87 LIG 0.00  A 
ATOM     57  CZ  PHE D   4      12.785 -16.252 -37.461  1.00 16.57 LIG 0.00  A 
ATOM     58  CE1 PHE D   4      11.442 -16.246 -37.106  1.00 17.16 LIG 0.00  A 
ATOM     59  CD1 PHE D   4      10.537 -15.564 -37.898  1.00 17.60 LIG 0.01  A 
ENDBRANCH 53 54
ENDBRANCH 1 53
TORSDOF 21
ENDMDL
MODEL 9
USER: ADFR SOLUTION from run 11
USER: SCORE 21.459035 LL:  -4.427 LR: -17.792 RR:   0.000 FEB: -11.528
USER: RMSD 2.593771
USER: SEED 519898
USER: STATUS no improvement in best in 2 clusters for 5 generations
USER: GENES 23
USER: genes 0 Translation |==|  0.57542 0.51395 0.47455
USER: genes 1 Rotation |==|  0.53744 0.53551 0.53816 0.99586
USER: genes 2 Torsion [C]-CA--N-[C] |==|  0.65630
USER: genes 3 Torsion [N]-C--CA-[CB] |==|  0.77143
USER: genes 4 Torsion [N]-C--CA-[N] |==|  0.42501
USER: genes 5 Torsion [C]-CA--N-[C] |==|  0.64909
USER: genes 6 Torsion [N]-C--CA-[N] |==|  0.30603
USER: genes 7 Torsion [C]-CA--N-[H3] |==|  0.73415
USER: genes 8 Torsion [C]-CA--CB-[CG2] |==|  0.38343
USER: genes 9 Torsion [CA]-CB--OG1-[HG1] |==|  0.30907
USER: genes 10 Torsion [N]-CA--C-[N] |==|  0.90809
USER: genes 11 Torsion [C]-N--CA-[CB] |==|  0.78119
USER: genes 12 Torsion [N]-CA--CB-[CG] |==|  0.84547
USER: genes 13 Torsion [CA]-CB--CG-[CD] |==|  0.92148
USER: genes 14 Torsion [CB]-CG--CD-[NE2] |==|  0.69478
USER: genes 15 Torsion [N]-CA--C-[N] |==|  0.22221
USER: genes 16 Torsion [C]-N--CA-[CB] |==|  0.38463
USER: genes 17 Torsion [N]-CA--C-[O] |==|  0.83177
USER: genes 18 Torsion [N]-CA--CB-[CG] |==|  0.39654
USER: genes 19 Torsion [CA]-CB--CG-[CD] |==|  0.67546
USER: genes 20 Torsion [CB]-CG--CD-[OE2] |==|  0.83113
USER: genes 21 Torsion [N]-CA--CB-[CG] |==|  0.13447
USER: genes 22 Torsion [CA]-CB--CG-[CD2] |==|  0.70129
ROOT
ATOM      1  CA  PHE D   4      11.975 -11.876 -36.303  1.00 20.42 LIG 0.18  C 
ENDROOT
BRANCH 1 2
ATOM      2  N   PHE D   4      10.713 -12.265 -36.921  1.00 19.57 LIG-0.35  N 
ATOM      3 H    PHE D   4      10.222 -12.787 -36.446  1.00 19.57 LIG 0.16  HD
ATOM      4  C   PRO D   3      10.390 -11.824 -38.121  1.00 20.09 LIG 0.24  C 
ATOM      5 O    PRO D   3      10.980 -10.874 -38.664  1.00 21.30 LIG-0.27  OA
BRANCH 4 6
ATOM      6  CA  PRO D   3       9.230 -12.539 -38.807  1.00 18.08 LIG 0.18  C 
ATOM      7  CB  PRO D   3       9.664 -13.826 -39.490  1.00 20.04 LIG 0.04  C 
ATOM      8  CG  PRO D   3       9.621 -13.516 -40.954  1.00 21.57 LIG 0.02  C 
ATOM      9  CD  PRO D   3       8.654 -12.441 -41.197  1.00 18.25 LIG 0.13  C 
ATOM     10  N   PRO D   3       8.590 -11.770 -39.880  1.00 17.53 LIG-0.34  N 
ATOM     11  C   THR D   2       7.855 -10.705 -39.572  1.00 17.82 LIG 0.24  C 
ATOM     12 O    THR D   2       7.707 -10.348 -38.401  1.00 17.76 LIG-0.27  OA
BRANCH 11 13
ATOM     13  CA  THR D   2       7.170  -9.982 -40.723  1.00 18.92 LIG 0.20  C 
BRANCH 13 14
ATOM     14  N   THR D   2       5.969  -9.304 -40.261  1.00 17.98 LIG-0.34  N 
ATOM     15  C   ALA D   1       4.783  -9.495 -40.829  1.00 18.22 LIG 0.25  C 
ATOM     16 O    ALA D   1       4.610 -10.250 -41.804  1.00 17.84 LIG-0.27  OA
ATOM     17 H    THR D   2       6.098  -8.777 -39.594  1.00 17.98 LIG 0.16  HD
BRANCH 15 18
ATOM     18  CA  ALA D   1       3.622  -8.719 -40.223  1.00 17.93 LIG 0.27  C 
ATOM     19  CB  ALA D   1       2.433  -9.659 -39.898  1.00 19.43 LIG 0.05  C 
BRANCH 18 20
ATOM     20  N   ALA D   1       3.179  -7.655 -41.193  1.00 19.30 LIG-0.07  N 
ATOM     21 H3   ALA D   1       3.571  -6.883 -40.988  1.00 19.30 LIG 0.28  HD
ATOM     22 H2   ALA D   1       2.295  -7.560 -41.147  1.00 19.30 LIG 0.28  HD
ATOM     23 H1   ALA D   1       3.408  -7.893 -42.020  1.00 19.30 LIG 0.28  HD
ENDBRANCH 18 20
ENDBRANCH 15 18
ENDBRANCH 13 14
BRANCH 13 24
ATOM     24  CB  THR D   2       8.143  -8.971 -41.346  1.00 21.41 LIG 0.15  C 
ATOM     25  CG2 THR D   2       8.040  -9.009 -42.863  1.00 25.14 LIG 0.04  C 
BRANCH 24 26
ATOM     26 OG1  THR D   2       7.787  -7.653 -40.917  1.00 26.95 LIG-0.39  OA
ATOM     27 HG1  THR D   2       8.381  -7.356 -40.403  1.00 26.95 LIG 0.21  HD
ENDBRANCH 24 26
ENDBRANCH 13 24
ENDBRANCH 11 13
ENDBRANCH 4 6
ENDBRANCH 1 2
BRANCH 1 28
ATOM     28  C   PHE D   4      12.776 -13.122 -35.933  1.00 22.48 LIG 0.24  C 
ATOM     29 O    PHE D   4      14.013 -13.111 -35.958  1.00 22.33 LIG-0.27  OA
ATOM     30  N   GLN D   5      12.074 -14.191 -35.566  1.00 24.26 LIG-0.35  N 
ATOM     31 H    GLN D   5      11.231 -14.288 -35.708  1.00 24.26 LIG 0.16  HD
BRANCH 30 32
ATOM     32  CA  GLN D   5      12.712 -15.315 -34.870  1.00 25.91 LIG 0.18  C 
BRANCH 32 33
ATOM     33  CB  GLN D   5      13.475 -16.213 -35.850  1.00 26.73 LIG 0.04  C 
BRANCH 33 34
ATOM     34  CG  GLN D   5      12.648 -16.769 -37.023  1.00 26.03 LIG 0.10  C 
BRANCH 34 35
ATOM     35  CD  GLN D   5      11.159 -16.940 -36.722  1.00 27.76 LIG 0.21  C 
ATOM     36  NE2 GLN D   5      10.724 -18.219 -36.624  1.00 30.48 LIG-0.37  N 
ATOM     37 22HE GLN D   5       9.892 -18.380 -36.478  1.00 30.48 LIG 0.16  HD
ATOM     38 21HE GLN D   5      11.280 -18.870 -36.708  1.00 30.48 LIG 0.16  HD
ATOM     39 OE1  GLN D   5      10.380 -15.958 -36.606  1.00 30.83 LIG-0.27  OA
ENDBRANCH 34 35
ENDBRANCH 33 34
ENDBRANCH 32 33
BRANCH 32 40
ATOM     40  C   GLN D   5      13.689 -14.902 -33.788  1.00 27.22 LIG 0.24  C 
ATOM     41  N   GLU D   6      13.147 -14.553 -32.634  1.00 28.14 LIG-0.34  N 
ATOM     42 H    GLU D   6      12.320 -14.681 -32.434  1.00 28.14 LIG 0.16  HD
ATOM     43 O    GLN D   5      14.901 -14.872 -34.005  1.00 29.15 LIG-0.27  OA
BRANCH 41 44
ATOM     44  CA  GLU D   6      13.922 -13.915 -31.591  1.00 27.71 LIG 0.19  C 
BRANCH 44 45
ATOM     45  C   GLU D   6      14.392 -14.900 -30.505  1.00 28.68 LIG 0.20  C 
ATOM     46 O    GLU D   6      13.541 -15.543 -29.825  1.00 28.16 LIG-0.65  OA
ATOM     47 OXT  GLU D   6      15.624 -15.003 -30.326  1.00 19.61 LIG-0.65  OA
ENDBRANCH 44 45
BRANCH 44 48
ATOM     48  CB  GLU D   6      13.063 -12.802 -30.989  1.00 27.67 LIG 0.05  C 
BRANCH 48 49
ATOM     49  CG  GLU D   6      13.259 -12.669 -29.448  1.00 29.50 LIG 0.12  C 
BRANCH 49 50
ATOM     50  CD  GLU D   6      11.972 -12.966 -28.667  1.00 27.58 LIG 0.17  C 
ATOM     51 OE2  GLU D   6      10.919 -12.281 -28.824  1.00 34.29 LIG-0.65  OA
ATOM     52 OE1  GLU D   6      12.017 -13.931 -27.875  1.00 35.41 LIG-0.65  OA
ENDBRANCH 49 50
ENDBRANCH 48 49
ENDBRANCH 44 48
ENDBRANCH 41 44
ENDBRANCH 32 40
ENDBRANCH 30 32
ENDBRANCH 1 28
BRANCH 1 53
ATOM     53  CB  PHE D   4      11.729 -10.975 -35.081  1.00 18.89 LIG 0.07  C 
BRANCH 53 54
ATOM     54  CG  PHE D   4      10.688 -11.503 -34.121  1.00 17.25 LIG-0.06  A 
ATOM     55  CD2 PHE D   4       9.432 -10.905 -34.033  1.00 16.93 LIG 0.01  A 
ATOM     56  CE2 PHE D   4       8.493 -11.391 -33.167  1.00 15.87 LIG 0.00  A 
ATOM     57  CZ  PHE D   4       8.767 -12.484 -32.371  1.00 16.57 LIG 0.00  A 
ATOM     58  CE1 PHE D   4      10.012 -13.096 -32.444  1.00 17.16 LIG 0.00  A 
ATOM     59  CD1 PHE D   4      10.960 -12.597 -33.318  1.00 17.60 LIG 0.01  A 
ENDBRANCH 53 54
ENDBRANCH 1 53
TORSDOF 21
ENDMDL
MODEL 10
USER: ADFR SOLUTION from run 122
USER: SCORE 21.217011 LL:  -5.090 LR: -17.701 RR:   0.000 FEB: -11.436
USER: RMSD 2.298749
USER: SEED 121
USER: STATUS no improvement in best in 3 clusters for 5 generations
USER: GENES 23
USER: genes 0 Translation |==|  0.50696 0.54402 0.52973
USER: genes 1 Rotation |==|  0.56105 0.40415 0.58043 0.98022
USER: genes 2 Torsion [C]-CA--N-[C] |==|  0.72196
USER: genes 3 Torsion [N]-C--CA-[CB] |==|  0.66427
USER: genes 4 Torsion [N]-C--CA-[N] |==|  0.45609
USER: genes 5 Torsion [C]-CA--N-[C] |==|  0.65911
USER: genes 6 Torsion [N]-C--CA-[N] |==|  0.44059
USER: genes 7 Torsion [C]-CA--N-[H3] |==|  0.55082
USER: genes 8 Torsion [C]-CA--CB-[CG2] |==|  0.43523
USER: genes 9 Torsion [CA]-CB--OG1-[HG1] |==|  0.00792
USER: genes 10 Torsion [N]-CA--C-[N] |==|  0.40468
USER: genes 11 Torsion [C]-N--CA-[CB] |==|  0.34465
USER: genes 12 Torsion [N]-CA--CB-[CG] |==|  0.00885
USER: genes 13 Torsion [CA]-CB--CG-[CD] |==|  0.79981
USER: genes 14 Torsion [CB]-CG--CD-[NE2] |==|  0.46575
USER: genes 15 Torsion [N]-CA--C-[N] |==|  0.89251
USER: genes 16 Torsion [C]-N--CA-[CB] |==|  0.48528
USER: genes 17 Torsion [N]-CA--C-[O] |==|  0.75347
USER: genes 18 Torsion [N]-CA--CB-[CG] |==|  0.80662
USER: genes 19 Torsion [CA]-CB--CG-[CD] |==|  0.26661
USER: genes 20 Torsion [CB]-CG--CD-[OE2] |==|  0.31252
USER: genes 21 Torsion [N]-CA--CB-[CG] |==|  0.35007
USER: genes 22 Torsion [CA]-CB--CG-[CD2] |==|  0.70211
ROOT
ATOM      1  CA  PHE D   4      10.332 -11.335 -35.145  1.00 20.42 LIG 0.18  C 
ENDROOT
BRANCH 1 2
ATOM      2  N   PHE D   4       9.618 -11.710 -36.359  1.00 19.57 LIG-0.35  N 
ATOM      3 H    PHE D   4       8.858 -12.092 -36.230  1.00 19.57 LIG 0.16  HD
ATOM      4  C   PRO D   3      10.138 -11.462 -37.545  1.00 20.09 LIG 0.24  C 
ATOM      5 O    PRO D   3      11.093 -10.683 -37.707  1.00 21.30 LIG-0.27  OA
BRANCH 4 6
ATOM      6  CA  PRO D   3       9.486 -12.179 -38.725  1.00 18.08 LIG 0.18  C 
ATOM      7  CB  PRO D   3      10.467 -13.060 -39.483  1.00 20.04 LIG 0.04  C 
ATOM      8  CG  PRO D   3      10.718 -12.336 -40.768  1.00 21.57 LIG 0.02  C 
ATOM      9  CD  PRO D   3       9.564 -11.488 -41.085  1.00 18.25 LIG 0.13  C 
ATOM     10  N   PRO D   3       8.946 -11.286 -39.756  1.00 17.53 LIG-0.34  N 
ATOM     11  C   THR D   2       7.860 -10.565 -39.492  1.00 17.82 LIG 0.24  C 
ATOM     12 O    THR D   2       7.302 -10.627 -38.394  1.00 17.76 LIG-0.27  OA
BRANCH 11 13
ATOM     13  CA  THR D   2       7.314  -9.701 -40.621  1.00 18.92 LIG 0.20  C 
BRANCH 13 14
ATOM     14  N   THR D   2       5.955  -9.273 -40.327  1.00 17.98 LIG-0.34  N 
ATOM     15  C   ALA D   1       4.937  -9.535 -41.139  1.00 18.22 LIG 0.25  C 
ATOM     16 O    ALA D   1       5.067 -10.150 -42.215  1.00 17.84 LIG-0.27  OA
ATOM     17 H    THR D   2       5.876  -8.840 -39.589  1.00 17.98 LIG 0.16  HD
BRANCH 15 18
ATOM     18  CA  ALA D   1       3.575  -9.027 -40.687  1.00 17.93 LIG 0.27  C 
ATOM     19  CB  ALA D   1       2.950  -9.976 -39.633  1.00 19.43 LIG 0.05  C 
BRANCH 18 20
ATOM     20  N   ALA D   1       2.665  -8.922 -41.882  1.00 19.30 LIG-0.07  N 
ATOM     21 H3   ALA D   1       1.978  -8.391 -41.686  1.00 19.30 LIG 0.28  HD
ATOM     22 H2   ALA D   1       2.362  -9.731 -42.097  1.00 19.30 LIG 0.28  HD
ATOM     23 H1   ALA D   1       3.116  -8.582 -42.569  1.00 19.30 LIG 0.28  HD
ENDBRANCH 18 20
ENDBRANCH 15 18
ENDBRANCH 13 14
BRANCH 13 24
ATOM     24  CB  THR D   2       8.223  -8.481 -40.820  1.00 21.41 LIG 0.15  C 
ATOM     25  CG2 THR D   2       8.070  -7.935 -42.231  1.00 25.14 LIG 0.04  C 
BRANCH 24 26
ATOM     26 OG1  THR D   2       7.831  -7.450 -39.908  1.00 26.95 LIG-0.39  OA
ATOM     27 HG1  THR D   2       7.208  -7.730 -39.420  1.00 26.95 LIG 0.21  HD
ENDBRANCH 24 26
ENDBRANCH 13 24
ENDBRANCH 11 13
ENDBRANCH 4 6
ENDBRANCH 1 2
BRANCH 1 28
ATOM     28  C   PHE D   4      11.036 -12.556 -34.559  1.00 22.48 LIG 0.24  C 
ATOM     29 O    PHE D   4      10.540 -13.685 -34.665  1.00 22.33 LIG-0.27  OA
ATOM     30  N   GLN D   5      12.204 -12.337 -33.961  1.00 24.26 LIG-0.35  N 
ATOM     31 H    GLN D   5      12.484 -11.561 -33.715  1.00 24.26 LIG 0.16  HD
BRANCH 30 32
ATOM     32  CA  GLN D   5      13.126 -13.442 -33.668  1.00 25.91 LIG 0.18  C 
BRANCH 32 33
ATOM     33  CB  GLN D   5      14.505 -13.193 -34.290  1.00 26.73 LIG 0.04  C 
BRANCH 33 34
ATOM     34  CG  GLN D   5      14.675 -11.843 -35.009  1.00 26.03 LIG 0.10  C 
BRANCH 34 35
ATOM     35  CD  GLN D   5      13.929 -11.737 -36.340  1.00 27.76 LIG 0.21  C 
ATOM     36  NE2 GLN D   5      13.843 -10.493 -36.867  1.00 30.48 LIG-0.37  N 
ATOM     37 22HE GLN D   5      13.416 -10.365 -37.602  1.00 30.48 LIG 0.16  HD
ATOM     38 21HE GLN D   5      14.215  -9.829 -36.465  1.00 30.48 LIG 0.16  HD
ATOM     39 OE1  GLN D   5      13.400 -12.736 -36.894  1.00 30.83 LIG-0.27  OA
ENDBRANCH 34 35
ENDBRANCH 33 34
ENDBRANCH 32 33
BRANCH 32 40
ATOM     40  C   GLN D   5      13.342 -13.697 -32.191  1.00 27.22 LIG 0.24  C 
ATOM     41  N   GLU D   6      13.414 -12.618 -31.431  1.00 28.14 LIG-0.34  N 
ATOM     42 H    GLU D   6      13.212 -11.827 -31.701  1.00 28.14 LIG 0.16  HD
ATOM     43 O    GLN D   5      13.470 -14.842 -31.756  1.00 29.15 LIG-0.27  OA
BRANCH 41 44
ATOM     44  CA  GLU D   6      13.850 -12.686 -30.052  1.00 27.71 LIG 0.19  C 
BRANCH 44 45
ATOM     45  C   GLU D   6      12.922 -13.542 -29.171  1.00 28.68 LIG 0.20  C 
ATOM     46 O    GLU D   6      11.930 -13.009 -28.596  1.00 28.16 LIG-0.65  OA
ATOM     47 OXT  GLU D   6      13.213 -14.749 -29.045  1.00 19.61 LIG-0.65  OA
ENDBRANCH 44 45
BRANCH 44 48
ATOM     48  CB  GLU D   6      13.941 -11.253 -29.523  1.00 27.67 LIG 0.05  C 
BRANCH 48 49
ATOM     49  CG  GLU D   6      15.115 -10.456 -30.168  1.00 29.50 LIG 0.12  C 
BRANCH 49 50
ATOM     50  CD  GLU D   6      14.658  -9.604 -31.359  1.00 27.58 LIG 0.17  C 
ATOM     51 OE2  GLU D   6      14.665  -8.338 -31.320  1.00 34.29 LIG-0.65  OA
ATOM     52 OE1  GLU D   6      14.290 -10.228 -32.376  1.00 35.41 LIG-0.65  OA
ENDBRANCH 49 50
ENDBRANCH 48 49
ENDBRANCH 44 48
ENDBRANCH 41 44
ENDBRANCH 32 40
ENDBRANCH 30 32
ENDBRANCH 1 28
BRANCH 1 53
ATOM     53  CB  PHE D   4       9.375 -10.688 -34.128  1.00 18.89 LIG 0.07  C 
BRANCH 53 54
ATOM     54  CG  PHE D   4       9.391 -11.337 -32.763  1.00 17.25 LIG-0.06  A 
ATOM     55  CD2 PHE D   4       8.323 -12.123 -32.336  1.00 16.93 LIG 0.01  A 
ATOM     56  CE2 PHE D   4       8.346 -12.711 -31.103  1.00 15.87 LIG 0.00  A 
ATOM     57  CZ  PHE D   4       9.427 -12.544 -30.262  1.00 16.57 LIG 0.00  A 
ATOM     58  CE1 PHE D   4      10.503 -11.765 -30.668  1.00 17.16 LIG 0.00  A 
ATOM     59  CD1 PHE D   4      10.472 -11.168 -31.915  1.00 17.60 LIG 0.01  A 
ENDBRANCH 53 54
ENDBRANCH 1 53
TORSDOF 21
ENDMDL
MODEL 11
USER: ADFR SOLUTION from run 197
USER: SCORE 20.331097 LL:  -3.718 LR: -17.681 RR:   0.000 FEB: -11.416
USER: RMSD 5.835476
USER: SEED 196
USER: STATUS no improvement in best in 7 clusters for 5 generations
USER: GENES 23
USER: genes 0 Translation |==|  0.50552 0.45000 0.29994
USER: genes 1 Rotation |==|  0.16659 0.63099 0.16182 0.58554
USER: genes 2 Torsion [C]-CA--N-[C] |==|  0.84931
USER: genes 3 Torsion [N]-C--CA-[CB] |==|  0.74969
USER: genes 4 Torsion [N]-C--CA-[N] |==|  0.33010
USER: genes 5 Torsion [C]-CA--N-[C] |==|  0.66355
USER: genes 6 Torsion [N]-C--CA-[N] |==|  0.39434
USER: genes 7 Torsion [C]-CA--N-[H3] |==|  0.93346
USER: genes 8 Torsion [C]-CA--CB-[CG2] |==|  0.53577
USER: genes 9 Torsion [CA]-CB--OG1-[HG1] |==|  0.82622
USER: genes 10 Torsion [N]-CA--C-[N] |==|  0.33955
USER: genes 11 Torsion [C]-N--CA-[CB] |==|  0.17778
USER: genes 12 Torsion [N]-CA--CB-[CG] |==|  0.74557
USER: genes 13 Torsion [CA]-CB--CG-[CD] |==|  0.91847
USER: genes 14 Torsion [CB]-CG--CD-[NE2] |==|  0.39145
USER: genes 15 Torsion [N]-CA--C-[N] |==|  0.61569
USER: genes 16 Torsion [C]-N--CA-[CB] |==|  0.32206
USER: genes 17 Torsion [N]-CA--C-[O] |==|  0.93629
USER: genes 18 Torsion [N]-CA--CB-[CG] |==|  0.61237
USER: genes 19 Torsion [CA]-CB--CG-[CD] |==|  0.67013
USER: genes 20 Torsion [CB]-CG--CD-[OE2] |==|  0.83678
USER: genes 21 Torsion [N]-CA--CB-[CG] |==|  0.63888
USER: genes 22 Torsion [CA]-CB--CG-[CD2] |==|  0.27882
ROOT
ATOM      1  CA  PHE D   4      10.297 -13.027 -39.970  1.00 20.42 LIG 0.18  C 
ENDROOT
BRANCH 1 2
ATOM      2  N   PHE D   4       9.660 -11.984 -40.765  1.00 19.57 LIG-0.35  N 
ATOM      3 H    PHE D   4       9.843 -12.004 -41.604  1.00 19.57 LIG 0.16  HD
ATOM      4  C   PRO D   3       8.868 -11.097 -40.194  1.00 20.09 LIG 0.24  C 
ATOM      5 O    PRO D   3       8.413 -11.248 -39.047  1.00 21.30 LIG-0.27  OA
BRANCH 4 6
ATOM      6  CA  PRO D   3       8.523  -9.870 -41.033  1.00 18.08 LIG 0.18  C 
ATOM      7  CB  PRO D   3       9.512  -8.733 -40.833  1.00 20.04 LIG 0.04  C 
ATOM      8  CG  PRO D   3       8.768  -7.714 -40.029  1.00 21.57 LIG 0.02  C 
ATOM      9  CD  PRO D   3       7.329  -7.860 -40.269  1.00 18.25 LIG 0.13  C 
ATOM     10  N   PRO D   3       7.224  -9.264 -40.720  1.00 17.53 LIG-0.34  N 
ATOM     11  C   THR D   2       6.107  -9.905 -41.054  1.00 17.82 LIG 0.24  C 
ATOM     12 O    THR D   2       6.143 -11.002 -41.616  1.00 17.76 LIG-0.27  OA
BRANCH 11 13
ATOM     13  CA  THR D   2       4.791  -9.200 -40.755  1.00 18.92 LIG 0.20  C 
BRANCH 13 14
ATOM     14  N   THR D   2       4.047  -8.961 -41.982  1.00 17.98 LIG-0.34  N 
ATOM     15  C   ALA D   1       3.694  -7.741 -42.372  1.00 18.22 LIG 0.25  C 
ATOM     16 O    ALA D   1       3.956  -6.716 -41.715  1.00 17.84 LIG-0.27  OA
ATOM     17 H    THR D   2       3.861  -9.675 -42.424  1.00 17.98 LIG 0.16  HD
BRANCH 15 18
ATOM     18  CA  ALA D   1       2.927  -7.657 -43.684  1.00 17.93 LIG 0.27  C 
ATOM     19  CB  ALA D   1       3.877  -7.324 -44.863  1.00 19.43 LIG 0.05  C 
BRANCH 18 20
ATOM     20  N   ALA D   1       1.866  -6.594 -43.568  1.00 19.30 LIG-0.07  N 
ATOM     21 H3   ALA D   1       1.658  -6.474 -42.712  1.00 19.30 LIG 0.28  HD
ATOM     22 H2   ALA D   1       1.140  -6.848 -44.017  1.00 19.30 LIG 0.28  HD
ATOM     23 H1   ALA D   1       2.173  -5.831 -43.909  1.00 19.30 LIG 0.28  HD
ENDBRANCH 18 20
ENDBRANCH 15 18
ENDBRANCH 13 14
BRANCH 13 24
ATOM     24  CB  THR D   2       3.959 -10.054 -39.788  1.00 21.41 LIG 0.15  C 
ATOM     25  CG2 THR D   2       2.531  -9.536 -39.725  1.00 25.14 LIG 0.04  C 
BRANCH 24 26
ATOM     26 OG1  THR D   2       3.914 -11.400 -40.272  1.00 26.95 LIG-0.39  OA
ATOM     27 HG1  THR D   2       3.531 -11.417 -41.018  1.00 26.95 LIG 0.21  HD
ENDBRANCH 24 26
ENDBRANCH 13 24
ENDBRANCH 11 13
ENDBRANCH 4 6
ENDBRANCH 1 2
BRANCH 1 28
ATOM     28  C   PHE D   4      11.070 -12.398 -38.813  1.00 22.48 LIG 0.24  C 
ATOM     29 O    PHE D   4      11.948 -11.552 -39.023  1.00 22.33 LIG-0.27  OA
ATOM     30  N   GLN D   5      10.728 -12.791 -37.589  1.00 24.26 LIG-0.35  N 
ATOM     31 H    GLN D   5      10.260 -13.492 -37.419  1.00 24.26 LIG 0.16  HD
BRANCH 30 32
ATOM     32  CA  GLN D   5      11.141 -12.029 -36.404  1.00 25.91 LIG 0.18  C 
BRANCH 32 33
ATOM     33  CB  GLN D   5      10.517 -10.628 -36.400  1.00 26.73 LIG 0.04  C 
BRANCH 33 34
ATOM     34  CG  GLN D   5      11.360  -9.524 -37.063  1.00 26.03 LIG 0.10  C 
BRANCH 34 35
ATOM     35  CD  GLN D   5      12.871  -9.751 -36.989  1.00 27.76 LIG 0.21  C 
ATOM     36  NE2 GLN D   5      13.570  -9.409 -38.097  1.00 30.48 LIG-0.37  N 
ATOM     37 22HE GLN D   5      14.420  -9.534 -38.124  1.00 30.48 LIG 0.16  HD
ATOM     38 21HE GLN D   5      13.164  -9.067 -38.773  1.00 30.48 LIG 0.16  HD
ATOM     39 OE1  GLN D   5      13.424 -10.255 -35.977  1.00 30.83 LIG-0.27  OA
ENDBRANCH 34 35
ENDBRANCH 33 34
ENDBRANCH 32 33
BRANCH 32 40
ATOM     40  C   GLN D   5      10.779 -12.683 -35.087  1.00 27.22 LIG 0.24  C 
ATOM     41  N   GLU D   6      10.319 -11.867 -34.154  1.00 28.14 LIG-0.34  N 
ATOM     42 H    GLU D   6      10.092 -11.051 -34.299  1.00 28.14 LIG 0.16  HD
ATOM     43 O    GLN D   5      10.943 -13.891 -34.911  1.00 29.15 LIG-0.27  OA
BRANCH 41 44
ATOM     44  CA  GLU D   6      10.155 -12.297 -32.780  1.00 27.71 LIG 0.19  C 
BRANCH 44 45
ATOM     45  C   GLU D   6       8.706 -12.167 -32.279  1.00 28.68 LIG 0.20  C 
ATOM     46 O    GLU D   6       7.915 -11.355 -32.841  1.00 28.16 LIG-0.65  OA
ATOM     47 OXT  GLU D   6       8.376 -12.872 -31.303  1.00 19.61 LIG-0.65  OA
ENDBRANCH 44 45
BRANCH 44 48
ATOM     48  CB  GLU D   6      11.110 -11.468 -31.919  1.00 27.67 LIG 0.05  C 
BRANCH 48 49
ATOM     49  CG  GLU D   6      11.801 -12.321 -30.812  1.00 29.50 LIG 0.12  C 
BRANCH 49 50
ATOM     50  CD  GLU D   6      11.465 -11.827 -29.399  1.00 27.58 LIG 0.17  C 
ATOM     51 OE2  GLU D   6      11.728 -10.647 -29.020  1.00 34.29 LIG-0.65  OA
ATOM     52 OE1  GLU D   6      10.905 -12.650 -28.644  1.00 35.41 LIG-0.65  OA
ENDBRANCH 49 50
ENDBRANCH 48 49
ENDBRANCH 44 48
ENDBRANCH 41 44
ENDBRANCH 32 40
ENDBRANCH 30 32
ENDBRANCH 1 28
BRANCH 1 53
ATOM     53  CB  PHE D   4      11.206 -13.903 -40.850  1.00 18.89 LIG 0.07  C 
BRANCH 53 54
ATOM     54  CG  PHE D   4      10.976 -15.389 -40.692  1.00 17.25 LIG-0.06  A 
ATOM     55  CD2 PHE D   4      10.219 -16.095 -41.624  1.00 16.93 LIG 0.01  A 
ATOM     56  CE2 PHE D   4      10.020 -17.439 -41.479  1.00 15.87 LIG 0.00  A 
ATOM     57  CZ  PHE D   4      10.568 -18.122 -40.412  1.00 16.57 LIG 0.00  A 
ATOM     58  CE1 PHE D   4      11.326 -17.437 -39.472  1.00 17.16 LIG 0.00  A 
ATOM     59  CD1 PHE D   4      11.521 -16.077 -39.621  1.00 17.60 LIG 0.01  A 
ENDBRANCH 53 54
ENDBRANCH 1 53
TORSDOF 21
ENDMDL
MODEL 12
USER: ADFR SOLUTION from run 146
USER: SCORE 21.097619 LL:  -4.176 LR: -17.661 RR:   0.000 FEB: -11.397
USER: RMSD 7.337242
USER: SEED 145
USER: STATUS no improvement in best in 2 clusters for 5 generations
USER: GENES 23
USER: genes 0 Translation |==|  0.46532 0.44912 0.30788
USER: genes 1 Rotation |==|  0.17336 0.62106 0.16597 0.63067
USER: genes 2 Torsion [C]-CA--N-[C] |==|  0.16667
USER: genes 3 Torsion [N]-C--CA-[CB] |==|  0.51862
USER: genes 4 Torsion [N]-C--CA-[N] |==|  0.25562
USER: genes 5 Torsion [C]-CA--N-[C] |==|  0.68032
USER: genes 6 Torsion [N]-C--CA-[N] |==|  0.38236
USER: genes 7 Torsion [C]-CA--N-[H3] |==|  0.23626
USER: genes 8 Torsion [C]-CA--CB-[CG2] |==|  0.48860
USER: genes 9 Torsion [CA]-CB--OG1-[HG1] |==|  0.96156
USER: genes 10 Torsion [N]-CA--C-[N] |==|  0.13011
USER: genes 11 Torsion [C]-N--CA-[CB] |==|  0.76927
USER: genes 12 Torsion [N]-CA--CB-[CG] |==|  0.63165
USER: genes 13 Torsion [CA]-CB--CG-[CD] |==|  0.43703
USER: genes 14 Torsion [CB]-CG--CD-[NE2] |==|  0.70953
USER: genes 15 Torsion [N]-CA--C-[N] |==|  0.19299
USER: genes 16 Torsion [C]-N--CA-[CB] |==|  0.47937
USER: genes 17 Torsion [N]-CA--C-[O] |==|  0.32364
USER: genes 18 Torsion [N]-CA--CB-[CG] |==|  0.16699
USER: genes 19 Torsion [CA]-CB--CG-[CD] |==|  0.42616
USER: genes 20 Torsion [CB]-CG--CD-[OE2] |==|  0.10412
USER: genes 21 Torsion [N]-CA--CB-[CG] |==|  0.60579
USER: genes 22 Torsion [CA]-CB--CG-[CD2] |==|  0.30867
ROOT
ATOM      1  CA  PHE D   4       9.333 -13.043 -39.804  1.00 20.42 LIG 0.18  C 
ENDROOT
BRANCH 1 2
ATOM      2  N   PHE D   4       8.592 -12.021 -40.534  1.00 19.57 LIG-0.35  N 
ATOM      3 H    PHE D   4       7.756 -12.187 -40.643  1.00 19.57 LIG 0.16  HD
ATOM      4  C   PRO D   3       9.203 -10.939 -40.975  1.00 20.09 LIG 0.24  C 
ATOM      5 O    PRO D   3      10.331 -10.600 -40.580  1.00 21.30 LIG-0.27  OA
BRANCH 4 6
ATOM      6  CA  PRO D   3       8.433 -10.106 -41.997  1.00 18.08 LIG 0.18  C 
ATOM      7  CB  PRO D   3       9.269  -8.973 -42.571  1.00 20.04 LIG 0.04  C 
ATOM      8  CG  PRO D   3       8.709  -7.731 -41.952  1.00 21.57 LIG 0.02  C 
ATOM      9  CD  PRO D   3       7.307  -7.958 -41.587  1.00 18.25 LIG 0.13  C 
ATOM     10  N   PRO D   3       7.247  -9.430 -41.461  1.00 17.53 LIG-0.34  N 
ATOM     11  C   THR D   2       6.179 -10.150 -41.126  1.00 17.82 LIG 0.24  C 
ATOM     12 O    THR D   2       6.171 -11.377 -41.252  1.00 17.76 LIG-0.27  OA
BRANCH 11 13
ATOM     13  CA  THR D   2       4.959  -9.387 -40.630  1.00 18.92 LIG 0.20  C 
BRANCH 13 14
ATOM     14  N   THR D   2       4.063  -9.080 -41.734  1.00 17.98 LIG-0.34  N 
ATOM     15  C   ALA D   1       3.817  -7.834 -42.123  1.00 18.22 LIG 0.25  C 
ATOM     16 O    ALA D   1       4.317  -6.838 -41.568  1.00 17.84 LIG-0.27  OA
ATOM     17 H    THR D   2       3.714  -9.773 -42.105  1.00 17.98 LIG 0.16  HD
BRANCH 15 18
ATOM     18  CA  ALA D   1       2.863  -7.679 -43.299  1.00 17.93 LIG 0.27  C 
ATOM     19  CB  ALA D   1       3.640  -7.407 -44.613  1.00 19.43 LIG 0.05  C 
BRANCH 18 20
ATOM     20  N   ALA D   1       1.916  -6.541 -43.022  1.00 19.30 LIG-0.07  N 
ATOM     21 H3   ALA D   1       2.295  -5.774 -43.265  1.00 19.30 LIG 0.28  HD
ATOM     22 H2   ALA D   1       1.729  -6.516 -42.151  1.00 19.30 LIG 0.28  HD
ATOM     23 H1   ALA D   1       1.165  -6.661 -43.483  1.00 19.30 LIG 0.28  HD
ENDBRANCH 18 20
ENDBRANCH 15 18
ENDBRANCH 13 14
BRANCH 13 24
ATOM     24  CB  THR D   2       4.228 -10.221 -39.569  1.00 21.41 LIG 0.15  C 
ATOM     25  CG2 THR D   2       3.065  -9.432 -38.990  1.00 25.14 LIG 0.04  C 
BRANCH 24 26
ATOM     26 OG1  THR D   2       3.694 -11.398 -40.184  1.00 26.95 LIG-0.39  OA
ATOM     27 HG1  THR D   2       3.717 -11.313 -41.019  1.00 26.95 LIG 0.21  HD
ENDBRANCH 24 26
ENDBRANCH 13 24
ENDBRANCH 11 13
ENDBRANCH 4 6
ENDBRANCH 1 2
BRANCH 1 28
ATOM     28  C   PHE D   4       9.941 -12.438 -38.541  1.00 22.48 LIG 0.24  C 
ATOM     29 O    PHE D   4      11.129 -12.633 -38.253  1.00 22.33 LIG-0.27  OA
ATOM     30  N   GLN D   5       9.136 -11.683 -37.798  1.00 24.26 LIG-0.35  N 
ATOM     31 H    GLN D   5       8.279 -11.675 -37.869  1.00 24.26 LIG 0.16  HD
BRANCH 30 32
ATOM     32  CA  GLN D   5       9.674 -10.783 -36.770  1.00 25.91 LIG 0.18  C 
BRANCH 32 33
ATOM     33  CB  GLN D   5       9.948 -11.534 -35.462  1.00 26.73 LIG 0.04  C 
BRANCH 33 34
ATOM     34  CG  GLN D   5       9.421 -10.857 -34.184  1.00 26.03 LIG 0.10  C 
BRANCH 34 35
ATOM     35  CD  GLN D   5       9.204 -11.809 -33.007  1.00 27.76 LIG 0.21  C 
ATOM     36  NE2 GLN D   5       7.915 -12.127 -32.741  1.00 30.48 LIG-0.37  N 
ATOM     37 22HE GLN D   5       7.727 -12.641 -32.077  1.00 30.48 LIG 0.16  HD
ATOM     38 21HE GLN D   5       7.284 -11.815 -33.235  1.00 30.48 LIG 0.16  HD
ATOM     39 OE1  GLN D   5      10.158 -12.242 -32.310  1.00 30.83 LIG-0.27  OA
ENDBRANCH 34 35
ENDBRANCH 33 34
ENDBRANCH 32 33
BRANCH 32 40
ATOM     40  C   GLN D   5      10.962 -10.090 -37.164  1.00 27.22 LIG 0.24  C 
ATOM     41  N   GLU D   6      10.850  -9.178 -38.116  1.00 28.14 LIG-0.34  N 
ATOM     42 H    GLU D   6      10.099  -8.875 -38.404  1.00 28.14 LIG 0.16  HD
ATOM     43 O    GLN D   5      12.034 -10.395 -36.641  1.00 29.15 LIG-0.27  OA
BRANCH 41 44
ATOM     44  CA  GLU D   6      12.013  -8.605 -38.761  1.00 27.71 LIG 0.19  C 
BRANCH 44 45
ATOM     45  C   GLU D   6      12.892  -7.787 -37.797  1.00 28.68 LIG 0.20  C 
ATOM     46 O    GLU D   6      14.077  -8.158 -37.555  1.00 28.16 LIG-0.65  OA
ATOM     47 OXT  GLU D   6      12.373  -6.782 -37.269  1.00 19.61 LIG-0.65  OA
ENDBRANCH 44 45
BRANCH 44 48
ATOM     48  CB  GLU D   6      11.519  -7.740 -39.922  1.00 27.67 LIG 0.05  C 
BRANCH 48 49
ATOM     49  CG  GLU D   6      10.586  -6.586 -39.447  1.00 29.50 LIG 0.12  C 
BRANCH 49 50
ATOM     50  CD  GLU D   6      10.610  -5.384 -40.401  1.00 27.58 LIG 0.17  C 
ATOM     51 OE2  GLU D   6      10.684  -5.526 -41.657  1.00 34.29 LIG-0.65  OA
ATOM     52 OE1  GLU D   6      10.540  -4.256 -39.869  1.00 35.41 LIG-0.65  OA
ENDBRANCH 49 50
ENDBRANCH 48 49
ENDBRANCH 44 48
ENDBRANCH 41 44
ENDBRANCH 32 40
ENDBRANCH 30 32
ENDBRANCH 1 28
BRANCH 1 53
ATOM     53  CB  PHE D   4      10.406 -13.684 -40.700  1.00 18.89 LIG 0.07  C 
BRANCH 53 54
ATOM     54  CG  PHE D   4      10.580 -15.171 -40.493  1.00 17.25 LIG-0.06  A 
ATOM     55  CD2 PHE D   4      10.197 -16.077 -41.479  1.00 16.93 LIG 0.01  A 
ATOM     56  CE2 PHE D   4      10.361 -17.420 -41.288  1.00 15.87 LIG 0.00  A 
ATOM     57  CZ  PHE D   4      10.915 -17.903 -40.119  1.00 16.57 LIG 0.00  A 
ATOM     58  CE1 PHE D   4      11.305 -17.017 -39.124  1.00 17.16 LIG 0.00  A 
ATOM     59  CD1 PHE D   4      11.131 -15.660 -39.321  1.00 17.60 LIG 0.01  A 
ENDBRANCH 53 54
ENDBRANCH 1 53
TORSDOF 21
ENDMDL
MODEL 13
USER: ADFR SOLUTION from run 42
USER: SCORE 19.533139 LL:  -3.724 LR: -17.534 RR:   0.000 FEB: -11.270
USER: RMSD 6.093585
USER: SEED 41
USER: STATUS no improvement in best in 7 clusters for 5 generations
USER: GENES 23
USER: genes 0 Translation |==|  0.47542 0.51362 0.33744
USER: genes 1 Rotation |==|  0.23642 0.56397 0.10063 0.63015
USER: genes 2 Torsion [C]-CA--N-[C] |==|  0.65399
USER: genes 3 Torsion [N]-C--CA-[CB] |==|  0.08248
USER: genes 4 Torsion [N]-C--CA-[N] |==|  0.21252
USER: genes 5 Torsion [C]-CA--N-[C] |==|  0.11111
USER: genes 6 Torsion [N]-C--CA-[N] |==|  0.84793
USER: genes 7 Torsion [C]-CA--N-[H3] |==|  0.74000
USER: genes 8 Torsion [C]-CA--CB-[CG2] |==|  0.15214
USER: genes 9 Torsion [CA]-CB--OG1-[HG1] |==|  0.22315
USER: genes 10 Torsion [N]-CA--C-[N] |==|  0.64443
USER: genes 11 Torsion [C]-N--CA-[CB] |==|  0.14680
USER: genes 12 Torsion [N]-CA--CB-[CG] |==|  0.56229
USER: genes 13 Torsion [CA]-CB--CG-[CD] |==|  0.61784
USER: genes 14 Torsion [CB]-CG--CD-[NE2] |==|  0.77738
USER: genes 15 Torsion [N]-CA--C-[N] |==|  0.15342
USER: genes 16 Torsion [C]-N--CA-[CB] |==|  0.44627
USER: genes 17 Torsion [N]-CA--C-[O] |==|  0.38644
USER: genes 18 Torsion [N]-CA--CB-[CG] |==|  0.18351
USER: genes 19 Torsion [CA]-CB--CG-[CD] |==|  0.75533
USER: genes 20 Torsion [CB]-CG--CD-[OE2] |==|  0.25706
USER: genes 21 Torsion [N]-CA--CB-[CG] |==|  0.75031
USER: genes 22 Torsion [CA]-CB--CG-[CD2] |==|  0.93611
ROOT
ATOM      1  CA  PHE D   4       9.575 -11.882 -39.183  1.00 20.42 LIG 0.18  C 
ENDROOT
BRANCH 1 2
ATOM      2  N   PHE D   4       9.191 -11.013 -40.289  1.00 19.57 LIG-0.35  N 
ATOM      3 H    PHE D   4       9.696 -10.326 -40.402  1.00 19.57 LIG 0.16  HD
ATOM      4  C   PRO D   3       8.142 -11.300 -41.033  1.00 20.09 LIG 0.24  C 
ATOM      5 O    PRO D   3       7.599 -12.418 -41.019  1.00 21.30 LIG-0.27  OA
BRANCH 4 6
ATOM      6  CA  PRO D   3       7.633 -10.178 -41.934  1.00 18.08 LIG 0.18  C 
ATOM      7  CB  PRO D   3       8.744  -9.236 -42.372  1.00 20.04 LIG 0.04  C 
ATOM      8  CG  PRO D   3       8.508  -7.978 -41.596  1.00 21.57 LIG 0.02  C 
ATOM      9  CD  PRO D   3       7.087  -7.880 -41.248  1.00 18.25 LIG 0.13  C 
ATOM     10  N   PRO D   3       6.649  -9.291 -41.306  1.00 17.53 LIG-0.34  N 
ATOM     11  C   THR D   2       5.425  -9.749 -41.052  1.00 17.82 LIG 0.24  C 
ATOM     12 O    THR D   2       5.106 -10.907 -41.330  1.00 17.76 LIG-0.27  OA
BRANCH 11 13
ATOM     13  CA  THR D   2       4.431  -8.765 -40.451  1.00 18.92 LIG 0.20  C 
BRANCH 13 14
ATOM     14  N   THR D   2       3.934  -7.853 -41.470  1.00 17.98 LIG-0.34  N 
ATOM     15  C   ALA D   1       3.642  -8.256 -42.702  1.00 18.22 LIG 0.25  C 
ATOM     16 O    ALA D   1       3.784  -9.433 -43.083  1.00 17.84 LIG-0.27  OA
ATOM     17 H    THR D   2       3.849  -7.041 -41.202  1.00 17.98 LIG 0.16  HD
BRANCH 15 18
ATOM     18  CA  ALA D   1       3.124  -7.182 -43.649  1.00 17.93 LIG 0.27  C 
ATOM     19  CB  ALA D   1       4.223  -6.133 -43.954  1.00 19.43 LIG 0.05  C 
BRANCH 18 20
ATOM     20  N   ALA D   1       1.932  -6.505 -43.024  1.00 19.30 LIG-0.07  N 
ATOM     21 H3   ALA D   1       1.186  -6.902 -43.302  1.00 19.30 LIG 0.28  HD
ATOM     22 H2   ALA D   1       1.919  -5.648 -43.263  1.00 19.30 LIG 0.28  HD
ATOM     23 H1   ALA D   1       1.988  -6.566 -42.138  1.00 19.30 LIG 0.28  HD
ENDBRANCH 18 20
ENDBRANCH 15 18
ENDBRANCH 13 14
BRANCH 13 24
ATOM     24  CB  THR D   2       3.266  -9.535 -39.815  1.00 21.41 LIG 0.15  C 
ATOM     25  CG2 THR D   2       3.791 -10.546 -38.809  1.00 25.14 LIG 0.04  C 
BRANCH 24 26
ATOM     26 OG1  THR D   2       2.424  -8.616 -39.112  1.00 26.95 LIG-0.39  OA
ATOM     27 HG1  THR D   2       1.916  -8.229 -39.657  1.00 26.95 LIG 0.21  HD
ENDBRANCH 24 26
ENDBRANCH 13 24
ENDBRANCH 11 13
ENDBRANCH 4 6
ENDBRANCH 1 2
BRANCH 1 28
ATOM     28  C   PHE D   4       9.649 -11.073 -37.890  1.00 22.48 LIG 0.24  C 
ATOM     29 O    PHE D   4       8.694 -10.380 -37.520  1.00 22.33 LIG-0.27  OA
ATOM     30  N   GLN D   5      10.776 -11.178 -37.189  1.00 24.26 LIG-0.35  N 
ATOM     31 H    GLN D   5      11.510 -11.499 -37.499  1.00 24.26 LIG 0.16  HD
BRANCH 30 32
ATOM     32  CA  GLN D   5      10.842 -10.738 -35.789  1.00 25.91 LIG 0.18  C 
BRANCH 32 33
ATOM     33  CB  GLN D   5       9.727 -11.377 -34.954  1.00 26.73 LIG 0.04  C 
BRANCH 33 34
ATOM     34  CG  GLN D   5       9.349 -10.626 -33.664  1.00 26.03 LIG 0.10  C 
BRANCH 34 35
ATOM     35  CD  GLN D   5       9.127 -11.528 -32.449  1.00 27.76 LIG 0.21  C 
ATOM     36  NE2 GLN D   5       7.920 -12.138 -32.385  1.00 30.48 LIG-0.37  N 
ATOM     37 22HE GLN D   5       7.727 -12.640 -31.714  1.00 30.48 LIG 0.16  HD
ATOM     38 21HE GLN D   5       7.345 -12.023 -33.015  1.00 30.48 LIG 0.16  HD
ATOM     39 OE1  GLN D   5       9.996 -11.668 -31.550  1.00 30.83 LIG-0.27  OA
ENDBRANCH 34 35
ENDBRANCH 33 34
ENDBRANCH 32 33
BRANCH 32 40
ATOM     40  C   GLN D   5      12.153 -11.054 -35.100  1.00 27.22 LIG 0.24  C 
ATOM     41  N   GLU D   6      13.238 -10.595 -35.701  1.00 28.14 LIG-0.34  N 
ATOM     42 H    GLU D   6      13.224 -10.034 -36.353  1.00 28.14 LIG 0.16  HD
ATOM     43 O    GLN D   5      12.183 -11.722 -34.066  1.00 29.15 LIG-0.27  OA
BRANCH 41 44
ATOM     44  CA  GLU D   6      14.565 -11.012 -35.299  1.00 27.71 LIG 0.19  C 
BRANCH 44 45
ATOM     45  C   GLU D   6      15.038 -10.335 -34.000  1.00 28.68 LIG 0.20  C 
ATOM     46 O    GLU D   6      15.665 -11.008 -33.131  1.00 28.16 LIG-0.65  OA
ATOM     47 OXT  GLU D   6      14.755  -9.129 -33.852  1.00 19.61 LIG-0.65  OA
ENDBRANCH 44 45
BRANCH 44 48
ATOM     48  CB  GLU D   6      15.517 -10.706 -36.457  1.00 27.67 LIG 0.05  C 
BRANCH 48 49
ATOM     49  CG  GLU D   6      15.664  -9.176 -36.715  1.00 29.50 LIG 0.12  C 
BRANCH 49 50
ATOM     50  CD  GLU D   6      14.602  -8.642 -37.685  1.00 27.58 LIG 0.17  C 
ATOM     51 OE2  GLU D   6      13.503  -8.162 -37.277  1.00 34.29 LIG-0.65  OA
ATOM     52 OE1  GLU D   6      14.886  -8.696 -38.900  1.00 35.41 LIG-0.65  OA
ENDBRANCH 49 50
ENDBRANCH 48 49
ENDBRANCH 44 48
ENDBRANCH 41 44
ENDBRANCH 32 40
ENDBRANCH 30 32
ENDBRANCH 1 28
BRANCH 1 53
ATOM     53  CB  PHE D   4      10.906 -12.593 -39.484  1.00 18.89 LIG 0.07  C 
BRANCH 53 54
ATOM     54  CG  PHE D   4      10.752 -13.922 -40.189  1.00 17.25 LIG-0.06  A 
ATOM     55  CD2 PHE D   4       9.563 -14.641 -40.101  1.00 16.93 LIG 0.01  A 
ATOM     56  CE2 PHE D   4       9.428 -15.839 -40.744  1.00 15.87 LIG 0.00  A 
ATOM     57  CZ  PHE D   4      10.463 -16.354 -41.497  1.00 16.57 LIG 0.00  A 
ATOM     58  CE1 PHE D   4      11.658 -15.653 -41.600  1.00 17.16 LIG 0.00  A 
ATOM     59  CD1 PHE D   4      11.790 -14.444 -40.943  1.00 17.60 LIG 0.01  A 
ENDBRANCH 53 54
ENDBRANCH 1 53
TORSDOF 21
ENDMDL
MODEL 14
USER: ADFR SOLUTION from run 167
USER: SCORE 20.561726 LL:  -5.168 LR: -17.459 RR:   0.000 FEB: -11.195
USER: RMSD 3.491232
USER: SEED 166
USER: STATUS no improvement in best in 2 clusters for 5 generations
USER: GENES 23
USER: genes 0 Translation |==|  0.54990 0.50633 0.48737
USER: genes 1 Rotation |==|  0.35073 0.42985 0.37004 0.95377
USER: genes 2 Torsion [C]-CA--N-[C] |==|  0.62223
USER: genes 3 Torsion [N]-C--CA-[CB] |==|  0.60830
USER: genes 4 Torsion [N]-C--CA-[N] |==|  0.38279
USER: genes 5 Torsion [C]-CA--N-[C] |==|  0.65254
USER: genes 6 Torsion [N]-C--CA-[N] |==|  0.44420
USER: genes 7 Torsion [C]-CA--N-[H3] |==|  0.84236
USER: genes 8 Torsion [C]-CA--CB-[CG2] |==|  0.32886
USER: genes 9 Torsion [CA]-CB--OG1-[HG1] |==|  0.05858
USER: genes 10 Torsion [N]-CA--C-[N] |==|  0.37297
USER: genes 11 Torsion [C]-N--CA-[CB] |==|  0.36452
USER: genes 12 Torsion [N]-CA--CB-[CG] |==|  0.91443
USER: genes 13 Torsion [CA]-CB--CG-[CD] |==|  0.73985
USER: genes 14 Torsion [CB]-CG--CD-[NE2] |==|  0.86778
USER: genes 15 Torsion [N]-CA--C-[N] |==|  0.11533
USER: genes 16 Torsion [C]-N--CA-[CB] |==|  0.36393
USER: genes 17 Torsion [N]-CA--C-[O] |==|  0.66464
USER: genes 18 Torsion [N]-CA--CB-[CG] |==|  0.80511
USER: genes 19 Torsion [CA]-CB--CG-[CD] |==|  0.32715
USER: genes 20 Torsion [CB]-CG--CD-[OE2] |==|  0.24149
USER: genes 21 Torsion [N]-CA--CB-[CG] |==|  0.84409
USER: genes 22 Torsion [CA]-CB--CG-[CD2] |==|  0.72786
ROOT
ATOM      1  CA  PHE D   4      11.363 -12.013 -36.034  1.00 20.42 LIG 0.18  C 
ENDROOT
BRANCH 1 2
ATOM      2  N   PHE D   4      10.264 -12.204 -36.974  1.00 19.57 LIG-0.35  N 
ATOM      3 H    PHE D   4       9.479 -12.084 -36.643  1.00 19.57 LIG 0.16  HD
ATOM      4  C   PRO D   3      10.504 -12.535 -38.227  1.00 20.09 LIG 0.24  C 
ATOM      5 O    PRO D   3      11.633 -12.441 -38.738  1.00 21.30 LIG-0.27  OA
BRANCH 4 6
ATOM      6  CA  PRO D   3       9.304 -13.030 -39.030  1.00 18.08 LIG 0.18  C 
ATOM      7  CB  PRO D   3       9.662 -14.181 -39.958  1.00 20.04 LIG 0.04  C 
ATOM      8  CG  PRO D   3       9.642 -13.585 -41.331  1.00 21.57 LIG 0.02  C 
ATOM      9  CD  PRO D   3       8.742 -12.427 -41.348  1.00 18.25 LIG 0.13  C 
ATOM     10  N   PRO D   3       8.715 -12.028 -39.924  1.00 17.53 LIG-0.34  N 
ATOM     11  C   THR D   2       8.045 -11.003 -39.405  1.00 17.82 LIG 0.24  C 
ATOM     12 O    THR D   2       7.915 -10.876 -38.185  1.00 17.76 LIG-0.27  OA
BRANCH 11 13
ATOM     13  CA  THR D   2       7.407 -10.027 -40.384  1.00 18.92 LIG 0.20  C 
BRANCH 13 14
ATOM     14  N   THR D   2       6.072  -9.656 -39.943  1.00 17.98 LIG-0.34  N 
ATOM     15  C   ALA D   1       5.002  -9.800 -40.718  1.00 18.22 LIG 0.25  C 
ATOM     16 O    ALA D   1       5.060 -10.245 -41.879  1.00 17.84 LIG-0.27  OA
ATOM     17 H    THR D   2       6.042  -9.340 -39.144  1.00 17.98 LIG 0.16  HD
BRANCH 15 18
ATOM     18  CA  ALA D   1       3.675  -9.374 -40.107  1.00 17.93 LIG 0.27  C 
ATOM     19  CB  ALA D   1       3.131 -10.461 -39.145  1.00 19.43 LIG 0.05  C 
BRANCH 18 20
ATOM     20  N   ALA D   1       2.680  -9.127 -41.210  1.00 19.30 LIG-0.07  N 
ATOM     21 H3   ALA D   1       3.004  -8.517 -41.771  1.00 19.30 LIG 0.28  HD
ATOM     22 H2   ALA D   1       1.916  -8.832 -40.861  1.00 19.30 LIG 0.28  HD
ATOM     23 H1   ALA D   1       2.531  -9.886 -41.651  1.00 19.30 LIG 0.28  HD
ENDBRANCH 18 20
ENDBRANCH 15 18
ENDBRANCH 13 14
BRANCH 13 24
ATOM     24  CB  THR D   2       8.290  -8.778 -40.512  1.00 21.41 LIG 0.15  C 
ATOM     25  CG2 THR D   2       8.779  -8.624 -41.943  1.00 25.14 LIG 0.04  C 
BRANCH 24 26
ATOM     26 OG1  THR D   2       7.513  -7.620 -40.189  1.00 26.95 LIG-0.39  OA
ATOM     27 HG1  THR D   2       6.848  -7.848 -39.730  1.00 26.95 LIG 0.21  HD
ENDBRANCH 24 26
ENDBRANCH 13 24
ENDBRANCH 11 13
ENDBRANCH 4 6
ENDBRANCH 1 2
BRANCH 1 28
ATOM     28  C   PHE D   4      11.032 -12.690 -34.706  1.00 22.48 LIG 0.24  C 
ATOM     29 O    PHE D   4       9.913 -12.567 -34.193  1.00 22.33 LIG-0.27  OA
ATOM     30  N   GLN D   5      11.997 -13.425 -34.159  1.00 24.26 LIG-0.35  N 
ATOM     31 H    GLN D   5      12.825 -13.385 -34.390  1.00 24.26 LIG 0.16  HD
BRANCH 30 32
ATOM     32  CA  GLN D   5      11.704 -14.385 -33.088  1.00 25.91 LIG 0.18  C 
BRANCH 32 33
ATOM     33  CB  GLN D   5      12.336 -15.751 -33.379  1.00 26.73 LIG 0.04  C 
BRANCH 33 34
ATOM     34  CG  GLN D   5      12.465 -16.119 -34.868  1.00 26.03 LIG 0.10  C 
BRANCH 34 35
ATOM     35  CD  GLN D   5      11.297 -16.938 -35.420  1.00 27.76 LIG 0.21  C 
ATOM     36  NE2 GLN D   5      10.915 -17.996 -34.667  1.00 30.48 LIG-0.37  N 
ATOM     37 22HE GLN D   5      10.278 -18.508 -34.936  1.00 30.48 LIG 0.16  HD
ATOM     38 21HE GLN D   5      11.309 -18.157 -33.919  1.00 30.48 LIG 0.16  HD
ATOM     39 OE1  GLN D   5      10.748 -16.666 -36.519  1.00 30.83 LIG-0.27  OA
ENDBRANCH 34 35
ENDBRANCH 33 34
ENDBRANCH 32 33
BRANCH 32 40
ATOM     40  C   GLN D   5      12.186 -13.953 -31.718  1.00 27.22 LIG 0.24  C 
ATOM     41  N   GLU D   6      11.997 -12.678 -31.423  1.00 28.14 LIG-0.34  N 
ATOM     42 H    GLU D   6      11.510 -12.145 -31.890  1.00 28.14 LIG 0.16  HD
ATOM     43 O    GLN D   5      12.742 -14.749 -30.960  1.00 29.15 LIG-0.27  OA
BRANCH 41 44
ATOM     44  CA  GLU D   6      12.609 -12.067 -30.262  1.00 27.71 LIG 0.19  C 
BRANCH 44 45
ATOM     45  C   GLU D   6      11.606 -11.805 -29.123  1.00 28.68 LIG 0.20  C 
ATOM     46 O    GLU D   6      11.427 -10.627 -28.699  1.00 28.16 LIG-0.65  OA
ATOM     47 OXT  GLU D   6      11.019 -12.797 -28.644  1.00 19.61 LIG-0.65  OA
ENDBRANCH 44 45
BRANCH 44 48
ATOM     48  CB  GLU D   6      13.272 -10.766 -30.719  1.00 27.67 LIG 0.05  C 
BRANCH 48 49
ATOM     49  CG  GLU D   6      14.529 -11.020 -31.604  1.00 29.50 LIG 0.12  C 
BRANCH 49 50
ATOM     50  CD  GLU D   6      14.370 -10.456 -33.022  1.00 27.58 LIG 0.17  C 
ATOM     51 OE2  GLU D   6      14.665  -9.257 -33.304  1.00 34.29 LIG-0.65  OA
ATOM     52 OE1  GLU D   6      13.943 -11.249 -33.888  1.00 35.41 LIG-0.65  OA
ENDBRANCH 49 50
ENDBRANCH 48 49
ENDBRANCH 44 48
ENDBRANCH 41 44
ENDBRANCH 32 40
ENDBRANCH 30 32
ENDBRANCH 1 28
BRANCH 1 53
ATOM     53  CB  PHE D   4      11.667 -10.516 -35.849  1.00 18.89 LIG 0.07  C 
BRANCH 53 54
ATOM     54  CG  PHE D   4      11.976  -9.783 -37.134  1.00 17.25 LIG-0.06  A 
ATOM     55  CD2 PHE D   4      13.294  -9.547 -37.520  1.00 16.93 LIG 0.01  A 
ATOM     56  CE2 PHE D   4      13.567  -8.888 -38.685  1.00 15.87 LIG 0.00  A 
ATOM     57  CZ  PHE D   4      12.545  -8.451 -39.503  1.00 16.57 LIG 0.00  A 
ATOM     58  CE1 PHE D   4      11.225  -8.676 -39.138  1.00 17.16 LIG 0.00  A 
ATOM     59  CD1 PHE D   4      10.954  -9.339 -37.955  1.00 17.60 LIG 0.01  A 
ENDBRANCH 53 54
ENDBRANCH 1 53
TORSDOF 21
ENDMDL
MODEL 15
USER: ADFR SOLUTION from run 173
USER: SCORE 19.681125 LL:  -3.792 LR: -17.444 RR:   0.000 FEB: -11.180
USER: RMSD 5.432334
USER: SEED 172
USER: STATUS no improvement in best in 4 clusters for 5 generations
USER: GENES 23
USER: genes 0 Translation |==|  0.51693 0.37375 0.35594
USER: genes 1 Rotation |==|  0.78015 0.39020 0.89458 0.56135
USER: genes 2 Torsion [C]-CA--N-[C] |==|  0.63444
USER: genes 3 Torsion [N]-C--CA-[CB] |==|  0.06761
USER: genes 4 Torsion [N]-C--CA-[N] |==|  0.51812
USER: genes 5 Torsion [C]-CA--N-[C] |==|  0.71677
USER: genes 6 Torsion [N]-C--CA-[N] |==|  0.43044
USER: genes 7 Torsion [C]-CA--N-[H3] |==|  0.86964
USER: genes 8 Torsion [C]-CA--CB-[CG2] |==|  0.45157
USER: genes 9 Torsion [CA]-CB--OG1-[HG1] |==|  0.84397
USER: genes 10 Torsion [N]-CA--C-[N] |==|  0.36387
USER: genes 11 Torsion [C]-N--CA-[CB] |==|  0.20634
USER: genes 12 Torsion [N]-CA--CB-[CG] |==|  0.70061
USER: genes 13 Torsion [CA]-CB--CG-[CD] |==|  0.43807
USER: genes 14 Torsion [CB]-CG--CD-[NE2] |==|  0.77100
USER: genes 15 Torsion [N]-CA--C-[N] |==|  0.41113
USER: genes 16 Torsion [C]-N--CA-[CB] |==|  0.83585
USER: genes 17 Torsion [N]-CA--C-[O] |==|  0.87650
USER: genes 18 Torsion [N]-CA--CB-[CG] |==|  0.41226
USER: genes 19 Torsion [CA]-CB--CG-[CD] |==|  0.21201
USER: genes 20 Torsion [CB]-CG--CD-[OE2] |==|  0.10199
USER: genes 21 Torsion [N]-CA--CB-[CG] |==|  0.96589
USER: genes 22 Torsion [CA]-CB--CG-[CD2] |==|  0.77742
ROOT
ATOM      1  CA  PHE D   4      10.571 -14.399 -38.794  1.00 20.42 LIG 0.18  C 
ENDROOT
BRANCH 1 2
ATOM      2  N   PHE D   4      10.503 -13.713 -40.079  1.00 19.57 LIG-0.35  N 
ATOM      3 H    PHE D   4      11.264 -13.491 -40.412  1.00 19.57 LIG 0.16  HD
ATOM      4  C   PRO D   3       9.339 -13.474 -40.649  1.00 20.09 LIG 0.24  C 
ATOM      5 O    PRO D   3       8.289 -14.032 -40.286  1.00 21.30 LIG-0.27  OA
BRANCH 4 6
ATOM      6  CA  PRO D   3       9.352 -12.475 -41.803  1.00 18.08 LIG 0.18  C 
ATOM      7  CB  PRO D   3      10.715 -12.377 -42.471  1.00 20.04 LIG 0.04  C 
ATOM      8  CG  PRO D   3      11.260 -11.052 -42.039  1.00 21.57 LIG 0.02  C 
ATOM      9  CD  PRO D   3      10.150 -10.149 -41.719  1.00 18.25 LIG 0.13  C 
ATOM     10  N   PRO D   3       9.052 -11.093 -41.415  1.00 17.53 LIG-0.34  N 
ATOM     11  C   THR D   2       7.814 -10.771 -41.046  1.00 17.82 LIG 0.24  C 
ATOM     12 O    THR D   2       6.916 -11.616 -41.019  1.00 17.76 LIG-0.27  OA
BRANCH 11 13
ATOM     13  CA  THR D   2       7.552  -9.310 -40.710  1.00 18.92 LIG 0.20  C 
BRANCH 13 14
ATOM     14  N   THR D   2       6.207  -9.140 -40.181  1.00 17.98 LIG-0.34  N 
ATOM     15  C   ALA D   1       5.210  -8.662 -40.918  1.00 18.22 LIG 0.25  C 
ATOM     16 O    ALA D   1       5.350  -8.310 -42.104  1.00 17.84 LIG-0.27  OA
ATOM     17 H    THR D   2       6.121  -9.374 -39.359  1.00 17.98 LIG 0.16  HD
BRANCH 15 18
ATOM     18  CA  ALA D   1       3.861  -8.552 -40.222  1.00 17.93 LIG 0.27  C 
ATOM     19  CB  ALA D   1       3.103  -9.904 -40.262  1.00 19.43 LIG 0.05  C 
BRANCH 18 20
ATOM     20  N   ALA D   1       3.040  -7.487 -40.900  1.00 19.30 LIG-0.07  N 
ATOM     21 H3   ALA D   1       3.538  -6.759 -41.020  1.00 19.30 LIG 0.28  HD
ATOM     22 H2   ALA D   1       2.337  -7.285 -40.393  1.00 19.30 LIG 0.28  HD
ATOM     23 H1   ALA D   1       2.759  -7.787 -41.690  1.00 19.30 LIG 0.28  HD
ENDBRANCH 18 20
ENDBRANCH 15 18
ENDBRANCH 13 14
BRANCH 13 24
ATOM     24  CB  THR D   2       8.589  -8.823 -39.688  1.00 21.41 LIG 0.15  C 
ATOM     25  CG2 THR D   2       8.627  -7.304 -39.660  1.00 25.14 LIG 0.04  C 
BRANCH 24 26
ATOM     26 OG1  THR D   2       8.210  -9.275 -38.384  1.00 26.95 LIG-0.39  OA
ATOM     27 HG1  THR D   2       7.433  -9.009 -38.210  1.00 26.95 LIG 0.21  HD
ENDBRANCH 24 26
ENDBRANCH 13 24
ENDBRANCH 11 13
ENDBRANCH 4 6
ENDBRANCH 1 2
BRANCH 1 28
ATOM     28  C   PHE D   4      11.492 -13.635 -37.847  1.00 22.48 LIG 0.24  C 
ATOM     29 O    PHE D   4      12.608 -13.252 -38.219  1.00 22.33 LIG-0.27  OA
ATOM     30  N   GLN D   5      11.017 -13.390 -36.628  1.00 24.26 LIG-0.35  N 
ATOM     31 H    GLN D   5      10.336 -13.788 -36.285  1.00 24.26 LIG 0.16  HD
BRANCH 30 32
ATOM     32  CA  GLN D   5      11.645 -12.389 -35.756  1.00 25.91 LIG 0.18  C 
BRANCH 32 33
ATOM     33  CB  GLN D   5      11.316 -10.965 -36.220  1.00 26.73 LIG 0.04  C 
BRANCH 33 34
ATOM     34  CG  GLN D   5      12.478 -10.194 -36.871  1.00 26.03 LIG 0.10  C 
BRANCH 34 35
ATOM     35  CD  GLN D   5      12.041  -9.046 -37.783  1.00 27.76 LIG 0.21  C 
ATOM     36  NE2 GLN D   5      11.695  -9.398 -39.044  1.00 30.48 LIG-0.37  N 
ATOM     37 22HE GLN D   5      11.462  -8.795 -39.611  1.00 30.48 LIG 0.16  HD
ATOM     38 21HE GLN D   5      11.708 -10.226 -39.279  1.00 30.48 LIG 0.16  HD
ATOM     39 OE1  GLN D   5      12.037  -7.848 -37.398  1.00 30.83 LIG-0.27  OA
ENDBRANCH 34 35
ENDBRANCH 33 34
ENDBRANCH 32 33
BRANCH 32 40
ATOM     40  C   GLN D   5      11.238 -12.490 -34.300  1.00 27.22 LIG 0.24  C 
ATOM     41  N   GLU D   6      12.164 -12.136 -33.425  1.00 28.14 LIG-0.34  N 
ATOM     42 H    GLU D   6      12.896 -11.737 -33.635  1.00 28.14 LIG 0.16  HD
ATOM     43 O    GLN D   5      10.125 -12.907 -33.979  1.00 29.15 LIG-0.27  OA
BRANCH 41 44
ATOM     44  CA  GLU D   6      12.012 -12.400 -32.009  1.00 27.71 LIG 0.19  C 
BRANCH 44 45
ATOM     45  C   GLU D   6      11.966 -13.903 -31.680  1.00 28.68 LIG 0.20  C 
ATOM     46 O    GLU D   6      11.262 -14.682 -32.386  1.00 28.16 LIG-0.65  OA
ATOM     47 OXT  GLU D   6      12.625 -14.290 -30.693  1.00 19.61 LIG-0.65  OA
ENDBRANCH 44 45
BRANCH 44 48
ATOM     48  CB  GLU D   6      10.737 -11.696 -31.540  1.00 27.67 LIG 0.05  C 
BRANCH 48 49
ATOM     49  CG  GLU D   6      10.033 -12.457 -30.377  1.00 29.50 LIG 0.12  C 
BRANCH 49 50
ATOM     50  CD  GLU D   6      10.743 -12.256 -29.032  1.00 27.58 LIG 0.17  C 
ATOM     51 OE2  GLU D   6      11.274 -11.152 -28.712  1.00 34.29 LIG-0.65  OA
ATOM     52 OE1  GLU D   6      10.760 -13.241 -28.263  1.00 35.41 LIG-0.65  OA
ENDBRANCH 49 50
ENDBRANCH 48 49
ENDBRANCH 44 48
ENDBRANCH 41 44
ENDBRANCH 32 40
ENDBRANCH 30 32
ENDBRANCH 1 28
BRANCH 1 53
ATOM     53  CB  PHE D   4      11.029 -15.857 -38.978  1.00 18.89 LIG 0.07  C 
BRANCH 53 54
ATOM     54  CG  PHE D   4      11.019 -16.333 -40.413  1.00 17.25 LIG-0.06  A 
ATOM     55  CD2 PHE D   4       9.833 -16.740 -41.020  1.00 16.93 LIG 0.01  A 
ATOM     56  CE2 PHE D   4       9.829 -17.164 -42.318  1.00 15.87 LIG 0.00  A 
ATOM     57  CZ  PHE D   4      10.997 -17.192 -43.054  1.00 16.57 LIG 0.00  A 
ATOM     58  CE1 PHE D   4      12.190 -16.789 -42.469  1.00 17.16 LIG 0.00  A 
ATOM     59  CD1 PHE D   4      12.189 -16.365 -41.153  1.00 17.60 LIG 0.01  A 
ENDBRANCH 53 54
ENDBRANCH 1 53
TORSDOF 21
ENDMDL
MODEL 16
USER: ADFR SOLUTION from run 144
USER: SCORE 19.306525 LL:  -4.256 LR: -17.371 RR:   0.000 FEB: -11.106
USER: RMSD 4.863266
USER: SEED 143
USER: STATUS no improvement in best in 3 clusters for 5 generations
USER: GENES 23
USER: genes 0 Translation |==|  0.51927 0.47535 0.43153
USER: genes 1 Rotation |==|  0.23198 0.60775 0.09208 0.51266
USER: genes 2 Torsion [C]-CA--N-[C] |==|  0.79700
USER: genes 3 Torsion [N]-C--CA-[CB] |==|  0.70555
USER: genes 4 Torsion [N]-C--CA-[N] |==|  0.86125
USER: genes 5 Torsion [C]-CA--N-[C] |==|  0.51753
USER: genes 6 Torsion [N]-C--CA-[N] |==|  0.37711
USER: genes 7 Torsion [C]-CA--N-[H3] |==|  0.47440
USER: genes 8 Torsion [C]-CA--CB-[CG2] |==|  0.08035
USER: genes 9 Torsion [CA]-CB--OG1-[HG1] |==|  0.21403
USER: genes 10 Torsion [N]-CA--C-[N] |==|  0.46965
USER: genes 11 Torsion [C]-N--CA-[CB] |==|  0.24316
USER: genes 12 Torsion [N]-CA--CB-[CG] |==|  0.13008
USER: genes 13 Torsion [CA]-CB--CG-[CD] |==|  0.20825
USER: genes 14 Torsion [CB]-CG--CD-[NE2] |==|  0.27269
USER: genes 15 Torsion [N]-CA--C-[N] |==|  0.49896
USER: genes 16 Torsion [C]-N--CA-[CB] |==|  0.37425
USER: genes 17 Torsion [N]-CA--C-[O] |==|  0.90560
USER: genes 18 Torsion [N]-CA--CB-[CG] |==|  0.80990
USER: genes 19 Torsion [CA]-CB--CG-[CD] |==|  0.26589
USER: genes 20 Torsion [CB]-CG--CD-[OE2] |==|  0.18968
USER: genes 21 Torsion [N]-CA--CB-[CG] |==|  0.85831
USER: genes 22 Torsion [CA]-CB--CG-[CD2] |==|  0.94005
ROOT
ATOM      1  CA  PHE D   4      10.628 -12.571 -37.207  1.00 20.42 LIG 0.18  C 
ENDROOT
BRANCH 1 2
ATOM      2  N   PHE D   4      10.543 -11.725 -38.392  1.00 19.57 LIG-0.35  N 
ATOM      3 H    PHE D   4      11.117 -11.904 -39.007  1.00 19.57 LIG 0.16  HD
ATOM      4  C   PRO D   3       9.638 -10.770 -38.470  1.00 20.09 LIG 0.24  C 
ATOM      5 O    PRO D   3       8.665 -10.707 -37.698  1.00 21.30 LIG-0.27  OA
BRANCH 4 6
ATOM      6  CA  PRO D   3       9.842  -9.744 -39.581  1.00 18.08 LIG 0.18  C 
ATOM      7  CB  PRO D   3      10.332  -8.405 -39.052  1.00 20.04 LIG 0.04  C 
ATOM      8  CG  PRO D   3       9.153  -7.491 -39.173  1.00 21.57 LIG 0.02  C 
ATOM      9  CD  PRO D   3       8.273  -7.969 -40.244  1.00 18.25 LIG 0.13  C 
ATOM     10  N   PRO D   3       8.625  -9.403 -40.326  1.00 17.53 LIG-0.34  N 
ATOM     11  C   THR D   2       8.088 -10.302 -41.147  1.00 17.82 LIG 0.24  C 
ATOM     12 O    THR D   2       8.591 -11.419 -41.288  1.00 17.76 LIG-0.27  OA
BRANCH 11 13
ATOM     13  CA  THR D   2       6.860  -9.871 -41.935  1.00 18.92 LIG 0.20  C 
BRANCH 13 14
ATOM     14  N   THR D   2       5.869  -9.273 -41.053  1.00 17.98 LIG-0.34  N 
ATOM     15  C   ALA D   1       4.658  -8.927 -41.477  1.00 18.22 LIG 0.25  C 
ATOM     16 O    ALA D   1       4.284  -9.070 -42.656  1.00 17.84 LIG-0.27  OA
ATOM     17 H    THR D   2       6.138  -9.167 -40.244  1.00 17.98 LIG 0.16  HD
BRANCH 15 18
ATOM     18  CA  ALA D   1       3.734  -8.321 -40.430  1.00 17.93 LIG 0.27  C 
ATOM     19  CB  ALA D   1       2.681  -9.354 -39.953  1.00 19.43 LIG 0.05  C 
BRANCH 18 20
ATOM     20  N   ALA D   1       3.040  -7.121 -41.018  1.00 19.30 LIG-0.07  N 
ATOM     21 H3   ALA D   1       2.403  -6.844 -40.462  1.00 19.30 LIG 0.28  HD
ATOM     22 H2   ALA D   1       2.675  -7.342 -41.799  1.00 19.30 LIG 0.28  HD
ATOM     23 H1   ALA D   1       3.631  -6.468 -41.142  1.00 19.30 LIG 0.28  HD
ENDBRANCH 18 20
ENDBRANCH 15 18
ENDBRANCH 13 14
BRANCH 13 24
ATOM     24  CB  THR D   2       7.273  -8.871 -43.023  1.00 21.41 LIG 0.15  C 
ATOM     25  CG2 THR D   2       8.703  -9.136 -43.466  1.00 25.14 LIG 0.04  C 
BRANCH 24 26
ATOM     26 OG1  THR D   2       6.424  -9.042 -44.163  1.00 26.95 LIG-0.39  OA
ATOM     27 HG1  THR D   2       5.678  -8.687 -44.013  1.00 26.95 LIG 0.21  HD
ENDBRANCH 24 26
ENDBRANCH 13 24
ENDBRANCH 11 13
ENDBRANCH 4 6
ENDBRANCH 1 2
BRANCH 1 28
ATOM     28  C   PHE D   4      11.223 -11.778 -36.046  1.00 22.48 LIG 0.24  C 
ATOM     29 O    PHE D   4      11.719 -10.659 -36.231  1.00 22.33 LIG-0.27  OA
ATOM     30  N   GLN D   5      11.154 -12.345 -34.844  1.00 24.26 LIG-0.35  N 
ATOM     31 H    GLN D   5      10.985 -13.177 -34.711  1.00 24.26 LIG 0.16  HD
BRANCH 30 32
ATOM     32  CA  GLN D   5      11.371 -11.560 -33.622  1.00 25.91 LIG 0.18  C 
BRANCH 32 33
ATOM     33  CB  GLN D   5      10.066 -10.920 -33.136  1.00 26.73 LIG 0.04  C 
BRANCH 33 34
ATOM     34  CG  GLN D   5       8.843 -11.853 -33.095  1.00 26.03 LIG 0.10  C 
BRANCH 34 35
ATOM     35  CD  GLN D   5       8.847 -12.851 -31.936  1.00 27.76 LIG 0.21  C 
ATOM     36  NE2 GLN D   5       8.111 -12.499 -30.856  1.00 30.48 LIG-0.37  N 
ATOM     37 22HE GLN D   5       8.092 -13.008 -30.164  1.00 30.48 LIG 0.16  HD
ATOM     38 21HE GLN D   5       7.661 -11.765 -30.862  1.00 30.48 LIG 0.16  HD
ATOM     39 OE1  GLN D   5       9.519 -13.915 -31.969  1.00 30.83 LIG-0.27  OA
ENDBRANCH 34 35
ENDBRANCH 33 34
ENDBRANCH 32 33
BRANCH 32 40
ATOM     40  C   GLN D   5      11.936 -12.356 -32.464  1.00 27.22 LIG 0.24  C 
ATOM     41  N   GLU D   6      12.149 -11.673 -31.353  1.00 28.14 LIG-0.34  N 
ATOM     42 H    GLU D   6      11.862 -10.874 -31.219  1.00 28.14 LIG 0.16  HD
ATOM     43 O    GLN D   5      12.202 -13.553 -32.585  1.00 29.15 LIG-0.27  OA
BRANCH 41 44
ATOM     44  CA  GLU D   6      12.898 -12.232 -30.247  1.00 27.71 LIG 0.19  C 
BRANCH 44 45
ATOM     45  C   GLU D   6      11.998 -12.716 -29.096  1.00 28.68 LIG 0.20  C 
ATOM     46 O    GLU D   6      10.925 -12.099 -28.832  1.00 28.16 LIG-0.65  OA
ATOM     47 OXT  GLU D   6      12.390 -13.707 -28.446  1.00 19.61 LIG-0.65  OA
ENDBRANCH 44 45
BRANCH 44 48
ATOM     48  CB  GLU D   6      13.880 -11.162 -29.764  1.00 27.67 LIG 0.05  C 
BRANCH 48 49
ATOM     49  CG  GLU D   6      15.003 -10.874 -30.805  1.00 29.50 LIG 0.12  C 
BRANCH 49 50
ATOM     50  CD  GLU D   6      14.678  -9.669 -31.697  1.00 27.58 LIG 0.17  C 
ATOM     51 OE2  GLU D   6      14.643  -8.488 -31.241  1.00 34.29 LIG-0.65  OA
ATOM     52 OE1  GLU D   6      14.462  -9.915 -32.902  1.00 35.41 LIG-0.65  OA
ENDBRANCH 49 50
ENDBRANCH 48 49
ENDBRANCH 44 48
ENDBRANCH 41 44
ENDBRANCH 32 40
ENDBRANCH 30 32
ENDBRANCH 1 28
BRANCH 1 53
ATOM     53  CB  PHE D   4      11.441 -13.843 -37.502  1.00 18.89 LIG 0.07  C 
BRANCH 53 54
ATOM     54  CG  PHE D   4      10.991 -14.595 -38.734  1.00 17.25 LIG-0.06  A 
ATOM     55  CD2 PHE D   4       9.705 -14.423 -39.242  1.00 16.93 LIG 0.01  A 
ATOM     56  CE2 PHE D   4       9.307 -15.102 -40.360  1.00 15.87 LIG 0.00  A 
ATOM     57  CZ  PHE D   4      10.170 -15.961 -41.008  1.00 16.57 LIG 0.00  A 
ATOM     58  CE1 PHE D   4      11.456 -16.146 -40.518  1.00 17.16 LIG 0.00  A 
ATOM     59  CD1 PHE D   4      11.853 -15.461 -39.385  1.00 17.60 LIG 0.01  A 
ENDBRANCH 53 54
ENDBRANCH 1 53
TORSDOF 21
ENDMDL
MODEL 17
USER: ADFR SOLUTION from run 197
USER: SCORE 19.684226 LL:  -3.633 LR: -17.356 RR:   0.000 FEB: -11.092
USER: RMSD 5.633884
USER: SEED 196
USER: STATUS no improvement in best in 7 clusters for 5 generations
USER: GENES 23
USER: genes 0 Translation |==|  0.52538 0.49049 0.34886
USER: genes 1 Rotation |==|  0.20513 0.63637 0.12900 0.58254
USER: genes 2 Torsion [C]-CA--N-[C] |==|  0.63717
USER: genes 3 Torsion [N]-C--CA-[CB] |==|  0.97318
USER: genes 4 Torsion [N]-C--CA-[N] |==|  0.34355
USER: genes 5 Torsion [C]-CA--N-[C] |==|  0.70071
USER: genes 6 Torsion [N]-C--CA-[N] |==|  0.37291
USER: genes 7 Torsion [C]-CA--N-[H3] |==|  0.60305
USER: genes 8 Torsion [C]-CA--CB-[CG2] |==|  0.41300
USER: genes 9 Torsion [CA]-CB--OG1-[HG1] |==|  0.10092
USER: genes 10 Torsion [N]-CA--C-[N] |==|  0.44392
USER: genes 11 Torsion [C]-N--CA-[CB] |==|  0.15070
USER: genes 12 Torsion [N]-CA--CB-[CG] |==|  0.22338
USER: genes 13 Torsion [CA]-CB--CG-[CD] |==|  0.25961
USER: genes 14 Torsion [CB]-CG--CD-[NE2] |==|  0.53275
USER: genes 15 Torsion [N]-CA--C-[N] |==|  0.47526
USER: genes 16 Torsion [C]-N--CA-[CB] |==|  0.19682
USER: genes 17 Torsion [N]-CA--C-[O] |==|  0.46179
USER: genes 18 Torsion [N]-CA--CB-[CG] |==|  0.60196
USER: genes 19 Torsion [CA]-CB--CG-[CD] |==|  0.69043
USER: genes 20 Torsion [CB]-CG--CD-[OE2] |==|  0.21260
USER: genes 21 Torsion [N]-CA--CB-[CG] |==|  0.74737
USER: genes 22 Torsion [CA]-CB--CG-[CD2] |==|  0.93535
ROOT
ATOM      1  CA  PHE D   4      10.774 -12.298 -38.943  1.00 20.42 LIG 0.18  C 
ENDROOT
BRANCH 1 2
ATOM      2  N   PHE D   4      10.384 -11.212 -39.834  1.00 19.57 LIG-0.35  N 
ATOM      3 H    PHE D   4      10.988 -10.613 -39.961  1.00 19.57 LIG 0.16  HD
ATOM      4  C   PRO D   3       9.185 -11.194 -40.382  1.00 20.09 LIG 0.24  C 
ATOM      5 O    PRO D   3       8.442 -12.189 -40.398  1.00 21.30 LIG-0.27  OA
BRANCH 4 6
ATOM      6  CA  PRO D   3       8.761  -9.872 -41.019  1.00 18.08 LIG 0.18  C 
ATOM      7  CB  PRO D   3       9.722  -8.738 -40.696  1.00 20.04 LIG 0.04  C 
ATOM      8  CG  PRO D   3       8.982  -7.876 -39.722  1.00 21.57 LIG 0.02  C 
ATOM      9  CD  PRO D   3       7.539  -8.042 -39.920  1.00 18.25 LIG 0.13  C 
ATOM     10  N   PRO D   3       7.460  -9.370 -40.567  1.00 17.53 LIG-0.34  N 
ATOM     11  C   THR D   2       6.350  -9.999 -40.945  1.00 17.82 LIG 0.24  C 
ATOM     12 O    THR D   2       6.395 -11.001 -41.662  1.00 17.76 LIG-0.27  OA
BRANCH 11 13
ATOM     13  CA  THR D   2       5.027  -9.396 -40.491  1.00 18.92 LIG 0.20  C 
BRANCH 13 14
ATOM     14  N   THR D   2       4.173  -9.117 -41.635  1.00 17.98 LIG-0.34  N 
ATOM     15  C   ALA D   1       3.935  -7.880 -42.058  1.00 18.22 LIG 0.25  C 
ATOM     16 O    ALA D   1       4.407  -6.870 -41.504  1.00 17.84 LIG-0.27  OA
ATOM     17 H    THR D   2       3.842  -9.819 -42.006  1.00 17.98 LIG 0.16  HD
BRANCH 15 18
ATOM     18  CA  ALA D   1       3.027  -7.755 -43.274  1.00 17.93 LIG 0.27  C 
ATOM     19  CB  ALA D   1       3.844  -7.419 -44.547  1.00 19.43 LIG 0.05  C 
BRANCH 18 20
ATOM     20  N   ALA D   1       2.010  -6.673 -43.021  1.00 19.30 LIG-0.07  N 
ATOM     21 H3   ALA D   1       1.229  -6.911 -43.376  1.00 19.30 LIG 0.28  HD
ATOM     22 H2   ALA D   1       2.285  -5.913 -43.394  1.00 19.30 LIG 0.28  HD
ATOM     23 H1   ALA D   1       1.914  -6.555 -42.144  1.00 19.30 LIG 0.28  HD
ENDBRANCH 18 20
ENDBRANCH 15 18
ENDBRANCH 13 14
BRANCH 13 24
ATOM     24  CB  THR D   2       4.325 -10.364 -39.529  1.00 21.41 LIG 0.15  C 
ATOM     25  CG2 THR D   2       3.502  -9.589 -38.512  1.00 25.14 LIG 0.04  C 
BRANCH 24 26
ATOM     26 OG1  THR D   2       3.429 -11.197 -40.272  1.00 26.95 LIG-0.39  OA
ATOM     27 HG1  THR D   2       3.768 -11.376 -41.019  1.00 26.95 LIG 0.21  HD
ENDBRANCH 24 26
ENDBRANCH 13 24
ENDBRANCH 11 13
ENDBRANCH 4 6
ENDBRANCH 1 2
BRANCH 1 28
ATOM     28  C   PHE D   4      11.371 -11.726 -37.660  1.00 22.48 LIG 0.24  C 
ATOM     29 O    PHE D   4      11.790 -10.563 -37.619  1.00 22.33 LIG-0.27  OA
ATOM     30  N   GLN D   5      11.389 -12.534 -36.603  1.00 24.26 LIG-0.35  N 
ATOM     31 H    GLN D   5      11.276 -13.386 -36.643  1.00 24.26 LIG 0.16  HD
BRANCH 30 32
ATOM     32  CA  GLN D   5      11.612 -12.009 -35.250  1.00 25.91 LIG 0.18  C 
BRANCH 32 33
ATOM     33  CB  GLN D   5      10.616 -10.892 -34.918  1.00 26.73 LIG 0.04  C 
BRANCH 33 34
ATOM     34  CG  GLN D   5       9.216 -11.358 -34.480  1.00 26.03 LIG 0.10  C 
BRANCH 34 35
ATOM     35  CD  GLN D   5       9.038 -11.488 -32.966  1.00 27.76 LIG 0.21  C 
ATOM     36  NE2 GLN D   5       7.915 -12.127 -32.561  1.00 30.48 LIG-0.37  N 
ATOM     37 22HE GLN D   5       7.748 -12.212 -31.722  1.00 30.48 LIG 0.16  HD
ATOM     38 21HE GLN D   5       7.369 -12.448 -33.142  1.00 30.48 LIG 0.16  HD
ATOM     39 OE1  GLN D   5       9.863 -11.003 -32.150  1.00 30.83 LIG-0.27  OA
ENDBRANCH 34 35
ENDBRANCH 33 34
ENDBRANCH 32 33
BRANCH 32 40
ATOM     40  C   GLN D   5      11.499 -13.048 -34.153  1.00 27.22 LIG 0.24  C 
ATOM     41  N   GLU D   6      11.872 -12.648 -32.949  1.00 28.14 LIG-0.34  N 
ATOM     42 H    GLU D   6      12.031 -11.829 -32.744  1.00 28.14 LIG 0.16  HD
ATOM     43 O    GLN D   5      11.113 -14.191 -34.398  1.00 29.15 LIG-0.27  OA
BRANCH 41 44
ATOM     44  CA  GLU D   6      12.046 -13.583 -31.857  1.00 27.71 LIG 0.19  C 
BRANCH 44 45
ATOM     45  C   GLU D   6      12.149 -12.891 -30.486  1.00 28.68 LIG 0.20  C 
ATOM     46 O    GLU D   6      12.041 -13.573 -29.426  1.00 28.16 LIG-0.65  OA
ATOM     47 OXT  GLU D   6      12.316 -11.654 -30.484  1.00 19.61 LIG-0.65  OA
ENDBRANCH 44 45
BRANCH 44 48
ATOM     48  CB  GLU D   6      13.299 -14.410 -32.150  1.00 27.67 LIG 0.05  C 
BRANCH 48 49
ATOM     49  CG  GLU D   6      13.149 -15.894 -31.698  1.00 29.50 LIG 0.12  C 
BRANCH 49 50
ATOM     50  CD  GLU D   6      14.056 -16.238 -30.510  1.00 27.58 LIG 0.17  C 
ATOM     51 OE2  GLU D   6      13.781 -15.876 -29.328  1.00 34.29 LIG-0.65  OA
ATOM     52 OE1  GLU D   6      15.079 -16.907 -30.770  1.00 35.41 LIG-0.65  OA
ENDBRANCH 49 50
ENDBRANCH 48 49
ENDBRANCH 44 48
ENDBRANCH 41 44
ENDBRANCH 32 40
ENDBRANCH 30 32
ENDBRANCH 1 28
BRANCH 1 53
ATOM     53  CB  PHE D   4      11.751 -13.257 -39.646  1.00 18.89 LIG 0.07  C 
BRANCH 53 54
ATOM     54  CG  PHE D   4      11.083 -14.408 -40.362  1.00 17.25 LIG-0.06  A 
ATOM     55  CD2 PHE D   4       9.811 -14.836 -39.989  1.00 16.93 LIG 0.01  A 
ATOM     56  CE2 PHE D   4       9.210 -15.874 -40.644  1.00 15.87 LIG 0.00  A 
ATOM     57  CZ  PHE D   4       9.847 -16.511 -41.689  1.00 16.57 LIG 0.00  A 
ATOM     58  CE1 PHE D   4      11.115 -16.099 -42.078  1.00 17.16 LIG 0.00  A 
ATOM     59  CD1 PHE D   4      11.720 -15.052 -41.409  1.00 17.60 LIG 0.01  A 
ENDBRANCH 53 54
ENDBRANCH 1 53
TORSDOF 21
ENDMDL
MODEL 18
USER: ADFR SOLUTION from run 155
USER: SCORE 20.008201 LL:  -4.190 LR: -17.331 RR:   0.000 FEB: -11.067
USER: RMSD 5.041239
USER: SEED 154
USER: STATUS no improvement in best in 10 clusters for 5 generations
USER: GENES 23
USER: genes 0 Translation |==|  0.50877 0.38740 0.36724
USER: genes 1 Rotation |==|  0.76199 0.39625 0.91034 0.54712
USER: genes 2 Torsion [C]-CA--N-[C] |==|  0.60662
USER: genes 3 Torsion [N]-C--CA-[CB] |==|  0.11124
USER: genes 4 Torsion [N]-C--CA-[N] |==|  0.51929
USER: genes 5 Torsion [C]-CA--N-[C] |==|  0.73430
USER: genes 6 Torsion [N]-C--CA-[N] |==|  0.41264
USER: genes 7 Torsion [C]-CA--N-[H3] |==|  0.19471
USER: genes 8 Torsion [C]-CA--CB-[CG2] |==|  0.45367
USER: genes 9 Torsion [CA]-CB--OG1-[HG1] |==|  0.86890
USER: genes 10 Torsion [N]-CA--C-[N] |==|  0.44950
USER: genes 11 Torsion [C]-N--CA-[CB] |==|  0.26613
USER: genes 12 Torsion [N]-CA--CB-[CG] |==|  0.38539
USER: genes 13 Torsion [CA]-CB--CG-[CD] |==|  0.68589
USER: genes 14 Torsion [CB]-CG--CD-[NE2] |==|  0.27787
USER: genes 15 Torsion [N]-CA--C-[N] |==|  0.43684
USER: genes 16 Torsion [C]-N--CA-[CB] |==|  0.46031
USER: genes 17 Torsion [N]-CA--C-[O] |==|  0.93877
USER: genes 18 Torsion [N]-CA--CB-[CG] |==|  0.88453
USER: genes 19 Torsion [CA]-CB--CG-[CD] |==|  0.31818
USER: genes 20 Torsion [CB]-CG--CD-[OE2] |==|  0.54286
USER: genes 21 Torsion [N]-CA--CB-[CG] |==|  0.97597
USER: genes 22 Torsion [CA]-CB--CG-[CD2] |==|  0.74886
ROOT
ATOM      1  CA  PHE D   4      10.375 -14.154 -38.557  1.00 20.42 LIG 0.18  C 
ENDROOT
BRANCH 1 2
ATOM      2  N   PHE D   4      10.405 -13.481 -39.850  1.00 19.57 LIG-0.35  N 
ATOM      3 H    PHE D   4      11.153 -13.105 -40.047  1.00 19.57 LIG 0.16  HD
ATOM      4  C   PRO D   3       9.340 -13.477 -40.627  1.00 20.09 LIG 0.24  C 
ATOM      5 O    PRO D   3       8.377 -14.241 -40.445  1.00 21.30 LIG-0.27  OA
BRANCH 4 6
ATOM      6  CA  PRO D   3       9.361 -12.483 -41.786  1.00 18.08 LIG 0.18  C 
ATOM      7  CB  PRO D   3      10.727 -12.393 -42.448  1.00 20.04 LIG 0.04  C 
ATOM      8  CG  PRO D   3      11.273 -11.067 -42.020  1.00 21.57 LIG 0.02  C 
ATOM      9  CD  PRO D   3      10.164 -10.159 -41.709  1.00 18.25 LIG 0.13  C 
ATOM     10  N   PRO D   3       9.063 -11.099 -41.405  1.00 17.53 LIG-0.34  N 
ATOM     11  C   THR D   2       7.824 -10.772 -41.044  1.00 17.82 LIG 0.24  C 
ATOM     12 O    THR D   2       6.924 -11.615 -41.017  1.00 17.76 LIG-0.27  OA
BRANCH 11 13
ATOM     13  CA  THR D   2       7.564  -9.309 -40.715  1.00 18.92 LIG 0.20  C 
BRANCH 13 14
ATOM     14  N   THR D   2       6.221  -9.135 -40.184  1.00 17.98 LIG-0.34  N 
ATOM     15  C   ALA D   1       5.195  -8.777 -40.950  1.00 18.22 LIG 0.25  C 
ATOM     16 O    ALA D   1       5.305  -8.550 -42.169  1.00 17.84 LIG-0.27  OA
ATOM     17 H    THR D   2       6.155  -9.283 -39.340  1.00 17.98 LIG 0.16  HD
BRANCH 15 18
ATOM     18  CA  ALA D   1       3.852  -8.645 -40.246  1.00 17.93 LIG 0.27  C 
ATOM     19  CB  ALA D   1       3.077  -9.987 -40.269  1.00 19.43 LIG 0.05  C 
BRANCH 18 20
ATOM     20  N   ALA D   1       3.040  -7.576 -40.928  1.00 19.30 LIG-0.07  N 
ATOM     21 H3   ALA D   1       2.786  -7.863 -41.731  1.00 19.30 LIG 0.28  HD
ATOM     22 H2   ALA D   1       3.533  -6.840 -41.019  1.00 19.30 LIG 0.28  HD
ATOM     23 H1   ALA D   1       2.321  -7.392 -40.438  1.00 19.30 LIG 0.28  HD
ENDBRANCH 18 20
ENDBRANCH 15 18
ENDBRANCH 13 14
BRANCH 13 24
ATOM     24  CB  THR D   2       8.604  -8.818 -39.699  1.00 21.41 LIG 0.15  C 
ATOM     25  CG2 THR D   2       8.630  -7.298 -39.666  1.00 25.14 LIG 0.04  C 
BRANCH 24 26
ATOM     26 OG1  THR D   2       8.238  -9.277 -38.394  1.00 26.95 LIG-0.39  OA
ATOM     27 HG1  THR D   2       7.423  -9.125 -38.262  1.00 26.95 LIG 0.21  HD
ENDBRANCH 24 26
ENDBRANCH 13 24
ENDBRANCH 11 13
ENDBRANCH 4 6
ENDBRANCH 1 2
BRANCH 1 28
ATOM     28  C   PHE D   4      11.156 -13.337 -37.530  1.00 22.48 LIG 0.24  C 
ATOM     29 O    PHE D   4      11.948 -12.457 -37.889  1.00 22.33 LIG-0.27  OA
ATOM     30  N   GLN D   5      10.915 -13.609 -36.250  1.00 24.26 LIG-0.35  N 
ATOM     31 H    GLN D   5      10.517 -14.319 -35.973  1.00 24.26 LIG 0.16  HD
BRANCH 30 32
ATOM     32  CA  GLN D   5      11.328 -12.683 -35.187  1.00 25.91 LIG 0.18  C 
BRANCH 32 33
ATOM     33  CB  GLN D   5      10.177 -11.756 -34.780  1.00 26.73 LIG 0.04  C 
BRANCH 33 34
ATOM     34  CG  GLN D   5      10.032 -11.501 -33.269  1.00 26.03 LIG 0.10  C 
BRANCH 34 35
ATOM     35  CD  GLN D   5       8.763 -12.085 -32.648  1.00 27.76 LIG 0.21  C 
ATOM     36  NE2 GLN D   5       8.918 -13.259 -31.991  1.00 30.48 LIG-0.37  N 
ATOM     37 22HE GLN D   5       8.236 -13.648 -31.640  1.00 30.48 LIG 0.16  HD
ATOM     38 21HE GLN D   5       9.698 -13.616 -31.925  1.00 30.48 LIG 0.16  HD
ATOM     39 OE1  GLN D   5       7.640 -11.529 -32.769  1.00 30.83 LIG-0.27  OA
ENDBRANCH 34 35
ENDBRANCH 33 34
ENDBRANCH 32 33
BRANCH 32 40
ATOM     40  C   GLN D   5      11.821 -13.364 -33.927  1.00 27.22 LIG 0.24  C 
ATOM     41  N   GLU D   6      12.614 -12.637 -33.159  1.00 28.14 LIG-0.34  N 
ATOM     42 H    GLU D   6      12.741 -11.793 -33.263  1.00 28.14 LIG 0.16  HD
ATOM     43 O    GLN D   5      11.514 -14.530 -33.673  1.00 29.15 LIG-0.27  OA
BRANCH 41 44
ATOM     44  CA  GLU D   6      13.348 -13.219 -32.056  1.00 27.71 LIG 0.19  C 
BRANCH 44 45
ATOM     45  C   GLU D   6      12.444 -13.609 -30.872  1.00 28.68 LIG 0.20  C 
ATOM     46 O    GLU D   6      11.313 -13.060 -30.735  1.00 28.16 LIG-0.65  OA
ATOM     47 OXT  GLU D   6      12.891 -14.456 -30.071  1.00 19.61 LIG-0.65  OA
ENDBRANCH 44 45
BRANCH 44 48
ATOM     48  CB  GLU D   6      14.414 -12.210 -31.623  1.00 27.67 LIG 0.05  C 
BRANCH 48 49
ATOM     49  CG  GLU D   6      15.110 -11.526 -32.838  1.00 29.50 LIG 0.12  C 
BRANCH 49 50
ATOM     50  CD  GLU D   6      14.816 -10.022 -32.909  1.00 27.58 LIG 0.17  C 
ATOM     51 OE2  GLU D   6      15.041  -9.344 -33.955  1.00 34.29 LIG-0.65  OA
ATOM     52 OE1  GLU D   6      14.332  -9.504 -31.881  1.00 35.41 LIG-0.65  OA
ENDBRANCH 49 50
ENDBRANCH 48 49
ENDBRANCH 44 48
ENDBRANCH 41 44
ENDBRANCH 32 40
ENDBRANCH 30 32
ENDBRANCH 1 28
BRANCH 1 53
ATOM     53  CB  PHE D   4      10.922 -15.587 -38.675  1.00 18.89 LIG 0.07  C 
BRANCH 53 54
ATOM     54  CG  PHE D   4      11.163 -16.043 -40.096  1.00 17.25 LIG-0.06  A 
ATOM     55  CD2 PHE D   4      10.161 -16.688 -40.817  1.00 16.93 LIG 0.01  A 
ATOM     56  CE2 PHE D   4      10.384 -17.092 -42.103  1.00 15.87 LIG 0.00  A 
ATOM     57  CZ  PHE D   4      11.601 -16.865 -42.713  1.00 16.57 LIG 0.00  A 
ATOM     58  CE1 PHE D   4      12.614 -16.223 -42.012  1.00 17.16 LIG 0.00  A 
ATOM     59  CD1 PHE D   4      12.384 -15.820 -40.710  1.00 17.60 LIG 0.01  A 
ENDBRANCH 53 54
ENDBRANCH 1 53
TORSDOF 21
ENDMDL
MODEL 19
USER: ADFR SOLUTION from run 16
USER: SCORE 20.514107 LL:  -4.767 LR: -17.258 RR:   0.000 FEB: -10.994
USER: RMSD 5.486327
USER: SEED 609626
USER: STATUS searching
USER: GENES 23
USER: genes 0 Translation |==|  0.46662 0.45998 0.35086
USER: genes 1 Rotation |==|  0.84899 0.39438 0.84190 0.51242
USER: genes 2 Torsion [C]-CA--N-[C] |==|  0.83052
USER: genes 3 Torsion [N]-C--CA-[CB] |==|  0.74426
USER: genes 4 Torsion [N]-C--CA-[N] |==|  0.30006
USER: genes 5 Torsion [C]-CA--N-[C] |==|  0.63048
USER: genes 6 Torsion [N]-C--CA-[N] |==|  0.41063
USER: genes 7 Torsion [C]-CA--N-[H3] |==|  0.92252
USER: genes 8 Torsion [C]-CA--CB-[CG2] |==|  0.09172
USER: genes 9 Torsion [CA]-CB--OG1-[HG1] |==|  0.15323
USER: genes 10 Torsion [N]-CA--C-[N] |==|  0.41667
USER: genes 11 Torsion [C]-N--CA-[CB] |==|  0.50957
USER: genes 12 Torsion [N]-CA--CB-[CG] |==|  0.83994
USER: genes 13 Torsion [CA]-CB--CG-[CD] |==|  0.81878
USER: genes 14 Torsion [CB]-CG--CD-[NE2] |==|  0.50375
USER: genes 15 Torsion [N]-CA--C-[N] |==|  0.80123
USER: genes 16 Torsion [C]-N--CA-[CB] |==|  0.23652
USER: genes 17 Torsion [N]-CA--C-[O] |==|  0.35480
USER: genes 18 Torsion [N]-CA--CB-[CG] |==|  0.69719
USER: genes 19 Torsion [CA]-CB--CG-[CD] |==|  0.37281
USER: genes 20 Torsion [CB]-CG--CD-[OE2] |==|  0.50408
USER: genes 21 Torsion [N]-CA--CB-[CG] |==|  0.44543
USER: genes 22 Torsion [CA]-CB--CG-[CD2] |==|  0.71914
ROOT
ATOM      1  CA  PHE D   4       9.364 -12.847 -38.901  1.00 20.42 LIG 0.18  C 
ENDROOT
BRANCH 1 2
ATOM      2  N   PHE D   4       8.791 -12.015 -39.953  1.00 19.57 LIG-0.35  N 
ATOM      3 H    PHE D   4       8.924 -12.300 -40.753  1.00 19.57 LIG 0.16  HD
ATOM      4  C   PRO D   3       8.127 -10.917 -39.650  1.00 20.09 LIG 0.24  C 
ATOM      5 O    PRO D   3       7.725 -10.675 -38.499  1.00 21.30 LIG-0.27  OA
BRANCH 4 6
ATOM      6  CA  PRO D   3       7.861  -9.957 -40.807  1.00 18.08 LIG 0.18  C 
ATOM      7  CB  PRO D   3       8.947  -8.901 -40.946  1.00 20.04 LIG 0.04  C 
ATOM      8  CG  PRO D   3       8.313  -7.633 -40.467  1.00 21.57 LIG 0.02  C 
ATOM      9  CD  PRO D   3       6.860  -7.715 -40.649  1.00 18.25 LIG 0.13  C 
ATOM     10  N   PRO D   3       6.627  -9.175 -40.676  1.00 17.53 LIG-0.34  N 
ATOM     11  C   THR D   2       5.451  -9.784 -40.808  1.00 17.82 LIG 0.24  C 
ATOM     12 O    THR D   2       5.380 -10.995 -41.030  1.00 17.76 LIG-0.27  OA
BRANCH 11 13
ATOM     13  CA  THR D   2       4.207  -8.911 -40.720  1.00 18.92 LIG 0.20  C 
BRANCH 13 14
ATOM     14  N   THR D   2       3.590  -8.765 -42.029  1.00 17.98 LIG-0.34  N 
ATOM     15  C   ALA D   1       3.201  -7.586 -42.502  1.00 18.22 LIG 0.25  C 
ATOM     16 O    ALA D   1       3.317  -6.524 -41.862  1.00 17.84 LIG-0.27  OA
ATOM     17 H    THR D   2       3.503  -9.503 -42.460  1.00 17.98 LIG 0.16  HD
BRANCH 15 18
ATOM     18  CA  ALA D   1       2.580  -7.598 -43.892  1.00 17.93 LIG 0.27  C 
ATOM     19  CB  ALA D   1       3.658  -7.380 -44.985  1.00 19.43 LIG 0.05  C 
BRANCH 18 20
ATOM     20  N   ALA D   1       1.540  -6.512 -43.979  1.00 19.30 LIG-0.07  N 
ATOM     21 H3   ALA D   1       1.203  -6.358 -43.170  1.00 19.30 LIG 0.28  HD
ATOM     22 H2   ALA D   1       0.887  -6.769 -44.527  1.00 19.30 LIG 0.28  HD
ATOM     23 H1   ALA D   1       1.914  -5.768 -44.291  1.00 19.30 LIG 0.28  HD
ENDBRANCH 18 20
ENDBRANCH 15 18
ENDBRANCH 13 14
BRANCH 13 24
ATOM     24  CB  THR D   2       3.212  -9.532 -39.731  1.00 21.41 LIG 0.15  C 
ATOM     25  CG2 THR D   2       3.956 -10.242 -38.611  1.00 25.14 LIG 0.04  C 
BRANCH 24 26
ATOM     26 OG1  THR D   2       2.426  -8.492 -39.141  1.00 26.95 LIG-0.39  OA
ATOM     27 HG1  THR D   2       2.059  -8.040 -39.746  1.00 26.95 LIG 0.21  HD
ENDBRANCH 24 26
ENDBRANCH 13 24
ENDBRANCH 11 13
ENDBRANCH 4 6
ENDBRANCH 1 2
BRANCH 1 28
ATOM     28  C   PHE D   4      10.388 -12.043 -38.104  1.00 22.48 LIG 0.24  C 
ATOM     29 O    PHE D   4      11.019 -11.120 -38.633  1.00 22.33 LIG-0.27  OA
ATOM     30  N   GLN D   5      10.538 -12.376 -36.825  1.00 24.26 LIG-0.35  N 
ATOM     31 H    GLN D   5      10.255 -13.112 -36.480  1.00 24.26 LIG 0.16  HD
BRANCH 30 32
ATOM     32  CA  GLN D   5      11.219 -11.479 -35.882  1.00 25.91 LIG 0.18  C 
BRANCH 32 33
ATOM     33  CB  GLN D   5      11.339 -12.121 -34.495  1.00 26.73 LIG 0.04  C 
BRANCH 33 34
ATOM     34  CG  GLN D   5      10.011 -12.542 -33.840  1.00 26.03 LIG 0.10  C 
BRANCH 34 35
ATOM     35  CD  GLN D   5       9.076 -11.379 -33.502  1.00 27.76 LIG 0.21  C 
ATOM     36  NE2 GLN D   5       7.912 -11.719 -32.899  1.00 30.48 LIG-0.37  N 
ATOM     37 22HE GLN D   5       7.336 -11.112 -32.704  1.00 30.48 LIG 0.16  HD
ATOM     38 21HE GLN D   5       7.750 -12.542 -32.711  1.00 30.48 LIG 0.16  HD
ATOM     39 OE1  GLN D   5       9.355 -10.188 -33.795  1.00 30.83 LIG-0.27  OA
ENDBRANCH 34 35
ENDBRANCH 33 34
ENDBRANCH 32 33
BRANCH 32 40
ATOM     40  C   GLN D   5      12.614 -11.073 -36.308  1.00 27.22 LIG 0.24  C 
ATOM     41  N   GLU D   6      13.531 -12.023 -36.239  1.00 28.14 LIG-0.34  N 
ATOM     42 H    GLU D   6      13.351 -12.854 -36.107  1.00 28.14 LIG 0.16  HD
ATOM     43 O    GLN D   5      12.860  -9.919 -36.662  1.00 29.15 LIG-0.27  OA
BRANCH 41 44
ATOM     44  CA  GLU D   6      14.941 -11.732 -36.383  1.00 27.71 LIG 0.19  C 
BRANCH 44 45
ATOM     45  C   GLU D   6      15.744 -12.918 -36.947  1.00 28.68 LIG 0.20  C 
ATOM     46 O    GLU D   6      16.493 -12.751 -37.953  1.00 28.16 LIG-0.65  OA
ATOM     47 OXT  GLU D   6      15.598 -14.023 -36.384  1.00 19.61 LIG-0.65  OA
ENDBRANCH 44 45
BRANCH 44 48
ATOM     48  CB  GLU D   6      15.472 -11.313 -35.011  1.00 27.67 LIG 0.05  C 
BRANCH 48 49
ATOM     49  CG  GLU D   6      15.808  -9.793 -34.944  1.00 29.50 LIG 0.12  C 
BRANCH 49 50
ATOM     50  CD  GLU D   6      15.268  -9.130 -33.670  1.00 27.58 LIG 0.17  C 
ATOM     51 OE2  GLU D   6      15.415  -7.893 -33.444  1.00 34.29 LIG-0.65  OA
ATOM     52 OE1  GLU D   6      14.664  -9.877 -32.872  1.00 35.41 LIG-0.65  OA
ENDBRANCH 49 50
ENDBRANCH 48 49
ENDBRANCH 44 48
ENDBRANCH 41 44
ENDBRANCH 32 40
ENDBRANCH 30 32
ENDBRANCH 1 28
BRANCH 1 53
ATOM     53  CB  PHE D   4       9.982 -14.126 -39.493  1.00 18.89 LIG 0.07  C 
BRANCH 53 54
ATOM     54  CG  PHE D   4      10.985 -14.806 -38.589  1.00 17.25 LIG-0.06  A 
ATOM     55  CD2 PHE D   4      12.353 -14.651 -38.800  1.00 16.93 LIG 0.01  A 
ATOM     56  CE2 PHE D   4      13.255 -15.264 -37.976  1.00 15.87 LIG 0.00  A 
ATOM     57  CZ  PHE D   4      12.828 -16.040 -36.918  1.00 16.57 LIG 0.00  A 
ATOM     58  CE1 PHE D   4      11.468 -16.207 -36.689  1.00 17.16 LIG 0.00  A 
ATOM     59  CD1 PHE D   4      10.561 -15.588 -37.529  1.00 17.60 LIG 0.01  A 
ENDBRANCH 53 54
ENDBRANCH 1 53
TORSDOF 21
ENDMDL
MODEL 20
USER: ADFR SOLUTION from run 80
USER: SCORE 20.749429 LL:  -3.942 LR: -17.248 RR:   0.000 FEB: -10.984
USER: RMSD 5.999173
USER: SEED 79
USER: STATUS no improvement in best in 7 clusters for 5 generations
USER: GENES 23
USER: genes 0 Translation |==|  0.50397 0.45721 0.32126
USER: genes 1 Rotation |==|  0.27204 0.65779 0.10956 0.64384
USER: genes 2 Torsion [C]-CA--N-[C] |==|  0.68500
USER: genes 3 Torsion [N]-C--CA-[CB] |==|  0.97166
USER: genes 4 Torsion [N]-C--CA-[N] |==|  0.39841
USER: genes 5 Torsion [C]-CA--N-[C] |==|  0.67282
USER: genes 6 Torsion [N]-C--CA-[N] |==|  0.42669
USER: genes 7 Torsion [C]-CA--N-[H3] |==|  0.86735
USER: genes 8 Torsion [C]-CA--CB-[CG2] |==|  0.48859
USER: genes 9 Torsion [CA]-CB--OG1-[HG1] |==|  0.90054
USER: genes 10 Torsion [N]-CA--C-[N] |==|  0.03576
USER: genes 11 Torsion [C]-N--CA-[CB] |==|  0.76111
USER: genes 12 Torsion [N]-CA--CB-[CG] |==|  0.50458
USER: genes 13 Torsion [CA]-CB--CG-[CD] |==|  0.57017
USER: genes 14 Torsion [CB]-CG--CD-[NE2] |==|  0.82389
USER: genes 15 Torsion [N]-CA--C-[N] |==|  0.22682
USER: genes 16 Torsion [C]-N--CA-[CB] |==|  0.84029
USER: genes 17 Torsion [N]-CA--C-[O] |==|  0.10622
USER: genes 18 Torsion [N]-CA--CB-[CG] |==|  0.67010
USER: genes 19 Torsion [CA]-CB--CG-[CD] |==|  0.29280
USER: genes 20 Torsion [CB]-CG--CD-[OE2] |==|  0.18237
USER: genes 21 Torsion [N]-CA--CB-[CG] |==|  0.70870
USER: genes 22 Torsion [CA]-CB--CG-[CD2] |==|  0.88428
ROOT
ATOM      1  CA  PHE D   4      10.260 -12.897 -39.523  1.00 20.42 LIG 0.18  C 
ENDROOT
BRANCH 1 2
ATOM      2  N   PHE D   4      10.058 -11.637 -40.227  1.00 19.57 LIG-0.35  N 
ATOM      3 H    PHE D   4      10.733 -11.105 -40.221  1.00 19.57 LIG 0.16  HD
ATOM      4  C   PRO D   3       8.908 -11.377 -40.817  1.00 20.09 LIG 0.24  C 
ATOM      5 O    PRO D   3       8.057 -12.256 -41.039  1.00 21.30 LIG-0.27  OA
BRANCH 4 6
ATOM      6  CA  PRO D   3       8.681  -9.926 -41.232  1.00 18.08 LIG 0.18  C 
ATOM      7  CB  PRO D   3       9.735  -8.988 -40.663  1.00 20.04 LIG 0.04  C 
ATOM      8  CG  PRO D   3       9.026  -8.220 -39.592  1.00 21.57 LIG 0.02  C 
ATOM      9  CD  PRO D   3       7.592  -8.172 -39.894  1.00 18.25 LIG 0.13  C 
ATOM     10  N   PRO D   3       7.414  -9.351 -40.769  1.00 17.53 LIG-0.34  N 
ATOM     11  C   THR D   2       6.271  -9.767 -41.310  1.00 17.82 LIG 0.24  C 
ATOM     12 O    THR D   2       6.259 -10.631 -42.190  1.00 17.76 LIG-0.27  OA
BRANCH 11 13
ATOM     13  CA  THR D   2       4.994  -9.092 -40.830  1.00 18.92 LIG 0.20  C 
BRANCH 13 14
ATOM     14  N   THR D   2       4.052  -8.937 -41.927  1.00 17.98 LIG-0.34  N 
ATOM     15  C   ALA D   1       3.642  -7.745 -42.347  1.00 18.22 LIG 0.25  C 
ATOM     16 O    ALA D   1       4.015  -6.677 -41.828  1.00 17.84 LIG-0.27  OA
ATOM     17 H    THR D   2       3.791  -9.680 -42.273  1.00 17.98 LIG 0.16  HD
BRANCH 15 18
ATOM     18  CA  ALA D   1       2.662  -7.750 -43.512  1.00 17.93 LIG 0.27  C 
ATOM     19  CB  ALA D   1       3.410  -7.819 -44.868  1.00 19.43 LIG 0.05  C 
BRANCH 18 20
ATOM     20  N   ALA D   1       1.821  -6.502 -43.456  1.00 19.30 LIG-0.07  N 
ATOM     21 H3   ALA D   1       1.513  -6.388 -42.629  1.00 19.30 LIG 0.28  HD
ATOM     22 H2   ALA D   1       1.136  -6.579 -44.019  1.00 19.30 LIG 0.28  HD
ATOM     23 H1   ALA D   1       2.317  -5.800 -43.688  1.00 19.30 LIG 0.28  HD
ENDBRANCH 18 20
ENDBRANCH 15 18
ENDBRANCH 13 14
BRANCH 13 24
ATOM     24  CB  THR D   2       4.365  -9.926 -39.705  1.00 21.41 LIG 0.15  C 
ATOM     25  CG2 THR D   2       3.143  -9.216 -39.144  1.00 25.14 LIG 0.04  C 
BRANCH 24 26
ATOM     26 OG1  THR D   2       3.933 -11.182 -40.238  1.00 26.95 LIG-0.39  OA
ATOM     27 HG1  THR D   2       3.646 -11.071 -41.019  1.00 26.95 LIG 0.21  HD
ENDBRANCH 24 26
ENDBRANCH 13 24
ENDBRANCH 11 13
ENDBRANCH 4 6
ENDBRANCH 1 2
BRANCH 1 28
ATOM     28  C   PHE D   4      10.418 -12.635 -38.027  1.00 22.48 LIG 0.24  C 
ATOM     29 O    PHE D   4      10.852 -13.513 -37.271  1.00 22.33 LIG-0.27  OA
ATOM     30  N   GLN D   5      10.088 -11.418 -37.601  1.00 24.26 LIG-0.35  N 
ATOM     31 H    GLN D   5       9.623 -10.855 -38.057  1.00 24.26 LIG 0.16  HD
BRANCH 30 32
ATOM     32  CA  GLN D   5      10.509 -10.937 -36.279  1.00 25.91 LIG 0.18  C 
BRANCH 32 33
ATOM     33  CB  GLN D   5       9.519 -11.366 -35.191  1.00 26.73 LIG 0.04  C 
BRANCH 33 34
ATOM     34  CG  GLN D   5       9.844 -10.880 -33.767  1.00 26.03 LIG 0.10  C 
BRANCH 34 35
ATOM     35  CD  GLN D   5       9.266 -11.754 -32.653  1.00 27.76 LIG 0.21  C 
ATOM     36  NE2 GLN D   5       7.915 -11.817 -32.599  1.00 30.48 LIG-0.37  N 
ATOM     37 22HE GLN D   5       7.530 -12.275 -31.981  1.00 30.48 LIG 0.16  HD
ATOM     38 21HE GLN D   5       7.441 -11.399 -33.182  1.00 30.48 LIG 0.16  HD
ATOM     39 OE1  GLN D   5       9.998 -12.349 -31.820  1.00 30.83 LIG-0.27  OA
ENDBRANCH 34 35
ENDBRANCH 33 34
ENDBRANCH 32 33
BRANCH 32 40
ATOM     40  C   GLN D   5      11.880 -11.418 -35.850  1.00 27.22 LIG 0.24  C 
ATOM     41  N   GLU D   6      12.902 -10.737 -36.340  1.00 28.14 LIG-0.34  N 
ATOM     42 H    GLU D   6      12.825  -9.987 -36.752  1.00 28.14 LIG 0.16  HD
ATOM     43 O    GLN D   5      12.008 -12.401 -35.119  1.00 29.15 LIG-0.27  OA
BRANCH 41 44
ATOM     44  CA  GLU D   6      14.264 -11.214 -36.216  1.00 27.71 LIG 0.19  C 
BRANCH 44 45
ATOM     45  C   GLU D   6      14.517 -12.516 -36.997  1.00 28.68 LIG 0.20  C 
ATOM     46 O    GLU D   6      13.977 -12.688 -38.128  1.00 28.16 LIG-0.65  OA
ATOM     47 OXT  GLU D   6      15.244 -13.373 -36.453  1.00 19.61 LIG-0.65  OA
ENDBRANCH 44 45
BRANCH 44 48
ATOM     48  CB  GLU D   6      14.555 -11.401 -34.726  1.00 27.67 LIG 0.05  C 
BRANCH 48 49
ATOM     49  CG  GLU D   6      15.722 -10.494 -34.231  1.00 29.50 LIG 0.12  C 
BRANCH 49 50
ATOM     50  CD  GLU D   6      15.225  -9.306 -33.398  1.00 27.58 LIG 0.17  C 
ATOM     51 OE2  GLU D   6      14.665  -9.463 -32.273  1.00 34.29 LIG-0.65  OA
ATOM     52 OE1  GLU D   6      15.415  -8.171 -33.885  1.00 35.41 LIG-0.65  OA
ENDBRANCH 49 50
ENDBRANCH 48 49
ENDBRANCH 44 48
ENDBRANCH 41 44
ENDBRANCH 32 40
ENDBRANCH 30 32
ENDBRANCH 1 28
BRANCH 1 53
ATOM     53  CB  PHE D   4      11.470 -13.655 -40.096  1.00 18.89 LIG 0.07  C 
BRANCH 53 54
ATOM     54  CG  PHE D   4      11.107 -14.836 -40.966  1.00 17.25 LIG-0.06  A 
ATOM     55  CD2 PHE D   4      10.074 -15.698 -40.601  1.00 16.93 LIG 0.01  A 
ATOM     56  CE2 PHE D   4       9.747 -16.761 -41.394  1.00 15.87 LIG 0.00  A 
ATOM     57  CZ  PHE D   4      10.426 -16.997 -42.572  1.00 16.57 LIG 0.00  A 
ATOM     58  CE1 PHE D   4      11.457 -16.150 -42.955  1.00 17.16 LIG 0.00  A 
ATOM     59  CD1 PHE D   4      11.788 -15.079 -42.147  1.00 17.60 LIG 0.01  A 
ENDBRANCH 53 54
ENDBRANCH 1 53
TORSDOF 21
ENDMDL
MODEL 21
USER: ADFR SOLUTION from run 47
USER: SCORE 20.492114 LL:  -4.015 LR: -17.234 RR:   0.000 FEB: -10.969
USER: RMSD 5.611016
USER: SEED 46
USER: STATUS no improvement in best in 15 clusters for 5 generations
USER: GENES 23
USER: genes 0 Translation |==|  0.46929 0.44634 0.35700
USER: genes 1 Rotation |==|  0.86318 0.36613 0.79580 0.61263
USER: genes 2 Torsion [C]-CA--N-[C] |==|  0.75789
USER: genes 3 Torsion [N]-C--CA-[CB] |==|  0.75346
USER: genes 4 Torsion [N]-C--CA-[N] |==|  0.31344
USER: genes 5 Torsion [C]-CA--N-[C] |==|  0.62846
USER: genes 6 Torsion [N]-C--CA-[N] |==|  0.41418
USER: genes 7 Torsion [C]-CA--N-[H3] |==|  0.58500
USER: genes 8 Torsion [C]-CA--CB-[CG2] |==|  0.78781
USER: genes 9 Torsion [CA]-CB--OG1-[HG1] |==|  0.00634
USER: genes 10 Torsion [N]-CA--C-[N] |==|  0.54361
USER: genes 11 Torsion [C]-N--CA-[CB] |==|  0.84620
USER: genes 12 Torsion [N]-CA--CB-[CG] |==|  0.44322
USER: genes 13 Torsion [CA]-CB--CG-[CD] |==|  0.70002
USER: genes 14 Torsion [CB]-CG--CD-[NE2] |==|  0.36751
USER: genes 15 Torsion [N]-CA--C-[N] |==|  0.37031
USER: genes 16 Torsion [C]-N--CA-[CB] |==|  0.32231
USER: genes 17 Torsion [N]-CA--C-[O] |==|  0.71330
USER: genes 18 Torsion [N]-CA--CB-[CG] |==|  0.54127
USER: genes 19 Torsion [CA]-CB--CG-[CD] |==|  0.60013
USER: genes 20 Torsion [CB]-CG--CD-[OE2] |==|  0.98719
USER: genes 21 Torsion [N]-CA--CB-[CG] |==|  0.15498
USER: genes 22 Torsion [CA]-CB--CG-[CD2] |==|  0.52414
ROOT
ATOM      1  CA  PHE D   4       9.428 -13.093 -38.772  1.00 20.42 LIG 0.18  C 
ENDROOT
BRANCH 1 2
ATOM      2  N   PHE D   4       8.885 -12.238 -39.821  1.00 19.57 LIG-0.35  N 
ATOM      3 H    PHE D   4       9.022 -12.516 -40.623  1.00 19.57 LIG 0.16  HD
ATOM      4  C   PRO D   3       8.240 -11.130 -39.515  1.00 20.09 LIG 0.24  C 
ATOM      5 O    PRO D   3       7.828 -10.892 -38.366  1.00 21.30 LIG-0.27  OA
BRANCH 4 6
ATOM      6  CA  PRO D   3       8.008 -10.152 -40.664  1.00 18.08 LIG 0.18  C 
ATOM      7  CB  PRO D   3       9.155  -9.167 -40.828  1.00 20.04 LIG 0.04  C 
ATOM      8  CG  PRO D   3       8.615  -7.863 -40.333  1.00 21.57 LIG 0.02  C 
ATOM      9  CD  PRO D   3       7.156  -7.851 -40.480  1.00 18.25 LIG 0.13  C 
ATOM     10  N   PRO D   3       6.829  -9.294 -40.503  1.00 17.53 LIG-0.34  N 
ATOM     11  C   THR D   2       5.614  -9.826 -40.606  1.00 17.82 LIG 0.24  C 
ATOM     12 O    THR D   2       5.461 -11.029 -40.828  1.00 17.76 LIG-0.27  OA
BRANCH 11 13
ATOM     13  CA  THR D   2       4.431  -8.875 -40.488  1.00 18.92 LIG 0.20  C 
BRANCH 13 14
ATOM     14  N   THR D   2       3.725  -8.775 -41.755  1.00 17.98 LIG-0.34  N 
ATOM     15  C   ALA D   1       3.354  -7.608 -42.271  1.00 18.22 LIG 0.25  C 
ATOM     16 O    ALA D   1       3.566  -6.518 -41.707  1.00 17.84 LIG-0.27  OA
ATOM     17 H    THR D   2       3.573  -9.532 -42.133  1.00 17.98 LIG 0.16  HD
BRANCH 15 18
ATOM     18  CA  ALA D   1       2.632  -7.670 -43.609  1.00 17.93 LIG 0.27  C 
ATOM     19  CB  ALA D   1       3.636  -7.600 -44.788  1.00 19.43 LIG 0.05  C 
BRANCH 18 20
ATOM     20  N   ALA D   1       1.660  -6.523 -43.700  1.00 19.30 LIG-0.07  N 
ATOM     21 H3   ALA D   1       0.963  -6.762 -44.199  1.00 19.30 LIG 0.28  HD
ATOM     22 H2   ALA D   1       2.062  -5.821 -44.071  1.00 19.30 LIG 0.28  HD
ATOM     23 H1   ALA D   1       1.379  -6.307 -42.884  1.00 19.30 LIG 0.28  HD
ENDBRANCH 18 20
ENDBRANCH 15 18
ENDBRANCH 13 14
BRANCH 13 24
ATOM     24  CB  THR D   2       3.481  -9.372 -39.389  1.00 21.41 LIG 0.15  C 
ATOM     25  CG2 THR D   2       2.664 -10.550 -39.894  1.00 25.14 LIG 0.04  C 
BRANCH 24 26
ATOM     26 OG1  THR D   2       4.252  -9.823 -38.271  1.00 26.95 LIG-0.39  OA
ATOM     27 HG1  THR D   2       5.068  -9.697 -38.425  1.00 26.95 LIG 0.21  HD
ENDBRANCH 24 26
ENDBRANCH 13 24
ENDBRANCH 11 13
ENDBRANCH 4 6
ENDBRANCH 1 2
BRANCH 1 28
ATOM     28  C   PHE D   4      10.829 -12.621 -38.392  1.00 22.48 LIG 0.24  C 
ATOM     29 O    PHE D   4      11.225 -11.492 -38.707  1.00 22.33 LIG-0.27  OA
ATOM     30  N   GLN D   5      11.573 -13.475 -37.694  1.00 24.26 LIG-0.35  N 
ATOM     31 H    GLN D   5      11.402 -14.315 -37.617  1.00 24.26 LIG 0.16  HD
BRANCH 30 32
ATOM     32  CA  GLN D   5      12.779 -13.028 -36.985  1.00 25.91 LIG 0.18  C 
BRANCH 32 33
ATOM     33  CB  GLN D   5      13.751 -12.320 -37.935  1.00 26.73 LIG 0.04  C 
BRANCH 33 34
ATOM     34  CG  GLN D   5      14.783 -11.397 -37.263  1.00 26.03 LIG 0.10  C 
BRANCH 34 35
ATOM     35  CD  GLN D   5      14.530  -9.904 -37.478  1.00 27.76 LIG 0.21  C 
ATOM     36  NE2 GLN D   5      14.594  -9.133 -36.367  1.00 30.48 LIG-0.37  N 
ATOM     37 22HE GLN D   5      14.438  -8.289 -36.419  1.00 30.48 LIG 0.16  HD
ATOM     38 21HE GLN D   5      14.790  -9.487 -35.608  1.00 30.48 LIG 0.16  HD
ATOM     39 OE1  GLN D   5      14.247  -9.427 -38.608  1.00 30.83 LIG-0.27  OA
ENDBRANCH 34 35
ENDBRANCH 33 34
ENDBRANCH 32 33
BRANCH 32 40
ATOM     40  C   GLN D   5      12.507 -12.078 -35.836  1.00 27.22 LIG 0.24  C 
ATOM     41  N   GLU D   6      13.139 -12.353 -34.708  1.00 28.14 LIG-0.34  N 
ATOM     42 H    GLU D   6      13.773 -12.930 -34.642  1.00 28.14 LIG 0.16  HD
ATOM     43 O    GLN D   5      11.720 -11.138 -35.961  1.00 29.15 LIG-0.27  OA
BRANCH 41 44
ATOM     44  CA  GLU D   6      12.805 -11.687 -33.466  1.00 27.71 LIG 0.19  C 
BRANCH 44 45
ATOM     45  C   GLU D   6      13.996 -10.930 -32.851  1.00 28.68 LIG 0.20  C 
ATOM     46 O    GLU D   6      14.615 -11.424 -31.864  1.00 28.16 LIG-0.65  OA
ATOM     47 OXT  GLU D   6      14.290  -9.826 -33.355  1.00 19.61 LIG-0.65  OA
ENDBRANCH 44 45
BRANCH 44 48
ATOM     48  CB  GLU D   6      12.270 -12.746 -32.501  1.00 27.67 LIG 0.05  C 
BRANCH 48 49
ATOM     49  CG  GLU D   6      11.537 -12.118 -31.278  1.00 29.50 LIG 0.12  C 
BRANCH 49 50
ATOM     50  CD  GLU D   6      11.771 -12.912 -29.985  1.00 27.58 LIG 0.17  C 
ATOM     51 OE2  GLU D   6      12.415 -14.002 -29.975  1.00 34.29 LIG-0.65  OA
ATOM     52 OE1  GLU D   6      11.300 -12.416 -28.940  1.00 35.41 LIG-0.65  OA
ENDBRANCH 49 50
ENDBRANCH 48 49
ENDBRANCH 44 48
ENDBRANCH 41 44
ENDBRANCH 32 40
ENDBRANCH 30 32
ENDBRANCH 1 28
BRANCH 1 53
ATOM     53  CB  PHE D   4       9.425 -14.567 -39.214  1.00 18.89 LIG 0.07  C 
BRANCH 53 54
ATOM     54  CG  PHE D   4      10.161 -14.827 -40.508  1.00 17.25 LIG-0.06  A 
ATOM     55  CD2 PHE D   4      10.094 -16.073 -41.127  1.00 16.93 LIG 0.01  A 
ATOM     56  CE2 PHE D   4      10.757 -16.301 -42.300  1.00 15.87 LIG 0.00  A 
ATOM     57  CZ  PHE D   4      11.498 -15.301 -42.896  1.00 16.57 LIG 0.00  A 
ATOM     58  CE1 PHE D   4      11.578 -14.051 -42.296  1.00 17.16 LIG 0.00  A 
ATOM     59  CD1 PHE D   4      10.909 -13.828 -41.107  1.00 17.60 LIG 0.01  A 
ENDBRANCH 53 54
ENDBRANCH 1 53
TORSDOF 21
ENDMDL
