MODEL 1
USER: ADFR SOLUTION from run 68
USER: SCORE 13.388417 LL:  -2.487 LR: -12.905 RR:   0.000 FEB:  -8.132
USER: RMSD 5.761054
USER: SEED 67
USER: STATUS no improvement in best in 11 clusters for 5 generations
USER: GENES 18
USER: genes 0 Translation |==|  0.50325 0.46020 0.57894
USER: genes 1 Rotation |==|  0.21140 0.40794 0.88066 0.61548
USER: genes 2 Torsion [N]-C--CA-[N] |==|  0.30317
USER: genes 3 Torsion [C]-CA--CB-[OG] |==|  0.69855
USER: genes 4 Torsion [CA]-CB--OG-[HG] |==|  0.16017
USER: genes 5 Torsion [C]-CA--N-[C] |==|  0.58457
USER: genes 6 Torsion [N]-C--CA-[N] |==|  0.41434
USER: genes 7 Torsion [C]-CA--N-[C] |==|  0.67211
USER: genes 8 Torsion [N]-C--CA-[N] |==|  0.15641
USER: genes 9 Torsion [C]-CA--N-[H1] |==|  0.99435
USER: genes 10 Torsion [C]-N--CA-[CB] |==|  0.15043
USER: genes 11 Torsion [N]-CA--C-[N] |==|  0.65000
USER: genes 12 Torsion [C]-N--CA-[CB] |==|  0.55001
USER: genes 13 Torsion [N]-CA--CB-[OG] |==|  0.88127
USER: genes 14 Torsion [CA]-CB--OG-[HG] |==|  0.16354
USER: genes 15 Torsion [N]-CA--C-[N] |==|  0.28245
USER: genes 16 Torsion [C]-N--CA-[C] |==|  0.65435
USER: genes 17 Torsion [N]-CA--C-[O] |==|  0.03334
ROOT
ATOM      1  C   SER B   3      -2.740  18.342   6.069  1.00 29.46 LIG 0.24  C 
ATOM      2 O    SER B   3      -2.055  17.398   6.470  1.00 29.29 LIG-0.27  OA
ATOM      3  N   ALA B   4      -3.708  18.910   6.786  1.00 28.70 LIG-0.35  N 
ATOM      4 H    ALA B   4      -4.201  19.548   6.491  1.00 28.70 LIG 0.16  HD
ENDROOT
BRANCH 1 5
ATOM      5  CA  SER B   3      -2.504  18.938   4.684  1.00 29.76 LIG 0.20  C 
BRANCH 5 6
ATOM      6  CB  SER B   3      -2.493  17.857   3.599  1.00 29.85 LIG 0.20  C 
BRANCH 6 7
ATOM      7 OG   SER B   3      -1.164  17.663   3.103  1.00 32.14 LIG-0.40  OA
ATOM      8 HG   SER B   3      -0.656  17.456   3.739  1.00 32.14 LIG 0.21  HD
ENDBRANCH 6 7
ENDBRANCH 5 6
BRANCH 5 9
ATOM      9  N   SER B   3      -1.249  19.659   4.662  1.00 30.15 LIG-0.34  N 
ATOM     10  C   ALA B   2      -1.058  20.713   3.877  1.00 30.60 LIG 0.24  C 
ATOM     11 O    ALA B   2      -1.958  21.232   3.226  1.00 30.40 LIG-0.27  OA
ATOM     12 H    SER B   3      -0.651  19.345   5.196  1.00 30.15 LIG 0.16  HD
BRANCH 10 13
ATOM     13  CA  ALA B   2       0.369  21.248   3.819  1.00 31.29 LIG 0.17  C 
ATOM     14  CB  ALA B   2       0.562  22.312   4.889  1.00 31.24 LIG 0.04  C 
BRANCH 13 15
ATOM     15  N   ALA B   2       0.616  21.830   2.506  1.00 32.02 LIG-0.35  N 
ATOM     16  C   ALA B   1       1.542  21.366   1.671  1.00 33.14 LIG 0.25  C 
ATOM     17 O    ALA B   1       2.376  20.507   1.984  1.00 33.78 LIG-0.27  OA
ATOM     18 H    ALA B   2       0.107  22.500   2.322  1.00 32.02 LIG 0.16  HD
BRANCH 16 19
ATOM     19  CA  ALA B   1       1.556  21.978   0.278  1.00 33.48 LIG 0.27  C 
ATOM     20  CB  ALA B   1       2.648  21.356  -0.553  1.00 33.96 LIG 0.05  C 
BRANCH 19 21
ATOM     21  N   ALA B   1       1.702  23.472   0.293  1.00 33.82 LIG-0.07  N 
ATOM     22 H3   ALA B   1       1.010  23.843  -0.126  1.00 33.82 LIG 0.28  HD
ATOM     23 H2   ALA B   1       2.456  23.701  -0.122  1.00 33.82 LIG 0.28  HD
ATOM     24 H1   ALA B   1       1.728  23.760   1.135  1.00 33.82 LIG 0.28  HD
ENDBRANCH 19 21
ENDBRANCH 16 19
ENDBRANCH 13 15
ENDBRANCH 10 13
ENDBRANCH 5 9
ENDBRANCH 1 5
BRANCH 3 25
ATOM     25  CA  ALA B   4      -4.029  18.500   8.154  1.00 28.07 LIG 0.17  C 
ATOM     26  CB  ALA B   4      -2.774  18.551   9.030  1.00 28.13 LIG 0.04  C 
BRANCH 25 27
ATOM     27  C   ALA B   4      -5.084  19.410   8.749  1.00 27.72 LIG 0.24  C 
ATOM     28  N   SER B   5      -4.768  19.970   9.913  1.00 27.70 LIG-0.34  N 
ATOM     29 H    SER B   5      -4.131  19.693  10.421  1.00 27.70 LIG 0.16  HD
ATOM     30 O    ALA B   4      -6.141  19.619   8.156  1.00 26.03 LIG-0.27  OA
BRANCH 28 31
ATOM     31  CA  SER B   5      -5.493  21.123  10.434  1.00 28.70 LIG 0.20  C 
BRANCH 31 32
ATOM     32  CB  SER B   5      -4.671  21.828  11.527  1.00 28.19 LIG 0.20  C 
BRANCH 32 33
ATOM     33 OG   SER B   5      -4.052  20.901  12.425  1.00 31.03 LIG-0.40  OA
ATOM     34 HG   SER B   5      -3.546  20.388  11.993  1.00 31.03 LIG 0.21  HD
ENDBRANCH 32 33
ENDBRANCH 31 32
BRANCH 31 35
ATOM     35  C   SER B   5      -5.773  22.091   9.278  1.00 28.90 LIG 0.24  C 
ATOM     36 O    SER B   5      -4.880  22.815   8.831  1.00 29.19 LIG-0.27  OA
ATOM     37  N   ALA B   6      -6.997  22.082   8.768  1.00 29.26 LIG-0.35  N 
ATOM     38 H    ALA B   6      -7.620  21.547   9.021  1.00 29.26 LIG 0.16  HD
BRANCH 37 39
ATOM     39  CA  ALA B   6      -7.384  23.004   7.711  1.00 30.00 LIG 0.16  C 
ATOM     40  CB  ALA B   6      -7.644  22.262   6.383  1.00 31.04 LIG 0.04  C 
BRANCH 39 41
ATOM     41  C   ALA B   6      -8.597  23.814   8.094  1.00 30.03 LIG 0.22  C 
ATOM     42 O    ALA B   6      -8.985  23.802   9.266  1.00 31.65 LIG-0.29  OA
ENDBRANCH 39 41
ENDBRANCH 37 39
ENDBRANCH 31 35
ENDBRANCH 28 31
ENDBRANCH 25 27
ENDBRANCH 3 25
TORSDOF 16
ENDMDL
MODEL 2
USER: ADFR SOLUTION from run 1
USER: SCORE 11.343786 LL:  -2.499 LR: -12.705 RR:   0.000 FEB:  -7.932
USER: RMSD 3.986169
USER: SEED 229130
USER: STATUS no improvement in best in 7 clusters for 5 generations
USER: GENES 18
USER: genes 0 Translation |==|  0.56878 0.55469 0.49201
USER: genes 1 Rotation |==|  0.56798 0.48723 0.50281 0.99518
USER: genes 2 Torsion [N]-C--CA-[N] |==|  0.46111
USER: genes 3 Torsion [C]-CA--CB-[OG] |==|  0.72138
USER: genes 4 Torsion [CA]-CB--OG-[HG] |==|  0.36920
USER: genes 5 Torsion [C]-CA--N-[C] |==|  0.56326
USER: genes 6 Torsion [N]-C--CA-[N] |==|  0.63116
USER: genes 7 Torsion [C]-CA--N-[C] |==|  0.79416
USER: genes 8 Torsion [N]-C--CA-[N] |==|  0.55893
USER: genes 9 Torsion [C]-CA--N-[H1] |==|  0.10545
USER: genes 10 Torsion [C]-N--CA-[CB] |==|  0.34799
USER: genes 11 Torsion [N]-CA--C-[N] |==|  0.54497
USER: genes 12 Torsion [C]-N--CA-[CB] |==|  0.90318
USER: genes 13 Torsion [N]-CA--CB-[OG] |==|  0.76734
USER: genes 14 Torsion [CA]-CB--OG-[HG] |==|  0.35339
USER: genes 15 Torsion [N]-CA--C-[N] |==|  0.81243
USER: genes 16 Torsion [C]-N--CA-[C] |==|  0.16975
USER: genes 17 Torsion [N]-CA--C-[O] |==|  0.17776
ROOT
ATOM      1  C   SER B   3      -1.610  19.759   3.983  1.00 29.46 LIG 0.24  C 
ATOM      2 O    SER B   3      -2.596  20.349   3.535  1.00 29.29 LIG-0.27  OA
ATOM      3  N   ALA B   4      -1.680  18.759   4.860  1.00 28.70 LIG-0.35  N 
ATOM      4 H    ALA B   4      -0.988  18.372   5.190  1.00 28.70 LIG 0.16  HD
ENDROOT
BRANCH 1 5
ATOM      5  CA  SER B   3      -0.203  20.152   3.537  1.00 29.76 LIG 0.20  C 
BRANCH 5 6
ATOM      6  CB  SER B   3       0.559  20.877   4.650  1.00 29.85 LIG 0.20  C 
BRANCH 6 7
ATOM      7 OG   SER B   3       0.536  22.292   4.430  1.00 32.14 LIG-0.40  OA
ATOM      8 HG   SER B   3       0.331  22.683   5.144  1.00 32.14 LIG 0.21  HD
ENDBRANCH 6 7
ENDBRANCH 5 6
BRANCH 5 9
ATOM      9  N   SER B   3      -0.274  21.001   2.366  1.00 30.15 LIG-0.34  N 
ATOM     10  C   ALA B   2       0.746  21.122   1.525  1.00 30.60 LIG 0.24  C 
ATOM     11 O    ALA B   2       1.757  20.432   1.597  1.00 30.40 LIG-0.27  OA
ATOM     12 H    SER B   3      -1.025  21.409   2.270  1.00 30.15 LIG 0.16  HD
BRANCH 10 13
ATOM     13  CA  ALA B   2       0.596  22.194   0.450  1.00 31.29 LIG 0.17  C 
ATOM     14  CB  ALA B   2      -0.846  22.676   0.404  1.00 31.24 LIG 0.04  C 
BRANCH 13 15
ATOM     15  N   ALA B   2       0.962  21.637  -0.845  1.00 32.02 LIG-0.35  N 
ATOM     16  C   ALA B   1       2.222  21.393  -1.198  1.00 33.14 LIG 0.25  C 
ATOM     17 O    ALA B   1       3.201  21.753  -0.532  1.00 33.78 LIG-0.27  OA
ATOM     18 H    ALA B   2       0.290  21.481  -1.359  1.00 32.02 LIG 0.16  HD
BRANCH 16 19
ATOM     19  CA  ALA B   1       2.419  20.656  -2.515  1.00 33.48 LIG 0.27  C 
ATOM     20  CB  ALA B   1       1.310  19.658  -2.724  1.00 33.96 LIG 0.05  C 
BRANCH 19 21
ATOM     21  N   ALA B   1       3.755  19.976  -2.615  1.00 33.82 LIG-0.07  N 
ATOM     22 H3   ALA B   1       4.371  20.568  -2.865  1.00 33.82 LIG 0.28  HD
ATOM     23 H2   ALA B   1       3.711  19.322  -3.217  1.00 33.82 LIG 0.28  HD
ATOM     24 H1   ALA B   1       3.975  19.636  -1.822  1.00 33.82 LIG 0.28  HD
ENDBRANCH 19 21
ENDBRANCH 16 19
ENDBRANCH 13 15
ENDBRANCH 10 13
ENDBRANCH 5 9
ENDBRANCH 1 5
BRANCH 3 25
ATOM     25  CA  ALA B   4      -2.949  18.219   5.350  1.00 28.07 LIG 0.17  C 
ATOM     26  CB  ALA B   4      -3.006  16.707   5.115  1.00 28.13 LIG 0.04  C 
BRANCH 25 27
ATOM     27  C   ALA B   4      -3.109  18.495   6.830  1.00 27.72 LIG 0.24  C 
ATOM     28  N   SER B   5      -4.041  17.777   7.451  1.00 27.70 LIG-0.34  N 
ATOM     29 H    SER B   5      -4.665  17.348   7.044  1.00 27.70 LIG 0.16  HD
ATOM     30 O    ALA B   4      -2.390  19.316   7.398  1.00 26.03 LIG-0.27  OA
BRANCH 28 31
ATOM     31  CA  SER B   5      -4.078  17.656   8.904  1.00 28.70 LIG 0.20  C 
BRANCH 31 32
ATOM     32  CB  SER B   5      -2.651  17.639   9.480  1.00 28.19 LIG 0.20  C 
BRANCH 32 33
ATOM     33 OG   SER B   5      -2.066  16.333   9.443  1.00 31.03 LIG-0.40  OA
ATOM     34 HG   SER B   5      -1.318  16.371   9.061  1.00 31.03 LIG 0.21  HD
ENDBRANCH 32 33
ENDBRANCH 31 32
BRANCH 31 35
ATOM     35  C   SER B   5      -4.862  18.845   9.476  1.00 28.90 LIG 0.24  C 
ATOM     36 O    SER B   5      -5.939  18.671  10.050  1.00 29.19 LIG-0.27  OA
ATOM     37  N   ALA B   6      -4.311  20.044   9.353  1.00 29.26 LIG-0.35  N 
ATOM     38 H    ALA B   6      -3.535  20.185   9.010  1.00 29.26 LIG 0.16  HD
BRANCH 37 39
ATOM     39  CA  ALA B   6      -4.999  21.244   9.805  1.00 30.00 LIG 0.16  C 
ATOM     40  CB  ALA B   6      -6.316  21.464   9.030  1.00 31.04 LIG 0.04  C 
BRANCH 39 41
ATOM     41  C   ALA B   6      -5.275  21.204  11.286  1.00 30.03 LIG 0.22  C 
ATOM     42 O    ALA B   6      -4.327  21.190  12.077  1.00 31.65 LIG-0.29  OA
ENDBRANCH 39 41
ENDBRANCH 37 39
ENDBRANCH 31 35
ENDBRANCH 28 31
ENDBRANCH 25 27
ENDBRANCH 3 25
TORSDOF 16
ENDMDL
MODEL 3
USER: ADFR SOLUTION from run 30
USER: SCORE 12.231975 LL:  -2.816 LR: -12.647 RR:   0.000 FEB:  -7.874
USER: RMSD 8.120373
USER: SEED 29
USER: STATUS no improvement in best in 7 clusters for 5 generations
USER: GENES 18
USER: genes 0 Translation |==|  0.37797 0.62270 0.67683
USER: genes 1 Rotation |==|  0.72139 0.35897 0.78912 0.81226
USER: genes 2 Torsion [N]-C--CA-[N] |==|  0.49445
USER: genes 3 Torsion [C]-CA--CB-[OG] |==|  0.31048
USER: genes 4 Torsion [CA]-CB--OG-[HG] |==|  0.84238
USER: genes 5 Torsion [C]-CA--N-[C] |==|  0.17534
USER: genes 6 Torsion [N]-C--CA-[N] |==|  0.39777
USER: genes 7 Torsion [C]-CA--N-[C] |==|  0.82525
USER: genes 8 Torsion [N]-C--CA-[N] |==|  0.36610
USER: genes 9 Torsion [C]-CA--N-[H1] |==|  0.51411
USER: genes 10 Torsion [C]-N--CA-[CB] |==|  0.21309
USER: genes 11 Torsion [N]-CA--C-[N] |==|  0.98383
USER: genes 12 Torsion [C]-N--CA-[CB] |==|  0.35636
USER: genes 13 Torsion [N]-CA--CB-[OG] |==|  0.83236
USER: genes 14 Torsion [CA]-CB--OG-[HG] |==|  0.94379
USER: genes 15 Torsion [N]-CA--C-[N] |==|  0.71938
USER: genes 16 Torsion [C]-N--CA-[C] |==|  0.78758
USER: genes 17 Torsion [N]-CA--C-[O] |==|  0.92478
ROOT
ATOM      1  C   SER B   3      -4.901  20.780   8.419  1.00 29.46 LIG 0.24  C 
ATOM      2 O    SER B   3      -5.613  20.752   7.412  1.00 29.29 LIG-0.27  OA
ATOM      3  N   ALA B   4      -4.022  19.829   8.730  1.00 28.70 LIG-0.35  N 
ATOM      4 H    ALA B   4      -3.550  19.840   9.448  1.00 28.70 LIG 0.16  HD
ENDROOT
BRANCH 1 5
ATOM      5  CA  SER B   3      -4.986  21.950   9.396  1.00 29.76 LIG 0.20  C 
BRANCH 5 6
ATOM      6  CB  SER B   3      -5.389  21.485  10.798  1.00 29.85 LIG 0.20  C 
BRANCH 6 7
ATOM      7 OG   SER B   3      -4.297  21.647  11.710  1.00 32.14 LIG-0.40  OA
ATOM      8 HG   SER B   3      -3.629  21.225  11.424  1.00 32.14 LIG 0.21  HD
ENDBRANCH 6 7
ENDBRANCH 5 6
BRANCH 5 9
ATOM      9  N   SER B   3      -5.940  22.927   8.916  1.00 30.15 LIG-0.34  N 
ATOM     10  C   ALA B   2      -7.229  22.640   8.775  1.00 30.60 LIG 0.24  C 
ATOM     11 O    ALA B   2      -7.724  21.589   9.164  1.00 30.40 LIG-0.27  OA
ATOM     12 H    SER B   3      -5.598  23.696   8.735  1.00 30.15 LIG 0.16  HD
BRANCH 10 13
ATOM     13  CA  ALA B   2      -8.074  23.702   8.080  1.00 31.29 LIG 0.17  C 
ATOM     14  CB  ALA B   2      -8.766  24.569   9.120  1.00 31.24 LIG 0.04  C 
BRANCH 13 15
ATOM     15  N   ALA B   2      -9.076  23.055   7.244  1.00 32.02 LIG-0.35  N 
ATOM     16  C   ALA B   1      -8.763  22.282   6.206  1.00 33.14 LIG 0.25  C 
ATOM     17 O    ALA B   1      -7.614  22.165   5.763  1.00 33.78 LIG-0.27  OA
ATOM     18 H    ALA B   2      -9.886  23.218   7.483  1.00 32.02 LIG 0.16  HD
BRANCH 16 19
ATOM     19  CA  ALA B   1      -9.920  21.548   5.544  1.00 33.48 LIG 0.27  C 
ATOM     20  CB  ALA B   1      -9.906  20.093   5.934  1.00 33.96 LIG 0.05  C 
BRANCH 19 21
ATOM     21  N   ALA B   1      -9.924  21.684   4.048  1.00 33.82 LIG-0.07  N 
ATOM     22 H3   ALA B   1      -9.203  21.285   3.711  1.00 33.82 LIG 0.28  HD
ATOM     23 H2   ALA B   1      -9.914  22.547   3.828  1.00 33.82 LIG 0.28  HD
ATOM     24 H1   ALA B   1     -10.657  21.302   3.718  1.00 33.82 LIG 0.28  HD
ENDBRANCH 19 21
ENDBRANCH 16 19
ENDBRANCH 13 15
ENDBRANCH 10 13
ENDBRANCH 5 9
ENDBRANCH 1 5
BRANCH 3 25
ATOM     25  CA  ALA B   4      -3.773  18.666   7.877  1.00 28.07 LIG 0.17  C 
ATOM     26  CB  ALA B   4      -2.903  19.065   6.681  1.00 28.13 LIG 0.04  C 
BRANCH 25 27
ATOM     27  C   ALA B   4      -3.070  17.574   8.656  1.00 27.72 LIG 0.24  C 
ATOM     28  N   SER B   5      -2.704  17.897   9.893  1.00 27.70 LIG-0.34  N 
ATOM     29 H    SER B   5      -2.653  18.705  10.183  1.00 27.70 LIG 0.16  HD
ATOM     30 O    ALA B   4      -2.888  16.464   8.158  1.00 26.03 LIG-0.27  OA
BRANCH 28 31
ATOM     31  CA  SER B   5      -2.352  16.882  10.880  1.00 28.70 LIG 0.20  C 
BRANCH 31 32
ATOM     32  CB  SER B   5      -0.987  17.198  11.516  1.00 28.19 LIG 0.20  C 
BRANCH 32 33
ATOM     33 OG   SER B   5       0.068  17.232  10.549  1.00 31.03 LIG-0.40  OA
ATOM     34 HG   SER B   5      -0.169  16.813   9.860  1.00 31.03 LIG 0.21  HD
ENDBRANCH 32 33
ENDBRANCH 31 32
BRANCH 31 35
ATOM     35  C   SER B   5      -3.441  16.848  11.961  1.00 28.90 LIG 0.24  C 
ATOM     36 O    SER B   5      -4.497  16.241  11.773  1.00 29.19 LIG-0.27  OA
ATOM     37  N   ALA B   6      -3.175  17.467  13.103  1.00 29.26 LIG-0.35  N 
ATOM     38 H    ALA B   6      -2.424  17.847  13.281  1.00 29.26 LIG 0.16  HD
BRANCH 37 39
ATOM     39  CA  ALA B   6      -4.162  17.548  14.168  1.00 30.00 LIG 0.16  C 
ATOM     40  CB  ALA B   6      -3.499  17.854  15.529  1.00 31.04 LIG 0.04  C 
BRANCH 39 41
ATOM     41  C   ALA B   6      -5.221  18.579  13.870  1.00 30.03 LIG 0.22  C 
ATOM     42 O    ALA B   6      -4.943  19.537  13.143  1.00 31.65 LIG-0.29  OA
ENDBRANCH 39 41
ENDBRANCH 37 39
ENDBRANCH 31 35
ENDBRANCH 28 31
ENDBRANCH 25 27
ENDBRANCH 3 25
TORSDOF 16
ENDMDL
MODEL 4
USER: ADFR SOLUTION from run 149
USER: SCORE 14.107074 LL:  -2.784 LR: -12.636 RR:   0.000 FEB:  -7.863
USER: RMSD 5.419390
USER: SEED 148
USER: STATUS 1 or 2 clusters left
USER: GENES 18
USER: genes 0 Translation |==|  0.49445 0.45504 0.61406
USER: genes 1 Rotation |==|  0.70150 0.61351 0.12651 0.73878
USER: genes 2 Torsion [N]-C--CA-[N] |==|  0.46111
USER: genes 3 Torsion [C]-CA--CB-[OG] |==|  0.62140
USER: genes 4 Torsion [CA]-CB--OG-[HG] |==|  0.18332
USER: genes 5 Torsion [C]-CA--N-[C] |==|  0.74132
USER: genes 6 Torsion [N]-C--CA-[N] |==|  0.46062
USER: genes 7 Torsion [C]-CA--N-[C] |==|  0.78529
USER: genes 8 Torsion [N]-C--CA-[N] |==|  0.36775
USER: genes 9 Torsion [C]-CA--N-[H1] |==|  0.05920
USER: genes 10 Torsion [C]-N--CA-[CB] |==|  0.85163
USER: genes 11 Torsion [N]-CA--C-[N] |==|  0.38744
USER: genes 12 Torsion [C]-N--CA-[CB] |==|  0.83241
USER: genes 13 Torsion [N]-CA--CB-[OG] |==|  0.85430
USER: genes 14 Torsion [CA]-CB--OG-[HG] |==|  0.31580
USER: genes 15 Torsion [N]-CA--C-[N] |==|  0.11713
USER: genes 16 Torsion [C]-N--CA-[C] |==|  0.76915
USER: genes 17 Torsion [N]-CA--C-[O] |==|  0.07614
ROOT
ATOM      1  C   SER B   3      -2.892  18.265   6.912  1.00 29.46 LIG 0.24  C 
ATOM      2 O    SER B   3      -2.046  18.985   7.448  1.00 29.29 LIG-0.27  OA
ATOM      3  N   ALA B   4      -3.966  17.792   7.541  1.00 28.70 LIG-0.35  N 
ATOM      4 H    ALA B   4      -4.537  17.267   7.171  1.00 28.70 LIG 0.16  HD
ENDROOT
BRANCH 1 5
ATOM      5  CA  SER B   3      -2.753  17.866   5.445  1.00 29.76 LIG 0.20  C 
BRANCH 5 6
ATOM      6  CB  SER B   3      -2.374  16.390   5.296  1.00 29.85 LIG 0.20  C 
BRANCH 6 7
ATOM      7 OG   SER B   3      -1.353  16.236   4.304  1.00 32.14 LIG-0.40  OA
ATOM      8 HG   SER B   3      -0.646  16.602   4.571  1.00 32.14 LIG 0.21  HD
ENDBRANCH 6 7
ENDBRANCH 5 6
BRANCH 5 9
ATOM      9  N   SER B   3      -1.753  18.690   4.800  1.00 30.15 LIG-0.34  N 
ATOM     10  C   ALA B   2      -2.073  19.807   4.156  1.00 30.60 LIG 0.24  C 
ATOM     11 O    ALA B   2      -3.200  20.289   4.177  1.00 30.40 LIG-0.27  OA
ATOM     12 H    SER B   3      -0.949  18.393   4.873  1.00 30.15 LIG 0.16  HD
BRANCH 10 13
ATOM     13  CA  ALA B   2      -0.946  20.464   3.366  1.00 31.29 LIG 0.17  C 
ATOM     14  CB  ALA B   2       0.025  21.139   4.322  1.00 31.24 LIG 0.04  C 
BRANCH 13 15
ATOM     15  N   ALA B   2      -1.505  21.459   2.460  1.00 32.02 LIG-0.35  N 
ATOM     16  C   ALA B   1      -2.108  21.140   1.317  1.00 33.14 LIG 0.25  C 
ATOM     17 O    ALA B   1      -2.116  19.996   0.844  1.00 33.78 LIG-0.27  OA
ATOM     18 H    ALA B   2      -1.409  22.269   2.733  1.00 32.02 LIG 0.16  HD
BRANCH 16 19
ATOM     19  CA  ALA B   1      -2.783  22.283   0.573  1.00 33.48 LIG 0.27  C 
ATOM     20  CB  ALA B   1      -4.276  22.217   0.761  1.00 33.96 LIG 0.05  C 
BRANCH 19 21
ATOM     21  N   ALA B   1      -2.444  22.314  -0.890  1.00 33.82 LIG-0.07  N 
ATOM     22 H3   ALA B   1      -1.800  22.912  -1.033  1.00 33.82 LIG 0.28  HD
ATOM     23 H2   ALA B   1      -3.167  22.541  -1.357  1.00 33.82 LIG 0.28  HD
ATOM     24 H1   ALA B   1      -2.165  21.509  -1.147  1.00 33.82 LIG 0.28  HD
ENDBRANCH 19 21
ENDBRANCH 16 19
ENDBRANCH 13 15
ENDBRANCH 10 13
ENDBRANCH 5 9
ENDBRANCH 1 5
BRANCH 3 25
ATOM     25  CA  ALA B   4      -4.282  18.121   8.932  1.00 28.07 LIG 0.17  C 
ATOM     26  CB  ALA B   4      -3.084  17.813   9.834  1.00 28.13 LIG 0.04  C 
BRANCH 25 27
ATOM     27  C   ALA B   4      -4.636  19.588   9.065  1.00 27.72 LIG 0.24  C 
ATOM     28  N   SER B   5      -5.651  19.862   9.880  1.00 27.70 LIG-0.34  N 
ATOM     29 H    SER B   5      -6.220  19.276  10.151  1.00 27.70 LIG 0.16  HD
ATOM     30 O    ALA B   4      -3.991  20.447   8.466  1.00 26.03 LIG-0.27  OA
BRANCH 28 31
ATOM     31  CA  SER B   5      -5.884  21.208  10.392  1.00 28.70 LIG 0.20  C 
BRANCH 31 32
ATOM     32  CB  SER B   5      -4.673  21.691  11.210  1.00 28.19 LIG 0.20  C 
BRANCH 32 33
ATOM     33 OG   SER B   5      -4.297  20.756  12.227  1.00 31.03 LIG-0.40  OA
ATOM     34 HG   SER B   5      -3.540  20.438  12.049  1.00 31.03 LIG 0.21  HD
ENDBRANCH 32 33
ENDBRANCH 31 32
BRANCH 31 35
ATOM     35  C   SER B   5      -6.128  22.149   9.205  1.00 28.90 LIG 0.24  C 
ATOM     36 O    SER B   5      -5.594  23.260   9.163  1.00 29.19 LIG-0.27  OA
ATOM     37  N   ALA B   6      -6.900  21.697   8.227  1.00 29.26 LIG-0.35  N 
ATOM     38 H    ALA B   6      -7.236  20.906   8.205  1.00 29.26 LIG 0.16  HD
BRANCH 37 39
ATOM     39  CA  ALA B   6      -7.245  22.532   7.087  1.00 30.00 LIG 0.16  C 
ATOM     40  CB  ALA B   6      -7.551  21.681   5.837  1.00 31.04 LIG 0.04  C 
BRANCH 39 41
ATOM     41  C   ALA B   6      -8.412  23.437   7.391  1.00 30.03 LIG 0.22  C 
ATOM     42 O    ALA B   6      -8.617  23.787   8.557  1.00 31.65 LIG-0.29  OA
ENDBRANCH 39 41
ENDBRANCH 37 39
ENDBRANCH 31 35
ENDBRANCH 28 31
ENDBRANCH 25 27
ENDBRANCH 3 25
TORSDOF 16
ENDMDL
MODEL 5
USER: ADFR SOLUTION from run 117
USER: SCORE 12.391779 LL:  -2.785 LR: -12.485 RR:   0.000 FEB:  -7.712
USER: RMSD 8.804548
USER: SEED 116
USER: STATUS no improvement in best in 6 clusters for 5 generations
USER: GENES 18
USER: genes 0 Translation |==|  0.38219 0.58187 0.69794
USER: genes 1 Rotation |==|  0.85840 0.81155 0.63182 0.58430
USER: genes 2 Torsion [N]-C--CA-[N] |==|  0.11189
USER: genes 3 Torsion [C]-CA--CB-[OG] |==|  0.27644
USER: genes 4 Torsion [CA]-CB--OG-[HG] |==|  0.95740
USER: genes 5 Torsion [C]-CA--N-[C] |==|  0.16618
USER: genes 6 Torsion [N]-C--CA-[N] |==|  0.40470
USER: genes 7 Torsion [C]-CA--N-[C] |==|  0.78333
USER: genes 8 Torsion [N]-C--CA-[N] |==|  0.31482
USER: genes 9 Torsion [C]-CA--N-[H1] |==|  0.25056
USER: genes 10 Torsion [C]-N--CA-[CB] |==|  0.40213
USER: genes 11 Torsion [N]-CA--C-[N] |==|  0.59941
USER: genes 12 Torsion [C]-N--CA-[CB] |==|  0.44501
USER: genes 13 Torsion [N]-CA--CB-[OG] |==|  0.52281
USER: genes 14 Torsion [CA]-CB--OG-[HG] |==|  0.97549
USER: genes 15 Torsion [N]-CA--C-[N] |==|  0.45868
USER: genes 16 Torsion [C]-N--CA-[C] |==|  0.56685
USER: genes 17 Torsion [N]-CA--C-[O] |==|  0.13544
ROOT
ATOM      1  C   SER B   3      -4.828  20.167   8.926  1.00 29.46 LIG 0.24  C 
ATOM      2 O    SER B   3      -4.857  19.054   9.457  1.00 29.29 LIG-0.27  OA
ATOM      3  N   ALA B   4      -4.758  20.356   7.609  1.00 28.70 LIG-0.35  N 
ATOM      4 H    ALA B   4      -4.709  21.134   7.247  1.00 28.70 LIG 0.16  HD
ENDROOT
BRANCH 1 5
ATOM      5  CA  SER B   3      -4.879  21.434   9.776  1.00 29.76 LIG 0.20  C 
BRANCH 5 6
ATOM      6  CB  SER B   3      -5.392  21.144  11.189  1.00 29.85 LIG 0.20  C 
BRANCH 6 7
ATOM      7 OG   SER B   3      -4.296  21.043  12.105  1.00 32.14 LIG-0.40  OA
ATOM      8 HG   SER B   3      -3.580  20.952  11.676  1.00 32.14 LIG 0.21  HD
ENDBRANCH 6 7
ENDBRANCH 5 6
BRANCH 5 9
ATOM      9  N   SER B   3      -5.730  22.420   9.145  1.00 30.15 LIG-0.34  N 
ATOM     10  C   ALA B   2      -7.013  22.184   8.895  1.00 30.60 LIG 0.24  C 
ATOM     11 O    ALA B   2      -7.598  21.185   9.298  1.00 30.40 LIG-0.27  OA
ATOM     12 H    SER B   3      -5.333  23.159   8.951  1.00 30.15 LIG 0.16  HD
BRANCH 10 13
ATOM     13  CA  ALA B   2      -7.731  23.236   8.055  1.00 31.29 LIG 0.17  C 
ATOM     14  CB  ALA B   2      -8.422  24.237   8.968  1.00 31.24 LIG 0.04  C 
BRANCH 13 15
ATOM     15  N   ALA B   2      -8.722  22.586   7.208  1.00 32.02 LIG-0.35  N 
ATOM     16  C   ALA B   1      -8.406  21.940   6.089  1.00 33.14 LIG 0.25  C 
ATOM     17 O    ALA B   1      -7.277  21.959   5.583  1.00 33.78 LIG-0.27  OA
ATOM     18 H    ALA B   2      -9.529  22.659   7.499  1.00 32.02 LIG 0.16  HD
BRANCH 16 19
ATOM     19  CA  ALA B   1      -9.536  21.176   5.414  1.00 33.48 LIG 0.27  C 
ATOM     20  CB  ALA B   1      -9.167  19.723   5.267  1.00 33.96 LIG 0.05  C 
BRANCH 19 21
ATOM     21  N   ALA B   1      -9.921  21.751   4.081  1.00 33.82 LIG-0.07  N 
ATOM     22 H3   ALA B   1      -9.768  22.628   4.080  1.00 33.82 LIG 0.28  HD
ATOM     23 H2   ALA B   1     -10.786  21.602   3.931  1.00 33.82 LIG 0.28  HD
ATOM     24 H1   ALA B   1      -9.438  21.365   3.440  1.00 33.82 LIG 0.28  HD
ENDBRANCH 19 21
ENDBRANCH 16 19
ENDBRANCH 13 15
ENDBRANCH 10 13
ENDBRANCH 5 9
ENDBRANCH 1 5
BRANCH 3 25
ATOM     25  CA  ALA B   4      -4.758  19.254   6.646  1.00 28.07 LIG 0.17  C 
ATOM     26  CB  ALA B   4      -5.512  19.661   5.377  1.00 28.13 LIG 0.04  C 
BRANCH 25 27
ATOM     27  C   ALA B   4      -3.340  18.871   6.276  1.00 27.72 LIG 0.24  C 
ATOM     28  N   SER B   5      -3.157  18.497   5.013  1.00 27.70 LIG-0.34  N 
ATOM     29 H    SER B   5      -3.796  18.267   4.484  1.00 27.70 LIG 0.16  HD
ATOM     30 O    ALA B   4      -2.433  18.939   7.106  1.00 26.03 LIG-0.27  OA
BRANCH 28 31
ATOM     31  CA  SER B   5      -1.830  18.446   4.410  1.00 28.70 LIG 0.20  C 
BRANCH 31 32
ATOM     32  CB  SER B   5      -1.839  17.543   3.164  1.00 28.19 LIG 0.20  C 
BRANCH 32 33
ATOM     33 OG   SER B   5      -0.523  17.313   2.650  1.00 31.03 LIG-0.40  OA
ATOM     34 HG   SER B   5       0.025  17.811   3.049  1.00 31.03 LIG 0.21  HD
ENDBRANCH 32 33
ENDBRANCH 31 32
BRANCH 31 35
ATOM     35  C   SER B   5      -1.409  19.870   4.027  1.00 28.90 LIG 0.24  C 
ATOM     36 O    SER B   5      -2.231  20.789   4.016  1.00 29.19 LIG-0.27  OA
ATOM     37  N   ALA B   6      -0.127  20.064   3.748  1.00 29.26 LIG-0.35  N 
ATOM     38 H    ALA B   6       0.476  19.454   3.806  1.00 29.26 LIG 0.16  HD
BRANCH 37 39
ATOM     39  CA  ALA B   6       0.365  21.362   3.313  1.00 30.00 LIG 0.16  C 
ATOM     40  CB  ALA B   6       0.579  22.314   4.510  1.00 31.04 LIG 0.04  C 
BRANCH 39 41
ATOM     41  C   ALA B   6       1.642  21.237   2.521  1.00 30.03 LIG 0.22  C 
ATOM     42 O    ALA B   6       1.704  20.417   1.601  1.00 31.65 LIG-0.29  OA
ENDBRANCH 39 41
ENDBRANCH 37 39
ENDBRANCH 31 35
ENDBRANCH 28 31
ENDBRANCH 25 27
ENDBRANCH 3 25
TORSDOF 16
ENDMDL
MODEL 6
USER: ADFR SOLUTION from run 98
USER: SCORE 13.403691 LL:  -2.396 LR: -12.117 RR:   0.000 FEB:  -7.344
USER: RMSD 10.503003
USER: SEED 97
USER: STATUS no improvement in best in 5 clusters for 5 generations
USER: GENES 18
USER: genes 0 Translation |==|  0.69610 0.70960 0.43669
USER: genes 1 Rotation |==|  0.41113 0.98516 0.58165 0.50709
USER: genes 2 Torsion [N]-C--CA-[N] |==|  0.97427
USER: genes 3 Torsion [C]-CA--CB-[OG] |==|  0.69791
USER: genes 4 Torsion [CA]-CB--OG-[HG] |==|  0.37628
USER: genes 5 Torsion [C]-CA--N-[C] |==|  0.76054
USER: genes 6 Torsion [N]-C--CA-[N] |==|  0.45551
USER: genes 7 Torsion [C]-CA--N-[C] |==|  0.71847
USER: genes 8 Torsion [N]-C--CA-[N] |==|  0.03011
USER: genes 9 Torsion [C]-CA--N-[H1] |==|  0.04781
USER: genes 10 Torsion [C]-N--CA-[CB] |==|  0.20140
USER: genes 11 Torsion [N]-CA--C-[N] |==|  0.62171
USER: genes 12 Torsion [C]-N--CA-[CB] |==|  0.86661
USER: genes 13 Torsion [N]-CA--CB-[OG] |==|  0.57127
USER: genes 14 Torsion [CA]-CB--OG-[HG] |==|  0.10064
USER: genes 15 Torsion [N]-CA--C-[N] |==|  0.37533
USER: genes 16 Torsion [C]-N--CA-[C] |==|  0.21342
USER: genes 17 Torsion [N]-CA--C-[O] |==|  0.68563
ROOT
ATOM      1  C   SER B   3       0.587  22.083   2.656  1.00 29.46 LIG 0.24  C 
ATOM      2 O    SER B   3       1.383  22.662   3.399  1.00 29.29 LIG-0.27  OA
ATOM      3  N   ALA B   4       0.834  21.811   1.376  1.00 28.70 LIG-0.35  N 
ATOM      4 H    ALA B   4       0.264  21.433   0.855  1.00 28.70 LIG 0.16  HD
ENDROOT
BRANCH 1 5
ATOM      5  CA  SER B   3      -0.771  21.624   3.181  1.00 29.76 LIG 0.20  C 
BRANCH 5 6
ATOM      6  CB  SER B   3      -0.626  20.503   4.214  1.00 29.85 LIG 0.20  C 
BRANCH 6 7
ATOM      7 OG   SER B   3      -1.075  19.259   3.666  1.00 32.14 LIG-0.40  OA
ATOM      8 HG   SER B   3      -0.527  18.653   3.860  1.00 32.14 LIG 0.21  HD
ENDBRANCH 6 7
ENDBRANCH 5 6
BRANCH 5 9
ATOM      9  N   SER B   3      -1.598  21.168   2.084  1.00 30.15 LIG-0.34  N 
ATOM     10  C   ALA B   2      -2.347  22.004   1.375  1.00 30.60 LIG 0.24  C 
ATOM     11 O    ALA B   2      -2.290  23.222   1.502  1.00 30.40 LIG-0.27  OA
ATOM     12 H    SER B   3      -1.559  20.320   1.940  1.00 30.15 LIG 0.16  HD
BRANCH 10 13
ATOM     13  CA  ALA B   2      -3.308  21.357   0.383  1.00 31.29 LIG 0.17  C 
ATOM     14  CB  ALA B   2      -2.537  20.870  -0.835  1.00 31.24 LIG 0.04  C 
BRANCH 13 15
ATOM     15  N   ALA B   2      -4.306  22.333  -0.033  1.00 32.02 LIG-0.35  N 
ATOM     16  C   ALA B   1      -5.543  22.358   0.459  1.00 33.14 LIG 0.25  C 
ATOM     17 O    ALA B   1      -6.006  21.474   1.191  1.00 33.78 LIG-0.27  OA
ATOM     18 H    ALA B   2      -4.022  22.890  -0.624  1.00 32.02 LIG 0.16  HD
BRANCH 16 19
ATOM     19  CA  ALA B   1      -6.405  23.542   0.045  1.00 33.48 LIG 0.27  C 
ATOM     20  CB  ALA B   1      -7.780  23.071  -0.351  1.00 33.96 LIG 0.05  C 
BRANCH 19 21
ATOM     21  N   ALA B   1      -5.796  24.355  -1.061  1.00 33.82 LIG-0.07  N 
ATOM     22 H3   ALA B   1      -5.444  25.100  -0.723  1.00 33.82 LIG 0.28  HD
ATOM     23 H2   ALA B   1      -6.425  24.569  -1.654  1.00 33.82 LIG 0.28  HD
ATOM     24 H1   ALA B   1      -5.159  23.881  -1.462  1.00 33.82 LIG 0.28  HD
ENDBRANCH 19 21
ENDBRANCH 16 19
ENDBRANCH 13 15
ENDBRANCH 10 13
ENDBRANCH 5 9
ENDBRANCH 1 5
BRANCH 3 25
ATOM     25  CA  ALA B   4       2.105  22.130   0.726  1.00 28.07 LIG 0.17  C 
ATOM     26  CB  ALA B   4       3.203  21.182   1.218  1.00 28.13 LIG 0.04  C 
BRANCH 25 27
ATOM     27  C   ALA B   4       1.981  22.003  -0.778  1.00 27.72 LIG 0.24  C 
ATOM     28  N   SER B   5       2.990  21.387  -1.388  1.00 27.70 LIG-0.34  N 
ATOM     29 H    SER B   5       3.760  21.256  -1.027  1.00 27.70 LIG 0.16  HD
ATOM     30 O    ALA B   4       0.987  22.429  -1.366  1.00 26.03 LIG-0.27  OA
BRANCH 28 31
ATOM     31  CA  SER B   5       2.868  20.871  -2.746  1.00 28.70 LIG 0.20  C 
BRANCH 31 32
ATOM     32  CB  SER B   5       1.571  20.055  -2.899  1.00 28.19 LIG 0.20  C 
BRANCH 32 33
ATOM     33 OG   SER B   5       1.664  19.078  -3.941  1.00 31.03 LIG-0.40  OA
ATOM     34 HG   SER B   5       2.441  18.760  -3.959  1.00 31.03 LIG 0.21  HD
ENDBRANCH 32 33
ENDBRANCH 31 32
BRANCH 31 35
ATOM     35  C   SER B   5       2.864  22.054  -3.723  1.00 28.90 LIG 0.24  C 
ATOM     36 O    SER B   5       2.209  23.070  -3.480  1.00 29.19 LIG-0.27  OA
ATOM     37  N   ALA B   6       3.620  21.942  -4.807  1.00 29.26 LIG-0.35  N 
ATOM     38 H    ALA B   6       4.131  21.270  -4.970  1.00 29.26 LIG 0.16  HD
BRANCH 37 39
ATOM     39  CA  ALA B   6       3.640  22.979  -5.827  1.00 30.00 LIG 0.16  C 
ATOM     40  CB  ALA B   6       2.212  23.433  -6.197  1.00 31.04 LIG 0.04  C 
BRANCH 39 41
ATOM     41  C   ALA B   6       4.462  24.168  -5.398  1.00 30.03 LIG 0.22  C 
ATOM     42 O    ALA B   6       3.901  25.247  -5.191  1.00 31.65 LIG-0.29  OA
ENDBRANCH 39 41
ENDBRANCH 37 39
ENDBRANCH 31 35
ENDBRANCH 28 31
ENDBRANCH 25 27
ENDBRANCH 3 25
TORSDOF 16
ENDMDL
MODEL 7
USER: ADFR SOLUTION from run 71
USER: SCORE 12.663373 LL:  -2.745 LR: -11.963 RR:   0.000 FEB:  -7.190
USER: RMSD 3.414850
USER: SEED 70
USER: STATUS no improvement in best in 6 clusters for 5 generations
USER: GENES 18
USER: genes 0 Translation |==|  0.55430 0.54784 0.50093
USER: genes 1 Rotation |==|  0.65108 0.55390 0.49704 0.97356
USER: genes 2 Torsion [N]-C--CA-[N] |==|  0.42139
USER: genes 3 Torsion [C]-CA--CB-[OG] |==|  0.63075
USER: genes 4 Torsion [CA]-CB--OG-[HG] |==|  0.72690
USER: genes 5 Torsion [C]-CA--N-[C] |==|  0.60297
USER: genes 6 Torsion [N]-C--CA-[N] |==|  0.89687
USER: genes 7 Torsion [C]-CA--N-[C] |==|  0.84928
USER: genes 8 Torsion [N]-C--CA-[N] |==|  0.18988
USER: genes 9 Torsion [C]-CA--N-[H1] |==|  0.43298
USER: genes 10 Torsion [C]-N--CA-[CB] |==|  0.45556
USER: genes 11 Torsion [N]-CA--C-[N] |==|  0.48241
USER: genes 12 Torsion [C]-N--CA-[CB] |==|  0.89602
USER: genes 13 Torsion [N]-CA--CB-[OG] |==|  0.84505
USER: genes 14 Torsion [CA]-CB--OG-[HG] |==|  0.33708
USER: genes 15 Torsion [N]-CA--C-[N] |==|  0.76503
USER: genes 16 Torsion [C]-N--CA-[C] |==|  0.21213
USER: genes 17 Torsion [N]-CA--C-[O] |==|  0.10323
ROOT
ATOM      1  C   SER B   3      -1.859  19.657   4.197  1.00 29.46 LIG 0.24  C 
ATOM      2 O    SER B   3      -2.915  20.293   4.242  1.00 29.29 LIG-0.27  OA
ATOM      3  N   ALA B   4      -1.719  18.422   4.675  1.00 28.70 LIG-0.35  N 
ATOM      4 H    ALA B   4      -0.974  17.994   4.667  1.00 28.70 LIG 0.16  HD
ENDROOT
BRANCH 1 5
ATOM      5  CA  SER B   3      -0.612  20.268   3.563  1.00 29.76 LIG 0.20  C 
BRANCH 5 6
ATOM      6  CB  SER B   3       0.274  20.952   4.608  1.00 29.85 LIG 0.20  C 
BRANCH 6 7
ATOM      7 OG   SER B   3       0.671  22.250   4.152  1.00 32.14 LIG-0.40  OA
ATOM      8 HG   SER B   3       1.443  22.207   3.825  1.00 32.14 LIG 0.21  HD
ENDBRANCH 6 7
ENDBRANCH 5 6
BRANCH 5 9
ATOM      9  N   SER B   3      -0.992  21.227   2.548  1.00 30.15 LIG-0.34  N 
ATOM     10  C   ALA B   2      -0.305  21.366   1.420  1.00 30.60 LIG 0.24  C 
ATOM     11 O    ALA B   2       0.605  20.611   1.097  1.00 30.40 LIG-0.27  OA
ATOM     12 H    SER B   3      -1.692  21.689   2.742  1.00 30.15 LIG 0.16  HD
BRANCH 10 13
ATOM     13  CA  ALA B   2      -0.707  22.543   0.538  1.00 31.29 LIG 0.17  C 
ATOM     14  CB  ALA B   2      -0.026  23.810   1.031  1.00 31.24 LIG 0.04  C 
BRANCH 13 15
ATOM     15  N   ALA B   2      -2.152  22.717   0.590  1.00 32.02 LIG-0.35  N 
ATOM     16  C   ALA B   1      -3.010  21.736   0.319  1.00 33.14 LIG 0.25  C 
ATOM     17 O    ALA B   1      -2.671  20.641  -0.147  1.00 33.78 LIG-0.27  OA
ATOM     18 H    ALA B   2      -2.399  23.511   0.812  1.00 32.02 LIG 0.16  HD
BRANCH 16 19
ATOM     19  CA  ALA B   1      -4.478  22.037   0.583  1.00 33.48 LIG 0.27  C 
ATOM     20  CB  ALA B   1      -5.289  20.768   0.522  1.00 33.96 LIG 0.05  C 
BRANCH 19 21
ATOM     21  N   ALA B   1      -5.047  23.062  -0.354  1.00 33.82 LIG-0.07  N 
ATOM     22 H3   ALA B   1      -4.686  22.961  -1.162  1.00 33.82 LIG 0.28  HD
ATOM     23 H2   ALA B   1      -4.864  23.879  -0.050  1.00 33.82 LIG 0.28  HD
ATOM     24 H1   ALA B   1      -5.929  22.958  -0.409  1.00 33.82 LIG 0.28  HD
ENDBRANCH 19 21
ENDBRANCH 16 19
ENDBRANCH 13 15
ENDBRANCH 10 13
ENDBRANCH 5 9
ENDBRANCH 1 5
BRANCH 3 25
ATOM     25  CA  ALA B   4      -2.826  17.667   5.264  1.00 28.07 LIG 0.17  C 
ATOM     26  CB  ALA B   4      -2.465  16.181   5.351  1.00 28.13 LIG 0.04  C 
BRANCH 25 27
ATOM     27  C   ALA B   4      -3.140  18.180   6.654  1.00 27.72 LIG 0.24  C 
ATOM     28  N   SER B   5      -4.216  17.652   7.231  1.00 27.70 LIG-0.34  N 
ATOM     29 H    SER B   5      -4.827  17.223   6.804  1.00 27.70 LIG 0.16  HD
ATOM     30 O    ALA B   4      -2.413  19.011   7.197  1.00 26.03 LIG-0.27  OA
BRANCH 28 31
ATOM     31  CA  SER B   5      -4.450  17.760   8.667  1.00 28.70 LIG 0.20  C 
BRANCH 31 32
ATOM     32  CB  SER B   5      -3.124  17.639   9.440  1.00 28.19 LIG 0.20  C 
BRANCH 32 33
ATOM     33 OG   SER B   5      -2.423  16.430   9.130  1.00 31.03 LIG-0.40  OA
ATOM     34 HG   SER B   5      -1.663  16.617   8.826  1.00 31.03 LIG 0.21  HD
ENDBRANCH 32 33
ENDBRANCH 31 32
BRANCH 31 35
ATOM     35  C   SER B   5      -5.107  19.116   8.957  1.00 28.90 LIG 0.24  C 
ATOM     36 O    SER B   5      -6.329  19.210   9.084  1.00 29.19 LIG-0.27  OA
ATOM     37  N   ALA B   6      -4.299  20.158   9.099  1.00 29.26 LIG-0.35  N 
ATOM     38 H    ALA B   6      -3.440  20.109   9.074  1.00 29.26 LIG 0.16  HD
BRANCH 37 39
ATOM     39  CA  ALA B   6      -4.822  21.498   9.314  1.00 30.00 LIG 0.16  C 
ATOM     40  CB  ALA B   6      -5.960  21.825   8.323  1.00 31.04 LIG 0.04  C 
BRANCH 39 41
ATOM     41  C   ALA B   6      -5.302  21.689  10.730  1.00 30.03 LIG 0.22  C 
ATOM     42 O    ALA B   6      -4.678  21.162  11.655  1.00 31.65 LIG-0.29  OA
ENDBRANCH 39 41
ENDBRANCH 37 39
ENDBRANCH 31 35
ENDBRANCH 28 31
ENDBRANCH 25 27
ENDBRANCH 3 25
TORSDOF 16
ENDMDL
MODEL 8
USER: ADFR SOLUTION from run 19
USER: SCORE 12.509977 LL:  -2.649 LR: -11.852 RR:   0.000 FEB:  -7.080
USER: RMSD 4.052719
USER: SEED 18
USER: STATUS no improvement in best in 2 clusters for 5 generations
USER: GENES 18
USER: genes 0 Translation |==|  0.59520 0.60950 0.49508
USER: genes 1 Rotation |==|  0.82788 0.82951 0.34158 0.59392
USER: genes 2 Torsion [N]-C--CA-[N] |==|  0.75765
USER: genes 3 Torsion [C]-CA--CB-[OG] |==|  0.71844
USER: genes 4 Torsion [CA]-CB--OG-[HG] |==|  0.27287
USER: genes 5 Torsion [C]-CA--N-[C] |==|  0.87455
USER: genes 6 Torsion [N]-C--CA-[N] |==|  0.97565
USER: genes 7 Torsion [C]-CA--N-[C] |==|  0.79738
USER: genes 8 Torsion [N]-C--CA-[N] |==|  0.68396
USER: genes 9 Torsion [C]-CA--N-[H1] |==|  0.54273
USER: genes 10 Torsion [C]-N--CA-[CB] |==|  0.76880
USER: genes 11 Torsion [N]-CA--C-[N] |==|  0.17832
USER: genes 12 Torsion [C]-N--CA-[CB] |==|  0.14521
USER: genes 13 Torsion [N]-CA--CB-[OG] |==|  0.72848
USER: genes 14 Torsion [CA]-CB--OG-[HG] |==|  0.23828
USER: genes 15 Torsion [N]-CA--C-[N] |==|  0.63008
USER: genes 16 Torsion [C]-N--CA-[C] |==|  0.53929
USER: genes 17 Torsion [N]-CA--C-[O] |==|  0.80439
ROOT
ATOM      1  C   SER B   3      -1.154  20.582   4.057  1.00 29.46 LIG 0.24  C 
ATOM      2 O    SER B   3      -0.536  20.163   5.039  1.00 29.29 LIG-0.27  OA
ATOM      3  N   ALA B   4      -2.053  19.863   3.387  1.00 28.70 LIG-0.35  N 
ATOM      4 H    ALA B   4      -2.459  20.150   2.687  1.00 28.70 LIG 0.16  HD
ENDROOT
BRANCH 1 5
ATOM      5  CA  SER B   3      -0.919  21.999   3.540  1.00 29.76 LIG 0.20  C 
BRANCH 5 6
ATOM      6  CB  SER B   3      -2.207  22.619   2.992  1.00 29.85 LIG 0.20  C 
BRANCH 6 7
ATOM      7 OG   SER B   3      -2.217  22.562   1.561  1.00 32.14 LIG-0.40  OA
ATOM      8 HG   SER B   3      -2.671  21.901   1.311  1.00 32.14 LIG 0.21  HD
ENDBRANCH 6 7
ENDBRANCH 5 6
BRANCH 5 9
ATOM      9  N   SER B   3       0.092  21.987   2.505  1.00 30.15 LIG-0.34  N 
ATOM     10  C   ALA B   2       1.222  21.302   2.635  1.00 30.60 LIG 0.24  C 
ATOM     11 O    ALA B   2       1.431  20.530   3.564  1.00 30.40 LIG-0.27  OA
ATOM     12 H    SER B   3      -0.105  22.457   1.811  1.00 30.15 LIG 0.16  HD
BRANCH 10 13
ATOM     13  CA  ALA B   2       2.271  21.539   1.553  1.00 31.29 LIG 0.17  C 
ATOM     14  CB  ALA B   2       3.463  22.275   2.147  1.00 31.24 LIG 0.04  C 
BRANCH 13 15
ATOM     15  N   ALA B   2       1.692  22.339   0.482  1.00 32.02 LIG-0.35  N 
ATOM     16  C   ALA B   1       0.808  21.855  -0.386  1.00 33.14 LIG 0.25  C 
ATOM     17 O    ALA B   1       0.512  20.655  -0.464  1.00 33.78 LIG-0.27  OA
ATOM     18 H    ALA B   2       1.974  23.152   0.464  1.00 32.02 LIG 0.16  HD
BRANCH 16 19
ATOM     19  CA  ALA B   1       0.176  22.864  -1.334  1.00 33.48 LIG 0.27  C 
ATOM     20  CB  ALA B   1       0.889  24.188  -1.236  1.00 33.96 LIG 0.05  C 
BRANCH 19 21
ATOM     21  N   ALA B   1      -1.296  23.048  -1.102  1.00 33.82 LIG-0.07  N 
ATOM     22 H3   ALA B   1      -1.423  23.538  -0.370  1.00 33.82 LIG 0.28  HD
ATOM     23 H2   ALA B   1      -1.682  22.253  -0.995  1.00 33.82 LIG 0.28  HD
ATOM     24 H1   ALA B   1      -1.657  23.462  -1.802  1.00 33.82 LIG 0.28  HD
ENDBRANCH 19 21
ENDBRANCH 16 19
ENDBRANCH 13 15
ENDBRANCH 10 13
ENDBRANCH 5 9
ENDBRANCH 1 5
BRANCH 3 25
ATOM     25  CA  ALA B   4      -2.440  18.507   3.780  1.00 28.07 LIG 0.17  C 
ATOM     26  CB  ALA B   4      -1.434  17.491   3.231  1.00 28.13 LIG 0.04  C 
BRANCH 25 27
ATOM     27  C   ALA B   4      -2.493  18.384   5.289  1.00 27.72 LIG 0.24  C 
ATOM     28  N   SER B   5      -3.412  19.131   5.894  1.00 27.70 LIG-0.34  N 
ATOM     29 H    SER B   5      -3.807  19.799   5.522  1.00 27.70 LIG 0.16  HD
ATOM     30 O    ALA B   4      -1.740  17.614   5.884  1.00 26.03 LIG-0.27  OA
BRANCH 28 31
ATOM     31  CA  SER B   5      -3.832  18.872   7.266  1.00 28.70 LIG 0.20  C 
BRANCH 31 32
ATOM     32  CB  SER B   5      -2.610  18.791   8.198  1.00 28.19 LIG 0.20  C 
BRANCH 32 33
ATOM     33 OG   SER B   5      -2.204  17.442   8.447  1.00 31.03 LIG-0.40  OA
ATOM     34 HG   SER B   5      -1.688  17.187   7.835  1.00 31.03 LIG 0.21  HD
ENDBRANCH 32 33
ENDBRANCH 31 32
BRANCH 31 35
ATOM     35  C   SER B   5      -4.765  20.003   7.717  1.00 28.90 LIG 0.24  C 
ATOM     36 O    SER B   5      -5.706  20.365   7.006  1.00 29.19 LIG-0.27  OA
ATOM     37  N   ALA B   6      -4.532  20.536   8.908  1.00 29.26 LIG-0.35  N 
ATOM     38 H    ALA B   6      -3.921  20.263   9.447  1.00 29.26 LIG 0.16  HD
BRANCH 37 39
ATOM     39  CA  ALA B   6      -5.319  21.656   9.403  1.00 30.00 LIG 0.16  C 
ATOM     40  CB  ALA B   6      -6.758  21.222   9.755  1.00 31.04 LIG 0.04  C 
BRANCH 39 41
ATOM     41  C   ALA B   6      -4.671  22.307  10.599  1.00 30.03 LIG 0.22  C 
ATOM     42 O    ALA B   6      -4.646  21.702  11.675  1.00 31.65 LIG-0.29  OA
ENDBRANCH 39 41
ENDBRANCH 37 39
ENDBRANCH 31 35
ENDBRANCH 28 31
ENDBRANCH 25 27
ENDBRANCH 3 25
TORSDOF 16
ENDMDL
MODEL 9
USER: ADFR SOLUTION from run 71
USER: SCORE 12.587493 LL:  -2.369 LR: -11.794 RR:   0.000 FEB:  -7.021
USER: RMSD 3.913583
USER: SEED 70
USER: STATUS no improvement in best in 6 clusters for 5 generations
USER: GENES 18
USER: genes 0 Translation |==|  0.51526 0.52026 0.53258
USER: genes 1 Rotation |==|  0.63897 0.62023 0.50058 0.96501
USER: genes 2 Torsion [N]-C--CA-[N] |==|  0.46101
USER: genes 3 Torsion [C]-CA--CB-[OG] |==|  0.41699
USER: genes 4 Torsion [CA]-CB--OG-[HG] |==|  0.78814
USER: genes 5 Torsion [C]-CA--N-[C] |==|  0.68389
USER: genes 6 Torsion [N]-C--CA-[N] |==|  0.37271
USER: genes 7 Torsion [C]-CA--N-[C] |==|  0.87110
USER: genes 8 Torsion [N]-C--CA-[N] |==|  0.02721
USER: genes 9 Torsion [C]-CA--N-[H1] |==|  0.24097
USER: genes 10 Torsion [C]-N--CA-[CB] |==|  0.46792
USER: genes 11 Torsion [N]-CA--C-[N] |==|  0.48503
USER: genes 12 Torsion [C]-N--CA-[CB] |==|  0.89444
USER: genes 13 Torsion [N]-CA--CB-[OG] |==|  0.82373
USER: genes 14 Torsion [CA]-CB--OG-[HG] |==|  0.22255
USER: genes 15 Torsion [N]-CA--C-[N] |==|  0.84527
USER: genes 16 Torsion [C]-N--CA-[C] |==|  0.15791
USER: genes 17 Torsion [N]-CA--C-[O] |==|  0.04150
ROOT
ATOM      1  C   SER B   3      -2.533  19.243   4.957  1.00 29.46 LIG 0.24  C 
ATOM      2 O    SER B   3      -3.604  19.779   5.252  1.00 29.29 LIG-0.27  OA
ATOM      3  N   ALA B   4      -2.154  18.049   5.409  1.00 28.70 LIG-0.35  N 
ATOM      4 H    ALA B   4      -1.394  17.693   5.222  1.00 28.70 LIG 0.16  HD
ENDROOT
BRANCH 1 5
ATOM      5  CA  SER B   3      -1.550  19.940   4.019  1.00 29.76 LIG 0.20  C 
BRANCH 5 6
ATOM      6  CB  SER B   3      -0.318  20.451   4.772  1.00 29.85 LIG 0.20  C 
BRANCH 6 7
ATOM      7 OG   SER B   3       0.826  20.452   3.912  1.00 32.14 LIG-0.40  OA
ATOM      8 HG   SER B   3       1.109  19.666   3.822  1.00 32.14 LIG 0.21  HD
ENDBRANCH 6 7
ENDBRANCH 5 6
BRANCH 5 9
ATOM      9  N   SER B   3      -2.202  21.045   3.350  1.00 30.15 LIG-0.34  N 
ATOM     10  C   ALA B   2      -2.416  21.045   2.039  1.00 30.60 LIG 0.24  C 
ATOM     11 O    ALA B   2      -2.206  20.068   1.329  1.00 30.40 LIG-0.27  OA
ATOM     12 H    SER B   3      -2.434  21.688   3.872  1.00 30.15 LIG 0.16  HD
BRANCH 10 13
ATOM     13  CA  ALA B   2      -2.935  22.353   1.451  1.00 31.29 LIG 0.17  C 
ATOM     14  CB  ALA B   2      -4.411  22.212   1.111  1.00 31.24 LIG 0.04  C 
BRANCH 13 15
ATOM     15  N   ALA B   2      -2.187  22.671   0.242  1.00 32.02 LIG-0.35  N 
ATOM     16  C   ALA B   1      -0.860  22.601   0.172  1.00 33.14 LIG 0.25  C 
ATOM     17 O    ALA B   1      -0.132  22.411   1.155  1.00 33.78 LIG-0.27  OA
ATOM     18 H    ALA B   2      -2.683  22.908  -0.421  1.00 32.02 LIG 0.16  HD
BRANCH 16 19
ATOM     19  CA  ALA B   1      -0.249  22.802  -1.207  1.00 33.48 LIG 0.27  C 
ATOM     20  CB  ALA B   1       0.914  23.756  -1.128  1.00 33.96 LIG 0.05  C 
BRANCH 19 21
ATOM     21  N   ALA B   1      -1.243  23.280  -2.227  1.00 33.82 LIG-0.07  N 
ATOM     22 H3   ALA B   1      -2.043  22.932  -2.049  1.00 33.82 LIG 0.28  HD
ATOM     23 H2   ALA B   1      -0.984  23.022  -3.039  1.00 33.82 LIG 0.28  HD
ATOM     24 H1   ALA B   1      -1.293  24.168  -2.200  1.00 33.82 LIG 0.28  HD
ENDBRANCH 19 21
ENDBRANCH 16 19
ENDBRANCH 13 15
ENDBRANCH 10 13
ENDBRANCH 5 9
ENDBRANCH 1 5
BRANCH 3 25
ATOM     25  CA  ALA B   4      -2.998  17.221   6.271  1.00 28.07 LIG 0.17  C 
ATOM     26  CB  ALA B   4      -2.416  15.808   6.382  1.00 28.13 LIG 0.04  C 
BRANCH 25 27
ATOM     27  C   ALA B   4      -3.098  17.824   7.657  1.00 27.72 LIG 0.24  C 
ATOM     28  N   SER B   5      -3.932  17.210   8.491  1.00 27.70 LIG-0.34  N 
ATOM     29 H    SER B   5      -4.542  16.658   8.239  1.00 27.70 LIG 0.16  HD
ATOM     30 O    ALA B   4      -2.417  18.800   7.968  1.00 26.03 LIG-0.27  OA
BRANCH 28 31
ATOM     31  CA  SER B   5      -3.880  17.431   9.932  1.00 28.70 LIG 0.20  C 
BRANCH 31 32
ATOM     32  CB  SER B   5      -2.421  17.564  10.404  1.00 28.19 LIG 0.20  C 
BRANCH 32 33
ATOM     33 OG   SER B   5      -1.669  16.365  10.192  1.00 31.03 LIG-0.40  OA
ATOM     34 HG   SER B   5      -1.426  16.325   9.388  1.00 31.03 LIG 0.21  HD
ENDBRANCH 32 33
ENDBRANCH 31 32
BRANCH 31 35
ATOM     35  C   SER B   5      -4.660  18.710  10.262  1.00 28.90 LIG 0.24  C 
ATOM     36 O    SER B   5      -5.564  18.699  11.100  1.00 29.19 LIG-0.27  OA
ATOM     37  N   ALA B   6      -4.290  19.819   9.636  1.00 29.26 LIG-0.35  N 
ATOM     38 H    ALA B   6      -3.625  19.866   9.092  1.00 29.26 LIG 0.16  HD
BRANCH 37 39
ATOM     39  CA  ALA B   6      -5.003  21.072   9.829  1.00 30.00 LIG 0.16  C 
ATOM     40  CB  ALA B   6      -6.437  20.998   9.264  1.00 31.04 LIG 0.04  C 
BRANCH 39 41
ATOM     41  C   ALA B   6      -5.044  21.472  11.282  1.00 30.03 LIG 0.22  C 
ATOM     42 O    ALA B   6      -4.285  20.917  12.083  1.00 31.65 LIG-0.29  OA
ENDBRANCH 39 41
ENDBRANCH 37 39
ENDBRANCH 31 35
ENDBRANCH 28 31
ENDBRANCH 25 27
ENDBRANCH 3 25
TORSDOF 16
ENDMDL
MODEL 10
USER: ADFR SOLUTION from run 98
USER: SCORE 13.525112 LL:  -2.482 LR: -11.694 RR:   0.000 FEB:  -6.921
USER: RMSD 6.471351
USER: SEED 97
USER: STATUS no improvement in best in 5 clusters for 5 generations
USER: GENES 18
USER: genes 0 Translation |==|  0.17551 0.69090 0.60084
USER: genes 1 Rotation |==|  0.26702 0.68835 0.82929 0.72762
USER: genes 2 Torsion [N]-C--CA-[N] |==|  0.32781
USER: genes 3 Torsion [C]-CA--CB-[OG] |==|  0.40468
USER: genes 4 Torsion [CA]-CB--OG-[HG] |==|  0.00814
USER: genes 5 Torsion [C]-CA--N-[C] |==|  0.82404
USER: genes 6 Torsion [N]-C--CA-[N] |==|  0.37189
USER: genes 7 Torsion [C]-CA--N-[C] |==|  0.82414
USER: genes 8 Torsion [N]-C--CA-[N] |==|  0.55667
USER: genes 9 Torsion [C]-CA--N-[H1] |==|  0.35306
USER: genes 10 Torsion [C]-N--CA-[CB] |==|  0.77120
USER: genes 11 Torsion [N]-CA--C-[N] |==|  0.23697
USER: genes 12 Torsion [C]-N--CA-[CB] |==|  0.86500
USER: genes 13 Torsion [N]-CA--CB-[OG] |==|  0.44984
USER: genes 14 Torsion [CA]-CB--OG-[HG] |==|  0.07451
USER: genes 15 Torsion [N]-CA--C-[N] |==|  0.34444
USER: genes 16 Torsion [C]-N--CA-[C] |==|  0.45908
USER: genes 17 Torsion [N]-CA--C-[O] |==|  0.89288
ROOT
ATOM      1  C   SER B   3      -8.393  21.803   6.595  1.00 29.46 LIG 0.24  C 
ATOM      2 O    SER B   3      -8.537  20.914   7.439  1.00 29.29 LIG-0.27  OA
ATOM      3  N   ALA B   4      -8.001  23.042   6.885  1.00 28.70 LIG-0.35  N 
ATOM      4 H    ALA B   4      -7.931  23.664   6.297  1.00 28.70 LIG 0.16  HD
ENDROOT
BRANCH 1 5
ATOM      5  CA  SER B   3      -8.661  21.520   5.119  1.00 29.76 LIG 0.20  C 
BRANCH 5 6
ATOM      6  CB  SER B   3     -10.107  21.078   4.882  1.00 29.85 LIG 0.20  C 
BRANCH 6 7
ATOM      7 OG   SER B   3     -10.576  21.562   3.618  1.00 32.14 LIG-0.40  OA
ATOM      8 HG   SER B   3      -9.953  21.966   3.225  1.00 32.14 LIG 0.21  HD
ENDBRANCH 6 7
ENDBRANCH 5 6
BRANCH 5 9
ATOM      9  N   SER B   3      -7.756  20.496   4.639  1.00 30.15 LIG-0.34  N 
ATOM     10  C   ALA B   2      -6.442  20.679   4.609  1.00 30.60 LIG 0.24  C 
ATOM     11 O    ALA B   2      -5.892  21.656   5.105  1.00 30.40 LIG-0.27  OA
ATOM     12 H    SER B   3      -8.145  19.774   4.380  1.00 30.15 LIG 0.16  HD
BRANCH 10 13
ATOM     13  CA  ALA B   2      -5.636  19.594   3.901  1.00 31.29 LIG 0.17  C 
ATOM     14  CB  ALA B   2      -4.909  18.741   4.930  1.00 31.24 LIG 0.04  C 
BRANCH 13 15
ATOM     15  N   ALA B   2      -4.663  20.214   3.012  1.00 32.02 LIG-0.35  N 
ATOM     16  C   ALA B   1      -5.011  20.963   1.968  1.00 33.14 LIG 0.25  C 
ATOM     17 O    ALA B   1      -6.176  21.077   1.566  1.00 33.78 LIG-0.27  OA
ATOM     18 H    ALA B   2      -3.846  20.052   3.224  1.00 32.02 LIG 0.16  HD
BRANCH 16 19
ATOM     19  CA  ALA B   1      -3.877  21.673   1.244  1.00 33.48 LIG 0.27  C 
ATOM     20  CB  ALA B   1      -2.824  22.112   2.228  1.00 33.96 LIG 0.05  C 
BRANCH 19 21
ATOM     21  N   ALA B   1      -4.342  22.843   0.425  1.00 33.82 LIG-0.07  N 
ATOM     22 H3   ALA B   1      -5.206  22.991   0.582  1.00 33.82 LIG 0.28  HD
ATOM     23 H2   ALA B   1      -4.225  22.666  -0.440  1.00 33.82 LIG 0.28  HD
ATOM     24 H1   ALA B   1      -3.873  23.566   0.647  1.00 33.82 LIG 0.28  HD
ENDBRANCH 19 21
ENDBRANCH 16 19
ENDBRANCH 13 15
ENDBRANCH 10 13
ENDBRANCH 5 9
ENDBRANCH 1 5
BRANCH 3 25
ATOM     25  CA  ALA B   4      -7.650  23.467   8.241  1.00 28.07 LIG 0.17  C 
ATOM     26  CB  ALA B   4      -8.915  23.820   9.029  1.00 28.13 LIG 0.04  C 
BRANCH 25 27
ATOM     27  C   ALA B   4      -6.905  22.367   8.969  1.00 27.72 LIG 0.24  C 
ATOM     28  N   SER B   5      -5.593  22.327   8.760  1.00 27.70 LIG-0.34  N 
ATOM     29 H    SER B   5      -5.198  22.728   8.109  1.00 27.70 LIG 0.16  HD
ATOM     30 O    ALA B   4      -7.501  21.595   9.719  1.00 26.03 LIG-0.27  OA
BRANCH 28 31
ATOM     31  CA  SER B   5      -4.697  21.583   9.638  1.00 28.70 LIG 0.20  C 
BRANCH 31 32
ATOM     32  CB  SER B   5      -4.984  21.920  11.112  1.00 28.19 LIG 0.20  C 
BRANCH 32 33
ATOM     33 OG   SER B   5      -4.444  20.943  12.008  1.00 31.03 LIG-0.40  OA
ATOM     34 HG   SER B   5      -3.780  20.572  11.651  1.00 31.03 LIG 0.21  HD
ENDBRANCH 32 33
ENDBRANCH 31 32
BRANCH 31 35
ATOM     35  C   SER B   5      -4.900  20.082   9.391  1.00 28.90 LIG 0.24  C 
ATOM     36 O    SER B   5      -6.022  19.577   9.468  1.00 29.19 LIG-0.27  OA
ATOM     37  N   ALA B   6      -3.827  19.377   9.059  1.00 29.26 LIG-0.35  N 
ATOM     38 H    ALA B   6      -3.045  19.715   8.941  1.00 29.26 LIG 0.16  HD
BRANCH 37 39
ATOM     39  CA  ALA B   6      -3.899  17.937   8.865  1.00 30.00 LIG 0.16  C 
ATOM     40  CB  ALA B   6      -5.170  17.536   8.087  1.00 31.04 LIG 0.04  C 
BRANCH 39 41
ATOM     41  C   ALA B   6      -2.676  17.408   8.159  1.00 30.03 LIG 0.22  C 
ATOM     42 O    ALA B   6      -2.171  18.071   7.248  1.00 31.65 LIG-0.29  OA
ENDBRANCH 39 41
ENDBRANCH 37 39
ENDBRANCH 31 35
ENDBRANCH 28 31
ENDBRANCH 25 27
ENDBRANCH 3 25
TORSDOF 16
ENDMDL
MODEL 11
USER: ADFR SOLUTION from run 59
USER: SCORE 12.077516 LL:  -3.644 LR: -11.658 RR:   0.000 FEB:  -6.885
USER: RMSD 5.049445
USER: SEED 58
USER: STATUS 1 or 2 clusters left
USER: GENES 18
USER: genes 0 Translation |==|  0.49605 0.45407 0.63235
USER: genes 1 Rotation |==|  0.66703 0.70296 0.18039 0.78064
USER: genes 2 Torsion [N]-C--CA-[N] |==|  0.55643
USER: genes 3 Torsion [C]-CA--CB-[OG] |==|  0.66793
USER: genes 4 Torsion [CA]-CB--OG-[HG] |==|  0.10174
USER: genes 5 Torsion [C]-CA--N-[C] |==|  0.64961
USER: genes 6 Torsion [N]-C--CA-[N] |==|  0.51654
USER: genes 7 Torsion [C]-CA--N-[C] |==|  0.76370
USER: genes 8 Torsion [N]-C--CA-[N] |==|  0.53861
USER: genes 9 Torsion [C]-CA--N-[H1] |==|  0.99411
USER: genes 10 Torsion [C]-N--CA-[CB] |==|  0.87466
USER: genes 11 Torsion [N]-CA--C-[N] |==|  0.82246
USER: genes 12 Torsion [C]-N--CA-[CB] |==|  0.41911
USER: genes 13 Torsion [N]-CA--CB-[OG] |==|  0.80867
USER: genes 14 Torsion [CA]-CB--OG-[HG] |==|  0.19376
USER: genes 15 Torsion [N]-CA--C-[N] |==|  0.05254
USER: genes 16 Torsion [C]-N--CA-[C] |==|  0.53116
USER: genes 17 Torsion [N]-CA--C-[O] |==|  0.99081
ROOT
ATOM      1  C   SER B   3      -2.864  18.250   7.351  1.00 29.46 LIG 0.24  C 
ATOM      2 O    SER B   3      -2.272  19.164   7.930  1.00 29.29 LIG-0.27  OA
ATOM      3  N   ALA B   4      -3.546  17.295   7.981  1.00 28.70 LIG-0.35  N 
ATOM      4 H    ALA B   4      -3.932  16.644   7.573  1.00 28.70 LIG 0.16  HD
ENDROOT
BRANCH 1 5
ATOM      5  CA  SER B   3      -2.854  18.163   5.827  1.00 29.76 LIG 0.20  C 
BRANCH 5 6
ATOM      6  CB  SER B   3      -2.764  16.713   5.345  1.00 29.85 LIG 0.20  C 
BRANCH 6 7
ATOM      7 OG   SER B   3      -1.580  16.519   4.564  1.00 32.14 LIG-0.40  OA
ATOM      8 HG   SER B   3      -0.954  16.977   4.887  1.00 32.14 LIG 0.21  HD
ENDBRANCH 6 7
ENDBRANCH 5 6
BRANCH 5 9
ATOM      9  N   SER B   3      -1.740  18.920   5.295  1.00 30.15 LIG-0.34  N 
ATOM     10  C   ALA B   2      -1.907  19.862   4.375  1.00 30.60 LIG 0.24  C 
ATOM     11 O    ALA B   2      -3.011  20.252   4.012  1.00 30.40 LIG-0.27  OA
ATOM     12 H    SER B   3      -0.976  18.705   5.627  1.00 30.15 LIG 0.16  HD
BRANCH 10 13
ATOM     13  CA  ALA B   2      -0.629  20.436   3.772  1.00 31.29 LIG 0.17  C 
ATOM     14  CB  ALA B   2       0.285  20.930   4.883  1.00 31.24 LIG 0.04  C 
BRANCH 13 15
ATOM     15  N   ALA B   2      -0.964  21.546   2.891  1.00 32.02 LIG-0.35  N 
ATOM     16  C   ALA B   1      -1.310  21.380   1.616  1.00 33.14 LIG 0.25  C 
ATOM     17 O    ALA B   1      -1.232  20.297   1.022  1.00 33.78 LIG-0.27  OA
ATOM     18 H    ALA B   2      -0.917  22.317   3.270  1.00 32.02 LIG 0.16  HD
BRANCH 16 19
ATOM     19  CA  ALA B   1      -1.791  22.624   0.884  1.00 33.48 LIG 0.27  C 
ATOM     20  CB  ALA B   1      -2.707  23.428   1.770  1.00 33.96 LIG 0.05  C 
BRANCH 19 21
ATOM     21  N   ALA B   1      -2.469  22.314  -0.420  1.00 33.82 LIG-0.07  N 
ATOM     22 H3   ALA B   1      -2.046  22.733  -1.082  1.00 33.82 LIG 0.28  HD
ATOM     23 H2   ALA B   1      -3.315  22.590  -0.388  1.00 33.82 LIG 0.28  HD
ATOM     24 H1   ALA B   1      -2.449  21.436  -0.563  1.00 33.82 LIG 0.28  HD
ENDBRANCH 19 21
ENDBRANCH 16 19
ENDBRANCH 13 15
ENDBRANCH 10 13
ENDBRANCH 5 9
ENDBRANCH 1 5
BRANCH 3 25
ATOM     25  CA  ALA B   4      -3.705  17.258   9.435  1.00 28.07 LIG 0.17  C 
ATOM     26  CB  ALA B   4      -2.365  17.540  10.121  1.00 28.13 LIG 0.04  C 
BRANCH 25 27
ATOM     27  C   ALA B   4      -4.717  18.290   9.887  1.00 27.72 LIG 0.24  C 
ATOM     28  N   SER B   5      -4.383  19.558   9.662  1.00 27.70 LIG-0.34  N 
ATOM     29 H    SER B   5      -3.583  19.818   9.483  1.00 27.70 LIG 0.16  HD
ATOM     30 O    ALA B   4      -5.781  17.945  10.400  1.00 26.03 LIG-0.27  OA
BRANCH 28 31
ATOM     31  CA  SER B   5      -5.370  20.631   9.701  1.00 28.70 LIG 0.20  C 
BRANCH 31 32
ATOM     32  CB  SER B   5      -4.711  21.954  10.128  1.00 28.19 LIG 0.20  C 
BRANCH 32 33
ATOM     33 OG   SER B   5      -4.296  21.937  11.498  1.00 31.03 LIG-0.40  OA
ATOM     34 HG   SER B   5      -3.646  21.413  11.587  1.00 31.03 LIG 0.21  HD
ENDBRANCH 32 33
ENDBRANCH 31 32
BRANCH 31 35
ATOM     35  C   SER B   5      -5.992  20.778   8.305  1.00 28.90 LIG 0.24  C 
ATOM     36 O    SER B   5      -6.554  21.824   7.973  1.00 29.19 LIG-0.27  OA
ATOM     37  N   ALA B   6      -5.862  19.751   7.478  1.00 29.26 LIG-0.35  N 
ATOM     38 H    ALA B   6      -5.424  19.034   7.663  1.00 29.26 LIG 0.16  HD
BRANCH 37 39
ATOM     39  CA  ALA B   6      -6.467  19.763   6.155  1.00 30.00 LIG 0.16  C 
ATOM     40  CB  ALA B   6      -5.796  20.807   5.237  1.00 31.04 LIG 0.04  C 
BRANCH 39 41
ATOM     41  C   ALA B   6      -6.420  18.403   5.507  1.00 30.03 LIG 0.22  C 
ATOM     42 O    ALA B   6      -5.850  17.476   6.090  1.00 31.65 LIG-0.29  OA
ENDBRANCH 39 41
ENDBRANCH 37 39
ENDBRANCH 31 35
ENDBRANCH 28 31
ENDBRANCH 25 27
ENDBRANCH 3 25
TORSDOF 16
ENDMDL
MODEL 12
USER: ADFR SOLUTION from run 126
USER: SCORE 12.601413 LL:  -2.383 LR: -11.658 RR:   0.000 FEB:  -6.886
USER: RMSD 8.088397
USER: SEED 125
USER: STATUS no improvement in best in 6 clusters for 5 generations
USER: GENES 18
USER: genes 0 Translation |==|  0.38005 0.62436 0.68147
USER: genes 1 Rotation |==|  0.71918 0.35517 0.78498 0.81586
USER: genes 2 Torsion [N]-C--CA-[N] |==|  0.49953
USER: genes 3 Torsion [C]-CA--CB-[OG] |==|  0.34450
USER: genes 4 Torsion [CA]-CB--OG-[HG] |==|  0.82872
USER: genes 5 Torsion [C]-CA--N-[C] |==|  0.17624
USER: genes 6 Torsion [N]-C--CA-[N] |==|  0.38389
USER: genes 7 Torsion [C]-CA--N-[C] |==|  0.83305
USER: genes 8 Torsion [N]-C--CA-[N] |==|  0.31342
USER: genes 9 Torsion [C]-CA--N-[H1] |==|  0.61400
USER: genes 10 Torsion [C]-N--CA-[CB] |==|  0.15868
USER: genes 11 Torsion [N]-CA--C-[N] |==|  0.07820
USER: genes 12 Torsion [C]-N--CA-[CB] |==|  0.52963
USER: genes 13 Torsion [N]-CA--CB-[OG] |==|  0.70551
USER: genes 14 Torsion [CA]-CB--OG-[HG] |==|  0.21892
USER: genes 15 Torsion [N]-CA--C-[N] |==|  0.44661
USER: genes 16 Torsion [C]-N--CA-[C] |==|  0.20427
USER: genes 17 Torsion [N]-CA--C-[O] |==|  0.15467
ROOT
ATOM      1  C   SER B   3      -4.865  20.804   8.530  1.00 29.46 LIG 0.24  C 
ATOM      2 O    SER B   3      -5.574  20.798   7.521  1.00 29.29 LIG-0.27  OA
ATOM      3  N   ALA B   4      -4.014  19.829   8.843  1.00 28.70 LIG-0.35  N 
ATOM      4 H    ALA B   4      -3.544  19.826   9.562  1.00 28.70 LIG 0.16  HD
ENDROOT
BRANCH 1 5
ATOM      5  CA  SER B   3      -4.920  21.975   9.509  1.00 29.76 LIG 0.20  C 
BRANCH 5 6
ATOM      6  CB  SER B   3      -5.297  21.513  10.919  1.00 29.85 LIG 0.20  C 
BRANCH 6 7
ATOM      7 OG   SER B   3      -4.299  21.924  11.861  1.00 32.14 LIG-0.40  OA
ATOM      8 HG   SER B   3      -3.565  21.567  11.663  1.00 32.14 LIG 0.21  HD
ENDBRANCH 6 7
ENDBRANCH 5 6
BRANCH 5 9
ATOM      9  N   SER B   3      -5.877  22.960   9.050  1.00 30.15 LIG-0.34  N 
ATOM     10  C   ALA B   2      -7.171  22.684   8.942  1.00 30.60 LIG 0.24  C 
ATOM     11 O    ALA B   2      -7.667  21.639   9.347  1.00 30.40 LIG-0.27  OA
ATOM     12 H    SER B   3      -5.533  23.725   8.857  1.00 30.15 LIG 0.16  HD
BRANCH 10 13
ATOM     13  CA  ALA B   2      -8.024  23.752   8.264  1.00 31.29 LIG 0.17  C 
ATOM     14  CB  ALA B   2      -8.779  24.550   9.316  1.00 31.24 LIG 0.04  C 
BRANCH 13 15
ATOM     15  N   ALA B   2      -8.976  23.114   7.364  1.00 32.02 LIG-0.35  N 
ATOM     16  C   ALA B   1      -8.603  22.354   6.337  1.00 33.14 LIG 0.25  C 
ATOM     17 O    ALA B   1      -7.430  22.242   5.959  1.00 33.78 LIG-0.27  OA
ATOM     18 H    ALA B   2      -9.798  23.274   7.559  1.00 32.02 LIG 0.16  HD
BRANCH 16 19
ATOM     19  CA  ALA B   1      -9.719  21.628   5.601  1.00 33.48 LIG 0.27  C 
ATOM     20  CB  ALA B   1      -9.458  20.143   5.593  1.00 33.96 LIG 0.05  C 
BRANCH 19 21
ATOM     21  N   ALA B   1      -9.921  22.126   4.198  1.00 33.82 LIG-0.07  N 
ATOM     22 H3   ALA B   1      -9.537  21.565   3.625  1.00 33.82 LIG 0.28  HD
ATOM     23 H2   ALA B   1      -9.553  22.933   4.114  1.00 33.82 LIG 0.28  HD
ATOM     24 H1   ALA B   1     -10.792  22.178   4.025  1.00 33.82 LIG 0.28  HD
ENDBRANCH 19 21
ENDBRANCH 16 19
ENDBRANCH 13 15
ENDBRANCH 10 13
ENDBRANCH 5 9
ENDBRANCH 1 5
BRANCH 3 25
ATOM     25  CA  ALA B   4      -3.795  18.661   7.988  1.00 28.07 LIG 0.17  C 
ATOM     26  CB  ALA B   4      -3.350  19.104   6.591  1.00 28.13 LIG 0.04  C 
BRANCH 25 27
ATOM     27  C   ALA B   4      -2.732  17.759   8.582  1.00 27.72 LIG 0.24  C 
ATOM     28  N   SER B   5      -2.620  17.799   9.906  1.00 27.70 LIG-0.34  N 
ATOM     29 H    SER B   5      -2.945  18.427  10.396  1.00 27.70 LIG 0.16  HD
ATOM     30 O    ALA B   4      -2.054  17.028   7.861  1.00 26.03 LIG-0.27  OA
BRANCH 28 31
ATOM     31  CA  SER B   5      -1.919  16.758  10.650  1.00 28.70 LIG 0.20  C 
BRANCH 31 32
ATOM     32  CB  SER B   5      -2.169  16.914  12.161  1.00 28.19 LIG 0.20  C 
BRANCH 32 33
ATOM     33 OG   SER B   5      -1.026  17.431  12.850  1.00 31.03 LIG-0.40  OA
ATOM     34 HG   SER B   5      -0.981  18.262  12.735  1.00 31.03 LIG 0.21  HD
ENDBRANCH 32 33
ENDBRANCH 31 32
BRANCH 31 35
ATOM     35  C   SER B   5      -2.420  15.390  10.172  1.00 28.90 LIG 0.24  C 
ATOM     36 O    SER B   5      -3.478  15.289   9.546  1.00 29.19 LIG-0.27  OA
ATOM     37  N   ALA B   6      -1.650  14.343  10.431  1.00 29.26 LIG-0.35  N 
ATOM     38 H    ALA B   6      -0.881  14.393  10.813  1.00 29.26 LIG 0.16  HD
BRANCH 37 39
ATOM     39  CA  ALA B   6      -2.061  12.993  10.076  1.00 30.00 LIG 0.16  C 
ATOM     40  CB  ALA B   6      -3.492  12.692  10.571  1.00 31.04 LIG 0.04  C 
BRANCH 39 41
ATOM     41  C   ALA B   6      -1.970  12.754   8.590  1.00 30.03 LIG 0.22  C 
ATOM     42 O    ALA B   6      -0.895  12.945   8.013  1.00 31.65 LIG-0.29  OA
ENDBRANCH 39 41
ENDBRANCH 37 39
ENDBRANCH 31 35
ENDBRANCH 28 31
ENDBRANCH 25 27
ENDBRANCH 3 25
TORSDOF 16
ENDMDL
MODEL 13
USER: ADFR SOLUTION from run 138
USER: SCORE 11.946633 LL:  -2.452 LR: -11.625 RR:   0.000 FEB:  -6.853
USER: RMSD 4.681159
USER: SEED 137
USER: STATUS no improvement in best in 6 clusters for 5 generations
USER: GENES 18
USER: genes 0 Translation |==|  0.49255 0.49277 0.59664
USER: genes 1 Rotation |==|  0.21806 0.45576 0.90993 0.52268
USER: genes 2 Torsion [N]-C--CA-[N] |==|  0.33281
USER: genes 3 Torsion [C]-CA--CB-[OG] |==|  0.79970
USER: genes 4 Torsion [CA]-CB--OG-[HG] |==|  0.92732
USER: genes 5 Torsion [C]-CA--N-[C] |==|  0.65455
USER: genes 6 Torsion [N]-C--CA-[N] |==|  0.42818
USER: genes 7 Torsion [C]-CA--N-[C] |==|  0.65860
USER: genes 8 Torsion [N]-C--CA-[N] |==|  0.92317
USER: genes 9 Torsion [C]-CA--N-[H1] |==|  0.59108
USER: genes 10 Torsion [C]-N--CA-[CB] |==|  0.54705
USER: genes 11 Torsion [N]-CA--C-[N] |==|  0.27607
USER: genes 12 Torsion [C]-N--CA-[CB] |==|  0.53420
USER: genes 13 Torsion [N]-CA--CB-[OG] |==|  0.76734
USER: genes 14 Torsion [CA]-CB--OG-[HG] |==|  0.06294
USER: genes 15 Torsion [N]-CA--C-[N] |==|  0.76239
USER: genes 16 Torsion [C]-N--CA-[C] |==|  0.72627
USER: genes 17 Torsion [N]-CA--C-[O] |==|  0.94395
ROOT
ATOM      1  C   SER B   3      -2.925  18.831   6.494  1.00 29.46 LIG 0.24  C 
ATOM      2 O    SER B   3      -2.046  18.250   7.137  1.00 29.29 LIG-0.27  OA
ATOM      3  N   ALA B   4      -3.973  19.432   7.052  1.00 28.70 LIG-0.35  N 
ATOM      4 H    ALA B   4      -4.597  19.810   6.598  1.00 28.70 LIG 0.16  HD
ENDROOT
BRANCH 1 5
ATOM      5  CA  SER B   3      -2.853  18.900   4.971  1.00 29.76 LIG 0.20  C 
BRANCH 5 6
ATOM      6  CB  SER B   3      -2.904  17.506   4.340  1.00 29.85 LIG 0.20  C 
BRANCH 6 7
ATOM      7 OG   SER B   3      -1.673  16.811   4.567  1.00 32.14 LIG-0.40  OA
ATOM      8 HG   SER B   3      -1.052  17.368   4.667  1.00 32.14 LIG 0.21  HD
ENDBRANCH 6 7
ENDBRANCH 5 6
BRANCH 5 9
ATOM      9  N   SER B   3      -1.638  19.572   4.562  1.00 30.15 LIG-0.34  N 
ATOM     10  C   ALA B   2      -1.658  20.638   3.770  1.00 30.60 LIG 0.24  C 
ATOM     11 O    ALA B   2      -2.693  21.207   3.442  1.00 30.40 LIG-0.27  OA
ATOM     12 H    SER B   3      -0.917  19.222   4.876  1.00 30.15 LIG 0.16  HD
BRANCH 10 13
ATOM     13  CA  ALA B   2      -0.300  21.119   3.270  1.00 31.29 LIG 0.17  C 
ATOM     14  CB  ALA B   2       0.323  22.053   4.296  1.00 31.24 LIG 0.04  C 
BRANCH 13 15
ATOM     15  N   ALA B   2      -0.470  21.829   2.009  1.00 32.02 LIG-0.35  N 
ATOM     16  C   ALA B   1       0.156  21.475   0.889  1.00 33.14 LIG 0.25  C 
ATOM     17 O    ALA B   1       1.048  20.619   0.845  1.00 33.78 LIG-0.27  OA
ATOM     18 H    ALA B   2      -1.012  22.495   2.056  1.00 32.02 LIG 0.16  HD
BRANCH 16 19
ATOM     19  CA  ALA B   1      -0.261  22.214  -0.374  1.00 33.48 LIG 0.27  C 
ATOM     20  CB  ALA B   1       0.682  23.357  -0.645  1.00 33.96 LIG 0.05  C 
BRANCH 19 21
ATOM     21  N   ALA B   1      -1.678  22.709  -0.326  1.00 33.82 LIG-0.07  N 
ATOM     22 H3   ALA B   1      -1.691  23.545  -0.019  1.00 33.82 LIG 0.28  HD
ATOM     23 H2   ALA B   1      -2.157  22.189   0.215  1.00 33.82 LIG 0.28  HD
ATOM     24 H1   ALA B   1      -2.028  22.689  -1.144  1.00 33.82 LIG 0.28  HD
ENDBRANCH 19 21
ENDBRANCH 16 19
ENDBRANCH 13 15
ENDBRANCH 10 13
ENDBRANCH 5 9
ENDBRANCH 1 5
BRANCH 3 25
ATOM     25  CA  ALA B   4      -4.168  19.510   8.501  1.00 28.07 LIG 0.17  C 
ATOM     26  CB  ALA B   4      -5.622  19.870   8.820  1.00 28.13 LIG 0.04  C 
BRANCH 25 27
ATOM     27  C   ALA B   4      -3.832  18.186   9.155  1.00 27.72 LIG 0.24  C 
ATOM     28  N   SER B   5      -2.626  18.109   9.710  1.00 27.70 LIG-0.34  N 
ATOM     29 H    SER B   5      -1.986  18.657   9.542  1.00 27.70 LIG 0.16  HD
ATOM     30 O    ALA B   4      -4.654  17.270   9.178  1.00 26.03 LIG-0.27  OA
BRANCH 28 31
ATOM     31  CA  SER B   5      -2.287  17.065  10.671  1.00 28.70 LIG 0.20  C 
BRANCH 31 32
ATOM     32  CB  SER B   5      -0.956  17.390  11.372  1.00 28.19 LIG 0.20  C 
BRANCH 32 33
ATOM     33 OG   SER B   5       0.179  16.975  10.604  1.00 31.03 LIG-0.40  OA
ATOM     34 HG   SER B   5      -0.038  16.912   9.795  1.00 31.03 LIG 0.21  HD
ENDBRANCH 32 33
ENDBRANCH 31 32
BRANCH 31 35
ATOM     35  C   SER B   5      -3.416  16.962  11.704  1.00 28.90 LIG 0.24  C 
ATOM     36 O    SER B   5      -4.310  16.122  11.580  1.00 29.19 LIG-0.27  OA
ATOM     37  N   ALA B   6      -3.359  17.787  12.741  1.00 29.26 LIG-0.35  N 
ATOM     38 H    ALA B   6      -2.717  18.341  12.882  1.00 29.26 LIG 0.16  HD
BRANCH 37 39
ATOM     39  CA  ALA B   6      -4.412  17.814  13.745  1.00 30.00 LIG 0.16  C 
ATOM     40  CB  ALA B   6      -3.828  17.922  15.170  1.00 31.04 LIG 0.04  C 
BRANCH 39 41
ATOM     41  C   ALA B   6      -5.386  18.939  13.502  1.00 30.03 LIG 0.22  C 
ATOM     42 O    ALA B   6      -5.041  19.894  12.800  1.00 31.65 LIG-0.29  OA
ENDBRANCH 39 41
ENDBRANCH 37 39
ENDBRANCH 31 35
ENDBRANCH 28 31
ENDBRANCH 25 27
ENDBRANCH 3 25
TORSDOF 16
ENDMDL
MODEL 14
USER: ADFR SOLUTION from run 154
USER: SCORE 11.868797 LL:  -2.663 LR: -11.609 RR:   0.000 FEB:  -6.836
USER: RMSD 8.348412
USER: SEED 153
USER: STATUS no improvement in best in 11 clusters for 5 generations
USER: GENES 18
USER: genes 0 Translation |==|  0.39328 0.59550 0.67655
USER: genes 1 Rotation |==|  0.79060 0.47091 0.79296 0.78086
USER: genes 2 Torsion [N]-C--CA-[N] |==|  0.40145
USER: genes 3 Torsion [C]-CA--CB-[OG] |==|  0.36666
USER: genes 4 Torsion [CA]-CB--OG-[HG] |==|  0.87028
USER: genes 5 Torsion [C]-CA--N-[C] |==|  0.19475
USER: genes 6 Torsion [N]-C--CA-[N] |==|  0.37254
USER: genes 7 Torsion [C]-CA--N-[C] |==|  0.82204
USER: genes 8 Torsion [N]-C--CA-[N] |==|  0.26271
USER: genes 9 Torsion [C]-CA--N-[H1] |==|  0.62971
USER: genes 10 Torsion [C]-N--CA-[CB] |==|  0.85390
USER: genes 11 Torsion [N]-CA--C-[N] |==|  0.33894
USER: genes 12 Torsion [C]-N--CA-[CB] |==|  0.37778
USER: genes 13 Torsion [N]-CA--CB-[OG] |==|  0.30252
USER: genes 14 Torsion [CA]-CB--OG-[HG] |==|  0.84300
USER: genes 15 Torsion [N]-CA--C-[N] |==|  0.90747
USER: genes 16 Torsion [C]-N--CA-[C] |==|  0.69320
USER: genes 17 Torsion [N]-CA--C-[O] |==|  0.00412
ROOT
ATOM      1  C   SER B   3      -4.637  20.371   8.412  1.00 29.46 LIG 0.24  C 
ATOM      2 O    SER B   3      -5.616  19.999   7.761  1.00 29.29 LIG-0.27  OA
ATOM      3  N   ALA B   4      -3.432  19.812   8.320  1.00 28.70 LIG-0.35  N 
ATOM      4 H    ALA B   4      -2.760  20.058   8.798  1.00 28.70 LIG 0.16  HD
ENDROOT
BRANCH 1 5
ATOM      5  CA  SER B   3      -4.754  21.539   9.389  1.00 29.76 LIG 0.20  C 
BRANCH 5 6
ATOM      6  CB  SER B   3      -5.225  21.075  10.769  1.00 29.85 LIG 0.20  C 
BRANCH 6 7
ATOM      7 OG   SER B   3      -4.394  21.633  11.793  1.00 32.14 LIG-0.40  OA
ATOM      8 HG   SER B   3      -3.587  21.540  11.581  1.00 32.14 LIG 0.21  HD
ENDBRANCH 6 7
ENDBRANCH 5 6
BRANCH 5 9
ATOM      9  N   SER B   3      -5.675  22.528   8.870  1.00 30.15 LIG-0.34  N 
ATOM     10  C   ALA B   2      -6.981  22.302   8.797  1.00 30.60 LIG 0.24  C 
ATOM     11 O    ALA B   2      -7.514  21.310   9.283  1.00 30.40 LIG-0.27  OA
ATOM     12 H    SER B   3      -5.302  23.262   8.619  1.00 30.15 LIG 0.16  HD
BRANCH 10 13
ATOM     13  CA  ALA B   2      -7.797  23.353   8.053  1.00 31.29 LIG 0.17  C 
ATOM     14  CB  ALA B   2      -8.583  24.192   9.049  1.00 31.24 LIG 0.04  C 
BRANCH 13 15
ATOM     15  N   ALA B   2      -8.722  22.694   7.140  1.00 32.02 LIG-0.35  N 
ATOM     16  C   ALA B   1      -8.318  21.958   6.107  1.00 33.14 LIG 0.25  C 
ATOM     17 O    ALA B   1      -7.139  21.891   5.735  1.00 33.78 LIG-0.27  OA
ATOM     18 H    ALA B   2      -9.551  22.823   7.331  1.00 32.02 LIG 0.16  HD
BRANCH 16 19
ATOM     19  CA  ALA B   1      -9.404  21.203   5.355  1.00 33.48 LIG 0.27  C 
ATOM     20  CB  ALA B   1      -8.903  19.843   4.943  1.00 33.96 LIG 0.05  C 
BRANCH 19 21
ATOM     21  N   ALA B   1      -9.921  21.950   4.160  1.00 33.82 LIG-0.07  N 
ATOM     22 H3   ALA B   1      -9.615  21.569   3.416  1.00 33.82 LIG 0.28  HD
ATOM     23 H2   ALA B   1      -9.643  22.795   4.194  1.00 33.82 LIG 0.28  HD
ATOM     24 H1   ALA B   1     -10.811  21.930   4.159  1.00 33.82 LIG 0.28  HD
ENDBRANCH 19 21
ENDBRANCH 16 19
ENDBRANCH 13 15
ENDBRANCH 10 13
ENDBRANCH 5 9
ENDBRANCH 1 5
BRANCH 3 25
ATOM     25  CA  ALA B   4      -3.130  18.720   7.394  1.00 28.07 LIG 0.17  C 
ATOM     26  CB  ALA B   4      -4.137  17.581   7.574  1.00 28.13 LIG 0.04  C 
BRANCH 25 27
ATOM     27  C   ALA B   4      -3.187  19.207   5.961  1.00 27.72 LIG 0.24  C 
ATOM     28  N   SER B   5      -2.071  19.045   5.255  1.00 27.70 LIG-0.34  N 
ATOM     29 H    SER B   5      -1.301  18.888   5.605  1.00 27.70 LIG 0.16  HD
ATOM     30 O    ALA B   4      -4.220  19.690   5.501  1.00 26.03 LIG-0.27  OA
BRANCH 28 31
ATOM     31  CA  SER B   5      -2.064  19.121   3.799  1.00 28.70 LIG 0.20  C 
BRANCH 31 32
ATOM     32  CB  SER B   5      -0.865  19.951   3.308  1.00 28.19 LIG 0.20  C 
BRANCH 32 33
ATOM     33 OG   SER B   5       0.134  19.143   2.677  1.00 31.03 LIG-0.40  OA
ATOM     34 HG   SER B   5       0.385  18.542   3.208  1.00 31.03 LIG 0.21  HD
ENDBRANCH 32 33
ENDBRANCH 31 32
BRANCH 31 35
ATOM     35  C   SER B   5      -1.986  17.697   3.232  1.00 28.90 LIG 0.24  C 
ATOM     36 O    SER B   5      -2.519  17.417   2.156  1.00 29.19 LIG-0.27  OA
ATOM     37  N   ALA B   6      -1.296  16.808   3.932  1.00 29.26 LIG-0.35  N 
ATOM     38 H    ALA B   6      -0.866  16.992   4.654  1.00 29.26 LIG 0.16  HD
BRANCH 37 39
ATOM     39  CA  ALA B   6      -1.212  15.417   3.516  1.00 30.00 LIG 0.16  C 
ATOM     40  CB  ALA B   6       0.255  14.949   3.403  1.00 31.04 LIG 0.04  C 
BRANCH 39 41
ATOM     41  C   ALA B   6      -1.970  14.508   4.451  1.00 30.03 LIG 0.22  C 
ATOM     42 O    ALA B   6      -2.579  14.998   5.407  1.00 31.65 LIG-0.29  OA
ENDBRANCH 39 41
ENDBRANCH 37 39
ENDBRANCH 31 35
ENDBRANCH 28 31
ENDBRANCH 25 27
ENDBRANCH 3 25
TORSDOF 16
ENDMDL
MODEL 15
USER: ADFR SOLUTION from run 38
USER: SCORE 12.021906 LL:  -2.628 LR: -11.555 RR:   0.000 FEB:  -6.782
USER: RMSD 4.931535
USER: SEED 37
USER: STATUS searching
USER: GENES 18
USER: genes 0 Translation |==|  0.41909 0.54657 0.46488
USER: genes 1 Rotation |==|  0.54571 0.41470 0.96359 0.66036
USER: genes 2 Torsion [N]-C--CA-[N] |==|  0.46235
USER: genes 3 Torsion [C]-CA--CB-[OG] |==|  0.59642
USER: genes 4 Torsion [CA]-CB--OG-[HG] |==|  0.74097
USER: genes 5 Torsion [C]-CA--N-[C] |==|  0.77043
USER: genes 6 Torsion [N]-C--CA-[N] |==|  0.36785
USER: genes 7 Torsion [C]-CA--N-[C] |==|  0.70473
USER: genes 8 Torsion [N]-C--CA-[N] |==|  0.96330
USER: genes 9 Torsion [C]-CA--N-[H1] |==|  0.05563
USER: genes 10 Torsion [C]-N--CA-[CB] |==|  0.28692
USER: genes 11 Torsion [N]-CA--C-[N] |==|  0.89791
USER: genes 12 Torsion [C]-N--CA-[CB] |==|  0.18968
USER: genes 13 Torsion [N]-CA--CB-[OG] |==|  0.72823
USER: genes 14 Torsion [CA]-CB--OG-[HG] |==|  0.25550
USER: genes 15 Torsion [N]-CA--C-[N] |==|  0.87048
USER: genes 16 Torsion [C]-N--CA-[C] |==|  0.18312
USER: genes 17 Torsion [N]-CA--C-[O] |==|  0.15008
ROOT
ATOM      1  C   SER B   3      -4.192  19.638   3.332  1.00 29.46 LIG 0.24  C 
ATOM      2 O    SER B   3      -3.733  18.931   2.431  1.00 29.29 LIG-0.27  OA
ATOM      3  N   ALA B   4      -3.648  19.737   4.543  1.00 28.70 LIG-0.35  N 
ATOM      4 H    ALA B   4      -3.988  20.209   5.176  1.00 28.70 LIG 0.16  HD
ENDROOT
BRANCH 1 5
ATOM      5  CA  SER B   3      -5.449  20.472   3.099  1.00 29.76 LIG 0.20  C 
BRANCH 5 6
ATOM      6  CB  SER B   3      -6.651  19.904   3.858  1.00 29.85 LIG 0.20  C 
BRANCH 6 7
ATOM      7 OG   SER B   3      -7.853  20.096   3.103  1.00 32.14 LIG-0.40  OA
ATOM      8 HG   SER B   3      -8.220  20.813   3.339  1.00 32.14 LIG 0.21  HD
ENDBRANCH 6 7
ENDBRANCH 5 6
BRANCH 5 9
ATOM      9  N   SER B   3      -5.751  20.527   1.684  1.00 30.15 LIG-0.34  N 
ATOM     10  C   ALA B   2      -5.154  21.392   0.872  1.00 30.60 LIG 0.24  C 
ATOM     11 O    ALA B   2      -4.219  22.101   1.224  1.00 30.40 LIG-0.27  OA
ATOM     12 H    SER B   3      -6.343  19.958   1.426  1.00 30.15 LIG 0.16  HD
BRANCH 10 13
ATOM     13  CA  ALA B   2      -5.712  21.465  -0.545  1.00 31.29 LIG 0.17  C 
ATOM     14  CB  ALA B   2      -4.735  20.817  -1.515  1.00 31.24 LIG 0.04  C 
BRANCH 13 15
ATOM     15  N   ALA B   2      -5.911  22.860  -0.917  1.00 32.02 LIG-0.35  N 
ATOM     16  C   ALA B   1      -7.114  23.424  -0.992  1.00 33.14 LIG 0.25  C 
ATOM     17 O    ALA B   1      -8.173  22.790  -0.906  1.00 33.78 LIG-0.27  OA
ATOM     18 H    ALA B   2      -5.180  23.283  -1.083  1.00 32.02 LIG 0.16  HD
BRANCH 16 19
ATOM     19  CA  ALA B   1      -7.136  24.927  -1.228  1.00 33.48 LIG 0.27  C 
ATOM     20  CB  ALA B   1      -7.657  25.230  -2.609  1.00 33.96 LIG 0.05  C 
BRANCH 19 21
ATOM     21  N   ALA B   1      -5.796  25.574  -1.025  1.00 33.82 LIG-0.07  N 
ATOM     22 H3   ALA B   1      -5.768  25.955  -0.221  1.00 33.82 LIG 0.28  HD
ATOM     23 H2   ALA B   1      -5.668  26.195  -1.650  1.00 33.82 LIG 0.28  HD
ATOM     24 H1   ALA B   1      -5.157  24.958  -1.084  1.00 33.82 LIG 0.28  HD
ENDBRANCH 19 21
ENDBRANCH 16 19
ENDBRANCH 13 15
ENDBRANCH 10 13
ENDBRANCH 5 9
ENDBRANCH 1 5
BRANCH 3 25
ATOM     25  CA  ALA B   4      -2.411  19.050   4.919  1.00 28.07 LIG 0.17  C 
ATOM     26  CB  ALA B   4      -1.241  20.038   4.933  1.00 28.13 LIG 0.04  C 
BRANCH 25 27
ATOM     27  C   ALA B   4      -2.545  18.424   6.291  1.00 27.72 LIG 0.24  C 
ATOM     28  N   SER B   5      -3.250  19.124   7.175  1.00 27.70 LIG-0.34  N 
ATOM     29 H    SER B   5      -3.440  19.958   7.084  1.00 27.70 LIG 0.16  HD
ATOM     30 O    ALA B   4      -2.046  17.326   6.533  1.00 26.03 LIG-0.27  OA
BRANCH 28 31
ATOM     31  CA  SER B   5      -3.770  18.519   8.396  1.00 28.70 LIG 0.20  C 
BRANCH 31 32
ATOM     32  CB  SER B   5      -2.618  18.154   9.350  1.00 28.19 LIG 0.20  C 
BRANCH 32 33
ATOM     33 OG   SER B   5      -2.249  16.775   9.253  1.00 31.03 LIG-0.40  OA
ATOM     34 HG   SER B   5      -1.633  16.688   8.689  1.00 31.03 LIG 0.21  HD
ENDBRANCH 32 33
ENDBRANCH 31 32
BRANCH 31 35
ATOM     35  C   SER B   5      -4.719  19.517   9.074  1.00 28.90 LIG 0.24  C 
ATOM     36 O    SER B   5      -5.808  19.148   9.519  1.00 29.19 LIG-0.27  OA
ATOM     37  N   ALA B   6      -4.296  20.768   9.186  1.00 29.26 LIG-0.35  N 
ATOM     38 H    ALA B   6      -3.518  21.038   8.937  1.00 29.26 LIG 0.16  HD
BRANCH 37 39
ATOM     39  CA  ALA B   6      -5.142  21.806   9.755  1.00 30.00 LIG 0.16  C 
ATOM     40  CB  ALA B   6      -6.471  21.937   8.981  1.00 31.04 LIG 0.04  C 
BRANCH 39 41
ATOM     41  C   ALA B   6      -5.420  21.560  11.216  1.00 30.03 LIG 0.22  C 
ATOM     42 O    ALA B   6      -4.474  21.396  11.991  1.00 31.65 LIG-0.29  OA
ENDBRANCH 39 41
ENDBRANCH 37 39
ENDBRANCH 31 35
ENDBRANCH 28 31
ENDBRANCH 25 27
ENDBRANCH 3 25
TORSDOF 16
ENDMDL
MODEL 16
USER: ADFR SOLUTION from run 58
USER: SCORE 12.148461 LL:  -2.351 LR: -11.517 RR:   0.000 FEB:  -6.745
USER: RMSD 4.128792
USER: SEED 57
USER: STATUS no improvement in best in 23 clusters for 5 generations
USER: GENES 18
USER: genes 0 Translation |==|  0.61968 0.69886 0.39720
USER: genes 1 Rotation |==|  0.55046 0.75871 0.42225 0.91770
USER: genes 2 Torsion [N]-C--CA-[N] |==|  0.34020
USER: genes 3 Torsion [C]-CA--CB-[OG] |==|  0.18877
USER: genes 4 Torsion [CA]-CB--OG-[HG] |==|  0.66593
USER: genes 5 Torsion [C]-CA--N-[C] |==|  0.79726
USER: genes 6 Torsion [N]-C--CA-[N] |==|  0.88065
USER: genes 7 Torsion [C]-CA--N-[C] |==|  0.67505
USER: genes 8 Torsion [N]-C--CA-[N] |==|  0.08868
USER: genes 9 Torsion [C]-CA--N-[H1] |==|  0.64576
USER: genes 10 Torsion [C]-N--CA-[CB] |==|  0.85132
USER: genes 11 Torsion [N]-CA--C-[N] |==|  0.31737
USER: genes 12 Torsion [C]-N--CA-[CB] |==|  0.46667
USER: genes 13 Torsion [N]-CA--CB-[OG] |==|  0.03847
USER: genes 14 Torsion [CA]-CB--OG-[HG] |==|  0.08575
USER: genes 15 Torsion [N]-CA--C-[N] |==|  0.46110
USER: genes 16 Torsion [C]-N--CA-[C] |==|  0.81129
USER: genes 17 Torsion [N]-CA--C-[O] |==|  0.10627
ROOT
ATOM      1  C   SER B   3      -0.731  21.922   1.708  1.00 29.46 LIG 0.24  C 
ATOM      2 O    SER B   3      -1.432  22.690   2.372  1.00 29.29 LIG-0.27  OA
ATOM      3  N   ALA B   4      -0.078  20.883   2.224  1.00 28.70 LIG-0.35  N 
ATOM      4 H    ALA B   4       0.431  20.368   1.761  1.00 28.70 LIG 0.16  HD
ENDROOT
BRANCH 1 5
ATOM      5  CA  SER B   3      -0.574  22.123   0.202  1.00 29.76 LIG 0.20  C 
BRANCH 5 6
ATOM      6  CB  SER B   3       0.140  23.439  -0.119  1.00 29.85 LIG 0.20  C 
BRANCH 6 7
ATOM      7 OG   SER B   3       1.507  23.380   0.305  1.00 32.14 LIG-0.40  OA
ATOM      8 HG   SER B   3       1.652  23.987   0.867  1.00 32.14 LIG 0.21  HD
ENDBRANCH 6 7
ENDBRANCH 5 6
BRANCH 5 9
ATOM      9  N   SER B   3      -1.873  22.108  -0.437  1.00 30.15 LIG-0.34  N 
ATOM     10  C   ALA B   2      -2.568  20.986  -0.589  1.00 30.60 LIG 0.24  C 
ATOM     11 O    ALA B   2      -2.232  19.920  -0.085  1.00 30.40 LIG-0.27  OA
ATOM     12 H    SER B   3      -2.145  22.879  -0.704  1.00 30.15 LIG 0.16  HD
BRANCH 10 13
ATOM     13  CA  ALA B   2      -3.822  21.094  -1.449  1.00 31.29 LIG 0.17  C 
ATOM     14  CB  ALA B   2      -3.435  21.128  -2.920  1.00 31.24 LIG 0.04  C 
BRANCH 13 15
ATOM     15  N   ALA B   2      -4.541  22.314  -1.109  1.00 32.02 LIG-0.35  N 
ATOM     16  C   ALA B   1      -5.769  22.311  -0.593  1.00 33.14 LIG 0.25  C 
ATOM     17 O    ALA B   1      -6.468  21.295  -0.499  1.00 33.78 LIG-0.27  OA
ATOM     18 H    ALA B   2      -4.100  23.034  -1.271  1.00 32.02 LIG 0.16  HD
BRANCH 16 19
ATOM     19  CA  ALA B   1      -6.308  23.660  -0.139  1.00 33.48 LIG 0.27  C 
ATOM     20  CB  ALA B   1      -7.815  23.647  -0.144  1.00 33.96 LIG 0.05  C 
BRANCH 19 21
ATOM     21  N   ALA B   1      -5.796  24.806  -0.963  1.00 33.82 LIG-0.07  N 
ATOM     22 H3   ALA B   1      -6.466  25.160  -1.430  1.00 33.82 LIG 0.28  HD
ATOM     23 H2   ALA B   1      -5.168  24.514  -1.522  1.00 33.82 LIG 0.28  HD
ATOM     24 H1   ALA B   1      -5.450  25.426  -0.426  1.00 33.82 LIG 0.28  HD
ENDBRANCH 19 21
ENDBRANCH 16 19
ENDBRANCH 13 15
ENDBRANCH 10 13
ENDBRANCH 5 9
ENDBRANCH 1 5
BRANCH 3 25
ATOM     25  CA  ALA B   4      -0.163  20.512   3.637  1.00 28.07 LIG 0.17  C 
ATOM     26  CB  ALA B   4       0.177  21.716   4.521  1.00 28.13 LIG 0.04  C 
BRANCH 25 27
ATOM     27  C   ALA B   4      -1.557  20.028   3.978  1.00 27.72 LIG 0.24  C 
ATOM     28  N   SER B   5      -1.652  18.748   4.324  1.00 27.70 LIG-0.34  N 
ATOM     29 H    SER B   5      -1.042  18.162   4.166  1.00 27.70 LIG 0.16  HD
ATOM     30 O    ALA B   4      -2.515  20.801   3.955  1.00 26.03 LIG-0.27  OA
BRANCH 28 31
ATOM     31  CA  SER B   5      -2.825  18.222   5.014  1.00 28.70 LIG 0.20  C 
BRANCH 31 32
ATOM     32  CB  SER B   5      -2.801  16.683   5.022  1.00 28.19 LIG 0.20  C 
BRANCH 32 33
ATOM     33 OG   SER B   5      -1.522  16.158   4.652  1.00 31.03 LIG-0.40  OA
ATOM     34 HG   SER B   5      -0.919  16.691   4.893  1.00 31.03 LIG 0.21  HD
ENDBRANCH 32 33
ENDBRANCH 31 32
BRANCH 31 35
ATOM     35  C   SER B   5      -2.830  18.756   6.452  1.00 28.90 LIG 0.24  C 
ATOM     36 O    SER B   5      -1.835  19.314   6.920  1.00 29.19 LIG-0.27  OA
ATOM     37  N   ALA B   6      -3.955  18.622   7.140  1.00 29.26 LIG-0.35  N 
ATOM     38 H    ALA B   6      -4.681  18.290   6.817  1.00 29.26 LIG 0.16  HD
BRANCH 37 39
ATOM     39  CA  ALA B   6      -4.047  19.037   8.531  1.00 30.00 LIG 0.16  C 
ATOM     40  CB  ALA B   6      -5.510  19.043   9.022  1.00 31.04 LIG 0.04  C 
BRANCH 39 41
ATOM     41  C   ALA B   6      -3.206  18.167   9.430  1.00 30.03 LIG 0.22  C 
ATOM     42 O    ALA B   6      -2.106  17.774   9.032  1.00 31.65 LIG-0.29  OA
ENDBRANCH 39 41
ENDBRANCH 37 39
ENDBRANCH 31 35
ENDBRANCH 28 31
ENDBRANCH 25 27
ENDBRANCH 3 25
TORSDOF 16
ENDMDL
MODEL 17
USER: ADFR SOLUTION from run 161
USER: SCORE 12.807091 LL:  -2.437 LR: -11.357 RR:   0.000 FEB:  -6.584
USER: RMSD 4.482491
USER: SEED 160
USER: STATUS no improvement in best in 2 clusters for 5 generations
USER: GENES 18
USER: genes 0 Translation |==|  0.44820 0.64525 0.43436
USER: genes 1 Rotation |==|  0.84354 0.66118 0.20591 0.63969
USER: genes 2 Torsion [N]-C--CA-[N] |==|  0.04281
USER: genes 3 Torsion [C]-CA--CB-[OG] |==|  0.46898
USER: genes 4 Torsion [CA]-CB--OG-[HG] |==|  0.30489
USER: genes 5 Torsion [C]-CA--N-[C] |==|  0.73277
USER: genes 6 Torsion [N]-C--CA-[N] |==|  0.98285
USER: genes 7 Torsion [C]-CA--N-[C] |==|  0.73704
USER: genes 8 Torsion [N]-C--CA-[N] |==|  0.96358
USER: genes 9 Torsion [C]-CA--N-[H1] |==|  0.60679
USER: genes 10 Torsion [C]-N--CA-[CB] |==|  0.52780
USER: genes 11 Torsion [N]-CA--C-[N] |==|  0.30204
USER: genes 12 Torsion [C]-N--CA-[CB] |==|  0.17844
USER: genes 13 Torsion [N]-CA--CB-[OG] |==|  0.19880
USER: genes 14 Torsion [CA]-CB--OG-[HG] |==|  0.59243
USER: genes 15 Torsion [N]-CA--C-[N] |==|  0.11243
USER: genes 16 Torsion [C]-N--CA-[C] |==|  0.79914
USER: genes 17 Torsion [N]-CA--C-[O] |==|  0.45543
ROOT
ATOM      1  C   SER B   3      -3.690  21.118   2.600  1.00 29.46 LIG 0.24  C 
ATOM      2 O    SER B   3      -3.092  21.120   3.678  1.00 29.29 LIG-0.27  OA
ATOM      3  N   ALA B   4      -4.954  20.725   2.455  1.00 28.70 LIG-0.35  N 
ATOM      4 H    ALA B   4      -5.356  20.698   1.696  1.00 28.70 LIG 0.16  HD
ENDROOT
BRANCH 1 5
ATOM      5  CA  SER B   3      -2.992  21.589   1.326  1.00 29.76 LIG 0.20  C 
BRANCH 5 6
ATOM      6  CB  SER B   3      -2.163  22.852   1.571  1.00 29.85 LIG 0.20  C 
BRANCH 6 7
ATOM      7 OG   SER B   3      -1.322  23.123   0.444  1.00 32.14 LIG-0.40  OA
ATOM      8 HG   SER B   3      -1.602  23.806   0.044  1.00 32.14 LIG 0.21  HD
ENDBRANCH 6 7
ENDBRANCH 5 6
BRANCH 5 9
ATOM      9  N   SER B   3      -3.971  21.844   0.290  1.00 30.15 LIG-0.34  N 
ATOM     10  C   ALA B   2      -4.269  20.938  -0.633  1.00 30.60 LIG 0.24  C 
ATOM     11 O    ALA B   2      -3.849  19.787  -0.598  1.00 30.40 LIG-0.27  OA
ATOM     12 H    SER B   3      -4.333  22.624   0.331  1.00 30.15 LIG 0.16  HD
BRANCH 10 13
ATOM     13  CA  ALA B   2      -5.170  21.416  -1.767  1.00 31.29 LIG 0.17  C 
ATOM     14  CB  ALA B   2      -4.397  21.403  -3.077  1.00 31.24 LIG 0.04  C 
BRANCH 13 15
ATOM     15  N   ALA B   2      -5.625  22.771  -1.486  1.00 32.02 LIG-0.35  N 
ATOM     16  C   ALA B   1      -6.786  23.036  -0.891  1.00 33.14 LIG 0.25  C 
ATOM     17 O    ALA B   1      -7.649  22.179  -0.662  1.00 33.78 LIG-0.27  OA
ATOM     18 H    ALA B   2      -5.075  23.382  -1.740  1.00 32.02 LIG 0.16  HD
BRANCH 16 19
ATOM     19  CA  ALA B   1      -7.033  24.491  -0.521  1.00 33.48 LIG 0.27  C 
ATOM     20  CB  ALA B   1      -8.123  25.071  -1.385  1.00 33.96 LIG 0.05  C 
BRANCH 19 21
ATOM     21  N   ALA B   1      -5.796  25.338  -0.606  1.00 33.82 LIG-0.07  N 
ATOM     22 H3   ALA B   1      -5.789  25.777  -1.380  1.00 33.82 LIG 0.28  HD
ATOM     23 H2   ALA B   1      -5.075  24.818  -0.554  1.00 33.82 LIG 0.28  HD
ATOM     24 H1   ALA B   1      -5.789  25.922   0.066  1.00 33.82 LIG 0.28  HD
ENDBRANCH 19 21
ENDBRANCH 16 19
ENDBRANCH 13 15
ENDBRANCH 10 13
ENDBRANCH 5 9
ENDBRANCH 1 5
BRANCH 3 25
ATOM     25  CA  ALA B   4      -5.787  20.296   3.580  1.00 28.07 LIG 0.17  C 
ATOM     26  CB  ALA B   4      -7.090  19.677   3.067  1.00 28.13 LIG 0.04  C 
BRANCH 25 27
ATOM     27  C   ALA B   4      -5.055  19.276   4.427  1.00 27.72 LIG 0.24  C 
ATOM     28  N   SER B   5      -4.651  19.703   5.620  1.00 27.70 LIG-0.34  N 
ATOM     29 H    SER B   5      -4.595  20.533   5.838  1.00 27.70 LIG 0.16  HD
ATOM     30 O    ALA B   4      -4.884  18.127   4.020  1.00 26.03 LIG-0.27  OA
BRANCH 28 31
ATOM     31  CA  SER B   5      -4.265  18.777   6.678  1.00 28.70 LIG 0.20  C 
BRANCH 31 32
ATOM     32  CB  SER B   5      -3.015  17.978   6.265  1.00 28.19 LIG 0.20  C 
BRANCH 32 33
ATOM     33 OG   SER B   5      -1.832  18.784   6.260  1.00 31.03 LIG-0.40  OA
ATOM     34 HG   SER B   5      -1.316  18.520   5.652  1.00 31.03 LIG 0.21  HD
ENDBRANCH 32 33
ENDBRANCH 31 32
BRANCH 31 35
ATOM     35  C   SER B   5      -3.979  19.579   7.954  1.00 28.90 LIG 0.24  C 
ATOM     36 O    SER B   5      -3.009  19.309   8.665  1.00 29.19 LIG-0.27  OA
ATOM     37  N   ALA B   6      -4.797  20.586   8.227  1.00 29.26 LIG-0.35  N 
ATOM     38 H    ALA B   6      -5.445  20.833   7.718  1.00 29.26 LIG 0.16  HD
BRANCH 37 39
ATOM     39  CA  ALA B   6      -4.653  21.371   9.443  1.00 30.00 LIG 0.16  C 
ATOM     40  CB  ALA B   6      -5.442  22.695   9.357  1.00 31.04 LIG 0.04  C 
BRANCH 39 41
ATOM     41  C   ALA B   6      -5.083  20.595  10.662  1.00 30.03 LIG 0.22  C 
ATOM     42 O    ALA B   6      -4.750  20.996  11.781  1.00 31.65 LIG-0.29  OA
ENDBRANCH 39 41
ENDBRANCH 37 39
ENDBRANCH 31 35
ENDBRANCH 28 31
ENDBRANCH 25 27
ENDBRANCH 3 25
TORSDOF 16
ENDMDL
MODEL 18
USER: ADFR SOLUTION from run 185
USER: SCORE 11.394247 LL:  -2.509 LR: -11.300 RR:   0.000 FEB:  -6.527
USER: RMSD 2.676806
USER: SEED 184
USER: STATUS no improvement in best in 10 clusters for 5 generations
USER: GENES 18
USER: genes 0 Translation |==|  0.56586 0.54459 0.48691
USER: genes 1 Rotation |==|  0.64657 0.57105 0.44285 0.96926
USER: genes 2 Torsion [N]-C--CA-[N] |==|  0.32403
USER: genes 3 Torsion [C]-CA--CB-[OG] |==|  0.14716
USER: genes 4 Torsion [CA]-CB--OG-[HG] |==|  0.02970
USER: genes 5 Torsion [C]-CA--N-[C] |==|  0.18222
USER: genes 6 Torsion [N]-C--CA-[N] |==|  0.41354
USER: genes 7 Torsion [C]-CA--N-[C] |==|  0.84157
USER: genes 8 Torsion [N]-C--CA-[N] |==|  0.99750
USER: genes 9 Torsion [C]-CA--N-[H1] |==|  0.46342
USER: genes 10 Torsion [C]-N--CA-[CB] |==|  0.51125
USER: genes 11 Torsion [N]-CA--C-[N] |==|  0.30639
USER: genes 12 Torsion [C]-N--CA-[CB] |==|  0.53333
USER: genes 13 Torsion [N]-CA--CB-[OG] |==|  0.92577
USER: genes 14 Torsion [CA]-CB--OG-[HG] |==|  0.25539
USER: genes 15 Torsion [N]-CA--C-[N] |==|  0.33500
USER: genes 16 Torsion [C]-N--CA-[C] |==|  0.63284
USER: genes 17 Torsion [N]-CA--C-[O] |==|  0.91030
ROOT
ATOM      1  C   SER B   3      -1.660  19.608   3.861  1.00 29.46 LIG 0.24  C 
ATOM      2 O    SER B   3      -2.568  20.428   4.011  1.00 29.29 LIG-0.27  OA
ATOM      3  N   ALA B   4      -1.680  18.379   4.374  1.00 28.70 LIG-0.35  N 
ATOM      4 H    ALA B   4      -1.031  17.822   4.290  1.00 28.70 LIG 0.16  HD
ENDROOT
BRANCH 1 5
ATOM      5  CA  SER B   3      -0.420  19.965   3.044  1.00 29.76 LIG 0.20  C 
BRANCH 5 6
ATOM      6  CB  SER B   3       0.302  21.186   3.621  1.00 29.85 LIG 0.20  C 
BRANCH 6 7
ATOM      7 OG   SER B   3       0.575  20.991   5.013  1.00 32.14 LIG-0.40  OA
ATOM      8 HG   SER B   3       0.422  20.191   5.219  1.00 32.14 LIG 0.21  HD
ENDBRANCH 6 7
ENDBRANCH 5 6
BRANCH 5 9
ATOM      9  N   SER B   3      -0.791  20.226   1.669  1.00 30.15 LIG-0.34  N 
ATOM     10  C   ALA B   2      -1.554  21.259   1.332  1.00 30.60 LIG 0.24  C 
ATOM     11 O    ALA B   2      -1.882  22.134   2.126  1.00 30.40 LIG-0.27  OA
ATOM     12 H    SER B   3      -0.476  19.659   1.104  1.00 30.15 LIG 0.16  HD
BRANCH 10 13
ATOM     13  CA  ALA B   2      -2.020  21.295  -0.120  1.00 31.29 LIG 0.17  C 
ATOM     14  CB  ALA B   2      -1.021  22.076  -0.959  1.00 31.24 LIG 0.04  C 
BRANCH 13 15
ATOM     15  N   ALA B   2      -3.325  21.939  -0.195  1.00 32.02 LIG-0.35  N 
ATOM     16  C   ALA B   1      -4.385  21.507   0.483  1.00 33.14 LIG 0.25  C 
ATOM     17 O    ALA B   1      -4.407  20.442   1.113  1.00 33.78 LIG-0.27  OA
ATOM     18 H    ALA B   2      -3.345  22.623  -0.717  1.00 32.02 LIG 0.16  HD
BRANCH 16 19
ATOM     19  CA  ALA B   1      -5.623  22.390   0.424  1.00 33.48 LIG 0.27  C 
ATOM     20  CB  ALA B   1      -6.797  21.606  -0.104  1.00 33.96 LIG 0.05  C 
BRANCH 19 21
ATOM     21  N   ALA B   1      -5.421  23.635  -0.391  1.00 33.82 LIG-0.07  N 
ATOM     22 H3   ALA B   1      -5.028  23.425  -1.162  1.00 33.82 LIG 0.28  HD
ATOM     23 H2   ALA B   1      -4.905  24.204   0.059  1.00 33.82 LIG 0.28  HD
ATOM     24 H1   ALA B   1      -6.209  24.014  -0.553  1.00 33.82 LIG 0.28  HD
ENDBRANCH 19 21
ENDBRANCH 16 19
ENDBRANCH 13 15
ENDBRANCH 10 13
ENDBRANCH 5 9
ENDBRANCH 1 5
BRANCH 3 25
ATOM     25  CA  ALA B   4      -2.815  17.854   5.135  1.00 28.07 LIG 0.17  C 
ATOM     26  CB  ALA B   4      -2.490  16.456   5.671  1.00 28.13 LIG 0.04  C 
BRANCH 25 27
ATOM     27  C   ALA B   4      -3.142  18.765   6.299  1.00 27.72 LIG 0.24  C 
ATOM     28  N   SER B   5      -4.285  19.438   6.198  1.00 27.70 LIG-0.34  N 
ATOM     29 H    SER B   5      -4.715  19.544   5.460  1.00 27.70 LIG 0.16  HD
ATOM     30 O    ALA B   4      -2.394  18.835   7.273  1.00 26.03 LIG-0.27  OA
BRANCH 28 31
ATOM     31  CA  SER B   5      -4.915  20.064   7.355  1.00 28.70 LIG 0.20  C 
BRANCH 31 32
ATOM     32  CB  SER B   5      -6.349  20.507   7.015  1.00 28.19 LIG 0.20  C 
BRANCH 32 33
ATOM     33 OG   SER B   5      -6.517  20.780   5.620  1.00 31.03 LIG-0.40  OA
ATOM     34 HG   SER B   5      -6.779  20.085   5.228  1.00 31.03 LIG 0.21  HD
ENDBRANCH 32 33
ENDBRANCH 31 32
BRANCH 31 35
ATOM     35  C   SER B   5      -4.935  19.054   8.510  1.00 28.90 LIG 0.24  C 
ATOM     36 O    SER B   5      -5.487  17.958   8.379  1.00 29.19 LIG-0.27  OA
ATOM     37  N   ALA B   6      -4.307  19.401   9.624  1.00 29.26 LIG-0.35  N 
ATOM     38 H    ALA B   6      -3.866  20.133   9.721  1.00 29.26 LIG 0.16  HD
BRANCH 37 39
ATOM     39  CA  ALA B   6      -4.320  18.543  10.800  1.00 30.00 LIG 0.16  C 
ATOM     40  CB  ALA B   6      -2.971  17.814  10.979  1.00 31.04 LIG 0.04  C 
BRANCH 39 41
ATOM     41  C   ALA B   6      -4.658  19.315  12.050  1.00 30.03 LIG 0.22  C 
ATOM     42 O    ALA B   6      -4.307  20.495  12.144  1.00 31.65 LIG-0.29  OA
ENDBRANCH 39 41
ENDBRANCH 37 39
ENDBRANCH 31 35
ENDBRANCH 28 31
ENDBRANCH 25 27
ENDBRANCH 3 25
TORSDOF 16
ENDMDL
MODEL 19
USER: ADFR SOLUTION from run 116
USER: SCORE 12.747062 LL:  -2.994 LR: -11.297 RR:   0.000 FEB:  -6.524
USER: RMSD 5.083150
USER: SEED 115
USER: STATUS no improvement in best in 5 clusters for 5 generations
USER: GENES 18
USER: genes 0 Translation |==|  0.49621 0.44631 0.55033
USER: genes 1 Rotation |==|  0.71190 0.58568 0.05722 0.54123
USER: genes 2 Torsion [N]-C--CA-[N] |==|  0.29714
USER: genes 3 Torsion [C]-CA--CB-[OG] |==|  0.80582
USER: genes 4 Torsion [CA]-CB--OG-[HG] |==|  0.11436
USER: genes 5 Torsion [C]-CA--N-[C] |==|  0.72749
USER: genes 6 Torsion [N]-C--CA-[N] |==|  0.42601
USER: genes 7 Torsion [C]-CA--N-[C] |==|  0.79973
USER: genes 8 Torsion [N]-C--CA-[N] |==|  0.28916
USER: genes 9 Torsion [C]-CA--N-[H1] |==|  0.69232
USER: genes 10 Torsion [C]-N--CA-[CB] |==|  0.12796
USER: genes 11 Torsion [N]-CA--C-[N] |==|  0.58354
USER: genes 12 Torsion [C]-N--CA-[CB] |==|  0.54445
USER: genes 13 Torsion [N]-CA--CB-[OG] |==|  0.84910
USER: genes 14 Torsion [CA]-CB--OG-[HG] |==|  0.20992
USER: genes 15 Torsion [N]-CA--C-[N] |==|  0.28892
USER: genes 16 Torsion [C]-N--CA-[C] |==|  0.16220
USER: genes 17 Torsion [N]-CA--C-[O] |==|  0.07930
ROOT
ATOM      1  C   SER B   3      -2.861  18.134   5.383  1.00 29.46 LIG 0.24  C 
ATOM      2 O    SER B   3      -1.704  17.905   5.743  1.00 29.29 LIG-0.27  OA
ATOM      3  N   ALA B   4      -3.861  18.390   6.225  1.00 28.70 LIG-0.35  N 
ATOM      4 H    ALA B   4      -4.671  18.520   5.969  1.00 28.70 LIG 0.16  HD
ENDROOT
BRANCH 1 5
ATOM      5  CA  SER B   3      -3.225  18.142   3.900  1.00 29.76 LIG 0.20  C 
BRANCH 5 6
ATOM      6  CB  SER B   3      -2.697  16.896   3.183  1.00 29.85 LIG 0.20  C 
BRANCH 6 7
ATOM      7 OG   SER B   3      -1.269  16.945   3.087  1.00 32.14 LIG-0.40  OA
ATOM      8 HG   SER B   3      -0.949  17.233   3.808  1.00 32.14 LIG 0.21  HD
ENDBRANCH 6 7
ENDBRANCH 5 6
BRANCH 5 9
ATOM      9  N   SER B   3      -2.690  19.329   3.266  1.00 30.15 LIG-0.34  N 
ATOM     10  C   ALA B   2      -3.436  20.407   3.054  1.00 30.60 LIG 0.24  C 
ATOM     11 O    ALA B   2      -4.573  20.529   3.495  1.00 30.40 LIG-0.27  OA
ATOM     12 H    SER B   3      -1.861  19.269   3.045  1.00 30.15 LIG 0.16  HD
BRANCH 10 13
ATOM     13  CA  ALA B   2      -2.794  21.501   2.207  1.00 31.29 LIG 0.17  C 
ATOM     14  CB  ALA B   2      -1.973  22.423   3.096  1.00 31.24 LIG 0.04  C 
BRANCH 13 15
ATOM     15  N   ALA B   2      -3.836  22.272   1.540  1.00 32.02 LIG-0.35  N 
ATOM     16  C   ALA B   1      -4.554  21.793   0.527  1.00 33.14 LIG 0.25  C 
ATOM     17 O    ALA B   1      -4.306  20.721  -0.041  1.00 33.78 LIG-0.27  OA
ATOM     18 H    ALA B   2      -3.943  23.062   1.862  1.00 32.02 LIG 0.16  HD
BRANCH 16 19
ATOM     19  CA  ALA B   1      -5.711  22.661   0.056  1.00 33.48 LIG 0.27  C 
ATOM     20  CB  ALA B   1      -6.961  21.832  -0.084  1.00 33.96 LIG 0.05  C 
BRANCH 19 21
ATOM     21  N   ALA B   1      -5.421  23.384  -1.228  1.00 33.82 LIG-0.07  N 
ATOM     22 H3   ALA B   1      -6.085  23.245  -1.804  1.00 33.82 LIG 0.28  HD
ATOM     23 H2   ALA B   1      -4.660  23.078  -1.576  1.00 33.82 LIG 0.28  HD
ATOM     24 H1   ALA B   1      -5.345  24.256  -1.068  1.00 33.82 LIG 0.28  HD
ENDBRANCH 19 21
ENDBRANCH 16 19
ENDBRANCH 13 15
ENDBRANCH 10 13
ENDBRANCH 5 9
ENDBRANCH 1 5
BRANCH 3 25
ATOM     25  CA  ALA B   4      -3.677  18.476   7.674  1.00 28.07 LIG 0.17  C 
ATOM     26  CB  ALA B   4      -2.449  19.330   8.002  1.00 28.13 LIG 0.04  C 
BRANCH 25 27
ATOM     27  C   ALA B   4      -4.896  19.093   8.330  1.00 27.72 LIG 0.24  C 
ATOM     28  N   SER B   5      -4.663  19.779   9.444  1.00 27.70 LIG-0.34  N 
ATOM     29 H    SER B   5      -3.938  19.716   9.903  1.00 27.70 LIG 0.16  HD
ATOM     30 O    ALA B   4      -6.011  18.971   7.824  1.00 26.03 LIG-0.27  OA
BRANCH 28 31
ATOM     31  CA  SER B   5      -5.640  20.715   9.990  1.00 28.70 LIG 0.20  C 
BRANCH 31 32
ATOM     32  CB  SER B   5      -4.977  21.644  11.023  1.00 28.19 LIG 0.20  C 
BRANCH 32 33
ATOM     33 OG   SER B   5      -4.302  20.917  12.054  1.00 31.03 LIG-0.40  OA
ATOM     34 HG   SER B   5      -3.580  20.610  11.754  1.00 31.03 LIG 0.21  HD
ENDBRANCH 32 33
ENDBRANCH 31 32
BRANCH 31 35
ATOM     35  C   SER B   5      -6.226  21.541   8.838  1.00 28.90 LIG 0.24  C 
ATOM     36 O    SER B   5      -5.565  22.433   8.301  1.00 29.19 LIG-0.27  OA
ATOM     37  N   ALA B   6      -7.448  21.224   8.432  1.00 29.26 LIG-0.35  N 
ATOM     38 H    ALA B   6      -7.907  20.570   8.749  1.00 29.26 LIG 0.16  HD
BRANCH 37 39
ATOM     39  CA  ALA B   6      -8.121  21.984   7.390  1.00 30.00 LIG 0.16  C 
ATOM     40  CB  ALA B   6      -8.402  23.434   7.841  1.00 31.04 LIG 0.04  C 
BRANCH 39 41
ATOM     41  C   ALA B   6      -7.331  21.990   6.106  1.00 30.03 LIG 0.22  C 
ATOM     42 O    ALA B   6      -6.592  21.035   5.848  1.00 31.65 LIG-0.29  OA
ENDBRANCH 39 41
ENDBRANCH 37 39
ENDBRANCH 31 35
ENDBRANCH 28 31
ENDBRANCH 25 27
ENDBRANCH 3 25
TORSDOF 16
ENDMDL
MODEL 20
USER: ADFR SOLUTION from run 165
USER: SCORE 11.505233 LL:  -2.884 LR: -11.303 RR:   0.000 FEB:  -6.531
USER: RMSD 5.077547
USER: SEED 164
USER: STATUS no improvement in best in 9 clusters for 5 generations
USER: GENES 18
USER: genes 0 Translation |==|  0.46867 0.49897 0.54817
USER: genes 1 Rotation |==|  0.29518 0.39065 0.84814 0.77366
USER: genes 2 Torsion [N]-C--CA-[N] |==|  0.40948
USER: genes 3 Torsion [C]-CA--CB-[OG] |==|  0.66403
USER: genes 4 Torsion [CA]-CB--OG-[HG] |==|  0.11253
USER: genes 5 Torsion [C]-CA--N-[C] |==|  0.69818
USER: genes 6 Torsion [N]-C--CA-[N] |==|  0.14265
USER: genes 7 Torsion [C]-CA--N-[C] |==|  0.16299
USER: genes 8 Torsion [N]-C--CA-[N] |==|  0.39580
USER: genes 9 Torsion [C]-CA--N-[H1] |==|  0.02581
USER: genes 10 Torsion [C]-N--CA-[CB] |==|  0.22976
USER: genes 11 Torsion [N]-CA--C-[N] |==|  0.80047
USER: genes 12 Torsion [C]-N--CA-[CB] |==|  0.51136
USER: genes 13 Torsion [N]-CA--CB-[OG] |==|  0.77654
USER: genes 14 Torsion [CA]-CB--OG-[HG] |==|  0.15806
USER: genes 15 Torsion [N]-CA--C-[N] |==|  0.76710
USER: genes 16 Torsion [C]-N--CA-[C] |==|  0.16370
USER: genes 17 Torsion [N]-CA--C-[O] |==|  0.20473
ROOT
ATOM      1  C   SER B   3      -3.336  18.924   5.331  1.00 29.46 LIG 0.24  C 
ATOM      2 O    SER B   3      -3.104  17.757   5.006  1.00 29.29 LIG-0.27  OA
ATOM      3  N   ALA B   4      -3.815  19.278   6.522  1.00 28.70 LIG-0.35  N 
ATOM      4 H    ALA B   4      -4.002  20.090   6.732  1.00 28.70 LIG 0.16  HD
ENDROOT
BRANCH 1 5
ATOM      5  CA  SER B   3      -3.073  20.067   4.354  1.00 29.76 LIG 0.20  C 
BRANCH 5 6
ATOM      6  CB  SER B   3      -4.298  20.357   3.483  1.00 29.85 LIG 0.20  C 
BRANCH 6 7
ATOM      7 OG   SER B   3      -3.972  20.201   2.097  1.00 32.14 LIG-0.40  OA
ATOM      8 HG   SER B   3      -3.478  19.529   2.000  1.00 32.14 LIG 0.21  HD
ENDBRANCH 6 7
ENDBRANCH 5 6
BRANCH 5 9
ATOM      9  N   SER B   3      -1.942  19.747   3.510  1.00 30.15 LIG-0.34  N 
ATOM     10  C   ALA B   2      -0.773  20.361   3.639  1.00 30.60 LIG 0.24  C 
ATOM     11 O    ALA B   2      -0.523  21.134   4.558  1.00 30.40 LIG-0.27  OA
ATOM     12 H    SER B   3      -2.098  19.132   2.928  1.00 30.15 LIG 0.16  HD
BRANCH 10 13
ATOM     13  CA  ALA B   2       0.260  20.059   2.559  1.00 31.29 LIG 0.17  C 
ATOM     14  CB  ALA B   2       1.457  20.985   2.719  1.00 31.24 LIG 0.04  C 
BRANCH 13 15
ATOM     15  N   ALA B   2      -0.337  20.262   1.246  1.00 32.02 LIG-0.35  N 
ATOM     16  C   ALA B   1      -0.854  21.425   0.858  1.00 33.14 LIG 0.25  C 
ATOM     17 O    ALA B   1      -1.015  22.389   1.617  1.00 33.78 LIG-0.27  OA
ATOM     18 H    ALA B   2      -0.323  19.561   0.746  1.00 32.02 LIG 0.16  HD
BRANCH 16 19
ATOM     19  CA  ALA B   1      -1.283  21.515  -0.599  1.00 33.48 LIG 0.27  C 
ATOM     20  CB  ALA B   1      -0.168  22.087  -1.436  1.00 33.96 LIG 0.05  C 
BRANCH 19 21
ATOM     21  N   ALA B   1      -2.540  22.314  -0.794  1.00 33.82 LIG-0.07  N 
ATOM     22 H3   ALA B   1      -3.202  21.772  -1.040  1.00 33.82 LIG 0.28  HD
ATOM     23 H2   ALA B   1      -2.409  22.926  -1.428  1.00 33.82 LIG 0.28  HD
ATOM     24 H1   ALA B   1      -2.756  22.718  -0.031  1.00 33.82 LIG 0.28  HD
ENDBRANCH 19 21
ENDBRANCH 16 19
ENDBRANCH 13 15
ENDBRANCH 10 13
ENDBRANCH 5 9
ENDBRANCH 1 5
BRANCH 3 25
ATOM     25  CA  ALA B   4      -4.071  18.316   7.595  1.00 28.07 LIG 0.17  C 
ATOM     26  CB  ALA B   4      -2.776  18.015   8.355  1.00 28.13 LIG 0.04  C 
BRANCH 25 27
ATOM     27  C   ALA B   4      -5.098  18.862   8.566  1.00 27.72 LIG 0.24  C 
ATOM     28  N   SER B   5      -4.678  19.850   9.350  1.00 27.70 LIG-0.34  N 
ATOM     29 H    SER B   5      -3.849  20.040   9.480  1.00 27.70 LIG 0.16  HD
ATOM     30 O    ALA B   4      -6.245  18.417   8.584  1.00 26.03 LIG-0.27  OA
BRANCH 28 31
ATOM     31  CA  SER B   5      -5.611  20.712  10.068  1.00 28.70 LIG 0.20  C 
BRANCH 31 32
ATOM     32  CB  SER B   5      -4.853  21.826  10.812  1.00 28.19 LIG 0.20  C 
BRANCH 32 33
ATOM     33 OG   SER B   5      -4.296  21.371  12.050  1.00 31.03 LIG-0.40  OA
ATOM     34 HG   SER B   5      -3.789  20.716  11.906  1.00 31.03 LIG 0.21  HD
ENDBRANCH 32 33
ENDBRANCH 31 32
BRANCH 31 35
ATOM     35  C   SER B   5      -6.590  21.325   9.058  1.00 28.90 LIG 0.24  C 
ATOM     36 O    SER B   5      -7.708  20.834   8.887  1.00 29.19 LIG-0.27  OA
ATOM     37  N   ALA B   6      -6.191  22.414   8.418  1.00 29.26 LIG-0.35  N 
ATOM     38 H    ALA B   6      -5.441  22.810   8.562  1.00 29.26 LIG 0.16  HD
BRANCH 37 39
ATOM     39  CA  ALA B   6      -7.017  23.038   7.396  1.00 30.00 LIG 0.16  C 
ATOM     40  CB  ALA B   6      -7.207  22.107   6.179  1.00 31.04 LIG 0.04  C 
BRANCH 39 41
ATOM     41  C   ALA B   6      -8.360  23.454   7.941  1.00 30.03 LIG 0.22  C 
ATOM     42 O    ALA B   6      -8.432  24.438   8.682  1.00 31.65 LIG-0.29  OA
ENDBRANCH 39 41
ENDBRANCH 37 39
ENDBRANCH 31 35
ENDBRANCH 28 31
ENDBRANCH 25 27
ENDBRANCH 3 25
TORSDOF 16
ENDMDL
MODEL 21
USER: ADFR SOLUTION from run 30
USER: SCORE 12.482079 LL:  -2.630 LR: -11.292 RR:   0.000 FEB:  -6.520
USER: RMSD 8.825172
USER: SEED 29
USER: STATUS no improvement in best in 7 clusters for 5 generations
USER: GENES 18
USER: genes 0 Translation |==|  0.38521 0.59753 0.67913
USER: genes 1 Rotation |==|  0.74041 0.39674 0.79123 0.81101
USER: genes 2 Torsion [N]-C--CA-[N] |==|  0.46285
USER: genes 3 Torsion [C]-CA--CB-[OG] |==|  0.34270
USER: genes 4 Torsion [CA]-CB--OG-[HG] |==|  0.92388
USER: genes 5 Torsion [C]-CA--N-[C] |==|  0.19174
USER: genes 6 Torsion [N]-C--CA-[N] |==|  0.35473
USER: genes 7 Torsion [C]-CA--N-[C] |==|  0.83193
USER: genes 8 Torsion [N]-C--CA-[N] |==|  0.21769
USER: genes 9 Torsion [C]-CA--N-[H1] |==|  0.02272
USER: genes 10 Torsion [C]-N--CA-[CB] |==|  0.80556
USER: genes 11 Torsion [N]-CA--C-[N] |==|  0.23181
USER: genes 12 Torsion [C]-N--CA-[CB] |==|  0.86020
USER: genes 13 Torsion [N]-CA--CB-[OG] |==|  0.85784
USER: genes 14 Torsion [CA]-CB--OG-[HG] |==|  0.89205
USER: genes 15 Torsion [N]-CA--C-[N] |==|  0.36778
USER: genes 16 Torsion [C]-N--CA-[C] |==|  0.79633
USER: genes 17 Torsion [N]-CA--C-[O] |==|  0.95840
ROOT
ATOM      1  C   SER B   3      -4.776  20.402   8.474  1.00 29.46 LIG 0.24  C 
ATOM      2 O    SER B   3      -5.607  20.261   7.574  1.00 29.29 LIG-0.27  OA
ATOM      3  N   ALA B   4      -3.774  19.553   8.696  1.00 28.70 LIG-0.35  N 
ATOM      4 H    ALA B   4      -3.215  19.641   9.342  1.00 28.70 LIG 0.16  HD
ENDROOT
BRANCH 1 5
ATOM      5  CA  SER B   3      -4.848  21.603   9.414  1.00 29.76 LIG 0.20  C 
BRANCH 5 6
ATOM      6  CB  SER B   3      -5.292  21.193  10.820  1.00 29.85 LIG 0.20  C 
BRANCH 6 7
ATOM      7 OG   SER B   3      -4.319  21.599  11.789  1.00 32.14 LIG-0.40  OA
ATOM      8 HG   SER B   3      -3.562  21.634  11.427  1.00 32.14 LIG 0.21  HD
ENDBRANCH 6 7
ENDBRANCH 5 6
BRANCH 5 9
ATOM      9  N   SER B   3      -5.763  22.592   8.885  1.00 30.15 LIG-0.34  N 
ATOM     10  C   ALA B   2      -7.073  22.378   8.832  1.00 30.60 LIG 0.24  C 
ATOM     11 O    ALA B   2      -7.611  21.403   9.345  1.00 30.40 LIG-0.27  OA
ATOM     12 H    SER B   3      -5.385  23.316   8.614  1.00 30.15 LIG 0.16  HD
BRANCH 10 13
ATOM     13  CA  ALA B   2      -7.886  23.424   8.076  1.00 31.29 LIG 0.17  C 
ATOM     14  CB  ALA B   2      -8.771  24.188   9.049  1.00 31.24 LIG 0.04  C 
BRANCH 13 15
ATOM     15  N   ALA B   2      -8.720  22.763   7.080  1.00 32.02 LIG-0.35  N 
ATOM     16  C   ALA B   1      -8.219  22.030   6.088  1.00 33.14 LIG 0.25  C 
ATOM     17 O    ALA B   1      -7.011  21.967   5.828  1.00 33.78 LIG-0.27  OA
ATOM     18 H    ALA B   2      -9.563  22.890   7.193  1.00 32.02 LIG 0.16  HD
BRANCH 16 19
ATOM     19  CA  ALA B   1      -9.228  21.273   5.238  1.00 33.48 LIG 0.27  C 
ATOM     20  CB  ALA B   1      -8.561  20.111   4.549  1.00 33.96 LIG 0.05  C 
BRANCH 19 21
ATOM     21  N   ALA B   1      -9.922  22.145   4.231  1.00 33.82 LIG-0.07  N 
ATOM     22 H3   ALA B   1     -10.780  22.230   4.452  1.00 33.82 LIG 0.28  HD
ATOM     23 H2   ALA B   1      -9.860  21.775   3.424  1.00 33.82 LIG 0.28  HD
ATOM     24 H1   ALA B   1      -9.538  22.948   4.220  1.00 33.82 LIG 0.28  HD
ENDBRANCH 19 21
ENDBRANCH 16 19
ENDBRANCH 13 15
ENDBRANCH 10 13
ENDBRANCH 5 9
ENDBRANCH 1 5
BRANCH 3 25
ATOM     25  CA  ALA B   4      -3.525  18.381   7.856  1.00 28.07 LIG 0.17  C 
ATOM     26  CB  ALA B   4      -4.625  17.335   8.067  1.00 28.13 LIG 0.04  C 
BRANCH 25 27
ATOM     27  C   ALA B   4      -3.491  18.771   6.393  1.00 27.72 LIG 0.24  C 
ATOM     28  N   SER B   5      -2.328  19.242   5.952  1.00 27.70 LIG-0.34  N 
ATOM     29 H    SER B   5      -1.698  19.522   6.466  1.00 27.70 LIG 0.16  HD
ATOM     30 O    ALA B   4      -4.482  18.624   5.679  1.00 26.03 LIG-0.27  OA
BRANCH 28 31
ATOM     31  CA  SER B   5      -2.020  19.321   4.528  1.00 28.70 LIG 0.20  C 
BRANCH 31 32
ATOM     32  CB  SER B   5      -2.306  17.975   3.839  1.00 28.19 LIG 0.20  C 
BRANCH 32 33
ATOM     33 OG   SER B   5      -1.684  16.876   4.513  1.00 31.03 LIG-0.40  OA
ATOM     34 HG   SER B   5      -0.922  17.108   4.783  1.00 31.03 LIG 0.21  HD
ENDBRANCH 32 33
ENDBRANCH 31 32
BRANCH 31 35
ATOM     35  C   SER B   5      -2.879  20.427   3.900  1.00 28.90 LIG 0.24  C 
ATOM     36 O    SER B   5      -4.083  20.511   4.155  1.00 29.19 LIG-0.27  OA
ATOM     37  N   ALA B   6      -2.260  21.294   3.112  1.00 29.26 LIG-0.35  N 
ATOM     38 H    ALA B   6      -1.413  21.293   2.965  1.00 29.26 LIG 0.16  HD
BRANCH 37 39
ATOM     39  CA  ALA B   6      -2.992  22.343   2.418  1.00 30.00 LIG 0.16  C 
ATOM     40  CB  ALA B   6      -2.045  23.452   1.913  1.00 31.04 LIG 0.04  C 
BRANCH 39 41
ATOM     41  C   ALA B   6      -3.799  21.794   1.269  1.00 30.03 LIG 0.22  C 
ATOM     42 O    ALA B   6      -3.564  20.654   0.857  1.00 31.65 LIG-0.29  OA
ENDBRANCH 39 41
ENDBRANCH 37 39
ENDBRANCH 31 35
ENDBRANCH 28 31
ENDBRANCH 25 27
ENDBRANCH 3 25
TORSDOF 16
ENDMDL
MODEL 22
USER: ADFR SOLUTION from run 95
USER: SCORE 12.886064 LL:  -2.477 LR: -11.256 RR:   0.000 FEB:  -6.483
USER: RMSD 5.123828
USER: SEED 94
USER: STATUS no improvement in best in 6 clusters for 5 generations
USER: GENES 18
USER: genes 0 Translation |==|  0.49772 0.45250 0.57503
USER: genes 1 Rotation |==|  0.79497 0.71373 0.16444 0.56863
USER: genes 2 Torsion [N]-C--CA-[N] |==|  0.45936
USER: genes 3 Torsion [C]-CA--CB-[OG] |==|  0.73987
USER: genes 4 Torsion [CA]-CB--OG-[HG] |==|  0.08580
USER: genes 5 Torsion [C]-CA--N-[C] |==|  0.55137
USER: genes 6 Torsion [N]-C--CA-[N] |==|  0.41614
USER: genes 7 Torsion [C]-CA--N-[C] |==|  0.61356
USER: genes 8 Torsion [N]-C--CA-[N] |==|  0.53382
USER: genes 9 Torsion [C]-CA--N-[H1] |==|  0.94817
USER: genes 10 Torsion [C]-N--CA-[CB] |==|  0.83638
USER: genes 11 Torsion [N]-CA--C-[N] |==|  0.42438
USER: genes 12 Torsion [C]-N--CA-[CB] |==|  0.88889
USER: genes 13 Torsion [N]-CA--CB-[OG] |==|  0.62379
USER: genes 14 Torsion [CA]-CB--OG-[HG] |==|  0.55752
USER: genes 15 Torsion [N]-CA--C-[N] |==|  0.86703
USER: genes 16 Torsion [C]-N--CA-[C] |==|  0.67389
USER: genes 17 Torsion [N]-CA--C-[O] |==|  0.02214
ROOT
ATOM      1  C   SER B   3      -2.835  18.227   5.976  1.00 29.46 LIG 0.24  C 
ATOM      2 O    SER B   3      -1.882  18.025   6.732  1.00 29.29 LIG-0.27  OA
ATOM      3  N   ALA B   4      -4.080  17.830   6.232  1.00 28.70 LIG-0.35  N 
ATOM      4 H    ALA B   4      -4.735  17.948   5.688  1.00 28.70 LIG 0.16  HD
ENDROOT
BRANCH 1 5
ATOM      5  CA  SER B   3      -2.636  18.975   4.659  1.00 29.76 LIG 0.20  C 
BRANCH 5 6
ATOM      6  CB  SER B   3      -2.727  18.032   3.456  1.00 29.85 LIG 0.20  C 
BRANCH 6 7
ATOM      7 OG   SER B   3      -1.423  17.570   3.086  1.00 32.14 LIG-0.40  OA
ATOM      8 HG   SER B   3      -0.937  17.527   3.770  1.00 32.14 LIG 0.21  HD
ENDBRANCH 6 7
ENDBRANCH 5 6
BRANCH 5 9
ATOM      9  N   SER B   3      -1.350  19.640   4.658  1.00 30.15 LIG-0.34  N 
ATOM     10  C   ALA B   2      -1.073  20.632   3.820  1.00 30.60 LIG 0.24  C 
ATOM     11 O    ALA B   2      -1.916  21.144   3.092  1.00 30.40 LIG-0.27  OA
ATOM     12 H    SER B   3      -0.794  19.336   5.241  1.00 30.15 LIG 0.16  HD
BRANCH 10 13
ATOM     13  CA  ALA B   2       0.377  21.102   3.803  1.00 31.29 LIG 0.17  C 
ATOM     14  CB  ALA B   2       0.569  22.213   4.824  1.00 31.24 LIG 0.04  C 
BRANCH 13 15
ATOM     15  N   ALA B   2       0.710  21.601   2.475  1.00 32.02 LIG-0.35  N 
ATOM     16  C   ALA B   1       1.874  21.353   1.879  1.00 33.14 LIG 0.25  C 
ATOM     17 O    ALA B   1       2.832  20.813   2.447  1.00 33.78 LIG-0.27  OA
ATOM     18 H    ALA B   2       0.085  22.069   2.114  1.00 32.02 LIG 0.16  HD
BRANCH 16 19
ATOM     19  CA  ALA B   1       1.995  21.803   0.431  1.00 33.48 LIG 0.27  C 
ATOM     20  CB  ALA B   1       0.746  21.446  -0.333  1.00 33.96 LIG 0.05  C 
BRANCH 19 21
ATOM     21  N   ALA B   1       3.204  21.242  -0.261  1.00 33.82 LIG-0.07  N 
ATOM     22 H3   ALA B   1       3.578  21.873  -0.765  1.00 33.82 LIG 0.28  HD
ATOM     23 H2   ALA B   1       2.961  20.558  -0.777  1.00 33.82 LIG 0.28  HD
ATOM     24 H1   ALA B   1       3.790  20.962   0.347  1.00 33.82 LIG 0.28  HD
ENDBRANCH 19 21
ENDBRANCH 16 19
ENDBRANCH 13 15
ENDBRANCH 10 13
ENDBRANCH 5 9
ENDBRANCH 1 5
BRANCH 3 25
ATOM     25  CA  ALA B   4      -4.458  17.150   7.472  1.00 28.07 LIG 0.17  C 
ATOM     26  CB  ALA B   4      -3.654  15.857   7.632  1.00 28.13 LIG 0.04  C 
BRANCH 25 27
ATOM     27  C   ALA B   4      -4.202  18.042   8.668  1.00 27.72 LIG 0.24  C 
ATOM     28  N   SER B   5      -4.975  17.819   9.727  1.00 27.70 LIG-0.34  N 
ATOM     29 H    SER B   5      -5.709  17.371   9.699  1.00 27.70 LIG 0.16  HD
ATOM     30 O    ALA B   4      -3.311  18.890   8.641  1.00 26.03 LIG-0.27  OA
BRANCH 28 31
ATOM     31  CA  SER B   5      -4.631  18.325  11.051  1.00 28.70 LIG 0.20  C 
BRANCH 31 32
ATOM     32  CB  SER B   5      -3.119  18.189  11.305  1.00 28.19 LIG 0.20  C 
BRANCH 32 33
ATOM     33 OG   SER B   5      -2.831  17.676  12.610  1.00 31.03 LIG-0.40  OA
ATOM     34 HG   SER B   5      -2.042  17.875  12.821  1.00 31.03 LIG 0.21  HD
ENDBRANCH 32 33
ENDBRANCH 31 32
BRANCH 31 35
ATOM     35  C   SER B   5      -5.050  19.799  11.138  1.00 28.90 LIG 0.24  C 
ATOM     36 O    SER B   5      -5.658  20.225  12.122  1.00 29.19 LIG-0.27  OA
ATOM     37  N   ALA B   6      -4.696  20.585  10.130  1.00 29.26 LIG-0.35  N 
ATOM     38 H    ALA B   6      -4.221  20.326   9.461  1.00 29.26 LIG 0.16  HD
BRANCH 37 39
ATOM     39  CA  ALA B   6      -5.096  21.983  10.083  1.00 30.00 LIG 0.16  C 
ATOM     40  CB  ALA B   6      -3.869  22.920  10.071  1.00 31.04 LIG 0.04  C 
BRANCH 39 41
ATOM     41  C   ALA B   6      -5.975  22.272   8.893  1.00 30.03 LIG 0.22  C 
ATOM     42 O    ALA B   6      -6.380  21.334   8.200  1.00 31.65 LIG-0.29  OA
ENDBRANCH 39 41
ENDBRANCH 37 39
ENDBRANCH 31 35
ENDBRANCH 28 31
ENDBRANCH 25 27
ENDBRANCH 3 25
TORSDOF 16
ENDMDL
MODEL 23
USER: ADFR SOLUTION from run 169
USER: SCORE 12.637967 LL:  -3.018 LR: -11.252 RR:   0.000 FEB:  -6.479
USER: RMSD 8.665509
USER: SEED 168
USER: STATUS no improvement in best in 15 clusters for 5 generations
USER: GENES 18
USER: genes 0 Translation |==|  0.38819 0.59366 0.68414
USER: genes 1 Rotation |==|  0.80756 0.51847 0.77800 0.77889
USER: genes 2 Torsion [N]-C--CA-[N] |==|  0.36811
USER: genes 3 Torsion [C]-CA--CB-[OG] |==|  0.36036
USER: genes 4 Torsion [CA]-CB--OG-[HG] |==|  0.86341
USER: genes 5 Torsion [C]-CA--N-[C] |==|  0.18796
USER: genes 6 Torsion [N]-C--CA-[N] |==|  0.38486
USER: genes 7 Torsion [C]-CA--N-[C] |==|  0.81674
USER: genes 8 Torsion [N]-C--CA-[N] |==|  0.37652
USER: genes 9 Torsion [C]-CA--N-[H1] |==|  0.76662
USER: genes 10 Torsion [C]-N--CA-[CB] |==|  0.78210
USER: genes 11 Torsion [N]-CA--C-[N] |==|  0.22167
USER: genes 12 Torsion [C]-N--CA-[CB] |==|  0.19817
USER: genes 13 Torsion [N]-CA--CB-[OG] |==|  0.45925
USER: genes 14 Torsion [CA]-CB--OG-[HG] |==|  0.91684
USER: genes 15 Torsion [N]-CA--C-[N] |==|  0.03714
USER: genes 16 Torsion [C]-N--CA-[C] |==|  0.51998
USER: genes 17 Torsion [N]-CA--C-[O] |==|  0.96801
ROOT
ATOM      1  C   SER B   3      -4.725  20.344   8.594  1.00 29.46 LIG 0.24  C 
ATOM      2 O    SER B   3      -5.766  19.849   8.156  1.00 29.29 LIG-0.27  OA
ATOM      3  N   ALA B   4      -3.509  19.877   8.316  1.00 28.70 LIG-0.35  N 
ATOM      4 H    ALA B   4      -2.789  20.209   8.648  1.00 28.70 LIG 0.16  HD
ENDROOT
BRANCH 1 5
ATOM      5  CA  SER B   3      -4.773  21.567   9.508  1.00 29.76 LIG 0.20  C 
BRANCH 5 6
ATOM      6  CB  SER B   3      -5.238  21.199  10.919  1.00 29.85 LIG 0.20  C 
BRANCH 6 7
ATOM      7 OG   SER B   3      -4.335  21.730  11.895  1.00 32.14 LIG-0.40  OA
ATOM      8 HG   SER B   3      -3.547  21.534  11.683  1.00 32.14 LIG 0.21  HD
ENDBRANCH 6 7
ENDBRANCH 5 6
BRANCH 5 9
ATOM      9  N   SER B   3      -5.659  22.567   8.950  1.00 30.15 LIG-0.34  N 
ATOM     10  C   ALA B   2      -6.970  22.374   8.867  1.00 30.60 LIG 0.24  C 
ATOM     11 O    ALA B   2      -7.537  21.412   9.373  1.00 30.40 LIG-0.27  OA
ATOM     12 H    SER B   3      -5.262  23.282   8.683  1.00 30.15 LIG 0.16  HD
BRANCH 10 13
ATOM     13  CA  ALA B   2      -7.747  23.428   8.084  1.00 31.29 LIG 0.17  C 
ATOM     14  CB  ALA B   2      -8.432  24.383   9.050  1.00 31.24 LIG 0.04  C 
BRANCH 13 15
ATOM     15  N   ALA B   2      -8.752  22.773   7.256  1.00 32.02 LIG-0.35  N 
ATOM     16  C   ALA B   1      -8.442  21.974   6.238  1.00 33.14 LIG 0.25  C 
ATOM     17 O    ALA B   1      -7.291  21.833   5.805  1.00 33.78 LIG-0.27  OA
ATOM     18 H    ALA B   2      -9.561  22.952   7.486  1.00 32.02 LIG 0.16  HD
BRANCH 16 19
ATOM     19  CA  ALA B   1      -9.603  21.239   5.585  1.00 33.48 LIG 0.27  C 
ATOM     20  CB  ALA B   1      -9.664  19.817   6.078  1.00 33.96 LIG 0.05  C 
BRANCH 19 21
ATOM     21  N   ALA B   1      -9.546  21.266   4.084  1.00 33.82 LIG-0.07  N 
ATOM     22 H3   ALA B   1     -10.001  20.574   3.757  1.00 33.82 LIG 0.28  HD
ATOM     23 H2   ALA B   1      -8.699  21.215   3.817  1.00 33.82 LIG 0.28  HD
ATOM     24 H1   ALA B   1      -9.906  22.024   3.787  1.00 33.82 LIG 0.28  HD
ENDBRANCH 19 21
ENDBRANCH 16 19
ENDBRANCH 13 15
ENDBRANCH 10 13
ENDBRANCH 5 9
ENDBRANCH 1 5
BRANCH 3 25
ATOM     25  CA  ALA B   4      -3.278  18.748   7.414  1.00 28.07 LIG 0.17  C 
ATOM     26  CB  ALA B   4      -3.571  17.428   8.134  1.00 28.13 LIG 0.04  C 
BRANCH 25 27
ATOM     27  C   ALA B   4      -4.168  18.851   6.193  1.00 27.72 LIG 0.24  C 
ATOM     28  N   SER B   5      -3.749  19.688   5.247  1.00 27.70 LIG-0.34  N 
ATOM     29 H    SER B   5      -3.155  20.296   5.374  1.00 27.70 LIG 0.16  HD
ATOM     30 O    ALA B   4      -5.189  18.172   6.099  1.00 26.03 LIG-0.27  OA
BRANCH 28 31
ATOM     31  CA  SER B   5      -4.278  19.639   3.888  1.00 28.70 LIG 0.20  C 
BRANCH 31 32
ATOM     32  CB  SER B   5      -5.727  20.154   3.855  1.00 28.19 LIG 0.20  C 
BRANCH 32 33
ATOM     33 OG   SER B   5      -6.171  20.441   2.524  1.00 31.03 LIG-0.40  OA
ATOM     34 HG   SER B   5      -5.515  20.676   2.054  1.00 31.03 LIG 0.21  HD
ENDBRANCH 32 33
ENDBRANCH 31 32
BRANCH 31 35
ATOM     35  C   SER B   5      -3.389  20.503   2.984  1.00 28.90 LIG 0.24  C 
ATOM     36 O    SER B   5      -3.775  20.848   1.865  1.00 29.19 LIG-0.27  OA
ATOM     37  N   ALA B   6      -2.220  20.885   3.478  1.00 29.26 LIG-0.35  N 
ATOM     38 H    ALA B   6      -1.953  20.709   4.276  1.00 29.26 LIG 0.16  HD
BRANCH 37 39
ATOM     39  CA  ALA B   6      -1.276  21.654   2.681  1.00 30.00 LIG 0.16  C 
ATOM     40  CB  ALA B   6      -1.851  23.037   2.306  1.00 31.04 LIG 0.04  C 
BRANCH 39 41
ATOM     41  C   ALA B   6       0.045  21.821   3.388  1.00 30.03 LIG 0.22  C 
ATOM     42 O    ALA B   6       0.134  21.516   4.581  1.00 31.65 LIG-0.29  OA
ENDBRANCH 39 41
ENDBRANCH 37 39
ENDBRANCH 31 35
ENDBRANCH 28 31
ENDBRANCH 25 27
ENDBRANCH 3 25
TORSDOF 16
ENDMDL
MODEL 24
USER: ADFR SOLUTION from run 151
USER: SCORE 11.799264 LL:  -2.599 LR: -11.241 RR:   0.000 FEB:  -6.468
USER: RMSD 7.460261
USER: SEED 150
USER: STATUS no improvement in best in 12 clusters for 5 generations
USER: GENES 18
USER: genes 0 Translation |==|  0.52555 0.63880 0.29545
USER: genes 1 Rotation |==|  0.17693 0.44465 0.82662 0.68943
USER: genes 2 Torsion [N]-C--CA-[N] |==|  0.91122
USER: genes 3 Torsion [C]-CA--CB-[OG] |==|  0.82240
USER: genes 4 Torsion [CA]-CB--OG-[HG] |==|  0.93932
USER: genes 5 Torsion [C]-CA--N-[C] |==|  0.74264
USER: genes 6 Torsion [N]-C--CA-[N] |==|  0.83681
USER: genes 7 Torsion [C]-CA--N-[C] |==|  0.72105
USER: genes 8 Torsion [N]-C--CA-[N] |==|  0.90979
USER: genes 9 Torsion [C]-CA--N-[H1] |==|  0.94911
USER: genes 10 Torsion [C]-N--CA-[CB] |==|  0.87936
USER: genes 11 Torsion [N]-CA--C-[N] |==|  0.90354
USER: genes 12 Torsion [C]-N--CA-[CB] |==|  0.20039
USER: genes 13 Torsion [N]-CA--CB-[OG] |==|  0.40565
USER: genes 14 Torsion [CA]-CB--OG-[HG] |==|  0.68089
USER: genes 15 Torsion [N]-CA--C-[N] |==|  0.29532
USER: genes 16 Torsion [C]-N--CA-[C] |==|  0.18297
USER: genes 17 Torsion [N]-CA--C-[O] |==|  0.36567
ROOT
ATOM      1  C   SER B   3      -2.355  21.021  -0.734  1.00 29.46 LIG 0.24  C 
ATOM      2 O    SER B   3      -2.140  19.872  -0.340  1.00 29.29 LIG-0.27  OA
ATOM      3  N   ALA B   4      -3.139  21.887  -0.095  1.00 28.70 LIG-0.35  N 
ATOM      4 H    ALA B   4      -3.308  22.677  -0.390  1.00 28.70 LIG 0.16  HD
ENDROOT
BRANCH 1 5
ATOM      5  CA  SER B   3      -1.708  21.535  -2.018  1.00 29.76 LIG 0.20  C 
BRANCH 5 6
ATOM      6  CB  SER B   3      -0.351  22.188  -1.743  1.00 29.85 LIG 0.20  C 
BRANCH 6 7
ATOM      7 OG   SER B   3      -0.515  23.352  -0.926  1.00 32.14 LIG-0.40  OA
ATOM      8 HG   SER B   3      -1.304  23.632  -0.993  1.00 32.14 LIG 0.21  HD
ENDBRANCH 6 7
ENDBRANCH 5 6
BRANCH 5 9
ATOM      9  N   SER B   3      -2.583  22.489  -2.666  1.00 30.15 LIG-0.34  N 
ATOM     10  C   ALA B   2      -3.456  22.122  -3.597  1.00 30.60 LIG 0.24  C 
ATOM     11 O    ALA B   2      -3.681  20.949  -3.875  1.00 30.40 LIG-0.27  OA
ATOM     12 H    SER B   3      -2.484  23.300  -2.396  1.00 30.15 LIG 0.16  HD
BRANCH 10 13
ATOM     13  CA  ALA B   2      -4.168  23.257  -4.324  1.00 31.29 LIG 0.17  C 
ATOM     14  CB  ALA B   2      -3.149  24.117  -5.056  1.00 31.24 LIG 0.04  C 
BRANCH 13 15
ATOM     15  N   ALA B   2      -4.888  24.076  -3.358  1.00 32.02 LIG-0.35  N 
ATOM     16  C   ALA B   1      -6.198  23.967  -3.150  1.00 33.14 LIG 0.25  C 
ATOM     17 O    ALA B   1      -6.948  23.279  -3.856  1.00 33.78 LIG-0.27  OA
ATOM     18 H    ALA B   2      -4.389  24.635  -2.936  1.00 32.02 LIG 0.16  HD
BRANCH 16 19
ATOM     19  CA  ALA B   1      -6.763  24.774  -1.991  1.00 33.48 LIG 0.27  C 
ATOM     20  CB  ALA B   1      -7.217  26.129  -2.472  1.00 33.96 LIG 0.05  C 
BRANCH 19 21
ATOM     21  N   ALA B   1      -5.796  24.925  -0.852  1.00 33.82 LIG-0.07  N 
ATOM     22 H3   ALA B   1      -6.227  24.822  -0.080  1.00 33.82 LIG 0.28  HD
ATOM     23 H2   ALA B   1      -5.429  25.736  -0.879  1.00 33.82 LIG 0.28  HD
ATOM     24 H1   ALA B   1      -5.158  24.308  -0.921  1.00 33.82 LIG 0.28  HD
ENDBRANCH 19 21
ENDBRANCH 16 19
ENDBRANCH 13 15
ENDBRANCH 10 13
ENDBRANCH 5 9
ENDBRANCH 1 5
BRANCH 3 25
ATOM     25  CA  ALA B   4      -3.793  21.579   1.178  1.00 28.07 LIG 0.17  C 
ATOM     26  CB  ALA B   4      -4.383  20.167   1.140  1.00 28.13 LIG 0.04  C 
BRANCH 25 27
ATOM     27  C   ALA B   4      -2.803  21.670   2.321  1.00 27.72 LIG 0.24  C 
ATOM     28  N   SER B   5      -1.561  21.287   2.036  1.00 27.70 LIG-0.34  N 
ATOM     29 H    SER B   5      -1.350  20.818   1.347  1.00 27.70 LIG 0.16  HD
ATOM     30 O    ALA B   4      -3.149  22.100   3.420  1.00 26.03 LIG-0.27  OA
BRANCH 28 31
ATOM     31  CA  SER B   5      -0.433  21.642   2.890  1.00 28.70 LIG 0.20  C 
BRANCH 31 32
ATOM     32  CB  SER B   5      -0.477  20.840   4.203  1.00 28.19 LIG 0.20  C 
BRANCH 32 33
ATOM     33 OG   SER B   5       0.831  20.522   4.690  1.00 31.03 LIG-0.40  OA
ATOM     34 HG   SER B   5       0.942  19.689   4.671  1.00 31.03 LIG 0.21  HD
ENDBRANCH 32 33
ENDBRANCH 31 32
BRANCH 31 35
ATOM     35  C   SER B   5       0.869  21.343   2.134  1.00 28.90 LIG 0.24  C 
ATOM     36 O    SER B   5       1.235  20.181   1.944  1.00 29.19 LIG-0.27  OA
ATOM     37  N   ALA B   6       1.547  22.384   1.671  1.00 29.26 LIG-0.35  N 
ATOM     38 H    ALA B   6       1.284  23.200   1.737  1.00 29.26 LIG 0.16  HD
BRANCH 37 39
ATOM     39  CA  ALA B   6       2.825  22.215   0.995  1.00 30.00 LIG 0.16  C 
ATOM     40  CB  ALA B   6       3.845  21.483   1.893  1.00 31.04 LIG 0.04  C 
BRANCH 39 41
ATOM     41  C   ALA B   6       2.671  21.480  -0.313  1.00 30.03 LIG 0.22  C 
ATOM     42 O    ALA B   6       3.206  21.936  -1.328  1.00 31.65 LIG-0.29  OA
ENDBRANCH 39 41
ENDBRANCH 37 39
ENDBRANCH 31 35
ENDBRANCH 28 31
ENDBRANCH 25 27
ENDBRANCH 3 25
TORSDOF 16
ENDMDL
MODEL 25
USER: ADFR SOLUTION from run 11
USER: SCORE 12.655058 LL:  -2.850 LR: -11.210 RR:   0.000 FEB:  -6.437
USER: RMSD 9.384343
USER: SEED 859772
USER: STATUS no improvement in best in 8 clusters for 5 generations
USER: GENES 18
USER: genes 0 Translation |==|  0.66290 0.70963 0.45431
USER: genes 1 Rotation |==|  0.37694 0.97220 0.60725 0.51960
USER: genes 2 Torsion [N]-C--CA-[N] |==|  0.96304
USER: genes 3 Torsion [C]-CA--CB-[OG] |==|  0.69992
USER: genes 4 Torsion [CA]-CB--OG-[HG] |==|  0.43052
USER: genes 5 Torsion [C]-CA--N-[C] |==|  0.78552
USER: genes 6 Torsion [N]-C--CA-[N] |==|  0.46296
USER: genes 7 Torsion [C]-CA--N-[C] |==|  0.70748
USER: genes 8 Torsion [N]-C--CA-[N] |==|  0.01239
USER: genes 9 Torsion [C]-CA--N-[H1] |==|  0.41011
USER: genes 10 Torsion [C]-N--CA-[CB] |==|  0.19998
USER: genes 11 Torsion [N]-CA--C-[N] |==|  0.11109
USER: genes 12 Torsion [C]-N--CA-[CB] |==|  0.80497
USER: genes 13 Torsion [N]-CA--CB-[OG] |==|  0.97752
USER: genes 14 Torsion [CA]-CB--OG-[HG] |==|  0.45332
USER: genes 15 Torsion [N]-CA--C-[N] |==|  0.10777
USER: genes 16 Torsion [C]-N--CA-[C] |==|  0.16661
USER: genes 17 Torsion [N]-CA--C-[O] |==|  0.14297
ROOT
ATOM      1  C   SER B   3       0.014  22.084   3.078  1.00 29.46 LIG 0.24  C 
ATOM      2 O    SER B   3       0.688  22.671   3.928  1.00 29.29 LIG-0.27  OA
ATOM      3  N   ALA B   4       0.354  21.999   1.794  1.00 28.70 LIG-0.35  N 
ATOM      4 H    ALA B   4      -0.134  21.613   1.201  1.00 28.70 LIG 0.16  HD
ENDROOT
BRANCH 1 5
ATOM      5  CA  SER B   3      -1.290  21.391   3.466  1.00 29.76 LIG 0.20  C 
BRANCH 5 6
ATOM      6  CB  SER B   3      -1.034  20.128   4.293  1.00 29.85 LIG 0.20  C 
BRANCH 6 7
ATOM      7 OG   SER B   3      -1.311  18.959   3.515  1.00 32.14 LIG-0.40  OA
ATOM      8 HG   SER B   3      -0.868  18.311   3.815  1.00 32.14 LIG 0.21  HD
ENDBRANCH 6 7
ENDBRANCH 5 6
BRANCH 5 9
ATOM      9  N   SER B   3      -2.041  21.047   2.277  1.00 30.15 LIG-0.34  N 
ATOM     10  C   ALA B   2      -2.732  21.954   1.597  1.00 30.60 LIG 0.24  C 
ATOM     11 O    ALA B   2      -2.676  23.155   1.838  1.00 30.40 LIG-0.27  OA
ATOM     12 H    SER B   3      -1.997  20.216   2.059  1.00 30.15 LIG 0.16  HD
BRANCH 10 13
ATOM     13  CA  ALA B   2      -3.625  21.412   0.485  1.00 31.29 LIG 0.17  C 
ATOM     14  CB  ALA B   2      -2.768  20.966  -0.690  1.00 31.24 LIG 0.04  C 
BRANCH 13 15
ATOM     15  N   ALA B   2      -4.542  22.456   0.047  1.00 32.02 LIG-0.35  N 
ATOM     16  C   ALA B   1      -5.834  22.466   0.368  1.00 33.14 LIG 0.25  C 
ATOM     17 O    ALA B   1      -6.406  21.524   0.930  1.00 33.78 LIG-0.27  OA
ATOM     18 H    ALA B   2      -4.171  23.064  -0.436  1.00 32.02 LIG 0.16  HD
BRANCH 16 19
ATOM     19  CA  ALA B   1      -6.613  23.711  -0.027  1.00 33.48 LIG 0.27  C 
ATOM     20  CB  ALA B   1      -7.854  23.329  -0.792  1.00 33.96 LIG 0.05  C 
BRANCH 19 21
ATOM     21  N   ALA B   1      -5.796  24.691  -0.819  1.00 33.82 LIG-0.07  N 
ATOM     22 H3   ALA B   1      -5.159  24.256  -1.263  1.00 33.82 LIG 0.28  HD
ATOM     23 H2   ALA B   1      -5.421  25.281  -0.267  1.00 33.82 LIG 0.28  HD
ATOM     24 H1   ALA B   1      -6.322  25.118  -1.397  1.00 33.82 LIG 0.28  HD
ENDBRANCH 19 21
ENDBRANCH 16 19
ENDBRANCH 13 15
ENDBRANCH 10 13
ENDBRANCH 5 9
ENDBRANCH 1 5
BRANCH 3 25
ATOM     25  CA  ALA B   4       1.598  22.557   1.262  1.00 28.07 LIG 0.17  C 
ATOM     26  CB  ALA B   4       2.793  21.718   1.722  1.00 28.13 LIG 0.04  C 
BRANCH 25 27
ATOM     27  C   ALA B   4       1.566  22.582  -0.252  1.00 27.72 LIG 0.24  C 
ATOM     28  N   SER B   5       0.403  22.928  -0.797  1.00 27.70 LIG-0.34  N 
ATOM     29 H    SER B   5      -0.344  22.929  -0.371  1.00 27.70 LIG 0.16  HD
ATOM     30 O    ALA B   4       2.575  22.321  -0.907  1.00 26.03 LIG-0.27  OA
BRANCH 28 31
ATOM     31  CA  SER B   5       0.300  23.344  -2.191  1.00 28.70 LIG 0.20  C 
BRANCH 31 32
ATOM     32  CB  SER B   5       0.954  24.723  -2.392  1.00 28.19 LIG 0.20  C 
BRANCH 32 33
ATOM     33 OG   SER B   5       1.329  25.333  -1.152  1.00 31.03 LIG-0.40  OA
ATOM     34 HG   SER B   5       1.875  25.954  -1.299  1.00 31.03 LIG 0.21  HD
ENDBRANCH 32 33
ENDBRANCH 31 32
BRANCH 31 35
ATOM     35  C   SER B   5       0.998  22.297  -3.069  1.00 28.90 LIG 0.24  C 
ATOM     36 O    SER B   5       1.694  22.641  -4.027  1.00 29.19 LIG-0.27  OA
ATOM     37  N   ALA B   6       0.844  21.026  -2.726  1.00 29.26 LIG-0.35  N 
ATOM     38 H    ALA B   6       0.413  20.763  -2.030  1.00 29.26 LIG 0.16  HD
BRANCH 37 39
ATOM     39  CA  ALA B   6       1.411  19.952  -3.527  1.00 30.00 LIG 0.16  C 
ATOM     40  CB  ALA B   6       0.788  19.913  -4.939  1.00 31.04 LIG 0.04  C 
BRANCH 39 41
ATOM     41  C   ALA B   6       2.911  20.064  -3.629  1.00 30.03 LIG 0.22  C 
ATOM     42 O    ALA B   6       3.578  20.189  -2.599  1.00 31.65 LIG-0.29  OA
ENDBRANCH 39 41
ENDBRANCH 37 39
ENDBRANCH 31 35
ENDBRANCH 28 31
ENDBRANCH 25 27
ENDBRANCH 3 25
TORSDOF 16
ENDMDL
MODEL 26
USER: ADFR SOLUTION from run 68
USER: SCORE 12.782215 LL:  -2.436 LR: -11.145 RR:   0.000 FEB:  -6.373
USER: RMSD 4.375008
USER: SEED 67
USER: STATUS no improvement in best in 11 clusters for 5 generations
USER: GENES 18
USER: genes 0 Translation |==|  0.49273 0.50173 0.58578
USER: genes 1 Rotation |==|  0.79756 0.51897 0.10991 0.59449
USER: genes 2 Torsion [N]-C--CA-[N] |==|  0.36417
USER: genes 3 Torsion [C]-CA--CB-[OG] |==|  0.61320
USER: genes 4 Torsion [CA]-CB--OG-[HG] |==|  0.14183
USER: genes 5 Torsion [C]-CA--N-[C] |==|  0.74548
USER: genes 6 Torsion [N]-C--CA-[N] |==|  0.41083
USER: genes 7 Torsion [C]-CA--N-[C] |==|  0.62939
USER: genes 8 Torsion [N]-C--CA-[N] |==|  0.93785
USER: genes 9 Torsion [C]-CA--N-[H1] |==|  0.93101
USER: genes 10 Torsion [C]-N--CA-[CB] |==|  0.51667
USER: genes 11 Torsion [N]-CA--C-[N] |==|  0.44650
USER: genes 12 Torsion [C]-N--CA-[CB] |==|  0.53448
USER: genes 13 Torsion [N]-CA--CB-[OG] |==|  0.93208
USER: genes 14 Torsion [CA]-CB--OG-[HG] |==|  0.87296
USER: genes 15 Torsion [N]-CA--C-[N] |==|  0.45787
USER: genes 16 Torsion [C]-N--CA-[C] |==|  0.70919
USER: genes 17 Torsion [N]-CA--C-[O] |==|  0.01445
ROOT
ATOM      1  C   SER B   3      -2.921  18.965   6.234  1.00 29.46 LIG 0.24  C 
ATOM      2 O    SER B   3      -2.047  18.939   7.103  1.00 29.29 LIG-0.27  OA
ATOM      3  N   ALA B   4      -4.182  19.327   6.463  1.00 28.70 LIG-0.35  N 
ATOM      4 H    ALA B   4      -4.794  19.315   5.859  1.00 28.70 LIG 0.16  HD
ENDROOT
BRANCH 1 5
ATOM      5  CA  SER B   3      -2.594  18.576   4.794  1.00 29.76 LIG 0.20  C 
BRANCH 5 6
ATOM      6  CB  SER B   3      -2.399  17.064   4.649  1.00 29.85 LIG 0.20  C 
BRANCH 6 7
ATOM      7 OG   SER B   3      -1.298  16.786   3.777  1.00 32.14 LIG-0.40  OA
ATOM      8 HG   SER B   3      -0.626  17.223   4.027  1.00 32.14 LIG 0.21  HD
ENDBRANCH 6 7
ENDBRANCH 5 6
BRANCH 5 9
ATOM      9  N   SER B   3      -1.399  19.263   4.354  1.00 30.15 LIG-0.34  N 
ATOM     10  C   ALA B   2      -1.451  20.438   3.738  1.00 30.60 LIG 0.24  C 
ATOM     11 O    ALA B   2      -2.487  21.084   3.620  1.00 30.40 LIG-0.27  OA
ATOM     12 H    SER B   3      -0.667  18.846   4.527  1.00 30.15 LIG 0.16  HD
BRANCH 10 13
ATOM     13  CA  ALA B   2      -0.133  20.947   3.164  1.00 31.29 LIG 0.17  C 
ATOM     14  CB  ALA B   2       0.571  21.820   4.191  1.00 31.24 LIG 0.04  C 
BRANCH 13 15
ATOM     15  N   ALA B   2      -0.396  21.727   1.962  1.00 32.02 LIG-0.35  N 
ATOM     16  C   ALA B   1       0.289  21.569   0.832  1.00 33.14 LIG 0.25  C 
ATOM     17 O    ALA B   1       1.302  20.865   0.739  1.00 33.78 LIG-0.27  OA
ATOM     18 H    ALA B   2      -1.034  22.298   2.051  1.00 32.02 LIG 0.16  HD
BRANCH 16 19
ATOM     19  CA  ALA B   1      -0.222  22.342  -0.376  1.00 33.48 LIG 0.27  C 
ATOM     20  CB  ALA B   1       0.621  23.569  -0.604  1.00 33.96 LIG 0.05  C 
BRANCH 19 21
ATOM     21  N   ALA B   1      -1.671  22.721  -0.261  1.00 33.82 LIG-0.07  N 
ATOM     22 H3   ALA B   1      -2.052  22.686  -1.065  1.00 33.82 LIG 0.28  HD
ATOM     23 H2   ALA B   1      -1.737  23.549   0.061  1.00 33.82 LIG 0.28  HD
ATOM     24 H1   ALA B   1      -2.084  22.155   0.288  1.00 33.82 LIG 0.28  HD
ENDBRANCH 19 21
ENDBRANCH 16 19
ENDBRANCH 13 15
ENDBRANCH 10 13
ENDBRANCH 5 9
ENDBRANCH 1 5
BRANCH 3 25
ATOM     25  CA  ALA B   4      -4.653  19.783   7.772  1.00 28.07 LIG 0.17  C 
ATOM     26  CB  ALA B   4      -6.171  19.981   7.748  1.00 28.13 LIG 0.04  C 
BRANCH 25 27
ATOM     27  C   ALA B   4      -4.304  18.772   8.845  1.00 27.72 LIG 0.24  C 
ATOM     28  N   SER B   5      -4.314  19.233  10.092  1.00 27.70 LIG-0.34  N 
ATOM     29 H    SER B   5      -4.296  20.069  10.294  1.00 27.70 LIG 0.16  HD
ATOM     30 O    ALA B   4      -4.060  17.602   8.552  1.00 26.03 LIG-0.27  OA
BRANCH 28 31
ATOM     31  CA  SER B   5      -4.357  18.337  11.243  1.00 28.70 LIG 0.20  C 
BRANCH 31 32
ATOM     32  CB  SER B   5      -4.669  19.125  12.528  1.00 28.19 LIG 0.20  C 
BRANCH 32 33
ATOM     33 OG   SER B   5      -4.296  20.503  12.424  1.00 31.03 LIG-0.40  OA
ATOM     34 HG   SER B   5      -3.527  20.562  12.090  1.00 31.03 LIG 0.21  HD
ENDBRANCH 32 33
ENDBRANCH 31 32
BRANCH 31 35
ATOM     35  C   SER B   5      -5.438  17.276  11.000  1.00 28.90 LIG 0.24  C 
ATOM     36 O    SER B   5      -6.262  17.412  10.093  1.00 29.19 LIG-0.27  OA
ATOM     37  N   ALA B   6      -5.415  16.205  11.780  1.00 29.26 LIG-0.35  N 
ATOM     38 H    ALA B   6      -4.817  16.058  12.380  1.00 29.26 LIG 0.16  HD
BRANCH 37 39
ATOM     39  CA  ALA B   6      -6.432  15.170  11.675  1.00 30.00 LIG 0.16  C 
ATOM     40  CB  ALA B   6      -5.800  13.763  11.616  1.00 31.04 LIG 0.04  C 
BRANCH 39 41
ATOM     41  C   ALA B   6      -7.421  15.242  12.810  1.00 30.03 LIG 0.22  C 
ATOM     42 O    ALA B   6      -7.347  16.173  13.618  1.00 31.65 LIG-0.29  OA
ENDBRANCH 39 41
ENDBRANCH 37 39
ENDBRANCH 31 35
ENDBRANCH 28 31
ENDBRANCH 25 27
ENDBRANCH 3 25
TORSDOF 16
ENDMDL
MODEL 27
USER: ADFR SOLUTION from run 47
USER: SCORE 12.668585 LL:  -2.595 LR: -11.139 RR:   0.000 FEB:  -6.366
USER: RMSD 4.752424
USER: SEED 46
USER: STATUS no improvement in best in 12 clusters for 5 generations
USER: GENES 18
USER: genes 0 Translation |==|  0.41846 0.61748 0.45903
USER: genes 1 Rotation |==|  0.86610 0.66740 0.20911 0.55768
USER: genes 2 Torsion [N]-C--CA-[N] |==|  0.98706
USER: genes 3 Torsion [C]-CA--CB-[OG] |==|  0.64964
USER: genes 4 Torsion [CA]-CB--OG-[HG] |==|  0.76735
USER: genes 5 Torsion [C]-CA--N-[C] |==|  0.75556
USER: genes 6 Torsion [N]-C--CA-[N] |==|  0.99994
USER: genes 7 Torsion [C]-CA--N-[C] |==|  0.71536
USER: genes 8 Torsion [N]-C--CA-[N] |==|  0.00366
USER: genes 9 Torsion [C]-CA--N-[H1] |==|  0.33656
USER: genes 10 Torsion [C]-N--CA-[CB] |==|  0.82777
USER: genes 11 Torsion [N]-CA--C-[N] |==|  0.26272
USER: genes 12 Torsion [C]-N--CA-[CB] |==|  0.56888
USER: genes 13 Torsion [N]-CA--CB-[OG] |==|  0.96869
USER: genes 14 Torsion [CA]-CB--OG-[HG] |==|  0.93412
USER: genes 15 Torsion [N]-CA--C-[N] |==|  0.30315
USER: genes 16 Torsion [C]-N--CA-[C] |==|  0.65895
USER: genes 17 Torsion [N]-CA--C-[O] |==|  0.69376
ROOT
ATOM      1  C   SER B   3      -4.203  20.701   3.192  1.00 29.46 LIG 0.24  C 
ATOM      2 O    SER B   3      -3.592  20.297   4.184  1.00 29.29 LIG-0.27  OA
ATOM      3  N   ALA B   4      -5.523  20.612   3.048  1.00 28.70 LIG-0.35  N 
ATOM      4 H    ALA B   4      -5.940  20.869   2.341  1.00 28.70 LIG 0.16  HD
ENDROOT
BRANCH 1 5
ATOM      5  CA  SER B   3      -3.452  21.356   2.034  1.00 29.76 LIG 0.20  C 
BRANCH 5 6
ATOM      6  CB  SER B   3      -2.751  22.644   2.474  1.00 29.85 LIG 0.20  C 
BRANCH 6 7
ATOM      7 OG   SER B   3      -3.135  23.734   1.629  1.00 32.14 LIG-0.40  OA
ATOM      8 HG   SER B   3      -2.661  23.732   0.937  1.00 32.14 LIG 0.21  HD
ENDBRANCH 6 7
ENDBRANCH 5 6
BRANCH 5 9
ATOM      9  N   SER B   3      -4.369  21.649   0.953  1.00 30.15 LIG-0.34  N 
ATOM     10  C   ALA B   2      -4.643  20.761   0.004  1.00 30.60 LIG 0.24  C 
ATOM     11 O    ALA B   2      -4.256  19.599   0.047  1.00 30.40 LIG-0.27  OA
ATOM     12 H    SER B   3      -4.712  22.438   0.983  1.00 30.15 LIG 0.16  HD
BRANCH 10 13
ATOM     13  CA  ALA B   2      -5.471  21.276  -1.169  1.00 31.29 LIG 0.17  C 
ATOM     14  CB  ALA B   2      -4.685  21.114  -2.461  1.00 31.24 LIG 0.04  C 
BRANCH 13 15
ATOM     15  N   ALA B   2      -5.781  22.684  -0.963  1.00 32.02 LIG-0.35  N 
ATOM     16  C   ALA B   1      -6.970  23.110  -0.546  1.00 33.14 LIG 0.25  C 
ATOM     17 O    ALA B   1      -7.962  22.377  -0.442  1.00 33.78 LIG-0.27  OA
ATOM     18 H    ALA B   2      -5.124  23.213  -1.136  1.00 32.02 LIG 0.16  HD
BRANCH 16 19
ATOM     19  CA  ALA B   1      -7.076  24.593  -0.221  1.00 33.48 LIG 0.27  C 
ATOM     20  CB  ALA B   1      -8.201  25.219  -1.004  1.00 33.96 LIG 0.05  C 
BRANCH 19 21
ATOM     21  N   ALA B   1      -5.796  25.341  -0.463  1.00 33.82 LIG-0.07  N 
ATOM     22 H3   ALA B   1      -5.180  24.782  -0.779  1.00 33.82 LIG 0.28  HD
ATOM     23 H2   ALA B   1      -5.509  25.695   0.301  1.00 33.82 LIG 0.28  HD
ATOM     24 H1   ALA B   1      -5.939  25.990  -1.056  1.00 33.82 LIG 0.28  HD
ENDBRANCH 19 21
ENDBRANCH 16 19
ENDBRANCH 13 15
ENDBRANCH 10 13
ENDBRANCH 5 9
ENDBRANCH 1 5
BRANCH 3 25
ATOM     25  CA  ALA B   4      -6.400  20.063   4.083  1.00 28.07 LIG 0.17  C 
ATOM     26  CB  ALA B   4      -6.049  18.597   4.351  1.00 28.13 LIG 0.04  C 
BRANCH 25 27
ATOM     27  C   ALA B   4      -6.260  20.848   5.371  1.00 27.72 LIG 0.24  C 
ATOM     28  N   SER B   5      -7.147  21.823   5.549  1.00 27.70 LIG-0.34  N 
ATOM     29 H    SER B   5      -7.629  22.153   4.917  1.00 27.70 LIG 0.16  HD
ATOM     30 O    ALA B   4      -5.390  20.559   6.192  1.00 26.03 LIG-0.27  OA
BRANCH 28 31
ATOM     31  CA  SER B   5      -7.379  22.423   6.858  1.00 28.70 LIG 0.20  C 
BRANCH 31 32
ATOM     32  CB  SER B   5      -8.792  23.029   6.931  1.00 28.19 LIG 0.20  C 
BRANCH 32 33
ATOM     33 OG   SER B   5      -9.424  23.089   5.648  1.00 31.03 LIG-0.40  OA
ATOM     34 HG   SER B   5      -8.838  23.095   5.046  1.00 31.03 LIG 0.21  HD
ENDBRANCH 32 33
ENDBRANCH 31 32
BRANCH 31 35
ATOM     35  C   SER B   5      -7.214  21.339   7.931  1.00 28.90 LIG 0.24  C 
ATOM     36 O    SER B   5      -8.032  20.423   8.033  1.00 29.19 LIG-0.27  OA
ATOM     37  N   ALA B   6      -6.142  21.420   8.707  1.00 29.26 LIG-0.35  N 
ATOM     38 H    ALA B   6      -5.526  22.014   8.619  1.00 29.26 LIG 0.16  HD
BRANCH 37 39
ATOM     39  CA  ALA B   6      -5.923  20.480   9.796  1.00 30.00 LIG 0.16  C 
ATOM     40  CB  ALA B   6      -4.689  19.590   9.533  1.00 31.04 LIG 0.04  C 
BRANCH 39 41
ATOM     41  C   ALA B   6      -5.775  21.185  11.120  1.00 30.03 LIG 0.22  C 
ATOM     42 O    ALA B   6      -4.672  21.202  11.675  1.00 31.65 LIG-0.29  OA
ENDBRANCH 39 41
ENDBRANCH 37 39
ENDBRANCH 31 35
ENDBRANCH 28 31
ENDBRANCH 25 27
ENDBRANCH 3 25
TORSDOF 16
ENDMDL
MODEL 28
USER: ADFR SOLUTION from run 1
USER: SCORE 10.403517 LL:  -2.417 LR: -11.109 RR:   0.000 FEB:  -6.336
USER: RMSD 4.272219
USER: SEED 229130
USER: STATUS no improvement in best in 7 clusters for 5 generations
USER: GENES 18
USER: genes 0 Translation |==|  0.75600 0.66301 0.40014
USER: genes 1 Rotation |==|  0.22862 0.31837 0.87794 0.52277
USER: genes 2 Torsion [N]-C--CA-[N] |==|  0.75026
USER: genes 3 Torsion [C]-CA--CB-[OG] |==|  0.14561
USER: genes 4 Torsion [CA]-CB--OG-[HG] |==|  0.18152
USER: genes 5 Torsion [C]-CA--N-[C] |==|  0.65556
USER: genes 6 Torsion [N]-C--CA-[N] |==|  0.09928
USER: genes 7 Torsion [C]-CA--N-[C] |==|  0.16682
USER: genes 8 Torsion [N]-C--CA-[N] |==|  0.33075
USER: genes 9 Torsion [C]-CA--N-[H1] |==|  0.71685
USER: genes 10 Torsion [C]-N--CA-[CB] |==|  0.27465
USER: genes 11 Torsion [N]-CA--C-[N] |==|  0.50066
USER: genes 12 Torsion [C]-N--CA-[CB] |==|  0.24791
USER: genes 13 Torsion [N]-CA--CB-[OG] |==|  0.07719
USER: genes 14 Torsion [CA]-CB--OG-[HG] |==|  0.98296
USER: genes 15 Torsion [N]-CA--C-[N] |==|  0.35619
USER: genes 16 Torsion [C]-N--CA-[C] |==|  0.75344
USER: genes 17 Torsion [N]-CA--C-[O] |==|  0.90210
ROOT
ATOM      1  C   SER B   3       1.620  21.384   1.778  1.00 29.46 LIG 0.24  C 
ATOM      2 O    SER B   3       2.642  20.848   2.213  1.00 29.29 LIG-0.27  OA
ATOM      3  N   ALA B   4       0.443  21.344   2.400  1.00 28.70 LIG-0.35  N 
ATOM      4 H    ALA B   4      -0.273  21.695   2.078  1.00 28.70 LIG 0.16  HD
ENDROOT
BRANCH 1 5
ATOM      5  CA  SER B   3       1.649  22.156   0.461  1.00 29.76 LIG 0.20  C 
BRANCH 5 6
ATOM      6  CB  SER B   3       0.661  23.325   0.471  1.00 29.85 LIG 0.20  C 
BRANCH 6 7
ATOM      7 OG   SER B   3       0.871  24.145   1.626  1.00 32.14 LIG-0.40  OA
ATOM      8 HG   SER B   3       1.627  24.507   1.579  1.00 32.14 LIG 0.21  HD
ENDBRANCH 6 7
ENDBRANCH 5 6
BRANCH 5 9
ATOM      9  N   SER B   3       1.339  21.268  -0.640  1.00 30.15 LIG-0.34  N 
ATOM     10  C   ALA B   2       2.158  21.119  -1.674  1.00 30.60 LIG 0.24  C 
ATOM     11 O    ALA B   2       3.283  21.606  -1.709  1.00 30.40 LIG-0.27  OA
ATOM     12 H    SER B   3       0.588  20.855  -0.561  1.00 30.15 LIG 0.16  HD
BRANCH 10 13
ATOM     13  CA  ALA B   2       1.613  20.305  -2.842  1.00 31.29 LIG 0.17  C 
ATOM     14  CB  ALA B   2       2.336  20.695  -4.122  1.00 31.24 LIG 0.04  C 
BRANCH 13 15
ATOM     15  N   ALA B   2       0.187  20.566  -2.992  1.00 32.02 LIG-0.35  N 
ATOM     16  C   ALA B   1      -0.305  21.779  -3.236  1.00 33.14 LIG 0.25  C 
ATOM     17 O    ALA B   1       0.376  22.812  -3.206  1.00 33.78 LIG-0.27  OA
ATOM     18 H    ALA B   2      -0.305  19.866  -2.909  1.00 32.02 LIG 0.16  HD
BRANCH 16 19
ATOM     19  CA  ALA B   1      -1.795  21.851  -3.532  1.00 33.48 LIG 0.27  C 
ATOM     20  CB  ALA B   1      -2.024  22.362  -4.931  1.00 33.96 LIG 0.05  C 
BRANCH 19 21
ATOM     21  N   ALA B   1      -2.552  22.689  -2.543  1.00 33.82 LIG-0.07  N 
ATOM     22 H3   ALA B   1      -3.147  23.192  -2.973  1.00 33.82 LIG 0.28  HD
ATOM     23 H2   ALA B   1      -1.985  23.215  -2.102  1.00 33.82 LIG 0.28  HD
ATOM     24 H1   ALA B   1      -2.974  22.159  -1.966  1.00 33.82 LIG 0.28  HD
ENDBRANCH 19 21
ENDBRANCH 16 19
ENDBRANCH 13 15
ENDBRANCH 10 13
ENDBRANCH 5 9
ENDBRANCH 1 5
BRANCH 3 25
ATOM     25  CA  ALA B   4       0.250  20.696   3.698  1.00 28.07 LIG 0.17  C 
ATOM     26  CB  ALA B   4       0.271  21.740   4.818  1.00 28.13 LIG 0.04  C 
BRANCH 25 27
ATOM     27  C   ALA B   4      -1.072  19.959   3.734  1.00 27.72 LIG 0.24  C 
ATOM     28  N   SER B   5      -1.351  19.335   4.875  1.00 27.70 LIG-0.34  N 
ATOM     29 H    SER B   5      -0.765  19.157   5.479  1.00 27.70 LIG 0.16  HD
ATOM     30 O    ALA B   4      -1.830  19.978   2.764  1.00 26.03 LIG-0.27  OA
BRANCH 28 31
ATOM     31  CA  SER B   5      -2.703  18.895   5.201  1.00 28.70 LIG 0.20  C 
BRANCH 31 32
ATOM     32  CB  SER B   5      -2.947  17.469   4.674  1.00 28.19 LIG 0.20  C 
BRANCH 32 33
ATOM     33 OG   SER B   5      -1.739  16.706   4.594  1.00 31.03 LIG-0.40  OA
ATOM     34 HG   SER B   5      -1.083  17.199   4.772  1.00 31.03 LIG 0.21  HD
ENDBRANCH 32 33
ENDBRANCH 31 32
BRANCH 31 35
ATOM     35  C   SER B   5      -2.878  18.932   6.725  1.00 28.90 LIG 0.24  C 
ATOM     36 O    SER B   5      -2.048  18.402   7.467  1.00 29.19 LIG-0.27  OA
ATOM     37  N   ALA B   6      -3.933  19.584   7.193  1.00 29.26 LIG-0.35  N 
ATOM     38 H    ALA B   6      -4.494  20.011   6.701  1.00 29.26 LIG 0.16  HD
BRANCH 37 39
ATOM     39  CA  ALA B   6      -4.226  19.626   8.618  1.00 30.00 LIG 0.16  C 
ATOM     40  CB  ALA B   6      -4.901  20.956   9.015  1.00 31.04 LIG 0.04  C 
BRANCH 39 41
ATOM     41  C   ALA B   6      -5.087  18.464   9.045  1.00 30.03 LIG 0.22  C 
ATOM     42 O    ALA B   6      -5.951  18.038   8.273  1.00 31.65 LIG-0.29  OA
ENDBRANCH 39 41
ENDBRANCH 37 39
ENDBRANCH 31 35
ENDBRANCH 28 31
ENDBRANCH 25 27
ENDBRANCH 3 25
TORSDOF 16
ENDMDL
MODEL 29
USER: ADFR SOLUTION from run 108
USER: SCORE 10.917894 LL:  -2.650 LR: -11.069 RR:   0.000 FEB:  -6.296
USER: RMSD 5.892525
USER: SEED 107
USER: STATUS no improvement in best in 23 clusters for 5 generations
USER: GENES 18
USER: genes 0 Translation |==|  0.67805 0.78959 0.31424
USER: genes 1 Rotation |==|  0.74846 0.59697 0.08808 0.59583
USER: genes 2 Torsion [N]-C--CA-[N] |==|  0.96303
USER: genes 3 Torsion [C]-CA--CB-[OG] |==|  0.03414
USER: genes 4 Torsion [CA]-CB--OG-[HG] |==|  0.45215
USER: genes 5 Torsion [C]-CA--N-[C] |==|  0.63524
USER: genes 6 Torsion [N]-C--CA-[N] |==|  0.90884
USER: genes 7 Torsion [C]-CA--N-[C] |==|  0.74731
USER: genes 8 Torsion [N]-C--CA-[N] |==|  0.04577
USER: genes 9 Torsion [C]-CA--N-[H1] |==|  0.64992
USER: genes 10 Torsion [C]-N--CA-[CB] |==|  0.45256
USER: genes 11 Torsion [N]-CA--C-[N] |==|  0.93270
USER: genes 12 Torsion [C]-N--CA-[CB] |==|  0.89356
USER: genes 13 Torsion [N]-CA--CB-[OG] |==|  0.82167
USER: genes 14 Torsion [CA]-CB--OG-[HG] |==|  0.15894
USER: genes 15 Torsion [N]-CA--C-[N] |==|  0.87897
USER: genes 16 Torsion [C]-N--CA-[C] |==|  0.18303
USER: genes 17 Torsion [N]-CA--C-[O] |==|  0.33823
ROOT
ATOM      1  C   SER B   3       0.275  23.283  -0.283  1.00 29.46 LIG 0.24  C 
ATOM      2 O    SER B   3       1.350  23.287   0.322  1.00 29.29 LIG-0.27  OA
ATOM      3  N   ALA B   4      -0.912  23.335   0.317  1.00 28.70 LIG-0.35  N 
ATOM      4 H    ALA B   4      -1.658  23.303  -0.109  1.00 28.70 LIG 0.16  HD
ENDROOT
BRANCH 1 5
ATOM      5  CA  SER B   3       0.245  23.222  -1.809  1.00 29.76 LIG 0.20  C 
BRANCH 5 6
ATOM      6  CB  SER B   3       0.718  24.537  -2.434  1.00 29.85 LIG 0.20  C 
BRANCH 6 7
ATOM      7 OG   SER B   3       1.329  25.369  -1.442  1.00 32.14 LIG-0.40  OA
ATOM      8 HG   SER B   3       1.786  25.965  -1.819  1.00 32.14 LIG 0.21  HD
ENDBRANCH 6 7
ENDBRANCH 5 6
BRANCH 5 9
ATOM      9  N   SER B   3      -1.095  22.923  -2.266  1.00 30.15 LIG-0.34  N 
ATOM     10  C   ALA B   2      -1.335  21.974  -3.164  1.00 30.60 LIG 0.24  C 
ATOM     11 O    ALA B   2      -0.472  21.200  -3.564  1.00 30.40 LIG-0.27  OA
ATOM     12 H    SER B   3      -1.708  23.408  -1.907  1.00 30.15 LIG 0.16  HD
BRANCH 10 13
ATOM     13  CA  ALA B   2      -2.765  21.904  -3.690  1.00 31.29 LIG 0.17  C 
ATOM     14  CB  ALA B   2      -2.921  22.841  -4.878  1.00 31.24 LIG 0.04  C 
BRANCH 13 15
ATOM     15  N   ALA B   2      -3.690  22.299  -2.636  1.00 32.02 LIG-0.35  N 
ATOM     16  C   ALA B   1      -4.236  21.430  -1.788  1.00 33.14 LIG 0.25  C 
ATOM     17 O    ALA B   1      -4.134  20.202  -1.907  1.00 33.78 LIG-0.27  OA
ATOM     18 H    ALA B   2      -3.850  23.144  -2.613  1.00 32.02 LIG 0.16  HD
BRANCH 16 19
ATOM     19  CA  ALA B   1      -5.044  22.026  -0.645  1.00 33.48 LIG 0.27  C 
ATOM     20  CB  ALA B   1      -6.278  21.198  -0.393  1.00 33.96 LIG 0.05  C 
BRANCH 19 21
ATOM     21  N   ALA B   1      -5.421  23.461  -0.876  1.00 33.82 LIG-0.07  N 
ATOM     22 H3   ALA B   1      -6.305  23.526  -0.963  1.00 33.82 LIG 0.28  HD
ATOM     23 H2   ALA B   1      -5.029  23.756  -1.619  1.00 33.82 LIG 0.28  HD
ATOM     24 H1   ALA B   1      -5.154  23.953  -0.184  1.00 33.82 LIG 0.28  HD
ENDBRANCH 19 21
ENDBRANCH 16 19
ENDBRANCH 13 15
ENDBRANCH 10 13
ENDBRANCH 5 9
ENDBRANCH 1 5
BRANCH 3 25
ATOM     25  CA  ALA B   4      -1.065  23.453   1.768  1.00 28.07 LIG 0.17  C 
ATOM     26  CB  ALA B   4      -2.485  23.909   2.115  1.00 28.13 LIG 0.04  C 
BRANCH 25 27
ATOM     27  C   ALA B   4      -0.795  22.123   2.441  1.00 27.72 LIG 0.24  C 
ATOM     28  N   SER B   5      -0.975  21.047   1.680  1.00 27.70 LIG-0.34  N 
ATOM     29 H    SER B   5      -1.414  21.051   0.941  1.00 27.70 LIG 0.16  HD
ATOM     30 O    ALA B   4      -0.410  22.076   3.609  1.00 26.03 LIG-0.27  OA
BRANCH 28 31
ATOM     31  CA  SER B   5      -0.427  19.746   2.047  1.00 28.70 LIG 0.20  C 
BRANCH 31 32
ATOM     32  CB  SER B   5       0.969  19.906   2.674  1.00 28.19 LIG 0.20  C 
BRANCH 32 33
ATOM     33 OG   SER B   5       1.923  20.439   1.749  1.00 31.03 LIG-0.40  OA
ATOM     34 HG   SER B   5       1.649  21.178   1.458  1.00 31.03 LIG 0.21  HD
ENDBRANCH 32 33
ENDBRANCH 31 32
BRANCH 31 35
ATOM     35  C   SER B   5      -1.379  19.075   3.045  1.00 28.90 LIG 0.24  C 
ATOM     36 O    SER B   5      -1.642  17.874   2.955  1.00 29.19 LIG-0.27  OA
ATOM     37  N   ALA B   6      -1.867  19.836   4.015  1.00 29.26 LIG-0.35  N 
ATOM     38 H    ALA B   6      -1.654  20.660   4.135  1.00 29.26 LIG 0.16  HD
BRANCH 37 39
ATOM     39  CA  ALA B   6      -2.827  19.314   4.976  1.00 30.00 LIG 0.16  C 
ATOM     40  CB  ALA B   6      -4.087  18.765   4.273  1.00 31.04 LIG 0.04  C 
BRANCH 39 41
ATOM     41  C   ALA B   6      -2.218  18.246   5.849  1.00 30.03 LIG 0.22  C 
ATOM     42 O    ALA B   6      -2.212  18.399   7.074  1.00 31.65 LIG-0.29  OA
ENDBRANCH 39 41
ENDBRANCH 37 39
ENDBRANCH 31 35
ENDBRANCH 28 31
ENDBRANCH 25 27
ENDBRANCH 3 25
TORSDOF 16
ENDMDL
MODEL 30
USER: ADFR SOLUTION from run 148
USER: SCORE 11.559019 LL:  -2.574 LR: -11.064 RR:   0.000 FEB:  -6.291
USER: RMSD 11.357914
USER: SEED 147
USER: STATUS no improvement in best in 9 clusters for 5 generations
USER: GENES 18
USER: genes 0 Translation |==|  0.79171 0.65244 0.29801
USER: genes 1 Rotation |==|  0.93065 0.51894 0.65515 0.70028
USER: genes 2 Torsion [N]-C--CA-[N] |==|  0.46556
USER: genes 3 Torsion [C]-CA--CB-[OG] |==|  0.54087
USER: genes 4 Torsion [CA]-CB--OG-[HG] |==|  0.47435
USER: genes 5 Torsion [C]-CA--N-[C] |==|  0.20809
USER: genes 6 Torsion [N]-C--CA-[N] |==|  0.26298
USER: genes 7 Torsion [C]-CA--N-[C] |==|  0.81706
USER: genes 8 Torsion [N]-C--CA-[N] |==|  0.56438
USER: genes 9 Torsion [C]-CA--N-[H1] |==|  0.94132
USER: genes 10 Torsion [C]-N--CA-[CB] |==|  0.86083
USER: genes 11 Torsion [N]-CA--C-[N] |==|  0.35787
USER: genes 12 Torsion [C]-N--CA-[CB] |==|  0.86799
USER: genes 13 Torsion [N]-CA--CB-[OG] |==|  0.41568
USER: genes 14 Torsion [CA]-CB--OG-[HG] |==|  0.26007
USER: genes 15 Torsion [N]-CA--C-[N] |==|  0.30301
USER: genes 16 Torsion [C]-N--CA-[C] |==|  0.19458
USER: genes 17 Torsion [N]-CA--C-[O] |==|  0.13406
ROOT
ATOM      1  C   SER B   3       2.236  21.226  -0.673  1.00 29.46 LIG 0.24  C 
ATOM      2 O    SER B   3       1.036  20.956  -0.585  1.00 29.29 LIG-0.27  OA
ATOM      3  N   ALA B   4       2.976  20.964  -1.748  1.00 28.70 LIG-0.35  N 
ATOM      4 H    ALA B   4       3.819  21.128  -1.793  1.00 28.70 LIG 0.16  HD
ENDROOT
BRANCH 1 5
ATOM      5  CA  SER B   3       2.965  21.905   0.485  1.00 29.76 LIG 0.20  C 
BRANCH 5 6
ATOM      6  CB  SER B   3       3.948  20.951   1.169  1.00 29.85 LIG 0.20  C 
BRANCH 6 7
ATOM      7 OG   SER B   3       4.358  21.482   2.434  1.00 32.14 LIG-0.40  OA
ATOM      8 HG   SER B   3       4.794  20.900   2.854  1.00 32.14 LIG 0.21  HD
ENDBRANCH 6 7
ENDBRANCH 5 6
BRANCH 5 9
ATOM      9  N   SER B   3       2.007  22.392   1.455  1.00 30.15 LIG-0.34  N 
ATOM     10  C   ALA B   2       1.373  21.574   2.287  1.00 30.60 LIG 0.24  C 
ATOM     11 O    ALA B   2       1.647  20.383   2.390  1.00 30.40 LIG-0.27  OA
ATOM     12 H    SER B   3       1.891  23.244   1.441  1.00 30.15 LIG 0.16  HD
BRANCH 10 13
ATOM     13  CA  ALA B   2       0.257  22.203   3.115  1.00 31.29 LIG 0.17  C 
ATOM     14  CB  ALA B   2       0.212  21.555   4.491  1.00 31.24 LIG 0.04  C 
BRANCH 13 15
ATOM     15  N   ALA B   2      -1.019  22.001   2.442  1.00 32.02 LIG-0.35  N 
ATOM     16  C   ALA B   1      -1.316  22.558   1.270  1.00 33.14 LIG 0.25  C 
ATOM     17 O    ALA B   1      -0.608  23.412   0.721  1.00 33.78 LIG-0.27  OA
ATOM     18 H    ALA B   2      -1.561  21.489   2.872  1.00 32.02 LIG 0.16  HD
BRANCH 16 19
ATOM     19  CA  ALA B   1      -2.620  22.112   0.627  1.00 33.48 LIG 0.27  C 
ATOM     20  CB  ALA B   1      -2.898  20.669   0.960  1.00 33.96 LIG 0.05  C 
BRANCH 19 21
ATOM     21  N   ALA B   1      -2.641  22.314  -0.861  1.00 33.82 LIG-0.07  N 
ATOM     22 H3   ALA B   1      -3.449  22.591  -1.112  1.00 33.82 LIG 0.28  HD
ATOM     23 H2   ALA B   1      -2.452  21.545  -1.269  1.00 33.82 LIG 0.28  HD
ATOM     24 H1   ALA B   1      -2.035  22.926  -1.086  1.00 33.82 LIG 0.28  HD
ENDBRANCH 19 21
ENDBRANCH 16 19
ENDBRANCH 13 15
ENDBRANCH 10 13
ENDBRANCH 5 9
ENDBRANCH 1 5
BRANCH 3 25
ATOM     25  CA  ALA B   4       2.426  20.367  -2.966  1.00 28.07 LIG 0.17  C 
ATOM     26  CB  ALA B   4       1.609  19.119  -2.621  1.00 28.13 LIG 0.04  C 
BRANCH 25 27
ATOM     27  C   ALA B   4       1.534  21.357  -3.687  1.00 27.72 LIG 0.24  C 
ATOM     28  N   SER B   5       1.796  21.530  -4.980  1.00 27.70 LIG-0.34  N 
ATOM     29 H    SER B   5       2.532  21.292  -5.355  1.00 27.70 LIG 0.16  HD
ATOM     30 O    ALA B   4       0.617  21.925  -3.095  1.00 26.03 LIG-0.27  OA
BRANCH 28 31
ATOM     31  CA  SER B   5       0.834  22.152  -5.883  1.00 28.70 LIG 0.20  C 
BRANCH 31 32
ATOM     32  CB  SER B   5      -0.563  21.536  -5.690  1.00 28.19 LIG 0.20  C 
BRANCH 32 33
ATOM     33 OG   SER B   5      -1.612  22.470  -5.966  1.00 31.03 LIG-0.40  OA
ATOM     34 HG   SER B   5      -1.855  22.391  -6.766  1.00 31.03 LIG 0.21  HD
ENDBRANCH 32 33
ENDBRANCH 31 32
BRANCH 31 35
ATOM     35  C   SER B   5       0.791  23.658  -5.593  1.00 28.90 LIG 0.24  C 
ATOM     36 O    SER B   5       0.312  24.084  -4.539  1.00 29.19 LIG-0.27  OA
ATOM     37  N   ALA B   6       1.320  24.462  -6.505  1.00 29.26 LIG-0.35  N 
ATOM     38 H    ALA B   6       1.712  24.188  -7.219  1.00 29.26 LIG 0.16  HD
BRANCH 37 39
ATOM     39  CA  ALA B   6       1.274  25.909  -6.357  1.00 30.00 LIG 0.16  C 
ATOM     40  CB  ALA B   6      -0.167  26.406  -6.117  1.00 31.04 LIG 0.04  C 
BRANCH 39 41
ATOM     41  C   ALA B   6       2.174  26.385  -5.245  1.00 30.03 LIG 0.22  C 
ATOM     42 O    ALA B   6       3.335  25.970  -5.188  1.00 31.65 LIG-0.29  OA
ENDBRANCH 39 41
ENDBRANCH 37 39
ENDBRANCH 31 35
ENDBRANCH 28 31
ENDBRANCH 25 27
ENDBRANCH 3 25
TORSDOF 16
ENDMDL
MODEL 31
USER: ADFR SOLUTION from run 111
USER: SCORE 12.310715 LL:  -2.921 LR: -11.042 RR:   0.000 FEB:  -6.270
USER: RMSD 8.635529
USER: SEED 110
USER: STATUS no improvement in best in 3 clusters for 5 generations
USER: GENES 18
USER: genes 0 Translation |==|  0.39961 0.58303 0.67896
USER: genes 1 Rotation |==|  0.79327 0.48240 0.79545 0.77638
USER: genes 2 Torsion [N]-C--CA-[N] |==|  0.38488
USER: genes 3 Torsion [C]-CA--CB-[OG] |==|  0.37283
USER: genes 4 Torsion [CA]-CB--OG-[HG] |==|  0.88336
USER: genes 5 Torsion [C]-CA--N-[C] |==|  0.19520
USER: genes 6 Torsion [N]-C--CA-[N] |==|  0.38588
USER: genes 7 Torsion [C]-CA--N-[C] |==|  0.82303
USER: genes 8 Torsion [N]-C--CA-[N] |==|  0.25222
USER: genes 9 Torsion [C]-CA--N-[H1] |==|  0.62881
USER: genes 10 Torsion [C]-N--CA-[CB] |==|  0.85202
USER: genes 11 Torsion [N]-CA--C-[N] |==|  0.37832
USER: genes 12 Torsion [C]-N--CA-[CB] |==|  0.53890
USER: genes 13 Torsion [N]-CA--CB-[OG] |==|  0.73191
USER: genes 14 Torsion [CA]-CB--OG-[HG] |==|  0.30302
USER: genes 15 Torsion [N]-CA--C-[N] |==|  0.30130
USER: genes 16 Torsion [C]-N--CA-[C] |==|  0.51547
USER: genes 17 Torsion [N]-CA--C-[O] |==|  0.92412
ROOT
ATOM      1  C   SER B   3      -4.528  20.185   8.470  1.00 29.46 LIG 0.24  C 
ATOM      2 O    SER B   3      -5.506  19.762   7.848  1.00 29.29 LIG-0.27  OA
ATOM      3  N   ALA B   4      -3.302  19.677   8.354  1.00 28.70 LIG-0.35  N 
ATOM      4 H    ALA B   4      -2.630  19.957   8.811  1.00 28.70 LIG 0.16  HD
ENDROOT
BRANCH 1 5
ATOM      5  CA  SER B   3      -4.671  21.358   9.437  1.00 29.76 LIG 0.20  C 
BRANCH 5 6
ATOM      6  CB  SER B   3      -5.227  20.908  10.791  1.00 29.85 LIG 0.20  C 
BRANCH 6 7
ATOM      7 OG   SER B   3      -4.472  21.492  11.858  1.00 32.14 LIG-0.40  OA
ATOM      8 HG   SER B   3      -3.654  21.463  11.671  1.00 32.14 LIG 0.21  HD
ENDBRANCH 6 7
ENDBRANCH 5 6
BRANCH 5 9
ATOM      9  N   SER B   3      -5.539  22.366   8.867  1.00 30.15 LIG-0.34  N 
ATOM     10  C   ALA B   2      -6.845  22.170   8.726  1.00 30.60 LIG 0.24  C 
ATOM     11 O    ALA B   2      -7.427  21.193   9.186  1.00 30.40 LIG-0.27  OA
ATOM     12 H    SER B   3      -5.136  23.089   8.633  1.00 30.15 LIG 0.16  HD
BRANCH 10 13
ATOM     13  CA  ALA B   2      -7.596  23.237   7.937  1.00 31.29 LIG 0.17  C 
ATOM     14  CB  ALA B   2      -8.317  24.172   8.895  1.00 31.24 LIG 0.04  C 
BRANCH 13 15
ATOM     15  N   ALA B   2      -8.568  22.598   7.060  1.00 32.02 LIG-0.35  N 
ATOM     16  C   ALA B   1      -8.221  21.785   6.065  1.00 33.14 LIG 0.25  C 
ATOM     17 O    ALA B   1      -7.052  21.616   5.696  1.00 33.78 LIG-0.27  OA
ATOM     18 H    ALA B   2      -9.385  22.795   7.245  1.00 32.02 LIG 0.16  HD
BRANCH 16 19
ATOM     19  CA  ALA B   1      -9.361  21.070   5.354  1.00 33.48 LIG 0.27  C 
ATOM     20  CB  ALA B   1      -8.927  19.691   4.930  1.00 33.96 LIG 0.05  C 
BRANCH 19 21
ATOM     21  N   ALA B   1      -9.890  21.834   4.175  1.00 33.82 LIG-0.07  N 
ATOM     22 H3   ALA B   1      -9.621  21.442   3.422  1.00 33.82 LIG 0.28  HD
ATOM     23 H2   ALA B   1      -9.583  22.669   4.199  1.00 33.82 LIG 0.28  HD
ATOM     24 H1   ALA B   1     -10.780  21.843   4.202  1.00 33.82 LIG 0.28  HD
ENDBRANCH 19 21
ENDBRANCH 16 19
ENDBRANCH 13 15
ENDBRANCH 10 13
ENDBRANCH 5 9
ENDBRANCH 1 5
BRANCH 3 25
ATOM     25  CA  ALA B   4      -2.976  18.588   7.432  1.00 28.07 LIG 0.17  C 
ATOM     26  CB  ALA B   4      -3.917  17.402   7.661  1.00 28.13 LIG 0.04  C 
BRANCH 25 27
ATOM     27  C   ALA B   4      -3.106  19.050   5.995  1.00 27.72 LIG 0.24  C 
ATOM     28  N   SER B   5      -2.125  18.673   5.180  1.00 27.70 LIG-0.34  N 
ATOM     29 H    SER B   5      -1.361  18.384   5.451  1.00 27.70 LIG 0.16  HD
ATOM     30 O    ALA B   4      -4.080  19.707   5.631  1.00 26.03 LIG-0.27  OA
BRANCH 28 31
ATOM     31  CA  SER B   5      -2.269  18.720   3.729  1.00 28.70 LIG 0.20  C 
BRANCH 31 32
ATOM     32  CB  SER B   5      -1.146  17.917   3.049  1.00 28.19 LIG 0.20  C 
BRANCH 32 33
ATOM     33 OG   SER B   5      -0.057  18.748   2.635  1.00 31.03 LIG-0.40  OA
ATOM     34 HG   SER B   5       0.610  18.602   3.126  1.00 31.03 LIG 0.21  HD
ENDBRANCH 32 33
ENDBRANCH 31 32
BRANCH 31 35
ATOM     35  C   SER B   5      -3.637  18.137   3.352  1.00 28.90 LIG 0.24  C 
ATOM     36 O    SER B   5      -3.866  16.932   3.482  1.00 29.19 LIG-0.27  OA
ATOM     37  N   ALA B   6      -4.556  18.989   2.921  1.00 29.26 LIG-0.35  N 
ATOM     38 H    ALA B   6      -4.441  19.841   2.877  1.00 29.26 LIG 0.16  HD
BRANCH 37 39
ATOM     39  CA  ALA B   6      -5.865  18.533   2.478  1.00 30.00 LIG 0.16  C 
ATOM     40  CB  ALA B   6      -6.638  17.843   3.623  1.00 31.04 LIG 0.04  C 
BRANCH 39 41
ATOM     41  C   ALA B   6      -6.686  19.661   1.909  1.00 30.03 LIG 0.22  C 
ATOM     42 O    ALA B   6      -6.481  20.814   2.300  1.00 31.65 LIG-0.29  OA
ENDBRANCH 39 41
ENDBRANCH 37 39
ENDBRANCH 31 35
ENDBRANCH 28 31
ENDBRANCH 25 27
ENDBRANCH 3 25
TORSDOF 16
ENDMDL
MODEL 32
USER: ADFR SOLUTION from run 197
USER: SCORE 11.416680 LL:  -3.114 LR: -11.034 RR:   0.000 FEB:  -6.262
USER: RMSD 5.439747
USER: SEED 196
USER: STATUS no improvement in best in 12 clusters for 5 generations
USER: GENES 18
USER: genes 0 Translation |==|  0.71904 0.71126 0.35646
USER: genes 1 Rotation |==|  0.67631 0.87461 0.22248 0.53960
USER: genes 2 Torsion [N]-C--CA-[N] |==|  0.10135
USER: genes 3 Torsion [C]-CA--CB-[OG] |==|  0.34299
USER: genes 4 Torsion [CA]-CB--OG-[HG] |==|  0.59851
USER: genes 5 Torsion [C]-CA--N-[C] |==|  0.12222
USER: genes 6 Torsion [N]-C--CA-[N] |==|  0.04518
USER: genes 7 Torsion [C]-CA--N-[C] |==|  0.20089
USER: genes 8 Torsion [N]-C--CA-[N] |==|  0.10052
USER: genes 9 Torsion [C]-CA--N-[H1] |==|  0.85716
USER: genes 10 Torsion [C]-N--CA-[CB] |==|  0.19196
USER: genes 11 Torsion [N]-CA--C-[N] |==|  0.59001
USER: genes 12 Torsion [C]-N--CA-[CB] |==|  0.38673
USER: genes 13 Torsion [N]-CA--CB-[OG] |==|  0.10046
USER: genes 14 Torsion [CA]-CB--OG-[HG] |==|  0.05796
USER: genes 15 Torsion [N]-CA--C-[N] |==|  0.93307
USER: genes 16 Torsion [C]-N--CA-[C] |==|  0.21852
USER: genes 17 Torsion [N]-CA--C-[O] |==|  0.15519
ROOT
ATOM      1  C   SER B   3       0.982  22.108   0.730  1.00 29.46 LIG 0.24  C 
ATOM      2 O    SER B   3       2.160  22.208   1.083  1.00 29.29 LIG-0.27  OA
ATOM      3  N   ALA B   4       0.252  21.006   0.894  1.00 28.70 LIG-0.35  N 
ATOM      4 H    ALA B   4      -0.559  20.933   0.619  1.00 28.70 LIG 0.16  HD
ENDROOT
BRANCH 1 5
ATOM      5  CA  SER B   3       0.269  23.285   0.068  1.00 29.76 LIG 0.20  C 
BRANCH 5 6
ATOM      6  CB  SER B   3       0.955  24.614   0.392  1.00 29.85 LIG 0.20  C 
BRANCH 6 7
ATOM      7 OG   SER B   3       1.325  25.291  -0.814  1.00 32.14 LIG-0.40  OA
ATOM      8 HG   SER B   3       2.051  25.696  -0.697  1.00 32.14 LIG 0.21  HD
ENDBRANCH 6 7
ENDBRANCH 5 6
BRANCH 5 9
ATOM      9  N   SER B   3      -1.112  23.333   0.501  1.00 30.15 LIG-0.34  N 
ATOM     10  C   ALA B   2      -1.456  23.163   1.772  1.00 30.60 LIG 0.24  C 
ATOM     11 O    ALA B   2      -0.636  23.091   2.681  1.00 30.40 LIG-0.27  OA
ATOM     12 H    SER B   3      -1.676  23.480  -0.132  1.00 30.15 LIG 0.16  HD
BRANCH 10 13
ATOM     13  CA  ALA B   2      -2.951  23.047   2.045  1.00 31.29 LIG 0.17  C 
ATOM     14  CB  ALA B   2      -3.207  21.918   3.033  1.00 31.24 LIG 0.04  C 
BRANCH 13 15
ATOM     15  N   ALA B   2      -3.653  22.769   0.799  1.00 32.02 LIG-0.35  N 
ATOM     16  C   ALA B   1      -3.594  21.590   0.183  1.00 33.14 LIG 0.25  C 
ATOM     17 O    ALA B   1      -2.827  20.680   0.521  1.00 33.78 LIG-0.27  OA
ATOM     18 H    ALA B   2      -4.107  23.435   0.500  1.00 32.02 LIG 0.16  HD
BRANCH 16 19
ATOM     19  CA  ALA B   1      -4.517  21.413  -1.013  1.00 33.48 LIG 0.27  C 
ATOM     20  CB  ALA B   1      -4.028  20.286  -1.886  1.00 33.96 LIG 0.05  C 
BRANCH 19 21
ATOM     21  N   ALA B   1      -4.677  22.666  -1.825  1.00 33.82 LIG-0.07  N 
ATOM     22 H3   ALA B   1      -5.316  22.547  -2.433  1.00 33.82 LIG 0.28  HD
ATOM     23 H2   ALA B   1      -3.910  22.855  -2.235  1.00 33.82 LIG 0.28  HD
ATOM     24 H1   ALA B   1      -4.901  23.340  -1.288  1.00 33.82 LIG 0.28  HD
ENDBRANCH 19 21
ENDBRANCH 16 19
ENDBRANCH 13 15
ENDBRANCH 10 13
ENDBRANCH 5 9
ENDBRANCH 1 5
BRANCH 3 25
ATOM     25  CA  ALA B   4       0.761  19.807   1.559  1.00 28.07 LIG 0.17  C 
ATOM     26  CB  ALA B   4       0.955  20.073   3.055  1.00 28.13 LIG 0.04  C 
BRANCH 25 27
ATOM     27  C   ALA B   4      -0.203  18.651   1.385  1.00 27.72 LIG 0.24  C 
ATOM     28  N   SER B   5      -0.253  17.788   2.395  1.00 27.70 LIG-0.34  N 
ATOM     29 H    SER B   5       0.348  17.732   3.008  1.00 27.70 LIG 0.16  HD
ATOM     30 O    ALA B   4      -0.900  18.561   0.375  1.00 26.03 LIG-0.27  OA
BRANCH 28 31
ATOM     31  CA  SER B   5      -1.356  16.846   2.548  1.00 28.70 LIG 0.20  C 
BRANCH 31 32
ATOM     32  CB  SER B   5      -0.832  15.469   2.992  1.00 28.19 LIG 0.20  C 
BRANCH 32 33
ATOM     33 OG   SER B   5       0.275  15.573   3.893  1.00 31.03 LIG-0.40  OA
ATOM     34 HG   SER B   5       0.277  16.335   4.248  1.00 31.03 LIG 0.21  HD
ENDBRANCH 32 33
ENDBRANCH 31 32
BRANCH 31 35
ATOM     35  C   SER B   5      -2.334  17.400   3.594  1.00 28.90 LIG 0.24  C 
ATOM     36 O    SER B   5      -3.510  17.031   3.615  1.00 29.19 LIG-0.27  OA
ATOM     37  N   ALA B   6      -1.844  18.256   4.481  1.00 29.26 LIG-0.35  N 
ATOM     38 H    ALA B   6      -1.016  18.484   4.524  1.00 29.26 LIG 0.16  HD
BRANCH 37 39
ATOM     39  CA  ALA B   6      -2.699  18.887   5.475  1.00 30.00 LIG 0.16  C 
ATOM     40  CB  ALA B   6      -4.014  19.395   4.846  1.00 31.04 LIG 0.04  C 
BRANCH 39 41
ATOM     41  C   ALA B   6      -3.002  17.957   6.622  1.00 30.03 LIG 0.22  C 
ATOM     42 O    ALA B   6      -2.068  17.451   7.251  1.00 31.65 LIG-0.29  OA
ENDBRANCH 39 41
ENDBRANCH 37 39
ENDBRANCH 31 35
ENDBRANCH 28 31
ENDBRANCH 25 27
ENDBRANCH 3 25
TORSDOF 16
ENDMDL
MODEL 33
USER: ADFR SOLUTION from run 86
USER: SCORE 11.111641 LL:  -2.791 LR: -11.031 RR:   0.000 FEB:  -6.258
USER: RMSD 8.086370
USER: SEED 85
USER: STATUS no improvement in best in 6 clusters for 5 generations
USER: GENES 18
USER: genes 0 Translation |==|  0.36171 0.61690 0.73280
USER: genes 1 Rotation |==|  0.75090 0.66967 0.62889 0.87636
USER: genes 2 Torsion [N]-C--CA-[N] |==|  0.37464
USER: genes 3 Torsion [C]-CA--CB-[OG] |==|  0.00763
USER: genes 4 Torsion [CA]-CB--OG-[HG] |==|  0.24780
USER: genes 5 Torsion [C]-CA--N-[C] |==|  0.84055
USER: genes 6 Torsion [N]-C--CA-[N] |==|  0.52884
USER: genes 7 Torsion [C]-CA--N-[C] |==|  0.18314
USER: genes 8 Torsion [N]-C--CA-[N] |==|  0.93693
USER: genes 9 Torsion [C]-CA--N-[H1] |==|  0.03411
USER: genes 10 Torsion [C]-N--CA-[CB] |==|  0.13388
USER: genes 11 Torsion [N]-CA--C-[N] |==|  0.57406
USER: genes 12 Torsion [C]-N--CA-[CB] |==|  0.52867
USER: genes 13 Torsion [N]-CA--CB-[OG] |==|  0.02582
USER: genes 14 Torsion [CA]-CB--OG-[HG] |==|  0.34094
USER: genes 15 Torsion [N]-CA--C-[N] |==|  0.93823
USER: genes 16 Torsion [C]-N--CA-[C] |==|  0.81593
USER: genes 17 Torsion [N]-CA--C-[O] |==|  0.95227
ROOT
ATOM      1  C   SER B   3      -5.182  20.692   9.762  1.00 29.46 LIG 0.24  C 
ATOM      2 O    SER B   3      -6.261  20.442  10.305  1.00 29.29 LIG-0.27  OA
ATOM      3  N   ALA B   4      -4.307  19.760   9.391  1.00 28.70 LIG-0.35  N 
ATOM      4 H    ALA B   4      -3.544  19.942   9.040  1.00 28.70 LIG 0.16  HD
ENDROOT
BRANCH 1 5
ATOM      5  CA  SER B   3      -4.777  22.135   9.470  1.00 29.76 LIG 0.20  C 
BRANCH 5 6
ATOM      6  CB  SER B   3      -4.297  22.853  10.734  1.00 29.85 LIG 0.20  C 
BRANCH 6 7
ATOM      7 OG   SER B   3      -4.296  21.954  11.848  1.00 32.14 LIG-0.40  OA
ATOM      8 HG   SER B   3      -3.554  21.564  11.892  1.00 32.14 LIG 0.21  HD
ENDBRANCH 6 7
ENDBRANCH 5 6
BRANCH 5 9
ATOM      9  N   SER B   3      -5.894  22.857   8.897  1.00 30.15 LIG-0.34  N 
ATOM     10  C   ALA B   2      -6.496  22.450   7.786  1.00 30.60 LIG 0.24  C 
ATOM     11 O    ALA B   2      -6.248  21.378   7.246  1.00 30.40 LIG-0.27  OA
ATOM     12 H    SER B   3      -6.125  23.559   9.338  1.00 30.15 LIG 0.16  HD
BRANCH 10 13
ATOM     13  CA  ALA B   2      -7.525  23.411   7.199  1.00 31.29 LIG 0.17  C 
ATOM     14  CB  ALA B   2      -8.487  23.862   8.288  1.00 31.24 LIG 0.04  C 
BRANCH 13 15
ATOM     15  N   ALA B   2      -8.270  22.739   6.143  1.00 32.02 LIG-0.35  N 
ATOM     16  C   ALA B   1      -9.083  21.710   6.372  1.00 33.14 LIG 0.25  C 
ATOM     17 O    ALA B   1      -9.165  21.134   7.464  1.00 33.78 LIG-0.27  OA
ATOM     18 H    ALA B   2      -8.136  23.068   5.359  1.00 32.02 LIG 0.16  HD
BRANCH 16 19
ATOM     19  CA  ALA B   1      -9.912  21.233   5.189  1.00 33.48 LIG 0.27  C 
ATOM     20  CB  ALA B   1      -9.296  19.997   4.586  1.00 33.96 LIG 0.05  C 
BRANCH 19 21
ATOM     21  N   ALA B   1     -10.096  22.288   4.136  1.00 33.82 LIG-0.07  N 
ATOM     22 H3   ALA B   1     -10.936  22.583   4.154  1.00 33.82 LIG 0.28  HD
ATOM     23 H2   ALA B   1      -9.921  21.943   3.335  1.00 33.82 LIG 0.28  HD
ATOM     24 H1   ALA B   1      -9.541  22.966   4.294  1.00 33.82 LIG 0.28  HD
ENDBRANCH 19 21
ENDBRANCH 16 19
ENDBRANCH 13 15
ENDBRANCH 10 13
ENDBRANCH 5 9
ENDBRANCH 1 5
BRANCH 3 25
ATOM     25  CA  ALA B   4      -4.559  18.326   9.546  1.00 28.07 LIG 0.17  C 
ATOM     26  CB  ALA B   4      -5.950  17.974   9.010  1.00 28.13 LIG 0.04  C 
BRANCH 25 27
ATOM     27  C   ALA B   4      -3.521  17.519   8.794  1.00 27.72 LIG 0.24  C 
ATOM     28  N   SER B   5      -3.913  16.313   8.392  1.00 27.70 LIG-0.34  N 
ATOM     29 H    SER B   5      -4.605  15.906   8.701  1.00 27.70 LIG 0.16  HD
ATOM     30 O    ALA B   4      -2.407  17.986   8.563  1.00 26.03 LIG-0.27  OA
BRANCH 28 31
ATOM     31  CA  SER B   5      -3.185  15.569   7.371  1.00 28.70 LIG 0.20  C 
BRANCH 31 32
ATOM     32  CB  SER B   5      -3.993  14.339   6.921  1.00 28.19 LIG 0.20  C 
BRANCH 32 33
ATOM     33 OG   SER B   5      -5.325  14.343   7.444  1.00 31.03 LIG-0.40  OA
ATOM     34 HG   SER B   5      -5.875  14.307   6.809  1.00 31.03 LIG 0.21  HD
ENDBRANCH 32 33
ENDBRANCH 31 32
BRANCH 31 35
ATOM     35  C   SER B   5      -2.928  16.496   6.176  1.00 28.90 LIG 0.24  C 
ATOM     36 O    SER B   5      -2.034  16.246   5.364  1.00 29.19 LIG-0.27  OA
ATOM     37  N   ALA B   6      -3.729  17.544   6.045  1.00 29.26 LIG-0.35  N 
ATOM     38 H    ALA B   6      -4.396  17.709   6.562  1.00 29.26 LIG 0.16  HD
BRANCH 37 39
ATOM     39  CA  ALA B   6      -3.533  18.520   4.983  1.00 30.00 LIG 0.16  C 
ATOM     40  CB  ALA B   6      -4.721  19.502   4.893  1.00 31.04 LIG 0.04  C 
BRANCH 39 41
ATOM     41  C   ALA B   6      -2.246  19.285   5.159  1.00 30.03 LIG 0.22  C 
ATOM     42 O    ALA B   6      -1.683  19.275   6.258  1.00 31.65 LIG-0.29  OA
ENDBRANCH 39 41
ENDBRANCH 37 39
ENDBRANCH 31 35
ENDBRANCH 28 31
ENDBRANCH 25 27
ENDBRANCH 3 25
TORSDOF 16
ENDMDL
MODEL 34
USER: ADFR SOLUTION from run 55
USER: SCORE 12.300548 LL:  -3.020 LR: -11.020 RR:   0.000 FEB:  -6.248
USER: RMSD 9.850953
USER: SEED 54
USER: STATUS no improvement in best in 12 clusters for 5 generations
USER: GENES 18
USER: genes 0 Translation |==|  0.73075 0.67929 0.42383
USER: genes 1 Rotation |==|  0.72668 0.75698 0.85544 0.57899
USER: genes 2 Torsion [N]-C--CA-[N] |==|  0.34707
USER: genes 3 Torsion [C]-CA--CB-[OG] |==|  0.79575
USER: genes 4 Torsion [CA]-CB--OG-[HG] |==|  0.12885
USER: genes 5 Torsion [C]-CA--N-[C] |==|  0.70579
USER: genes 6 Torsion [N]-C--CA-[N] |==|  0.52750
USER: genes 7 Torsion [C]-CA--N-[C] |==|  0.55742
USER: genes 8 Torsion [N]-C--CA-[N] |==|  0.92077
USER: genes 9 Torsion [C]-CA--N-[H1] |==|  0.32313
USER: genes 10 Torsion [C]-N--CA-[CB] |==|  0.87104
USER: genes 11 Torsion [N]-CA--C-[N] |==|  0.98333
USER: genes 12 Torsion [C]-N--CA-[CB] |==|  0.54423
USER: genes 13 Torsion [N]-CA--CB-[OG] |==|  0.10373
USER: genes 14 Torsion [CA]-CB--OG-[HG] |==|  0.34498
USER: genes 15 Torsion [N]-CA--C-[N] |==|  0.31487
USER: genes 16 Torsion [C]-N--CA-[C] |==|  0.66325
USER: genes 17 Torsion [N]-CA--C-[O] |==|  0.01968
ROOT
ATOM      1  C   SER B   3       1.184  21.628   2.347  1.00 29.46 LIG 0.24  C 
ATOM      2 O    SER B   3       1.402  20.420   2.235  1.00 29.29 LIG-0.27  OA
ATOM      3  N   ALA B   4       1.925  22.570   1.766  1.00 28.70 LIG-0.35  N 
ATOM      4 H    ALA B   4       1.786  23.412   1.871  1.00 28.70 LIG 0.16  HD
ENDROOT
BRANCH 1 5
ATOM      5  CA  SER B   3       0.008  22.130   3.181  1.00 29.76 LIG 0.20  C 
BRANCH 5 6
ATOM      6  CB  SER B   3       0.204  21.833   4.670  1.00 29.85 LIG 0.20  C 
BRANCH 6 7
ATOM      7 OG   SER B   3       0.013  20.437   4.928  1.00 32.14 LIG-0.40  OA
ATOM      8 HG   SER B   3       0.432  19.987   4.356  1.00 32.14 LIG 0.21  HD
ENDBRANCH 6 7
ENDBRANCH 5 6
BRANCH 5 9
ATOM      9  N   SER B   3      -1.221  21.518   2.722  1.00 30.15 LIG-0.34  N 
ATOM     10  C   ALA B   2      -2.121  22.192   2.017  1.00 30.60 LIG 0.24  C 
ATOM     11 O    ALA B   2      -1.922  23.324   1.589  1.00 30.40 LIG-0.27  OA
ATOM     12 H    SER B   3      -1.310  20.692   2.946  1.00 30.15 LIG 0.16  HD
BRANCH 10 13
ATOM     13  CA  ALA B   2      -3.446  21.477   1.772  1.00 31.29 LIG 0.17  C 
ATOM     14  CB  ALA B   2      -3.181  20.078   1.235  1.00 31.24 LIG 0.04  C 
BRANCH 13 15
ATOM     15  N   ALA B   2      -4.231  22.228   0.802  1.00 32.02 LIG-0.35  N 
ATOM     16  C   ALA B   1      -5.550  22.096   0.680  1.00 33.14 LIG 0.25  C 
ATOM     17 O    ALA B   1      -6.207  21.225   1.264  1.00 33.78 LIG-0.27  OA
ATOM     18 H    ALA B   2      -3.764  22.763   0.316  1.00 32.02 LIG 0.16  HD
BRANCH 16 19
ATOM     19  CA  ALA B   1      -6.238  23.074  -0.261  1.00 33.48 LIG 0.27  C 
ATOM     20  CB  ALA B   1      -6.402  22.455  -1.625  1.00 33.96 LIG 0.05  C 
BRANCH 19 21
ATOM     21  N   ALA B   1      -5.521  24.389  -0.371  1.00 33.82 LIG-0.07  N 
ATOM     22 H3   ALA B   1      -4.827  24.397   0.186  1.00 33.82 LIG 0.28  HD
ATOM     23 H2   ALA B   1      -6.078  25.050  -0.157  1.00 33.82 LIG 0.28  HD
ATOM     24 H1   ALA B   1      -5.233  24.501  -1.205  1.00 33.82 LIG 0.28  HD
ENDBRANCH 19 21
ENDBRANCH 16 19
ENDBRANCH 13 15
ENDBRANCH 10 13
ENDBRANCH 5 9
ENDBRANCH 1 5
BRANCH 3 25
ATOM     25  CA  ALA B   4       3.056  22.264   0.888  1.00 28.07 LIG 0.17  C 
ATOM     26  CB  ALA B   4       3.942  21.188   1.523  1.00 28.13 LIG 0.04  C 
BRANCH 25 27
ATOM     27  C   ALA B   4       2.567  21.769  -0.457  1.00 27.72 LIG 0.24  C 
ATOM     28  N   SER B   5       1.254  21.584  -0.558  1.00 27.70 LIG-0.34  N 
ATOM     29 H    SER B   5       0.724  21.525   0.118  1.00 27.70 LIG 0.16  HD
ATOM     30 O    ALA B   4       3.355  21.587  -1.384  1.00 26.03 LIG-0.27  OA
BRANCH 28 31
ATOM     31  CA  SER B   5       0.591  21.463  -1.852  1.00 28.70 LIG 0.20  C 
BRANCH 31 32
ATOM     32  CB  SER B   5      -0.929  21.654  -1.699  1.00 28.19 LIG 0.20  C 
BRANCH 32 33
ATOM     33 OG   SER B   5      -1.256  22.653  -0.728  1.00 31.03 LIG-0.40  OA
ATOM     34 HG   SER B   5      -1.743  23.240  -1.082  1.00 31.03 LIG 0.21  HD
ENDBRANCH 32 33
ENDBRANCH 31 32
BRANCH 31 35
ATOM     35  C   SER B   5       1.163  22.526  -2.799  1.00 28.90 LIG 0.24  C 
ATOM     36 O    SER B   5       0.997  23.727  -2.572  1.00 29.19 LIG-0.27  OA
ATOM     37  N   ALA B   6       1.866  22.092  -3.835  1.00 29.26 LIG-0.35  N 
ATOM     38 H    ALA B   6       2.047  21.265  -3.983  1.00 29.26 LIG 0.16  HD
BRANCH 37 39
ATOM     39  CA  ALA B   6       2.400  23.013  -4.827  1.00 30.00 LIG 0.16  C 
ATOM     40  CB  ALA B   6       3.944  23.010  -4.827  1.00 31.04 LIG 0.04  C 
BRANCH 39 41
ATOM     41  C   ALA B   6       1.886  22.703  -6.210  1.00 30.03 LIG 0.22  C 
ATOM     42 O    ALA B   6       1.010  21.845  -6.350  1.00 31.65 LIG-0.29  OA
ENDBRANCH 39 41
ENDBRANCH 37 39
ENDBRANCH 31 35
ENDBRANCH 28 31
ENDBRANCH 25 27
ENDBRANCH 3 25
TORSDOF 16
ENDMDL
MODEL 35
USER: ADFR SOLUTION from run 186
USER: SCORE 11.103011 LL:  -3.032 LR: -10.999 RR:   0.000 FEB:  -6.226
USER: RMSD 3.057803
USER: SEED 185
USER: STATUS no improvement in best in 9 clusters for 5 generations
USER: GENES 18
USER: genes 0 Translation |==|  0.63662 0.59246 0.47951
USER: genes 1 Rotation |==|  0.72003 0.51952 0.28904 0.89585
USER: genes 2 Torsion [N]-C--CA-[N] |==|  0.16103
USER: genes 3 Torsion [C]-CA--CB-[OG] |==|  0.53506
USER: genes 4 Torsion [CA]-CB--OG-[HG] |==|  0.13116
USER: genes 5 Torsion [C]-CA--N-[C] |==|  0.14452
USER: genes 6 Torsion [N]-C--CA-[N] |==|  0.45521
USER: genes 7 Torsion [C]-CA--N-[C] |==|  0.80277
USER: genes 8 Torsion [N]-C--CA-[N] |==|  0.85613
USER: genes 9 Torsion [C]-CA--N-[H1] |==|  0.89609
USER: genes 10 Torsion [C]-N--CA-[CB] |==|  0.35844
USER: genes 11 Torsion [N]-CA--C-[N] |==|  0.43436
USER: genes 12 Torsion [C]-N--CA-[CB] |==|  0.15561
USER: genes 13 Torsion [N]-CA--CB-[OG] |==|  0.72809
USER: genes 14 Torsion [CA]-CB--OG-[HG] |==|  0.15696
USER: genes 15 Torsion [N]-CA--C-[N] |==|  0.87781
USER: genes 16 Torsion [C]-N--CA-[C] |==|  0.15614
USER: genes 17 Torsion [N]-CA--C-[O] |==|  0.20427
ROOT
ATOM      1  C   SER B   3      -0.439  20.326   3.683  1.00 29.46 LIG 0.24  C 
ATOM      2 O    SER B   3      -0.590  21.478   4.098  1.00 29.29 LIG-0.27  OA
ATOM      3  N   ALA B   4      -1.313  19.344   3.894  1.00 28.70 LIG-0.35  N 
ATOM      4 H    ALA B   4      -1.189  18.536   3.627  1.00 28.70 LIG 0.16  HD
ENDROOT
BRANCH 1 5
ATOM      5  CA  SER B   3       0.798  19.950   2.871  1.00 29.76 LIG 0.20  C 
BRANCH 5 6
ATOM      6  CB  SER B   3       1.733  21.147   2.681  1.00 29.85 LIG 0.20  C 
BRANCH 6 7
ATOM      7 OG   SER B   3       2.721  20.855   1.687  1.00 32.14 LIG-0.40  OA
ATOM      8 HG   SER B   3       2.349  20.519   1.013  1.00 32.14 LIG 0.21  HD
ENDBRANCH 6 7
ENDBRANCH 5 6
BRANCH 5 9
ATOM      9  N   SER B   3       0.402  19.435   1.577  1.00 30.15 LIG-0.34  N 
ATOM     10  C   ALA B   2      -0.427  20.098   0.781  1.00 30.60 LIG 0.24  C 
ATOM     11 O    ALA B   2      -0.806  21.241   1.014  1.00 30.40 LIG-0.27  OA
ATOM     12 H    SER B   3       0.750  18.673   1.378  1.00 30.15 LIG 0.16  HD
BRANCH 10 13
ATOM     13  CA  ALA B   2      -0.903  19.346  -0.458  1.00 31.29 LIG 0.17  C 
ATOM     14  CB  ALA B   2       0.208  19.313  -1.497  1.00 31.24 LIG 0.04  C 
BRANCH 13 15
ATOM     15  N   ALA B   2      -2.069  20.018  -1.016  1.00 32.02 LIG-0.35  N 
ATOM     16  C   ALA B   1      -3.262  20.008  -0.427  1.00 33.14 LIG 0.25  C 
ATOM     17 O    ALA B   1      -3.532  19.308   0.558  1.00 33.78 LIG-0.27  OA
ATOM     18 H    ALA B   2      -1.914  20.422  -1.760  1.00 32.02 LIG 0.16  HD
BRANCH 16 19
ATOM     19  CA  ALA B   1      -4.327  20.897  -1.052  1.00 33.48 LIG 0.27  C 
ATOM     20  CB  ALA B   1      -4.790  20.313  -2.362  1.00 33.96 LIG 0.05  C 
BRANCH 19 21
ATOM     21  N   ALA B   1      -3.870  22.314  -1.248  1.00 33.82 LIG-0.07  N 
ATOM     22 H3   ALA B   1      -4.578  22.851  -1.296  1.00 33.82 LIG 0.28  HD
ATOM     23 H2   ALA B   1      -3.402  22.374  -2.003  1.00 33.82 LIG 0.28  HD
ATOM     24 H1   ALA B   1      -3.359  22.558  -0.561  1.00 33.82 LIG 0.28  HD
ENDBRANCH 19 21
ENDBRANCH 16 19
ENDBRANCH 13 15
ENDBRANCH 10 13
ENDBRANCH 5 9
ENDBRANCH 1 5
BRANCH 3 25
ATOM     25  CA  ALA B   4      -2.577  19.543   4.605  1.00 28.07 LIG 0.17  C 
ATOM     26  CB  ALA B   4      -3.740  18.981   3.782  1.00 28.13 LIG 0.04  C 
BRANCH 25 27
ATOM     27  C   ALA B   4      -2.546  18.850   5.952  1.00 27.72 LIG 0.24  C 
ATOM     28  N   SER B   5      -3.380  19.336   6.866  1.00 27.70 LIG-0.34  N 
ATOM     29 H    SER B   5      -3.756  20.108   6.810  1.00 27.70 LIG 0.16  HD
ATOM     30 O    ALA B   4      -1.806  17.887   6.147  1.00 26.03 LIG-0.27  OA
BRANCH 28 31
ATOM     31  CA  SER B   5      -3.732  18.582   8.064  1.00 28.70 LIG 0.20  C 
BRANCH 31 32
ATOM     32  CB  SER B   5      -2.465  18.190   8.846  1.00 28.19 LIG 0.20  C 
BRANCH 32 33
ATOM     33 OG   SER B   5      -2.046  16.851   8.565  1.00 31.03 LIG-0.40  OA
ATOM     34 HG   SER B   5      -1.925  16.762   7.738  1.00 31.03 LIG 0.21  HD
ENDBRANCH 32 33
ENDBRANCH 31 32
BRANCH 31 35
ATOM     35  C   SER B   5      -4.645  19.449   8.941  1.00 28.90 LIG 0.24  C 
ATOM     36 O    SER B   5      -5.633  18.963   9.496  1.00 29.19 LIG-0.27  OA
ATOM     37  N   ALA B   6      -4.299  20.720   9.096  1.00 29.26 LIG-0.35  N 
ATOM     38 H    ALA B   6      -3.585  21.069   8.769  1.00 29.26 LIG 0.16  HD
BRANCH 37 39
ATOM     39  CA  ALA B   6      -5.129  21.643   9.856  1.00 30.00 LIG 0.16  C 
ATOM     40  CB  ALA B   6      -6.474  21.906   9.146  1.00 31.04 LIG 0.04  C 
BRANCH 39 41
ATOM     41  C   ALA B   6      -5.375  21.147  11.258  1.00 30.03 LIG 0.22  C 
ATOM     42 O    ALA B   6      -4.459  21.195  12.085  1.00 31.65 LIG-0.29  OA
ENDBRANCH 39 41
ENDBRANCH 37 39
ENDBRANCH 31 35
ENDBRANCH 28 31
ENDBRANCH 25 27
ENDBRANCH 3 25
TORSDOF 16
ENDMDL
MODEL 36
USER: ADFR SOLUTION from run 9
USER: SCORE 11.124820 LL:  -2.054 LR: -10.987 RR:   0.000 FEB:  -6.214
USER: RMSD 6.299909
USER: SEED 526431
USER: STATUS searching
USER: GENES 18
USER: genes 0 Translation |==|  0.62822 0.46424 0.42827
USER: genes 1 Rotation |==|  0.72484 0.44493 0.70872 0.89097
USER: genes 2 Torsion [N]-C--CA-[N] |==|  0.35226
USER: genes 3 Torsion [C]-CA--CB-[OG] |==|  0.04185
USER: genes 4 Torsion [CA]-CB--OG-[HG] |==|  0.18404
USER: genes 5 Torsion [C]-CA--N-[C] |==|  0.70715
USER: genes 6 Torsion [N]-C--CA-[N] |==|  0.87897
USER: genes 7 Torsion [C]-CA--N-[C] |==|  0.87609
USER: genes 8 Torsion [N]-C--CA-[N] |==|  0.98841
USER: genes 9 Torsion [C]-CA--N-[H1] |==|  0.30367
USER: genes 10 Torsion [C]-N--CA-[CB] |==|  0.13899
USER: genes 11 Torsion [N]-CA--C-[N] |==|  0.14950
USER: genes 12 Torsion [C]-N--CA-[CB] |==|  0.14535
USER: genes 13 Torsion [N]-CA--CB-[OG] |==|  0.30182
USER: genes 14 Torsion [CA]-CB--OG-[HG] |==|  0.83115
USER: genes 15 Torsion [N]-CA--C-[N] |==|  0.39446
USER: genes 16 Torsion [C]-N--CA-[C] |==|  0.72252
USER: genes 17 Torsion [N]-CA--C-[O] |==|  0.52447
ROOT
ATOM      1  C   SER B   3      -0.584  18.403   2.453  1.00 29.46 LIG 0.24  C 
ATOM      2 O    SER B   3      -1.675  18.391   1.878  1.00 29.29 LIG-0.27  OA
ATOM      3  N   ALA B   4       0.170  17.320   2.631  1.00 28.70 LIG-0.35  N 
ATOM      4 H    ALA B   4       0.916  17.329   3.059  1.00 28.70 LIG 0.16  HD
ENDROOT
BRANCH 1 5
ATOM      5  CA  SER B   3      -0.015  19.706   3.008  1.00 29.76 LIG 0.20  C 
BRANCH 5 6
ATOM      6  CB  SER B   3      -0.827  20.212   4.203  1.00 29.85 LIG 0.20  C 
BRANCH 6 7
ATOM      7 OG   SER B   3      -1.678  19.175   4.702  1.00 32.14 LIG-0.40  OA
ATOM      8 HG   SER B   3      -1.208  18.558   5.025  1.00 32.14 LIG 0.21  HD
ENDBRANCH 6 7
ENDBRANCH 5 6
BRANCH 5 9
ATOM      9  N   SER B   3       0.006  20.718   1.973  1.00 30.15 LIG-0.34  N 
ATOM     10  C   ALA B   2       1.133  21.090   1.377  1.00 30.60 LIG 0.24  C 
ATOM     11 O    ALA B   2       2.202  20.518   1.556  1.00 30.40 LIG-0.27  OA
ATOM     12 H    SER B   3      -0.766  21.047   1.784  1.00 30.15 LIG 0.16  HD
BRANCH 10 13
ATOM     13  CA  ALA B   2       1.027  22.296   0.450  1.00 31.29 LIG 0.17  C 
ATOM     14  CB  ALA B   2       0.950  23.572   1.274  1.00 31.24 LIG 0.04  C 
BRANCH 13 15
ATOM     15  N   ALA B   2      -0.172  22.175  -0.369  1.00 32.02 LIG-0.35  N 
ATOM     16  C   ALA B   1      -0.529  21.041  -0.967  1.00 33.14 LIG 0.25  C 
ATOM     17 O    ALA B   1       0.191  20.036  -1.013  1.00 33.78 LIG-0.27  OA
ATOM     18 H    ALA B   2      -0.627  22.903  -0.429  1.00 32.02 LIG 0.16  HD
BRANCH 16 19
ATOM     19  CA  ALA B   1      -1.893  21.039  -1.642  1.00 33.48 LIG 0.27  C 
ATOM     20  CB  ALA B   1      -1.744  20.761  -3.116  1.00 33.96 LIG 0.05  C 
BRANCH 19 21
ATOM     21  N   ALA B   1      -2.657  22.314  -1.429  1.00 33.82 LIG-0.07  N 
ATOM     22 H3   ALA B   1      -2.248  22.806  -0.810  1.00 33.82 LIG 0.28  HD
ATOM     23 H2   ALA B   1      -3.483  22.124  -1.157  1.00 33.82 LIG 0.28  HD
ATOM     24 H1   ALA B   1      -2.694  22.769  -2.193  1.00 33.82 LIG 0.28  HD
ENDBRANCH 19 21
ENDBRANCH 16 19
ENDBRANCH 13 15
ENDBRANCH 10 13
ENDBRANCH 5 9
ENDBRANCH 1 5
BRANCH 3 25
ATOM     25  CA  ALA B   4      -0.198  16.001   2.115  1.00 28.07 LIG 0.17  C 
ATOM     26  CB  ALA B   4      -0.569  16.098   0.632  1.00 28.13 LIG 0.04  C 
BRANCH 25 27
ATOM     27  C   ALA B   4       0.952  15.027   2.273  1.00 27.72 LIG 0.24  C 
ATOM     28  N   SER B   5       1.448  14.919   3.502  1.00 27.70 LIG-0.34  N 
ATOM     29 H    SER B   5       1.307  15.492   4.128  1.00 27.70 LIG 0.16  HD
ATOM     30 O    ALA B   4       1.359  14.374   1.313  1.00 26.03 LIG-0.27  OA
BRANCH 28 31
ATOM     31  CA  SER B   5       2.290  13.795   3.895  1.00 28.70 LIG 0.20  C 
BRANCH 31 32
ATOM     32  CB  SER B   5       3.458  13.624   2.906  1.00 28.19 LIG 0.20  C 
BRANCH 32 33
ATOM     33 OG   SER B   5       4.714  14.004   3.478  1.00 31.03 LIG-0.40  OA
ATOM     34 HG   SER B   5       4.688  14.814   3.699  1.00 31.03 LIG 0.21  HD
ENDBRANCH 32 33
ENDBRANCH 31 32
BRANCH 31 35
ATOM     35  C   SER B   5       2.830  14.056   5.307  1.00 28.90 LIG 0.24  C 
ATOM     36 O    SER B   5       3.131  15.196   5.667  1.00 29.19 LIG-0.27  OA
ATOM     37  N   ALA B   6       2.918  13.012   6.120  1.00 29.26 LIG-0.35  N 
ATOM     38 H    ALA B   6       2.660  12.217   5.914  1.00 29.26 LIG 0.16  HD
BRANCH 37 39
ATOM     39  CA  ALA B   6       3.475  13.138   7.458  1.00 30.00 LIG 0.16  C 
ATOM     40  CB  ALA B   6       2.631  12.366   8.495  1.00 31.04 LIG 0.04  C 
BRANCH 39 41
ATOM     41  C   ALA B   6       4.908  12.672   7.512  1.00 30.03 LIG 0.22  C 
ATOM     42 O    ALA B   6       5.466  12.564   8.608  1.00 31.65 LIG-0.29  OA
ENDBRANCH 39 41
ENDBRANCH 37 39
ENDBRANCH 31 35
ENDBRANCH 28 31
ENDBRANCH 25 27
ENDBRANCH 3 25
TORSDOF 16
ENDMDL
MODEL 37
USER: ADFR SOLUTION from run 177
USER: SCORE 11.691436 LL:  -2.142 LR: -10.984 RR:   0.000 FEB:  -6.212
USER: RMSD 4.421157
USER: SEED 176
USER: STATUS no improvement in best in 7 clusters for 5 generations
USER: GENES 18
USER: genes 0 Translation |==|  0.30377 0.62108 0.54139
USER: genes 1 Rotation |==|  0.76132 0.46002 0.07626 0.52359
USER: genes 2 Torsion [N]-C--CA-[N] |==|  0.33923
USER: genes 3 Torsion [C]-CA--CB-[OG] |==|  0.61941
USER: genes 4 Torsion [CA]-CB--OG-[HG] |==|  0.81015
USER: genes 5 Torsion [C]-CA--N-[C] |==|  0.63084
USER: genes 6 Torsion [N]-C--CA-[N] |==|  0.49430
USER: genes 7 Torsion [C]-CA--N-[C] |==|  0.80385
USER: genes 8 Torsion [N]-C--CA-[N] |==|  0.91908
USER: genes 9 Torsion [C]-CA--N-[H1] |==|  0.67347
USER: genes 10 Torsion [C]-N--CA-[CB] |==|  0.57171
USER: genes 11 Torsion [N]-CA--C-[N] |==|  0.25368
USER: genes 12 Torsion [C]-N--CA-[CB] |==|  0.86962
USER: genes 13 Torsion [N]-CA--CB-[OG] |==|  0.61475
USER: genes 14 Torsion [CA]-CB--OG-[HG] |==|  0.91131
USER: genes 15 Torsion [N]-CA--C-[N] |==|  0.32778
USER: genes 16 Torsion [C]-N--CA-[C] |==|  0.61615
USER: genes 17 Torsion [N]-CA--C-[O] |==|  0.97278
ROOT
ATOM      1  C   SER B   3      -6.181  20.755   5.168  1.00 29.46 LIG 0.24  C 
ATOM      2 O    SER B   3      -5.247  20.416   5.899  1.00 29.29 LIG-0.27  OA
ATOM      3  N   ALA B   4      -7.162  21.570   5.552  1.00 28.70 LIG-0.35  N 
ATOM      4 H    ALA B   4      -7.825  21.779   5.047  1.00 28.70 LIG 0.16  HD
ENDROOT
BRANCH 1 5
ATOM      5  CA  SER B   3      -6.263  20.248   3.731  1.00 29.76 LIG 0.20  C 
BRANCH 5 6
ATOM      6  CB  SER B   3      -6.448  18.729   3.678  1.00 29.85 LIG 0.20  C 
BRANCH 6 7
ATOM      7 OG   SER B   3      -5.610  18.160   2.667  1.00 32.14 LIG-0.40  OA
ATOM      8 HG   SER B   3      -5.884  18.397   1.909  1.00 32.14 LIG 0.21  HD
ENDBRANCH 6 7
ENDBRANCH 5 6
BRANCH 5 9
ATOM      9  N   SER B   3      -5.065  20.616   3.006  1.00 30.15 LIG-0.34  N 
ATOM     10  C   ALA B   2      -5.115  21.161   1.796  1.00 30.60 LIG 0.24  C 
ATOM     11 O    ALA B   2      -6.163  21.515   1.267  1.00 30.40 LIG-0.27  OA
ATOM     12 H    SER B   3      -4.333  20.451   3.427  1.00 30.15 LIG 0.16  HD
BRANCH 10 13
ATOM     13  CA  ALA B   2      -3.777  21.314   1.081  1.00 31.29 LIG 0.17  C 
ATOM     14  CB  ALA B   2      -2.872  22.240   1.880  1.00 31.24 LIG 0.04  C 
BRANCH 13 15
ATOM     15  N   ALA B   2      -3.997  21.877  -0.244  1.00 32.02 LIG-0.35  N 
ATOM     16  C   ALA B   1      -4.572  21.197  -1.234  1.00 33.14 LIG 0.25  C 
ATOM     17 O    ALA B   1      -4.830  19.988  -1.172  1.00 33.78 LIG-0.27  OA
ATOM     18 H    ALA B   2      -3.723  22.689  -0.327  1.00 32.02 LIG 0.16  HD
BRANCH 16 19
ATOM     19  CA  ALA B   1      -4.879  21.984  -2.499  1.00 33.48 LIG 0.27  C 
ATOM     20  CB  ALA B   1      -3.758  21.830  -3.494  1.00 33.96 LIG 0.05  C 
BRANCH 19 21
ATOM     21  N   ALA B   1      -5.145  23.439  -2.237  1.00 33.82 LIG-0.07  N 
ATOM     22 H3   ALA B   1      -4.573  23.935  -2.706  1.00 33.82 LIG 0.28  HD
ATOM     23 H2   ALA B   1      -5.041  23.609  -1.369  1.00 33.82 LIG 0.28  HD
ATOM     24 H1   ALA B   1      -5.978  23.637  -2.480  1.00 33.82 LIG 0.28  HD
ENDBRANCH 19 21
ENDBRANCH 16 19
ENDBRANCH 13 15
ENDBRANCH 10 13
ENDBRANCH 5 9
ENDBRANCH 1 5
BRANCH 3 25
ATOM     25  CA  ALA B   4      -7.209  22.190   6.876  1.00 28.07 LIG 0.17  C 
ATOM     26  CB  ALA B   4      -8.656  22.512   7.259  1.00 28.13 LIG 0.04  C 
BRANCH 25 27
ATOM     27  C   ALA B   4      -6.616  21.265   7.919  1.00 27.72 LIG 0.24  C 
ATOM     28  N   SER B   5      -5.314  21.415   8.146  1.00 27.70 LIG-0.34  N 
ATOM     29 H    SER B   5      -4.780  21.831   7.616  1.00 27.70 LIG 0.16  HD
ATOM     30 O    ALA B   4      -7.325  20.458   8.519  1.00 26.03 LIG-0.27  OA
BRANCH 28 31
ATOM     31  CA  SER B   5      -4.674  20.875   9.340  1.00 28.70 LIG 0.20  C 
BRANCH 31 32
ATOM     32  CB  SER B   5      -5.497  21.218  10.595  1.00 28.19 LIG 0.20  C 
BRANCH 32 33
ATOM     33 OG   SER B   5      -4.670  21.604  11.698  1.00 31.03 LIG-0.40  OA
ATOM     34 HG   SER B   5      -3.939  21.193  11.658  1.00 31.03 LIG 0.21  HD
ENDBRANCH 32 33
ENDBRANCH 31 32
BRANCH 31 35
ATOM     35  C   SER B   5      -4.556  19.352   9.188  1.00 28.90 LIG 0.24  C 
ATOM     36 O    SER B   5      -5.562  18.653   9.048  1.00 29.19 LIG-0.27  OA
ATOM     37  N   ALA B   6      -3.333  18.842   9.179  1.00 29.26 LIG-0.35  N 
ATOM     38 H    ALA B   6      -2.614  19.313   9.215  1.00 29.26 LIG 0.16  HD
BRANCH 37 39
ATOM     39  CA  ALA B   6      -3.111  17.406   9.102  1.00 30.00 LIG 0.16  C 
ATOM     40  CB  ALA B   6      -2.796  16.961   7.658  1.00 31.04 LIG 0.04  C 
BRANCH 39 41
ATOM     41  C   ALA B   6      -2.009  16.962  10.030  1.00 30.03 LIG 0.22  C 
ATOM     42 O    ALA B   6      -1.310  17.812  10.588  1.00 31.65 LIG-0.29  OA
ENDBRANCH 39 41
ENDBRANCH 37 39
ENDBRANCH 31 35
ENDBRANCH 28 31
ENDBRANCH 25 27
ENDBRANCH 3 25
TORSDOF 16
ENDMDL
MODEL 38
USER: ADFR SOLUTION from run 86
USER: SCORE 11.157109 LL:  -2.726 LR: -10.964 RR:   0.000 FEB:  -6.191
USER: RMSD 4.002199
USER: SEED 85
USER: STATUS no improvement in best in 6 clusters for 5 generations
USER: GENES 18
USER: genes 0 Translation |==|  0.71757 0.65151 0.41466
USER: genes 1 Rotation |==|  0.46796 0.62016 0.39414 0.97258
USER: genes 2 Torsion [N]-C--CA-[N] |==|  0.43630
USER: genes 3 Torsion [C]-CA--CB-[OG] |==|  0.95563
USER: genes 4 Torsion [CA]-CB--OG-[HG] |==|  0.78571
USER: genes 5 Torsion [C]-CA--N-[C] |==|  0.19457
USER: genes 6 Torsion [N]-C--CA-[N] |==|  0.21664
USER: genes 7 Torsion [C]-CA--N-[C] |==|  0.78638
USER: genes 8 Torsion [N]-C--CA-[N] |==|  0.10648
USER: genes 9 Torsion [C]-CA--N-[H1] |==|  0.00473
USER: genes 10 Torsion [C]-N--CA-[CB] |==|  0.86736
USER: genes 11 Torsion [N]-CA--C-[N] |==|  0.35565
USER: genes 12 Torsion [C]-N--CA-[CB] |==|  0.27222
USER: genes 13 Torsion [N]-CA--CB-[OG] |==|  0.98230
USER: genes 14 Torsion [CA]-CB--OG-[HG] |==|  0.09561
USER: genes 15 Torsion [N]-CA--C-[N] |==|  0.33900
USER: genes 16 Torsion [C]-N--CA-[C] |==|  0.77160
USER: genes 17 Torsion [N]-CA--C-[O] |==|  0.95208
ROOT
ATOM      1  C   SER B   3       0.957  21.212   2.127  1.00 29.46 LIG 0.24  C 
ATOM      2 O    SER B   3       0.069  22.054   1.979  1.00 29.29 LIG-0.27  OA
ATOM      3  N   ALA B   4       1.203  20.591   3.279  1.00 28.70 LIG-0.35  N 
ATOM      4 H    ALA B   4       1.842  20.026   3.383  1.00 28.70 LIG 0.16  HD
ENDROOT
BRANCH 1 5
ATOM      5  CA  SER B   3       1.852  20.814   0.955  1.00 29.76 LIG 0.20  C 
BRANCH 5 6
ATOM      6  CB  SER B   3       3.200  21.539   1.004  1.00 29.85 LIG 0.20  C 
BRANCH 6 7
ATOM      7 OG   SER B   3       3.133  22.653   1.900  1.00 32.14 LIG-0.40  OA
ATOM      8 HG   SER B   3       2.729  23.288   1.528  1.00 32.14 LIG 0.21  HD
ENDBRANCH 6 7
ENDBRANCH 5 6
BRANCH 5 9
ATOM      9  N   SER B   3       1.188  21.109  -0.297  1.00 30.15 LIG-0.34  N 
ATOM     10  C   ALA B   2       0.992  22.356  -0.711  1.00 30.60 LIG 0.24  C 
ATOM     11 O    ALA B   2       1.472  23.330  -0.144  1.00 30.40 LIG-0.27  OA
ATOM     12 H    SER B   3       0.937  20.414  -0.738  1.00 30.15 LIG 0.16  HD
BRANCH 10 13
ATOM     13  CA  ALA B   2       0.112  22.515  -1.947  1.00 31.29 LIG 0.17  C 
ATOM     14  CB  ALA B   2       0.332  23.889  -2.560  1.00 31.24 LIG 0.04  C 
BRANCH 13 15
ATOM     15  N   ALA B   2      -1.288  22.372  -1.567  1.00 32.02 LIG-0.35  N 
ATOM     16  C   ALA B   1      -1.854  21.193  -1.319  1.00 33.14 LIG 0.25  C 
ATOM     17 O    ALA B   1      -1.297  20.109  -1.533  1.00 33.78 LIG-0.27  OA
ATOM     18 H    ALA B   2      -1.712  23.119  -1.519  1.00 32.02 LIG 0.16  HD
BRANCH 16 19
ATOM     19  CA  ALA B   1      -3.273  21.233  -0.773  1.00 33.48 LIG 0.27  C 
ATOM     20  CB  ALA B   1      -3.936  19.891  -0.946  1.00 33.96 LIG 0.05  C 
BRANCH 19 21
ATOM     21  N   ALA B   1      -4.114  22.311  -1.395  1.00 33.82 LIG-0.07  N 
ATOM     22 H3   ALA B   1      -4.373  22.886  -0.767  1.00 33.82 LIG 0.28  HD
ATOM     23 H2   ALA B   1      -4.831  21.946  -1.776  1.00 33.82 LIG 0.28  HD
ATOM     24 H1   ALA B   1      -3.636  22.741  -2.011  1.00 33.82 LIG 0.28  HD
ENDBRANCH 19 21
ENDBRANCH 16 19
ENDBRANCH 13 15
ENDBRANCH 10 13
ENDBRANCH 5 9
ENDBRANCH 1 5
BRANCH 3 25
ATOM     25  CA  ALA B   4       0.406  20.811   4.487  1.00 28.07 LIG 0.17  C 
ATOM     26  CB  ALA B   4       0.218  22.311   4.730  1.00 28.13 LIG 0.04  C 
BRANCH 25 27
ATOM     27  C   ALA B   4      -0.954  20.158   4.354  1.00 27.72 LIG 0.24  C 
ATOM     28  N   SER B   5      -1.304  19.353   5.353  1.00 27.70 LIG-0.34  N 
ATOM     29 H    SER B   5      -0.749  19.032   5.927  1.00 27.70 LIG 0.16  HD
ATOM     30 O    ALA B   4      -1.675  20.399   3.387  1.00 26.03 LIG-0.27  OA
BRANCH 28 31
ATOM     31  CA  SER B   5      -2.687  18.939   5.559  1.00 28.70 LIG 0.20  C 
BRANCH 31 32
ATOM     32  CB  SER B   5      -2.929  17.544   4.955  1.00 28.19 LIG 0.20  C 
BRANCH 32 33
ATOM     33 OG   SER B   5      -1.796  17.066   4.222  1.00 31.03 LIG-0.40  OA
ATOM     34 HG   SER B   5      -1.090  17.333   4.591  1.00 31.03 LIG 0.21  HD
ENDBRANCH 32 33
ENDBRANCH 31 32
BRANCH 31 35
ATOM     35  C   SER B   5      -2.975  18.918   7.065  1.00 28.90 LIG 0.24  C 
ATOM     36 O    SER B   5      -2.283  18.242   7.830  1.00 29.19 LIG-0.27  OA
ATOM     37  N   ALA B   6      -3.968  19.682   7.499  1.00 29.26 LIG-0.35  N 
ATOM     38 H    ALA B   6      -4.427  20.207   6.996  1.00 29.26 LIG 0.16  HD
BRANCH 37 39
ATOM     39  CA  ALA B   6      -4.364  19.688   8.899  1.00 30.00 LIG 0.16  C 
ATOM     40  CB  ALA B   6      -5.036  21.022   9.289  1.00 31.04 LIG 0.04  C 
BRANCH 39 41
ATOM     41  C   ALA B   6      -5.280  18.536   9.224  1.00 30.03 LIG 0.22  C 
ATOM     42 O    ALA B   6      -5.848  17.938   8.306  1.00 31.65 LIG-0.29  OA
ENDBRANCH 39 41
ENDBRANCH 37 39
ENDBRANCH 31 35
ENDBRANCH 28 31
ENDBRANCH 25 27
ENDBRANCH 3 25
TORSDOF 16
ENDMDL
MODEL 39
USER: ADFR SOLUTION from run 151
USER: SCORE 12.338379 LL:  -2.609 LR: -10.933 RR:   0.000 FEB:  -6.160
USER: RMSD 9.021935
USER: SEED 150
USER: STATUS no improvement in best in 12 clusters for 5 generations
USER: GENES 18
USER: genes 0 Translation |==|  0.55492 0.65369 0.27899
USER: genes 1 Rotation |==|  0.27157 0.49979 0.91907 0.64901
USER: genes 2 Torsion [N]-C--CA-[N] |==|  0.90906
USER: genes 3 Torsion [C]-CA--CB-[OG] |==|  0.81160
USER: genes 4 Torsion [CA]-CB--OG-[HG] |==|  0.97333
USER: genes 5 Torsion [C]-CA--N-[C] |==|  0.67541
USER: genes 6 Torsion [N]-C--CA-[N] |==|  0.88956
USER: genes 7 Torsion [C]-CA--N-[C] |==|  0.62287
USER: genes 8 Torsion [N]-C--CA-[N] |==|  0.05248
USER: genes 9 Torsion [C]-CA--N-[H1] |==|  0.89877
USER: genes 10 Torsion [C]-N--CA-[CB] |==|  0.87778
USER: genes 11 Torsion [N]-CA--C-[N] |==|  0.88358
USER: genes 12 Torsion [C]-N--CA-[CB] |==|  0.15686
USER: genes 13 Torsion [N]-CA--CB-[OG] |==|  0.47351
USER: genes 14 Torsion [CA]-CB--OG-[HG] |==|  0.03093
USER: genes 15 Torsion [N]-CA--C-[N] |==|  0.12590
USER: genes 16 Torsion [C]-N--CA-[C] |==|  0.69615
USER: genes 17 Torsion [N]-CA--C-[O] |==|  0.91223
ROOT
ATOM      1  C   SER B   3      -1.849  21.244  -1.129  1.00 29.46 LIG 0.24  C 
ATOM      2 O    SER B   3      -1.259  20.212  -0.801  1.00 29.29 LIG-0.27  OA
ATOM      3  N   ALA B   4      -2.329  22.130  -0.259  1.00 28.70 LIG-0.35  N 
ATOM      4 H    ALA B   4      -2.765  22.833  -0.493  1.00 28.70 LIG 0.16  HD
ENDROOT
BRANCH 1 5
ATOM      5  CA  SER B   3      -2.062  21.580  -2.604  1.00 29.76 LIG 0.20  C 
BRANCH 5 6
ATOM      6  CB  SER B   3      -0.910  22.419  -3.163  1.00 29.85 LIG 0.20  C 
BRANCH 6 7
ATOM      7 OG   SER B   3      -0.908  23.721  -2.569  1.00 32.14 LIG-0.40  OA
ATOM      8 HG   SER B   3      -1.612  23.827  -2.124  1.00 32.14 LIG 0.21  HD
ENDBRANCH 6 7
ENDBRANCH 5 6
BRANCH 5 9
ATOM      9  N   SER B   3      -3.309  22.296  -2.773  1.00 30.15 LIG-0.34  N 
ATOM     10  C   ALA B   2      -4.313  21.798  -3.485  1.00 30.60 LIG 0.24  C 
ATOM     11 O    ALA B   2      -4.314  20.656  -3.929  1.00 30.40 LIG-0.27  OA
ATOM     12 H    SER B   3      -3.336  23.059  -2.375  1.00 30.15 LIG 0.16  HD
BRANCH 10 13
ATOM     13  CA  ALA B   2      -5.483  22.744  -3.734  1.00 31.29 LIG 0.17  C 
ATOM     14  CB  ALA B   2      -5.146  23.685  -4.881  1.00 31.24 LIG 0.04  C 
BRANCH 13 15
ATOM     15  N   ALA B   2      -5.745  23.521  -2.530  1.00 32.02 LIG-0.35  N 
ATOM     16  C   ALA B   1      -6.971  23.734  -2.059  1.00 33.14 LIG 0.25  C 
ATOM     17 O    ALA B   1      -8.002  23.430  -2.672  1.00 33.78 LIG-0.27  OA
ATOM     18 H    ALA B   2      -5.035  23.828  -2.154  1.00 32.02 LIG 0.16  HD
BRANCH 16 19
ATOM     19  CA  ALA B   1      -7.059  24.420  -0.703  1.00 33.48 LIG 0.27  C 
ATOM     20  CB  ALA B   1      -8.228  25.370  -0.674  1.00 33.96 LIG 0.05  C 
BRANCH 19 21
ATOM     21  N   ALA B   1      -5.796  25.141  -0.326  1.00 33.82 LIG-0.07  N 
ATOM     22 H3   ALA B   1      -5.755  25.225   0.560  1.00 33.82 LIG 0.28  HD
ATOM     23 H2   ALA B   1      -5.791  25.948  -0.700  1.00 33.82 LIG 0.28  HD
ATOM     24 H1   ALA B   1      -5.093  24.676  -0.612  1.00 33.82 LIG 0.28  HD
ENDBRANCH 19 21
ENDBRANCH 16 19
ENDBRANCH 13 15
ENDBRANCH 10 13
ENDBRANCH 5 9
ENDBRANCH 1 5
BRANCH 3 25
ATOM     25  CA  ALA B   4      -2.164  21.993   1.189  1.00 28.07 LIG 0.17  C 
ATOM     26  CB  ALA B   4      -2.439  20.548   1.618  1.00 28.13 LIG 0.04  C 
BRANCH 25 27
ATOM     27  C   ALA B   4      -0.756  22.371   1.602  1.00 27.72 LIG 0.24  C 
ATOM     28  N   SER B   5       0.214  21.927   0.808  1.00 27.70 LIG-0.34  N 
ATOM     29 H    SER B   5       0.111  21.297   0.232  1.00 27.70 LIG 0.16  HD
ATOM     30 O    ALA B   4      -0.559  23.067   2.597  1.00 26.03 LIG-0.27  OA
BRANCH 28 31
ATOM     31  CA  SER B   5       1.560  22.487   0.852  1.00 28.70 LIG 0.20  C 
BRANCH 31 32
ATOM     32  CB  SER B   5       2.140  22.385   2.275  1.00 28.19 LIG 0.20  C 
BRANCH 32 33
ATOM     33 OG   SER B   5       3.531  22.719   2.320  1.00 31.03 LIG-0.40  OA
ATOM     34 HG   SER B   5       3.761  23.061   1.588  1.00 31.03 LIG 0.21  HD
ENDBRANCH 32 33
ENDBRANCH 31 32
BRANCH 31 35
ATOM     35  C   SER B   5       2.446  21.715  -0.134  1.00 28.90 LIG 0.24  C 
ATOM     36 O    SER B   5       3.562  21.311   0.203  1.00 29.19 LIG-0.27  OA
ATOM     37  N   ALA B   6       1.941  21.476  -1.336  1.00 29.26 LIG-0.35  N 
ATOM     38 H    ALA B   6       1.145  21.694  -1.577  1.00 29.26 LIG 0.16  HD
BRANCH 37 39
ATOM     39  CA  ALA B   6       2.721  20.807  -2.367  1.00 30.00 LIG 0.16  C 
ATOM     40  CB  ALA B   6       1.963  19.596  -2.950  1.00 31.04 LIG 0.04  C 
BRANCH 39 41
ATOM     41  C   ALA B   6       3.109  21.753  -3.475  1.00 30.03 LIG 0.22  C 
ATOM     42 O    ALA B   6       2.354  22.686  -3.764  1.00 31.65 LIG-0.29  OA
ENDBRANCH 39 41
ENDBRANCH 37 39
ENDBRANCH 31 35
ENDBRANCH 28 31
ENDBRANCH 25 27
ENDBRANCH 3 25
TORSDOF 16
ENDMDL
MODEL 40
USER: ADFR SOLUTION from run 45
USER: SCORE 12.089749 LL:  -2.645 LR: -10.918 RR:   0.000 FEB:  -6.145
USER: RMSD 9.077041
USER: SEED 44
USER: STATUS no improvement in best in 6 clusters for 5 generations
USER: GENES 18
USER: genes 0 Translation |==|  0.65033 0.67418 0.43712
USER: genes 1 Rotation |==|  0.34049 0.96792 0.53959 0.56357
USER: genes 2 Torsion [N]-C--CA-[N] |==|  0.89466
USER: genes 3 Torsion [C]-CA--CB-[OG] |==|  0.82814
USER: genes 4 Torsion [CA]-CB--OG-[HG] |==|  0.37192
USER: genes 5 Torsion [C]-CA--N-[C] |==|  0.78484
USER: genes 6 Torsion [N]-C--CA-[N] |==|  0.45364
USER: genes 7 Torsion [C]-CA--N-[C] |==|  0.78489
USER: genes 8 Torsion [N]-C--CA-[N] |==|  0.95645
USER: genes 9 Torsion [C]-CA--N-[H1] |==|  0.07763
USER: genes 10 Torsion [C]-N--CA-[CB] |==|  0.18048
USER: genes 11 Torsion [N]-CA--C-[N] |==|  0.97350
USER: genes 12 Torsion [C]-N--CA-[CB] |==|  0.14235
USER: genes 13 Torsion [N]-CA--CB-[OG] |==|  0.53822
USER: genes 14 Torsion [CA]-CB--OG-[HG] |==|  0.69631
USER: genes 15 Torsion [N]-CA--C-[N] |==|  0.61957
USER: genes 16 Torsion [C]-N--CA-[C] |==|  0.68029
USER: genes 17 Torsion [N]-CA--C-[O] |==|  0.01528
ROOT
ATOM      1  C   SER B   3      -0.203  21.552   2.666  1.00 29.46 LIG 0.24  C 
ATOM      2 O    SER B   3       0.178  22.373   3.504  1.00 29.29 LIG-0.27  OA
ATOM      3  N   ALA B   4       0.477  21.255   1.560  1.00 28.70 LIG-0.35  N 
ATOM      4 H    ALA B   4       0.193  20.703   0.965  1.00 28.70 LIG 0.16  HD
ENDROOT
BRANCH 1 5
ATOM      5  CA  SER B   3      -1.517  20.798   2.859  1.00 29.76 LIG 0.20  C 
BRANCH 5 6
ATOM      6  CB  SER B   3      -1.290  19.425   3.498  1.00 29.85 LIG 0.20  C 
BRANCH 6 7
ATOM      7 OG   SER B   3      -0.476  18.609   2.647  1.00 32.14 LIG-0.40  OA
ATOM      8 HG   SER B   3       0.123  18.238   3.105  1.00 32.14 LIG 0.21  HD
ENDBRANCH 6 7
ENDBRANCH 5 6
BRANCH 5 9
ATOM      9  N   SER B   3      -2.187  20.636   1.586  1.00 30.15 LIG-0.34  N 
ATOM     10  C   ALA B   2      -2.854  21.631   1.013  1.00 30.60 LIG 0.24  C 
ATOM     11 O    ALA B   2      -2.837  22.780   1.441  1.00 30.40 LIG-0.27  OA
ATOM     12 H    SER B   3      -2.112  19.850   1.245  1.00 30.15 LIG 0.16  HD
BRANCH 10 13
ATOM     13  CA  ALA B   2      -3.666  21.260  -0.223  1.00 31.29 LIG 0.17  C 
ATOM     14  CB  ALA B   2      -2.738  21.094  -1.417  1.00 31.24 LIG 0.04  C 
BRANCH 13 15
ATOM     15  N   ALA B   2      -4.632  22.314  -0.504  1.00 32.02 LIG-0.35  N 
ATOM     16  C   ALA B   1      -5.763  22.460   0.181  1.00 33.14 LIG 0.25  C 
ATOM     17 O    ALA B   1      -6.174  21.635   1.008  1.00 33.78 LIG-0.27  OA
ATOM     18 H    ALA B   2      -4.402  22.832  -1.152  1.00 32.02 LIG 0.16  HD
BRANCH 16 19
ATOM     19  CA  ALA B   1      -6.577  23.709  -0.126  1.00 33.48 LIG 0.27  C 
ATOM     20  CB  ALA B   1      -7.823  23.343  -0.890  1.00 33.96 LIG 0.05  C 
BRANCH 19 21
ATOM     21  N   ALA B   1      -5.796  24.751  -0.874  1.00 33.82 LIG-0.07  N 
ATOM     22 H3   ALA B   1      -5.421  25.314  -0.295  1.00 33.82 LIG 0.28  HD
ATOM     23 H2   ALA B   1      -6.342  25.202  -1.413  1.00 33.82 LIG 0.28  HD
ATOM     24 H1   ALA B   1      -5.161  24.356  -1.357  1.00 33.82 LIG 0.28  HD
ENDBRANCH 19 21
ENDBRANCH 16 19
ENDBRANCH 13 15
ENDBRANCH 10 13
ENDBRANCH 5 9
ENDBRANCH 1 5
BRANCH 3 25
ATOM     25  CA  ALA B   4       1.780  21.843   1.245  1.00 28.07 LIG 0.17  C 
ATOM     26  CB  ALA B   4       2.823  21.396   2.274  1.00 28.13 LIG 0.04  C 
BRANCH 25 27
ATOM     27  C   ALA B   4       2.236  21.419  -0.135  1.00 27.72 LIG 0.24  C 
ATOM     28  N   SER B   5       1.508  20.468  -0.714  1.00 27.70 LIG-0.34  N 
ATOM     29 H    SER B   5       0.959  19.960  -0.290  1.00 27.70 LIG 0.16  HD
ATOM     30 O    ALA B   4       3.204  21.958  -0.671  1.00 26.03 LIG-0.27  OA
BRANCH 28 31
ATOM     31  CA  SER B   5       1.585  20.206  -2.147  1.00 28.70 LIG 0.20  C 
BRANCH 31 32
ATOM     32  CB  SER B   5       3.050  20.025  -2.584  1.00 28.19 LIG 0.20  C 
BRANCH 32 33
ATOM     33 OG   SER B   5       3.203  20.080  -4.006  1.00 31.03 LIG-0.40  OA
ATOM     34 HG   SER B   5       3.388  19.314  -4.298  1.00 31.03 LIG 0.21  HD
ENDBRANCH 32 33
ENDBRANCH 31 32
BRANCH 31 35
ATOM     35  C   SER B   5       0.782  18.936  -2.458  1.00 28.90 LIG 0.24  C 
ATOM     36 O    SER B   5      -0.335  18.760  -1.966  1.00 29.19 LIG-0.27  OA
ATOM     37  N   ALA B   6       1.329  18.069  -3.298  1.00 29.26 LIG-0.35  N 
ATOM     38 H    ALA B   6       2.079  18.195  -3.700  1.00 29.26 LIG 0.16  HD
BRANCH 37 39
ATOM     39  CA  ALA B   6       0.680  16.805  -3.612  1.00 30.00 LIG 0.16  C 
ATOM     40  CB  ALA B   6       0.407  16.672  -5.125  1.00 31.04 LIG 0.04  C 
BRANCH 39 41
ATOM     41  C   ALA B   6       1.489  15.628  -3.129  1.00 30.03 LIG 0.22  C 
ATOM     42 O    ALA B   6       2.507  15.828  -2.460  1.00 31.65 LIG-0.29  OA
ENDBRANCH 39 41
ENDBRANCH 37 39
ENDBRANCH 31 35
ENDBRANCH 28 31
ENDBRANCH 25 27
ENDBRANCH 3 25
TORSDOF 16
ENDMDL
