MODEL 1
USER: ADFR SOLUTION from run 100
USER: SCORE 15.535524 LL:  -2.496 LR: -14.309 RR:   0.000 FEB:  -9.536
USER: RMSD 4.758747
USER: SEED 99
USER: STATUS no improvement in best in 11 clusters for 5 generations
USER: GENES 18
USER: genes 0 Translation |==|  0.51927 0.54643 0.43101
USER: genes 1 Rotation |==|  0.46498 0.32271 0.74568 0.89621
USER: genes 2 Torsion [N]-C--CA-[N] |==|  0.39707
USER: genes 3 Torsion [C]-CA--N-[C] |==|  0.79445
USER: genes 4 Torsion [N]-C--CA-[N] |==|  0.12897
USER: genes 5 Torsion [C]-CA--CB-[OG] |==|  0.30367
USER: genes 6 Torsion [CA]-CB--OG-[HG] |==|  0.26573
USER: genes 7 Torsion [C]-CA--N-[H1] |==|  0.94307
USER: genes 8 Torsion [C]-CA--CB-[CG] |==|  0.89937
USER: genes 9 Torsion [CA]-CB--CG-[CD1] |==|  0.26689
USER: genes 10 Torsion [C]-N--CA-[CB] |==|  0.16280
USER: genes 11 Torsion [N]-CA--C-[N] |==|  0.06809
USER: genes 12 Torsion [C]-N--CA-[C] |==|  0.58200
USER: genes 13 Torsion [N]-CA--C-[N] |==|  0.63402
USER: genes 14 Torsion [C]-N--CA-[C] |==|  0.60381
USER: genes 15 Torsion [N]-CA--C-[O] |==|  0.75972
USER: genes 16 Torsion [N]-CA--CB-[CG] |==|  0.61163
USER: genes 17 Torsion [CA]-CB--CG-[OD1] |==|  0.86474
ROOT
ATOM      1  C   PHE B   2      -1.976  20.426   2.984  1.00 26.65 LIG 0.24  C 
ATOM      2 O    PHE B   2      -2.094  19.911   1.910  1.00 26.69 LIG-0.27  OA
ATOM      3  N   ALA B   3      -2.274  19.853   4.126  1.00 26.24 LIG-0.35  N 
ATOM      4 H    ALA B   3      -2.246  20.239   4.894  1.00 26.24 LIG 0.16  HD
ENDROOT
BRANCH 1 5
ATOM      5  CA  PHE B   2      -1.477  21.818   3.147  1.00 26.41 LIG 0.18  C 
BRANCH 5 6
ATOM      6  N   PHE B   2      -0.441  22.140   2.222  1.00 26.57 LIG-0.35  N 
ATOM      7  C   SER B   1       0.761  21.636   2.407  1.00 27.36 LIG 0.25  C 
ATOM      8 O    SER B   1       1.061  20.931   3.335  1.00 27.79 LIG-0.27  OA
ATOM      9 H    PHE B   2      -0.667  22.660   1.575  1.00 26.57 LIG 0.16  HD
BRANCH 7 10
ATOM     10  CA  SER B   1       1.821  22.028   1.440  1.00 27.82 LIG 0.30  C 
BRANCH 10 11
ATOM     11  CB  SER B   1       3.219  21.670   1.876  1.00 27.59 LIG 0.21  C 
BRANCH 11 12
ATOM     12 OG   SER B   1       3.732  20.620   1.087  1.00 28.50 LIG-0.40  OA
ATOM     13 HG   SER B   1       4.194  20.939   0.463  1.00 28.50 LIG 0.21  HD
ENDBRANCH 11 12
ENDBRANCH 10 11
BRANCH 10 14
ATOM     14  N   SER B   1       1.684  23.453   1.315  1.00 28.84 LIG-0.06  N 
ATOM     15 H3   SER B   1       1.805  23.690   0.465  1.00 28.84 LIG 0.28  HD
ATOM     16 H2   SER B   1       2.293  23.856   1.824  1.00 28.84 LIG 0.28  HD
ATOM     17 H1   SER B   1       0.870  23.697   1.577  1.00 28.84 LIG 0.28  HD
ENDBRANCH 10 14
ENDBRANCH 7 10
ENDBRANCH 5 6
BRANCH 5 18
ATOM     18  CB  PHE B   2      -2.633  22.742   3.035  1.00 26.01 LIG 0.07  C 
BRANCH 18 19
ATOM     19  CG  PHE B   2      -3.604  22.311   2.074  1.00 24.17 LIG-0.06  A 
ATOM     20  CD1 PHE B   2      -4.699  21.605   2.474  1.00 21.37 LIG 0.01  A 
ATOM     21  CE1 PHE B   2      -5.548  21.225   1.612  1.00 18.48 LIG 0.00  A 
ATOM     22  CZ  PHE B   2      -5.387  21.510   0.354  1.00 20.70 LIG 0.00  A 
ATOM     23  CE2 PHE B   2      -4.400  22.218  -0.073  1.00 22.44 LIG 0.00  A 
ATOM     24  CD2 PHE B   2      -3.476  22.625   0.774  1.00 23.60 LIG 0.01  A 
ENDBRANCH 18 19
ENDBRANCH 5 18
ENDBRANCH 1 5
BRANCH 3 25
ATOM     25  CA  ALA B   3      -2.675  18.499   4.146  1.00 26.83 LIG 0.17  C 
ATOM     26  CB  ALA B   3      -1.602  17.628   3.551  1.00 26.24 LIG 0.04  C 
BRANCH 25 27
ATOM     27  C   ALA B   3      -2.944  18.098   5.575  1.00 26.95 LIG 0.24  C 
ATOM     28  N   ASN B   4      -3.254  19.087   6.382  1.00 27.94 LIG-0.35  N 
ATOM     29 H    ASN B   4      -3.143  19.922   6.205  1.00 27.94 LIG 0.16  HD
ATOM     30 O    ALA B   3      -2.880  16.979   5.905  1.00 26.45 LIG-0.27  OA
BRANCH 28 31
ATOM     31  CA  ASN B   4      -3.825  18.802   7.669  1.00 28.42 LIG 0.18  C 
BRANCH 31 32
ATOM     32  C   ASN B   4      -4.717  19.954   8.060  1.00 28.91 LIG 0.24  C 
ATOM     33 O    ASN B   4      -5.540  20.389   7.304  1.00 29.45 LIG-0.27  OA
ATOM     34  N   GLY B   5      -4.569  20.441   9.265  1.00 28.92 LIG-0.35  N 
ATOM     35 H    GLY B   5      -4.034  20.125   9.860  1.00 28.92 LIG 0.16  HD
BRANCH 34 36
ATOM     36  CA  GLY B   5      -5.322  21.575   9.672  1.00 29.35 LIG 0.21  C 
BRANCH 36 37
ATOM     37  C   GLY B   5      -4.604  22.541  10.540  1.00 28.99 LIG 0.21  C 
ATOM     38 O    GLY B   5      -4.602  22.355  11.713  1.00 30.45 LIG-0.29  OA
ENDBRANCH 36 37
ENDBRANCH 34 36
ENDBRANCH 31 32
BRANCH 31 39
ATOM     39  CB  ASN B   4      -2.733  18.602   8.720  1.00 28.79 LIG 0.14  C 
BRANCH 39 40
ATOM     40  CG  ASN B   4      -3.039  17.492   9.658  1.00 30.59 LIG 0.22  C 
ATOM     41  ND2 ASN B   4      -2.109  16.577   9.845  1.00 33.19 LIG-0.37  N 
ATOM     42 22HD ASN B   4      -1.347  16.653   9.455  1.00 33.19 LIG 0.16  HD
ATOM     43 21HD ASN B   4      -2.265  15.904  10.357  1.00 33.19 LIG 0.16  HD
ATOM     44 OD1  ASN B   4      -4.116  17.429  10.181  1.00 34.60 LIG-0.27  OA
ENDBRANCH 39 40
ENDBRANCH 31 39
ENDBRANCH 28 31
ENDBRANCH 25 27
ENDBRANCH 3 25
TORSDOF 16
ENDMDL
MODEL 2
USER: ADFR SOLUTION from run 33
USER: SCORE 13.645232 LL:  -2.680 LR: -13.854 RR:   0.000 FEB:  -9.081
USER: RMSD 4.779389
USER: SEED 32
USER: STATUS no improvement in best in 35 clusters for 5 generations
USER: GENES 18
USER: genes 0 Translation |==|  0.49344 0.62211 0.43662
USER: genes 1 Rotation |==|  0.73065 0.41587 0.30402 0.88899
USER: genes 2 Torsion [N]-C--CA-[N] |==|  0.43783
USER: genes 3 Torsion [C]-CA--N-[C] |==|  0.53333
USER: genes 4 Torsion [N]-C--CA-[N] |==|  0.02164
USER: genes 5 Torsion [C]-CA--CB-[OG] |==|  0.20861
USER: genes 6 Torsion [CA]-CB--OG-[HG] |==|  0.26007
USER: genes 7 Torsion [C]-CA--N-[H1] |==|  0.30537
USER: genes 8 Torsion [C]-CA--CB-[CG] |==|  0.18198
USER: genes 9 Torsion [CA]-CB--CG-[CD1] |==|  0.13336
USER: genes 10 Torsion [C]-N--CA-[CB] |==|  0.32840
USER: genes 11 Torsion [N]-CA--C-[N] |==|  0.38201
USER: genes 12 Torsion [C]-N--CA-[C] |==|  0.19391
USER: genes 13 Torsion [N]-CA--C-[N] |==|  0.23076
USER: genes 14 Torsion [C]-N--CA-[C] |==|  0.53807
USER: genes 15 Torsion [N]-CA--C-[O] |==|  0.42525
USER: genes 16 Torsion [N]-CA--CB-[CG] |==|  0.70045
USER: genes 17 Torsion [CA]-CB--CG-[OD1] |==|  0.61320
ROOT
ATOM      1  C   PHE B   2      -2.480  21.562   3.114  1.00 26.65 LIG 0.24  C 
ATOM      2 O    PHE B   2      -2.592  22.752   3.174  1.00 26.69 LIG-0.27  OA
ATOM      3  N   ALA B   3      -3.475  20.711   3.209  1.00 26.24 LIG-0.35  N 
ATOM      4 H    ALA B   3      -3.392  19.855   3.226  1.00 26.24 LIG 0.16  HD
ENDROOT
BRANCH 1 5
ATOM      5  CA  PHE B   2      -1.162  20.895   2.933  1.00 26.41 LIG 0.18  C 
BRANCH 5 6
ATOM      6  N   PHE B   2      -0.193  21.754   2.336  1.00 26.57 LIG-0.35  N 
ATOM      7  C   SER B   1       0.936  21.236   1.899  1.00 27.36 LIG 0.25  C 
ATOM      8 O    SER B   1       1.226  20.073   1.993  1.00 27.79 LIG-0.27  OA
ATOM      9 H    PHE B   2      -0.407  22.586   2.295  1.00 26.57 LIG 0.16  HD
BRANCH 7 10
ATOM     10  CA  SER B   1       1.935  22.173   1.318  1.00 27.82 LIG 0.30  C 
BRANCH 10 11
ATOM     11  CB  SER B   1       3.319  22.040   1.902  1.00 27.59 LIG 0.21  C 
BRANCH 11 12
ATOM     12 OG   SER B   1       3.957  20.885   1.408  1.00 28.50 LIG-0.40  OA
ATOM     13 HG   SER B   1       4.419  21.086   0.736  1.00 28.50 LIG 0.21  HD
ENDBRANCH 11 12
ENDBRANCH 10 11
BRANCH 10 14
ATOM     14  N   SER B   1       1.401  23.480   1.586  1.00 28.84 LIG-0.06  N 
ATOM     15 H3   SER B   1       0.566  23.404   1.887  1.00 28.84 LIG 0.28  HD
ATOM     16 H2   SER B   1       1.403  23.962   0.838  1.00 28.84 LIG 0.28  HD
ATOM     17 H1   SER B   1       1.901  23.885   2.201  1.00 28.84 LIG 0.28  HD
ENDBRANCH 10 14
ENDBRANCH 7 10
ENDBRANCH 5 6
BRANCH 5 18
ATOM     18  CB  PHE B   2      -0.717  20.381   4.253  1.00 26.01 LIG 0.07  C 
BRANCH 18 19
ATOM     19  CG  PHE B   2      -1.560  19.342   4.763  1.00 24.17 LIG-0.06  A 
ATOM     20  CD1 PHE B   2      -1.923  18.299   3.966  1.00 21.37 LIG 0.01  A 
ATOM     21  CE1 PHE B   2      -2.674  17.388   4.429  1.00 18.48 LIG 0.00  A 
ATOM     22  CZ  PHE B   2      -3.093  17.438   5.659  1.00 20.70 LIG 0.00  A 
ATOM     23  CE2 PHE B   2      -2.740  18.371   6.471  1.00 22.44 LIG 0.00  A 
ATOM     24  CD2 PHE B   2      -1.975  19.355   6.041  1.00 23.60 LIG 0.01  A 
ENDBRANCH 18 19
ENDBRANCH 5 18
ENDBRANCH 1 5
BRANCH 3 25
ATOM     25  CA  ALA B   3      -4.801  21.191   3.293  1.00 26.83 LIG 0.17  C 
ATOM     26  CB  ALA B   3      -5.605  20.707   2.117  1.00 26.24 LIG 0.04  C 
BRANCH 25 27
ATOM     27  C   ALA B   3      -5.408  20.698   4.584  1.00 26.95 LIG 0.24  C 
ATOM     28  N   ASN B   4      -6.120  21.585   5.239  1.00 27.94 LIG-0.35  N 
ATOM     29 H    ASN B   4      -6.114  22.432   5.087  1.00 27.94 LIG 0.16  HD
ATOM     30 O    ALA B   3      -5.243  19.597   4.939  1.00 26.45 LIG-0.27  OA
BRANCH 28 31
ATOM     31  CA  ASN B   4      -6.988  21.157   6.301  1.00 28.42 LIG 0.18  C 
BRANCH 31 32
ATOM     32  C   ASN B   4      -6.135  20.699   7.458  1.00 28.91 LIG 0.24  C 
ATOM     33 O    ASN B   4      -5.864  19.541   7.612  1.00 29.45 LIG-0.27  OA
ATOM     34  N   GLY B   5      -5.687  21.620   8.271  1.00 28.92 LIG-0.35  N 
ATOM     35 H    GLY B   5      -5.807  22.466   8.168  1.00 28.92 LIG 0.16  HD
BRANCH 34 36
ATOM     36  CA  GLY B   5      -4.943  21.252   9.424  1.00 29.35 LIG 0.21  C 
BRANCH 36 37
ATOM     37  C   GLY B   5      -4.758  22.325  10.434  1.00 28.99 LIG 0.21  C 
ATOM     38 O    GLY B   5      -4.602  22.013  11.569  1.00 30.45 LIG-0.29  OA
ENDBRANCH 36 37
ENDBRANCH 34 36
ENDBRANCH 31 32
BRANCH 31 39
ATOM     39  CB  ASN B   4      -7.900  20.021   5.838  1.00 28.79 LIG 0.14  C 
BRANCH 39 40
ATOM     40  CG  ASN B   4      -9.310  20.454   5.667  1.00 30.59 LIG 0.22  C 
ATOM     41  ND2 ASN B   4      -9.524  21.652   5.162  1.00 33.19 LIG-0.37  N 
ATOM     42 22HD ASN B   4      -8.861  22.140   4.917  1.00 33.19 LIG 0.16  HD
ATOM     43 21HD ASN B   4     -10.328  21.947   5.079  1.00 33.19 LIG 0.16  HD
ATOM     44 OD1  ASN B   4     -10.204  19.739   6.023  1.00 34.60 LIG-0.27  OA
ENDBRANCH 39 40
ENDBRANCH 31 39
ENDBRANCH 28 31
ENDBRANCH 25 27
ENDBRANCH 3 25
TORSDOF 16
ENDMDL
MODEL 3
USER: ADFR SOLUTION from run 72
USER: SCORE 15.654090 LL:  -2.647 LR: -13.768 RR:   0.000 FEB:  -8.996
USER: RMSD 3.108803
USER: SEED 71
USER: STATUS no improvement in best in 5 clusters for 5 generations
USER: GENES 18
USER: genes 0 Translation |==|  0.52386 0.47812 0.51670
USER: genes 1 Rotation |==|  0.85443 0.70612 0.21426 0.51562
USER: genes 2 Torsion [N]-C--CA-[N] |==|  0.11067
USER: genes 3 Torsion [C]-CA--N-[C] |==|  0.67577
USER: genes 4 Torsion [N]-C--CA-[N] |==|  0.14071
USER: genes 5 Torsion [C]-CA--CB-[OG] |==|  0.63860
USER: genes 6 Torsion [CA]-CB--OG-[HG] |==|  0.19353
USER: genes 7 Torsion [C]-CA--N-[H1] |==|  0.40272
USER: genes 8 Torsion [C]-CA--CB-[CG] |==|  0.46166
USER: genes 9 Torsion [CA]-CB--CG-[CD1] |==|  0.29924
USER: genes 10 Torsion [C]-N--CA-[CB] |==|  0.79951
USER: genes 11 Torsion [N]-CA--C-[N] |==|  0.24077
USER: genes 12 Torsion [C]-N--CA-[C] |==|  0.80577
USER: genes 13 Torsion [N]-CA--C-[N] |==|  0.34258
USER: genes 14 Torsion [C]-N--CA-[C] |==|  0.66424
USER: genes 15 Torsion [N]-CA--C-[O] |==|  0.02435
USER: genes 16 Torsion [N]-CA--CB-[CG] |==|  0.55248
USER: genes 17 Torsion [CA]-CB--CG-[OD1] |==|  0.87002
ROOT
ATOM      1  C   PHE B   2      -1.887  19.402   4.976  1.00 26.65 LIG 0.24  C 
ATOM      2 O    PHE B   2      -1.228  18.958   5.872  1.00 26.69 LIG-0.27  OA
ATOM      3  N   ALA B   3      -3.174  19.199   4.822  1.00 26.24 LIG-0.35  N 
ATOM      4 H    ALA B   3      -3.639  19.467   4.149  1.00 26.24 LIG 0.16  HD
ENDROOT
BRANCH 1 5
ATOM      5  CA  PHE B   2      -1.300  20.246   3.901  1.00 26.41 LIG 0.18  C 
BRANCH 5 6
ATOM      6  N   PHE B   2      -2.156  21.322   3.522  1.00 26.57 LIG-0.35  N 
ATOM      7  C   SER B   1      -2.628  21.360   2.293  1.00 27.36 LIG 0.25  C 
ATOM      8 O    SER B   1      -2.362  20.552   1.443  1.00 27.79 LIG-0.27  OA
ATOM      9 H    PHE B   2      -2.320  21.902   4.135  1.00 26.57 LIG 0.16  HD
BRANCH 7 10
ATOM     10  CA  SER B   1      -3.485  22.520   1.929  1.00 27.82 LIG 0.30  C 
BRANCH 10 11
ATOM     11  CB  SER B   1      -3.819  22.604   0.461  1.00 27.59 LIG 0.21  C 
BRANCH 11 12
ATOM     12 OG   SER B   1      -3.557  23.898  -0.034  1.00 28.50 LIG-0.40  OA
ATOM     13 HG   SER B   1      -2.727  24.028  -0.052  1.00 28.50 LIG 0.21  HD
ENDBRANCH 11 12
ENDBRANCH 10 11
BRANCH 10 14
ATOM     14  N   SER B   1      -2.727  23.670   2.338  1.00 28.84 LIG-0.06  N 
ATOM     15 H3   SER B   1      -1.861  23.466   2.351  1.00 28.84 LIG 0.28  HD
ATOM     16 H2   SER B   1      -2.984  23.922   3.152  1.00 28.84 LIG 0.28  HD
ATOM     17 H1   SER B   1      -2.866  24.336   1.764  1.00 28.84 LIG 0.28  HD
ENDBRANCH 10 14
ENDBRANCH 7 10
ENDBRANCH 5 6
BRANCH 5 18
ATOM     18  CB  PHE B   2       0.029  20.724   4.360  1.00 26.01 LIG 0.07  C 
BRANCH 18 19
ATOM     19  CG  PHE B   2       0.820  21.280   3.303  1.00 24.17 LIG-0.06  A 
ATOM     20  CD1 PHE B   2       1.028  22.625   3.235  1.00 21.37 LIG 0.01  A 
ATOM     21  CE1 PHE B   2       1.726  23.103   2.292  1.00 18.48 LIG 0.00  A 
ATOM     22  CZ  PHE B   2       2.252  22.322   1.395  1.00 20.70 LIG 0.00  A 
ATOM     23  CE2 PHE B   2       2.132  21.041   1.439  1.00 22.44 LIG 0.00  A 
ATOM     24  CD2 PHE B   2       1.402  20.488   2.387  1.00 23.60 LIG 0.01  A 
ENDBRANCH 18 19
ENDBRANCH 5 18
ENDBRANCH 1 5
BRANCH 3 25
ATOM     25  CA  ALA B   3      -3.895  18.492   5.810  1.00 26.83 LIG 0.17  C 
ATOM     26  CB  ALA B   3      -3.540  17.030   5.767  1.00 26.24 LIG 0.04  C 
BRANCH 25 27
ATOM     27  C   ALA B   3      -3.557  19.075   7.159  1.00 26.95 LIG 0.24  C 
ATOM     28  N   ASN B   4      -4.290  20.103   7.521  1.00 27.94 LIG-0.35  N 
ATOM     29 H    ASN B   4      -4.798  20.556   6.995  1.00 27.94 LIG 0.16  HD
ATOM     30 O    ALA B   3      -2.704  18.615   7.813  1.00 26.45 LIG-0.27  OA
BRANCH 28 31
ATOM     31  CA  ASN B   4      -4.273  20.541   8.889  1.00 28.42 LIG 0.18  C 
BRANCH 31 32
ATOM     32  C   ASN B   4      -4.972  19.502   9.730  1.00 28.91 LIG 0.24  C 
ATOM     33 O    ASN B   4      -6.093  19.154   9.486  1.00 29.45 LIG-0.27  OA
ATOM     34  N   GLY B   5      -4.296  18.984  10.723  1.00 28.92 LIG-0.35  N 
ATOM     35 H    GLY B   5      -3.473  19.160  10.901  1.00 28.92 LIG 0.16  HD
BRANCH 34 36
ATOM     36  CA  GLY B   5      -4.919  18.058  11.603  1.00 29.35 LIG 0.21  C 
BRANCH 36 37
ATOM     37  C   GLY B   5      -4.945  18.454  13.033  1.00 28.99 LIG 0.21  C 
ATOM     38 O    GLY B   5      -4.603  19.554  13.323  1.00 30.45 LIG-0.29  OA
ENDBRANCH 36 37
ENDBRANCH 34 36
ENDBRANCH 31 32
BRANCH 31 39
ATOM     39  CB  ASN B   4      -4.967  21.894   9.040  1.00 28.79 LIG 0.14  C 
BRANCH 39 40
ATOM     40  CG  ASN B   4      -4.598  22.589  10.299  1.00 30.59 LIG 0.22  C 
ATOM     41  ND2 ASN B   4      -4.227  23.851  10.214  1.00 33.19 LIG-0.37  N 
ATOM     42 22HD ASN B   4      -4.234  24.251   9.453  1.00 33.19 LIG 0.16  HD
ATOM     43 21HD ASN B   4      -3.976  24.274  10.919  1.00 33.19 LIG 0.16  HD
ATOM     44 OD1  ASN B   4      -4.603  21.991  11.338  1.00 34.60 LIG-0.27  OA
ENDBRANCH 39 40
ENDBRANCH 31 39
ENDBRANCH 28 31
ENDBRANCH 25 27
ENDBRANCH 3 25
TORSDOF 16
ENDMDL
MODEL 4
USER: ADFR SOLUTION from run 41
USER: SCORE 14.339423 LL:  -2.993 LR: -13.657 RR:   0.000 FEB:  -8.884
USER: RMSD 9.793344
USER: SEED 40
USER: STATUS no improvement in best in 5 clusters for 5 generations
USER: GENES 18
USER: genes 0 Translation |==|  0.46139 0.45183 0.59406
USER: genes 1 Rotation |==|  0.48245 0.01246 0.39083 0.50908
USER: genes 2 Torsion [N]-C--CA-[N] |==|  0.53333
USER: genes 3 Torsion [C]-CA--N-[C] |==|  0.60741
USER: genes 4 Torsion [N]-C--CA-[N] |==|  0.83259
USER: genes 5 Torsion [C]-CA--CB-[OG] |==|  0.64749
USER: genes 6 Torsion [CA]-CB--OG-[HG] |==|  0.13834
USER: genes 7 Torsion [C]-CA--N-[H1] |==|  0.06274
USER: genes 8 Torsion [C]-CA--CB-[CG] |==|  0.59939
USER: genes 9 Torsion [CA]-CB--CG-[CD1] |==|  0.23326
USER: genes 10 Torsion [C]-N--CA-[CB] |==|  0.37267
USER: genes 11 Torsion [N]-CA--C-[N] |==|  0.42320
USER: genes 12 Torsion [C]-N--CA-[C] |==|  0.67681
USER: genes 13 Torsion [N]-CA--C-[N] |==|  0.39554
USER: genes 14 Torsion [C]-N--CA-[C] |==|  0.70868
USER: genes 15 Torsion [N]-CA--C-[O] |==|  0.16387
USER: genes 16 Torsion [N]-CA--CB-[CG] |==|  0.43510
USER: genes 17 Torsion [CA]-CB--CG-[OD1] |==|  0.68758
ROOT
ATOM      1  C   PHE B   2      -3.105  19.007   6.775  1.00 26.65 LIG 0.24  C 
ATOM      2 O    PHE B   2      -2.084  18.980   7.399  1.00 26.69 LIG-0.27  OA
ATOM      3  N   ALA B   3      -3.183  18.966   5.465  1.00 26.24 LIG-0.35  N 
ATOM      4 H    ALA B   3      -3.910  19.045   5.012  1.00 26.24 LIG 0.16  HD
ENDROOT
BRANCH 1 5
ATOM      5  CA  PHE B   2      -4.436  19.107   7.432  1.00 26.41 LIG 0.18  C 
BRANCH 5 6
ATOM      6  N   PHE B   2      -4.339  19.424   8.819  1.00 26.57 LIG-0.35  N 
ATOM      7  C   SER B   1      -5.166  18.847   9.666  1.00 27.36 LIG 0.25  C 
ATOM      8 O    SER B   1      -6.032  18.077   9.344  1.00 27.79 LIG-0.27  OA
ATOM      9 H    PHE B   2      -3.728  19.991   9.030  1.00 26.57 LIG 0.16  HD
BRANCH 7 10
ATOM     10  CA  SER B   1      -5.055  19.236  11.097  1.00 27.82 LIG 0.30  C 
BRANCH 10 11
ATOM     11  CB  SER B   1      -5.298  20.700  11.360  1.00 27.59 LIG 0.21  C 
BRANCH 11 12
ATOM     12 OG   SER B   1      -4.227  21.259  12.087  1.00 28.50 LIG-0.40  OA
ATOM     13 HG   SER B   1      -3.501  21.055  11.718  1.00 28.50 LIG 0.21  HD
ENDBRANCH 11 12
ENDBRANCH 10 11
BRANCH 10 14
ATOM     14  N   SER B   1      -3.713  18.876  11.465  1.00 28.84 LIG-0.06  N 
ATOM     15 H3   SER B   1      -3.717  18.082  11.867  1.00 28.84 LIG 0.28  HD
ATOM     16 H2   SER B   1      -3.382  19.488  12.021  1.00 28.84 LIG 0.28  HD
ATOM     17 H1   SER B   1      -3.206  18.836  10.735  1.00 28.84 LIG 0.28  HD
ENDBRANCH 10 14
ENDBRANCH 7 10
ENDBRANCH 5 6
BRANCH 5 18
ATOM     18  CB  PHE B   2      -5.248  20.101   6.687  1.00 26.01 LIG 0.07  C 
BRANCH 18 19
ATOM     19  CG  PHE B   2      -6.102  20.877   7.536  1.00 24.17 LIG-0.06  A 
ATOM     20  CD1 PHE B   2      -5.618  21.980   8.173  1.00 21.37 LIG 0.01  A 
ATOM     21  CE1 PHE B   2      -6.384  22.654   8.926  1.00 18.48 LIG 0.00  A 
ATOM     22  CZ  PHE B   2      -7.627  22.307   9.088  1.00 20.70 LIG 0.00  A 
ATOM     23  CE2 PHE B   2      -8.150  21.306   8.471  1.00 22.44 LIG 0.00  A 
ATOM     24  CD2 PHE B   2      -7.398  20.557   7.690  1.00 23.60 LIG 0.01  A 
ENDBRANCH 18 19
ENDBRANCH 5 18
ENDBRANCH 1 5
BRANCH 3 25
ATOM     25  CA  ALA B   3      -2.011  18.781   4.700  1.00 26.83 LIG 0.17  C 
ATOM     26  CB  ALA B   3      -2.244  17.747   3.631  1.00 26.24 LIG 0.04  C 
BRANCH 25 27
ATOM     27  C   ALA B   3      -1.629  20.101   4.079  1.00 26.95 LIG 0.24  C 
ATOM     28  N   ASN B   4      -0.347  20.253   3.835  1.00 27.94 LIG-0.35  N 
ATOM     29 H    ASN B   4       0.278  19.755   4.154  1.00 27.94 LIG 0.16  HD
ATOM     30 O    ALA B   3      -2.442  20.906   3.838  1.00 26.45 LIG-0.27  OA
BRANCH 28 31
ATOM     31  CA  ASN B   4       0.092  21.319   2.977  1.00 28.42 LIG 0.18  C 
BRANCH 31 32
ATOM     32  C   ASN B   4       0.739  20.711   1.757  1.00 28.91 LIG 0.24  C 
ATOM     33 O    ASN B   4       1.398  19.713   1.833  1.00 29.45 LIG-0.27  OA
ATOM     34  N   GLY B   5       0.531  21.309   0.612  1.00 28.92 LIG-0.35  N 
ATOM     35 H    GLY B   5       0.020  21.992   0.500  1.00 28.92 LIG 0.16  HD
BRANCH 34 36
ATOM     36  CA  GLY B   5       1.173  20.836  -0.565  1.00 29.35 LIG 0.21  C 
BRANCH 36 37
ATOM     37  C   GLY B   5       2.310  21.660  -1.046  1.00 28.99 LIG 0.21  C 
ATOM     38 O    GLY B   5       3.234  21.831  -0.320  1.00 30.45 LIG-0.29  OA
ENDBRANCH 36 37
ENDBRANCH 34 36
ENDBRANCH 31 32
BRANCH 31 39
ATOM     39  CB  ASN B   4       1.083  22.230   3.699  1.00 28.79 LIG 0.14  C 
BRANCH 39 40
ATOM     40  CG  ASN B   4       1.964  22.973   2.762  1.00 30.59 LIG 0.22  C 
ATOM     41  ND2 ASN B   4       1.399  23.855   1.963  1.00 33.19 LIG-0.37  N 
ATOM     42 22HD ASN B   4       0.555  24.006   2.017  1.00 33.19 LIG 0.16  HD
ATOM     43 21HD ASN B   4       1.875  24.280   1.386  1.00 33.19 LIG 0.16  HD
ATOM     44 OD1  ASN B   4       3.137  22.729   2.723  1.00 34.60 LIG-0.27  OA
ENDBRANCH 39 40
ENDBRANCH 31 39
ENDBRANCH 28 31
ENDBRANCH 25 27
ENDBRANCH 3 25
TORSDOF 16
ENDMDL
MODEL 5
USER: ADFR SOLUTION from run 119
USER: SCORE 14.720987 LL:  -3.044 LR: -13.573 RR:   0.000 FEB:  -8.800
USER: RMSD 9.059815
USER: SEED 118
USER: STATUS no improvement in best in 2 clusters for 5 generations
USER: GENES 18
USER: genes 0 Translation |==|  0.45857 0.43015 0.60081
USER: genes 1 Rotation |==|  0.58431 0.97577 0.62596 0.52582
USER: genes 2 Torsion [N]-C--CA-[N] |==|  0.55605
USER: genes 3 Torsion [C]-CA--N-[C] |==|  0.61916
USER: genes 4 Torsion [N]-C--CA-[N] |==|  0.84571
USER: genes 5 Torsion [C]-CA--CB-[OG] |==|  0.63437
USER: genes 6 Torsion [CA]-CB--OG-[HG] |==|  0.20962
USER: genes 7 Torsion [C]-CA--N-[H1] |==|  0.39502
USER: genes 8 Torsion [C]-CA--CB-[CG] |==|  0.54102
USER: genes 9 Torsion [CA]-CB--CG-[CD1] |==|  0.74939
USER: genes 10 Torsion [C]-N--CA-[CB] |==|  0.26508
USER: genes 11 Torsion [N]-CA--C-[N] |==|  0.10312
USER: genes 12 Torsion [C]-N--CA-[C] |==|  0.77746
USER: genes 13 Torsion [N]-CA--C-[N] |==|  0.48333
USER: genes 14 Torsion [C]-N--CA-[C] |==|  0.21812
USER: genes 15 Torsion [N]-CA--C-[O] |==|  0.04994
USER: genes 16 Torsion [N]-CA--CB-[CG] |==|  0.74485
USER: genes 17 Torsion [CA]-CB--CG-[OD1] |==|  0.18029
ROOT
ATOM      1  C   PHE B   2      -3.160  18.682   6.932  1.00 26.65 LIG 0.24  C 
ATOM      2 O    PHE B   2      -2.249  18.323   7.621  1.00 26.69 LIG-0.27  OA
ATOM      3  N   ALA B   3      -3.131  18.736   5.621  1.00 26.24 LIG-0.35  N 
ATOM      4 H    ALA B   3      -3.761  19.048   5.126  1.00 26.24 LIG 0.16  HD
ENDROOT
BRANCH 1 5
ATOM      5  CA  PHE B   2      -4.458  19.132   7.502  1.00 26.41 LIG 0.18  C 
BRANCH 5 6
ATOM      6  N   PHE B   2      -4.353  19.510   8.873  1.00 26.57 LIG-0.35  N 
ATOM      7  C   SER B   1      -5.289  19.126   9.716  1.00 27.36 LIG 0.25  C 
ATOM      8 O    SER B   1      -6.260  18.490   9.402  1.00 27.79 LIG-0.27  OA
ATOM      9 H    PHE B   2      -3.663  19.981   9.077  1.00 26.57 LIG 0.16  HD
BRANCH 7 10
ATOM     10  CA  SER B   1      -5.158  19.575  11.128  1.00 27.82 LIG 0.30  C 
BRANCH 10 11
ATOM     11  CB  SER B   1      -5.277  21.067  11.315  1.00 27.59 LIG 0.21  C 
BRANCH 11 12
ATOM     12 OG   SER B   1      -4.227  21.552  12.120  1.00 28.50 LIG-0.40  OA
ATOM     13 HG   SER B   1      -3.517  21.576  11.670  1.00 28.50 LIG 0.21  HD
ENDBRANCH 11 12
ENDBRANCH 10 11
BRANCH 10 14
ATOM     14  N   SER B   1      -3.856  19.121  11.531  1.00 28.84 LIG-0.06  N 
ATOM     15 H3   SER B   1      -3.348  18.995  10.811  1.00 28.84 LIG 0.28  HD
ATOM     16 H2   SER B   1      -3.933  18.355  11.977  1.00 28.84 LIG 0.28  HD
ATOM     17 H1   SER B   1      -3.478  19.733  12.056  1.00 28.84 LIG 0.28  HD
ENDBRANCH 10 14
ENDBRANCH 7 10
ENDBRANCH 5 6
BRANCH 5 18
ATOM     18  CB  PHE B   2      -4.980  20.235   6.656  1.00 26.01 LIG 0.07  C 
BRANCH 18 19
ATOM     19  CG  PHE B   2      -6.039  20.968   7.282  1.00 24.17 LIG-0.06  A 
ATOM     20  CD1 PHE B   2      -7.335  20.588   7.106  1.00 21.37 LIG 0.01  A 
ATOM     21  CE1 PHE B   2      -8.263  21.249   7.662  1.00 18.48 LIG 0.00  A 
ATOM     22  CZ  PHE B   2      -7.988  22.280   8.405  1.00 20.70 LIG 0.00  A 
ATOM     23  CE2 PHE B   2      -6.780  22.652   8.649  1.00 22.44 LIG 0.00  A 
ATOM     24  CD2 PHE B   2      -5.775  22.015   8.083  1.00 23.60 LIG 0.01  A 
ENDBRANCH 18 19
ENDBRANCH 5 18
ENDBRANCH 1 5
BRANCH 3 25
ATOM     25  CA  ALA B   3      -1.999  18.256   4.926  1.00 26.83 LIG 0.17  C 
ATOM     26  CB  ALA B   3      -2.220  16.834   4.488  1.00 26.24 LIG 0.04  C 
BRANCH 25 27
ATOM     27  C   ALA B   3      -1.760  19.143   3.729  1.00 26.95 LIG 0.24  C 
ATOM     28  N   ASN B   4      -2.000  20.419   3.924  1.00 27.94 LIG-0.35  N 
ATOM     29 H    ASN B   4      -2.433  20.743   4.593  1.00 27.94 LIG 0.16  HD
ATOM     30 O    ALA B   3      -1.381  18.694   2.719  1.00 26.45 LIG-0.27  OA
BRANCH 28 31
ATOM     31  CA  ASN B   4      -1.522  21.386   2.974  1.00 28.42 LIG 0.18  C 
BRANCH 31 32
ATOM     32  C   ASN B   4      -0.060  21.641   3.249  1.00 28.91 LIG 0.24  C 
ATOM     33 O    ASN B   4       0.492  21.146   4.191  1.00 29.45 LIG-0.27  OA
ATOM     34  N   GLY B   5       0.581  22.408   2.405  1.00 28.92 LIG-0.35  N 
ATOM     35 H    GLY B   5       0.242  22.737   1.686  1.00 28.92 LIG 0.16  HD
BRANCH 34 36
ATOM     36  CA  GLY B   5       1.938  22.752   2.645  1.00 29.35 LIG 0.21  C 
BRANCH 36 37
ATOM     37  C   GLY B   5       2.932  21.703   2.309  1.00 28.99 LIG 0.21  C 
ATOM     38 O    GLY B   5       2.602  20.819   1.589  1.00 30.45 LIG-0.29  OA
ENDBRANCH 36 37
ENDBRANCH 34 36
ENDBRANCH 31 32
BRANCH 31 39
ATOM     39  CB  ASN B   4      -2.311  22.690   3.075  1.00 28.79 LIG 0.14  C 
BRANCH 39 40
ATOM     40  CG  ASN B   4      -3.476  22.726   2.154  1.00 30.59 LIG 0.22  C 
ATOM     41  ND2 ASN B   4      -3.484  23.652   1.216  1.00 33.19 LIG-0.37  N 
ATOM     42 22HD ASN B   4      -2.816  24.188   1.135  1.00 33.19 LIG 0.16  HD
ATOM     43 21HD ASN B   4      -4.157  23.722   0.686  1.00 33.19 LIG 0.16  HD
ATOM     44 OD1  ASN B   4      -4.384  21.959   2.305  1.00 34.60 LIG-0.27  OA
ENDBRANCH 39 40
ENDBRANCH 31 39
ENDBRANCH 28 31
ENDBRANCH 25 27
ENDBRANCH 3 25
TORSDOF 16
ENDMDL
MODEL 6
USER: ADFR SOLUTION from run 182
USER: SCORE 14.175177 LL:  -2.556 LR: -13.359 RR:   0.000 FEB:  -8.587
USER: RMSD 3.627765
USER: SEED 181
USER: STATUS no improvement in best in 13 clusters for 5 generations
USER: GENES 18
USER: genes 0 Translation |==|  0.50040 0.44683 0.48544
USER: genes 1 Rotation |==|  0.12519 0.39774 0.75247 0.68794
USER: genes 2 Torsion [N]-C--CA-[N] |==|  0.87776
USER: genes 3 Torsion [C]-CA--N-[C] |==|  0.21964
USER: genes 4 Torsion [N]-C--CA-[N] |==|  0.55253
USER: genes 5 Torsion [C]-CA--CB-[OG] |==|  0.90467
USER: genes 6 Torsion [CA]-CB--OG-[HG] |==|  0.85182
USER: genes 7 Torsion [C]-CA--N-[H1] |==|  0.74545
USER: genes 8 Torsion [C]-CA--CB-[CG] |==|  0.49794
USER: genes 9 Torsion [CA]-CB--CG-[CD1] |==|  0.88993
USER: genes 10 Torsion [C]-N--CA-[CB] |==|  0.15882
USER: genes 11 Torsion [N]-CA--C-[N] |==|  0.58481
USER: genes 12 Torsion [C]-N--CA-[C] |==|  0.64164
USER: genes 13 Torsion [N]-CA--C-[N] |==|  0.03715
USER: genes 14 Torsion [C]-N--CA-[C] |==|  0.26026
USER: genes 15 Torsion [N]-CA--C-[O] |==|  0.41140
USER: genes 16 Torsion [N]-CA--CB-[CG] |==|  0.54502
USER: genes 17 Torsion [CA]-CB--CG-[OD1] |==|  0.77342
ROOT
ATOM      1  C   PHE B   2      -2.344  18.932   4.249  1.00 26.65 LIG 0.24  C 
ATOM      2 O    PHE B   2      -2.225  17.840   4.724  1.00 26.69 LIG-0.27  OA
ATOM      3  N   ALA B   3      -3.361  19.735   4.463  1.00 26.24 LIG-0.35  N 
ATOM      4 H    ALA B   3      -3.478  20.495   4.078  1.00 26.24 LIG 0.16  HD
ENDROOT
BRANCH 1 5
ATOM      5  CA  PHE B   2      -1.330  19.513   3.329  1.00 26.41 LIG 0.18  C 
BRANCH 5 6
ATOM      6  N   PHE B   2      -1.920  20.146   2.195  1.00 26.57 LIG-0.35  N 
ATOM      7  C   SER B   1      -2.426  21.354   2.329  1.00 27.36 LIG 0.25  C 
ATOM      8 O    SER B   1      -2.452  21.964   3.365  1.00 27.79 LIG-0.27  OA
ATOM      9 H    PHE B   2      -1.911  19.689   1.467  1.00 26.57 LIG 0.16  HD
BRANCH 7 10
ATOM     10  CA  SER B   1      -3.065  21.961   1.130  1.00 27.82 LIG 0.30  C 
BRANCH 10 11
ATOM     11  CB  SER B   1      -2.327  21.705  -0.159  1.00 27.59 LIG 0.21  C 
BRANCH 11 12
ATOM     12 OG   SER B   1      -0.935  21.672   0.064  1.00 28.50 LIG-0.40  OA
ATOM     13 HG   SER B   1      -0.698  22.373   0.462  1.00 28.50 LIG 0.21  HD
ENDBRANCH 11 12
ENDBRANCH 10 11
BRANCH 10 14
ATOM     14  N   SER B   1      -3.102  23.369   1.416  1.00 28.84 LIG-0.06  N 
ATOM     15 H3   SER B   1      -3.026  23.829   0.658  1.00 28.84 LIG 0.28  HD
ATOM     16 H2   SER B   1      -2.429  23.580   1.959  1.00 28.84 LIG 0.28  HD
ATOM     17 H1   SER B   1      -3.874  23.572   1.810  1.00 28.84 LIG 0.28  HD
ENDBRANCH 10 14
ENDBRANCH 7 10
ENDBRANCH 5 6
BRANCH 5 18
ATOM     18  CB  PHE B   2      -0.476  20.445   4.108  1.00 26.01 LIG 0.07  C 
BRANCH 18 19
ATOM     19  CG  PHE B   2       0.554  21.053   3.319  1.00 24.17 LIG-0.06  A 
ATOM     20  CD1 PHE B   2       1.220  20.324   2.380  1.00 21.37 LIG 0.01  A 
ATOM     21  CE1 PHE B   2       2.132  20.874   1.692  1.00 18.48 LIG 0.00  A 
ATOM     22  CZ  PHE B   2       2.430  22.127   1.868  1.00 20.70 LIG 0.00  A 
ATOM     23  CE2 PHE B   2       1.799  22.876   2.703  1.00 22.44 LIG 0.00  A 
ATOM     24  CD2 PHE B   2       0.853  22.355   3.459  1.00 23.60 LIG 0.01  A 
ENDBRANCH 18 19
ENDBRANCH 5 18
ENDBRANCH 1 5
BRANCH 3 25
ATOM     25  CA  ALA B   3      -4.363  19.364   5.386  1.00 26.83 LIG 0.17  C 
ATOM     26  CB  ALA B   3      -3.756  19.108   6.739  1.00 26.24 LIG 0.04  C 
BRANCH 25 27
ATOM     27  C   ALA B   3      -5.376  20.479   5.468  1.00 26.95 LIG 0.24  C 
ATOM     28  N   ASN B   4      -5.970  20.609   6.632  1.00 27.94 LIG-0.35  N 
ATOM     29 H    ASN B   4      -5.956  20.022   7.261  1.00 27.94 LIG 0.16  HD
ATOM     30 O    ALA B   3      -5.587  21.164   4.545  1.00 26.45 LIG-0.27  OA
BRANCH 28 31
ATOM     31  CA  ASN B   4      -6.710  21.805   6.923  1.00 28.42 LIG 0.18  C 
BRANCH 31 32
ATOM     32  C   ASN B   4      -6.240  22.345   8.252  1.00 28.91 LIG 0.24  C 
ATOM     33 O    ASN B   4      -6.866  23.181   8.840  1.00 29.45 LIG-0.27  OA
ATOM     34  N   GLY B   5      -5.134  21.846   8.741  1.00 28.92 LIG-0.35  N 
ATOM     35 H    GLY B   5      -4.684  21.206   8.384  1.00 28.92 LIG 0.16  HD
BRANCH 34 36
ATOM     36  CA  GLY B   5      -4.594  22.363   9.949  1.00 29.35 LIG 0.21  C 
BRANCH 36 37
ATOM     37  C   GLY B   5      -4.996  21.649  11.186  1.00 28.99 LIG 0.21  C 
ATOM     38 O    GLY B   5      -4.227  21.602  12.089  1.00 30.45 LIG-0.29  OA
ENDBRANCH 36 37
ENDBRANCH 34 36
ENDBRANCH 31 32
BRANCH 31 39
ATOM     39  CB  ASN B   4      -8.211  21.522   6.972  1.00 28.79 LIG 0.14  C 
BRANCH 39 40
ATOM     40  CG  ASN B   4      -9.029  22.758   6.885  1.00 30.59 LIG 0.22  C 
ATOM     41  ND2 ASN B   4      -9.488  23.105   5.700  1.00 33.19 LIG-0.37  N 
ATOM     42 22HD ASN B   4      -9.337  22.605   5.017  1.00 33.19 LIG 0.16  HD
ATOM     43 21HD ASN B   4      -9.939  23.831   5.608  1.00 33.19 LIG 0.16  HD
ATOM     44 OD1  ASN B   4      -9.215  23.424   7.865  1.00 34.60 LIG-0.27  OA
ENDBRANCH 39 40
ENDBRANCH 31 39
ENDBRANCH 28 31
ENDBRANCH 25 27
ENDBRANCH 3 25
TORSDOF 16
ENDMDL
MODEL 7
USER: ADFR SOLUTION from run 123
USER: SCORE 15.427155 LL:  -3.041 LR: -13.343 RR:   0.000 FEB:  -8.571
USER: RMSD 5.370255
USER: SEED 122
USER: STATUS no improvement in best in 4 clusters for 5 generations
USER: GENES 18
USER: genes 0 Translation |==|  0.49028 0.64239 0.42334
USER: genes 1 Rotation |==|  0.69075 0.38653 0.31128 0.90635
USER: genes 2 Torsion [N]-C--CA-[N] |==|  0.45314
USER: genes 3 Torsion [C]-CA--N-[C] |==|  0.52222
USER: genes 4 Torsion [N]-C--CA-[N] |==|  0.03610
USER: genes 5 Torsion [C]-CA--CB-[OG] |==|  0.23549
USER: genes 6 Torsion [CA]-CB--OG-[HG] |==|  0.20688
USER: genes 7 Torsion [C]-CA--N-[H1] |==|  0.00570
USER: genes 8 Torsion [C]-CA--CB-[CG] |==|  0.23627
USER: genes 9 Torsion [CA]-CB--CG-[CD1] |==|  0.57711
USER: genes 10 Torsion [C]-N--CA-[CB] |==|  0.22555
USER: genes 11 Torsion [N]-CA--C-[N] |==|  0.11927
USER: genes 12 Torsion [C]-N--CA-[C] |==|  0.79919
USER: genes 13 Torsion [N]-CA--C-[N] |==|  0.95680
USER: genes 14 Torsion [C]-N--CA-[C] |==|  0.15860
USER: genes 15 Torsion [N]-CA--C-[O] |==|  0.42411
USER: genes 16 Torsion [N]-CA--CB-[CG] |==|  0.25559
USER: genes 17 Torsion [CA]-CB--CG-[OD1] |==|  0.20653
ROOT
ATOM      1  C   PHE B   2      -2.542  21.866   2.806  1.00 26.65 LIG 0.24  C 
ATOM      2 O    PHE B   2      -2.614  23.046   2.616  1.00 26.69 LIG-0.27  OA
ATOM      3  N   ALA B   3      -3.567  21.081   3.040  1.00 26.24 LIG-0.35  N 
ATOM      4 H    ALA B   3      -3.514  20.245   3.235  1.00 26.24 LIG 0.16  HD
ENDROOT
BRANCH 1 5
ATOM      5  CA  PHE B   2      -1.243  21.140   2.809  1.00 26.41 LIG 0.18  C 
BRANCH 5 6
ATOM      6  N   PHE B   2      -0.198  21.886   2.190  1.00 26.57 LIG-0.35  N 
ATOM      7  C   SER B   1       0.965  21.305   1.980  1.00 27.36 LIG 0.25  C 
ATOM      8 O    SER B   1       1.222  20.175   2.304  1.00 27.79 LIG-0.27  OA
ATOM      9 H    PHE B   2      -0.391  22.698   1.983  1.00 26.57 LIG 0.16  HD
BRANCH 7 10
ATOM     10  CA  SER B   1       2.039  22.131   1.367  1.00 27.82 LIG 0.30  C 
BRANCH 10 11
ATOM     11  CB  SER B   1       3.378  22.008   2.049  1.00 27.59 LIG 0.21  C 
BRANCH 11 12
ATOM     12 OG   SER B   1       4.085  20.892   1.556  1.00 28.50 LIG-0.40  OA
ATOM     13 HG   SER B   1       4.380  21.064   0.788  1.00 28.50 LIG 0.21  HD
ENDBRANCH 11 12
ENDBRANCH 10 11
BRANCH 10 14
ATOM     14  N   SER B   1       1.552  23.480   1.460  1.00 28.84 LIG-0.06  N 
ATOM     15 H3   SER B   1       1.455  23.818   0.642  1.00 28.84 LIG 0.28  HD
ATOM     16 H2   SER B   1       2.132  23.975   1.918  1.00 28.84 LIG 0.28  HD
ATOM     17 H1   SER B   1       0.766  23.484   1.877  1.00 28.84 LIG 0.28  HD
ENDBRANCH 10 14
ENDBRANCH 7 10
ENDBRANCH 5 6
BRANCH 5 18
ATOM     18  CB  PHE B   2      -0.917  20.779   4.212  1.00 26.01 LIG 0.07  C 
BRANCH 18 19
ATOM     19  CG  PHE B   2      -1.527  19.553   4.631  1.00 24.17 LIG-0.06  A 
ATOM     20  CD1 PHE B   2      -1.822  19.347   5.945  1.00 21.37 LIG 0.01  A 
ATOM     21  CE1 PHE B   2      -2.357  18.254   6.303  1.00 18.48 LIG 0.00  A 
ATOM     22  CZ  PHE B   2      -2.634  17.334   5.427  1.00 20.70 LIG 0.00  A 
ATOM     23  CE2 PHE B   2      -2.426  17.496   4.167  1.00 22.44 LIG 0.00  A 
ATOM     24  CD2 PHE B   2      -1.855  18.604   3.738  1.00 23.60 LIG 0.01  A 
ENDBRANCH 18 19
ENDBRANCH 5 18
ENDBRANCH 1 5
BRANCH 3 25
ATOM     25  CA  ALA B   3      -4.878  21.604   2.979  1.00 26.83 LIG 0.17  C 
ATOM     26  CB  ALA B   3      -5.346  21.672   1.551  1.00 26.24 LIG 0.04  C 
BRANCH 25 27
ATOM     27  C   ALA B   3      -5.788  20.714   3.789  1.00 26.95 LIG 0.24  C 
ATOM     28  N   ASN B   4      -5.300  20.320   4.943  1.00 27.94 LIG-0.35  N 
ATOM     29 H    ASN B   4      -4.474  20.381   5.176  1.00 27.94 LIG 0.16  HD
ATOM     30 O    ALA B   3      -6.847  20.423   3.391  1.00 26.45 LIG-0.27  OA
BRANCH 28 31
ATOM     31  CA  ASN B   4      -6.174  19.737   5.922  1.00 28.42 LIG 0.18  C 
BRANCH 31 32
ATOM     32  C   ASN B   4      -7.039  20.831   6.499  1.00 28.91 LIG 0.24  C 
ATOM     33 O    ASN B   4      -8.019  20.576   7.141  1.00 29.45 LIG-0.27  OA
ATOM     34  N   GLY B   5      -6.663  22.065   6.285  1.00 28.92 LIG-0.35  N 
ATOM     35 H    GLY B   5      -5.939  22.294   5.881  1.00 28.92 LIG 0.16  HD
BRANCH 34 36
ATOM     36  CA  GLY B   5      -7.472  23.144   6.733  1.00 29.35 LIG 0.21  C 
BRANCH 36 37
ATOM     37  C   GLY B   5      -7.770  23.158   8.187  1.00 28.99 LIG 0.21  C 
ATOM     38 O    GLY B   5      -7.987  24.201   8.711  1.00 30.45 LIG-0.29  OA
ENDBRANCH 36 37
ENDBRANCH 34 36
ENDBRANCH 31 32
BRANCH 31 39
ATOM     39  CB  ASN B   4      -5.376  19.057   7.034  1.00 28.79 LIG 0.14  C 
BRANCH 39 40
ATOM     40  CG  ASN B   4      -5.106  19.963   8.180  1.00 30.59 LIG 0.22  C 
ATOM     41  ND2 ASN B   4      -3.872  20.395   8.340  1.00 33.19 LIG-0.37  N 
ATOM     42 22HD ASN B   4      -3.263  20.177   7.773  1.00 33.19 LIG 0.16  HD
ATOM     43 21HD ASN B   4      -3.674  20.895   9.011  1.00 33.19 LIG 0.16  HD
ATOM     44 OD1  ASN B   4      -5.987  20.241   8.944  1.00 34.60 LIG-0.27  OA
ENDBRANCH 39 40
ENDBRANCH 31 39
ENDBRANCH 28 31
ENDBRANCH 25 27
ENDBRANCH 3 25
TORSDOF 16
ENDMDL
MODEL 8
USER: ADFR SOLUTION from run 37
USER: SCORE 14.398995 LL:  -2.202 LR: -13.090 RR:   0.000 FEB:  -8.317
USER: RMSD 10.175281
USER: SEED 36
USER: STATUS no improvement in best in 6 clusters for 5 generations
USER: GENES 18
USER: genes 0 Translation |==|  0.49146 0.58240 0.36337
USER: genes 1 Rotation |==|  0.01347 0.45236 0.45066 0.59265
USER: genes 2 Torsion [N]-C--CA-[N] |==|  0.00121
USER: genes 3 Torsion [C]-CA--N-[C] |==|  0.59454
USER: genes 4 Torsion [N]-C--CA-[N] |==|  0.06717
USER: genes 5 Torsion [C]-CA--CB-[OG] |==|  0.19618
USER: genes 6 Torsion [CA]-CB--OG-[HG] |==|  0.25280
USER: genes 7 Torsion [C]-CA--N-[H1] |==|  0.67368
USER: genes 8 Torsion [C]-CA--CB-[CG] |==|  0.25030
USER: genes 9 Torsion [CA]-CB--CG-[CD1] |==|  0.98804
USER: genes 10 Torsion [C]-N--CA-[CB] |==|  0.19002
USER: genes 11 Torsion [N]-CA--C-[N] |==|  0.10113
USER: genes 12 Torsion [C]-N--CA-[C] |==|  0.79040
USER: genes 13 Torsion [N]-CA--C-[N] |==|  0.36860
USER: genes 14 Torsion [C]-N--CA-[C] |==|  0.24164
USER: genes 15 Torsion [N]-CA--C-[O] |==|  0.41892
USER: genes 16 Torsion [N]-CA--CB-[CG] |==|  0.63101
USER: genes 17 Torsion [CA]-CB--CG-[OD1] |==|  0.86267
ROOT
ATOM      1  C   PHE B   2      -2.518  20.966   1.411  1.00 26.65 LIG 0.24  C 
ATOM      2 O    PHE B   2      -3.492  20.302   1.622  1.00 26.69 LIG-0.27  OA
ATOM      3  N   ALA B   3      -2.460  21.957   0.553  1.00 26.24 LIG-0.35  N 
ATOM      4 H    ALA B   3      -1.748  22.398   0.357  1.00 26.24 LIG 0.16  HD
ENDROOT
BRANCH 1 5
ATOM      5  CA  PHE B   2      -1.227  20.726   2.109  1.00 26.41 LIG 0.18  C 
BRANCH 5 6
ATOM      6  N   PHE B   2      -0.207  21.635   1.700  1.00 26.57 LIG-0.35  N 
ATOM      7  C   SER B   1       1.040  21.215   1.649  1.00 27.36 LIG 0.25  C 
ATOM      8 O    SER B   1       1.391  20.106   1.954  1.00 27.79 LIG-0.27  OA
ATOM      9 H    PHE B   2      -0.472  22.429   1.504  1.00 26.57 LIG 0.16  HD
BRANCH 7 10
ATOM     10  CA  SER B   1       2.076  22.206   1.254  1.00 27.82 LIG 0.30  C 
BRANCH 10 11
ATOM     11  CB  SER B   1       3.400  22.027   1.953  1.00 27.59 LIG 0.21  C 
BRANCH 11 12
ATOM     12 OG   SER B   1       4.053  20.866   1.491  1.00 28.50 LIG-0.40  OA
ATOM     13 HG   SER B   1       4.550  21.063   0.842  1.00 28.50 LIG 0.21  HD
ENDBRANCH 11 12
ENDBRANCH 10 11
BRANCH 10 14
ATOM     14  N   SER B   1       1.501  23.480   1.587  1.00 28.84 LIG-0.06  N 
ATOM     15 H3   SER B   1       2.039  23.910   2.151  1.00 28.84 LIG 0.28  HD
ATOM     16 H2   SER B   1       0.707  23.357   1.970  1.00 28.84 LIG 0.28  HD
ATOM     17 H1   SER B   1       1.401  23.963   0.846  1.00 28.84 LIG 0.28  HD
ENDBRANCH 10 14
ENDBRANCH 7 10
ENDBRANCH 5 6
BRANCH 5 18
ATOM     18  CB  PHE B   2      -1.472  20.784   3.573  1.00 26.01 LIG 0.07  C 
BRANCH 18 19
ATOM     19  CG  PHE B   2      -1.808  19.510   4.135  1.00 24.17 LIG-0.06  A 
ATOM     20  CD1 PHE B   2      -1.961  18.423   3.329  1.00 21.37 LIG 0.01  A 
ATOM     21  CE1 PHE B   2      -2.263  17.302   3.839  1.00 18.48 LIG 0.00  A 
ATOM     22  CZ  PHE B   2      -2.420  17.181   5.124  1.00 20.70 LIG 0.00  A 
ATOM     23  CE2 PHE B   2      -2.237  18.162   5.938  1.00 22.44 LIG 0.00  A 
ATOM     24  CD2 PHE B   2      -1.939  19.355   5.463  1.00 23.60 LIG 0.01  A 
ENDBRANCH 18 19
ENDBRANCH 5 18
ENDBRANCH 1 5
BRANCH 3 25
ATOM     25  CA  ALA B   3      -3.630  22.367  -0.123  1.00 26.83 LIG 0.17  C 
ATOM     26  CB  ALA B   3      -4.593  23.004   0.841  1.00 26.24 LIG 0.04  C 
BRANCH 25 27
ATOM     27  C   ALA B   3      -3.242  23.348  -1.202  1.00 26.95 LIG 0.24  C 
ATOM     28  N   ASN B   4      -2.102  23.094  -1.803  1.00 27.94 LIG-0.35  N 
ATOM     29 H    ASN B   4      -1.506  22.542  -1.517  1.00 27.94 LIG 0.16  HD
ATOM     30 O    ALA B   3      -3.933  24.254  -1.463  1.00 26.45 LIG-0.27  OA
BRANCH 28 31
ATOM     31  CA  ASN B   4      -1.782  23.764  -3.033  1.00 28.42 LIG 0.18  C 
BRANCH 31 32
ATOM     32  C   ASN B   4      -2.594  23.139  -4.140  1.00 28.91 LIG 0.24  C 
ATOM     33 O    ASN B   4      -2.680  21.949  -4.255  1.00 29.45 LIG-0.27  OA
ATOM     34  N   GLY B   5      -3.217  23.951  -4.955  1.00 28.92 LIG-0.35  N 
ATOM     35 H    GLY B   5      -3.232  24.808  -4.877  1.00 28.92 LIG 0.16  HD
BRANCH 34 36
ATOM     36  CA  GLY B   5      -3.936  23.433  -6.065  1.00 29.35 LIG 0.21  C 
BRANCH 36 37
ATOM     37  C   GLY B   5      -5.343  23.047  -5.791  1.00 28.99 LIG 0.21  C 
ATOM     38 O    GLY B   5      -6.132  23.115  -6.676  1.00 30.45 LIG-0.29  OA
ENDBRANCH 36 37
ENDBRANCH 34 36
ENDBRANCH 31 32
BRANCH 31 39
ATOM     39  CB  ASN B   4      -0.291  23.650  -3.346  1.00 28.79 LIG 0.14  C 
BRANCH 39 40
ATOM     40  CG  ASN B   4       0.311  24.950  -3.737  1.00 30.59 LIG 0.22  C 
ATOM     41  ND2 ASN B   4       1.398  25.336  -3.100  1.00 33.19 LIG-0.37  N 
ATOM     42 22HD ASN B   4       1.751  24.827  -2.504  1.00 33.19 LIG 0.16  HD
ATOM     43 21HD ASN B   4       1.755  26.098  -3.279  1.00 33.19 LIG 0.16  HD
ATOM     44 OD1  ASN B   4      -0.215  25.627  -4.575  1.00 34.60 LIG-0.27  OA
ENDBRANCH 39 40
ENDBRANCH 31 39
ENDBRANCH 28 31
ENDBRANCH 25 27
ENDBRANCH 3 25
TORSDOF 16
ENDMDL
MODEL 9
USER: ADFR SOLUTION from run 24
USER: SCORE 14.091493 LL:  -2.333 LR: -13.048 RR:   0.000 FEB:  -8.275
USER: RMSD 3.774520
USER: SEED 23
USER: STATUS no improvement in best in 15 clusters for 5 generations
USER: GENES 18
USER: genes 0 Translation |==|  0.53260 0.53961 0.45335
USER: genes 1 Rotation |==|  0.76210 0.81057 0.20913 0.51571
USER: genes 2 Torsion [N]-C--CA-[N] |==|  0.56497
USER: genes 3 Torsion [C]-CA--N-[C] |==|  0.16164
USER: genes 4 Torsion [N]-C--CA-[N] |==|  0.95279
USER: genes 5 Torsion [C]-CA--CB-[OG] |==|  0.46697
USER: genes 6 Torsion [CA]-CB--OG-[HG] |==|  0.78681
USER: genes 7 Torsion [C]-CA--N-[H1] |==|  0.36262
USER: genes 8 Torsion [C]-CA--CB-[CG] |==|  0.44150
USER: genes 9 Torsion [CA]-CB--CG-[CD1] |==|  0.42995
USER: genes 10 Torsion [C]-N--CA-[CB] |==|  0.82766
USER: genes 11 Torsion [N]-CA--C-[N] |==|  0.24596
USER: genes 12 Torsion [C]-N--CA-[C] |==|  0.82779
USER: genes 13 Torsion [N]-CA--C-[N] |==|  0.36554
USER: genes 14 Torsion [C]-N--CA-[C] |==|  0.48505
USER: genes 15 Torsion [N]-CA--C-[O] |==|  0.01074
USER: genes 16 Torsion [N]-CA--CB-[CG] |==|  0.64879
USER: genes 17 Torsion [CA]-CB--CG-[OD1] |==|  0.29295
ROOT
ATOM      1  C   PHE B   2      -1.716  20.324   3.503  1.00 26.65 LIG 0.24  C 
ATOM      2 O    PHE B   2      -0.714  20.096   4.117  1.00 26.69 LIG-0.27  OA
ATOM      3  N   ALA B   3      -2.799  19.583   3.536  1.00 26.24 LIG-0.35  N 
ATOM      4 H    ALA B   3      -3.499  19.711   3.052  1.00 26.24 LIG 0.16  HD
ENDROOT
BRANCH 1 5
ATOM      5  CA  PHE B   2      -1.845  21.500   2.602  1.00 26.41 LIG 0.18  C 
BRANCH 5 6
ATOM      6  N   PHE B   2      -0.583  21.984   2.150  1.00 26.57 LIG-0.35  N 
ATOM      7  C   SER B   1       0.217  21.170   1.493  1.00 27.36 LIG 0.25  C 
ATOM      8 O    SER B   1      -0.035  20.016   1.266  1.00 27.79 LIG-0.27  OA
ATOM      9 H    PHE B   2      -0.410  22.806   2.338  1.00 26.57 LIG 0.16  HD
BRANCH 7 10
ATOM     10  CA  SER B   1       1.539  21.706   1.074  1.00 27.82 LIG 0.30  C 
BRANCH 10 11
ATOM     11  CB  SER B   1       2.694  21.230   1.920  1.00 27.59 LIG 0.21  C 
BRANCH 11 12
ATOM     12 OG   SER B   1       3.923  21.553   1.309  1.00 28.50 LIG-0.40  OA
ATOM     13 HG   SER B   1       4.071  21.018   0.678  1.00 28.50 LIG 0.21  HD
ENDBRANCH 11 12
ENDBRANCH 10 11
BRANCH 10 14
ATOM     14  N   SER B   1       1.398  23.132   1.175  1.00 28.84 LIG-0.06  N 
ATOM     15 H3   SER B   1       0.639  23.327   1.596  1.00 28.84 LIG 0.28  HD
ATOM     16 H2   SER B   1       1.384  23.488   0.359  1.00 28.84 LIG 0.28  HD
ATOM     17 H1   SER B   1       2.085  23.467   1.632  1.00 28.84 LIG 0.28  HD
ENDBRANCH 10 14
ENDBRANCH 7 10
ENDBRANCH 5 6
BRANCH 5 18
ATOM     18  CB  PHE B   2      -2.736  21.125   1.474  1.00 26.01 LIG 0.07  C 
BRANCH 18 19
ATOM     19  CG  PHE B   2      -3.317  22.257   0.818  1.00 24.17 LIG-0.06  A 
ATOM     20  CD1 PHE B   2      -3.716  22.168  -0.481  1.00 21.37 LIG 0.01  A 
ATOM     21  CE1 PHE B   2      -4.225  23.180  -1.051  1.00 18.48 LIG 0.00  A 
ATOM     22  CZ  PHE B   2      -4.377  24.298  -0.404  1.00 20.70 LIG 0.00  A 
ATOM     23  CE2 PHE B   2      -4.067  24.423   0.839  1.00 22.44 LIG 0.00  A 
ATOM     24  CD2 PHE B   2      -3.517  23.410   1.479  1.00 23.60 LIG 0.01  A 
ENDBRANCH 18 19
ENDBRANCH 5 18
ENDBRANCH 1 5
BRANCH 3 25
ATOM     25  CA  ALA B   3      -2.866  18.480   4.415  1.00 26.83 LIG 0.17  C 
ATOM     26  CB  ALA B   3      -1.802  17.473   4.070  1.00 26.24 LIG 0.04  C 
BRANCH 25 27
ATOM     27  C   ALA B   3      -2.677  18.979   5.826  1.00 26.95 LIG 0.24  C 
ATOM     28  N   ASN B   4      -3.779  19.345   6.440  1.00 27.94 LIG-0.35  N 
ATOM     29 H    ASN B   4      -4.536  19.484   6.054  1.00 27.94 LIG 0.16  HD
ATOM     30 O    ALA B   3      -1.614  19.018   6.310  1.00 26.45 LIG-0.27  OA
BRANCH 28 31
ATOM     31  CA  ASN B   4      -3.769  19.541   7.863  1.00 28.42 LIG 0.18  C 
BRANCH 31 32
ATOM     32  C   ASN B   4      -3.423  18.228   8.521  1.00 28.91 LIG 0.24  C 
ATOM     33 O    ASN B   4      -3.963  17.208   8.199  1.00 29.45 LIG-0.27  OA
ATOM     34  N   GLY B   5      -2.494  18.249   9.442  1.00 28.92 LIG-0.35  N 
ATOM     35 H    GLY B   5      -2.039  18.945   9.665  1.00 28.92 LIG 0.16  HD
BRANCH 34 36
ATOM     36  CA  GLY B   5      -2.173  17.064  10.157  1.00 29.35 LIG 0.21  C 
BRANCH 36 37
ATOM     37  C   GLY B   5      -1.022  17.171  11.088  1.00 28.99 LIG 0.21  C 
ATOM     38 O    GLY B   5      -0.502  18.230  11.226  1.00 30.45 LIG-0.29  OA
ENDBRANCH 36 37
ENDBRANCH 34 36
ENDBRANCH 31 32
BRANCH 31 39
ATOM     39  CB  ASN B   4      -5.128  20.035   8.358  1.00 28.79 LIG 0.14  C 
BRANCH 39 40
ATOM     40  CG  ASN B   4      -5.025  21.281   9.160  1.00 30.59 LIG 0.22  C 
ATOM     41  ND2 ASN B   4      -4.602  21.174  10.403  1.00 33.19 LIG-0.37  N 
ATOM     42 22HD ASN B   4      -4.367  20.407  10.713  1.00 33.19 LIG 0.16  HD
ATOM     43 21HD ASN B   4      -4.561  21.870  10.905  1.00 33.19 LIG 0.16  HD
ATOM     44 OD1  ASN B   4      -5.364  22.328   8.686  1.00 34.60 LIG-0.27  OA
ENDBRANCH 39 40
ENDBRANCH 31 39
ENDBRANCH 28 31
ENDBRANCH 25 27
ENDBRANCH 3 25
TORSDOF 16
ENDMDL
MODEL 10
USER: ADFR SOLUTION from run 107
USER: SCORE 13.884310 LL:  -2.576 LR: -13.029 RR:   0.000 FEB:  -8.256
USER: RMSD 4.434552
USER: SEED 106
USER: STATUS no improvement in best in 5 clusters for 5 generations
USER: GENES 18
USER: genes 0 Translation |==|  0.50989 0.45840 0.50465
USER: genes 1 Rotation |==|  0.20669 0.37240 0.79596 0.74514
USER: genes 2 Torsion [N]-C--CA-[N] |==|  0.93521
USER: genes 3 Torsion [C]-CA--N-[C] |==|  0.67586
USER: genes 4 Torsion [N]-C--CA-[N] |==|  0.16523
USER: genes 5 Torsion [C]-CA--CB-[OG] |==|  0.66118
USER: genes 6 Torsion [CA]-CB--OG-[HG] |==|  0.19955
USER: genes 7 Torsion [C]-CA--N-[H1] |==|  0.07118
USER: genes 8 Torsion [C]-CA--CB-[CG] |==|  0.45368
USER: genes 9 Torsion [CA]-CB--CG-[CD1] |==|  0.31993
USER: genes 10 Torsion [C]-N--CA-[CB] |==|  0.15193
USER: genes 11 Torsion [N]-CA--C-[N] |==|  0.62397
USER: genes 12 Torsion [C]-N--CA-[C] |==|  0.15257
USER: genes 13 Torsion [N]-CA--C-[N] |==|  0.69146
USER: genes 14 Torsion [C]-N--CA-[C] |==|  0.50362
USER: genes 15 Torsion [N]-CA--C-[O] |==|  0.05166
USER: genes 16 Torsion [N]-CA--CB-[CG] |==|  0.61339
USER: genes 17 Torsion [CA]-CB--CG-[OD1] |==|  0.03591
ROOT
ATOM      1  C   PHE B   2      -2.159  19.106   4.696  1.00 26.65 LIG 0.24  C 
ATOM      2 O    PHE B   2      -1.851  17.950   4.748  1.00 26.69 LIG-0.27  OA
ATOM      3  N   ALA B   3      -3.093  19.666   5.430  1.00 26.24 LIG-0.35  N 
ATOM      4 H    ALA B   3      -3.356  20.481   5.354  1.00 26.24 LIG 0.16  HD
ENDROOT
BRANCH 1 5
ATOM      5  CA  PHE B   2      -1.507  20.061   3.760  1.00 26.41 LIG 0.18  C 
BRANCH 5 6
ATOM      6  N   PHE B   2      -2.332  21.185   3.463  1.00 26.57 LIG-0.35  N 
ATOM      7  C   SER B   1      -2.736  21.372   2.224  1.00 27.36 LIG 0.25  C 
ATOM      8 O    SER B   1      -2.432  20.664   1.301  1.00 27.79 LIG-0.27  OA
ATOM      9 H    PHE B   2      -2.524  21.693   4.130  1.00 26.57 LIG 0.16  HD
BRANCH 7 10
ATOM     10  CA  SER B   1      -3.563  22.578   1.952  1.00 27.82 LIG 0.30  C 
BRANCH 10 11
ATOM     11  CB  SER B   1      -3.992  22.722   0.513  1.00 27.59 LIG 0.21  C 
BRANCH 11 12
ATOM     12 OG   SER B   1      -3.542  23.947  -0.020  1.00 28.50 LIG-0.40  OA
ATOM     13 HG   SER B   1      -2.710  23.914  -0.132  1.00 28.50 LIG 0.21  HD
ENDBRANCH 11 12
ENDBRANCH 10 11
BRANCH 10 14
ATOM     14  N   SER B   1      -2.727  23.682   2.338  1.00 28.84 LIG-0.06  N 
ATOM     15 H3   SER B   1      -2.910  23.914   3.178  1.00 28.84 LIG 0.28  HD
ATOM     16 H2   SER B   1      -2.880  24.374   1.799  1.00 28.84 LIG 0.28  HD
ATOM     17 H1   SER B   1      -1.872  23.442   2.276  1.00 28.84 LIG 0.28  HD
ENDBRANCH 10 14
ENDBRANCH 7 10
ENDBRANCH 5 6
BRANCH 5 18
ATOM     18  CB  PHE B   2      -0.202  20.463   4.341  1.00 26.01 LIG 0.07  C 
BRANCH 18 19
ATOM     19  CG  PHE B   2       0.676  21.067   3.384  1.00 24.17 LIG-0.06  A 
ATOM     20  CD1 PHE B   2       1.044  22.372   3.517  1.00 21.37 LIG 0.01  A 
ATOM     21  CE1 PHE B   2       1.817  22.895   2.659  1.00 18.48 LIG 0.00  A 
ATOM     22  CZ  PHE B   2       2.269  22.195   1.661  1.00 20.70 LIG 0.00  A 
ATOM     23  CE2 PHE B   2       1.997  20.945   1.515  1.00 22.44 LIG 0.00  A 
ATOM     24  CD2 PHE B   2       1.183  20.352   2.365  1.00 23.60 LIG 0.01  A 
ENDBRANCH 18 19
ENDBRANCH 5 18
ENDBRANCH 1 5
BRANCH 3 25
ATOM     25  CA  ALA B   3      -3.742  18.911   6.432  1.00 26.83 LIG 0.17  C 
ATOM     26  CB  ALA B   3      -2.730  18.312   7.370  1.00 26.24 LIG 0.04  C 
BRANCH 25 27
ATOM     27  C   ALA B   3      -4.682  19.820   7.184  1.00 26.95 LIG 0.24  C 
ATOM     28  N   ASN B   4      -4.651  19.696   8.491  1.00 27.94 LIG-0.35  N 
ATOM     29 H    ASN B   4      -4.287  19.042   8.915  1.00 27.94 LIG 0.16  HD
ATOM     30 O    ALA B   3      -5.368  20.574   6.613  1.00 26.45 LIG-0.27  OA
BRANCH 28 31
ATOM     31  CA  ASN B   4      -5.260  20.703   9.315  1.00 28.42 LIG 0.18  C 
BRANCH 31 32
ATOM     32  C   ASN B   4      -6.697  20.867   8.882  1.00 28.91 LIG 0.24  C 
ATOM     33 O    ASN B   4      -7.511  20.012   9.088  1.00 29.45 LIG-0.27  OA
ATOM     34  N   GLY B   5      -7.018  21.991   8.294  1.00 28.92 LIG-0.35  N 
ATOM     35 H    GLY B   5      -6.482  22.654   8.177  1.00 28.92 LIG 0.16  HD
BRANCH 34 36
ATOM     36  CA  GLY B   5      -8.333  22.181   7.792  1.00 29.35 LIG 0.21  C 
BRANCH 36 37
ATOM     37  C   GLY B   5      -8.577  23.480   7.117  1.00 28.99 LIG 0.21  C 
ATOM     38 O    GLY B   5      -7.642  24.108   6.741  1.00 30.45 LIG-0.29  OA
ENDBRANCH 36 37
ENDBRANCH 34 36
ENDBRANCH 31 32
BRANCH 31 39
ATOM     39  CB  ASN B   4      -4.519  22.033   9.193  1.00 28.79 LIG 0.14  C 
BRANCH 39 40
ATOM     40  CG  ASN B   4      -4.372  22.728  10.497  1.00 30.59 LIG 0.22  C 
ATOM     41  ND2 ASN B   4      -3.941  23.973  10.481  1.00 33.19 LIG-0.37  N 
ATOM     42 22HD ASN B   4      -3.786  24.364   9.732  1.00 33.19 LIG 0.16  HD
ATOM     43 21HD ASN B   4      -3.815  24.394  11.220  1.00 33.19 LIG 0.16  HD
ATOM     44 OD1  ASN B   4      -4.602  22.142  11.518  1.00 34.60 LIG-0.27  OA
ENDBRANCH 39 40
ENDBRANCH 31 39
ENDBRANCH 28 31
ENDBRANCH 25 27
ENDBRANCH 3 25
TORSDOF 16
ENDMDL
MODEL 11
USER: ADFR SOLUTION from run 34
USER: SCORE 13.750530 LL:  -3.151 LR: -12.885 RR:   0.000 FEB:  -8.113
USER: RMSD 9.394856
USER: SEED 33
USER: STATUS no improvement in best in 9 clusters for 5 generations
USER: GENES 18
USER: genes 0 Translation |==|  0.45354 0.42494 0.61027
USER: genes 1 Rotation |==|  0.59301 0.97358 0.62828 0.52473
USER: genes 2 Torsion [N]-C--CA-[N] |==|  0.55478
USER: genes 3 Torsion [C]-CA--N-[C] |==|  0.67204
USER: genes 4 Torsion [N]-C--CA-[N] |==|  0.82979
USER: genes 5 Torsion [C]-CA--CB-[OG] |==|  0.68344
USER: genes 6 Torsion [CA]-CB--OG-[HG] |==|  0.20821
USER: genes 7 Torsion [C]-CA--N-[H1] |==|  0.68897
USER: genes 8 Torsion [C]-CA--CB-[CG] |==|  0.54415
USER: genes 9 Torsion [CA]-CB--CG-[CD1] |==|  0.75169
USER: genes 10 Torsion [C]-N--CA-[CB] |==|  0.26649
USER: genes 11 Torsion [N]-CA--C-[N] |==|  0.32346
USER: genes 12 Torsion [C]-N--CA-[C] |==|  0.80350
USER: genes 13 Torsion [N]-CA--C-[N] |==|  0.95004
USER: genes 14 Torsion [C]-N--CA-[C] |==|  0.47490
USER: genes 15 Torsion [N]-CA--C-[O] |==|  0.02414
USER: genes 16 Torsion [N]-CA--CB-[CG] |==|  0.45903
USER: genes 17 Torsion [CA]-CB--CG-[OD1] |==|  0.74645
ROOT
ATOM      1  C   PHE B   2      -3.258  18.604   7.152  1.00 26.65 LIG 0.24  C 
ATOM      2 O    PHE B   2      -2.352  18.206   7.826  1.00 26.69 LIG-0.27  OA
ATOM      3  N   ALA B   3      -3.241  18.675   5.841  1.00 26.24 LIG-0.35  N 
ATOM      4 H    ALA B   3      -3.866  19.014   5.358  1.00 26.24 LIG 0.16  HD
ENDROOT
BRANCH 1 5
ATOM      5  CA  PHE B   2      -4.535  19.088   7.742  1.00 26.41 LIG 0.18  C 
BRANCH 5 6
ATOM      6  N   PHE B   2      -4.404  19.434   9.119  1.00 26.57 LIG-0.35  N 
ATOM      7  C   SER B   1      -5.110  18.773  10.014  1.00 27.36 LIG 0.25  C 
ATOM      8 O    SER B   1      -5.892  17.900   9.745  1.00 27.79 LIG-0.27  OA
ATOM      9 H    PHE B   2      -3.856  20.073   9.293  1.00 26.57 LIG 0.16  HD
BRANCH 7 10
ATOM     10  CA  SER B   1      -4.972  19.193  11.434  1.00 27.82 LIG 0.30  C 
BRANCH 10 11
ATOM     11  CB  SER B   1      -5.354  20.628  11.694  1.00 27.59 LIG 0.21  C 
BRANCH 11 12
ATOM     12 OG   SER B   1      -4.227  21.378  12.088  1.00 28.50 LIG-0.40  OA
ATOM     13 HG   SER B   1      -3.743  21.530  11.418  1.00 28.50 LIG 0.21  HD
ENDBRANCH 11 12
ENDBRANCH 10 11
BRANCH 10 14
ATOM     14  N   SER B   1      -3.583  18.980  11.739  1.00 28.84 LIG-0.06  N 
ATOM     15 H3   SER B   1      -3.238  19.723  12.088  1.00 28.84 LIG 0.28  HD
ATOM     16 H2   SER B   1      -3.144  18.771  10.994  1.00 28.84 LIG 0.28  HD
ATOM     17 H1   SER B   1      -3.507  18.314  12.324  1.00 28.84 LIG 0.28  HD
ENDBRANCH 10 14
ENDBRANCH 7 10
ENDBRANCH 5 6
BRANCH 5 18
ATOM     18  CB  PHE B   2      -5.022  20.227   6.924  1.00 26.01 LIG 0.07  C 
BRANCH 18 19
ATOM     19  CG  PHE B   2      -6.031  21.000   7.584  1.00 24.17 LIG-0.06  A 
ATOM     20  CD1 PHE B   2      -7.346  20.673   7.447  1.00 21.37 LIG 0.01  A 
ATOM     21  CE1 PHE B   2      -8.229  21.369   8.033  1.00 18.48 LIG 0.00  A 
ATOM     22  CZ  PHE B   2      -7.890  22.385   8.770  1.00 20.70 LIG 0.00  A 
ATOM     23  CE2 PHE B   2      -6.661  22.708   8.977  1.00 22.44 LIG 0.00  A 
ATOM     24  CD2 PHE B   2      -5.700  22.032   8.379  1.00 23.60 LIG 0.01  A 
ENDBRANCH 18 19
ENDBRANCH 5 18
ENDBRANCH 1 5
BRANCH 3 25
ATOM     25  CA  ALA B   3      -2.133  18.168   5.127  1.00 26.83 LIG 0.17  C 
ATOM     26  CB  ALA B   3      -2.411  16.764   4.662  1.00 26.24 LIG 0.04  C 
BRANCH 25 27
ATOM     27  C   ALA B   3      -1.870  19.070   3.947  1.00 26.95 LIG 0.24  C 
ATOM     28  N   ASN B   4      -0.710  19.686   3.964  1.00 27.94 LIG-0.35  N 
ATOM     29 H    ASN B   4      -0.196  19.751   4.651  1.00 27.94 LIG 0.16  HD
ATOM     30 O    ALA B   3      -2.659  19.182   3.092  1.00 26.45 LIG-0.27  OA
BRANCH 28 31
ATOM     31  CA  ASN B   4      -0.222  20.316   2.769  1.00 28.42 LIG 0.18  C 
BRANCH 31 32
ATOM     32  C   ASN B   4       0.168  19.238   1.788  1.00 28.91 LIG 0.24  C 
ATOM     33 O    ASN B   4       0.319  19.481   0.624  1.00 29.45 LIG-0.27  OA
ATOM     34  N   GLY B   5       0.354  18.035   2.266  1.00 28.92 LIG-0.35  N 
ATOM     35 H    GLY B   5       0.314  17.827   3.100  1.00 28.92 LIG 0.16  HD
BRANCH 34 36
ATOM     36  CA  GLY B   5       0.647  16.957   1.388  1.00 29.35 LIG 0.21  C 
BRANCH 36 37
ATOM     37  C   GLY B   5       1.044  15.687   2.045  1.00 28.99 LIG 0.21  C 
ATOM     38 O    GLY B   5       0.941  15.604   3.225  1.00 30.45 LIG-0.29  OA
ENDBRANCH 36 37
ENDBRANCH 34 36
ENDBRANCH 31 32
BRANCH 31 39
ATOM     39  CB  ASN B   4       0.979  21.211   3.072  1.00 28.79 LIG 0.14  C 
BRANCH 39 40
ATOM     40  CG  ASN B   4       1.725  21.601   1.849  1.00 30.59 LIG 0.22  C 
ATOM     41  ND2 ASN B   4       1.309  22.665   1.193  1.00 33.19 LIG-0.37  N 
ATOM     42 22HD ASN B   4       0.648  23.125   1.494  1.00 33.19 LIG 0.16  HD
ATOM     43 21HD ASN B   4       1.699  22.900   0.463  1.00 33.19 LIG 0.16  HD
ATOM     44 OD1  ASN B   4       2.642  20.929   1.467  1.00 34.60 LIG-0.27  OA
ENDBRANCH 39 40
ENDBRANCH 31 39
ENDBRANCH 28 31
ENDBRANCH 25 27
ENDBRANCH 3 25
TORSDOF 16
ENDMDL
MODEL 12
USER: ADFR SOLUTION from run 36
USER: SCORE 14.070859 LL:  -2.458 LR: -12.894 RR:   0.000 FEB:  -8.121
USER: RMSD 10.376989
USER: SEED 35
USER: STATUS no improvement in best in 6 clusters for 5 generations
USER: GENES 18
USER: genes 0 Translation |==|  0.65328 0.60017 0.40003
USER: genes 1 Rotation |==|  0.56403 0.83581 0.86374 0.52861
USER: genes 2 Torsion [N]-C--CA-[N] |==|  0.05955
USER: genes 3 Torsion [C]-CA--N-[C] |==|  0.55556
USER: genes 4 Torsion [N]-C--CA-[N] |==|  0.81260
USER: genes 5 Torsion [C]-CA--CB-[OG] |==|  0.72020
USER: genes 6 Torsion [CA]-CB--OG-[HG] |==|  0.06445
USER: genes 7 Torsion [C]-CA--N-[H1] |==|  0.36860
USER: genes 8 Torsion [C]-CA--CB-[CG] |==|  0.33267
USER: genes 9 Torsion [CA]-CB--CG-[CD1] |==|  0.50084
USER: genes 10 Torsion [C]-N--CA-[CB] |==|  0.81880
USER: genes 11 Torsion [N]-CA--C-[N] |==|  0.22004
USER: genes 12 Torsion [C]-N--CA-[C] |==|  0.62596
USER: genes 13 Torsion [N]-CA--C-[N] |==|  0.41245
USER: genes 14 Torsion [C]-N--CA-[C] |==|  0.23059
USER: genes 15 Torsion [N]-CA--C-[O] |==|  0.48962
USER: genes 16 Torsion [N]-CA--CB-[CG] |==|  0.34468
USER: genes 17 Torsion [CA]-CB--CG-[OD1] |==|  0.76241
ROOT
ATOM      1  C   PHE B   2       0.637  21.233   2.264  1.00 26.65 LIG 0.24  C 
ATOM      2 O    PHE B   2       1.457  20.377   2.432  1.00 26.69 LIG-0.27  OA
ATOM      3  N   ALA B   3       0.883  22.414   1.747  1.00 26.24 LIG-0.35  N 
ATOM      4 H    ALA B   3       0.309  23.051   1.678  1.00 26.24 LIG 0.16  HD
ENDROOT
BRANCH 1 5
ATOM      5  CA  PHE B   2      -0.790  21.052   2.644  1.00 26.41 LIG 0.18  C 
BRANCH 5 6
ATOM      6  N   PHE B   2      -1.658  21.947   1.953  1.00 26.57 LIG-0.35  N 
ATOM      7  C   SER B   1      -2.854  22.188   2.449  1.00 27.36 LIG 0.25  C 
ATOM      8 O    SER B   1      -3.285  21.676   3.448  1.00 27.79 LIG-0.27  OA
ATOM      9 H    PHE B   2      -1.342  22.289   1.230  1.00 26.57 LIG 0.16  HD
BRANCH 7 10
ATOM     10  CA  SER B   1      -3.740  23.098   1.675  1.00 27.82 LIG 0.30  C 
BRANCH 10 11
ATOM     11  CB  SER B   1      -3.925  22.701   0.232  1.00 27.59 LIG 0.21  C 
BRANCH 11 12
ATOM     12 OG   SER B   1      -3.106  23.485  -0.606  1.00 28.50 LIG-0.40  OA
ATOM     13 HG   SER B   1      -2.460  23.788  -0.163  1.00 28.50 LIG 0.21  HD
ENDBRANCH 11 12
ENDBRANCH 10 11
BRANCH 10 14
ATOM     14  N   SER B   1      -3.104  24.383   1.765  1.00 28.84 LIG-0.06  N 
ATOM     15 H3   SER B   1      -2.278  24.285   2.083  1.00 28.84 LIG 0.28  HD
ATOM     16 H2   SER B   1      -3.570  24.909   2.310  1.00 28.84 LIG 0.28  HD
ATOM     17 H1   SER B   1      -3.067  24.753   0.956  1.00 28.84 LIG 0.28  HD
ENDBRANCH 10 14
ENDBRANCH 7 10
ENDBRANCH 5 6
BRANCH 5 18
ATOM     18  CB  PHE B   2      -1.154  19.631   2.414  1.00 26.01 LIG 0.07  C 
BRANCH 18 19
ATOM     19  CG  PHE B   2      -1.582  18.963   3.607  1.00 24.17 LIG-0.06  A 
ATOM     20  CD1 PHE B   2      -1.946  17.650   3.566  1.00 21.37 LIG 0.01  A 
ATOM     21  CE1 PHE B   2      -2.328  17.073   4.628  1.00 18.48 LIG 0.00  A 
ATOM     22  CZ  PHE B   2      -2.366  17.718   5.756  1.00 20.70 LIG 0.00  A 
ATOM     23  CE2 PHE B   2      -1.985  18.943   5.863  1.00 22.44 LIG 0.00  A 
ATOM     24  CD2 PHE B   2      -1.595  19.601   4.789  1.00 23.60 LIG 0.01  A 
ENDBRANCH 18 19
ENDBRANCH 5 18
ENDBRANCH 1 5
BRANCH 3 25
ATOM     25  CA  ALA B   3       2.173  22.706   1.252  1.00 26.83 LIG 0.17  C 
ATOM     26  CB  ALA B   3       3.174  22.706   2.375  1.00 26.24 LIG 0.04  C 
BRANCH 25 27
ATOM     27  C   ALA B   3       2.539  21.667   0.222  1.00 26.95 LIG 0.24  C 
ATOM     28  N   ASN B   4       2.006  21.846  -0.965  1.00 27.94 LIG-0.35  N 
ATOM     29 H    ASN B   4       1.355  22.382  -1.138  1.00 27.94 LIG 0.16  HD
ATOM     30 O    ALA B   3       3.253  20.783   0.492  1.00 26.45 LIG-0.27  OA
BRANCH 28 31
ATOM     31  CA  ASN B   4       2.515  21.114  -2.091  1.00 28.42 LIG 0.18  C 
BRANCH 31 32
ATOM     32  C   ASN B   4       2.676  22.070  -3.247  1.00 28.91 LIG 0.24  C 
ATOM     33 O    ASN B   4       1.959  23.022  -3.373  1.00 29.45 LIG-0.27  OA
ATOM     34  N   GLY B   5       3.645  21.827  -4.093  1.00 28.92 LIG-0.35  N 
ATOM     35 H    GLY B   5       4.219  21.191  -4.012  1.00 28.92 LIG 0.16  HD
BRANCH 34 36
ATOM     36  CA  GLY B   5       3.805  22.641  -5.246  1.00 29.35 LIG 0.21  C 
BRANCH 36 37
ATOM     37  C   GLY B   5       4.549  23.908  -5.034  1.00 28.99 LIG 0.21  C 
ATOM     38 O    GLY B   5       4.773  24.598  -5.975  1.00 30.45 LIG-0.29  OA
ENDBRANCH 36 37
ENDBRANCH 34 36
ENDBRANCH 31 32
BRANCH 31 39
ATOM     39  CB  ASN B   4       1.571  19.977  -2.478  1.00 28.79 LIG 0.14  C 
BRANCH 39 40
ATOM     40  CG  ASN B   4       1.139  20.049  -3.897  1.00 30.59 LIG 0.22  C 
ATOM     41  ND2 ASN B   4       1.853  19.391  -4.787  1.00 33.19 LIG-0.37  N 
ATOM     42 22HD ASN B   4       2.523  18.915  -4.534  1.00 33.19 LIG 0.16  HD
ATOM     43 21HD ASN B   4       1.649  19.437  -5.621  1.00 33.19 LIG 0.16  HD
ATOM     44 OD1  ASN B   4       0.197  20.725  -4.203  1.00 34.60 LIG-0.27  OA
ENDBRANCH 39 40
ENDBRANCH 31 39
ENDBRANCH 28 31
ENDBRANCH 25 27
ENDBRANCH 3 25
TORSDOF 16
ENDMDL
MODEL 13
USER: ADFR SOLUTION from run 30
USER: SCORE 14.886292 LL:  -2.277 LR: -12.872 RR:   0.000 FEB:  -8.099
USER: RMSD 7.797581
USER: SEED 29
USER: STATUS no improvement in best in 44 clusters for 5 generations
USER: GENES 18
USER: genes 0 Translation |==|  0.57241 0.46369 0.41183
USER: genes 1 Rotation |==|  0.54173 0.28179 0.77028 0.85720
USER: genes 2 Torsion [N]-C--CA-[N] |==|  0.43261
USER: genes 3 Torsion [C]-CA--N-[C] |==|  0.82208
USER: genes 4 Torsion [N]-C--CA-[N] |==|  0.13408
USER: genes 5 Torsion [C]-CA--CB-[OG] |==|  0.11554
USER: genes 6 Torsion [CA]-CB--OG-[HG] |==|  0.35725
USER: genes 7 Torsion [C]-CA--N-[H1] |==|  0.87309
USER: genes 8 Torsion [C]-CA--CB-[CG] |==|  0.76560
USER: genes 9 Torsion [CA]-CB--CG-[CD1] |==|  0.70385
USER: genes 10 Torsion [C]-N--CA-[CB] |==|  0.86389
USER: genes 11 Torsion [N]-CA--C-[N] |==|  0.32931
USER: genes 12 Torsion [C]-N--CA-[C] |==|  0.84444
USER: genes 13 Torsion [N]-CA--C-[N] |==|  0.38135
USER: genes 14 Torsion [C]-N--CA-[C] |==|  0.47609
USER: genes 15 Torsion [N]-CA--C-[O] |==|  0.02330
USER: genes 16 Torsion [N]-CA--CB-[CG] |==|  0.87441
USER: genes 17 Torsion [CA]-CB--CG-[OD1] |==|  0.33467
ROOT
ATOM      1  C   PHE B   2      -0.940  19.185   2.538  1.00 26.65 LIG 0.24  C 
ATOM      2 O    PHE B   2      -0.925  18.975   1.359  1.00 26.69 LIG-0.27  OA
ATOM      3  N   ALA B   3      -1.056  18.261   3.462  1.00 26.24 LIG-0.35  N 
ATOM      4 H    ALA B   3      -1.126  18.413   4.306  1.00 26.24 LIG 0.16  HD
ENDROOT
BRANCH 1 5
ATOM      5  CA  PHE B   2      -0.838  20.558   3.101  1.00 26.41 LIG 0.18  C 
BRANCH 5 6
ATOM      6  N   PHE B   2      -0.182  21.465   2.218  1.00 26.57 LIG-0.35  N 
ATOM      7  C   SER B   1       1.083  21.258   1.913  1.00 27.36 LIG 0.25  C 
ATOM      8 O    SER B   1       1.744  20.357   2.357  1.00 27.79 LIG-0.27  OA
ATOM      9 H    PHE B   2      -0.663  22.115   1.926  1.00 26.57 LIG 0.16  HD
BRANCH 7 10
ATOM     10  CA  SER B   1       1.739  22.249   1.020  1.00 27.82 LIG 0.30  C 
BRANCH 10 11
ATOM     11  CB  SER B   1       3.236  22.099   0.924  1.00 27.59 LIG 0.21  C 
BRANCH 11 12
ATOM     12 OG   SER B   1       3.594  20.738   0.837  1.00 28.50 LIG-0.40  OA
ATOM     13 HG   SER B   1       4.106  20.624   0.181  1.00 28.50 LIG 0.21  HD
ENDBRANCH 11 12
ENDBRANCH 10 11
BRANCH 10 14
ATOM     14  N   SER B   1       1.398  23.525   1.586  1.00 28.84 LIG-0.06  N 
ATOM     15 H3   SER B   1       1.577  24.169   0.998  1.00 28.84 LIG 0.28  HD
ATOM     16 H2   SER B   1       1.874  23.659   2.326  1.00 28.84 LIG 0.28  HD
ATOM     17 H1   SER B   1       0.531  23.539   1.785  1.00 28.84 LIG 0.28  HD
ENDBRANCH 10 14
ENDBRANCH 7 10
ENDBRANCH 5 6
BRANCH 5 18
ATOM     18  CB  PHE B   2      -2.205  21.016   3.457  1.00 26.01 LIG 0.07  C 
BRANCH 18 19
ATOM     19  CG  PHE B   2      -2.913  21.581   2.348  1.00 24.17 LIG-0.06  A 
ATOM     20  CD1 PHE B   2      -3.110  22.927   2.272  1.00 21.37 LIG 0.01  A 
ATOM     21  CE1 PHE B   2      -3.743  23.413   1.287  1.00 18.48 LIG 0.00  A 
ATOM     22  CZ  PHE B   2      -4.198  22.639   0.345  1.00 20.70 LIG 0.00  A 
ATOM     23  CE2 PHE B   2      -3.996  21.368   0.339  1.00 22.44 LIG 0.00  A 
ATOM     24  CD2 PHE B   2      -3.360  20.804   1.346  1.00 23.60 LIG 0.01  A 
ENDBRANCH 18 19
ENDBRANCH 5 18
ENDBRANCH 1 5
BRANCH 3 25
ATOM     25  CA  ALA B   3      -1.072  16.898   3.091  1.00 26.83 LIG 0.17  C 
ATOM     26  CB  ALA B   3      -2.050  16.675   1.969  1.00 26.24 LIG 0.04  C 
BRANCH 25 27
ATOM     27  C   ALA B   3       0.319  16.502   2.662  1.00 26.95 LIG 0.24  C 
ATOM     28  N   ASN B   4       0.877  15.556   3.383  1.00 27.94 LIG-0.35  N 
ATOM     29 H    ASN B   4       0.593  15.290   4.151  1.00 27.94 LIG 0.16  HD
ATOM     30 O    ALA B   3       0.830  17.014   1.745  1.00 26.45 LIG-0.27  OA
BRANCH 28 31
ATOM     31  CA  ASN B   4       2.051  14.888   2.894  1.00 28.42 LIG 0.18  C 
BRANCH 31 32
ATOM     32  C   ASN B   4       1.738  14.308   1.537  1.00 28.91 LIG 0.24  C 
ATOM     33 O    ASN B   4       0.691  13.767   1.317  1.00 29.45 LIG-0.27  OA
ATOM     34  N   GLY B   5       2.649  14.439   0.607  1.00 28.92 LIG-0.35  N 
ATOM     35 H    GLY B   5       3.388  14.868   0.701  1.00 28.92 LIG 0.16  HD
BRANCH 34 36
ATOM     36  CA  GLY B   5       2.452  13.849  -0.671  1.00 29.35 LIG 0.21  C 
BRANCH 36 37
ATOM     37  C   GLY B   5       3.446  14.224  -1.707  1.00 28.99 LIG 0.21  C 
ATOM     38 O    GLY B   5       4.401  14.848  -1.377  1.00 30.45 LIG-0.29  OA
ENDBRANCH 36 37
ENDBRANCH 34 36
ENDBRANCH 31 32
BRANCH 31 39
ATOM     39  CB  ASN B   4       2.490  13.781   3.851  1.00 28.79 LIG 0.14  C 
BRANCH 39 40
ATOM     40  CG  ASN B   4       2.476  14.214   5.271  1.00 30.59 LIG 0.22  C 
ATOM     41  ND2 ASN B   4       3.274  15.204   5.616  1.00 33.19 LIG-0.37  N 
ATOM     42 22HD ASN B   4       3.755  15.595   5.021  1.00 33.19 LIG 0.16  HD
ATOM     43 21HD ASN B   4       3.314  15.459   6.436  1.00 33.19 LIG 0.16  HD
ATOM     44 OD1  ASN B   4       1.787  13.639   6.067  1.00 34.60 LIG-0.27  OA
ENDBRANCH 39 40
ENDBRANCH 31 39
ENDBRANCH 28 31
ENDBRANCH 25 27
ENDBRANCH 3 25
TORSDOF 16
ENDMDL
MODEL 14
USER: ADFR SOLUTION from run 7
USER: SCORE 13.950354 LL:  -2.367 LR: -12.853 RR:   0.000 FEB:  -8.080
USER: RMSD 9.009404
USER: SEED 241782
USER: STATUS no improvement in best in 8 clusters for 5 generations
USER: GENES 18
USER: genes 0 Translation |==|  0.48486 0.60007 0.38637
USER: genes 1 Rotation |==|  0.04881 0.45227 0.46761 0.70760
USER: genes 2 Torsion [N]-C--CA-[N] |==|  0.93483
USER: genes 3 Torsion [C]-CA--N-[C] |==|  0.56667
USER: genes 4 Torsion [N]-C--CA-[N] |==|  0.05260
USER: genes 5 Torsion [C]-CA--CB-[OG] |==|  0.19438
USER: genes 6 Torsion [CA]-CB--OG-[HG] |==|  0.24793
USER: genes 7 Torsion [C]-CA--N-[H1] |==|  0.70160
USER: genes 8 Torsion [C]-CA--CB-[CG] |==|  0.24155
USER: genes 9 Torsion [CA]-CB--CG-[CD1] |==|  0.05099
USER: genes 10 Torsion [C]-N--CA-[CB] |==|  0.48899
USER: genes 11 Torsion [N]-CA--C-[N] |==|  0.43494
USER: genes 12 Torsion [C]-N--CA-[C] |==|  0.80951
USER: genes 13 Torsion [N]-CA--C-[N] |==|  0.42010
USER: genes 14 Torsion [C]-N--CA-[C] |==|  0.58833
USER: genes 15 Torsion [N]-CA--C-[O] |==|  0.78940
USER: genes 16 Torsion [N]-CA--CB-[CG] |==|  0.12887
USER: genes 17 Torsion [CA]-CB--CG-[OD1] |==|  0.23306
ROOT
ATOM      1  C   PHE B   2      -2.647  21.231   1.946  1.00 26.65 LIG 0.24  C 
ATOM      2 O    PHE B   2      -3.560  20.457   1.904  1.00 26.69 LIG-0.27  OA
ATOM      3  N   ALA B   3      -2.730  22.503   1.634  1.00 26.24 LIG-0.35  N 
ATOM      4 H    ALA B   3      -2.066  23.049   1.606  1.00 26.24 LIG 0.16  HD
ENDROOT
BRANCH 1 5
ATOM      5  CA  PHE B   2      -1.277  20.823   2.357  1.00 26.41 LIG 0.18  C 
BRANCH 5 6
ATOM      6  N   PHE B   2      -0.270  21.689   1.839  1.00 26.57 LIG-0.35  N 
ATOM      7  C   SER B   1       0.957  21.231   1.698  1.00 27.36 LIG 0.25  C 
ATOM      8 O    SER B   1       1.301  20.121   2.006  1.00 27.79 LIG-0.27  OA
ATOM      9 H    PHE B   2      -0.528  22.485   1.642  1.00 26.57 LIG 0.16  HD
BRANCH 7 10
ATOM     10  CA  SER B   1       1.984  22.179   1.190  1.00 27.82 LIG 0.30  C 
BRANCH 10 11
ATOM     11  CB  SER B   1       3.323  22.063   1.873  1.00 27.59 LIG 0.21  C 
BRANCH 11 12
ATOM     12 OG   SER B   1       3.959  20.856   1.516  1.00 28.50 LIG-0.40  OA
ATOM     13 HG   SER B   1       4.422  20.977   0.825  1.00 28.50 LIG 0.21  HD
ENDBRANCH 11 12
ENDBRANCH 10 11
BRANCH 10 14
ATOM     14  N   SER B   1       1.416  23.480   1.418  1.00 28.84 LIG-0.06  N 
ATOM     15 H3   SER B   1       2.023  24.006   1.801  1.00 28.84 LIG 0.28  HD
ATOM     16 H2   SER B   1       0.709  23.406   1.953  1.00 28.84 LIG 0.28  HD
ATOM     17 H1   SER B   1       1.165  23.834   0.641  1.00 28.84 LIG 0.28  HD
ENDBRANCH 10 14
ENDBRANCH 7 10
ENDBRANCH 5 6
BRANCH 5 18
ATOM     18  CB  PHE B   2      -1.240  20.747   3.839  1.00 26.01 LIG 0.07  C 
BRANCH 18 19
ATOM     19  CG  PHE B   2      -1.654  19.472   4.345  1.00 24.17 LIG-0.06  A 
ATOM     20  CD1 PHE B   2      -1.668  18.382   3.529  1.00 21.37 LIG 0.01  A 
ATOM     21  CE1 PHE B   2      -2.041  17.260   3.988  1.00 18.48 LIG 0.00  A 
ATOM     22  CZ  PHE B   2      -2.400  17.141   5.232  1.00 20.70 LIG 0.00  A 
ATOM     23  CE2 PHE B   2      -2.357  18.125   6.061  1.00 22.44 LIG 0.00  A 
ATOM     24  CD2 PHE B   2      -1.995  19.319   5.636  1.00 23.60 LIG 0.01  A 
ENDBRANCH 18 19
ENDBRANCH 5 18
ENDBRANCH 1 5
BRANCH 3 25
ATOM     25  CA  ALA B   3      -3.985  23.064   1.311  1.00 26.83 LIG 0.17  C 
ATOM     26  CB  ALA B   3      -3.851  24.545   1.083  1.00 26.24 LIG 0.04  C 
BRANCH 25 27
ATOM     27  C   ALA B   3      -4.507  22.387   0.067  1.00 26.95 LIG 0.24  C 
ATOM     28  N   ASN B   4      -5.811  22.433  -0.086  1.00 27.94 LIG-0.35  N 
ATOM     29 H    ASN B   4      -6.373  22.650   0.528  1.00 27.94 LIG 0.16  HD
ATOM     30 O    ALA B   3      -3.776  21.876  -0.687  1.00 26.45 LIG-0.27  OA
BRANCH 28 31
ATOM     31  CA  ASN B   4      -6.388  22.103  -1.360  1.00 28.42 LIG 0.18  C 
BRANCH 31 32
ATOM     32  C   ASN B   4      -6.014  23.182  -2.346  1.00 28.91 LIG 0.24  C 
ATOM     33 O    ASN B   4      -5.794  24.304  -1.987  1.00 29.45 LIG-0.27  OA
ATOM     34  N   GLY B   5      -5.919  22.834  -3.604  1.00 28.92 LIG-0.35  N 
ATOM     35 H    GLY B   5      -6.011  22.031  -3.899  1.00 28.92 LIG 0.16  HD
BRANCH 34 36
ATOM     36  CA  GLY B   5      -5.647  23.815  -4.595  1.00 29.35 LIG 0.21  C 
BRANCH 36 37
ATOM     37  C   GLY B   5      -6.248  23.560  -5.928  1.00 28.99 LIG 0.21  C 
ATOM     38 O    GLY B   5      -5.753  22.736  -6.625  1.00 30.45 LIG-0.29  OA
ENDBRANCH 36 37
ENDBRANCH 34 36
ENDBRANCH 31 32
BRANCH 31 39
ATOM     39  CB  ASN B   4      -7.908  21.988  -1.259  1.00 28.79 LIG 0.14  C 
BRANCH 39 40
ATOM     40  CG  ASN B   4      -8.519  23.116  -0.510  1.00 30.59 LIG 0.22  C 
ATOM     41  ND2 ASN B   4      -8.816  22.918   0.758  1.00 33.19 LIG-0.37  N 
ATOM     42 22HD ASN B   4      -8.627  22.167   1.132  1.00 33.19 LIG 0.16  HD
ATOM     43 21HD ASN B   4      -9.199  23.539   1.213  1.00 33.19 LIG 0.16  HD
ATOM     44 OD1  ASN B   4      -8.764  24.146  -1.072  1.00 34.60 LIG-0.27  OA
ENDBRANCH 39 40
ENDBRANCH 31 39
ENDBRANCH 28 31
ENDBRANCH 25 27
ENDBRANCH 3 25
TORSDOF 16
ENDMDL
MODEL 15
USER: ADFR SOLUTION from run 96
USER: SCORE 13.663062 LL:  -2.461 LR: -12.842 RR:   0.000 FEB:  -8.069
USER: RMSD 10.626865
USER: SEED 95
USER: STATUS no improvement in best in 18 clusters for 5 generations
USER: GENES 18
USER: genes 0 Translation |==|  0.51561 0.56253 0.32626
USER: genes 1 Rotation |==|  0.03876 0.36193 0.37524 0.55130
USER: genes 2 Torsion [N]-C--CA-[N] |==|  0.94863
USER: genes 3 Torsion [C]-CA--N-[C] |==|  0.67406
USER: genes 4 Torsion [N]-C--CA-[N] |==|  0.05537
USER: genes 5 Torsion [C]-CA--CB-[OG] |==|  0.20649
USER: genes 6 Torsion [CA]-CB--OG-[HG] |==|  0.15277
USER: genes 7 Torsion [C]-CA--N-[H1] |==|  0.31473
USER: genes 8 Torsion [C]-CA--CB-[CG] |==|  0.25867
USER: genes 9 Torsion [CA]-CB--CG-[CD1] |==|  0.70572
USER: genes 10 Torsion [C]-N--CA-[CB] |==|  0.25871
USER: genes 11 Torsion [N]-CA--C-[N] |==|  0.44335
USER: genes 12 Torsion [C]-N--CA-[C] |==|  0.65155
USER: genes 13 Torsion [N]-CA--C-[N] |==|  0.04596
USER: genes 14 Torsion [C]-N--CA-[C] |==|  0.28477
USER: genes 15 Torsion [N]-CA--C-[O] |==|  0.14643
USER: genes 16 Torsion [N]-CA--CB-[CG] |==|  0.78305
USER: genes 17 Torsion [CA]-CB--CG-[OD1] |==|  0.19359
ROOT
ATOM      1  C   PHE B   2      -2.048  20.668   0.549  1.00 26.65 LIG 0.24  C 
ATOM      2 O    PHE B   2      -2.825  19.757   0.531  1.00 26.69 LIG-0.27  OA
ATOM      3  N   ALA B   3      -1.905  21.549  -0.414  1.00 26.24 LIG-0.35  N 
ATOM      4 H    ALA B   3      -1.309  22.169  -0.431  1.00 26.24 LIG 0.16  HD
ENDROOT
BRANCH 1 5
ATOM      5  CA  PHE B   2      -1.122  20.902   1.690  1.00 26.41 LIG 0.18  C 
BRANCH 5 6
ATOM      6  N   PHE B   2      -0.021  21.736   1.339  1.00 26.57 LIG-0.35  N 
ATOM      7  C   SER B   1       1.200  21.246   1.406  1.00 27.36 LIG 0.25  C 
ATOM      8 O    SER B   1       1.459  20.131   1.775  1.00 27.79 LIG-0.27  OA
ATOM      9 H    PHE B   2      -0.222  22.536   1.096  1.00 26.57 LIG 0.16  HD
BRANCH 7 10
ATOM     10  CA  SER B   1       2.321  22.163   1.068  1.00 27.82 LIG 0.30  C 
BRANCH 10 11
ATOM     11  CB  SER B   1       3.535  22.004   1.948  1.00 27.59 LIG 0.21  C 
BRANCH 11 12
ATOM     12 OG   SER B   1       4.237  20.827   1.619  1.00 28.50 LIG-0.40  OA
ATOM     13 HG   SER B   1       4.426  20.833   0.800  1.00 28.50 LIG 0.21  HD
ENDBRANCH 11 12
ENDBRANCH 10 11
BRANCH 10 14
ATOM     14  N   SER B   1       1.765  23.480   1.213  1.00 28.84 LIG-0.06  N 
ATOM     15 H3   SER B   1       0.890  23.419   1.366  1.00 28.84 LIG 0.28  HD
ATOM     16 H2   SER B   1       1.903  23.945   0.466  1.00 28.84 LIG 0.28  HD
ATOM     17 H1   SER B   1       2.157  23.894   1.896  1.00 28.84 LIG 0.28  HD
ENDBRANCH 10 14
ENDBRANCH 7 10
ENDBRANCH 5 6
BRANCH 5 18
ATOM     18  CB  PHE B   2      -1.909  21.460   2.818  1.00 26.01 LIG 0.07  C 
BRANCH 18 19
ATOM     19  CG  PHE B   2      -2.380  20.455   3.724  1.00 24.17 LIG-0.06  A 
ATOM     20  CD1 PHE B   2      -3.695  20.097   3.728  1.00 21.37 LIG 0.01  A 
ATOM     21  CE1 PHE B   2      -4.100  19.210   4.538  1.00 18.48 LIG 0.00  A 
ATOM     22  CZ  PHE B   2      -3.270  18.632   5.357  1.00 20.70 LIG 0.00  A 
ATOM     23  CE2 PHE B   2      -2.010  18.893   5.360  1.00 22.44 LIG 0.00  A 
ATOM     24  CD2 PHE B   2      -1.534  19.820   4.552  1.00 23.60 LIG 0.01  A 
ENDBRANCH 18 19
ENDBRANCH 5 18
ENDBRANCH 1 5
BRANCH 3 25
ATOM     25  CA  ALA B   3      -2.775  21.516  -1.527  1.00 26.83 LIG 0.17  C 
ATOM     26  CB  ALA B   3      -3.944  22.435  -1.301  1.00 26.24 LIG 0.04  C 
BRANCH 25 27
ATOM     27  C   ALA B   3      -2.003  21.940  -2.752  1.00 26.95 LIG 0.24  C 
ATOM     28  N   ASN B   4      -2.527  21.569  -3.897  1.00 27.94 LIG-0.35  N 
ATOM     29 H    ASN B   4      -3.147  20.979  -3.988  1.00 27.94 LIG 0.16  HD
ATOM     30 O    ALA B   3      -1.017  22.559  -2.652  1.00 26.45 LIG-0.27  OA
BRANCH 28 31
ATOM     31  CA  ASN B   4      -2.062  22.166  -5.118  1.00 28.42 LIG 0.18  C 
BRANCH 31 32
ATOM     32  C   ASN B   4      -3.251  22.733  -5.854  1.00 28.91 LIG 0.24  C 
ATOM     33 O    ASN B   4      -3.191  23.002  -7.020  1.00 29.45 LIG-0.27  OA
ATOM     34  N   GLY B   5      -4.354  22.897  -5.170  1.00 28.92 LIG-0.35  N 
ATOM     35 H    GLY B   5      -4.461  22.665  -4.348  1.00 28.92 LIG 0.16  HD
BRANCH 34 36
ATOM     36  CA  GLY B   5      -5.488  23.498  -5.780  1.00 29.35 LIG 0.21  C 
BRANCH 36 37
ATOM     37  C   GLY B   5      -6.562  22.561  -6.194  1.00 28.99 LIG 0.21  C 
ATOM     38 O    GLY B   5      -6.989  21.798  -5.390  1.00 30.45 LIG-0.29  OA
ENDBRANCH 36 37
ENDBRANCH 34 36
ENDBRANCH 31 32
BRANCH 31 39
ATOM     39  CB  ASN B   4      -1.344  21.138  -5.991  1.00 28.79 LIG 0.14  C 
BRANCH 39 40
ATOM     40  CG  ASN B   4       0.040  20.863  -5.530  1.00 30.59 LIG 0.22  C 
ATOM     41  ND2 ASN B   4       1.031  21.248  -6.307  1.00 33.19 LIG-0.37  N 
ATOM     42 22HD ASN B   4       0.866  21.671  -7.037  1.00 33.19 LIG 0.16  HD
ATOM     43 21HD ASN B   4       1.844  21.076  -6.086  1.00 33.19 LIG 0.16  HD
ATOM     44 OD1  ASN B   4       0.223  20.270  -4.504  1.00 34.60 LIG-0.27  OA
ENDBRANCH 39 40
ENDBRANCH 31 39
ENDBRANCH 28 31
ENDBRANCH 25 27
ENDBRANCH 3 25
TORSDOF 16
ENDMDL
MODEL 16
USER: ADFR SOLUTION from run 29
USER: SCORE 14.664837 LL:  -2.893 LR: -12.824 RR:   0.000 FEB:  -8.051
USER: RMSD 5.558162
USER: SEED 28
USER: STATUS searching
USER: GENES 18
USER: genes 0 Translation |==|  0.64421 0.51971 0.27195
USER: genes 1 Rotation |==|  0.32450 0.30359 0.75990 0.83626
USER: genes 2 Torsion [N]-C--CA-[N] |==|  0.06273
USER: genes 3 Torsion [C]-CA--N-[C] |==|  0.17517
USER: genes 4 Torsion [N]-C--CA-[N] |==|  0.92085
USER: genes 5 Torsion [C]-CA--CB-[OG] |==|  0.77586
USER: genes 6 Torsion [CA]-CB--OG-[HG] |==|  0.07331
USER: genes 7 Torsion [C]-CA--N-[H1] |==|  0.30447
USER: genes 8 Torsion [C]-CA--CB-[CG] |==|  0.34066
USER: genes 9 Torsion [CA]-CB--CG-[CD1] |==|  0.54244
USER: genes 10 Torsion [C]-N--CA-[CB] |==|  0.19498
USER: genes 11 Torsion [N]-CA--C-[N] |==|  0.93333
USER: genes 12 Torsion [C]-N--CA-[C] |==|  0.17699
USER: genes 13 Torsion [N]-CA--C-[N] |==|  0.08842
USER: genes 14 Torsion [C]-N--CA-[C] |==|  0.83833
USER: genes 15 Torsion [N]-CA--C-[O] |==|  0.63926
USER: genes 16 Torsion [N]-CA--CB-[CG] |==|  0.76774
USER: genes 17 Torsion [CA]-CB--CG-[OD1] |==|  0.53062
ROOT
ATOM      1  C   PHE B   2       0.460  20.026  -0.714  1.00 26.65 LIG 0.24  C 
ATOM      2 O    PHE B   2       0.710  19.092  -1.421  1.00 26.69 LIG-0.27  OA
ATOM      3  N   ALA B   3      -0.328  19.981   0.335  1.00 26.24 LIG-0.35  N 
ATOM      4 H    ALA B   3      -0.556  20.661   0.810  1.00 26.24 LIG 0.16  HD
ENDROOT
BRANCH 1 5
ATOM      5  CA  PHE B   2       1.022  21.381  -0.960  1.00 26.41 LIG 0.18  C 
BRANCH 5 6
ATOM      6  N   PHE B   2       1.027  22.192   0.213  1.00 26.57 LIG-0.35  N 
ATOM      7  C   SER B   1       1.754  21.818   1.246  1.00 27.36 LIG 0.25  C 
ATOM      8 O    SER B   1       2.405  20.808   1.282  1.00 27.79 LIG-0.27  OA
ATOM      9 H    PHE B   2       0.541  22.900   0.178  1.00 26.57 LIG 0.16  HD
BRANCH 7 10
ATOM     10  CA  SER B   1       1.699  22.673   2.462  1.00 27.82 LIG 0.30  C 
BRANCH 10 11
ATOM     11  CB  SER B   1       0.655  22.253   3.466  1.00 27.59 LIG 0.21  C 
BRANCH 11 12
ATOM     12 OG   SER B   1      -0.617  22.726   3.086  1.00 28.50 LIG-0.40  OA
ATOM     13 HG   SER B   1      -0.642  22.825   2.252  1.00 28.50 LIG 0.21  HD
ENDBRANCH 11 12
ENDBRANCH 10 11
BRANCH 10 14
ATOM     14  N   SER B   1       1.414  23.990   1.963  1.00 28.84 LIG-0.06  N 
ATOM     15 H3   SER B   1       1.492  23.996   1.076  1.00 28.84 LIG 0.28  HD
ATOM     16 H2   SER B   1       1.988  24.572   2.315  1.00 28.84 LIG 0.28  HD
ATOM     17 H1   SER B   1       0.584  24.220   2.189  1.00 28.84 LIG 0.28  HD
ENDBRANCH 10 14
ENDBRANCH 7 10
ENDBRANCH 5 6
BRANCH 5 18
ATOM     18  CB  PHE B   2       2.382  21.222  -1.535  1.00 26.01 LIG 0.07  C 
BRANCH 18 19
ATOM     19  CG  PHE B   2       2.530  21.864  -2.807  1.00 24.17 LIG-0.06  A 
ATOM     20  CD1 PHE B   2       3.590  21.563  -3.608  1.00 21.37 LIG 0.01  A 
ATOM     21  CE1 PHE B   2       3.712  22.142  -4.729  1.00 18.48 LIG 0.00  A 
ATOM     22  CZ  PHE B   2       2.830  23.012  -5.124  1.00 20.70 LIG 0.00  A 
ATOM     23  CE2 PHE B   2       1.783  23.296  -4.432  1.00 22.44 LIG 0.00  A 
ATOM     24  CD2 PHE B   2       1.612  22.739  -3.250  1.00 23.60 LIG 0.01  A 
ENDBRANCH 18 19
ENDBRANCH 5 18
ENDBRANCH 1 5
BRANCH 3 25
ATOM     25  CA  ALA B   3      -0.868  18.744   0.752  1.00 26.83 LIG 0.17  C 
ATOM     26  CB  ALA B   3       0.214  17.873   1.331  1.00 26.24 LIG 0.04  C 
BRANCH 25 27
ATOM     27  C   ALA B   3      -1.936  19.011   1.784  1.00 26.95 LIG 0.24  C 
ATOM     28  N   ASN B   4      -1.819  20.151   2.426  1.00 27.94 LIG-0.35  N 
ATOM     29 H    ASN B   4      -1.114  20.645   2.429  1.00 27.94 LIG 0.16  HD
ATOM     30 O    ALA B   3      -2.795  18.241   1.967  1.00 26.45 LIG-0.27  OA
BRANCH 28 31
ATOM     31  CA  ASN B   4      -2.924  20.650   3.195  1.00 28.42 LIG 0.18  C 
BRANCH 31 32
ATOM     32  C   ASN B   4      -3.198  19.681   4.319  1.00 28.91 LIG 0.24  C 
ATOM     33 O    ASN B   4      -4.310  19.502   4.729  1.00 29.45 LIG-0.27  OA
ATOM     34  N   GLY B   5      -2.174  19.033   4.811  1.00 28.92 LIG-0.35  N 
ATOM     35 H    GLY B   5      -1.369  19.086   4.512  1.00 28.92 LIG 0.16  HD
BRANCH 34 36
ATOM     36  CA  GLY B   5      -2.349  18.164   5.922  1.00 29.35 LIG 0.21  C 
BRANCH 36 37
ATOM     37  C   GLY B   5      -2.908  18.794   7.144  1.00 28.99 LIG 0.21  C 
ATOM     38 O    GLY B   5      -2.352  18.618   8.178  1.00 30.45 LIG-0.29  OA
ENDBRANCH 36 37
ENDBRANCH 34 36
ENDBRANCH 31 32
BRANCH 31 39
ATOM     39  CB  ASN B   4      -4.169  20.811   2.324  1.00 28.79 LIG 0.14  C 
BRANCH 39 40
ATOM     40  CG  ASN B   4      -4.186  22.097   1.582  1.00 30.59 LIG 0.22  C 
ATOM     41  ND2 ASN B   4      -3.095  22.835   1.615  1.00 33.19 LIG-0.37  N 
ATOM     42 22HD ASN B   4      -2.397  22.553   2.030  1.00 33.19 LIG 0.16  HD
ATOM     43 21HD ASN B   4      -3.082  23.600   1.223  1.00 33.19 LIG 0.16  HD
ATOM     44 OD1  ASN B   4      -5.183  22.450   1.017  1.00 34.60 LIG-0.27  OA
ENDBRANCH 39 40
ENDBRANCH 31 39
ENDBRANCH 28 31
ENDBRANCH 25 27
ENDBRANCH 3 25
TORSDOF 16
ENDMDL
MODEL 17
USER: ADFR SOLUTION from run 74
USER: SCORE 13.599992 LL:  -2.584 LR: -12.762 RR:   0.000 FEB:  -7.989
USER: RMSD 4.845103
USER: SEED 73
USER: STATUS no improvement in best in 13 clusters for 5 generations
USER: GENES 18
USER: genes 0 Translation |==|  0.62986 0.49242 0.29524
USER: genes 1 Rotation |==|  0.35663 0.35860 0.77131 0.86857
USER: genes 2 Torsion [N]-C--CA-[N] |==|  0.01818
USER: genes 3 Torsion [C]-CA--N-[C] |==|  0.19944
USER: genes 4 Torsion [N]-C--CA-[N] |==|  0.88997
USER: genes 5 Torsion [C]-CA--CB-[OG] |==|  0.79268
USER: genes 6 Torsion [CA]-CB--OG-[HG] |==|  0.03398
USER: genes 7 Torsion [C]-CA--N-[H1] |==|  0.63165
USER: genes 8 Torsion [C]-CA--CB-[CG] |==|  0.36778
USER: genes 9 Torsion [CA]-CB--CG-[CD1] |==|  0.04038
USER: genes 10 Torsion [C]-N--CA-[CB] |==|  0.16157
USER: genes 11 Torsion [N]-CA--C-[N] |==|  0.44816
USER: genes 12 Torsion [C]-N--CA-[C] |==|  0.52778
USER: genes 13 Torsion [N]-CA--C-[N] |==|  0.46176
USER: genes 14 Torsion [C]-N--CA-[C] |==|  0.22060
USER: genes 15 Torsion [N]-CA--C-[O] |==|  0.15626
USER: genes 16 Torsion [N]-CA--CB-[CG] |==|  0.51470
USER: genes 17 Torsion [CA]-CB--CG-[OD1] |==|  0.10096
ROOT
ATOM      1  C   PHE B   2       0.180  19.616  -0.173  1.00 26.65 LIG 0.24  C 
ATOM      2 O    PHE B   2       0.164  18.675  -0.913  1.00 26.69 LIG-0.27  OA
ATOM      3  N   ALA B   3      -0.286  19.612   1.054  1.00 26.24 LIG-0.35  N 
ATOM      4 H    ALA B   3      -0.329  20.301   1.568  1.00 26.24 LIG 0.16  HD
ENDROOT
BRANCH 1 5
ATOM      5  CA  PHE B   2       0.735  20.936  -0.578  1.00 26.41 LIG 0.18  C 
BRANCH 5 6
ATOM      6  N   PHE B   2       0.777  21.867   0.501  1.00 26.57 LIG-0.35  N 
ATOM      7  C   SER B   1       1.660  21.692   1.463  1.00 27.36 LIG 0.25  C 
ATOM      8 O    SER B   1       2.431  20.771   1.511  1.00 27.79 LIG-0.27  OA
ATOM      9 H    PHE B   2       0.205  22.508   0.462  1.00 26.57 LIG 0.16  HD
BRANCH 7 10
ATOM     10  CA  SER B   1       1.642  22.665   2.588  1.00 27.82 LIG 0.30  C 
BRANCH 10 11
ATOM     11  CB  SER B   1       0.591  22.383   3.631  1.00 27.59 LIG 0.21  C 
BRANCH 11 12
ATOM     12 OG   SER B   1      -0.689  22.734   3.155  1.00 28.50 LIG-0.40  OA
ATOM     13 HG   SER B   1      -0.650  22.876   2.328  1.00 28.50 LIG 0.21  HD
ENDBRANCH 11 12
ENDBRANCH 10 11
BRANCH 10 14
ATOM     14  N   SER B   1       1.399  23.935   1.962  1.00 28.84 LIG-0.06  N 
ATOM     15 H3   SER B   1       0.567  24.200   2.139  1.00 28.84 LIG 0.28  HD
ATOM     16 H2   SER B   1       1.503  23.858   1.081  1.00 28.84 LIG 0.28  HD
ATOM     17 H1   SER B   1       1.975  24.536   2.276  1.00 28.84 LIG 0.28  HD
ENDBRANCH 10 14
ENDBRANCH 7 10
ENDBRANCH 5 6
BRANCH 5 18
ATOM     18  CB  PHE B   2       2.077  20.712  -1.174  1.00 26.01 LIG 0.07  C 
BRANCH 18 19
ATOM     19  CG  PHE B   2       2.260  21.403  -2.415  1.00 24.17 LIG-0.06  A 
ATOM     20  CD1 PHE B   2       1.397  22.389  -2.786  1.00 21.37 LIG 0.01  A 
ATOM     21  CE1 PHE B   2       1.568  22.989  -3.889  1.00 18.48 LIG 0.00  A 
ATOM     22  CZ  PHE B   2       2.565  22.678  -4.665  1.00 20.70 LIG 0.00  A 
ATOM     23  CE2 PHE B   2       3.440  21.792  -4.341  1.00 22.44 LIG 0.00  A 
ATOM     24  CD2 PHE B   2       3.304  21.122  -3.214  1.00 23.60 LIG 0.01  A 
ENDBRANCH 18 19
ENDBRANCH 5 18
ENDBRANCH 1 5
BRANCH 3 25
ATOM     25  CA  ALA B   3      -0.764  18.408   1.617  1.00 26.83 LIG 0.17  C 
ATOM     26  CB  ALA B   3       0.319  17.364   1.610  1.00 26.24 LIG 0.04  C 
BRANCH 25 27
ATOM     27  C   ALA B   3      -1.216  18.686   3.030  1.00 26.95 LIG 0.24  C 
ATOM     28  N   ASN B   4      -2.022  17.785   3.544  1.00 27.94 LIG-0.35  N 
ATOM     29 H    ASN B   4      -2.432  17.176   3.095  1.00 27.94 LIG 0.16  HD
ATOM     30 O    ALA B   3      -0.850  19.639   3.598  1.00 26.45 LIG-0.27  OA
BRANCH 28 31
ATOM     31  CA  ASN B   4      -2.267  17.777   4.959  1.00 28.42 LIG 0.18  C 
BRANCH 31 32
ATOM     32  C   ASN B   4      -3.014  16.512   5.306  1.00 28.91 LIG 0.24  C 
ATOM     33 O    ASN B   4      -3.502  15.824   4.454  1.00 29.45 LIG-0.27  OA
ATOM     34  N   GLY B   5      -3.086  16.189   6.571  1.00 28.92 LIG-0.35  N 
ATOM     35 H    GLY B   5      -2.703  16.619   7.210  1.00 28.92 LIG 0.16  HD
BRANCH 34 36
ATOM     36  CA  GLY B   5      -3.839  15.054   6.974  1.00 29.35 LIG 0.21  C 
BRANCH 36 37
ATOM     37  C   GLY B   5      -3.168  13.743   6.789  1.00 28.99 LIG 0.21  C 
ATOM     38 O    GLY B   5      -2.109  13.571   7.298  1.00 30.45 LIG-0.29  OA
ENDBRANCH 36 37
ENDBRANCH 34 36
ENDBRANCH 31 32
BRANCH 31 39
ATOM     39  CB  ASN B   4      -3.080  18.999   5.382  1.00 28.79 LIG 0.14  C 
BRANCH 39 40
ATOM     40  CG  ASN B   4      -3.248  19.093   6.855  1.00 30.59 LIG 0.22  C 
ATOM     41  ND2 ASN B   4      -4.378  19.596   7.310  1.00 33.19 LIG-0.37  N 
ATOM     42 22HD ASN B   4      -4.998  19.826   6.761  1.00 33.19 LIG 0.16  HD
ATOM     43 21HD ASN B   4      -4.495  19.694   8.156  1.00 33.19 LIG 0.16  HD
ATOM     44 OD1  ASN B   4      -2.355  18.759   7.582  1.00 34.60 LIG-0.27  OA
ENDBRANCH 39 40
ENDBRANCH 31 39
ENDBRANCH 28 31
ENDBRANCH 25 27
ENDBRANCH 3 25
TORSDOF 16
ENDMDL
MODEL 18
USER: ADFR SOLUTION from run 13
USER: SCORE 14.433383 LL:  -2.690 LR: -12.733 RR:   0.000 FEB:  -7.960
USER: RMSD 7.538286
USER: SEED 803634
USER: STATUS searching
USER: GENES 18
USER: genes 0 Translation |==|  0.51567 0.57618 0.33043
USER: genes 1 Rotation |==|  0.03267 0.39256 0.36407 0.53981
USER: genes 2 Torsion [N]-C--CA-[N] |==|  0.97088
USER: genes 3 Torsion [C]-CA--N-[C] |==|  0.70770
USER: genes 4 Torsion [N]-C--CA-[N] |==|  0.00916
USER: genes 5 Torsion [C]-CA--CB-[OG] |==|  0.23407
USER: genes 6 Torsion [CA]-CB--OG-[HG] |==|  0.12215
USER: genes 7 Torsion [C]-CA--N-[H1] |==|  0.66027
USER: genes 8 Torsion [C]-CA--CB-[CG] |==|  0.26679
USER: genes 9 Torsion [CA]-CB--CG-[CD1] |==|  0.69587
USER: genes 10 Torsion [C]-N--CA-[CB] |==|  0.82773
USER: genes 11 Torsion [N]-CA--C-[N] |==|  0.08373
USER: genes 12 Torsion [C]-N--CA-[C] |==|  0.16592
USER: genes 13 Torsion [N]-CA--C-[N] |==|  0.08135
USER: genes 14 Torsion [C]-N--CA-[C] |==|  0.74916
USER: genes 15 Torsion [N]-CA--C-[O] |==|  0.96252
USER: genes 16 Torsion [N]-CA--CB-[CG] |==|  0.68776
USER: genes 17 Torsion [CA]-CB--CG-[OD1] |==|  0.61653
ROOT
ATOM      1  C   PHE B   2      -2.046  20.873   0.646  1.00 26.65 LIG 0.24  C 
ATOM      2 O    PHE B   2      -2.939  20.075   0.601  1.00 26.69 LIG-0.27  OA
ATOM      3  N   ALA B   3      -1.752  21.722  -0.311  1.00 26.24 LIG-0.35  N 
ATOM      4 H    ALA B   3      -1.078  22.255  -0.307  1.00 26.24 LIG 0.16  HD
ENDROOT
BRANCH 1 5
ATOM      5  CA  PHE B   2      -1.138  20.984   1.819  1.00 26.41 LIG 0.18  C 
BRANCH 5 6
ATOM      6  N   PHE B   2      -0.009  21.814   1.559  1.00 26.57 LIG-0.35  N 
ATOM      7  C   SER B   1       1.167  21.252   1.368  1.00 27.36 LIG 0.25  C 
ATOM      8 O    SER B   1       1.365  20.067   1.424  1.00 27.79 LIG-0.27  OA
ATOM      9 H    PHE B   2      -0.164  22.660   1.542  1.00 26.57 LIG 0.16  HD
BRANCH 7 10
ATOM     10  CA  SER B   1       2.325  22.157   1.139  1.00 27.82 LIG 0.30  C 
BRANCH 10 11
ATOM     11  CB  SER B   1       3.468  21.953   2.101  1.00 27.59 LIG 0.21  C 
BRANCH 11 12
ATOM     12 OG   SER B   1       4.305  20.908   1.664  1.00 28.50 LIG-0.40  OA
ATOM     13 HG   SER B   1       4.441  20.984   0.838  1.00 28.50 LIG 0.21  HD
ENDBRANCH 11 12
ENDBRANCH 10 11
BRANCH 10 14
ATOM     14  N   SER B   1       1.781  23.480   1.279  1.00 28.84 LIG-0.06  N 
ATOM     15 H3   SER B   1       2.174  23.892   1.963  1.00 28.84 LIG 0.28  HD
ATOM     16 H2   SER B   1       0.905  23.427   1.429  1.00 28.84 LIG 0.28  HD
ATOM     17 H1   SER B   1       1.926  23.941   0.532  1.00 28.84 LIG 0.28  HD
ENDBRANCH 10 14
ENDBRANCH 7 10
ENDBRANCH 5 6
BRANCH 5 18
ATOM     18  CB  PHE B   2      -1.933  21.467   2.976  1.00 26.01 LIG 0.07  C 
BRANCH 18 19
ATOM     19  CG  PHE B   2      -2.393  20.406   3.822  1.00 24.17 LIG-0.06  A 
ATOM     20  CD1 PHE B   2      -3.716  20.081   3.857  1.00 21.37 LIG 0.01  A 
ATOM     21  CE1 PHE B   2      -4.110  19.143   4.614  1.00 18.48 LIG 0.00  A 
ATOM     22  CZ  PHE B   2      -3.262  18.484   5.348  1.00 20.70 LIG 0.00  A 
ATOM     23  CE2 PHE B   2      -1.996  18.713   5.315  1.00 22.44 LIG 0.00  A 
ATOM     24  CD2 PHE B   2      -1.530  19.689   4.561  1.00 23.60 LIG 0.01  A 
ENDBRANCH 18 19
ENDBRANCH 5 18
ENDBRANCH 1 5
BRANCH 3 25
ATOM     25  CA  ALA B   3      -2.579  21.803  -1.454  1.00 26.83 LIG 0.17  C 
ATOM     26  CB  ALA B   3      -2.583  20.489  -2.187  1.00 26.24 LIG 0.04  C 
BRANCH 25 27
ATOM     27  C   ALA B   3      -3.976  22.162  -1.011  1.00 26.95 LIG 0.24  C 
ATOM     28  N   ASN B   4      -4.045  22.895   0.076  1.00 27.94 LIG-0.35  N 
ATOM     29 H    ASN B   4      -3.395  23.025   0.626  1.00 27.94 LIG 0.16  HD
ATOM     30 O    ALA B   3      -4.906  21.804  -1.620  1.00 26.45 LIG-0.27  OA
BRANCH 28 31
ATOM     31  CA  ASN B   4      -5.278  23.549   0.416  1.00 28.42 LIG 0.18  C 
BRANCH 31 32
ATOM     32  C   ASN B   4      -6.345  22.496   0.585  1.00 28.91 LIG 0.24  C 
ATOM     33 O    ASN B   4      -7.494  22.729   0.340  1.00 29.45 LIG-0.27  OA
ATOM     34  N   GLY B   5      -5.957  21.314   0.990  1.00 28.92 LIG-0.35  N 
ATOM     35 H    GLY B   5      -5.139  21.084   1.123  1.00 28.92 LIG 0.16  HD
BRANCH 34 36
ATOM     36  CA  GLY B   5      -6.918  20.298   1.245  1.00 29.35 LIG 0.21  C 
BRANCH 36 37
ATOM     37  C   GLY B   5      -7.436  20.244   2.635  1.00 28.99 LIG 0.21  C 
ATOM     38 O    GLY B   5      -6.864  20.855   3.477  1.00 30.45 LIG-0.29  OA
ENDBRANCH 36 37
ENDBRANCH 34 36
ENDBRANCH 31 32
BRANCH 31 39
ATOM     39  CB  ASN B   4      -5.688  24.542  -0.671  1.00 28.79 LIG 0.14  C 
BRANCH 39 40
ATOM     40  CG  ASN B   4      -5.620  25.953  -0.210  1.00 30.59 LIG 0.22  C 
ATOM     41  ND2 ASN B   4      -4.607  26.296   0.559  1.00 33.19 LIG-0.37  N 
ATOM     42 22HD ASN B   4      -3.999  25.720   0.752  1.00 33.19 LIG 0.16  HD
ATOM     43 21HD ASN B   4      -4.554  27.097   0.869  1.00 33.19 LIG 0.16  HD
ATOM     44 OD1  ASN B   4      -6.491  26.722  -0.505  1.00 34.60 LIG-0.27  OA
ENDBRANCH 39 40
ENDBRANCH 31 39
ENDBRANCH 28 31
ENDBRANCH 25 27
ENDBRANCH 3 25
TORSDOF 16
ENDMDL
MODEL 19
USER: ADFR SOLUTION from run 80
USER: SCORE 14.099286 LL:  -2.803 LR: -12.698 RR:   0.000 FEB:  -7.925
USER: RMSD 8.945212
USER: SEED 79
USER: STATUS no improvement in best in 8 clusters for 5 generations
USER: GENES 18
USER: genes 0 Translation |==|  0.47492 0.41969 0.59627
USER: genes 1 Rotation |==|  0.61537 0.03119 0.53863 0.62417
USER: genes 2 Torsion [N]-C--CA-[N] |==|  0.37776
USER: genes 3 Torsion [C]-CA--N-[C] |==|  0.69944
USER: genes 4 Torsion [N]-C--CA-[N] |==|  0.46932
USER: genes 5 Torsion [C]-CA--CB-[OG] |==|  0.81662
USER: genes 6 Torsion [CA]-CB--OG-[HG] |==|  0.17788
USER: genes 7 Torsion [C]-CA--N-[H1] |==|  0.77875
USER: genes 8 Torsion [C]-CA--CB-[CG] |==|  0.66652
USER: genes 9 Torsion [CA]-CB--CG-[CD1] |==|  0.30975
USER: genes 10 Torsion [C]-N--CA-[CB] |==|  0.47778
USER: genes 11 Torsion [N]-CA--C-[N] |==|  0.33597
USER: genes 12 Torsion [C]-N--CA-[C] |==|  0.54574
USER: genes 13 Torsion [N]-CA--C-[N] |==|  0.52192
USER: genes 14 Torsion [C]-N--CA-[C] |==|  0.21291
USER: genes 15 Torsion [N]-CA--C-[O] |==|  0.75839
USER: genes 16 Torsion [N]-CA--CB-[CG] |==|  0.69988
USER: genes 17 Torsion [CA]-CB--CG-[OD1] |==|  0.25506
ROOT
ATOM      1  C   PHE B   2      -2.841  18.525   6.826  1.00 26.65 LIG 0.24  C 
ATOM      2 O    PHE B   2      -1.973  19.350   6.838  1.00 26.69 LIG-0.27  OA
ATOM      3  N   ALA B   3      -3.068  17.691   5.839  1.00 26.24 LIG-0.35  N 
ATOM      4 H    ALA B   3      -3.725  17.137   5.802  1.00 26.24 LIG 0.16  HD
ENDROOT
BRANCH 1 5
ATOM      5  CA  PHE B   2      -3.793  18.358   7.957  1.00 26.41 LIG 0.18  C 
BRANCH 5 6
ATOM      6  N   PHE B   2      -3.145  18.387   9.227  1.00 26.57 LIG-0.35  N 
ATOM      7  C   SER B   1      -3.035  17.269   9.914  1.00 27.36 LIG 0.25  C 
ATOM      8 O    SER B   1      -3.475  16.209   9.553  1.00 27.79 LIG-0.27  OA
ATOM      9 H    PHE B   2      -2.854  19.156   9.479  1.00 26.57 LIG 0.16  HD
BRANCH 7 10
ATOM     10  CA  SER B   1      -2.386  17.352  11.250  1.00 27.82 LIG 0.30  C 
BRANCH 10 11
ATOM     11  CB  SER B   1      -0.903  17.620  11.200  1.00 27.59 LIG 0.21  C 
BRANCH 11 12
ATOM     12 OG   SER B   1      -0.221  16.533  10.618  1.00 28.50 LIG-0.40  OA
ATOM     13 HG   SER B   1      -0.462  16.447   9.818  1.00 28.50 LIG 0.21  HD
ENDBRANCH 11 12
ENDBRANCH 10 11
BRANCH 10 14
ATOM     14  N   SER B   1      -2.645  16.075  11.855  1.00 28.84 LIG-0.06  N 
ATOM     15 H3   SER B   1      -2.066  15.937  12.518  1.00 28.84 LIG 0.28  HD
ATOM     16 H2   SER B   1      -2.555  15.433  11.246  1.00 28.84 LIG 0.28  HD
ATOM     17 H1   SER B   1      -3.474  16.062  12.179  1.00 28.84 LIG 0.28  HD
ENDBRANCH 10 14
ENDBRANCH 7 10
ENDBRANCH 5 6
BRANCH 5 18
ATOM     18  CB  PHE B   2      -4.840  19.404   7.840  1.00 26.01 LIG 0.07  C 
BRANCH 18 19
ATOM     19  CG  PHE B   2      -4.894  20.272   8.978  1.00 24.17 LIG-0.06  A 
ATOM     20  CD1 PHE B   2      -4.521  21.578   8.864  1.00 21.37 LIG 0.01  A 
ATOM     21  CE1 PHE B   2      -4.570  22.334   9.881  1.00 18.48 LIG 0.00  A 
ATOM     22  CZ  PHE B   2      -4.979  21.877  11.027  1.00 20.70 LIG 0.00  A 
ATOM     23  CE2 PHE B   2      -5.393  20.668  11.180  1.00 22.44 LIG 0.00  A 
ATOM     24  CD2 PHE B   2      -5.349  19.830  10.163  1.00 23.60 LIG 0.01  A 
ENDBRANCH 18 19
ENDBRANCH 5 18
ENDBRANCH 1 5
BRANCH 3 25
ATOM     25  CA  ALA B   3      -2.193  17.663   4.731  1.00 26.83 LIG 0.17  C 
ATOM     26  CB  ALA B   3      -2.532  16.509   3.827  1.00 26.24 LIG 0.04  C 
BRANCH 25 27
ATOM     27  C   ALA B   3      -2.321  18.969   3.986  1.00 26.95 LIG 0.24  C 
ATOM     28  N   ASN B   4      -1.210  19.662   3.881  1.00 27.94 LIG-0.35  N 
ATOM     29 H    ASN B   4      -0.495  19.520   4.338  1.00 27.94 LIG 0.16  HD
ATOM     30 O    ALA B   3      -3.347  19.305   3.541  1.00 26.45 LIG-0.27  OA
BRANCH 28 31
ATOM     31  CA  ASN B   4      -1.136  20.750   2.946  1.00 28.42 LIG 0.18  C 
BRANCH 31 32
ATOM     32  C   ASN B   4       0.316  21.097   2.732  1.00 28.91 LIG 0.24  C 
ATOM     33 O    ASN B   4       1.193  20.406   3.171  1.00 29.45 LIG-0.27  OA
ATOM     34  N   GLY B   5       0.577  22.171   2.032  1.00 28.92 LIG-0.35  N 
ATOM     35 H    GLY B   5      -0.016  22.663   1.650  1.00 28.92 LIG 0.16  HD
BRANCH 34 36
ATOM     36  CA  GLY B   5       1.921  22.599   1.858  1.00 29.35 LIG 0.21  C 
BRANCH 36 37
ATOM     37  C   GLY B   5       2.714  21.825   0.870  1.00 28.99 LIG 0.21  C 
ATOM     38 O    GLY B   5       3.278  20.847   1.238  1.00 30.45 LIG-0.29  OA
ENDBRANCH 36 37
ENDBRANCH 34 36
ENDBRANCH 31 32
BRANCH 31 39
ATOM     39  CB  ASN B   4      -1.898  21.969   3.463  1.00 28.79 LIG 0.14  C 
BRANCH 39 40
ATOM     40  CG  ASN B   4      -3.162  22.211   2.722  1.00 30.59 LIG 0.22  C 
ATOM     41  ND2 ASN B   4      -3.110  22.999   1.667  1.00 33.19 LIG-0.37  N 
ATOM     42 22HD ASN B   4      -2.357  23.327   1.412  1.00 33.19 LIG 0.16  HD
ATOM     43 21HD ASN B   4      -3.829  23.186   1.233  1.00 33.19 LIG 0.16  HD
ATOM     44 OD1  ASN B   4      -4.188  21.731   3.114  1.00 34.60 LIG-0.27  OA
ENDBRANCH 39 40
ENDBRANCH 31 39
ENDBRANCH 28 31
ENDBRANCH 25 27
ENDBRANCH 3 25
TORSDOF 16
ENDMDL
MODEL 20
USER: ADFR SOLUTION from run 56
USER: SCORE 14.099920 LL:  -2.675 LR: -12.685 RR:   0.000 FEB:  -7.912
USER: RMSD 6.118001
USER: SEED 55
USER: STATUS no improvement in best in 12 clusters for 5 generations
USER: GENES 18
USER: genes 0 Translation |==|  0.60409 0.54361 0.24354
USER: genes 1 Rotation |==|  0.18579 0.33507 0.74975 0.74839
USER: genes 2 Torsion [N]-C--CA-[N] |==|  0.20359
USER: genes 3 Torsion [C]-CA--N-[C] |==|  0.15556
USER: genes 4 Torsion [N]-C--CA-[N] |==|  0.10974
USER: genes 5 Torsion [C]-CA--CB-[OG] |==|  0.18484
USER: genes 6 Torsion [CA]-CB--OG-[HG] |==|  0.02127
USER: genes 7 Torsion [C]-CA--N-[H1] |==|  0.77277
USER: genes 8 Torsion [C]-CA--CB-[CG] |==|  0.44418
USER: genes 9 Torsion [CA]-CB--CG-[CD1] |==|  0.28808
USER: genes 10 Torsion [C]-N--CA-[CB] |==|  0.83610
USER: genes 11 Torsion [N]-CA--C-[N] |==|  0.22191
USER: genes 12 Torsion [C]-N--CA-[C] |==|  0.76755
USER: genes 13 Torsion [N]-CA--C-[N] |==|  0.40664
USER: genes 14 Torsion [C]-N--CA-[C] |==|  0.76937
USER: genes 15 Torsion [N]-CA--C-[O] |==|  0.87268
USER: genes 16 Torsion [N]-CA--CB-[CG] |==|  0.99962
USER: genes 17 Torsion [CA]-CB--CG-[OD1] |==|  0.66586
ROOT
ATOM      1  C   PHE B   2      -0.322  20.384  -1.375  1.00 26.65 LIG 0.24  C 
ATOM      2 O    PHE B   2      -0.058  19.216  -1.377  1.00 26.69 LIG-0.27  OA
ATOM      3  N   ALA B   3      -1.387  20.910  -0.815  1.00 26.24 LIG-0.35  N 
ATOM      4 H    ALA B   3      -1.610  21.739  -0.861  1.00 26.24 LIG 0.16  HD
ENDROOT
BRANCH 1 5
ATOM      5  CA  PHE B   2       0.545  21.396  -2.035  1.00 26.41 LIG 0.18  C 
BRANCH 5 6
ATOM      6  N   PHE B   2       1.265  22.195  -1.099  1.00 26.57 LIG-0.35  N 
ATOM      7  C   SER B   1       2.035  21.601  -0.211  1.00 27.36 LIG 0.25  C 
ATOM      8 O    SER B   1       2.157  20.409  -0.115  1.00 27.79 LIG-0.27  OA
ATOM      9 H    PHE B   2       1.151  23.045  -1.169  1.00 26.57 LIG 0.16  HD
BRANCH 7 10
ATOM     10  CA  SER B   1       2.737  22.470   0.770  1.00 27.82 LIG 0.30  C 
BRANCH 10 11
ATOM     11  CB  SER B   1       3.205  21.749   2.009  1.00 27.59 LIG 0.21  C 
BRANCH 11 12
ATOM     12 OG   SER B   1       4.216  20.820   1.692  1.00 28.50 LIG-0.40  OA
ATOM     13 HG   SER B   1       4.442  20.915   0.888  1.00 28.50 LIG 0.21  HD
ENDBRANCH 11 12
ENDBRANCH 10 11
BRANCH 10 14
ATOM     14  N   SER B   1       1.773  23.480   1.111  1.00 28.84 LIG-0.06  N 
ATOM     15 H3   SER B   1       1.984  23.839   1.898  1.00 28.84 LIG 0.28  HD
ATOM     16 H2   SER B   1       0.964  23.114   1.160  1.00 28.84 LIG 0.28  HD
ATOM     17 H1   SER B   1       1.774  24.114   0.487  1.00 28.84 LIG 0.28  HD
ENDBRANCH 10 14
ENDBRANCH 7 10
ENDBRANCH 5 6
BRANCH 5 18
ATOM     18  CB  PHE B   2       1.448  20.689  -2.978  1.00 26.01 LIG 0.07  C 
BRANCH 18 19
ATOM     19  CG  PHE B   2       1.994  21.551  -3.984  1.00 24.17 LIG-0.06  A 
ATOM     20  CD1 PHE B   2       3.284  21.979  -3.895  1.00 21.37 LIG 0.01  A 
ATOM     21  CE1 PHE B   2       3.753  22.745  -4.789  1.00 18.48 LIG 0.00  A 
ATOM     22  CZ  PHE B   2       3.017  23.119  -5.794  1.00 20.70 LIG 0.00  A 
ATOM     23  CE2 PHE B   2       1.809  22.704  -5.956  1.00 22.44 LIG 0.00  A 
ATOM     24  CD2 PHE B   2       1.262  21.920  -5.048  1.00 23.60 LIG 0.01  A 
ENDBRANCH 18 19
ENDBRANCH 5 18
ENDBRANCH 1 5
BRANCH 3 25
ATOM     25  CA  ALA B   3      -2.262  20.089  -0.069  1.00 26.83 LIG 0.17  C 
ATOM     26  CB  ALA B   3      -2.803  18.983  -0.934  1.00 26.24 LIG 0.04  C 
BRANCH 25 27
ATOM     27  C   ALA B   3      -1.502  19.517   1.102  1.00 26.95 LIG 0.24  C 
ATOM     28  N   ASN B   4      -1.359  20.330   2.124  1.00 27.94 LIG-0.35  N 
ATOM     29 H    ASN B   4      -1.501  21.178   2.104  1.00 27.94 LIG 0.16  HD
ATOM     30 O    ALA B   3      -1.091  18.424   1.071  1.00 26.45 LIG-0.27  OA
BRANCH 28 31
ATOM     31  CA  ASN B   4      -0.934  19.807   3.393  1.00 28.42 LIG 0.18  C 
BRANCH 31 32
ATOM     32  C   ASN B   4      -2.145  19.270   4.116  1.00 28.91 LIG 0.24  C 
ATOM     33 O    ASN B   4      -3.225  19.771   3.979  1.00 29.45 LIG-0.27  OA
ATOM     34  N   GLY B   5      -1.968  18.223   4.881  1.00 28.92 LIG-0.35  N 
ATOM     35 H    GLY B   5      -1.226  17.797   4.964  1.00 28.92 LIG 0.16  HD
BRANCH 34 36
ATOM     36  CA  GLY B   5      -3.048  17.713   5.651  1.00 29.35 LIG 0.21  C 
BRANCH 36 37
ATOM     37  C   GLY B   5      -3.286  18.396   6.947  1.00 28.99 LIG 0.21  C 
ATOM     38 O    GLY B   5      -2.354  18.627   7.645  1.00 30.45 LIG-0.29  OA
ENDBRANCH 36 37
ENDBRANCH 34 36
ENDBRANCH 31 32
BRANCH 31 39
ATOM     39  CB  ASN B   4      -0.258  20.890   4.233  1.00 28.79 LIG 0.14  C 
BRANCH 39 40
ATOM     40  CG  ASN B   4      -0.203  22.201   3.538  1.00 30.59 LIG 0.22  C 
ATOM     41  ND2 ASN B   4      -1.343  22.731   3.142  1.00 33.19 LIG-0.37  N 
ATOM     42 22HD ASN B   4      -2.085  22.334   3.316  1.00 33.19 LIG 0.16  HD
ATOM     43 21HD ASN B   4      -1.345  23.474   2.708  1.00 33.19 LIG 0.16  HD
ATOM     44 OD1  ASN B   4       0.856  22.719   3.317  1.00 34.60 LIG-0.27  OA
ENDBRANCH 39 40
ENDBRANCH 31 39
ENDBRANCH 28 31
ENDBRANCH 25 27
ENDBRANCH 3 25
TORSDOF 16
ENDMDL
MODEL 21
USER: ADFR SOLUTION from run 80
USER: SCORE 14.873996 LL:  -2.877 LR: -12.679 RR:   0.000 FEB:  -7.907
USER: RMSD 9.479869
USER: SEED 79
USER: STATUS no improvement in best in 8 clusters for 5 generations
USER: GENES 18
USER: genes 0 Translation |==|  0.48862 0.43962 0.58082
USER: genes 1 Rotation |==|  0.58371 0.01976 0.49814 0.61116
USER: genes 2 Torsion [N]-C--CA-[N] |==|  0.40000
USER: genes 3 Torsion [C]-CA--N-[C] |==|  0.70555
USER: genes 4 Torsion [N]-C--CA-[N] |==|  0.46010
USER: genes 5 Torsion [C]-CA--CB-[OG] |==|  0.80986
USER: genes 6 Torsion [CA]-CB--OG-[HG] |==|  0.22193
USER: genes 7 Torsion [C]-CA--N-[H1] |==|  0.87275
USER: genes 8 Torsion [C]-CA--CB-[CG] |==|  0.63025
USER: genes 9 Torsion [CA]-CB--CG-[CD1] |==|  0.32087
USER: genes 10 Torsion [C]-N--CA-[CB] |==|  0.50018
USER: genes 11 Torsion [N]-CA--C-[N] |==|  0.39833
USER: genes 12 Torsion [C]-N--CA-[C] |==|  0.65708
USER: genes 13 Torsion [N]-CA--C-[N] |==|  0.42925
USER: genes 14 Torsion [C]-N--CA-[C] |==|  0.72276
USER: genes 15 Torsion [N]-CA--C-[O] |==|  0.19330
USER: genes 16 Torsion [N]-CA--CB-[CG] |==|  0.38983
USER: genes 17 Torsion [CA]-CB--CG-[OD1] |==|  0.71456
ROOT
ATOM      1  C   PHE B   2      -2.574  18.824   6.467  1.00 26.65 LIG 0.24  C 
ATOM      2 O    PHE B   2      -1.585  19.484   6.610  1.00 26.69 LIG-0.27  OA
ATOM      3  N   ALA B   3      -2.890  18.177   5.369  1.00 26.24 LIG-0.35  N 
ATOM      4 H    ALA B   3      -3.626  17.751   5.243  1.00 26.24 LIG 0.16  HD
ENDROOT
BRANCH 1 5
ATOM      5  CA  PHE B   2      -3.589  18.670   7.544  1.00 26.41 LIG 0.18  C 
BRANCH 5 6
ATOM      6  N   PHE B   2      -3.003  18.604   8.842  1.00 26.57 LIG-0.35  N 
ATOM      7  C   SER B   1      -2.956  17.444   9.464  1.00 27.36 LIG 0.25  C 
ATOM      8 O    SER B   1      -3.405  16.422   9.018  1.00 27.79 LIG-0.27  OA
ATOM      9 H    PHE B   2      -2.705  19.348   9.155  1.00 26.57 LIG 0.16  HD
BRANCH 7 10
ATOM     10  CA  SER B   1      -2.372  17.429  10.832  1.00 27.82 LIG 0.30  C 
BRANCH 10 11
ATOM     11  CB  SER B   1      -0.872  17.578  10.864  1.00 27.59 LIG 0.21  C 
BRANCH 11 12
ATOM     12 OG   SER B   1      -0.248  16.435  10.325  1.00 28.50 LIG-0.40  OA
ATOM     13 HG   SER B   1      -0.265  16.475   9.486  1.00 28.50 LIG 0.21  HD
ENDBRANCH 11 12
ENDBRANCH 10 11
BRANCH 10 14
ATOM     14  N   SER B   1      -2.762  16.157  11.375  1.00 28.84 LIG-0.06  N 
ATOM     15 H3   SER B   1      -2.628  16.155  12.255  1.00 28.84 LIG 0.28  HD
ATOM     16 H2   SER B   1      -2.276  15.512  11.000  1.00 28.84 LIG 0.28  HD
ATOM     17 H1   SER B   1      -3.624  16.014  11.207  1.00 28.84 LIG 0.28  HD
ENDBRANCH 10 14
ENDBRANCH 7 10
ENDBRANCH 5 6
BRANCH 5 18
ATOM     18  CB  PHE B   2      -4.563  19.784   7.426  1.00 26.01 LIG 0.07  C 
BRANCH 18 19
ATOM     19  CG  PHE B   2      -4.842  20.420   8.679  1.00 24.17 LIG-0.06  A 
ATOM     20  CD1 PHE B   2      -4.497  21.722   8.879  1.00 21.37 LIG 0.01  A 
ATOM     21  CE1 PHE B   2      -4.745  22.271   9.995  1.00 18.48 LIG 0.00  A 
ATOM     22  CZ  PHE B   2      -5.332  21.605  10.944  1.00 20.70 LIG 0.00  A 
ATOM     23  CE2 PHE B   2      -5.727  20.389  10.792  1.00 22.44 LIG 0.00  A 
ATOM     24  CD2 PHE B   2      -5.480  19.761   9.660  1.00 23.60 LIG 0.01  A 
ENDBRANCH 18 19
ENDBRANCH 5 18
ENDBRANCH 1 5
BRANCH 3 25
ATOM     25  CA  ALA B   3      -1.983  18.151   4.287  1.00 26.83 LIG 0.17  C 
ATOM     26  CB  ALA B   3      -2.558  17.357   3.145  1.00 26.24 LIG 0.04  C 
BRANCH 25 27
ATOM     27  C   ALA B   3      -1.712  19.571   3.855  1.00 26.95 LIG 0.24  C 
ATOM     28  N   ASN B   4      -0.479  19.810   3.469  1.00 27.94 LIG-0.35  N 
ATOM     29 H    ASN B   4       0.192  19.290   3.610  1.00 27.94 LIG 0.16  HD
ATOM     30 O    ALA B   3      -2.562  20.373   3.867  1.00 26.45 LIG-0.27  OA
BRANCH 28 31
ATOM     31  CA  ASN B   4      -0.180  21.020   2.755  1.00 28.42 LIG 0.18  C 
BRANCH 31 32
ATOM     32  C   ASN B   4       0.463  20.650   1.440  1.00 28.91 LIG 0.24  C 
ATOM     33 O    ASN B   4       1.037  19.607   1.299  1.00 29.45 LIG-0.27  OA
ATOM     34  N   GLY B   5       0.347  21.507   0.458  1.00 28.92 LIG-0.35  N 
ATOM     35 H    GLY B   5      -0.103  22.238   0.495  1.00 28.92 LIG 0.16  HD
BRANCH 34 36
ATOM     36  CA  GLY B   5       0.993  21.258  -0.783  1.00 29.35 LIG 0.21  C 
BRANCH 36 37
ATOM     37  C   GLY B   5       2.273  21.980  -0.993  1.00 28.99 LIG 0.21  C 
ATOM     38 O    GLY B   5       3.215  21.665  -0.342  1.00 30.45 LIG-0.29  OA
ENDBRANCH 36 37
ENDBRANCH 34 36
ENDBRANCH 31 32
BRANCH 31 39
ATOM     39  CB  ASN B   4       0.756  21.916   3.563  1.00 28.79 LIG 0.14  C 
BRANCH 39 40
ATOM     40  CG  ASN B   4       1.785  22.577   2.720  1.00 30.59 LIG 0.22  C 
ATOM     41  ND2 ASN B   4       1.399  23.584   1.963  1.00 33.19 LIG-0.37  N 
ATOM     42 22HD ASN B   4       0.584  23.857   1.992  1.00 33.19 LIG 0.16  HD
ATOM     43 21HD ASN B   4       1.962  23.969   1.439  1.00 33.19 LIG 0.16  HD
ATOM     44 OD1  ASN B   4       2.910  22.163   2.713  1.00 34.60 LIG-0.27  OA
ENDBRANCH 39 40
ENDBRANCH 31 39
ENDBRANCH 28 31
ENDBRANCH 25 27
ENDBRANCH 3 25
TORSDOF 16
ENDMDL
MODEL 22
USER: ADFR SOLUTION from run 74
USER: SCORE 14.829766 LL:  -3.081 LR: -12.677 RR:   0.000 FEB:  -7.904
USER: RMSD 6.005172
USER: SEED 73
USER: STATUS no improvement in best in 13 clusters for 5 generations
USER: GENES 18
USER: genes 0 Translation |==|  0.62982 0.51505 0.26417
USER: genes 1 Rotation |==|  0.37893 0.33096 0.75023 0.87967
USER: genes 2 Torsion [N]-C--CA-[N] |==|  0.01777
USER: genes 3 Torsion [C]-CA--N-[C] |==|  0.19706
USER: genes 4 Torsion [N]-C--CA-[N] |==|  0.89107
USER: genes 5 Torsion [C]-CA--CB-[OG] |==|  0.81219
USER: genes 6 Torsion [CA]-CB--OG-[HG] |==|  0.00210
USER: genes 7 Torsion [C]-CA--N-[H1] |==|  0.64909
USER: genes 8 Torsion [C]-CA--CB-[CG] |==|  0.34236
USER: genes 9 Torsion [CA]-CB--CG-[CD1] |==|  0.04967
USER: genes 10 Torsion [C]-N--CA-[CB] |==|  0.14705
USER: genes 11 Torsion [N]-CA--C-[N] |==|  0.15985
USER: genes 12 Torsion [C]-N--CA-[C] |==|  0.53898
USER: genes 13 Torsion [N]-CA--C-[N] |==|  0.41751
USER: genes 14 Torsion [C]-N--CA-[C] |==|  0.34417
USER: genes 15 Torsion [N]-CA--C-[O] |==|  0.74980
USER: genes 16 Torsion [N]-CA--CB-[CG] |==|  0.63059
USER: genes 17 Torsion [CA]-CB--CG-[OD1] |==|  0.68201
ROOT
ATOM      1  C   PHE B   2       0.179  19.956  -0.895  1.00 26.65 LIG 0.24  C 
ATOM      2 O    PHE B   2       0.174  19.147  -1.778  1.00 26.69 LIG-0.27  OA
ATOM      3  N   ALA B   3      -0.344  19.770   0.294  1.00 26.24 LIG-0.35  N 
ATOM      4 H    ALA B   3      -0.393  20.368   0.910  1.00 26.24 LIG 0.16  HD
ENDROOT
BRANCH 1 5
ATOM      5  CA  PHE B   2       0.787  21.304  -1.057  1.00 26.41 LIG 0.18  C 
BRANCH 5 6
ATOM      6  N   PHE B   2       0.798  22.048   0.159  1.00 26.57 LIG-0.35  N 
ATOM      7  C   SER B   1       1.616  21.684   1.125  1.00 27.36 LIG 0.25  C 
ATOM      8 O    SER B   1       2.349  20.732   1.063  1.00 27.79 LIG-0.27  OA
ATOM      9 H    PHE B   2       0.253  22.713   0.194  1.00 26.57 LIG 0.16  HD
BRANCH 7 10
ATOM     10  CA  SER B   1       1.567  22.464   2.390  1.00 27.82 LIG 0.30  C 
BRANCH 10 11
ATOM     11  CB  SER B   1       0.452  22.061   3.321  1.00 27.59 LIG 0.21  C 
BRANCH 11 12
ATOM     12 OG   SER B   1      -0.801  22.392   2.769  1.00 28.50 LIG-0.40  OA
ATOM     13 HG   SER B   1      -0.690  22.745   2.014  1.00 28.50 LIG 0.21  HD
ENDBRANCH 11 12
ENDBRANCH 10 11
BRANCH 10 14
ATOM     14  N   SER B   1       1.398  23.827   1.965  1.00 28.84 LIG-0.06  N 
ATOM     15 H3   SER B   1       0.599  24.122   2.223  1.00 28.84 LIG 0.28  HD
ATOM     16 H2   SER B   1       1.458  23.872   1.078  1.00 28.84 LIG 0.28  HD
ATOM     17 H1   SER B   1       2.033  24.332   2.331  1.00 28.84 LIG 0.28  HD
ENDBRANCH 10 14
ENDBRANCH 7 10
ENDBRANCH 5 6
BRANCH 5 18
ATOM     18  CB  PHE B   2       2.149  21.135  -1.621  1.00 26.01 LIG 0.07  C 
BRANCH 18 19
ATOM     19  CG  PHE B   2       2.341  21.852  -2.846  1.00 24.17 LIG-0.06  A 
ATOM     20  CD1 PHE B   2       1.493  22.861  -3.191  1.00 21.37 LIG 0.01  A 
ATOM     21  CE1 PHE B   2       1.672  23.484  -4.280  1.00 18.48 LIG 0.00  A 
ATOM     22  CZ  PHE B   2       2.661  23.175  -5.066  1.00 20.70 LIG 0.00  A 
ATOM     23  CE2 PHE B   2       3.523  22.267  -4.766  1.00 22.44 LIG 0.00  A 
ATOM     24  CD2 PHE B   2       3.378  21.573  -3.655  1.00 23.60 LIG 0.01  A 
ENDBRANCH 18 19
ENDBRANCH 5 18
ENDBRANCH 1 5
BRANCH 3 25
ATOM     25  CA  ALA B   3      -0.878  18.507   0.634  1.00 26.83 LIG 0.17  C 
ATOM     26  CB  ALA B   3       0.137  17.426   0.381  1.00 26.24 LIG 0.04  C 
BRANCH 25 27
ATOM     27  C   ALA B   3      -1.271  18.528   2.090  1.00 26.95 LIG 0.24  C 
ATOM     28  N   ASN B   4      -2.133  19.461   2.422  1.00 27.94 LIG-0.35  N 
ATOM     29 H    ASN B   4      -2.340  20.138   1.932  1.00 27.94 LIG 0.16  HD
ATOM     30 O    ALA B   3      -0.826  17.751   2.841  1.00 26.45 LIG-0.27  OA
BRANCH 28 31
ATOM     31  CA  ASN B   4      -2.808  19.388   3.688  1.00 28.42 LIG 0.18  C 
BRANCH 31 32
ATOM     32  C   ASN B   4      -3.966  20.356   3.667  1.00 28.91 LIG 0.24  C 
ATOM     33 O    ASN B   4      -3.936  21.348   2.995  1.00 29.45 LIG-0.27  OA
ATOM     34  N   GLY B   5      -5.009  20.054   4.397  1.00 28.92 LIG-0.35  N 
ATOM     35 H    GLY B   5      -5.098  19.327   4.848  1.00 28.92 LIG 0.16  HD
BRANCH 34 36
ATOM     36  CA  GLY B   5      -6.102  20.957   4.484  1.00 29.35 LIG 0.21  C 
BRANCH 36 37
ATOM     37  C   GLY B   5      -7.423  20.401   4.099  1.00 28.99 LIG 0.21  C 
ATOM     38 O    GLY B   5      -7.763  20.484   2.964  1.00 30.45 LIG-0.29  OA
ENDBRANCH 36 37
ENDBRANCH 34 36
ENDBRANCH 31 32
BRANCH 31 39
ATOM     39  CB  ASN B   4      -1.858  19.730   4.835  1.00 28.79 LIG 0.14  C 
BRANCH 39 40
ATOM     40  CG  ASN B   4      -1.943  18.760   5.956  1.00 30.59 LIG 0.22  C 
ATOM     41  ND2 ASN B   4      -1.602  17.511   5.710  1.00 33.19 LIG-0.37  N 
ATOM     42 22HD ASN B   4      -1.312  17.289   4.932  1.00 33.19 LIG 0.16  HD
ATOM     43 21HD ASN B   4      -1.670  16.917   6.328  1.00 33.19 LIG 0.16  HD
ATOM     44 OD1  ASN B   4      -2.352  19.114   7.026  1.00 34.60 LIG-0.27  OA
ENDBRANCH 39 40
ENDBRANCH 31 39
ENDBRANCH 28 31
ENDBRANCH 25 27
ENDBRANCH 3 25
TORSDOF 16
ENDMDL
MODEL 23
USER: ADFR SOLUTION from run 63
USER: SCORE 13.600834 LL:  -2.553 LR: -12.678 RR:   0.000 FEB:  -7.905
USER: RMSD 8.829846
USER: SEED 62
USER: STATUS no improvement in best in 12 clusters for 5 generations
USER: GENES 18
USER: genes 0 Translation |==|  0.46602 0.42501 0.57608
USER: genes 1 Rotation |==|  0.88366 0.35535 0.69789 0.70669
USER: genes 2 Torsion [N]-C--CA-[N] |==|  0.41938
USER: genes 3 Torsion [C]-CA--N-[C] |==|  0.20002
USER: genes 4 Torsion [N]-C--CA-[N] |==|  0.36112
USER: genes 5 Torsion [C]-CA--CB-[OG] |==|  0.29709
USER: genes 6 Torsion [CA]-CB--OG-[HG] |==|  0.83475
USER: genes 7 Torsion [C]-CA--N-[H1] |==|  0.64853
USER: genes 8 Torsion [C]-CA--CB-[CG] |==|  0.47824
USER: genes 9 Torsion [CA]-CB--CG-[CD1] |==|  0.31150
USER: genes 10 Torsion [C]-N--CA-[CB] |==|  0.81703
USER: genes 11 Torsion [N]-CA--C-[N] |==|  0.19003
USER: genes 12 Torsion [C]-N--CA-[C] |==|  0.54481
USER: genes 13 Torsion [N]-CA--C-[N] |==|  0.48785
USER: genes 14 Torsion [C]-N--CA-[C] |==|  0.19819
USER: genes 15 Torsion [N]-CA--C-[O] |==|  0.96427
USER: genes 16 Torsion [N]-CA--CB-[CG] |==|  0.72375
USER: genes 17 Torsion [CA]-CB--CG-[OD1] |==|  0.27625
ROOT
ATOM      1  C   PHE B   2      -3.015  18.605   6.357  1.00 26.65 LIG 0.24  C 
ATOM      2 O    PHE B   2      -3.993  19.080   5.855  1.00 26.69 LIG-0.27  OA
ATOM      3  N   ALA B   3      -2.118  17.890   5.719  1.00 26.24 LIG-0.35  N 
ATOM      4 H    ALA B   3      -1.446  17.499   6.087  1.00 26.24 LIG 0.16  HD
ENDROOT
BRANCH 1 5
ATOM      5  CA  PHE B   2      -2.704  18.768   7.803  1.00 26.41 LIG 0.18  C 
BRANCH 5 6
ATOM      6  N   PHE B   2      -3.215  19.987   8.338  1.00 26.57 LIG-0.35  N 
ATOM      7  C   SER B   1      -4.514  20.112   8.517  1.00 27.36 LIG 0.25  C 
ATOM      8 O    SER B   1      -5.319  19.265   8.231  1.00 27.79 LIG-0.27  OA
ATOM      9 H    PHE B   2      -2.629  20.589   8.519  1.00 26.57 LIG 0.16  HD
BRANCH 7 10
ATOM     10  CA  SER B   1      -5.007  21.413   9.042  1.00 27.82 LIG 0.30  C 
BRANCH 10 11
ATOM     11  CB  SER B   1      -5.512  21.356  10.461  1.00 27.59 LIG 0.21  C 
BRANCH 11 12
ATOM     12 OG   SER B   1      -4.602  21.980  11.338  1.00 28.50 LIG-0.40  OA
ATOM     13 HG   SER B   1      -3.858  21.592  11.292  1.00 28.50 LIG 0.21  HD
ENDBRANCH 11 12
ENDBRANCH 10 11
BRANCH 10 14
ATOM     14  N   SER B   1      -6.068  21.784   8.146  1.00 28.84 LIG-0.06  N 
ATOM     15 H3   SER B   1      -6.844  21.769   8.582  1.00 28.84 LIG 0.28  HD
ATOM     16 H2   SER B   1      -6.099  21.209   7.468  1.00 28.84 LIG 0.28  HD
ATOM     17 H1   SER B   1      -5.919  22.603   7.833  1.00 28.84 LIG 0.28  HD
ENDBRANCH 10 14
ENDBRANCH 7 10
ENDBRANCH 5 6
BRANCH 5 18
ATOM     18  CB  PHE B   2      -3.223  17.579   8.525  1.00 26.01 LIG 0.07  C 
BRANCH 18 19
ATOM     19  CG  PHE B   2      -2.825  17.542   9.901  1.00 24.17 LIG-0.06  A 
ATOM     20  CD1 PHE B   2      -3.750  17.700  10.888  1.00 21.37 LIG 0.01  A 
ATOM     21  CE1 PHE B   2      -3.383  17.670  12.101  1.00 18.48 LIG 0.00  A 
ATOM     22  CZ  PHE B   2      -2.134  17.480  12.410  1.00 20.70 LIG 0.00  A 
ATOM     23  CE2 PHE B   2      -1.227  17.272  11.521  1.00 22.44 LIG 0.00  A 
ATOM     24  CD2 PHE B   2      -1.546  17.311  10.243  1.00 23.60 LIG 0.01  A 
ENDBRANCH 18 19
ENDBRANCH 5 18
ENDBRANCH 1 5
BRANCH 3 25
ATOM     25  CA  ALA B   3      -2.223  17.721   4.320  1.00 26.83 LIG 0.17  C 
ATOM     26  CB  ALA B   3      -3.455  16.925   3.983  1.00 26.24 LIG 0.04  C 
BRANCH 25 27
ATOM     27  C   ALA B   3      -2.286  19.084   3.676  1.00 26.95 LIG 0.24  C 
ATOM     28  N   ASN B   4      -1.178  19.786   3.749  1.00 27.94 LIG-0.35  N 
ATOM     29 H    ASN B   4      -0.514  19.608   4.266  1.00 27.94 LIG 0.16  HD
ATOM     30 O    ALA B   3      -3.263  19.454   3.153  1.00 26.45 LIG-0.27  OA
BRANCH 28 31
ATOM     31  CA  ASN B   4      -1.018  20.948   2.919  1.00 28.42 LIG 0.18  C 
BRANCH 31 32
ATOM     32  C   ASN B   4       0.444  21.320   2.898  1.00 28.91 LIG 0.24  C 
ATOM     33 O    ASN B   4       1.249  20.721   3.554  1.00 29.45 LIG-0.27  OA
ATOM     34  N   GLY B   5       0.797  22.309   2.118  1.00 28.92 LIG-0.35  N 
ATOM     35 H    GLY B   5       0.266  22.730   1.588  1.00 28.92 LIG 0.16  HD
BRANCH 34 36
ATOM     36  CA  GLY B   5       2.144  22.762   2.109  1.00 29.35 LIG 0.21  C 
BRANCH 36 37
ATOM     37  C   GLY B   5       3.122  21.845   1.472  1.00 28.99 LIG 0.21  C 
ATOM     38 O    GLY B   5       2.782  20.732   1.234  1.00 30.45 LIG-0.29  OA
ENDBRANCH 36 37
ENDBRANCH 34 36
ENDBRANCH 31 32
BRANCH 31 39
ATOM     39  CB  ASN B   4      -1.850  22.116   3.446  1.00 28.79 LIG 0.14  C 
BRANCH 39 40
ATOM     40  CG  ASN B   4      -3.131  22.283   2.713  1.00 30.59 LIG 0.22  C 
ATOM     41  ND2 ASN B   4      -3.102  22.950   1.577  1.00 33.19 LIG-0.37  N 
ATOM     42 22HD ASN B   4      -2.355  23.244   1.270  1.00 33.19 LIG 0.16  HD
ATOM     43 21HD ASN B   4      -3.830  23.092   1.143  1.00 33.19 LIG 0.16  HD
ATOM     44 OD1  ASN B   4      -4.149  21.855   3.180  1.00 34.60 LIG-0.27  OA
ENDBRANCH 39 40
ENDBRANCH 31 39
ENDBRANCH 28 31
ENDBRANCH 25 27
ENDBRANCH 3 25
TORSDOF 16
ENDMDL
MODEL 24
USER: ADFR SOLUTION from run 55
USER: SCORE 13.680914 LL:  -2.204 LR: -12.665 RR:   0.000 FEB:  -7.892
USER: RMSD 8.957264
USER: SEED 54
USER: STATUS no improvement in best in 15 clusters for 5 generations
USER: GENES 18
USER: genes 0 Translation |==|  0.48732 0.60024 0.40507
USER: genes 1 Rotation |==|  0.81316 0.39047 0.36379 0.84839
USER: genes 2 Torsion [N]-C--CA-[N] |==|  0.35764
USER: genes 3 Torsion [C]-CA--N-[C] |==|  0.52841
USER: genes 4 Torsion [N]-C--CA-[N] |==|  0.07415
USER: genes 5 Torsion [C]-CA--CB-[OG] |==|  0.19542
USER: genes 6 Torsion [CA]-CB--OG-[HG] |==|  0.22273
USER: genes 7 Torsion [C]-CA--N-[H1] |==|  0.34219
USER: genes 8 Torsion [C]-CA--CB-[CG] |==|  0.19940
USER: genes 9 Torsion [CA]-CB--CG-[CD1] |==|  0.05311
USER: genes 10 Torsion [C]-N--CA-[CB] |==|  0.79986
USER: genes 11 Torsion [N]-CA--C-[N] |==|  0.21058
USER: genes 12 Torsion [C]-N--CA-[C] |==|  0.54498
USER: genes 13 Torsion [N]-CA--C-[N] |==|  0.40512
USER: genes 14 Torsion [C]-N--CA-[C] |==|  0.51287
USER: genes 15 Torsion [N]-CA--C-[O] |==|  0.31351
USER: genes 16 Torsion [N]-CA--CB-[CG] |==|  0.72453
USER: genes 17 Torsion [CA]-CB--CG-[OD1] |==|  0.81917
ROOT
ATOM      1  C   PHE B   2      -2.599  21.234   2.381  1.00 26.65 LIG 0.24  C 
ATOM      2 O    PHE B   2      -2.926  22.351   2.661  1.00 26.69 LIG-0.27  OA
ATOM      3  N   ALA B   3      -3.411  20.307   1.926  1.00 26.24 LIG-0.35  N 
ATOM      4 H    ALA B   3      -3.192  19.489   1.779  1.00 26.24 LIG 0.16  HD
ENDROOT
BRANCH 1 5
ATOM      5  CA  PHE B   2      -1.200  20.754   2.534  1.00 26.41 LIG 0.18  C 
BRANCH 5 6
ATOM      6  N   PHE B   2      -0.254  21.614   1.902  1.00 26.57 LIG-0.35  N 
ATOM      7  C   SER B   1       0.994  21.212   1.781  1.00 27.36 LIG 0.25  C 
ATOM      8 O    SER B   1       1.408  20.163   2.197  1.00 27.79 LIG-0.27  OA
ATOM      9 H    PHE B   2      -0.562  22.369   1.628  1.00 26.57 LIG 0.16  HD
BRANCH 7 10
ATOM     10  CA  SER B   1       1.955  22.157   1.150  1.00 27.82 LIG 0.30  C 
BRANCH 10 11
ATOM     11  CB  SER B   1       3.361  22.057   1.686  1.00 27.59 LIG 0.21  C 
BRANCH 11 12
ATOM     12 OG   SER B   1       3.965  20.851   1.276  1.00 28.50 LIG-0.40  OA
ATOM     13 HG   SER B   1       4.242  20.931   0.486  1.00 28.50 LIG 0.21  HD
ENDBRANCH 11 12
ENDBRANCH 10 11
BRANCH 10 14
ATOM     14  N   SER B   1       1.407  23.458   1.417  1.00 28.84 LIG-0.06  N 
ATOM     15 H3   SER B   1       0.677  23.377   1.919  1.00 28.84 LIG 0.28  HD
ATOM     16 H2   SER B   1       1.196  23.855   0.648  1.00 28.84 LIG 0.28  HD
ATOM     17 H1   SER B   1       2.010  23.951   1.848  1.00 28.84 LIG 0.28  HD
ENDBRANCH 10 14
ENDBRANCH 7 10
ENDBRANCH 5 6
BRANCH 5 18
ATOM     18  CB  PHE B   2      -0.922  20.586   3.983  1.00 26.01 LIG 0.07  C 
BRANCH 18 19
ATOM     19  CG  PHE B   2      -1.600  19.463   4.557  1.00 24.17 LIG-0.06  A 
ATOM     20  CD1 PHE B   2      -2.073  18.465   3.759  1.00 21.37 LIG 0.01  A 
ATOM     21  CE1 PHE B   2      -2.675  17.479   4.280  1.00 18.48 LIG 0.00  A 
ATOM     22  CZ  PHE B   2      -2.838  17.407   5.568  1.00 20.70 LIG 0.00  A 
ATOM     23  CE2 PHE B   2      -2.367  18.294   6.373  1.00 22.44 LIG 0.00  A 
ATOM     24  CD2 PHE B   2      -1.747  19.352   5.888  1.00 23.60 LIG 0.01  A 
ENDBRANCH 18 19
ENDBRANCH 5 18
ENDBRANCH 1 5
BRANCH 3 25
ATOM     25  CA  ALA B   3      -4.755  20.634   1.640  1.00 26.83 LIG 0.17  C 
ATOM     26  CB  ALA B   3      -5.521  20.848   2.917  1.00 26.24 LIG 0.04  C 
BRANCH 25 27
ATOM     27  C   ALA B   3      -4.776  21.886   0.798  1.00 26.95 LIG 0.24  C 
ATOM     28  N   ASN B   4      -4.445  21.716  -0.461  1.00 27.94 LIG-0.35  N 
ATOM     29 H    ASN B   4      -4.063  21.015  -0.781  1.00 27.94 LIG 0.16  HD
ATOM     30 O    ALA B   3      -5.077  22.914   1.264  1.00 26.45 LIG-0.27  OA
BRANCH 28 31
ATOM     31  CA  ASN B   4      -4.723  22.754  -1.415  1.00 28.42 LIG 0.18  C 
BRANCH 31 32
ATOM     32  C   ASN B   4      -4.623  22.166  -2.801  1.00 28.91 LIG 0.24  C 
ATOM     33 O    ASN B   4      -3.844  21.290  -3.051  1.00 29.45 LIG-0.27  OA
ATOM     34  N   GLY B   5      -5.436  22.639  -3.710  1.00 28.92 LIG-0.35  N 
ATOM     35 H    GLY B   5      -6.049  23.225  -3.564  1.00 28.92 LIG 0.16  HD
BRANCH 34 36
ATOM     36  CA  GLY B   5      -5.343  22.186  -5.054  1.00 29.35 LIG 0.21  C 
BRANCH 36 37
ATOM     37  C   GLY B   5      -6.241  22.866  -6.020  1.00 28.99 LIG 0.21  C 
ATOM     38 O    GLY B   5      -5.755  23.548  -6.862  1.00 30.45 LIG-0.29  OA
ENDBRANCH 36 37
ENDBRANCH 34 36
ENDBRANCH 31 32
BRANCH 31 39
ATOM     39  CB  ASN B   4      -3.741  23.914  -1.264  1.00 28.79 LIG 0.14  C 
BRANCH 39 40
ATOM     40  CG  ASN B   4      -4.307  25.045  -0.485  1.00 30.59 LIG 0.22  C 
ATOM     41  ND2 ASN B   4      -3.779  25.297   0.696  1.00 33.19 LIG-0.37  N 
ATOM     42 22HD ASN B   4      -3.111  24.835   0.976  1.00 33.19 LIG 0.16  HD
ATOM     43 21HD ASN B   4      -4.104  25.924   1.187  1.00 33.19 LIG 0.16  HD
ATOM     44 OD1  ASN B   4      -5.239  25.663  -0.916  1.00 34.60 LIG-0.27  OA
ENDBRANCH 39 40
ENDBRANCH 31 39
ENDBRANCH 28 31
ENDBRANCH 25 27
ENDBRANCH 3 25
TORSDOF 16
ENDMDL
MODEL 25
USER: ADFR SOLUTION from run 190
USER: SCORE 14.761524 LL:  -3.036 LR: -12.657 RR:   0.000 FEB:  -7.884
USER: RMSD 4.685942
USER: SEED 189
USER: STATUS no improvement in best in 13 clusters for 5 generations
USER: GENES 18
USER: genes 0 Translation |==|  0.51573 0.55576 0.44247
USER: genes 1 Rotation |==|  0.31849 0.26836 0.76220 0.80765
USER: genes 2 Torsion [N]-C--CA-[N] |==|  0.48773
USER: genes 3 Torsion [C]-CA--N-[C] |==|  0.77705
USER: genes 4 Torsion [N]-C--CA-[N] |==|  0.17135
USER: genes 5 Torsion [C]-CA--CB-[OG] |==|  0.34913
USER: genes 6 Torsion [CA]-CB--OG-[HG] |==|  0.30500
USER: genes 7 Torsion [C]-CA--N-[H1] |==|  0.28640
USER: genes 8 Torsion [C]-CA--CB-[CG] |==|  0.86878
USER: genes 9 Torsion [CA]-CB--CG-[CD1] |==|  0.79594
USER: genes 10 Torsion [C]-N--CA-[CB] |==|  0.18973
USER: genes 11 Torsion [N]-CA--C-[N] |==|  0.03896
USER: genes 12 Torsion [C]-N--CA-[C] |==|  0.19671
USER: genes 13 Torsion [N]-CA--C-[N] |==|  0.09512
USER: genes 14 Torsion [C]-N--CA-[C] |==|  0.67883
USER: genes 15 Torsion [N]-CA--C-[O] |==|  0.54692
USER: genes 16 Torsion [N]-CA--CB-[CG] |==|  0.77653
USER: genes 17 Torsion [CA]-CB--CG-[OD1] |==|  0.11118
ROOT
ATOM      1  C   PHE B   2      -2.045  20.566   3.250  1.00 26.65 LIG 0.24  C 
ATOM      2 O    PHE B   2      -1.596  19.679   2.583  1.00 26.69 LIG-0.27  OA
ATOM      3  N   ALA B   3      -2.971  20.418   4.170  1.00 26.24 LIG-0.35  N 
ATOM      4 H    ALA B   3      -3.337  21.060   4.609  1.00 26.24 LIG 0.16  HD
ENDROOT
BRANCH 1 5
ATOM      5  CA  PHE B   2      -1.600  21.978   3.099  1.00 26.41 LIG 0.18  C 
BRANCH 5 6
ATOM      6  N   PHE B   2      -0.526  22.116   2.172  1.00 26.57 LIG-0.35  N 
ATOM      7  C   SER B   1       0.700  21.841   2.567  1.00 27.36 LIG 0.25  C 
ATOM      8 O    SER B   1       0.987  21.501   3.684  1.00 27.79 LIG-0.27  OA
ATOM      9 H    PHE B   2      -0.746  22.379   1.383  1.00 26.57 LIG 0.16  HD
BRANCH 7 10
ATOM     10  CA  SER B   1       1.794  22.036   1.579  1.00 27.82 LIG 0.30  C 
BRANCH 10 11
ATOM     11  CB  SER B   1       3.160  21.646   2.085  1.00 27.59 LIG 0.21  C 
BRANCH 11 12
ATOM     12 OG   SER B   1       3.767  20.721   1.213  1.00 28.50 LIG-0.40  OA
ATOM     13 HG   SER B   1       4.407  21.091   0.813  1.00 28.50 LIG 0.21  HD
ENDBRANCH 11 12
ENDBRANCH 10 11
BRANCH 10 14
ATOM     14  N   SER B   1       1.755  23.439   1.270  1.00 28.84 LIG-0.06  N 
ATOM     15 H3   SER B   1       0.975  23.779   1.531  1.00 28.84 LIG 0.28  HD
ATOM     16 H2   SER B   1       1.849  23.554   0.393  1.00 28.84 LIG 0.28  HD
ATOM     17 H1   SER B   1       2.416  23.855   1.696  1.00 28.84 LIG 0.28  HD
ENDBRANCH 10 14
ENDBRANCH 7 10
ENDBRANCH 5 6
BRANCH 5 18
ATOM     18  CB  PHE B   2      -2.778  22.797   2.716  1.00 26.01 LIG 0.07  C 
BRANCH 18 19
ATOM     19  CG  PHE B   2      -3.546  22.214   1.657  1.00 24.17 LIG-0.06  A 
ATOM     20  CD1 PHE B   2      -3.073  22.225   0.380  1.00 21.37 LIG 0.01  A 
ATOM     21  CE1 PHE B   2      -3.765  21.710  -0.549  1.00 18.48 LIG 0.00  A 
ATOM     22  CZ  PHE B   2      -4.917  21.164  -0.291  1.00 20.70 LIG 0.00  A 
ATOM     23  CE2 PHE B   2      -5.388  21.078   0.903  1.00 22.44 LIG 0.00  A 
ATOM     24  CD2 PHE B   2      -4.721  21.613   1.907  1.00 23.60 LIG 0.01  A 
ENDBRANCH 18 19
ENDBRANCH 5 18
ENDBRANCH 1 5
BRANCH 3 25
ATOM     25  CA  ALA B   3      -3.431  19.123   4.496  1.00 26.83 LIG 0.17  C 
ATOM     26  CB  ALA B   3      -2.345  18.342   5.184  1.00 26.24 LIG 0.04  C 
BRANCH 25 27
ATOM     27  C   ALA B   3      -4.635  19.255   5.396  1.00 26.95 LIG 0.24  C 
ATOM     28  N   ASN B   4      -5.163  20.456   5.448  1.00 27.94 LIG-0.35  N 
ATOM     29 H    ASN B   4      -4.784  21.174   5.163  1.00 27.94 LIG 0.16  HD
ATOM     30 O    ALA B   3      -5.045  18.332   5.984  1.00 26.45 LIG-0.27  OA
BRANCH 28 31
ATOM     31  CA  ASN B   4      -6.471  20.633   6.014  1.00 28.42 LIG 0.18  C 
BRANCH 31 32
ATOM     32  C   ASN B   4      -6.377  20.420   7.505  1.00 28.91 LIG 0.24  C 
ATOM     33 O    ASN B   4      -7.268  19.904   8.118  1.00 29.45 LIG-0.27  OA
ATOM     34  N   GLY B   5      -5.274  20.805   8.094  1.00 28.92 LIG-0.35  N 
ATOM     35 H    GLY B   5      -4.587  21.126   7.689  1.00 28.92 LIG 0.16  HD
BRANCH 34 36
ATOM     36  CA  GLY B   5      -5.149  20.705   9.506  1.00 29.35 LIG 0.21  C 
BRANCH 36 37
ATOM     37  C   GLY B   5      -5.009  21.995  10.227  1.00 28.99 LIG 0.21  C 
ATOM     38 O    GLY B   5      -4.602  21.980  11.343  1.00 30.45 LIG-0.29  OA
ENDBRANCH 36 37
ENDBRANCH 34 36
ENDBRANCH 31 32
BRANCH 31 39
ATOM     39  CB  ASN B   4      -7.470  19.650   5.405  1.00 28.79 LIG 0.14  C 
BRANCH 39 40
ATOM     40  CG  ASN B   4      -7.975  20.094   4.081  1.00 30.59 LIG 0.22  C 
ATOM     41  ND2 ASN B   4      -9.241  19.862   3.802  1.00 33.19 LIG-0.37  N 
ATOM     42 22HD ASN B   4      -9.751  19.494   4.388  1.00 33.19 LIG 0.16  HD
ATOM     43 21HD ASN B   4      -9.559  20.078   3.032  1.00 33.19 LIG 0.16  HD
ATOM     44 OD1  ASN B   4      -7.227  20.604   3.295  1.00 34.60 LIG-0.27  OA
ENDBRANCH 39 40
ENDBRANCH 31 39
ENDBRANCH 28 31
ENDBRANCH 25 27
ENDBRANCH 3 25
TORSDOF 16
ENDMDL
MODEL 26
USER: ADFR SOLUTION from run 30
USER: SCORE 13.679316 LL:  -2.768 LR: -12.637 RR:   0.000 FEB:  -7.864
USER: RMSD 9.570889
USER: SEED 29
USER: STATUS no improvement in best in 44 clusters for 5 generations
USER: GENES 18
USER: genes 0 Translation |==|  0.47198 0.45517 0.57281
USER: genes 1 Rotation |==|  0.88522 0.33511 0.70742 0.67719
USER: genes 2 Torsion [N]-C--CA-[N] |==|  0.44212
USER: genes 3 Torsion [C]-CA--N-[C] |==|  0.20000
USER: genes 4 Torsion [N]-C--CA-[N] |==|  0.61807
USER: genes 5 Torsion [C]-CA--CB-[OG] |==|  0.74210
USER: genes 6 Torsion [CA]-CB--OG-[HG] |==|  0.24685
USER: genes 7 Torsion [C]-CA--N-[H1] |==|  0.90114
USER: genes 8 Torsion [C]-CA--CB-[CG] |==|  0.48922
USER: genes 9 Torsion [CA]-CB--CG-[CD1] |==|  0.32942
USER: genes 10 Torsion [C]-N--CA-[CB] |==|  0.85247
USER: genes 11 Torsion [N]-CA--C-[N] |==|  0.25805
USER: genes 12 Torsion [C]-N--CA-[C] |==|  0.68459
USER: genes 13 Torsion [N]-CA--C-[N] |==|  0.40727
USER: genes 14 Torsion [C]-N--CA-[C] |==|  0.85243
USER: genes 15 Torsion [N]-CA--C-[O] |==|  0.81495
USER: genes 16 Torsion [N]-CA--CB-[CG] |==|  0.41459
USER: genes 17 Torsion [CA]-CB--CG-[OD1] |==|  0.69281
ROOT
ATOM      1  C   PHE B   2      -2.898  19.058   6.281  1.00 26.65 LIG 0.24  C 
ATOM      2 O    PHE B   2      -3.829  19.589   5.746  1.00 26.69 LIG-0.27  OA
ATOM      3  N   ALA B   3      -1.940  18.417   5.653  1.00 26.24 LIG-0.35  N 
ATOM      4 H    ALA B   3      -1.303  17.984   6.036  1.00 26.24 LIG 0.16  HD
ENDROOT
BRANCH 1 5
ATOM      5  CA  PHE B   2      -2.727  19.054   7.758  1.00 26.41 LIG 0.18  C 
BRANCH 5 6
ATOM      6  N   PHE B   2      -3.452  20.103   8.396  1.00 26.57 LIG-0.35  N 
ATOM      7  C   SER B   1      -4.764  20.023   8.465  1.00 27.36 LIG 0.25  C 
ATOM      8 O    SER B   1      -5.411  19.124   7.995  1.00 27.79 LIG-0.27  OA
ATOM      9 H    PHE B   2      -2.976  20.747   8.709  1.00 26.57 LIG 0.16  HD
BRANCH 7 10
ATOM     10  CA  SER B   1      -5.483  21.158   9.104  1.00 27.82 LIG 0.30  C 
BRANCH 10 11
ATOM     11  CB  SER B   1      -4.602  22.055   9.937  1.00 27.59 LIG 0.21  C 
BRANCH 11 12
ATOM     12 OG   SER B   1      -4.602  21.641  11.284  1.00 28.50 LIG-0.40  OA
ATOM     13 HG   SER B   1      -3.993  21.074  11.403  1.00 28.50 LIG 0.21  HD
ENDBRANCH 11 12
ENDBRANCH 10 11
BRANCH 10 14
ATOM     14  N   SER B   1      -6.482  20.533   9.927  1.00 28.84 LIG-0.06  N 
ATOM     15 H3   SER B   1      -7.156  21.100  10.058  1.00 28.84 LIG 0.28  HD
ATOM     16 H2   SER B   1      -6.125  20.310  10.711  1.00 28.84 LIG 0.28  HD
ATOM     17 H1   SER B   1      -6.785  19.801   9.521  1.00 28.84 LIG 0.28  HD
ENDBRANCH 10 14
ENDBRANCH 7 10
ENDBRANCH 5 6
BRANCH 5 18
ATOM     18  CB  PHE B   2      -3.118  17.715   8.267  1.00 26.01 LIG 0.07  C 
BRANCH 18 19
ATOM     19  CG  PHE B   2      -2.907  17.568   9.676  1.00 24.17 LIG-0.06  A 
ATOM     20  CD1 PHE B   2      -3.959  17.317  10.505  1.00 21.37 LIG 0.01  A 
ATOM     21  CE1 PHE B   2      -3.760  17.194  11.751  1.00 18.48 LIG 0.00  A 
ATOM     22  CZ  PHE B   2      -2.560  17.296  12.243  1.00 20.70 LIG 0.00  A 
ATOM     23  CE2 PHE B   2      -1.524  17.480  11.502  1.00 22.44 LIG 0.00  A 
ATOM     24  CD2 PHE B   2      -1.672  17.633  10.201  1.00 23.60 LIG 0.01  A 
ENDBRANCH 18 19
ENDBRANCH 5 18
ENDBRANCH 1 5
BRANCH 3 25
ATOM     25  CA  ALA B   3      -1.913  18.409   4.241  1.00 26.83 LIG 0.17  C 
ATOM     26  CB  ALA B   3      -3.236  17.944   3.696  1.00 26.24 LIG 0.04  C 
BRANCH 25 27
ATOM     27  C   ALA B   3      -1.608  19.806   3.759  1.00 26.95 LIG 0.24  C 
ATOM     28  N   ASN B   4      -0.337  20.058   3.549  1.00 27.94 LIG-0.35  N 
ATOM     29 H    ASN B   4       0.315  19.569   3.824  1.00 27.94 LIG 0.16  HD
ATOM     30 O    ALA B   3      -2.467  20.580   3.589  1.00 26.45 LIG-0.27  OA
BRANCH 28 31
ATOM     31  CA  ASN B   4       0.042  21.229   2.807  1.00 28.42 LIG 0.18  C 
BRANCH 31 32
ATOM     32  C   ASN B   4       0.671  20.788   1.509  1.00 28.91 LIG 0.24  C 
ATOM     33 O    ASN B   4       1.303  19.771   1.437  1.00 29.45 LIG-0.27  OA
ATOM     34  N   GLY B   5       0.480  21.550   0.463  1.00 28.92 LIG-0.35  N 
ATOM     35 H    GLY B   5      -0.011  22.256   0.454  1.00 28.92 LIG 0.16  HD
BRANCH 34 36
ATOM     36  CA  GLY B   5       1.108  21.235  -0.772  1.00 29.35 LIG 0.21  C 
BRANCH 36 37
ATOM     37  C   GLY B   5       2.579  21.044  -0.710  1.00 28.99 LIG 0.21  C 
ATOM     38 O    GLY B   5       3.262  21.980  -0.451  1.00 30.45 LIG-0.29  OA
ENDBRANCH 36 37
ENDBRANCH 34 36
ENDBRANCH 31 32
BRANCH 31 39
ATOM     39  CB  ASN B   4       1.025  22.087   3.603  1.00 28.79 LIG 0.14  C 
BRANCH 39 40
ATOM     40  CG  ASN B   4       1.970  22.830   2.732  1.00 30.59 LIG 0.22  C 
ATOM     41  ND2 ASN B   4       1.475  23.779   1.963  1.00 33.19 LIG-0.37  N 
ATOM     42 22HD ASN B   4       0.638  23.970   2.000  1.00 33.19 LIG 0.16  HD
ATOM     43 21HD ASN B   4       1.989  24.208   1.423  1.00 33.19 LIG 0.16  HD
ATOM     44 OD1  ASN B   4       3.131  22.530   2.713  1.00 34.60 LIG-0.27  OA
ENDBRANCH 39 40
ENDBRANCH 31 39
ENDBRANCH 28 31
ENDBRANCH 25 27
ENDBRANCH 3 25
TORSDOF 16
ENDMDL
MODEL 27
USER: ADFR SOLUTION from run 199
USER: SCORE 14.333819 LL:  -2.892 LR: -12.625 RR:   0.000 FEB:  -7.852
USER: RMSD 3.537499
USER: SEED 198
USER: STATUS no improvement in best in 10 clusters for 5 generations
USER: GENES 18
USER: genes 0 Translation |==|  0.47091 0.46063 0.54273
USER: genes 1 Rotation |==|  0.79468 0.63511 0.12413 0.56028
USER: genes 2 Torsion [N]-C--CA-[N] |==|  0.21698
USER: genes 3 Torsion [C]-CA--N-[C] |==|  0.56667
USER: genes 4 Torsion [N]-C--CA-[N] |==|  0.17837
USER: genes 5 Torsion [C]-CA--CB-[OG] |==|  0.56329
USER: genes 6 Torsion [CA]-CB--OG-[HG] |==|  0.15511
USER: genes 7 Torsion [C]-CA--N-[H1] |==|  0.48992
USER: genes 8 Torsion [C]-CA--CB-[CG] |==|  0.70530
USER: genes 9 Torsion [CA]-CB--CG-[CD1] |==|  0.19062
USER: genes 10 Torsion [C]-N--CA-[CB] |==|  0.84583
USER: genes 11 Torsion [N]-CA--C-[N] |==|  0.27977
USER: genes 12 Torsion [C]-N--CA-[C] |==|  0.80235
USER: genes 13 Torsion [N]-CA--C-[N] |==|  0.95208
USER: genes 14 Torsion [C]-N--CA-[C] |==|  0.68772
USER: genes 15 Torsion [N]-CA--C-[O] |==|  0.16238
USER: genes 16 Torsion [N]-CA--CB-[CG] |==|  0.97045
USER: genes 17 Torsion [CA]-CB--CG-[OD1] |==|  0.75350
ROOT
ATOM      1  C   PHE B   2      -2.919  19.139   5.582  1.00 26.65 LIG 0.24  C 
ATOM      2 O    PHE B   2      -1.997  19.069   6.342  1.00 26.69 LIG-0.27  OA
ATOM      3  N   ALA B   3      -4.180  18.994   5.917  1.00 26.24 LIG-0.35  N 
ATOM      4 H    ALA B   3      -4.839  18.986   5.365  1.00 26.24 LIG 0.16  HD
ENDROOT
BRANCH 1 5
ATOM      5  CA  PHE B   2      -2.732  19.395   4.128  1.00 26.41 LIG 0.18  C 
BRANCH 5 6
ATOM      6  N   PHE B   2      -3.021  20.743   3.768  1.00 26.57 LIG-0.35  N 
ATOM      7  C   SER B   1      -3.366  21.014   2.526  1.00 27.36 LIG 0.25  C 
ATOM      8 O    SER B   1      -3.429  20.192   1.650  1.00 27.79 LIG-0.27  OA
ATOM      9 H    PHE B   2      -2.952  21.321   4.401  1.00 26.57 LIG 0.16  HD
BRANCH 7 10
ATOM     10  CA  SER B   1      -3.622  22.438   2.185  1.00 27.82 LIG 0.30  C 
BRANCH 10 11
ATOM     11  CB  SER B   1      -4.124  22.656   0.780  1.00 27.59 LIG 0.21  C 
BRANCH 11 12
ATOM     12 OG   SER B   1      -3.856  23.973   0.355  1.00 28.50 LIG-0.40  OA
ATOM     13 HG   SER B   1      -3.033  24.128   0.425  1.00 28.50 LIG 0.21  HD
ENDBRANCH 11 12
ENDBRANCH 10 11
BRANCH 10 14
ATOM     14  N   SER B   1      -2.352  23.086   2.369  1.00 28.84 LIG-0.06  N 
ATOM     15 H3   SER B   1      -1.737  22.684   1.866  1.00 28.84 LIG 0.28  HD
ATOM     16 H2   SER B   1      -2.114  23.035   3.225  1.00 28.84 LIG 0.28  HD
ATOM     17 H1   SER B   1      -2.417  23.941   2.130  1.00 28.84 LIG 0.28  HD
ENDBRANCH 10 14
ENDBRANCH 7 10
ENDBRANCH 5 6
BRANCH 5 18
ATOM     18  CB  PHE B   2      -1.347  19.003   3.763  1.00 26.01 LIG 0.07  C 
BRANCH 18 19
ATOM     19  CG  PHE B   2      -0.489  20.127   3.536  1.00 24.17 LIG-0.06  A 
ATOM     20  CD1 PHE B   2      -0.123  20.932   4.573  1.00 21.37 LIG 0.01  A 
ATOM     21  CE1 PHE B   2       0.633  21.926   4.357  1.00 18.48 LIG 0.00  A 
ATOM     22  CZ  PHE B   2       1.069  22.179   3.159  1.00 20.70 LIG 0.00  A 
ATOM     23  CE2 PHE B   2       0.799  21.423   2.152  1.00 22.44 LIG 0.00  A 
ATOM     24  CD2 PHE B   2       0.002  20.385   2.312  1.00 23.60 LIG 0.01  A 
ENDBRANCH 18 19
ENDBRANCH 5 18
ENDBRANCH 1 5
BRANCH 3 25
ATOM     25  CA  ALA B   3      -4.528  18.836   7.277  1.00 26.83 LIG 0.17  C 
ATOM     26  CB  ALA B   3      -3.781  17.676   7.875  1.00 26.24 LIG 0.04  C 
BRANCH 25 27
ATOM     27  C   ALA B   3      -4.191  20.111   8.010  1.00 26.95 LIG 0.24  C 
ATOM     28  N   ASN B   4      -5.209  20.907   8.243  1.00 27.94 LIG-0.35  N 
ATOM     29 H    ASN B   4      -5.982  20.842   7.869  1.00 27.94 LIG 0.16  HD
ATOM     30 O    ALA B   3      -3.093  20.339   8.338  1.00 26.45 LIG-0.27  OA
BRANCH 28 31
ATOM     31  CA  ASN B   4      -5.071  21.981   9.186  1.00 28.42 LIG 0.18  C 
BRANCH 31 32
ATOM     32  C   ASN B   4      -5.000  21.390  10.573  1.00 28.91 LIG 0.24  C 
ATOM     33 O    ASN B   4      -4.602  22.032  11.504  1.00 29.45 LIG-0.27  OA
ATOM     34  N   GLY B   5      -5.411  20.157  10.718  1.00 28.92 LIG-0.35  N 
ATOM     35 H    GLY B   5      -5.757  19.678  10.093  1.00 28.92 LIG 0.16  HD
BRANCH 34 36
ATOM     36  CA  GLY B   5      -5.300  19.513  11.980  1.00 29.35 LIG 0.21  C 
BRANCH 36 37
ATOM     37  C   GLY B   5      -4.332  18.390  12.041  1.00 28.99 LIG 0.21  C 
ATOM     38 O    GLY B   5      -3.196  18.605  11.770  1.00 30.45 LIG-0.29  OA
ENDBRANCH 36 37
ENDBRANCH 34 36
ENDBRANCH 31 32
BRANCH 31 39
ATOM     39  CB  ASN B   4      -6.247  22.951   9.088  1.00 28.79 LIG 0.14  C 
BRANCH 39 40
ATOM     40  CG  ASN B   4      -7.098  22.699   7.897  1.00 30.59 LIG 0.22  C 
ATOM     41  ND2 ASN B   4      -8.093  21.844   8.027  1.00 33.19 LIG-0.37  N 
ATOM     42 22HD ASN B   4      -8.249  21.479   8.789  1.00 33.19 LIG 0.16  HD
ATOM     43 21HD ASN B   4      -8.585  21.651   7.349  1.00 33.19 LIG 0.16  HD
ATOM     44 OD1  ASN B   4      -6.843  23.233   6.854  1.00 34.60 LIG-0.27  OA
ENDBRANCH 39 40
ENDBRANCH 31 39
ENDBRANCH 28 31
ENDBRANCH 25 27
ENDBRANCH 3 25
TORSDOF 16
ENDMDL
MODEL 28
USER: ADFR SOLUTION from run 9
USER: SCORE 13.349892 LL:  -3.044 LR: -12.569 RR:   0.000 FEB:  -7.796
USER: RMSD 9.528606
USER: SEED 934020
USER: STATUS no improvement in best in 22 clusters for 5 generations
USER: GENES 18
USER: genes 0 Translation |==|  0.50417 0.57804 0.33543
USER: genes 1 Rotation |==|  0.11800 0.32987 0.38524 0.74893
USER: genes 2 Torsion [N]-C--CA-[N] |==|  0.85318
USER: genes 3 Torsion [C]-CA--N-[C] |==|  0.65000
USER: genes 4 Torsion [N]-C--CA-[N] |==|  0.02877
USER: genes 5 Torsion [C]-CA--CB-[OG] |==|  0.21671
USER: genes 6 Torsion [CA]-CB--OG-[HG] |==|  0.14338
USER: genes 7 Torsion [C]-CA--N-[H1] |==|  0.04180
USER: genes 8 Torsion [C]-CA--CB-[CG] |==|  0.28843
USER: genes 9 Torsion [CA]-CB--CG-[CD1] |==|  0.46766
USER: genes 10 Torsion [C]-N--CA-[CB] |==|  0.43090
USER: genes 11 Torsion [N]-CA--C-[N] |==|  0.92121
USER: genes 12 Torsion [C]-N--CA-[C] |==|  0.64995
USER: genes 13 Torsion [N]-CA--C-[N] |==|  0.41376
USER: genes 14 Torsion [C]-N--CA-[C] |==|  0.82705
USER: genes 15 Torsion [N]-CA--C-[O] |==|  0.32866
USER: genes 16 Torsion [N]-CA--CB-[CG] |==|  0.34236
USER: genes 17 Torsion [CA]-CB--CG-[OD1] |==|  0.23518
ROOT
ATOM      1  C   PHE B   2      -2.271  20.901   0.762  1.00 26.65 LIG 0.24  C 
ATOM      2 O    PHE B   2      -2.695  19.979   0.126  1.00 26.69 LIG-0.27  OA
ATOM      3  N   ALA B   3      -2.699  22.138   0.664  1.00 26.24 LIG-0.35  N 
ATOM      4 H    ALA B   3      -2.358  22.811   1.075  1.00 26.24 LIG 0.16  HD
ENDROOT
BRANCH 1 5
ATOM      5  CA  PHE B   2      -1.171  20.744   1.752  1.00 26.41 LIG 0.18  C 
BRANCH 5 6
ATOM      6  N   PHE B   2      -0.094  21.650   1.521  1.00 26.57 LIG-0.35  N 
ATOM      7  C   SER B   1       1.127  21.173   1.397  1.00 27.36 LIG 0.25  C 
ATOM      8 O    SER B   1       1.409  20.008   1.494  1.00 27.79 LIG-0.27  OA
ATOM      9 H    PHE B   2      -0.310  22.481   1.474  1.00 26.57 LIG 0.16  HD
BRANCH 7 10
ATOM     10  CA  SER B   1       2.224  22.156   1.196  1.00 27.82 LIG 0.30  C 
BRANCH 10 11
ATOM     11  CB  SER B   1       3.409  21.954   2.106  1.00 27.59 LIG 0.21  C 
BRANCH 11 12
ATOM     12 OG   SER B   1       4.213  20.891   1.646  1.00 28.50 LIG-0.40  OA
ATOM     13 HG   SER B   1       4.397  21.010   0.834  1.00 28.50 LIG 0.21  HD
ENDBRANCH 11 12
ENDBRANCH 10 11
BRANCH 10 14
ATOM     14  N   SER B   1       1.614  23.433   1.444  1.00 28.84 LIG-0.06  N 
ATOM     15 H3   SER B   1       1.480  23.854   0.671  1.00 28.84 LIG 0.28  HD
ATOM     16 H2   SER B   1       2.149  23.924   1.959  1.00 28.84 LIG 0.28  HD
ATOM     17 H1   SER B   1       0.834  23.314   1.855  1.00 28.84 LIG 0.28  HD
ENDBRANCH 10 14
ENDBRANCH 7 10
ENDBRANCH 5 6
BRANCH 5 18
ATOM     18  CB  PHE B   2      -1.747  20.895   3.112  1.00 26.01 LIG 0.07  C 
BRANCH 18 19
ATOM     19  CG  PHE B   2      -1.899  19.647   3.797  1.00 24.17 LIG-0.06  A 
ATOM     20  CD1 PHE B   2      -2.187  19.626   5.129  1.00 21.37 LIG 0.01  A 
ATOM     21  CE1 PHE B   2      -2.315  18.514   5.724  1.00 18.48 LIG 0.00  A 
ATOM     22  CZ  PHE B   2      -2.182  17.395   5.074  1.00 20.70 LIG 0.00  A 
ATOM     23  CE2 PHE B   2      -1.962  17.356   3.806  1.00 22.44 LIG 0.00  A 
ATOM     24  CD2 PHE B   2      -1.802  18.481   3.138  1.00 23.60 LIG 0.01  A 
ENDBRANCH 18 19
ENDBRANCH 5 18
ENDBRANCH 1 5
BRANCH 3 25
ATOM     25  CA  ALA B   3      -3.802  22.432  -0.168  1.00 26.83 LIG 0.17  C 
ATOM     26  CB  ALA B   3      -4.488  23.686   0.302  1.00 26.24 LIG 0.04  C 
BRANCH 25 27
ATOM     27  C   ALA B   3      -3.304  22.605  -1.581  1.00 26.95 LIG 0.24  C 
ATOM     28  N   ASN B   4      -2.066  23.030  -1.688  1.00 27.94 LIG-0.35  N 
ATOM     29 H    ASN B   4      -1.605  23.372  -1.047  1.00 27.94 LIG 0.16  HD
ATOM     30 O    ALA B   3      -3.994  22.360  -2.492  1.00 26.45 LIG-0.27  OA
BRANCH 28 31
ATOM     31  CA  ASN B   4      -1.389  22.937  -2.952  1.00 28.42 LIG 0.18  C 
BRANCH 31 32
ATOM     32  C   ASN B   4      -0.091  22.197  -2.744  1.00 28.91 LIG 0.24  C 
ATOM     33 O    ASN B   4       0.496  22.250  -1.700  1.00 29.45 LIG-0.27  OA
ATOM     34  N   GLY B   5       0.353  21.479  -3.743  1.00 28.92 LIG-0.35  N 
ATOM     35 H    GLY B   5      -0.061  21.364  -4.488  1.00 28.92 LIG 0.16  HD
BRANCH 34 36
ATOM     36  CA  GLY B   5       1.608  20.819  -3.643  1.00 29.35 LIG 0.21  C 
BRANCH 36 37
ATOM     37  C   GLY B   5       2.784  21.707  -3.470  1.00 28.99 LIG 0.21  C 
ATOM     38 O    GLY B   5       3.433  21.602  -2.480  1.00 30.45 LIG-0.29  OA
ENDBRANCH 36 37
ENDBRANCH 34 36
ENDBRANCH 31 32
BRANCH 31 39
ATOM     39  CB  ASN B   4      -1.116  24.325  -3.530  1.00 28.79 LIG 0.14  C 
BRANCH 39 40
ATOM     40  CG  ASN B   4       0.325  24.556  -3.806  1.00 30.59 LIG 0.22  C 
ATOM     41  ND2 ASN B   4       1.022  25.214  -2.902  1.00 33.19 LIG-0.37  N 
ATOM     42 22HD ASN B   4       0.648  25.465  -2.170  1.00 33.19 LIG 0.16  HD
ATOM     43 21HD ASN B   4       1.851  25.393  -3.044  1.00 33.19 LIG 0.16  HD
ATOM     44 OD1  ASN B   4       0.803  24.186  -4.842  1.00 34.60 LIG-0.27  OA
ENDBRANCH 39 40
ENDBRANCH 31 39
ENDBRANCH 28 31
ENDBRANCH 25 27
ENDBRANCH 3 25
TORSDOF 16
ENDMDL
MODEL 29
USER: ADFR SOLUTION from run 7
USER: SCORE 13.755518 LL:  -2.616 LR: -12.536 RR:   0.000 FEB:  -7.763
USER: RMSD 7.702773
USER: SEED 241782
USER: STATUS no improvement in best in 8 clusters for 5 generations
USER: GENES 18
USER: genes 0 Translation |==|  0.48434 0.60470 0.39814
USER: genes 1 Rotation |==|  0.01403 0.50504 0.51826 0.61607
USER: genes 2 Torsion [N]-C--CA-[N] |==|  0.01014
USER: genes 3 Torsion [C]-CA--N-[C] |==|  0.55574
USER: genes 4 Torsion [N]-C--CA-[N] |==|  0.05387
USER: genes 5 Torsion [C]-CA--CB-[OG] |==|  0.19646
USER: genes 6 Torsion [CA]-CB--OG-[HG] |==|  0.19712
USER: genes 7 Torsion [C]-CA--N-[H1] |==|  0.67121
USER: genes 8 Torsion [C]-CA--CB-[CG] |==|  0.22367
USER: genes 9 Torsion [CA]-CB--CG-[CD1] |==|  0.06425
USER: genes 10 Torsion [C]-N--CA-[CB] |==|  0.50684
USER: genes 11 Torsion [N]-CA--C-[N] |==|  0.36405
USER: genes 12 Torsion [C]-N--CA-[C] |==|  0.69551
USER: genes 13 Torsion [N]-CA--C-[N] |==|  0.03424
USER: genes 14 Torsion [C]-N--CA-[C] |==|  0.43727
USER: genes 15 Torsion [N]-CA--C-[O] |==|  0.06582
USER: genes 16 Torsion [N]-CA--CB-[CG] |==|  0.96486
USER: genes 17 Torsion [CA]-CB--CG-[OD1] |==|  0.21139
ROOT
ATOM      1  C   PHE B   2      -2.657  21.300   2.220  1.00 26.65 LIG 0.24  C 
ATOM      2 O    PHE B   2      -3.615  20.750   2.682  1.00 26.69 LIG-0.27  OA
ATOM      3  N   ALA B   3      -2.704  22.363   1.450  1.00 26.24 LIG-0.35  N 
ATOM      4 H    ALA B   3      -2.024  22.726   1.069  1.00 26.24 LIG 0.16  HD
ENDROOT
BRANCH 1 5
ATOM      5  CA  PHE B   2      -1.270  20.821   2.463  1.00 26.41 LIG 0.18  C 
BRANCH 5 6
ATOM      6  N   PHE B   2      -0.287  21.670   1.874  1.00 26.57 LIG-0.35  N 
ATOM      7  C   SER B   1       0.921  21.193   1.655  1.00 27.36 LIG 0.25  C 
ATOM      8 O    SER B   1       1.269  20.079   1.946  1.00 27.79 LIG-0.27  OA
ATOM      9 H    PHE B   2      -0.547  22.469   1.691  1.00 26.57 LIG 0.16  HD
BRANCH 7 10
ATOM     10  CA  SER B   1       1.925  22.124   1.075  1.00 27.82 LIG 0.30  C 
BRANCH 10 11
ATOM     11  CB  SER B   1       3.308  21.983   1.661  1.00 27.59 LIG 0.21  C 
BRANCH 11 12
ATOM     12 OG   SER B   1       3.902  20.774   1.246  1.00 28.50 LIG-0.40  OA
ATOM     13 HG   SER B   1       4.096  20.822   0.430  1.00 28.50 LIG 0.21  HD
ENDBRANCH 11 12
ENDBRANCH 10 11
BRANCH 10 14
ATOM     14  N   SER B   1       1.398  23.434   1.343  1.00 28.84 LIG-0.06  N 
ATOM     15 H3   SER B   1       1.986  23.898   1.823  1.00 28.84 LIG 0.28  HD
ATOM     16 H2   SER B   1       0.636  23.361   1.797  1.00 28.84 LIG 0.28  HD
ATOM     17 H1   SER B   1       1.246  23.855   0.574  1.00 28.84 LIG 0.28  HD
ENDBRANCH 10 14
ENDBRANCH 7 10
ENDBRANCH 5 6
BRANCH 5 18
ATOM     18  CB  PHE B   2      -1.079  20.678   3.929  1.00 26.01 LIG 0.07  C 
BRANCH 18 19
ATOM     19  CG  PHE B   2      -1.625  19.459   4.448  1.00 24.17 LIG-0.06  A 
ATOM     20  CD1 PHE B   2      -1.808  18.386   3.629  1.00 21.37 LIG 0.01  A 
ATOM     21  CE1 PHE B   2      -2.296  17.315   4.100  1.00 18.48 LIG 0.00  A 
ATOM     22  CZ  PHE B   2      -2.615  17.230   5.358  1.00 20.70 LIG 0.00  A 
ATOM     23  CE2 PHE B   2      -2.415  18.193   6.187  1.00 22.44 LIG 0.00  A 
ATOM     24  CD2 PHE B   2      -1.927  19.338   5.751  1.00 23.60 LIG 0.01  A 
ENDBRANCH 18 19
ENDBRANCH 5 18
ENDBRANCH 1 5
BRANCH 3 25
ATOM     25  CA  ALA B   3      -3.944  22.992   1.200  1.00 26.83 LIG 0.17  C 
ATOM     26  CB  ALA B   3      -3.761  24.144   0.249  1.00 26.24 LIG 0.04  C 
BRANCH 25 27
ATOM     27  C   ALA B   3      -4.889  21.972   0.614  1.00 26.95 LIG 0.24  C 
ATOM     28  N   ASN B   4      -6.074  21.922   1.178  1.00 27.94 LIG-0.35  N 
ATOM     29 H    ASN B   4      -6.276  22.281   1.933  1.00 27.94 LIG 0.16  HD
ATOM     30 O    ALA B   3      -4.561  21.298  -0.282  1.00 26.45 LIG-0.27  OA
BRANCH 28 31
ATOM     31  CA  ASN B   4      -7.145  21.225   0.521  1.00 28.42 LIG 0.18  C 
BRANCH 31 32
ATOM     32  C   ASN B   4      -8.145  22.242   0.031  1.00 28.91 LIG 0.24  C 
ATOM     33 O    ASN B   4      -9.238  21.914  -0.338  1.00 29.45 LIG-0.27  OA
ATOM     34  N   GLY B   5      -7.777  23.497   0.046  1.00 28.92 LIG-0.35  N 
ATOM     35 H    GLY B   5      -7.027  23.785   0.355  1.00 28.92 LIG 0.16  HD
BRANCH 34 36
ATOM     36  CA  GLY B   5      -8.640  24.499  -0.474  1.00 29.35 LIG 0.21  C 
BRANCH 36 37
ATOM     37  C   GLY B   5      -8.403  25.873   0.036  1.00 28.99 LIG 0.21  C 
ATOM     38 O    GLY B   5      -7.327  26.142   0.460  1.00 30.45 LIG-0.29  OA
ENDBRANCH 36 37
ENDBRANCH 34 36
ENDBRANCH 31 32
BRANCH 31 39
ATOM     39  CB  ASN B   4      -7.821  20.239   1.472  1.00 28.79 LIG 0.14  C 
BRANCH 39 40
ATOM     40  CG  ASN B   4      -7.041  20.019   2.718  1.00 30.59 LIG 0.22  C 
ATOM     41  ND2 ASN B   4      -6.404  18.873   2.845  1.00 33.19 LIG-0.37  N 
ATOM     42 22HD ASN B   4      -6.423  18.297   2.207  1.00 33.19 LIG 0.16  HD
ATOM     43 21HD ASN B   4      -5.970  18.700   3.567  1.00 33.19 LIG 0.16  HD
ATOM     44 OD1  ASN B   4      -7.043  20.852   3.580  1.00 34.60 LIG-0.27  OA
ENDBRANCH 39 40
ENDBRANCH 31 39
ENDBRANCH 28 31
ENDBRANCH 25 27
ENDBRANCH 3 25
TORSDOF 16
ENDMDL
MODEL 30
USER: ADFR SOLUTION from run 193
USER: SCORE 13.187626 LL:  -2.941 LR: -12.529 RR:   0.000 FEB:  -7.756
USER: RMSD 9.627936
USER: SEED 192
USER: STATUS no improvement in best in 7 clusters for 5 generations
USER: GENES 18
USER: genes 0 Translation |==|  0.45971 0.44156 0.60493
USER: genes 1 Rotation |==|  0.51990 0.99606 0.55943 0.50013
USER: genes 2 Torsion [N]-C--CA-[N] |==|  0.51608
USER: genes 3 Torsion [C]-CA--N-[C] |==|  0.62664
USER: genes 4 Torsion [N]-C--CA-[N] |==|  0.81098
USER: genes 5 Torsion [C]-CA--CB-[OG] |==|  0.64563
USER: genes 6 Torsion [CA]-CB--OG-[HG] |==|  0.18711
USER: genes 7 Torsion [C]-CA--N-[H1] |==|  0.39227
USER: genes 8 Torsion [C]-CA--CB-[CG] |==|  0.58403
USER: genes 9 Torsion [CA]-CB--CG-[CD1] |==|  0.74284
USER: genes 10 Torsion [C]-N--CA-[CB] |==|  0.41154
USER: genes 11 Torsion [N]-CA--C-[N] |==|  0.72797
USER: genes 12 Torsion [C]-N--CA-[C] |==|  0.67813
USER: genes 13 Torsion [N]-CA--C-[N] |==|  0.46531
USER: genes 14 Torsion [C]-N--CA-[C] |==|  0.68768
USER: genes 15 Torsion [N]-CA--C-[O] |==|  0.42635
USER: genes 16 Torsion [N]-CA--CB-[CG] |==|  0.71104
USER: genes 17 Torsion [CA]-CB--CG-[OD1] |==|  0.27869
ROOT
ATOM      1  C   PHE B   2      -3.138  18.853   7.028  1.00 26.65 LIG 0.24  C 
ATOM      2 O    PHE B   2      -2.134  18.943   7.674  1.00 26.69 LIG-0.27  OA
ATOM      3  N   ALA B   3      -3.182  18.549   5.751  1.00 26.24 LIG-0.35  N 
ATOM      4 H    ALA B   3      -3.895  18.542   5.271  1.00 26.24 LIG 0.16  HD
ENDROOT
BRANCH 1 5
ATOM      5  CA  PHE B   2      -4.484  19.096   7.613  1.00 26.41 LIG 0.18  C 
BRANCH 5 6
ATOM      6  N   PHE B   2      -4.419  19.553   8.962  1.00 26.57 LIG-0.35  N 
ATOM      7  C   SER B   1      -5.220  19.015   9.858  1.00 27.36 LIG 0.25  C 
ATOM      8 O    SER B   1      -6.037  18.168   9.611  1.00 27.79 LIG-0.27  OA
ATOM      9 H    PHE B   2      -3.844  20.173   9.118  1.00 26.57 LIG 0.16  HD
BRANCH 7 10
ATOM     10  CA  SER B   1      -5.146  19.549  11.245  1.00 27.82 LIG 0.30  C 
BRANCH 10 11
ATOM     11  CB  SER B   1      -5.293  21.047  11.339  1.00 27.59 LIG 0.21  C 
BRANCH 11 12
ATOM     12 OG   SER B   1      -4.227  21.605  12.072  1.00 28.50 LIG-0.40  OA
ATOM     13 HG   SER B   1      -3.512  21.515  11.640  1.00 28.50 LIG 0.21  HD
ENDBRANCH 11 12
ENDBRANCH 10 11
BRANCH 10 14
ATOM     14  N   SER B   1      -3.852  19.141  11.719  1.00 28.84 LIG-0.06  N 
ATOM     15 H3   SER B   1      -3.322  18.968  11.025  1.00 28.84 LIG 0.28  HD
ATOM     16 H2   SER B   1      -3.935  18.409  12.218  1.00 28.84 LIG 0.28  HD
ATOM     17 H1   SER B   1      -3.496  19.794  12.208  1.00 28.84 LIG 0.28  HD
ENDBRANCH 10 14
ENDBRANCH 7 10
ENDBRANCH 5 6
BRANCH 5 18
ATOM     18  CB  PHE B   2      -5.207  20.049   6.734  1.00 26.01 LIG 0.07  C 
BRANCH 18 19
ATOM     19  CG  PHE B   2      -6.138  20.873   7.446  1.00 24.17 LIG-0.06  A 
ATOM     20  CD1 PHE B   2      -7.440  20.490   7.567  1.00 21.37 LIG 0.01  A 
ATOM     21  CE1 PHE B   2      -8.254  21.231   8.196  1.00 18.48 LIG 0.00  A 
ATOM     22  CZ  PHE B   2      -7.856  22.346   8.733  1.00 20.70 LIG 0.00  A 
ATOM     23  CE2 PHE B   2      -6.628  22.731   8.695  1.00 22.44 LIG 0.00  A 
ATOM     24  CD2 PHE B   2      -5.740  22.011   8.040  1.00 23.60 LIG 0.01  A 
ENDBRANCH 18 19
ENDBRANCH 5 18
ENDBRANCH 1 5
BRANCH 3 25
ATOM     25  CA  ALA B   3      -1.993  18.202   5.073  1.00 26.83 LIG 0.17  C 
ATOM     26  CB  ALA B   3      -2.287  17.206   3.984  1.00 26.24 LIG 0.04  C 
BRANCH 25 27
ATOM     27  C   ALA B   3      -1.389  19.455   4.490  1.00 26.95 LIG 0.24  C 
ATOM     28  N   ASN B   4      -1.656  19.665   3.222  1.00 27.94 LIG-0.35  N 
ATOM     29 H    ASN B   4      -1.981  19.078   2.682  1.00 27.94 LIG 0.16  HD
ATOM     30 O    ALA B   3      -0.742  20.170   5.151  1.00 26.45 LIG-0.27  OA
BRANCH 28 31
ATOM     31  CA  ASN B   4      -1.403  20.956   2.646  1.00 28.42 LIG 0.18  C 
BRANCH 31 32
ATOM     32  C   ASN B   4      -2.721  21.553   2.216  1.00 28.91 LIG 0.24  C 
ATOM     33 O    ASN B   4      -3.722  20.894   2.184  1.00 29.45 LIG-0.27  OA
ATOM     34  N   GLY B   5      -2.727  22.822   1.900  1.00 28.92 LIG-0.35  N 
ATOM     35 H    GLY B   5      -2.048  23.347   1.963  1.00 28.92 LIG 0.16  HD
BRANCH 34 36
ATOM     36  CA  GLY B   5      -3.916  23.429   1.413  1.00 29.35 LIG 0.21  C 
BRANCH 36 37
ATOM     37  C   GLY B   5      -3.876  23.862  -0.006  1.00 28.99 LIG 0.21  C 
ATOM     38 O    GLY B   5      -4.897  23.922  -0.609  1.00 30.45 LIG-0.29  OA
ENDBRANCH 36 37
ENDBRANCH 34 36
ENDBRANCH 31 32
BRANCH 31 39
ATOM     39  CB  ASN B   4      -0.460  20.847   1.449  1.00 28.79 LIG 0.14  C 
BRANCH 39 40
ATOM     40  CG  ASN B   4       0.921  21.291   1.767  1.00 30.59 LIG 0.22  C 
ATOM     41  ND2 ASN B   4       1.170  22.585   1.734  1.00 33.19 LIG-0.37  N 
ATOM     42 22HD ASN B   4       0.536  23.140   1.565  1.00 33.19 LIG 0.16  HD
ATOM     43 21HD ASN B   4       1.966  22.874   1.882  1.00 33.19 LIG 0.16  HD
ATOM     44 OD1  ASN B   4       1.773  20.480   1.998  1.00 34.60 LIG-0.27  OA
ENDBRANCH 39 40
ENDBRANCH 31 39
ENDBRANCH 28 31
ENDBRANCH 25 27
ENDBRANCH 3 25
TORSDOF 16
ENDMDL
MODEL 31
USER: ADFR SOLUTION from run 29
USER: SCORE 15.083870 LL:  -3.498 LR: -12.482 RR:   0.000 FEB:  -7.709
USER: RMSD 5.013865
USER: SEED 28
USER: STATUS searching
USER: GENES 18
USER: genes 0 Translation |==|  0.55933 0.47910 0.40651
USER: genes 1 Rotation |==|  0.54848 0.31245 0.74864 0.88814
USER: genes 2 Torsion [N]-C--CA-[N] |==|  0.43124
USER: genes 3 Torsion [C]-CA--N-[C] |==|  0.80287
USER: genes 4 Torsion [N]-C--CA-[N] |==|  0.18700
USER: genes 5 Torsion [C]-CA--CB-[OG] |==|  0.86136
USER: genes 6 Torsion [CA]-CB--OG-[HG] |==|  0.52007
USER: genes 7 Torsion [C]-CA--N-[H1] |==|  0.89699
USER: genes 8 Torsion [C]-CA--CB-[CG] |==|  0.79229
USER: genes 9 Torsion [CA]-CB--CG-[CD1] |==|  0.71513
USER: genes 10 Torsion [C]-N--CA-[CB] |==|  0.25556
USER: genes 11 Torsion [N]-CA--C-[N] |==|  0.97967
USER: genes 12 Torsion [C]-N--CA-[C] |==|  0.76498
USER: genes 13 Torsion [N]-CA--C-[N] |==|  0.91126
USER: genes 14 Torsion [C]-N--CA-[C] |==|  0.44725
USER: genes 15 Torsion [N]-CA--C-[O] |==|  0.41096
USER: genes 16 Torsion [N]-CA--CB-[CG] |==|  0.12650
USER: genes 17 Torsion [CA]-CB--CG-[OD1] |==|  0.88599
ROOT
ATOM      1  C   PHE B   2      -1.195  19.416   2.414  1.00 26.65 LIG 0.24  C 
ATOM      2 O    PHE B   2      -1.395  19.193   1.255  1.00 26.69 LIG-0.27  OA
ATOM      3  N   ALA B   3      -1.255  18.520   3.371  1.00 26.24 LIG-0.35  N 
ATOM      4 H    ALA B   3      -1.169  18.687   4.210  1.00 26.24 LIG 0.16  HD
ENDROOT
BRANCH 1 5
ATOM      5  CA  PHE B   2      -0.859  20.777   2.915  1.00 26.41 LIG 0.18  C 
BRANCH 5 6
ATOM      6  N   PHE B   2      -0.255  21.594   1.915  1.00 26.57 LIG-0.35  N 
ATOM      7  C   SER B   1       0.974  21.323   1.525  1.00 27.36 LIG 0.25  C 
ATOM      8 O    SER B   1       1.645  20.435   1.980  1.00 27.79 LIG-0.27  OA
ATOM      9 H    PHE B   2      -0.741  22.236   1.614  1.00 26.57 LIG 0.16  HD
BRANCH 7 10
ATOM     10  CA  SER B   1       1.579  22.224   0.508  1.00 27.82 LIG 0.30  C 
BRANCH 10 11
ATOM     11  CB  SER B   1       2.905  21.746  -0.029  1.00 27.59 LIG 0.21  C 
BRANCH 11 12
ATOM     12 OG   SER B   1       3.776  21.409   1.027  1.00 28.50 LIG-0.40  OA
ATOM     13 HG   SER B   1       4.538  21.240   0.717  1.00 28.50 LIG 0.21  HD
ENDBRANCH 11 12
ENDBRANCH 10 11
BRANCH 10 14
ATOM     14  N   SER B   1       1.737  23.480   1.188  1.00 28.84 LIG-0.06  N 
ATOM     15 H3   SER B   1       1.774  24.139   0.591  1.00 28.84 LIG 0.28  HD
ATOM     16 H2   SER B   1       2.489  23.468   1.664  1.00 28.84 LIG 0.28  HD
ATOM     17 H1   SER B   1       1.045  23.612   1.732  1.00 28.84 LIG 0.28  HD
ENDBRANCH 10 14
ENDBRANCH 7 10
ENDBRANCH 5 6
BRANCH 5 18
ATOM     18  CB  PHE B   2      -2.097  21.388   3.463  1.00 26.01 LIG 0.07  C 
BRANCH 18 19
ATOM     19  CG  PHE B   2      -3.007  21.819   2.445  1.00 24.17 LIG-0.06  A 
ATOM     20  CD1 PHE B   2      -3.102  23.139   2.123  1.00 21.37 LIG 0.01  A 
ATOM     21  CE1 PHE B   2      -3.916  23.508   1.223  1.00 18.48 LIG 0.00  A 
ATOM     22  CZ  PHE B   2      -4.653  22.636   0.600  1.00 20.70 LIG 0.00  A 
ATOM     23  CE2 PHE B   2      -4.567  21.372   0.826  1.00 22.44 LIG 0.00  A 
ATOM     24  CD2 PHE B   2      -3.751  20.931   1.763  1.00 23.60 LIG 0.01  A 
ENDBRANCH 18 19
ENDBRANCH 5 18
ENDBRANCH 1 5
BRANCH 3 25
ATOM     25  CA  ALA B   3      -1.473  17.163   3.046  1.00 26.83 LIG 0.17  C 
ATOM     26  CB  ALA B   3      -0.160  16.450   2.872  1.00 26.24 LIG 0.04  C 
BRANCH 25 27
ATOM     27  C   ALA B   3      -2.274  16.526   4.155  1.00 26.95 LIG 0.24  C 
ATOM     28  N   ASN B   4      -2.458  17.282   5.213  1.00 27.94 LIG-0.35  N 
ATOM     29 H    ASN B   4      -2.025  18.006   5.384  1.00 27.94 LIG 0.16  HD
ATOM     30 O    ALA B   3      -2.691  15.441   4.044  1.00 26.45 LIG-0.27  OA
BRANCH 28 31
ATOM     31  CA  ASN B   4      -3.446  16.911   6.188  1.00 28.42 LIG 0.18  C 
BRANCH 31 32
ATOM     32  C   ASN B   4      -4.786  17.434   5.729  1.00 28.91 LIG 0.24  C 
ATOM     33 O    ASN B   4      -5.803  16.859   5.998  1.00 29.45 LIG-0.27  OA
ATOM     34  N   GLY B   5      -4.789  18.549   5.045  1.00 28.92 LIG-0.35  N 
ATOM     35 H    GLY B   5      -4.092  19.024   4.878  1.00 28.92 LIG 0.16  HD
BRANCH 34 36
ATOM     36  CA  GLY B   5      -6.007  19.056   4.516  1.00 29.35 LIG 0.21  C 
BRANCH 36 37
ATOM     37  C   GLY B   5      -5.995  20.495   4.153  1.00 28.99 LIG 0.21  C 
ATOM     38 O    GLY B   5      -6.666  20.855   3.242  1.00 30.45 LIG-0.29  OA
ENDBRANCH 36 37
ENDBRANCH 34 36
ENDBRANCH 31 32
BRANCH 31 39
ATOM     39  CB  ASN B   4      -3.102  17.483   7.562  1.00 28.79 LIG 0.14  C 
BRANCH 39 40
ATOM     40  CG  ASN B   4      -2.691  18.909   7.502  1.00 30.59 LIG 0.22  C 
ATOM     41  ND2 ASN B   4      -3.178  19.724   8.416  1.00 33.19 LIG-0.37  N 
ATOM     42 22HD ASN B   4      -3.687  19.418   9.037  1.00 33.19 LIG 0.16  HD
ATOM     43 21HD ASN B   4      -2.986  20.562   8.392  1.00 33.19 LIG 0.16  HD
ATOM     44 OD1  ASN B   4      -1.977  19.290   6.617  1.00 34.60 LIG-0.27  OA
ENDBRANCH 39 40
ENDBRANCH 31 39
ENDBRANCH 28 31
ENDBRANCH 25 27
ENDBRANCH 3 25
TORSDOF 16
ENDMDL
MODEL 32
USER: ADFR SOLUTION from run 85
USER: SCORE 14.832144 LL:  -3.307 LR: -12.477 RR:   0.000 FEB:  -7.704
USER: RMSD 5.178073
USER: SEED 84
USER: STATUS no improvement in best in 22 clusters for 5 generations
USER: GENES 18
USER: genes 0 Translation |==|  0.52229 0.54080 0.44067
USER: genes 1 Rotation |==|  0.36638 0.27101 0.75082 0.84176
USER: genes 2 Torsion [N]-C--CA-[N] |==|  0.47448
USER: genes 3 Torsion [C]-CA--N-[C] |==|  0.77405
USER: genes 4 Torsion [N]-C--CA-[N] |==|  0.16319
USER: genes 5 Torsion [C]-CA--CB-[OG] |==|  0.30270
USER: genes 6 Torsion [CA]-CB--OG-[HG] |==|  0.26961
USER: genes 7 Torsion [C]-CA--N-[H1] |==|  0.92779
USER: genes 8 Torsion [C]-CA--CB-[CG] |==|  0.88673
USER: genes 9 Torsion [CA]-CB--CG-[CD1] |==|  0.28149
USER: genes 10 Torsion [C]-N--CA-[CB] |==|  0.19414
USER: genes 11 Torsion [N]-CA--C-[N] |==|  0.06391
USER: genes 12 Torsion [C]-N--CA-[C] |==|  0.53618
USER: genes 13 Torsion [N]-CA--C-[N] |==|  0.52529
USER: genes 14 Torsion [C]-N--CA-[C] |==|  0.70390
USER: genes 15 Torsion [N]-CA--C-[O] |==|  0.06677
USER: genes 16 Torsion [N]-CA--CB-[CG] |==|  0.12628
USER: genes 17 Torsion [CA]-CB--CG-[OD1] |==|  0.24924
ROOT
ATOM      1  C   PHE B   2      -1.917  20.342   3.209  1.00 26.65 LIG 0.24  C 
ATOM      2 O    PHE B   2      -1.600  19.591   2.331  1.00 26.69 LIG-0.27  OA
ATOM      3  N   ALA B   3      -2.697  20.028   4.217  1.00 26.24 LIG-0.35  N 
ATOM      4 H    ALA B   3      -2.974  20.580   4.816  1.00 26.24 LIG 0.16  HD
ENDROOT
BRANCH 1 5
ATOM      5  CA  PHE B   2      -1.460  21.757   3.248  1.00 26.41 LIG 0.18  C 
BRANCH 5 6
ATOM      6  N   PHE B   2      -0.455  22.034   2.275  1.00 26.57 LIG-0.35  N 
ATOM      7  C   SER B   1       0.795  21.713   2.539  1.00 27.36 LIG 0.25  C 
ATOM      8 O    SER B   1       1.161  21.217   3.572  1.00 27.79 LIG-0.27  OA
ATOM      9 H    PHE B   2      -0.730  22.407   1.551  1.00 26.57 LIG 0.16  HD
BRANCH 7 10
ATOM     10  CA  SER B   1       1.816  22.055   1.513  1.00 27.82 LIG 0.30  C 
BRANCH 10 11
ATOM     11  CB  SER B   1       3.224  21.667   1.890  1.00 27.59 LIG 0.21  C 
BRANCH 11 12
ATOM     12 OG   SER B   1       3.667  20.582   1.107  1.00 28.50 LIG-0.40  OA
ATOM     13 HG   SER B   1       4.122  20.869   0.462  1.00 28.50 LIG 0.21  HD
ENDBRANCH 11 12
ENDBRANCH 10 11
BRANCH 10 14
ATOM     14  N   SER B   1       1.712  23.480   1.362  1.00 28.84 LIG-0.06  N 
ATOM     15 H3   SER B   1       1.877  23.703   0.516  1.00 28.84 LIG 0.28  HD
ATOM     16 H2   SER B   1       2.303  23.879   1.894  1.00 28.84 LIG 0.28  HD
ATOM     17 H1   SER B   1       0.891  23.742   1.583  1.00 28.84 LIG 0.28  HD
ENDBRANCH 10 14
ENDBRANCH 7 10
ENDBRANCH 5 6
BRANCH 5 18
ATOM     18  CB  PHE B   2      -2.648  22.633   3.088  1.00 26.01 LIG 0.07  C 
BRANCH 18 19
ATOM     19  CG  PHE B   2      -3.576  22.147   2.111  1.00 24.17 LIG-0.06  A 
ATOM     20  CD1 PHE B   2      -4.708  21.498   2.502  1.00 21.37 LIG 0.01  A 
ATOM     21  CE1 PHE B   2      -5.518  21.069   1.627  1.00 18.48 LIG 0.00  A 
ATOM     22  CZ  PHE B   2      -5.282  21.250   0.361  1.00 20.70 LIG 0.00  A 
ATOM     23  CE2 PHE B   2      -4.256  21.900  -0.064  1.00 22.44 LIG 0.00  A 
ATOM     24  CD2 PHE B   2      -3.369  22.355   0.800  1.00 23.60 LIG 0.01  A 
ENDBRANCH 18 19
ENDBRANCH 5 18
ENDBRANCH 1 5
BRANCH 3 25
ATOM     25  CA  ALA B   3      -3.140  18.696   4.371  1.00 26.83 LIG 0.17  C 
ATOM     26  CB  ALA B   3      -1.993  17.808   4.769  1.00 26.24 LIG 0.04  C 
BRANCH 25 27
ATOM     27  C   ALA B   3      -4.217  18.668   5.427  1.00 26.95 LIG 0.24  C 
ATOM     28  N   ASN B   4      -4.837  19.809   5.621  1.00 27.94 LIG-0.35  N 
ATOM     29 H    ASN B   4      -4.565  20.573   5.334  1.00 27.94 LIG 0.16  HD
ATOM     30 O    ALA B   3      -4.461  17.682   6.006  1.00 26.45 LIG-0.27  OA
BRANCH 28 31
ATOM     31  CA  ASN B   4      -6.067  19.832   6.364  1.00 28.42 LIG 0.18  C 
BRANCH 31 32
ATOM     32  C   ASN B   4      -6.719  21.178   6.163  1.00 28.91 LIG 0.24  C 
ATOM     33 O    ASN B   4      -6.311  21.951   5.343  1.00 29.45 LIG-0.27  OA
ATOM     34  N   GLY B   5      -7.759  21.454   6.908  1.00 28.92 LIG-0.35  N 
ATOM     35 H    GLY B   5      -8.121  20.910   7.467  1.00 28.92 LIG 0.16  HD
BRANCH 34 36
ATOM     36  CA  GLY B   5      -8.373  22.733   6.826  1.00 29.35 LIG 0.21  C 
BRANCH 36 37
ATOM     37  C   GLY B   5      -8.127  23.634   7.979  1.00 28.99 LIG 0.21  C 
ATOM     38 O    GLY B   5      -7.156  23.458   8.639  1.00 30.45 LIG-0.29  OA
ENDBRANCH 36 37
ENDBRANCH 34 36
ENDBRANCH 31 32
BRANCH 31 39
ATOM     39  CB  ASN B   4      -5.814  19.587   7.850  1.00 28.79 LIG 0.14  C 
BRANCH 39 40
ATOM     40  CG  ASN B   4      -4.673  20.380   8.375  1.00 30.59 LIG 0.22  C 
ATOM     41  ND2 ASN B   4      -3.483  19.814   8.372  1.00 33.19 LIG-0.37  N 
ATOM     42 22HD ASN B   4      -3.383  19.026   8.045  1.00 33.19 LIG 0.16  HD
ATOM     43 21HD ASN B   4      -2.807  20.233   8.698  1.00 33.19 LIG 0.16  HD
ATOM     44 OD1  ASN B   4      -4.861  21.477   8.820  1.00 34.60 LIG-0.27  OA
ENDBRANCH 39 40
ENDBRANCH 31 39
ENDBRANCH 28 31
ENDBRANCH 25 27
ENDBRANCH 3 25
TORSDOF 16
ENDMDL
MODEL 33
USER: ADFR SOLUTION from run 54
USER: SCORE 13.848311 LL:  -2.801 LR: -12.468 RR:   0.000 FEB:  -7.696
USER: RMSD 9.949573
USER: SEED 53
USER: STATUS no improvement in best in 24 clusters for 5 generations
USER: GENES 18
USER: genes 0 Translation |==|  0.54666 0.53072 0.28885
USER: genes 1 Rotation |==|  0.64399 0.20176 0.59574 0.86215
USER: genes 2 Torsion [N]-C--CA-[N] |==|  0.42477
USER: genes 3 Torsion [C]-CA--N-[C] |==|  0.71664
USER: genes 4 Torsion [N]-C--CA-[N] |==|  0.07201
USER: genes 5 Torsion [C]-CA--CB-[OG] |==|  0.15449
USER: genes 6 Torsion [CA]-CB--OG-[HG] |==|  0.26857
USER: genes 7 Torsion [C]-CA--N-[H1] |==|  0.00826
USER: genes 8 Torsion [C]-CA--CB-[CG] |==|  0.34530
USER: genes 9 Torsion [CA]-CB--CG-[CD1] |==|  0.12712
USER: genes 10 Torsion [C]-N--CA-[CB] |==|  0.86320
USER: genes 11 Torsion [N]-CA--C-[N] |==|  0.75396
USER: genes 12 Torsion [C]-N--CA-[C] |==|  0.67135
USER: genes 13 Torsion [N]-CA--C-[N] |==|  0.45936
USER: genes 14 Torsion [C]-N--CA-[C] |==|  0.80653
USER: genes 15 Torsion [N]-CA--C-[O] |==|  0.79230
USER: genes 16 Torsion [N]-CA--CB-[CG] |==|  0.17379
USER: genes 17 Torsion [CA]-CB--CG-[OD1] |==|  0.82266
ROOT
ATOM      1  C   PHE B   2      -1.442  20.191  -0.321  1.00 26.65 LIG 0.24  C 
ATOM      2 O    PHE B   2      -1.402  20.884  -1.297  1.00 26.69 LIG-0.27  OA
ATOM      3  N   ALA B   3      -1.949  18.980  -0.282  1.00 26.24 LIG-0.35  N 
ATOM      4 H    ALA B   3      -2.032  18.503   0.428  1.00 26.24 LIG 0.16  HD
ENDROOT
BRANCH 1 5
ATOM      5  CA  PHE B   2      -0.918  20.643   0.996  1.00 26.41 LIG 0.18  C 
BRANCH 5 6
ATOM      6  N   PHE B   2       0.128  21.603   0.868  1.00 26.57 LIG-0.35  N 
ATOM      7  C   SER B   1       1.376  21.214   1.032  1.00 27.36 LIG 0.25  C 
ATOM      8 O    SER B   1       1.701  20.091   1.314  1.00 27.79 LIG-0.27  OA
ATOM      9 H    PHE B   2      -0.123  22.405   0.686  1.00 26.57 LIG 0.16  HD
BRANCH 7 10
ATOM     10  CA  SER B   1       2.432  22.256   0.929  1.00 27.82 LIG 0.30  C 
BRANCH 10 11
ATOM     11  CB  SER B   1       3.618  22.024   1.830  1.00 27.59 LIG 0.21  C 
BRANCH 11 12
ATOM     12 OG   SER B   1       4.179  20.752   1.596  1.00 28.50 LIG-0.40  OA
ATOM     13 HG   SER B   1       4.829  20.825   1.069  1.00 28.50 LIG 0.21  HD
ENDBRANCH 11 12
ENDBRANCH 10 11
BRANCH 10 14
ATOM     14  N   SER B   1       1.767  23.480   1.280  1.00 28.84 LIG-0.06  N 
ATOM     15 H3   SER B   1       1.776  24.035   0.584  1.00 28.84 LIG 0.28  HD
ATOM     16 H2   SER B   1       2.186  23.860   1.967  1.00 28.84 LIG 0.28  HD
ATOM     17 H1   SER B   1       0.924  23.305   1.508  1.00 28.84 LIG 0.28  HD
ENDBRANCH 10 14
ENDBRANCH 7 10
ENDBRANCH 5 6
BRANCH 5 18
ATOM     18  CB  PHE B   2      -2.057  21.160   1.795  1.00 26.01 LIG 0.07  C 
BRANCH 18 19
ATOM     19  CG  PHE B   2      -2.190  20.512   3.066  1.00 24.17 LIG-0.06  A 
ATOM     20  CD1 PHE B   2      -1.096  20.310   3.851  1.00 21.37 LIG 0.01  A 
ATOM     21  CE1 PHE B   2      -1.227  19.730   4.971  1.00 18.48 LIG 0.00  A 
ATOM     22  CZ  PHE B   2      -2.397  19.335   5.379  1.00 20.70 LIG 0.00  A 
ATOM     23  CE2 PHE B   2      -3.471  19.547   4.703  1.00 22.44 LIG 0.00  A 
ATOM     24  CD2 PHE B   2      -3.395  20.129   3.523  1.00 23.60 LIG 0.01  A 
ENDBRANCH 18 19
ENDBRANCH 5 18
ENDBRANCH 1 5
BRANCH 3 25
ATOM     25  CA  ALA B   3      -2.405  18.374  -1.474  1.00 26.83 LIG 0.17  C 
ATOM     26  CB  ALA B   3      -3.306  19.316  -2.225  1.00 26.24 LIG 0.04  C 
BRANCH 25 27
ATOM     27  C   ALA B   3      -1.207  18.010  -2.316  1.00 26.95 LIG 0.24  C 
ATOM     28  N   ASN B   4      -0.791  18.952  -3.131  1.00 27.94 LIG-0.35  N 
ATOM     29 H    ASN B   4      -1.239  19.657  -3.339  1.00 27.94 LIG 0.16  HD
ATOM     30 O    ALA B   3      -0.705  16.960  -2.218  1.00 26.45 LIG-0.27  OA
BRANCH 28 31
ATOM     31  CA  ASN B   4       0.503  18.841  -3.745  1.00 28.42 LIG 0.18  C 
BRANCH 31 32
ATOM     32  C   ASN B   4       1.346  20.009  -3.296  1.00 28.91 LIG 0.24  C 
ATOM     33 O    ASN B   4       0.856  20.957  -2.750  1.00 29.45 LIG-0.27  OA
ATOM     34  N   GLY B   5       2.634  19.931  -3.508  1.00 28.92 LIG-0.35  N 
ATOM     35 H    GLY B   5       3.037  19.248  -3.842  1.00 28.92 LIG 0.16  HD
BRANCH 34 36
ATOM     36  CA  GLY B   5       3.477  21.028  -3.180  1.00 29.35 LIG 0.21  C 
BRANCH 36 37
ATOM     37  C   GLY B   5       3.323  22.229  -4.038  1.00 28.99 LIG 0.21  C 
ATOM     38 O    GLY B   5       3.776  22.204  -5.135  1.00 30.45 LIG-0.29  OA
ENDBRANCH 36 37
ENDBRANCH 34 36
ENDBRANCH 31 32
BRANCH 31 39
ATOM     39  CB  ASN B   4       0.387  18.832  -5.269  1.00 28.79 LIG 0.14  C 
BRANCH 39 40
ATOM     40  CG  ASN B   4      -0.187  20.092  -5.806  1.00 30.59 LIG 0.22  C 
ATOM     41  ND2 ASN B   4       0.596  20.855  -6.541  1.00 33.19 LIG-0.37  N 
ATOM     42 22HD ASN B   4       1.398  20.601  -6.721  1.00 33.19 LIG 0.16  HD
ATOM     43 21HD ASN B   4       0.306  21.606  -6.842  1.00 33.19 LIG 0.16  HD
ATOM     44 OD1  ASN B   4      -1.311  20.404  -5.530  1.00 34.60 LIG-0.27  OA
ENDBRANCH 39 40
ENDBRANCH 31 39
ENDBRANCH 28 31
ENDBRANCH 25 27
ENDBRANCH 3 25
TORSDOF 16
ENDMDL
MODEL 34
USER: ADFR SOLUTION from run 33
USER: SCORE 13.321380 LL:  -3.157 LR: -12.466 RR:   0.000 FEB:  -7.693
USER: RMSD 5.855014
USER: SEED 32
USER: STATUS no improvement in best in 35 clusters for 5 generations
USER: GENES 18
USER: genes 0 Translation |==|  0.48926 0.62714 0.42142
USER: genes 1 Rotation |==|  0.65977 0.39687 0.32875 0.92955
USER: genes 2 Torsion [N]-C--CA-[N] |==|  0.47941
USER: genes 3 Torsion [C]-CA--N-[C] |==|  0.53890
USER: genes 4 Torsion [N]-C--CA-[N] |==|  0.05347
USER: genes 5 Torsion [C]-CA--CB-[OG] |==|  0.19358
USER: genes 6 Torsion [CA]-CB--OG-[HG] |==|  0.24321
USER: genes 7 Torsion [C]-CA--N-[H1] |==|  0.29114
USER: genes 8 Torsion [C]-CA--CB-[CG] |==|  0.21674
USER: genes 9 Torsion [CA]-CB--CG-[CD1] |==|  0.10453
USER: genes 10 Torsion [C]-N--CA-[CB] |==|  0.24517
USER: genes 11 Torsion [N]-CA--C-[N] |==|  0.35664
USER: genes 12 Torsion [C]-N--CA-[C] |==|  0.79374
USER: genes 13 Torsion [N]-CA--C-[N] |==|  0.51088
USER: genes 14 Torsion [C]-N--CA-[C] |==|  0.75458
USER: genes 15 Torsion [N]-CA--C-[O] |==|  0.00340
USER: genes 16 Torsion [N]-CA--CB-[CG] |==|  0.12592
USER: genes 17 Torsion [CA]-CB--CG-[OD1] |==|  0.69737
ROOT
ATOM      1  C   PHE B   2      -2.561  21.637   2.761  1.00 26.65 LIG 0.24  C 
ATOM      2 O    PHE B   2      -2.746  22.771   2.422  1.00 26.69 LIG-0.27  OA
ATOM      3  N   ALA B   3      -3.498  20.818   3.179  1.00 26.24 LIG-0.35  N 
ATOM      4 H    ALA B   3      -3.362  20.024   3.478  1.00 26.24 LIG 0.16  HD
ENDROOT
BRANCH 1 5
ATOM      5  CA  PHE B   2      -1.209  21.017   2.757  1.00 26.41 LIG 0.18  C 
BRANCH 5 6
ATOM      6  N   PHE B   2      -0.227  21.851   2.147  1.00 26.57 LIG-0.35  N 
ATOM      7  C   SER B   1       0.939  21.332   1.822  1.00 27.36 LIG 0.25  C 
ATOM      8 O    SER B   1       1.251  20.190   2.032  1.00 27.79 LIG-0.27  OA
ATOM      9 H    PHE B   2      -0.458  22.669   2.022  1.00 26.57 LIG 0.16  HD
BRANCH 7 10
ATOM     10  CA  SER B   1       1.948  22.246   1.222  1.00 27.82 LIG 0.30  C 
BRANCH 10 11
ATOM     11  CB  SER B   1       3.357  22.014   1.707  1.00 27.59 LIG 0.21  C 
BRANCH 11 12
ATOM     12 OG   SER B   1       3.856  20.791   1.214  1.00 28.50 LIG-0.40  OA
ATOM     13 HG   SER B   1       4.207  20.915   0.461  1.00 28.50 LIG 0.21  HD
ENDBRANCH 11 12
ENDBRANCH 10 11
BRANCH 10 14
ATOM     14  N   SER B   1       1.502  23.563   1.588  1.00 28.84 LIG-0.06  N 
ATOM     15 H3   SER B   1       0.659  23.524   1.870  1.00 28.84 LIG 0.28  HD
ATOM     16 H2   SER B   1       1.554  24.101   0.881  1.00 28.84 LIG 0.28  HD
ATOM     17 H1   SER B   1       2.018  23.880   2.240  1.00 28.84 LIG 0.28  HD
ENDBRANCH 10 14
ENDBRANCH 7 10
ENDBRANCH 5 6
BRANCH 5 18
ATOM     18  CB  PHE B   2      -0.855  20.668   4.156  1.00 26.01 LIG 0.07  C 
BRANCH 18 19
ATOM     19  CG  PHE B   2      -1.495  19.472   4.615  1.00 24.17 LIG-0.06  A 
ATOM     20  CD1 PHE B   2      -1.665  18.417   3.769  1.00 21.37 LIG 0.01  A 
ATOM     21  CE1 PHE B   2      -2.238  17.366   4.187  1.00 18.48 LIG 0.00  A 
ATOM     22  CZ  PHE B   2      -2.656  17.283   5.415  1.00 20.70 LIG 0.00  A 
ATOM     23  CE2 PHE B   2      -2.476  18.228   6.271  1.00 22.44 LIG 0.00  A 
ATOM     24  CD2 PHE B   2      -1.902  19.352   5.890  1.00 23.60 LIG 0.01  A 
ENDBRANCH 18 19
ENDBRANCH 5 18
ENDBRANCH 1 5
BRANCH 3 25
ATOM     25  CA  ALA B   3      -4.849  21.230   3.154  1.00 26.83 LIG 0.17  C 
ATOM     26  CB  ALA B   3      -5.469  20.905   1.822  1.00 26.24 LIG 0.04  C 
BRANCH 25 27
ATOM     27  C   ALA B   3      -5.587  20.522   4.263  1.00 26.95 LIG 0.24  C 
ATOM     28  N   ASN B   4      -6.281  21.303   5.059  1.00 27.94 LIG-0.35  N 
ATOM     29 H    ASN B   4      -6.203  22.159   5.101  1.00 27.94 LIG 0.16  HD
ATOM     30 O    ALA B   3      -5.530  19.360   4.372  1.00 26.45 LIG-0.27  OA
BRANCH 28 31
ATOM     31  CA  ASN B   4      -7.256  20.729   5.944  1.00 28.42 LIG 0.18  C 
BRANCH 31 32
ATOM     32  C   ASN B   4      -8.458  20.321   5.129  1.00 28.91 LIG 0.24  C 
ATOM     33 O    ASN B   4      -8.459  20.409   3.933  1.00 29.45 LIG-0.27  OA
ATOM     34  N   GLY B   5      -9.489  19.847   5.781  1.00 28.92 LIG-0.35  N 
ATOM     35 H    GLY B   5      -9.512  19.712   6.630  1.00 28.92 LIG 0.16  HD
BRANCH 34 36
ATOM     36  CA  GLY B   5     -10.681  19.516   5.083  1.00 29.35 LIG 0.21  C 
BRANCH 36 37
ATOM     37  C   GLY B   5     -11.656  20.624   4.923  1.00 28.99 LIG 0.21  C 
ATOM     38 O    GLY B   5     -11.374  21.693   5.356  1.00 30.45 LIG-0.29  OA
ENDBRANCH 36 37
ENDBRANCH 34 36
ENDBRANCH 31 32
BRANCH 31 39
ATOM     39  CB  ASN B   4      -7.669  21.728   7.025  1.00 28.79 LIG 0.14  C 
BRANCH 39 40
ATOM     40  CG  ASN B   4      -7.938  23.083   6.479  1.00 30.59 LIG 0.22  C 
ATOM     41  ND2 ASN B   4      -8.999  23.233   5.713  1.00 33.19 LIG-0.37  N 
ATOM     42 22HD ASN B   4      -9.524  22.567   5.571  1.00 33.19 LIG 0.16  HD
ATOM     43 21HD ASN B   4      -9.167  23.996   5.355  1.00 33.19 LIG 0.16  HD
ATOM     44 OD1  ASN B   4      -7.177  23.982   6.705  1.00 34.60 LIG-0.27  OA
ENDBRANCH 39 40
ENDBRANCH 31 39
ENDBRANCH 28 31
ENDBRANCH 25 27
ENDBRANCH 3 25
TORSDOF 16
ENDMDL
MODEL 35
USER: ADFR SOLUTION from run 110
USER: SCORE 14.134723 LL:  -2.588 LR: -12.376 RR:   0.000 FEB:  -7.604
USER: RMSD 10.075006
USER: SEED 109
USER: STATUS no improvement in best in 23 clusters for 5 generations
USER: GENES 18
USER: genes 0 Translation |==|  0.56232 0.48810 0.32608
USER: genes 1 Rotation |==|  0.83669 0.44449 0.73631 0.77878
USER: genes 2 Torsion [N]-C--CA-[N] |==|  0.20731
USER: genes 3 Torsion [C]-CA--N-[C] |==|  0.77207
USER: genes 4 Torsion [N]-C--CA-[N] |==|  0.08043
USER: genes 5 Torsion [C]-CA--CB-[OG] |==|  0.12839
USER: genes 6 Torsion [CA]-CB--OG-[HG] |==|  0.21791
USER: genes 7 Torsion [C]-CA--N-[H1] |==|  0.64691
USER: genes 8 Torsion [C]-CA--CB-[CG] |==|  0.29062
USER: genes 9 Torsion [CA]-CB--CG-[CD1] |==|  0.07584
USER: genes 10 Torsion [C]-N--CA-[CB] |==|  0.83842
USER: genes 11 Torsion [N]-CA--C-[N] |==|  0.21450
USER: genes 12 Torsion [C]-N--CA-[C] |==|  0.82942
USER: genes 13 Torsion [N]-CA--C-[N] |==|  0.88333
USER: genes 14 Torsion [C]-N--CA-[C] |==|  0.46625
USER: genes 15 Torsion [N]-CA--C-[O] |==|  0.63336
USER: genes 16 Torsion [N]-CA--CB-[CG] |==|  0.97529
USER: genes 17 Torsion [CA]-CB--CG-[OD1] |==|  0.75888
ROOT
ATOM      1  C   PHE B   2      -1.137  19.551   0.544  1.00 26.65 LIG 0.24  C 
ATOM      2 O    PHE B   2      -2.180  19.577  -0.042  1.00 26.69 LIG-0.27  OA
ATOM      3  N   ALA B   3      -0.128  18.767   0.244  1.00 26.24 LIG-0.35  N 
ATOM      4 H    ALA B   3       0.600  18.704   0.698  1.00 26.24 LIG 0.16  HD
ENDROOT
BRANCH 1 5
ATOM      5  CA  PHE B   2      -0.865  20.422   1.719  1.00 26.41 LIG 0.18  C 
BRANCH 5 6
ATOM      6  N   PHE B   2       0.020  21.497   1.411  1.00 26.57 LIG-0.35  N 
ATOM      7  C   SER B   1       1.318  21.274   1.400  1.00 27.36 LIG 0.25  C 
ATOM      8 O    SER B   1       1.822  20.214   1.663  1.00 27.79 LIG-0.27  OA
ATOM      9 H    PHE B   2      -0.355  22.253   1.244  1.00 26.57 LIG 0.16  HD
BRANCH 7 10
ATOM     10  CA  SER B   1       2.205  22.432   1.111  1.00 27.82 LIG 0.30  C 
BRANCH 10 11
ATOM     11  CB  SER B   1       3.556  22.356   1.777  1.00 27.59 LIG 0.21  C 
BRANCH 11 12
ATOM     12 OG   SER B   1       4.120  21.074   1.612  1.00 28.50 LIG-0.40  OA
ATOM     13 HG   SER B   1       4.442  21.007   0.838  1.00 28.50 LIG 0.21  HD
ENDBRANCH 11 12
ENDBRANCH 10 11
BRANCH 10 14
ATOM     14  N   SER B   1       1.475  23.573   1.588  1.00 28.84 LIG-0.06  N 
ATOM     15 H3   SER B   1       1.897  23.926   2.288  1.00 28.84 LIG 0.28  HD
ATOM     16 H2   SER B   1       0.656  23.322   1.832  1.00 28.84 LIG 0.28  HD
ATOM     17 H1   SER B   1       1.417  24.181   0.940  1.00 28.84 LIG 0.28  HD
ENDBRANCH 10 14
ENDBRANCH 7 10
ENDBRANCH 5 6
BRANCH 5 18
ATOM     18  CB  PHE B   2      -2.164  20.903   2.251  1.00 26.01 LIG 0.07  C 
BRANCH 18 19
ATOM     19  CG  PHE B   2      -2.557  20.238   3.457  1.00 24.17 LIG-0.06  A 
ATOM     20  CD1 PHE B   2      -1.614  19.719   4.293  1.00 21.37 LIG 0.01  A 
ATOM     21  CE1 PHE B   2      -1.976  19.128   5.355  1.00 18.48 LIG 0.00  A 
ATOM     22  CZ  PHE B   2      -3.236  19.021   5.657  1.00 20.70 LIG 0.00  A 
ATOM     23  CE2 PHE B   2      -4.166  19.537   4.932  1.00 22.44 LIG 0.00  A 
ATOM     24  CD2 PHE B   2      -3.851  20.148   3.806  1.00 23.60 LIG 0.01  A 
ENDBRANCH 18 19
ENDBRANCH 5 18
ENDBRANCH 1 5
BRANCH 3 25
ATOM     25  CA  ALA B   3      -0.198  17.945  -0.903  1.00 26.83 LIG 0.17  C 
ATOM     26  CB  ALA B   3      -1.389  17.031  -0.816  1.00 26.24 LIG 0.04  C 
BRANCH 25 27
ATOM     27  C   ALA B   3      -0.302  18.829  -2.121  1.00 26.95 LIG 0.24  C 
ATOM     28  N   ASN B   4       0.824  19.389  -2.501  1.00 27.94 LIG-0.35  N 
ATOM     29 H    ASN B   4       1.540  19.430  -2.025  1.00 27.94 LIG 0.16  HD
ATOM     30 O    ALA B   3      -1.324  18.977  -2.666  1.00 26.45 LIG-0.27  OA
BRANCH 28 31
ATOM     31  CA  ASN B   4       0.915  19.991  -3.802  1.00 28.42 LIG 0.18  C 
BRANCH 31 32
ATOM     32  C   ASN B   4       0.676  18.921  -4.839  1.00 28.91 LIG 0.24  C 
ATOM     33 O    ASN B   4       0.012  19.135  -5.814  1.00 29.45 LIG-0.27  OA
ATOM     34  N   GLY B   5       1.242  17.758  -4.639  1.00 28.92 LIG-0.35  N 
ATOM     35 H    GLY B   5       1.773  17.577  -3.986  1.00 28.92 LIG 0.16  HD
BRANCH 34 36
ATOM     36  CA  GLY B   5       0.997  16.683  -5.535  1.00 29.35 LIG 0.21  C 
BRANCH 36 37
ATOM     37  C   GLY B   5       1.893  15.509  -5.384  1.00 28.99 LIG 0.21  C 
ATOM     38 O    GLY B   5       2.395  15.051  -6.358  1.00 30.45 LIG-0.29  OA
ENDBRANCH 36 37
ENDBRANCH 34 36
ENDBRANCH 31 32
BRANCH 31 39
ATOM     39  CB  ASN B   4       2.285  20.632  -4.015  1.00 28.79 LIG 0.14  C 
BRANCH 39 40
ATOM     40  CG  ASN B   4       3.099  20.666  -2.773  1.00 30.59 LIG 0.22  C 
ATOM     41  ND2 ASN B   4       3.895  19.642  -2.537  1.00 33.19 LIG-0.37  N 
ATOM     42 22HD ASN B   4       3.952  19.002  -3.107  1.00 33.19 LIG 0.16  HD
ATOM     43 21HD ASN B   4       4.356  19.615  -1.812  1.00 33.19 LIG 0.16  HD
ATOM     44 OD1  ASN B   4       2.987  21.582  -2.007  1.00 34.60 LIG-0.27  OA
ENDBRANCH 39 40
ENDBRANCH 31 39
ENDBRANCH 28 31
ENDBRANCH 25 27
ENDBRANCH 3 25
TORSDOF 16
ENDMDL
MODEL 36
USER: ADFR SOLUTION from run 73
USER: SCORE 14.504665 LL:  -2.899 LR: -12.366 RR:   0.000 FEB:  -7.593
USER: RMSD 5.244951
USER: SEED 72
USER: STATUS no improvement in best in 6 clusters for 5 generations
USER: GENES 18
USER: genes 0 Translation |==|  0.49069 0.44016 0.55284
USER: genes 1 Rotation |==|  0.22333 0.46723 0.91458 0.52239
USER: genes 2 Torsion [N]-C--CA-[N] |==|  0.34561
USER: genes 3 Torsion [C]-CA--N-[C] |==|  0.72293
USER: genes 4 Torsion [N]-C--CA-[N] |==|  0.55679
USER: genes 5 Torsion [C]-CA--CB-[OG] |==|  0.22900
USER: genes 6 Torsion [CA]-CB--OG-[HG] |==|  0.72324
USER: genes 7 Torsion [C]-CA--N-[H1] |==|  0.17755
USER: genes 8 Torsion [C]-CA--CB-[CG] |==|  0.68981
USER: genes 9 Torsion [CA]-CB--CG-[CD1] |==|  0.30897
USER: genes 10 Torsion [C]-N--CA-[CB] |==|  0.51330
USER: genes 11 Torsion [N]-CA--C-[N] |==|  0.33692
USER: genes 12 Torsion [C]-N--CA-[C] |==|  0.77730
USER: genes 13 Torsion [N]-CA--C-[N] |==|  0.95305
USER: genes 14 Torsion [C]-N--CA-[C] |==|  0.53537
USER: genes 15 Torsion [N]-CA--C-[O] |==|  0.89413
USER: genes 16 Torsion [N]-CA--CB-[CG] |==|  0.55736
USER: genes 17 Torsion [CA]-CB--CG-[OD1] |==|  0.73133
ROOT
ATOM      1  C   PHE B   2      -2.534  18.832   5.817  1.00 26.65 LIG 0.24  C 
ATOM      2 O    PHE B   2      -1.604  18.409   6.441  1.00 26.69 LIG-0.27  OA
ATOM      3  N   ALA B   3      -3.615  19.356   6.346  1.00 26.24 LIG-0.35  N 
ATOM      4 H    ALA B   3      -4.308  19.607   5.904  1.00 26.24 LIG 0.16  HD
ENDROOT
BRANCH 1 5
ATOM      5  CA  PHE B   2      -2.573  18.800   4.330  1.00 26.41 LIG 0.18  C 
BRANCH 5 6
ATOM      6  N   PHE B   2      -1.454  19.456   3.738  1.00 26.57 LIG-0.35  N 
ATOM      7  C   SER B   1      -1.597  20.686   3.290  1.00 27.36 LIG 0.25  C 
ATOM      8 O    SER B   1      -2.632  21.298   3.320  1.00 27.79 LIG-0.27  OA
ATOM      9 H    PHE B   2      -0.727  18.997   3.707  1.00 26.57 LIG 0.16  HD
BRANCH 7 10
ATOM     10  CA  SER B   1      -0.414  21.318   2.646  1.00 27.82 LIG 0.30  C 
BRANCH 10 11
ATOM     11  CB  SER B   1       0.898  20.997   3.316  1.00 27.59 LIG 0.21  C 
BRANCH 11 12
ATOM     12 OG   SER B   1       1.385  19.747   2.880  1.00 28.50 LIG-0.40  OA
ATOM     13 HG   SER B   1       1.205  19.161   3.454  1.00 28.50 LIG 0.21  HD
ENDBRANCH 11 12
ENDBRANCH 10 11
BRANCH 10 14
ATOM     14  N   SER B   1      -0.679  22.729   2.713  1.00 28.84 LIG-0.06  N 
ATOM     15 H3   SER B   1      -1.460  22.904   2.324  1.00 28.84 LIG 0.28  HD
ATOM     16 H2   SER B   1      -0.033  23.173   2.292  1.00 28.84 LIG 0.28  HD
ATOM     17 H1   SER B   1      -0.708  22.985   3.565  1.00 28.84 LIG 0.28  HD
ENDBRANCH 10 14
ENDBRANCH 7 10
ENDBRANCH 5 6
BRANCH 5 18
ATOM     18  CB  PHE B   2      -2.683  17.384   3.899  1.00 26.01 LIG 0.07  C 
BRANCH 18 19
ATOM     19  CG  PHE B   2      -1.504  16.906   3.240  1.00 24.17 LIG-0.06  A 
ATOM     20  CD1 PHE B   2      -0.715  15.970   3.839  1.00 21.37 LIG 0.01  A 
ATOM     21  CE1 PHE B   2       0.328  15.560   3.246  1.00 18.48 LIG 0.00  A 
ATOM     22  CZ  PHE B   2       0.646  16.017   2.071  1.00 20.70 LIG 0.00  A 
ATOM     23  CE2 PHE B   2      -0.090  16.861   1.437  1.00 22.44 LIG 0.00  A 
ATOM     24  CD2 PHE B   2      -1.177  17.338   2.010  1.00 23.60 LIG 0.01  A 
ENDBRANCH 18 19
ENDBRANCH 5 18
ENDBRANCH 1 5
BRANCH 3 25
ATOM     25  CA  ALA B   3      -3.690  19.540   7.744  1.00 26.83 LIG 0.17  C 
ATOM     26  CB  ALA B   3      -5.055  20.042   8.130  1.00 26.24 LIG 0.04  C 
BRANCH 25 27
ATOM     27  C   ALA B   3      -3.406  18.221   8.418  1.00 26.95 LIG 0.24  C 
ATOM     28  N   ASN B   4      -2.384  18.225   9.243  1.00 27.94 LIG-0.35  N 
ATOM     29 H    ASN B   4      -1.787  18.844   9.286  1.00 27.94 LIG 0.16  HD
ATOM     30 O    ALA B   3      -4.071  17.285   8.204  1.00 26.45 LIG-0.27  OA
BRANCH 28 31
ATOM     31  CA  ASN B   4      -2.208  17.135  10.162  1.00 28.42 LIG 0.18  C 
BRANCH 31 32
ATOM     32  C   ASN B   4      -3.129  17.350  11.338  1.00 28.91 LIG 0.24  C 
ATOM     33 O    ASN B   4      -3.383  16.460  12.100  1.00 29.45 LIG-0.27  OA
ATOM     34  N   GLY B   5      -3.619  18.552  11.500  1.00 28.92 LIG-0.35  N 
ATOM     35 H    GLY B   5      -3.421  19.233  11.013  1.00 28.92 LIG 0.16  HD
BRANCH 34 36
ATOM     36  CA  GLY B   5      -4.554  18.805  12.540  1.00 29.35 LIG 0.21  C 
BRANCH 36 37
ATOM     37  C   GLY B   5      -5.264  20.105  12.457  1.00 28.99 LIG 0.21  C 
ATOM     38 O    GLY B   5      -4.661  21.059  12.088  1.00 30.45 LIG-0.29  OA
ENDBRANCH 36 37
ENDBRANCH 34 36
ENDBRANCH 31 32
BRANCH 31 39
ATOM     39  CB  ASN B   4      -0.759  17.048  10.638  1.00 28.79 LIG 0.14  C 
BRANCH 39 40
ATOM     40  CG  ASN B   4      -0.411  15.707  11.172  1.00 30.59 LIG 0.22  C 
ATOM     41  ND2 ASN B   4      -0.114  14.762  10.304  1.00 33.19 LIG-0.37  N 
ATOM     42 22HD ASN B   4      -0.096  14.941   9.463  1.00 33.19 LIG 0.16  HD
ATOM     43 21HD ASN B   4       0.061  13.965  10.577  1.00 33.19 LIG 0.16  HD
ATOM     44 OD1  ASN B   4      -0.450  15.504  12.353  1.00 34.60 LIG-0.27  OA
ENDBRANCH 39 40
ENDBRANCH 31 39
ENDBRANCH 28 31
ENDBRANCH 25 27
ENDBRANCH 3 25
TORSDOF 16
ENDMDL
MODEL 37
USER: ADFR SOLUTION from run 95
USER: SCORE 14.283534 LL:  -3.261 LR: -12.367 RR:   0.000 FEB:  -7.594
USER: RMSD 5.000246
USER: SEED 94
USER: STATUS no improvement in best in 17 clusters for 5 generations
USER: GENES 18
USER: genes 0 Translation |==|  0.51100 0.53674 0.46533
USER: genes 1 Rotation |==|  0.32842 0.27928 0.80046 0.78560
USER: genes 2 Torsion [N]-C--CA-[N] |==|  0.48775
USER: genes 3 Torsion [C]-CA--N-[C] |==|  0.78149
USER: genes 4 Torsion [N]-C--CA-[N] |==|  0.21770
USER: genes 5 Torsion [C]-CA--CB-[OG] |==|  0.35363
USER: genes 6 Torsion [CA]-CB--OG-[HG] |==|  0.32736
USER: genes 7 Torsion [C]-CA--N-[H1] |==|  0.28547
USER: genes 8 Torsion [C]-CA--CB-[CG] |==|  0.74965
USER: genes 9 Torsion [CA]-CB--CG-[CD1] |==|  0.17142
USER: genes 10 Torsion [C]-N--CA-[CB] |==|  0.15681
USER: genes 11 Torsion [N]-CA--C-[N] |==|  0.89468
USER: genes 12 Torsion [C]-N--CA-[C] |==|  0.82778
USER: genes 13 Torsion [N]-CA--C-[N] |==|  0.94730
USER: genes 14 Torsion [C]-N--CA-[C] |==|  0.65305
USER: genes 15 Torsion [N]-CA--C-[O] |==|  0.74209
USER: genes 16 Torsion [N]-CA--CB-[CG] |==|  0.58040
USER: genes 17 Torsion [CA]-CB--CG-[OD1] |==|  0.43314
ROOT
ATOM      1  C   PHE B   2      -2.137  20.281   3.782  1.00 26.65 LIG 0.24  C 
ATOM      2 O    PHE B   2      -1.602  19.400   3.174  1.00 26.69 LIG-0.27  OA
ATOM      3  N   ALA B   3      -2.979  20.103   4.773  1.00 26.24 LIG-0.35  N 
ATOM      4 H    ALA B   3      -3.411  20.731   5.173  1.00 26.24 LIG 0.16  HD
ENDROOT
BRANCH 1 5
ATOM      5  CA  PHE B   2      -1.912  21.717   3.464  1.00 26.41 LIG 0.18  C 
BRANCH 5 6
ATOM      6  N   PHE B   2      -0.922  21.905   2.456  1.00 26.57 LIG-0.35  N 
ATOM      7  C   SER B   1       0.351  21.815   2.784  1.00 27.36 LIG 0.25  C 
ATOM      8 O    SER B   1       0.746  21.608   3.901  1.00 27.79 LIG-0.27  OA
ATOM      9 H    PHE B   2      -1.221  22.071   1.667  1.00 26.57 LIG 0.16  HD
BRANCH 7 10
ATOM     10  CA  SER B   1       1.350  22.056   1.708  1.00 27.82 LIG 0.30  C 
BRANCH 10 11
ATOM     11  CB  SER B   1       2.723  21.509   2.007  1.00 27.59 LIG 0.21  C 
BRANCH 11 12
ATOM     12 OG   SER B   1       3.172  20.691   0.951  1.00 28.50 LIG-0.40  OA
ATOM     13 HG   SER B   1       3.867  21.024   0.615  1.00 28.50 LIG 0.21  HD
ENDBRANCH 11 12
ENDBRANCH 10 11
BRANCH 10 14
ATOM     14  N   SER B   1       1.397  23.486   1.576  1.00 28.84 LIG-0.06  N 
ATOM     15 H3   SER B   1       0.677  23.844   1.957  1.00 28.84 LIG 0.28  HD
ATOM     16 H2   SER B   1       1.415  23.704   0.713  1.00 28.84 LIG 0.28  HD
ATOM     17 H1   SER B   1       2.130  23.797   1.975  1.00 28.84 LIG 0.28  HD
ENDBRANCH 10 14
ENDBRANCH 7 10
ENDBRANCH 5 6
BRANCH 5 18
ATOM     18  CB  PHE B   2      -3.215  22.319   3.088  1.00 26.01 LIG 0.07  C 
BRANCH 18 19
ATOM     19  CG  PHE B   2      -3.486  22.236   1.683  1.00 24.17 LIG-0.06  A 
ATOM     20  CD1 PHE B   2      -3.593  21.021   1.076  1.00 21.37 LIG 0.01  A 
ATOM     21  CE1 PHE B   2      -3.828  20.961  -0.168  1.00 18.48 LIG 0.00  A 
ATOM     22  CZ  PHE B   2      -3.976  22.048  -0.867  1.00 20.70 LIG 0.00  A 
ATOM     23  CE2 PHE B   2      -3.937  23.220  -0.336  1.00 22.44 LIG 0.00  A 
ATOM     24  CD2 PHE B   2      -3.678  23.345   0.950  1.00 23.60 LIG 0.01  A 
ENDBRANCH 18 19
ENDBRANCH 5 18
ENDBRANCH 1 5
BRANCH 3 25
ATOM     25  CA  ALA B   3      -3.228  18.798   5.254  1.00 26.83 LIG 0.17  C 
ATOM     26  CB  ALA B   3      -1.941  18.144   5.674  1.00 26.24 LIG 0.04  C 
BRANCH 25 27
ATOM     27  C   ALA B   3      -4.177  18.891   6.423  1.00 26.95 LIG 0.24  C 
ATOM     28  N   ASN B   4      -3.983  19.918   7.218  1.00 27.94 LIG-0.35  N 
ATOM     29 H    ASN B   4      -3.278  20.412   7.222  1.00 27.94 LIG 0.16  HD
ATOM     30 O    ALA B   3      -5.017  18.093   6.576  1.00 26.45 LIG-0.27  OA
BRANCH 28 31
ATOM     31  CA  ASN B   4      -4.995  20.281   8.171  1.00 28.42 LIG 0.18  C 
BRANCH 31 32
ATOM     32  C   ASN B   4      -6.246  20.656   7.415  1.00 28.91 LIG 0.24  C 
ATOM     33 O    ASN B   4      -7.315  20.690   7.958  1.00 29.45 LIG-0.27  OA
ATOM     34  N   GLY B   5      -6.111  20.963   6.151  1.00 28.92 LIG-0.35  N 
ATOM     35 H    GLY B   5      -5.360  21.008   5.735  1.00 28.92 LIG 0.16  HD
BRANCH 34 36
ATOM     36  CA  GLY B   5      -7.257  21.250   5.361  1.00 29.35 LIG 0.21  C 
BRANCH 36 37
ATOM     37  C   GLY B   5      -7.405  20.434   4.130  1.00 28.99 LIG 0.21  C 
ATOM     38 O    GLY B   5      -6.959  20.856   3.114  1.00 30.45 LIG-0.29  OA
ENDBRANCH 36 37
ENDBRANCH 34 36
ENDBRANCH 31 32
BRANCH 31 39
ATOM     39  CB  ASN B   4      -4.535  21.449   9.040  1.00 28.79 LIG 0.14  C 
BRANCH 39 40
ATOM     40  CG  ASN B   4      -5.149  21.432  10.393  1.00 30.59 LIG 0.22  C 
ATOM     41  ND2 ASN B   4      -6.319  20.841  10.525  1.00 33.19 LIG-0.37  N 
ATOM     42 22HD ASN B   4      -6.685  20.456   9.849  1.00 33.19 LIG 0.16  HD
ATOM     43 21HD ASN B   4      -6.718  20.840  11.287  1.00 33.19 LIG 0.16  HD
ATOM     44 OD1  ASN B   4      -4.602  21.982  11.307  1.00 34.60 LIG-0.27  OA
ENDBRANCH 39 40
ENDBRANCH 31 39
ENDBRANCH 28 31
ENDBRANCH 25 27
ENDBRANCH 3 25
TORSDOF 16
ENDMDL
MODEL 38
USER: ADFR SOLUTION from run 25
USER: SCORE 14.521295 LL:  -3.222 LR: -12.360 RR:   0.000 FEB:  -7.587
USER: RMSD 10.969281
USER: SEED 24
USER: STATUS no improvement in best in 7 clusters for 5 generations
USER: GENES 18
USER: genes 0 Translation |==|  0.67164 0.57332 0.23011
USER: genes 1 Rotation |==|  0.26208 0.27337 0.12522 0.53967
USER: genes 2 Torsion [N]-C--CA-[N] |==|  0.91667
USER: genes 3 Torsion [C]-CA--N-[C] |==|  0.77906
USER: genes 4 Torsion [N]-C--CA-[N] |==|  0.88183
USER: genes 5 Torsion [C]-CA--CB-[OG] |==|  0.81188
USER: genes 6 Torsion [CA]-CB--OG-[HG] |==|  0.00703
USER: genes 7 Torsion [C]-CA--N-[H1] |==|  0.96235
USER: genes 8 Torsion [C]-CA--CB-[CG] |==|  0.57251
USER: genes 9 Torsion [CA]-CB--CG-[CD1] |==|  0.85085
USER: genes 10 Torsion [C]-N--CA-[CB] |==|  0.86343
USER: genes 11 Torsion [N]-CA--C-[N] |==|  0.77593
USER: genes 12 Torsion [C]-N--CA-[C] |==|  0.85375
USER: genes 13 Torsion [N]-CA--C-[N] |==|  0.35173
USER: genes 14 Torsion [C]-N--CA-[C] |==|  0.54316
USER: genes 15 Torsion [N]-CA--C-[O] |==|  0.37376
USER: genes 16 Torsion [N]-CA--CB-[CG] |==|  0.08211
USER: genes 17 Torsion [CA]-CB--CG-[OD1] |==|  0.27356
ROOT
ATOM      1  C   PHE B   2       0.995  20.830  -1.687  1.00 26.65 LIG 0.24  C 
ATOM      2 O    PHE B   2       1.315  19.887  -2.352  1.00 26.69 LIG-0.27  OA
ATOM      3  N   ALA B   3       1.410  22.060  -1.883  1.00 26.24 LIG-0.35  N 
ATOM      4 H    ALA B   3       1.229  22.728  -1.373  1.00 26.24 LIG 0.16  HD
ENDROOT
BRANCH 1 5
ATOM      5  CA  PHE B   2       0.075  20.706  -0.525  1.00 26.41 LIG 0.18  C 
BRANCH 5 6
ATOM      6  N   PHE B   2       0.344  21.670   0.491  1.00 26.57 LIG-0.35  N 
ATOM      7  C   SER B   1       1.341  21.459   1.325  1.00 27.36 LIG 0.25  C 
ATOM      8 O    SER B   1       2.038  20.479   1.308  1.00 27.79 LIG-0.27  OA
ATOM      9 H    PHE B   2      -0.176  22.355   0.502  1.00 26.57 LIG 0.16  HD
BRANCH 7 10
ATOM     10  CA  SER B   1       1.562  22.471   2.392  1.00 27.82 LIG 0.30  C 
BRANCH 10 11
ATOM     11  CB  SER B   1       0.609  22.360   3.555  1.00 27.59 LIG 0.21  C 
BRANCH 11 12
ATOM     12 OG   SER B   1      -0.702  22.694   3.157  1.00 28.50 LIG-0.40  OA
ATOM     13 HG   SER B   1      -0.711  22.860   2.333  1.00 28.50 LIG 0.21  HD
ENDBRANCH 11 12
ENDBRANCH 10 11
BRANCH 10 14
ATOM     14  N   SER B   1       1.398  23.736   1.729  1.00 28.84 LIG-0.06  N 
ATOM     15 H3   SER B   1       2.063  24.281   1.958  1.00 28.84 LIG 0.28  HD
ATOM     16 H2   SER B   1       0.622  24.099   1.968  1.00 28.84 LIG 0.28  HD
ATOM     17 H1   SER B   1       1.407  23.612   0.847  1.00 28.84 LIG 0.28  HD
ENDBRANCH 10 14
ENDBRANCH 7 10
ENDBRANCH 5 6
BRANCH 5 18
ATOM     18  CB  PHE B   2      -1.320  20.796  -1.025  1.00 26.01 LIG 0.07  C 
BRANCH 18 19
ATOM     19  CG  PHE B   2      -2.239  21.279  -0.038  1.00 24.17 LIG-0.06  A 
ATOM     20  CD1 PHE B   2      -2.318  20.673   1.180  1.00 21.37 LIG 0.01  A 
ATOM     21  CE1 PHE B   2      -3.140  21.108   2.042  1.00 18.48 LIG 0.00  A 
ATOM     22  CZ  PHE B   2      -3.900  22.129   1.778  1.00 20.70 LIG 0.00  A 
ATOM     23  CE2 PHE B   2      -3.830  22.771   0.664  1.00 22.44 LIG 0.00  A 
ATOM     24  CD2 PHE B   2      -3.008  22.354  -0.278  1.00 23.60 LIG 0.01  A 
ENDBRANCH 18 19
ENDBRANCH 5 18
ENDBRANCH 1 5
BRANCH 3 25
ATOM     25  CA  ALA B   3       2.217  22.356  -3.003  1.00 26.83 LIG 0.17  C 
ATOM     26  CB  ALA B   3       3.356  21.377  -3.098  1.00 26.24 LIG 0.04  C 
BRANCH 25 27
ATOM     27  C   ALA B   3       1.361  22.288  -4.243  1.00 26.95 LIG 0.24  C 
ATOM     28  N   ASN B   4       1.149  21.078  -4.708  1.00 27.94 LIG-0.35  N 
ATOM     29 H    ASN B   4       1.589  20.376  -4.476  1.00 27.94 LIG 0.16  HD
ATOM     30 O    ALA B   3       0.927  23.260  -4.724  1.00 26.45 LIG-0.27  OA
BRANCH 28 31
ATOM     31  CA  ASN B   4       0.115  20.862  -5.682  1.00 28.42 LIG 0.18  C 
BRANCH 31 32
ATOM     32  C   ASN B   4      -1.170  21.446  -5.149  1.00 28.91 LIG 0.24  C 
ATOM     33 O    ASN B   4      -1.582  21.156  -4.061  1.00 29.45 LIG-0.27  OA
ATOM     34  N   GLY B   5      -1.803  22.296  -5.916  1.00 28.92 LIG-0.35  N 
ATOM     35 H    GLY B   5      -1.517  22.577  -6.677  1.00 28.92 LIG 0.16  HD
BRANCH 34 36
ATOM     36  CA  GLY B   5      -3.058  22.825  -5.509  1.00 29.35 LIG 0.21  C 
BRANCH 36 37
ATOM     37  C   GLY B   5      -3.850  23.481  -6.579  1.00 28.99 LIG 0.21  C 
ATOM     38 O    GLY B   5      -5.008  23.230  -6.662  1.00 30.45 LIG-0.29  OA
ENDBRANCH 36 37
ENDBRANCH 34 36
ENDBRANCH 31 32
BRANCH 31 39
ATOM     39  CB  ASN B   4      -0.064  19.372  -5.969  1.00 28.79 LIG 0.14  C 
BRANCH 39 40
ATOM     40  CG  ASN B   4       0.277  18.520  -4.802  1.00 30.59 LIG 0.22  C 
ATOM     41  ND2 ASN B   4       1.544  18.208  -4.622  1.00 33.19 LIG-0.37  N 
ATOM     42 22HD ASN B   4       2.144  18.523  -5.152  1.00 33.19 LIG 0.16  HD
ATOM     43 21HD ASN B   4       1.773  17.691  -3.975  1.00 33.19 LIG 0.16  HD
ATOM     44 OD1  ASN B   4      -0.593  18.105  -4.089  1.00 34.60 LIG-0.27  OA
ENDBRANCH 39 40
ENDBRANCH 31 39
ENDBRANCH 28 31
ENDBRANCH 25 27
ENDBRANCH 3 25
TORSDOF 16
ENDMDL
MODEL 39
USER: ADFR SOLUTION from run 146
USER: SCORE 13.978016 LL:  -3.774 LR: -12.343 RR:   0.000 FEB:  -7.571
USER: RMSD 11.335333
USER: SEED 145
USER: STATUS no improvement in best in 6 clusters for 5 generations
USER: GENES 18
USER: genes 0 Translation |==|  0.73126 0.67522 0.18601
USER: genes 1 Rotation |==|  0.91767 0.26306 0.61680 0.57598
USER: genes 2 Torsion [N]-C--CA-[N] |==|  0.42492
USER: genes 3 Torsion [C]-CA--N-[C] |==|  0.55915
USER: genes 4 Torsion [N]-C--CA-[N] |==|  0.96167
USER: genes 5 Torsion [C]-CA--CB-[OG] |==|  0.07170
USER: genes 6 Torsion [CA]-CB--OG-[HG] |==|  0.42670
USER: genes 7 Torsion [C]-CA--N-[H1] |==|  0.99874
USER: genes 8 Torsion [C]-CA--CB-[CG] |==|  0.72742
USER: genes 9 Torsion [CA]-CB--CG-[CD1] |==|  0.69433
USER: genes 10 Torsion [C]-N--CA-[CB] |==|  0.41669
USER: genes 11 Torsion [N]-CA--C-[N] |==|  0.01910
USER: genes 12 Torsion [C]-N--CA-[C] |==|  0.74283
USER: genes 13 Torsion [N]-CA--C-[N] |==|  0.26111
USER: genes 14 Torsion [C]-N--CA-[C] |==|  0.80787
USER: genes 15 Torsion [N]-CA--C-[O] |==|  0.70190
USER: genes 16 Torsion [N]-CA--CB-[CG] |==|  0.08698
USER: genes 17 Torsion [CA]-CB--CG-[OD1] |==|  0.26845
ROOT
ATOM      1  C   PHE B   2       2.158  22.358  -2.712  1.00 26.65 LIG 0.24  C 
ATOM      2 O    PHE B   2       1.300  23.194  -2.726  1.00 26.69 LIG-0.27  OA
ATOM      3  N   ALA B   3       2.966  22.099  -3.714  1.00 26.24 LIG-0.35  N 
ATOM      4 H    ALA B   3       3.543  21.462  -3.729  1.00 26.24 LIG 0.16  HD
ENDROOT
BRANCH 1 5
ATOM      5  CA  PHE B   2       2.401  21.489  -1.530  1.00 26.41 LIG 0.18  C 
BRANCH 5 6
ATOM      6  N   PHE B   2       2.017  22.109  -0.306  1.00 26.57 LIG-0.35  N 
ATOM      7  C   SER B   1       2.539  21.675   0.823  1.00 27.36 LIG 0.25  C 
ATOM      8 O    SER B   1       3.312  20.757   0.899  1.00 27.79 LIG-0.27  OA
ATOM      9 H    PHE B   2       1.449  22.751  -0.375  1.00 26.57 LIG 0.16  HD
BRANCH 7 10
ATOM     10  CA  SER B   1       2.082  22.326   2.079  1.00 27.82 LIG 0.30  C 
BRANCH 10 11
ATOM     11  CB  SER B   1       1.167  21.471   2.919  1.00 27.59 LIG 0.21  C 
BRANCH 11 12
ATOM     12 OG   SER B   1       1.398  20.103   2.670  1.00 28.50 LIG-0.40  OA
ATOM     13 HG   SER B   1       1.181  19.654   3.347  1.00 28.50 LIG 0.21  HD
ENDBRANCH 11 12
ENDBRANCH 10 11
BRANCH 10 14
ATOM     14  N   SER B   1       1.398  23.512   1.642  1.00 28.84 LIG-0.06  N 
ATOM     15 H3   SER B   1       1.794  24.229   1.991  1.00 28.84 LIG 0.28  HD
ATOM     16 H2   SER B   1       0.550  23.482   1.911  1.00 28.84 LIG 0.28  HD
ATOM     17 H1   SER B   1       1.426  23.560   0.754  1.00 28.84 LIG 0.28  HD
ENDBRANCH 10 14
ENDBRANCH 7 10
ENDBRANCH 5 6
BRANCH 5 18
ATOM     18  CB  PHE B   2       1.697  20.200  -1.749  1.00 26.01 LIG 0.07  C 
BRANCH 18 19
ATOM     19  CG  PHE B   2       0.426  20.138  -1.090  1.00 24.17 LIG-0.06  A 
ATOM     20  CD1 PHE B   2       0.249  19.315  -0.018  1.00 21.37 LIG 0.01  A 
ATOM     21  CE1 PHE B   2      -0.882  19.266   0.553  1.00 18.48 LIG 0.00  A 
ATOM     22  CZ  PHE B   2      -1.869  19.999   0.130  1.00 20.70 LIG 0.00  A 
ATOM     23  CE2 PHE B   2      -1.744  20.831  -0.844  1.00 22.44 LIG 0.00  A 
ATOM     24  CD2 PHE B   2      -0.597  20.912  -1.488  1.00 23.60 LIG 0.01  A 
ENDBRANCH 18 19
ENDBRANCH 5 18
ENDBRANCH 1 5
BRANCH 3 25
ATOM     25  CA  ALA B   3       2.920  22.901  -4.875  1.00 26.83 LIG 0.17  C 
ATOM     26  CB  ALA B   3       4.276  22.954  -5.525  1.00 26.24 LIG 0.04  C 
BRANCH 25 27
ATOM     27  C   ALA B   3       1.906  22.313  -5.825  1.00 26.95 LIG 0.24  C 
ATOM     28  N   ASN B   4       1.203  21.314  -5.341  1.00 27.94 LIG-0.35  N 
ATOM     29 H    ASN B   4       1.395  20.877  -4.625  1.00 27.94 LIG 0.16  HD
ATOM     30 O    ALA B   3       1.775  22.744  -6.903  1.00 26.45 LIG-0.27  OA
BRANCH 28 31
ATOM     31  CA  ASN B   4       0.016  20.883  -6.025  1.00 28.42 LIG 0.18  C 
BRANCH 31 32
ATOM     32  C   ASN B   4      -1.165  21.615  -5.437  1.00 28.91 LIG 0.24  C 
ATOM     33 O    ASN B   4      -1.720  21.213  -4.454  1.00 29.45 LIG-0.27  OA
ATOM     34  N   GLY B   5      -1.542  22.716  -6.034  1.00 28.92 LIG-0.35  N 
ATOM     35 H    GLY B   5      -1.140  23.073  -6.706  1.00 28.92 LIG 0.16  HD
BRANCH 34 36
ATOM     36  CA  GLY B   5      -2.694  23.413  -5.580  1.00 29.35 LIG 0.21  C 
BRANCH 36 37
ATOM     37  C   GLY B   5      -3.989  22.730  -5.820  1.00 28.99 LIG 0.21  C 
ATOM     38 O    GLY B   5      -4.709  23.158  -6.662  1.00 30.45 LIG-0.29  OA
ENDBRANCH 36 37
ENDBRANCH 34 36
ENDBRANCH 31 32
BRANCH 31 39
ATOM     39  CB  ASN B   4      -0.178  19.374  -5.886  1.00 28.79 LIG 0.14  C 
BRANCH 39 40
ATOM     40  CG  ASN B   4       0.348  18.845  -4.602  1.00 30.59 LIG 0.22  C 
ATOM     41  ND2 ASN B   4       1.626  18.527  -4.550  1.00 33.19 LIG-0.37  N 
ATOM     42 22HD ASN B   4       2.130  18.658  -5.234  1.00 33.19 LIG 0.16  HD
ATOM     43 21HD ASN B   4       1.957  18.189  -3.832  1.00 33.19 LIG 0.16  HD
ATOM     44 OD1  ASN B   4      -0.392  18.680  -3.673  1.00 34.60 LIG-0.27  OA
ENDBRANCH 39 40
ENDBRANCH 31 39
ENDBRANCH 28 31
ENDBRANCH 25 27
ENDBRANCH 3 25
TORSDOF 16
ENDMDL
MODEL 40
USER: ADFR SOLUTION from run 186
USER: SCORE 14.521679 LL:  -3.091 LR: -12.336 RR:   0.000 FEB:  -7.563
USER: RMSD 5.379432
USER: SEED 185
USER: STATUS no improvement in best in 9 clusters for 5 generations
USER: GENES 18
USER: genes 0 Translation |==|  0.48695 0.40763 0.54385
USER: genes 1 Rotation |==|  0.23254 0.39760 0.90871 0.53053
USER: genes 2 Torsion [N]-C--CA-[N] |==|  0.36860
USER: genes 3 Torsion [C]-CA--N-[C] |==|  0.65397
USER: genes 4 Torsion [N]-C--CA-[N] |==|  0.58053
USER: genes 5 Torsion [C]-CA--CB-[OG] |==|  0.24904
USER: genes 6 Torsion [CA]-CB--OG-[HG] |==|  0.71312
USER: genes 7 Torsion [C]-CA--N-[H1] |==|  0.46496
USER: genes 8 Torsion [C]-CA--CB-[CG] |==|  0.76516
USER: genes 9 Torsion [CA]-CB--CG-[CD1] |==|  0.27539
USER: genes 10 Torsion [C]-N--CA-[CB] |==|  0.15258
USER: genes 11 Torsion [N]-CA--C-[N] |==|  0.63053
USER: genes 12 Torsion [C]-N--CA-[C] |==|  0.81700
USER: genes 13 Torsion [N]-CA--C-[N] |==|  0.38623
USER: genes 14 Torsion [C]-N--CA-[C] |==|  0.81227
USER: genes 15 Torsion [N]-CA--C-[O] |==|  0.88024
USER: genes 16 Torsion [N]-CA--CB-[CG] |==|  0.09850
USER: genes 17 Torsion [CA]-CB--CG-[OD1] |==|  0.64487
ROOT
ATOM      1  C   PHE B   2      -2.607  18.344   5.607  1.00 26.65 LIG 0.24  C 
ATOM      2 O    PHE B   2      -1.616  17.901   6.114  1.00 26.69 LIG-0.27  OA
ATOM      3  N   ALA B   3      -3.732  18.577   6.241  1.00 26.24 LIG-0.35  N 
ATOM      4 H    ALA B   3      -4.462  18.839   5.870  1.00 26.24 LIG 0.16  HD
ENDROOT
BRANCH 1 5
ATOM      5  CA  PHE B   2      -2.676  18.679   4.160  1.00 26.41 LIG 0.18  C 
BRANCH 5 6
ATOM      6  N   PHE B   2      -1.558  19.446   3.721  1.00 26.57 LIG-0.35  N 
ATOM      7  C   SER B   1      -1.769  20.602   3.126  1.00 27.36 LIG 0.25  C 
ATOM      8 O    SER B   1      -2.860  21.053   2.898  1.00 27.79 LIG-0.27  OA
ATOM      9 H    PHE B   2      -0.785  19.100   3.874  1.00 26.57 LIG 0.16  HD
BRANCH 7 10
ATOM     10  CA  SER B   1      -0.575  21.351   2.650  1.00 27.82 LIG 0.30  C 
BRANCH 10 11
ATOM     11  CB  SER B   1       0.667  21.120   3.473  1.00 27.59 LIG 0.21  C 
BRANCH 11 12
ATOM     12 OG   SER B   1       1.398  20.024   2.971  1.00 28.50 LIG-0.40  OA
ATOM     13 HG   SER B   1       1.274  19.355   3.463  1.00 28.50 LIG 0.21  HD
ENDBRANCH 11 12
ENDBRANCH 10 11
BRANCH 10 14
ATOM     14  N   SER B   1      -0.968  22.732   2.713  1.00 28.84 LIG-0.06  N 
ATOM     15 H3   SER B   1      -1.351  22.897   3.500  1.00 28.84 LIG 0.28  HD
ATOM     16 H2   SER B   1      -1.547  22.906   2.060  1.00 28.84 LIG 0.28  HD
ATOM     17 H1   SER B   1      -0.250  23.249   2.618  1.00 28.84 LIG 0.28  HD
ENDBRANCH 10 14
ENDBRANCH 7 10
ENDBRANCH 5 6
BRANCH 5 18
ATOM     18  CB  PHE B   2      -2.820  17.413   3.397  1.00 26.01 LIG 0.07  C 
BRANCH 18 19
ATOM     19  CG  PHE B   2      -1.565  16.774   3.132  1.00 24.17 LIG-0.06  A 
ATOM     20  CD1 PHE B   2      -1.143  15.740   3.912  1.00 21.37 LIG 0.01  A 
ATOM     21  CE1 PHE B   2      -0.028  15.187   3.668  1.00 18.48 LIG 0.00  A 
ATOM     22  CZ  PHE B   2       0.710  15.592   2.677  1.00 20.70 LIG 0.00  A 
ATOM     23  CE2 PHE B   2       0.337  16.529   1.877  1.00 22.44 LIG 0.00  A 
ATOM     24  CD2 PHE B   2      -0.804  17.153   2.091  1.00 23.60 LIG 0.01  A 
ENDBRANCH 18 19
ENDBRANCH 5 18
ENDBRANCH 1 5
BRANCH 3 25
ATOM     25  CA  ALA B   3      -3.798  18.395   7.640  1.00 26.83 LIG 0.17  C 
ATOM     26  CB  ALA B   3      -2.727  19.204   8.321  1.00 26.24 LIG 0.04  C 
BRANCH 25 27
ATOM     27  C   ALA B   3      -5.164  18.826   8.116  1.00 26.95 LIG 0.24  C 
ATOM     28  N   ASN B   4      -5.165  19.606   9.172  1.00 27.94 LIG-0.35  N 
ATOM     29 H    ASN B   4      -4.492  19.734   9.692  1.00 27.94 LIG 0.16  HD
ATOM     30 O    ALA B   3      -6.129  18.477   7.557  1.00 26.45 LIG-0.27  OA
BRANCH 28 31
ATOM     31  CA  ASN B   4      -6.360  20.320   9.526  1.00 28.42 LIG 0.18  C 
BRANCH 31 32
ATOM     32  C   ASN B   4      -6.652  21.328   8.442  1.00 28.91 LIG 0.24  C 
ATOM     33 O    ASN B   4      -5.772  21.954   7.921  1.00 29.45 LIG-0.27  OA
ATOM     34  N   GLY B   5      -7.901  21.473   8.081  1.00 28.92 LIG-0.35  N 
ATOM     35 H    GLY B   5      -8.557  21.006   8.385  1.00 28.92 LIG 0.16  HD
BRANCH 34 36
ATOM     36  CA  GLY B   5      -8.256  22.459   7.122  1.00 29.35 LIG 0.21  C 
BRANCH 36 37
ATOM     37  C   GLY B   5      -8.091  23.867   7.562  1.00 28.99 LIG 0.21  C 
ATOM     38 O    GLY B   5      -8.447  24.164   8.655  1.00 30.45 LIG-0.29  OA
ENDBRANCH 36 37
ENDBRANCH 34 36
ENDBRANCH 31 32
BRANCH 31 39
ATOM     39  CB  ASN B   4      -6.198  21.027  10.871  1.00 28.79 LIG 0.14  C 
BRANCH 39 40
ATOM     40  CG  ASN B   4      -4.821  21.542  11.084  1.00 30.59 LIG 0.22  C 
ATOM     41  ND2 ASN B   4      -4.281  22.257  10.119  1.00 33.19 LIG-0.37  N 
ATOM     42 22HD ASN B   4      -4.734  22.438   9.411  1.00 33.19 LIG 0.16  HD
ATOM     43 21HD ASN B   4      -3.474  22.544  10.196  1.00 33.19 LIG 0.16  HD
ATOM     44 OD1  ASN B   4      -4.227  21.266  12.088  1.00 34.60 LIG-0.27  OA
ENDBRANCH 39 40
ENDBRANCH 31 39
ENDBRANCH 28 31
ENDBRANCH 25 27
ENDBRANCH 3 25
TORSDOF 16
ENDMDL
MODEL 41
USER: ADFR SOLUTION from run 77
USER: SCORE 13.163956 LL:  -2.884 LR: -12.321 RR:   0.000 FEB:  -7.548
USER: RMSD 8.494974
USER: SEED 76
USER: STATUS no improvement in best in 11 clusters for 5 generations
USER: GENES 18
USER: genes 0 Translation |==|  0.53371 0.56764 0.38208
USER: genes 1 Rotation |==|  0.04706 0.52016 0.65590 0.64191
USER: genes 2 Torsion [N]-C--CA-[N] |==|  0.00503
USER: genes 3 Torsion [C]-CA--N-[C] |==|  0.59061
USER: genes 4 Torsion [N]-C--CA-[N] |==|  0.10975
USER: genes 5 Torsion [C]-CA--CB-[OG] |==|  0.92827
USER: genes 6 Torsion [CA]-CB--OG-[HG] |==|  0.72200
USER: genes 7 Torsion [C]-CA--N-[H1] |==|  0.21220
USER: genes 8 Torsion [C]-CA--CB-[CG] |==|  0.68534
USER: genes 9 Torsion [CA]-CB--CG-[CD1] |==|  0.23417
USER: genes 10 Torsion [C]-N--CA-[CB] |==|  0.28369
USER: genes 11 Torsion [N]-CA--C-[N] |==|  0.88476
USER: genes 12 Torsion [C]-N--CA-[C] |==|  0.61376
USER: genes 13 Torsion [N]-CA--C-[N] |==|  0.50461
USER: genes 14 Torsion [C]-N--CA-[C] |==|  0.34953
USER: genes 15 Torsion [N]-CA--C-[O] |==|  0.40564
USER: genes 16 Torsion [N]-CA--CB-[CG] |==|  0.89828
USER: genes 17 Torsion [CA]-CB--CG-[OD1] |==|  0.81141
ROOT
ATOM      1  C   PHE B   2      -1.695  20.745   1.846  1.00 26.65 LIG 0.24  C 
ATOM      2 O    PHE B   2      -2.243  20.054   2.656  1.00 26.69 LIG-0.27  OA
ATOM      3  N   ALA B   3      -2.171  21.876   1.381  1.00 26.24 LIG-0.35  N 
ATOM      4 H    ALA B   3      -1.808  22.344   0.758  1.00 26.24 LIG 0.16  HD
ENDROOT
BRANCH 1 5
ATOM      5  CA  PHE B   2      -0.381  20.380   1.251  1.00 26.41 LIG 0.18  C 
BRANCH 5 6
ATOM      6  N   PHE B   2       0.095  21.362   0.334  1.00 26.57 LIG-0.35  N 
ATOM      7  C   SER B   1       0.810  20.976  -0.702  1.00 27.36 LIG 0.25  C 
ATOM      8 O    SER B   1       1.120  19.834  -0.920  1.00 27.79 LIG-0.27  OA
ATOM      9 H    PHE B   2      -0.118  22.176   0.514  1.00 26.57 LIG 0.16  HD
BRANCH 7 10
ATOM     10  CA  SER B   1       1.319  22.037  -1.612  1.00 27.82 LIG 0.30  C 
BRANCH 10 11
ATOM     11  CB  SER B   1       2.480  21.608  -2.473  1.00 27.59 LIG 0.21  C 
BRANCH 11 12
ATOM     12 OG   SER B   1       3.194  20.560  -1.857  1.00 28.50 LIG-0.40  OA
ATOM     13 HG   SER B   1       3.881  20.870  -1.485  1.00 28.50 LIG 0.21  HD
ENDBRANCH 11 12
ENDBRANCH 10 11
BRANCH 10 14
ATOM     14  N   SER B   1       1.713  23.105  -0.735  1.00 28.84 LIG-0.06  N 
ATOM     15 H3   SER B   1       1.090  23.220  -0.109  1.00 28.84 LIG 0.28  HD
ATOM     16 H2   SER B   1       1.804  23.856  -1.204  1.00 28.84 LIG 0.28  HD
ATOM     17 H1   SER B   1       2.488  22.901  -0.349  1.00 28.84 LIG 0.28  HD
ENDBRANCH 10 14
ENDBRANCH 7 10
ENDBRANCH 5 6
BRANCH 5 18
ATOM     18  CB  PHE B   2       0.579  20.138   2.358  1.00 26.01 LIG 0.07  C 
BRANCH 18 19
ATOM     19  CG  PHE B   2       1.630  21.109   2.411  1.00 24.17 LIG-0.06  A 
ATOM     20  CD1 PHE B   2       1.438  22.295   3.053  1.00 21.37 LIG 0.01  A 
ATOM     21  CE1 PHE B   2       2.376  23.147   3.088  1.00 18.48 LIG 0.00  A 
ATOM     22  CZ  PHE B   2       3.520  22.896   2.524  1.00 20.70 LIG 0.00  A 
ATOM     23  CE2 PHE B   2       3.775  21.773   1.949  1.00 22.44 LIG 0.00  A 
ATOM     24  CD2 PHE B   2       2.832  20.855   1.866  1.00 23.60 LIG 0.01  A 
ENDBRANCH 18 19
ENDBRANCH 5 18
ENDBRANCH 1 5
BRANCH 3 25
ATOM     25  CA  ALA B   3      -3.367  22.404   1.915  1.00 26.83 LIG 0.17  C 
ATOM     26  CB  ALA B   3      -3.061  23.524   2.872  1.00 26.24 LIG 0.04  C 
BRANCH 25 27
ATOM     27  C   ALA B   3      -4.221  22.904   0.776  1.00 26.95 LIG 0.24  C 
ATOM     28  N   ASN B   4      -3.571  23.546  -0.167  1.00 27.94 LIG-0.35  N 
ATOM     29 H    ASN B   4      -2.767  23.843  -0.097  1.00 27.94 LIG 0.16  HD
ATOM     30 O    ALA B   3      -5.373  22.710   0.763  1.00 26.45 LIG-0.27  OA
BRANCH 28 31
ATOM     31  CA  ASN B   4      -4.212  23.794  -1.429  1.00 28.42 LIG 0.18  C 
BRANCH 31 32
ATOM     32  C   ASN B   4      -3.204  23.562  -2.528  1.00 28.91 LIG 0.24  C 
ATOM     33 O    ASN B   4      -2.093  23.182  -2.285  1.00 29.45 LIG-0.27  OA
ATOM     34  N   GLY B   5      -3.601  23.774  -3.756  1.00 28.92 LIG-0.35  N 
ATOM     35 H    GLY B   5      -4.402  23.991  -3.983  1.00 28.92 LIG 0.16  HD
BRANCH 34 36
ATOM     36  CA  GLY B   5      -2.682  23.651  -4.833  1.00 29.35 LIG 0.21  C 
BRANCH 36 37
ATOM     37  C   GLY B   5      -3.094  22.730  -5.922  1.00 28.99 LIG 0.21  C 
ATOM     38 O    GLY B   5      -2.779  22.994  -7.036  1.00 30.45 LIG-0.29  OA
ENDBRANCH 36 37
ENDBRANCH 34 36
ENDBRANCH 31 32
BRANCH 31 39
ATOM     39  CB  ASN B   4      -4.748  25.222  -1.500  1.00 28.79 LIG 0.14  C 
BRANCH 39 40
ATOM     40  CG  ASN B   4      -5.284  25.697  -0.199  1.00 30.59 LIG 0.22  C 
ATOM     41  ND2 ASN B   4      -4.602  26.625   0.441  1.00 33.19 LIG-0.37  N 
ATOM     42 22HD ASN B   4      -3.891  26.956   0.088  1.00 33.19 LIG 0.16  HD
ATOM     43 21HD ASN B   4      -4.867  26.900   1.211  1.00 33.19 LIG 0.16  HD
ATOM     44 OD1  ASN B   4      -6.280  25.207   0.254  1.00 34.60 LIG-0.27  OA
ENDBRANCH 39 40
ENDBRANCH 31 39
ENDBRANCH 28 31
ENDBRANCH 25 27
ENDBRANCH 3 25
TORSDOF 16
ENDMDL
